piperidine-amides-3643-covalent
     RDKit          3D

 19 20  0  0  0  0  0  0  0  0999 V2000
    7.0970   -3.3130   19.3030 C   0  0  0  0  0  0  0  0  0  0  0  0
    6.3960   -4.1350   20.3000 C   0  0  0  0  0  0  0  0  0  0  0  0
    5.3340   -4.6920   19.9350 O   0  0  0  0  0  0  0  0  0  0  0  0
    6.9310   -4.3340   21.5950 N   0  0  0  0  0  0  0  0  0  0  0  0
    7.5900   -3.2270   22.2010 C   0  0  0  0  0  0  0  0  0  0  0  0
    7.1510   -2.9180   23.5590 C   0  0  0  0  0  0  0  0  0  0  0  0
    6.4440   -4.0060   24.2610 C   0  0  0  0  0  0  0  0  0  0  0  0
    5.6820   -3.4720   25.4480 C   0  0  0  0  0  0  0  0  0  0  0  0
    4.4290   -3.5440   25.4810 O   0  0  0  0  0  0  0  0  0  0  0  0
    6.3360   -2.8560   26.5390 N   0  0  0  0  0  0  0  0  0  0  0  0
    5.9930   -1.6410   27.1910 C   0  0  2  0  0  0  0  0  0  0  0  0
    5.9080   -0.3730   26.4490 C   0  0  0  0  0  0  0  0  0  0  0  0
    5.8450    0.8700   27.3790 C   0  0  0  0  0  0  0  0  0  0  0  0
    5.9010    0.6410   28.7380 C   0  0  0  0  0  0  0  0  0  0  0  0
    5.1730    1.4360   29.5990 O   0  0  0  0  0  0  0  0  0  0  0  0
    6.6870   -0.3930   29.2330 N   0  0  0  0  0  0  0  0  0  0  0  0
    7.0260   -1.3700   28.2860 C   0  0  0  0  0  0  0  0  0  0  0  0
    5.5810   -4.8760   23.4240 C   0  0  0  0  0  0  0  0  0  0  0  0
    6.4750   -5.4820   22.3370 C   0  0  0  0  0  0  0  0  0  0  0  0
  1  2  1  0
  2  3  2  0
  2  4  1  0
  4  5  1  0
  5  6  1  0
  6  7  1  0
  7  8  1  0
  8  9  2  0
  8 10  1  0
 11 10  1  6
 11 12  1  0
 12 13  1  0
 13 14  1  0
 14 15  2  0
 14 16  1  0
 11 17  1  0
 16 17  1  0
  7 18  1  0
  4 19  1  0
 18 19  1  0
M  END
