piperidine-amides-35170-covalent
     RDKit          3D

 34 38  0  0  0  0  0  0  0  0999 V2000
    7.0990   -3.2820   19.2190 C   0  0  0  0  0  0  0  0  0  0  0  0
    6.3660   -4.0560   20.2560 C   0  0  0  0  0  0  0  0  0  0  0  0
    5.3160   -4.5880   19.9040 O   0  0  0  0  0  0  0  0  0  0  0  0
    6.8970   -4.2000   21.5450 N   0  0  0  0  0  0  0  0  0  0  0  0
    7.7840   -3.2230   22.1190 C   0  0  0  0  0  0  0  0  0  0  0  0
    7.1040   -2.5070   23.2470 C   0  0  0  0  0  0  0  0  0  0  0  0
    5.7760   -3.1790   23.6050 C   0  0  0  0  0  0  0  0  0  0  0  0
    5.2540   -2.5850   24.8740 C   0  0  0  0  0  0  0  0  0  0  0  0
    4.5200   -3.2910   25.5790 O   0  0  0  0  0  0  0  0  0  0  0  0
    5.5260   -1.2440   25.3130 N   0  0  0  0  0  0  0  0  0  0  0  0
    5.9530   -1.1060   26.6730 C   0  0  0  0  0  0  0  0  0  0  0  0
    6.8630   -2.2260   26.6910 C   0  0  0  0  0  0  0  0  0  0  0  0
    7.8500   -2.4290   25.7280 C   0  0  0  0  0  0  0  0  0  0  0  0
    8.6200   -3.4980   25.7860 C   0  0  0  0  0  0  0  0  0  0  0  0
    8.2920   -4.2250   26.8280 C   0  0  0  0  0  0  0  0  0  0  0  0
    7.2790   -4.0400   27.8440 C   0  0  0  0  0  0  0  0  0  0  0  0
    6.4670   -3.0250   27.8840 N   0  0  0  0  0  0  0  0  0  0  0  0
    7.4080   -5.2060   28.6850 C   0  0  0  0  0  0  0  0  0  0  0  0
    6.8870   -6.0070   27.5550 C   0  0  0  0  0  0  0  0  0  0  0  0
    8.1060   -6.2180   26.6800 C   0  0  0  0  0  0  0  0  0  0  0  0
    9.2450   -5.3280   26.7210 C   0  0  0  0  0  0  0  0  0  0  0  0
    6.4330   -0.2680   24.6930 C   0  0  0  0  0  0  0  0  0  0  0  0
    5.9440    0.4340   23.4640 C   0  0  0  0  0  0  0  0  0  0  0  0
    5.1420   -0.2380   22.4040 C   0  0  0  0  0  0  0  0  0  0  0  0
    4.6810    0.3790   21.2600 C   0  0  0  0  0  0  0  0  0  0  0  0
    4.9600    1.6970   21.0580 N   0  0  0  0  0  0  0  0  0  0  0  0
    5.7440    2.3600   22.0950 C   0  0  0  0  0  0  0  0  0  0  0  0
    6.0200    3.8580   21.7960 C   0  0  0  0  0  0  0  0  0  0  0  0
    6.8360    4.6570   22.8090 C   0  0  0  0  0  0  0  0  0  0  0  0
    7.3070    4.0840   23.9400 C   0  0  0  0  0  0  0  0  0  0  0  0
    7.0190    2.6160   24.2070 C   0  0  0  0  0  0  0  0  0  0  0  0
    6.2360    1.7620   23.2760 C   0  0  0  0  0  0  0  0  0  0  0  0
    5.8620   -4.6680   23.6610 C   0  0  0  0  0  0  0  0  0  0  0  0
    6.3970   -5.2630   22.3780 C   0  0  0  0  0  0  0  0  0  0  0  0
  1  2  1  0
  2  3  2  0
  2  4  1  0
  4  5  1  0
  5  6  1  0
  6  7  1  0
  7  8  1  0
  8  9  2  0
  8 10  1  0
 10 11  1  0
 11 12  1  0
 12 13  2  0
 13 14  1  0
 14 15  2  0
 15 16  1  0
 12 17  1  0
 16 17  2  0
 16 18  1  0
 18 19  1  0
 19 20  1  0
 15 21  1  0
 20 21  1  0
 10 22  1  0
 22 23  1  0
 23 24  2  0
 24 25  1  0
 25 26  2  0
 26 27  1  0
 27 28  1  0
 28 29  2  0
 29 30  1  0
 30 31  2  0
 23 32  1  0
 27 32  2  0
 31 32  1  0
  7 33  1  0
  4 34  1  0
 33 34  1  0
M  END
