piperidine-amides-871-covalent
     RDKit          3D

 24 25  0  0  0  0  0  0  0  0999 V2000
    7.0180   -3.3730   19.3100 C   0  0  0  0  0  0  0  0  0  0  0  0
    6.3340   -4.1220   20.3480 C   0  0  0  0  0  0  0  0  0  0  0  0
    5.3470   -4.8260   19.9770 O   0  0  0  0  0  0  0  0  0  0  0  0
    6.7220   -4.1530   21.7130 N   0  0  0  0  0  0  0  0  0  0  0  0
    6.6920   -5.4940   22.3670 C   0  0  0  0  0  0  0  0  0  0  0  0
    6.0550   -5.1780   23.7800 C   0  0  0  0  0  0  0  0  0  0  0  0
    6.2400   -3.7020   23.9730 C   0  0  0  0  0  0  0  0  0  0  0  0
    5.6530   -3.1210   25.3380 C   0  0  0  0  0  0  0  0  0  0  0  0
    5.0970   -2.0560   25.1250 O   0  0  0  0  0  0  0  0  0  0  0  0
    5.8830   -3.9060   26.3210 N   0  0  0  0  0  0  0  0  0  0  0  0
    6.0320   -4.6840   27.4400 C   0  0  0  0  0  0  0  0  0  0  0  0
    6.3890   -5.9490   27.8030 C   0  0  0  0  0  0  0  0  0  0  0  0
    6.6390   -3.8240   28.5090 C   0  0  0  0  0  0  0  0  0  0  0  0
    4.8100   -5.2760   28.1350 C   0  0  0  0  0  0  0  0  0  0  0  0
    4.4870   -6.7590   28.0840 C   0  0  0  0  0  0  0  0  0  0  0  0
    3.2990   -7.1110   28.8030 C   0  0  0  0  0  0  0  0  0  0  0  0
    2.2270   -6.5460   29.6090 C   0  0  0  0  0  0  0  0  0  0  0  0
    0.7240   -7.3240   30.4620 Br  0  0  0  0  0  0  0  0  0  0  0  0
    2.6610   -5.0610   29.5840 C   0  0  0  0  0  0  0  0  0  0  0  0
    1.8700   -4.3500   30.2290 O   0  0  0  0  0  0  0  0  0  0  0  0
    2.6020   -3.6560   31.1850 C   0  0  0  0  0  0  0  0  0  0  0  0
    3.8240   -4.4880   28.9200 C   0  0  0  0  0  0  0  0  0  0  0  0
    7.6080   -3.1760   23.5880 C   0  0  0  0  0  0  0  0  0  0  0  0
    7.6190   -3.1370   22.2350 C   0  0  0  0  0  0  0  0  0  0  0  0
  1  2  1  0
  2  3  2  0
  2  4  1  0
  4  5  1  0
  5  6  1  0
  6  7  1  0
  7  8  1  0
  8  9  2  0
  8 10  1  0
 11 10  1  0
 11 12  1  0
 11 13  1  0
 11 14  1  0
 14 15  2  0
 15 16  1  0
 16 17  2  0
 17 18  1  0
 17 19  1  0
 19 20  1  0
 20 21  1  0
 14 22  1  0
 19 22  2  0
  7 23  1  0
  4 24  1  0
 23 24  1  0
M  END
