piperidine-amides-117-covalent
     RDKit          3D

 18 19  0  0  0  0  0  0  0  0999 V2000
    7.1540   -3.3080   19.3780 C   0  0  0  0  0  0  0  0  0  0  0  0
    6.4110   -4.1120   20.3150 C   0  0  0  0  0  0  0  0  0  0  0  0
    5.3330   -4.6660   19.9290 O   0  0  0  0  0  0  0  0  0  0  0  0
    6.8770   -4.3500   21.6210 N   0  0  0  0  0  0  0  0  0  0  0  0
    7.7510   -3.3270   22.2470 C   0  0  0  0  0  0  0  0  0  0  0  0
    6.7870   -2.8030   23.3700 C   0  0  0  0  0  0  0  0  0  0  0  0
    6.3840   -4.0520   24.1110 C   0  0  0  0  0  0  0  0  0  0  0  0
    5.6370   -3.7460   25.4760 C   0  0  0  0  0  0  0  0  0  0  0  0
    4.6800   -4.4880   25.6250 O   0  0  0  0  0  0  0  0  0  0  0  0
    6.2100   -2.7900   26.0640 N   0  0  0  0  0  0  0  0  0  0  0  0
    6.7150   -1.7240   26.7090 C   0  0  2  0  0  0  0  0  0  0  0  0
    6.6730   -1.0190   27.7400 C   0  0  0  0  0  0  0  0  0  0  0  0
    5.5940   -0.6530   26.8270 C   0  0  1  0  0  0  0  0  0  0  0  0
    5.6720    0.5210   26.0630 O   0  0  0  0  0  0  0  0  0  0  0  0
    5.6700    0.2120   24.7130 C   0  0  0  0  0  0  0  0  0  0  0  0
    4.4490   -0.6220   24.2920 C   0  0  0  0  0  0  0  0  0  0  0  0
    5.6960   -5.1470   23.3290 C   0  0  0  0  0  0  0  0  0  0  0  0
    6.5560   -5.5660   22.3160 C   0  0  0  0  0  0  0  0  0  0  0  0
  1  2  1  0
  2  3  2  0
  2  4  1  0
  4  5  1  0
  5  6  1  0
  6  7  1  0
  7  8  1  0
  8  9  2  0
  8 10  1  0
 11 10  1  1
 11 12  1  0
 11 13  1  0
 12 13  1  0
 13 14  1  6
 14 15  1  0
 15 16  1  0
  7 17  1  0
  4 18  1  0
 17 18  1  0
M  END
