piperidine-amides-3290-covalent
     RDKit          3D

 22 23  0  0  0  0  0  0  0  0999 V2000
    7.1410   -3.2950   19.1920 C   0  0  0  0  0  0  0  0  0  0  0  0
    6.3270   -3.9960   20.1700 C   0  0  0  0  0  0  0  0  0  0  0  0
    5.2390   -4.4660   19.8490 O   0  0  0  0  0  0  0  0  0  0  0  0
    6.8310   -4.1990   21.4910 N   0  0  0  0  0  0  0  0  0  0  0  0
    7.6140   -3.1650   22.1260 C   0  0  0  0  0  0  0  0  0  0  0  0
    6.8780   -2.6210   23.3170 C   0  0  0  0  0  0  0  0  0  0  0  0
    6.5350   -3.7870   24.2210 C   0  0  0  0  0  0  0  0  0  0  0  0
    5.7930   -3.2940   25.4090 C   0  0  0  0  0  0  0  0  0  0  0  0
    4.5620   -3.0900   25.3940 O   0  0  0  0  0  0  0  0  0  0  0  0
    6.5250   -3.0310   26.5920 N   0  0  0  0  0  0  0  0  0  0  0  0
    6.2490   -3.7660   27.8120 C   0  0  0  0  0  0  0  0  0  0  0  0
    5.9640   -5.2170   27.4930 C   0  0  0  0  0  0  0  0  0  0  0  0
    4.7980   -5.8050   27.8180 N   0  0  0  0  0  0  0  0  0  0  0  0
    4.9420   -6.5700   28.9100 C   0  0  0  0  0  0  0  0  0  0  0  0
    3.9000   -7.3060   29.4670 C   0  0  0  0  0  0  0  0  0  0  0  0
    2.6870   -7.2430   28.8200 C   0  0  0  0  0  0  0  0  0  0  0  0
    1.7720   -6.7360   29.4970 O   0  0  0  0  0  0  0  0  0  0  0  0
    0.4100   -6.7320   29.2870 C   0  0  0  0  0  0  0  0  0  0  0  0
    2.7340   -6.7210   27.5480 C   0  0  0  0  0  0  0  0  0  0  0  0
    3.9600   -6.5450   26.9180 C   0  0  0  0  0  0  0  0  0  0  0  0
    5.8820   -4.9530   23.5760 C   0  0  0  0  0  0  0  0  0  0  0  0
    6.3360   -5.2930   22.2340 C   0  0  0  0  0  0  0  0  0  0  0  0
  1  2  1  0
  2  3  2  0
  2  4  1  0
  4  5  1  0
  5  6  1  0
  6  7  1  0
  7  8  1  0
  8  9  2  0
  8 10  1  0
 10 11  1  0
 11 12  1  0
 12 13  1  0
 13 14  1  0
 14 15  1  0
 15 16  1  0
 16 17  1  0
 17 18  1  0
 16 19  1  0
 13 20  1  0
 19 20  1  0
  7 21  1  0
  4 22  1  0
 21 22  1  0
M  END
