piperidine-amides-24769-covalent
     RDKit          3D

 24 25  0  0  0  0  0  0  0  0999 V2000
    7.0910   -3.2940   19.2520 C   0  0  0  0  0  0  0  0  0  0  0  0
    6.3810   -4.0990   20.2560 C   0  0  0  0  0  0  0  0  0  0  0  0
    5.3340   -4.7050   19.9430 O   0  0  0  0  0  0  0  0  0  0  0  0
    6.8980   -4.2450   21.5500 N   0  0  0  0  0  0  0  0  0  0  0  0
    6.5920   -5.4470   22.2800 C   0  0  0  0  0  0  0  0  0  0  0  0
    5.8320   -4.9900   23.5270 C   0  0  0  0  0  0  0  0  0  0  0  0
    6.6810   -3.9490   24.2420 C   0  0  0  0  0  0  0  0  0  0  0  0
    5.9150   -3.4390   25.3930 C   0  0  0  0  0  0  0  0  0  0  0  0
    4.7630   -2.9960   25.1900 O   0  0  0  0  0  0  0  0  0  0  0  0
    6.4790   -3.4500   26.6880 N   0  0  0  0  0  0  0  0  0  0  0  0
    6.5810   -2.2080   27.4130 C   0  0  0  0  0  0  0  0  0  0  0  0
    6.7850   -4.7370   27.3140 C   0  0  1  0  0  0  0  0  0  0  0  0
    7.1850   -4.5170   28.5970 C   0  0  0  0  0  0  0  0  0  0  0  0
    5.6840   -5.7590   27.4240 C   0  0  0  0  0  0  0  0  0  0  0  0
    5.2690   -6.0410   28.7310 C   0  0  0  0  0  0  0  0  0  0  0  0
    5.9060   -6.8900   29.5220 C   0  0  0  0  0  0  0  0  0  0  0  0
    5.6660   -7.3480   30.9190 C   0  0  0  0  0  0  0  0  0  0  0  0
    4.3910   -6.4890   31.1740 C   0  0  0  0  0  0  0  0  0  0  0  0
    3.9490   -6.7270   32.4340 F   0  0  0  0  0  0  0  0  0  0  0  0
    3.4970   -5.4630   30.4310 C   0  0  0  0  0  0  0  0  0  0  0  0
    4.1680   -5.3850   29.1360 C   0  0  0  0  0  0  0  0  0  0  0  0
    3.5340   -4.5060   28.2700 F   0  0  0  0  0  0  0  0  0  0  0  0
    6.9410   -2.7820   23.3300 C   0  0  0  0  0  0  0  0  0  0  0  0
    7.5650   -3.1530   22.1790 C   0  0  0  0  0  0  0  0  0  0  0  0
  1  2  1  0
  2  3  2  0
  2  4  1  0
  4  5  1  0
  5  6  1  0
  6  7  1  0
  7  8  1  0
  8  9  2  0
  8 10  1  0
 10 11  1  0
 10 12  1  0
 12 13  1  1
 12 14  1  0
 14 15  1  0
 15 16  2  0
 16 17  1  0
 17 18  2  0
 18 19  1  0
 18 20  1  0
 15 21  1  0
 20 21  2  0
 21 22  1  0
  7 23  1  0
  4 24  1  0
 23 24  1  0
M  END
