piperidine-amides-5146-covalent
     RDKit          3D

 22 23  0  0  0  0  0  0  0  0999 V2000
    7.0980   -3.2660   19.1870 C   0  0  0  0  0  0  0  0  0  0  0  0
    6.3270   -4.0100   20.2090 C   0  0  0  0  0  0  0  0  0  0  0  0
    5.2360   -4.4760   19.8470 O   0  0  0  0  0  0  0  0  0  0  0  0
    6.8240   -4.2350   21.4980 N   0  0  0  0  0  0  0  0  0  0  0  0
    7.5580   -3.2110   22.1730 C   0  0  0  0  0  0  0  0  0  0  0  0
    7.1890   -2.9640   23.5770 C   0  0  0  0  0  0  0  0  0  0  0  0
    6.3900   -4.0190   24.2550 C   0  0  0  0  0  0  0  0  0  0  0  0
    5.6440   -3.4670   25.4200 C   0  0  0  0  0  0  0  0  0  0  0  0
    4.5940   -2.8390   25.1910 O   0  0  0  0  0  0  0  0  0  0  0  0
    6.0910   -3.6320   26.7550 N   0  0  0  0  0  0  0  0  0  0  0  0
    6.2410   -4.9600   27.4090 C   0  0  0  0  0  0  0  0  0  0  0  0
    5.0150   -5.4720   28.0340 C   0  0  0  0  0  0  0  0  0  0  0  0
    4.1880   -6.3730   27.2350 C   0  0  0  0  0  0  0  0  0  0  0  0
    4.4050   -6.5940   25.8990 C   0  0  0  0  0  0  0  0  0  0  0  0
    3.6660   -7.4230   25.0860 C   0  0  0  0  0  0  0  0  0  0  0  0
    2.6220   -8.0880   25.6520 C   0  0  0  0  0  0  0  0  0  0  0  0
    1.8270   -8.9360   24.9210 F   0  0  0  0  0  0  0  0  0  0  0  0
    2.3730   -7.8950   26.9850 C   0  0  0  0  0  0  0  0  0  0  0  0
    3.1240   -7.0640   27.7690 C   0  0  0  0  0  0  0  0  0  0  0  0
    2.7600   -6.9580   29.1020 F   0  0  0  0  0  0  0  0  0  0  0  0
    5.4960   -4.7260   23.2820 C   0  0  0  0  0  0  0  0  0  0  0  0
    6.3700   -5.3560   22.2770 C   0  0  0  0  0  0  0  0  0  0  0  0
  1  2  1  0
  2  3  2  0
  2  4  1  0
  4  5  1  0
  5  6  1  0
  6  7  1  0
  7  8  1  0
  8  9  2  0
  8 10  1  0
 10 11  1  0
 11 12  1  0
 12 13  1  0
 13 14  2  0
 14 15  1  0
 15 16  2  0
 16 17  1  0
 16 18  1  0
 13 19  1  0
 18 19  2  0
 19 20  1  0
  7 21  1  0
  4 22  1  0
 21 22  1  0
M  END
