piperidine-amides-408-covalent
     RDKit          3D

 32 34  0  0  0  0  0  0  0  0999 V2000
    7.1440   -3.3390   19.2050 C   0  0  0  0  0  0  0  0  0  0  0  0
    6.4440   -4.0740   20.2320 C   0  0  0  0  0  0  0  0  0  0  0  0
    5.3230   -4.5830   19.9140 O   0  0  0  0  0  0  0  0  0  0  0  0
    6.9820   -4.3230   21.5140 N   0  0  0  0  0  0  0  0  0  0  0  0
    7.8900   -3.3460   22.1520 C   0  0  0  0  0  0  0  0  0  0  0  0
    6.8660   -2.6730   23.1180 C   0  0  0  0  0  0  0  0  0  0  0  0
    6.4170   -3.7580   24.0710 C   0  0  0  0  0  0  0  0  0  0  0  0
    5.3430   -3.1400   25.0350 C   0  0  0  0  0  0  0  0  0  0  0  0
    4.2910   -2.9270   24.4570 O   0  0  0  0  0  0  0  0  0  0  0  0
    5.8510   -3.0260   26.1680 N   0  0  0  0  0  0  0  0  0  0  0  0
    6.3070   -2.8700   27.4050 C   0  0  0  0  0  0  0  0  0  0  0  0
    6.7470   -3.5280   28.4820 C   0  0  0  0  0  0  0  0  0  0  0  0
    5.7160   -4.0210   29.2920 C   0  0  0  0  0  0  0  0  0  0  0  0
    4.6380   -3.0770   29.7200 C   0  0  0  0  0  0  0  0  0  0  0  0
    3.6450   -3.8650   30.5900 C   0  0  0  0  0  0  0  0  0  0  0  0
    2.5100   -3.2480   31.1560 O   0  0  0  0  0  0  0  0  0  0  0  0
    2.6250   -2.5510   32.3790 C   0  0  0  0  0  0  0  0  0  0  0  0
    3.7860   -5.3250   30.9170 C   0  0  0  0  0  0  0  0  0  0  0  0
    2.8370   -5.9510   31.7110 O   0  0  0  0  0  0  0  0  0  0  0  0
    3.0770   -7.1510   32.4330 C   0  0  0  0  0  0  0  0  0  0  0  0
    2.1500   -8.3000   31.9110 C   0  0  0  0  0  0  0  0  0  0  0  0
    1.7090   -9.3030   32.7560 C   0  0  0  0  0  0  0  0  0  0  0  0
    0.8970  -10.3300   32.3470 C   0  0  0  0  0  0  0  0  0  0  0  0
    0.4860  -10.4040   31.0690 C   0  0  0  0  0  0  0  0  0  0  0  0
    0.8830   -9.4470   30.1810 C   0  0  0  0  0  0  0  0  0  0  0  0
    1.7100   -8.4020   30.5960 C   0  0  0  0  0  0  0  0  0  0  0  0
    4.8260   -5.9970   30.4380 C   0  0  0  0  0  0  0  0  0  0  0  0
    5.0690   -7.3050   30.6610 O   0  0  0  0  0  0  0  0  0  0  0  0
    5.6790   -7.9980   29.6000 C   0  0  0  0  0  0  0  0  0  0  0  0
    5.7530   -5.3620   29.6540 C   0  0  0  0  0  0  0  0  0  0  0  0
    5.8250   -5.0180   23.4230 C   0  0  0  0  0  0  0  0  0  0  0  0
    6.6260   -5.4980   22.2430 C   0  0  0  0  0  0  0  0  0  0  0  0
  1  2  1  0
  2  3  2  0
  2  4  1  0
  4  5  1  0
  5  6  1  0
  6  7  1  0
  7  8  1  0
  8  9  2  0
  8 10  1  0
 10 11  1  0
 11 12  1  0
 12 13  1  0
 13 14  2  0
 14 15  1  0
 15 16  1  0
 16 17  1  0
 15 18  2  0
 18 19  1  0
 19 20  1  0
 20 21  1  0
 21 22  2  0
 22 23  1  0
 23 24  2  0
 24 25  1  0
 21 26  1  0
 25 26  2  0
 18 27  1  0
 27 28  1  0
 28 29  1  0
 13 30  1  0
 27 30  2  0
  7 31  1  0
  4 32  1  0
 31 32  1  0
M  END
