piperidine-amides-33123-covalent
     RDKit          3D

 30 33  0  0  0  0  0  0  0  0999 V2000
    7.1170   -3.3420   19.3210 C   0  0  0  0  0  0  0  0  0  0  0  0
    6.4430   -4.1970   20.3060 C   0  0  0  0  0  0  0  0  0  0  0  0
    5.3580   -4.7220   19.9510 O   0  0  0  0  0  0  0  0  0  0  0  0
    7.0340   -4.4760   21.5660 N   0  0  0  0  0  0  0  0  0  0  0  0
    6.5120   -5.5720   22.2860 C   0  0  0  0  0  0  0  0  0  0  0  0
    5.8470   -5.1780   23.5230 C   0  0  0  0  0  0  0  0  0  0  0  0
    6.4090   -4.0080   24.2400 C   0  0  0  0  0  0  0  0  0  0  0  0
    5.4170   -3.4690   25.2280 C   0  0  0  0  0  0  0  0  0  0  0  0
    4.3970   -2.8890   24.8260 O   0  0  0  0  0  0  0  0  0  0  0  0
    5.6490   -3.6230   26.5910 N   0  0  0  0  0  0  0  0  0  0  0  0
    6.7780   -4.1520   27.0690 C   0  0  0  0  0  0  0  0  0  0  0  0
    6.5980   -5.2790   27.9270 C   0  0  1  0  0  0  0  0  0  0  0  0
    7.9550   -5.9220   28.1900 C   0  0  0  0  0  0  0  0  0  0  0  0
    5.9100   -5.0290   29.1850 C   0  0  0  0  0  0  0  0  0  0  0  0
    4.5820   -4.4700   29.1610 N   0  0  0  0  0  0  0  0  0  0  0  0
    4.2260   -3.1680   29.6550 C   0  0  0  0  0  0  0  0  0  0  0  0
    5.4070   -2.2740   29.7660 C   0  0  0  0  0  0  0  0  0  0  0  0
    4.8930   -1.2500   30.7650 C   0  0  0  0  0  0  0  0  0  0  0  0
    5.7380   -0.0980   31.2320 C   0  0  0  0  0  0  0  0  0  0  0  0
    7.1400   -0.0470   30.6250 C   0  0  0  0  0  0  0  0  0  0  0  0
    7.6090   -1.1180   29.6090 C   0  0  0  0  0  0  0  0  0  0  0  0
    6.6640   -2.1990   29.2370 C   0  0  0  0  0  0  0  0  0  0  0  0
    3.7180   -4.7210   28.0300 C   0  0  0  0  0  0  0  0  0  0  0  0
    3.1970   -5.1430   29.3160 C   0  0  0  0  0  0  0  0  0  0  0  0
    2.2230   -5.5130   28.6910 C   0  0  0  0  0  0  0  0  0  0  0  0
    3.0340   -4.9920   27.6630 C   0  0  0  0  0  0  0  0  0  0  0  0
    4.3810   -4.5260   28.8140 C   0  0  0  0  0  0  0  0  0  0  0  0
    4.7230   -4.1780   27.4950 C   0  0  0  0  0  0  0  0  0  0  0  0
    6.7390   -2.8460   23.2950 C   0  0  0  0  0  0  0  0  0  0  0  0
    7.7120   -3.3960   22.2530 C   0  0  0  0  0  0  0  0  0  0  0  0
  1  2  1  0
  2  3  2  0
  2  4  1  0
  4  5  1  0
  5  6  1  0
  6  7  1  0
  7  8  1  0
  8  9  2  0
  8 10  1  0
 10 11  1  0
 11 12  1  0
 12 13  1  1
 12 14  1  0
 14 15  1  0
 15 16  1  0
 16 17  1  0
 17 18  2  0
 18 19  1  0
 19 20  2  0
 20 21  1  0
 17 22  1  0
 21 22  2  0
 15 23  1  0
 23 24  1  0
 24 25  2  0
 25 26  1  0
 26 27  2  0
 10 28  1  0
 23 28  2  0
 27 28  1  0
  7 29  1  0
  4 30  1  0
 29 30  1  0
M  END
