piperidine-amides-29176-covalent
     RDKit          3D

 22 23  0  0  0  0  0  0  0  0999 V2000
    7.0400   -3.2900   19.2870 C   0  0  0  0  0  0  0  0  0  0  0  0
    6.3170   -4.0830   20.2860 C   0  0  0  0  0  0  0  0  0  0  0  0
    5.2900   -4.6760   19.9230 O   0  0  0  0  0  0  0  0  0  0  0  0
    6.7980   -4.1990   21.6150 N   0  0  0  0  0  0  0  0  0  0  0  0
    6.6510   -5.4570   22.2970 C   0  0  0  0  0  0  0  0  0  0  0  0
    5.9670   -5.2140   23.6070 C   0  0  0  0  0  0  0  0  0  0  0  0
    5.9340   -3.7160   23.7490 C   0  0  0  0  0  0  0  0  0  0  0  0
    5.4640   -3.2990   25.1150 C   0  0  0  0  0  0  0  0  0  0  0  0
    4.2650   -3.0560   25.2020 O   0  0  0  0  0  0  0  0  0  0  0  0
    6.3570   -3.2060   26.1830 N   0  0  0  0  0  0  0  0  0  0  0  0
    6.6630   -4.3880   26.9270 C   0  0  0  0  0  0  0  0  0  0  0  0
    6.3730   -1.9520   26.8840 C   0  0  0  0  0  0  0  0  0  0  0  0
    5.5790   -1.8860   28.0070 C   0  0  0  0  0  0  0  0  0  0  0  0
    4.7840   -2.9690   28.3830 C   0  0  0  0  0  0  0  0  0  0  0  0
    3.9340   -2.8490   29.6100 C   0  0  0  0  0  0  0  0  0  0  0  0
    3.8700   -1.6010   30.5030 C   0  0  0  0  0  0  0  0  0  0  0  0
    2.7720   -1.4640   32.0720 Br  0  0  0  0  0  0  0  0  0  0  0  0
    4.7410   -0.5130   30.0300 C   0  0  0  0  0  0  0  0  0  0  0  0
    5.5490   -0.7440   28.7870 C   0  0  0  0  0  0  0  0  0  0  0  0
    6.4040    0.4840   28.4190 C   0  0  0  0  0  0  0  0  0  0  0  0
    7.3310   -3.2000   23.5700 C   0  0  0  0  0  0  0  0  0  0  0  0
    7.5760   -3.1350   22.2150 C   0  0  0  0  0  0  0  0  0  0  0  0
  1  2  1  0
  2  3  2  0
  2  4  1  0
  4  5  1  0
  5  6  1  0
  6  7  1  0
  7  8  1  0
  8  9  2  0
  8 10  1  0
 10 11  1  0
 10 12  1  0
 12 13  1  0
 13 14  2  0
 14 15  1  0
 15 16  2  0
 16 17  1  0
 16 18  1  0
 13 19  1  0
 18 19  2  0
 19 20  1  0
  7 21  1  0
  4 22  1  0
 21 22  1  0
M  END
