piperidine-amides-974-covalent
     RDKit          3D

 24 26  0  0  0  0  0  0  0  0999 V2000
    7.0660   -3.3360   19.3010 C   0  0  0  0  0  0  0  0  0  0  0  0
    6.3720   -4.1850   20.3030 C   0  0  0  0  0  0  0  0  0  0  0  0
    5.3560   -4.8140   19.9710 O   0  0  0  0  0  0  0  0  0  0  0  0
    6.9240   -4.2970   21.5970 N   0  0  0  0  0  0  0  0  0  0  0  0
    7.7200   -3.2600   22.2040 C   0  0  0  0  0  0  0  0  0  0  0  0
    6.8510   -2.6230   23.2840 C   0  0  0  0  0  0  0  0  0  0  0  0
    6.5610   -3.7000   24.2720 C   0  0  0  0  0  0  0  0  0  0  0  0
    5.7120   -3.2440   25.4000 C   0  0  0  0  0  0  0  0  0  0  0  0
    4.4950   -3.2230   25.1880 O   0  0  0  0  0  0  0  0  0  0  0  0
    6.2780   -2.8720   26.6320 N   0  0  0  0  0  0  0  0  0  0  0  0
    6.6220   -1.5600   27.0810 C   0  0  2  0  0  0  0  0  0  0  0  0
    7.1160   -1.4190   28.3660 C   0  0  0  0  0  0  0  0  0  0  0  0
    6.6210   -0.4420   29.2200 C   0  0  0  0  0  0  0  0  0  0  0  0
    6.0810    0.6630   28.6260 C   0  0  0  0  0  0  0  0  0  0  0  0
    5.5760    0.5740   27.3720 N   0  0  0  0  0  0  0  0  0  0  0  0
    5.0480    1.6780   26.8040 C   0  0  0  0  0  0  0  0  0  0  0  0
    3.8710    1.5050   25.8270 C   0  0  0  0  0  0  0  0  0  0  0  0
    4.3520    1.9270   24.4380 C   0  0  0  0  0  0  0  0  0  0  0  0
    5.0630    3.1090   24.3430 C   0  0  0  0  0  0  0  0  0  0  0  0
    5.6000    3.7640   25.5610 C   0  0  0  0  0  0  0  0  0  0  0  0
    6.1130    2.4330   26.0820 C   0  0  0  0  0  0  0  0  0  0  0  0
    5.7200   -0.5640   26.6680 C   0  0  0  0  0  0  0  0  0  0  0  0
    5.8960   -4.9210   23.6960 C   0  0  0  0  0  0  0  0  0  0  0  0
    6.5750   -5.4210   22.4390 C   0  0  0  0  0  0  0  0  0  0  0  0
  1  2  1  0
  2  3  2  0
  2  4  1  0
  4  5  1  0
  5  6  1  0
  6  7  1  0
  7  8  1  0
  8  9  2  0
  8 10  1  0
 11 10  1  1
 11 12  1  0
 12 13  1  0
 13 14  1  0
 14 15  1  0
 15 16  1  0
 16 17  1  0
 17 18  1  0
 18 19  1  0
 19 20  1  0
 16 21  1  0
 20 21  1  0
 11 22  1  0
 15 22  1  0
  7 23  1  0
  4 24  1  0
 23 24  1  0
M  END
