piperidine-amides-236-covalent
     RDKit          3D

 23 25  0  0  0  0  0  0  0  0999 V2000
    7.0450   -3.3710   19.2550 C   0  0  0  0  0  0  0  0  0  0  0  0
    6.3670   -4.1070   20.2980 C   0  0  0  0  0  0  0  0  0  0  0  0
    5.3330   -4.7570   19.9600 O   0  0  0  0  0  0  0  0  0  0  0  0
    6.8240   -4.1880   21.6290 N   0  0  0  0  0  0  0  0  0  0  0  0
    7.6410   -3.0780   22.1880 C   0  0  0  0  0  0  0  0  0  0  0  0
    6.7120   -2.6230   23.3770 C   0  0  0  0  0  0  0  0  0  0  0  0
    6.6600   -3.8460   24.2480 C   0  0  0  0  0  0  0  0  0  0  0  0
    5.9790   -3.6440   25.6730 C   0  0  0  0  0  0  0  0  0  0  0  0
    5.3450   -4.6380   25.9680 O   0  0  0  0  0  0  0  0  0  0  0  0
    6.2220   -2.4980   26.1530 N   0  0  0  0  0  0  0  0  0  0  0  0
    6.2330   -1.2440   26.6840 C   0  0  0  0  0  0  0  0  0  0  0  0
    5.8710   -0.0100   26.1670 C   0  0  0  0  0  0  0  0  0  0  0  0
    5.9290    1.1840   26.8920 C   0  0  0  0  0  0  0  0  0  0  0  0
    6.3890    1.1160   28.2370 C   0  0  0  0  0  0  0  0  0  0  0  0
    6.2940    2.5530   28.6330 C   0  0  0  0  0  0  0  0  0  0  0  0
    6.7340    2.6130   29.9900 N   0  0  0  0  0  0  0  0  0  0  0  0
    7.1590    1.4480   30.7180 C   0  0  0  0  0  0  0  0  0  0  0  0
    7.2690    0.0450   30.3800 C   0  0  0  0  0  0  0  0  0  0  0  0
    7.6810   -0.9740   31.1430 F   0  0  0  0  0  0  0  0  0  0  0  0
    6.7940   -0.0350   28.9080 C   0  0  0  0  0  0  0  0  0  0  0  0
    6.7710   -1.4420   28.1720 C   0  0  0  0  0  0  0  0  0  0  0  0
    5.9510   -5.0010   23.5160 C   0  0  0  0  0  0  0  0  0  0  0  0
    6.6570   -5.3950   22.4160 C   0  0  0  0  0  0  0  0  0  0  0  0
  1  2  1  0
  2  3  2  0
  2  4  1  0
  4  5  1  0
  5  6  1  0
  6  7  1  0
  7  8  1  0
  8  9  2  0
  8 10  1  0
 10 11  1  0
 11 12  2  0
 12 13  1  0
 13 14  2  0
 14 15  1  0
 15 16  2  0
 16 17  1  0
 17 18  2  0
 18 19  1  0
 14 20  1  0
 18 20  1  0
 11 21  1  0
 20 21  2  0
  7 22  1  0
  4 23  1  0
 22 23  1  0
M  END
