piperidine-amides-21716-covalent
     RDKit          3D

 23 24  0  0  0  0  0  0  0  0999 V2000
    7.0980   -3.2840   19.2420 C   0  0  0  0  0  0  0  0  0  0  0  0
    6.3740   -4.0420   20.2640 C   0  0  0  0  0  0  0  0  0  0  0  0
    5.3020   -4.5950   19.9030 O   0  0  0  0  0  0  0  0  0  0  0  0
    6.9050   -4.1580   21.5510 N   0  0  0  0  0  0  0  0  0  0  0  0
    7.6460   -3.0880   22.1750 C   0  0  0  0  0  0  0  0  0  0  0  0
    6.8930   -2.6500   23.3980 C   0  0  0  0  0  0  0  0  0  0  0  0
    6.5930   -3.8100   24.3090 C   0  0  0  0  0  0  0  0  0  0  0  0
    5.7850   -3.3550   25.4740 C   0  0  0  0  0  0  0  0  0  0  0  0
    4.5410   -3.3720   25.3380 O   0  0  0  0  0  0  0  0  0  0  0  0
    6.3090   -2.9020   26.7190 N   0  0  0  0  0  0  0  0  0  0  0  0
    6.2600   -3.7630   27.8830 C   0  0  0  0  0  0  0  0  0  0  0  0
    6.4680   -1.4710   26.8890 C   0  0  0  0  0  0  0  0  0  0  0  0
    6.3640   -1.0970   28.2200 C   0  0  0  0  0  0  0  0  0  0  0  0
    7.3690   -1.1580   29.1660 C   0  0  0  0  0  0  0  0  0  0  0  0
    7.1710   -0.7540   30.4780 C   0  0  0  0  0  0  0  0  0  0  0  0
    5.9490   -0.2690   30.9150 C   0  0  0  0  0  0  0  0  0  0  0  0
    4.9050   -0.1790   30.0310 C   0  0  0  0  0  0  0  0  0  0  0  0
    5.1200   -0.6130   28.6070 C   0  0  0  0  0  0  0  0  0  0  0  0
    4.0020   -0.4960   27.7170 N   0  0  0  0  0  0  0  0  0  0  0  0
    2.9370   -1.1920   27.9630 O   0  0  0  0  0  0  0  0  0  0  0  0
    3.8480    0.6880   27.0880 O   0  0  0  0  0  0  0  0  0  0  0  0
    5.8140   -4.8820   23.6120 C   0  0  0  0  0  0  0  0  0  0  0  0
    6.4690   -5.3170   22.3230 C   0  0  0  0  0  0  0  0  0  0  0  0
  1  2  1  0
  2  3  2  0
  2  4  1  0
  4  5  1  0
  5  6  1  0
  6  7  1  0
  7  8  1  0
  8  9  2  0
  8 10  1  0
 10 11  1  0
 10 12  1  0
 12 13  1  0
 13 14  2  0
 14 15  1  0
 15 16  2  0
 16 17  1  0
 13 18  1  0
 17 18  2  0
 18 19  1  0
 19 20  2  0
 19 21  1  0
  7 22  1  0
  4 23  1  0
 22 23  1  0
M  CHG  2  19   1  21  -1
M  END
