piperidine-amides-18918-covalent
     RDKit          3D

 21 22  0  0  0  0  0  0  0  0999 V2000
    7.0990   -3.3800   19.2410 C   0  0  0  0  0  0  0  0  0  0  0  0
    6.4180   -4.1140   20.2740 C   0  0  0  0  0  0  0  0  0  0  0  0
    5.3500   -4.7210   19.9580 O   0  0  0  0  0  0  0  0  0  0  0  0
    6.9430   -4.2310   21.5760 N   0  0  0  0  0  0  0  0  0  0  0  0
    6.7410   -5.5170   22.2600 C   0  0  0  0  0  0  0  0  0  0  0  0
    5.7540   -5.0040   23.3590 C   0  0  0  0  0  0  0  0  0  0  0  0
    6.4730   -3.9190   24.1440 C   0  0  0  0  0  0  0  0  0  0  0  0
    5.5230   -3.6580   25.3830 C   0  0  0  0  0  0  0  0  0  0  0  0
    4.3630   -3.7480   25.0510 O   0  0  0  0  0  0  0  0  0  0  0  0
    6.1520   -3.4200   26.4400 N   0  0  0  0  0  0  0  0  0  0  0  0
    6.3090   -3.0230   27.7150 C   0  0  0  0  0  0  0  0  0  0  0  0
    6.1820   -3.6660   28.8950 C   0  0  0  0  0  0  0  0  0  0  0  0
    6.9090   -4.8730   28.8170 C   0  0  0  0  0  0  0  0  0  0  0  0
    7.0590   -5.2480   27.4150 C   0  0  1  0  0  0  0  0  0  0  0  0
    8.3020   -6.0550   27.7160 C   0  0  0  0  0  0  0  0  0  0  0  0
    9.3840   -5.3610   28.2460 O   0  0  0  0  0  0  0  0  0  0  0  0
    5.9750   -5.8930   26.8710 O   0  0  0  0  0  0  0  0  0  0  0  0
    5.3060   -6.6680   27.8020 C   0  0  0  0  0  0  0  0  0  0  0  0
    7.4150   -4.0990   26.5320 C   0  0  0  0  0  0  0  0  0  0  0  0
    7.0160   -2.7750   23.4540 C   0  0  0  0  0  0  0  0  0  0  0  0
    7.7830   -3.2990   22.2100 C   0  0  0  0  0  0  0  0  0  0  0  0
  1  2  1  0
  2  3  2  0
  2  4  1  0
  4  5  1  0
  5  6  1  0
  6  7  1  0
  7  8  1  0
  8  9  2  0
  8 10  1  0
 10 11  1  0
 11 12  1  0
 12 13  1  0
 13 14  1  0
 14 15  1  1
 15 16  1  0
 14 17  1  0
 17 18  1  0
 10 19  1  0
 14 19  1  0
  7 20  1  0
  4 21  1  0
 20 21  1  0
M  END
