piperidine-amides-846-covalent
     RDKit          3D

 25 27  0  0  0  0  0  0  0  0999 V2000
    7.1620   -3.3320   19.3890 C   0  0  0  0  0  0  0  0  0  0  0  0
    6.4720   -4.1610   20.3460 C   0  0  0  0  0  0  0  0  0  0  0  0
    5.4290   -4.7900   19.9770 O   0  0  0  0  0  0  0  0  0  0  0  0
    6.9690   -4.3210   21.6530 N   0  0  0  0  0  0  0  0  0  0  0  0
    6.5980   -5.5400   22.3820 C   0  0  0  0  0  0  0  0  0  0  0  0
    5.5930   -4.8850   23.3940 C   0  0  0  0  0  0  0  0  0  0  0  0
    6.3870   -3.8490   24.1650 C   0  0  0  0  0  0  0  0  0  0  0  0
    5.5360   -3.4290   25.4380 C   0  0  0  0  0  0  0  0  0  0  0  0
    4.4910   -4.0600   25.4370 O   0  0  0  0  0  0  0  0  0  0  0  0
    6.1020   -2.5430   26.1650 N   0  0  0  0  0  0  0  0  0  0  0  0
    6.4760   -1.5760   27.0500 C   0  0  0  0  0  0  0  0  0  0  0  0
    7.0800   -1.4800   28.2590 C   0  0  0  0  0  0  0  0  0  0  0  0
    7.2990   -0.2690   28.9290 C   0  0  0  0  0  0  0  0  0  0  0  0
    8.1080   -0.2990   30.5200 Cl  0  0  0  0  0  0  0  0  0  0  0  0
    6.9460    1.0910   28.5070 C   0  0  0  0  0  0  0  0  0  0  0  0
    6.2520    1.1150   27.1310 C   0  0  0  0  0  0  0  0  0  0  0  0
    6.0980   -0.1660   26.5660 C   0  0  0  0  0  0  0  0  0  0  0  0
    5.5390   -0.1560   25.4410 O   0  0  0  0  0  0  0  0  0  0  0  0
    5.6470    0.9260   24.5830 C   0  0  0  0  0  0  0  0  0  0  0  0
    4.3990    1.6550   24.0520 C   0  0  0  0  0  0  0  0  0  0  0  0
    4.7490    1.9400   22.5810 C   0  0  0  0  0  0  0  0  0  0  0  0
    5.9260    1.3230   22.3650 C   0  0  0  0  0  0  0  0  0  0  0  0
    6.4030    0.5910   23.4390 C   0  0  0  0  0  0  0  0  0  0  0  0
    6.9490   -2.7280   23.3100 C   0  0  0  0  0  0  0  0  0  0  0  0
    7.7250   -3.2860   22.3260 C   0  0  0  0  0  0  0  0  0  0  0  0
  1  2  1  0
  2  3  2  0
  2  4  1  0
  4  5  1  0
  5  6  1  0
  6  7  1  0
  7  8  1  0
  8  9  2  0
  8 10  1  0
 10 11  1  0
 11 12  2  0
 12 13  1  0
 13 14  1  0
 13 15  2  0
 15 16  1  0
 11 17  1  0
 16 17  2  0
 17 18  1  0
 18 19  1  0
 19 20  1  0
 20 21  1  0
 21 22  1  0
 19 23  1  0
 22 23  1  0
  7 24  1  0
  4 25  1  0
 24 25  1  0
M  END
