piperidine-amides-26199-covalent
     RDKit          3D

 25 26  0  0  0  0  0  0  0  0999 V2000
    7.1410   -3.2880   19.2260 C   0  0  0  0  0  0  0  0  0  0  0  0
    6.3640   -4.0090   20.2330 C   0  0  0  0  0  0  0  0  0  0  0  0
    5.3050   -4.5650   19.8990 O   0  0  0  0  0  0  0  0  0  0  0  0
    6.8300   -4.1230   21.5540 N   0  0  0  0  0  0  0  0  0  0  0  0
    7.7780   -3.1730   22.1090 C   0  0  0  0  0  0  0  0  0  0  0  0
    7.2790   -2.7460   23.4690 C   0  0  0  0  0  0  0  0  0  0  0  0
    6.0170   -3.4510   23.8630 C   0  0  0  0  0  0  0  0  0  0  0  0
    5.6820   -3.2260   25.2870 C   0  0  0  0  0  0  0  0  0  0  0  0
    4.4930   -2.9370   25.6140 O   0  0  0  0  0  0  0  0  0  0  0  0
    6.6280   -3.3330   26.3280 N   0  0  0  0  0  0  0  0  0  0  0  0
    7.3660   -2.1190   26.7540 C   0  0  0  0  0  0  0  0  0  0  0  0
    6.8190   -1.6130   28.0300 C   0  0  0  0  0  0  0  0  0  0  0  0
    7.7240   -1.3560   29.1520 C   0  0  0  0  0  0  0  0  0  0  0  0
    7.1580   -0.8320   30.4420 C   0  0  0  0  0  0  0  0  0  0  0  0
    5.6650   -0.5830   30.5700 C   0  0  0  0  0  0  0  0  0  0  0  0
    4.9180   -0.9080   29.3260 C   0  0  0  0  0  0  0  0  0  0  0  0
    5.4770   -1.3830   28.1650 C   0  0  0  0  0  0  0  0  0  0  0  0
    6.7940   -4.5570   27.0350 C   0  0  2  0  0  0  0  0  0  0  0  0
    6.6330   -4.4770   28.5220 C   0  0  0  0  0  0  0  0  0  0  0  0
    8.0530   -5.2890   26.7690 C   0  0  0  0  0  0  0  0  0  0  0  0
    8.8650   -5.3720   28.0190 C   0  0  0  0  0  0  0  0  0  0  0  0
    8.9290   -4.7960   25.8410 C   0  0  0  0  0  0  0  0  0  0  0  0
    7.7520   -6.3450   26.2200 O   0  0  0  0  0  0  0  0  0  0  0  0
    5.9710   -4.8990   23.5820 C   0  0  0  0  0  0  0  0  0  0  0  0
    6.4970   -5.2470   22.3630 C   0  0  0  0  0  0  0  0  0  0  0  0
  1  2  1  0
  2  3  2  0
  2  4  1  0
  4  5  1  0
  5  6  1  0
  6  7  1  0
  7  8  1  0
  8  9  2  0
  8 10  1  0
 10 11  1  0
 11 12  1  0
 12 13  2  0
 13 14  1  0
 14 15  2  0
 15 16  1  0
 12 17  1  0
 16 17  2  0
 10 18  1  0
 18 19  1  1
 18 20  1  0
 20 21  1  0
 20 22  1  0
 20 23  1  0
  7 24  1  0
  4 25  1  0
 24 25  1  0
M  END
