piperidine-amides-11840-covalent
     RDKit          3D

 27 30  0  0  0  0  0  0  0  0999 V2000
    7.0220   -3.3500   19.3210 C   0  0  0  0  0  0  0  0  0  0  0  0
    6.3510   -4.1770   20.3250 C   0  0  0  0  0  0  0  0  0  0  0  0
    5.3780   -4.8530   19.9850 O   0  0  0  0  0  0  0  0  0  0  0  0
    6.8350   -4.2410   21.6830 N   0  0  0  0  0  0  0  0  0  0  0  0
    7.6970   -3.2000   22.2030 C   0  0  0  0  0  0  0  0  0  0  0  0
    7.6400   -3.1460   23.7030 C   0  0  0  0  0  0  0  0  0  0  0  0
    6.2500   -3.5990   24.1100 C   0  0  0  0  0  0  0  0  0  0  0  0
    5.9120   -3.2710   25.5360 C   0  0  0  0  0  0  0  0  0  0  0  0
    4.9930   -3.8770   26.1230 O   0  0  0  0  0  0  0  0  0  0  0  0
    6.6090   -2.2440   26.2480 N   0  0  0  0  0  0  0  0  0  0  0  0
    5.8100   -1.2550   26.9760 C   0  0  1  0  0  0  0  0  0  0  0  0
    6.5910   -0.7690   28.2080 C   0  0  0  0  0  0  0  0  0  0  0  0
    7.4850   -1.5630   28.8700 C   0  0  0  0  0  0  0  0  0  0  0  0
    8.2000   -1.1020   29.9850 C   0  0  0  0  0  0  0  0  0  0  0  0
    8.0110    0.1430   30.4750 C   0  0  0  0  0  0  0  0  0  0  0  0
    7.0830    0.9630   29.8000 C   0  0  0  0  0  0  0  0  0  0  0  0
    6.4120    0.5140   28.7040 C   0  0  0  0  0  0  0  0  0  0  0  0
    5.5480    1.3200   28.0740 C   0  0  0  0  0  0  0  0  0  0  0  0
    4.6620    0.7030   27.2310 C   0  0  0  0  0  0  0  0  0  0  0  0
    5.1630   -0.2260   26.2130 C   0  0  1  0  0  0  0  0  0  0  0  0
    5.6440   -0.5780   25.2110 N   0  0  0  0  0  0  0  0  0  0  0  0
    4.5800   -0.6050   24.2260 C   0  0  0  0  0  0  0  0  0  0  0  0
    4.9060    0.1980   23.1310 C   0  0  0  0  0  0  0  0  0  0  0  0
    6.2600    0.6940   23.3270 C   0  0  0  0  0  0  0  0  0  0  0  0
    6.6600    0.1170   24.6620 C   0  0  0  0  0  0  0  0  0  0  0  0
    6.0580   -5.0490   23.7710 C   0  0  0  0  0  0  0  0  0  0  0  0
    6.6550   -5.4550   22.4560 C   0  0  0  0  0  0  0  0  0  0  0  0
  1  2  1  0
  2  3  2  0
  2  4  1  0
  4  5  1  0
  5  6  1  0
  6  7  1  0
  7  8  1  0
  8  9  2  0
  8 10  1  0
 11 10  1  6
 11 12  1  0
 12 13  2  0
 13 14  1  0
 14 15  2  0
 15 16  1  0
 12 17  1  0
 16 17  2  0
 17 18  1  0
 18 19  1  0
 11 20  1  0
 19 20  1  0
 20 21  1  6
 21 22  1  0
 22 23  1  0
 23 24  1  0
 21 25  1  0
 24 25  1  0
  7 26  1  0
  4 27  1  0
 26 27  1  0
M  END
