piperidine-amides-3007-covalent
     RDKit          3D

 23 24  0  0  0  0  0  0  0  0999 V2000
    7.1350   -3.2800   19.1790 C   0  0  0  0  0  0  0  0  0  0  0  0
    6.3740   -4.0200   20.1780 C   0  0  0  0  0  0  0  0  0  0  0  0
    5.2930   -4.5250   19.8780 O   0  0  0  0  0  0  0  0  0  0  0  0
    6.9130   -4.2140   21.4880 N   0  0  0  0  0  0  0  0  0  0  0  0
    7.7360   -3.1960   22.0870 C   0  0  0  0  0  0  0  0  0  0  0  0
    7.0610   -2.6610   23.3050 C   0  0  0  0  0  0  0  0  0  0  0  0
    6.5130   -3.8390   24.0800 C   0  0  0  0  0  0  0  0  0  0  0  0
    5.7140   -3.3260   25.2090 C   0  0  0  0  0  0  0  0  0  0  0  0
    4.5260   -2.9630   25.0940 O   0  0  0  0  0  0  0  0  0  0  0  0
    6.3420   -3.2500   26.4470 N   0  0  0  0  0  0  0  0  0  0  0  0
    5.9560   -4.2130   27.4350 C   0  0  0  0  0  0  0  0  0  0  0  0
    6.4170   -3.6520   28.7310 C   0  0  0  0  0  0  0  0  0  0  0  0
    5.6920   -2.6000   29.2650 C   0  0  0  0  0  0  0  0  0  0  0  0
    4.3320   -2.7520   29.5200 C   0  0  0  0  0  0  0  0  0  0  0  0
    3.6260   -1.6960   30.0580 C   0  0  0  0  0  0  0  0  0  0  0  0
    4.2770   -0.4230   30.3630 C   0  0  0  0  0  0  0  0  0  0  0  0
    3.6280    0.6690   30.8980 C   0  0  0  0  0  0  0  0  0  0  0  0
    4.3070    1.7980   30.6280 N   0  0  0  0  0  0  0  0  0  0  0  0
    5.6090   -0.3380   30.0890 C   0  0  0  0  0  0  0  0  0  0  0  0
    6.3050   -1.4190   29.5440 C   0  0  0  0  0  0  0  0  0  0  0  0
    7.7280   -1.2280   29.2830 C   0  0  0  0  0  0  0  0  0  0  0  0
    5.7010   -4.8250   23.2650 C   0  0  0  0  0  0  0  0  0  0  0  0
    6.5180   -5.3450   22.2740 C   0  0  0  0  0  0  0  0  0  0  0  0
  1  2  1  0
  2  3  2  0
  2  4  1  0
  4  5  1  0
  5  6  1  0
  6  7  1  0
  7  8  1  0
  8  9  2  0
  8 10  1  0
 10 11  1  0
 11 12  1  0
 12 13  1  0
 13 14  2  0
 14 15  1  0
 15 16  2  0
 16 17  1  0
 17 18  3  0
 16 19  1  0
 13 20  1  0
 19 20  2  0
 20 21  1  0
  7 22  1  0
  4 23  1  0
 22 23  1  0
M  END
