piperidine-amides-30535-covalent
     RDKit          3D

 26 28  0  0  0  0  0  0  0  0999 V2000
    7.1310   -3.3080   19.2430 C   0  0  0  0  0  0  0  0  0  0  0  0
    6.3300   -4.0530   20.2080 C   0  0  0  0  0  0  0  0  0  0  0  0
    5.2390   -4.5260   19.8680 O   0  0  0  0  0  0  0  0  0  0  0  0
    6.8080   -4.3070   21.4910 N   0  0  0  0  0  0  0  0  0  0  0  0
    6.5250   -5.5570   22.1510 C   0  0  0  0  0  0  0  0  0  0  0  0
    5.7240   -5.1590   23.3500 C   0  0  0  0  0  0  0  0  0  0  0  0
    6.5380   -4.2450   24.1970 C   0  0  0  0  0  0  0  0  0  0  0  0
    5.7360   -3.6510   25.2820 C   0  0  0  0  0  0  0  0  0  0  0  0
    4.6830   -3.0080   25.0020 O   0  0  0  0  0  0  0  0  0  0  0  0
    6.0570   -3.7450   26.6440 N   0  0  0  0  0  0  0  0  0  0  0  0
    6.4480   -2.4950   27.2640 C   0  0  0  0  0  0  0  0  0  0  0  0
    6.8110   -2.8060   28.6400 C   0  0  1  0  0  0  0  0  0  0  0  0
    5.8430   -2.2550   29.6090 C   0  0  0  0  0  0  0  0  0  0  0  0
    6.2900   -0.9700   30.2410 C   0  0  0  0  0  0  0  0  0  0  0  0
    5.3950   -0.2820   31.2590 C   0  0  0  0  0  0  0  0  0  0  0  0
    4.1240   -1.0190   31.5060 C   0  0  0  0  0  0  0  0  0  0  0  0
    3.7660   -2.1920   30.8970 C   0  0  0  0  0  0  0  0  0  0  0  0
    2.2220   -2.9050   31.3220 Cl  0  0  0  0  0  0  0  0  0  0  0  0
    4.6290   -2.7780   29.9690 C   0  0  0  0  0  0  0  0  0  0  0  0
    7.0060   -3.9980   28.9550 O   0  0  0  0  0  0  0  0  0  0  0  0
    5.9120   -4.8630   28.8160 C   0  0  0  0  0  0  0  0  0  0  0  0
    5.2070   -4.5980   27.4750 C   0  0  0  0  0  0  0  0  0  0  0  0
    5.0030   -5.8430   26.6490 C   0  0  0  0  0  0  0  0  0  0  0  0
    3.9530   -4.0560   27.5360 C   0  0  0  0  0  0  0  0  0  0  0  0
    7.2360   -3.1420   23.5100 C   0  0  0  0  0  0  0  0  0  0  0  0
    7.5800   -3.3310   22.1980 C   0  0  0  0  0  0  0  0  0  0  0  0
  1  2  1  0
  2  3  2  0
  2  4  1  0
  4  5  1  0
  5  6  1  0
  6  7  1  0
  7  8  1  0
  8  9  2  0
  8 10  1  0
 10 11  1  0
 11 12  1  0
 12 13  1  1
 13 14  2  0
 14 15  1  0
 15 16  2  0
 16 17  1  0
 17 18  1  0
 13 19  1  0
 17 19  2  0
 12 20  1  0
 20 21  1  0
 10 22  1  0
 21 22  1  0
 22 23  1  0
 22 24  1  0
  7 25  1  0
  4 26  1  0
 25 26  1  0
M  END
