piperidine-amides-30587-covalent
     RDKit          3D

 23 25  0  0  0  0  0  0  0  0999 V2000
    7.1460   -3.3270   19.2220 C   0  0  0  0  0  0  0  0  0  0  0  0
    6.3490   -4.0870   20.1750 C   0  0  0  0  0  0  0  0  0  0  0  0
    5.2320   -4.5080   19.8580 O   0  0  0  0  0  0  0  0  0  0  0  0
    6.8780   -4.4100   21.4160 N   0  0  0  0  0  0  0  0  0  0  0  0
    6.4180   -5.5550   22.1490 C   0  0  0  0  0  0  0  0  0  0  0  0
    5.5090   -4.9520   23.1770 C   0  0  0  0  0  0  0  0  0  0  0  0
    6.1350   -3.7380   23.8020 C   0  0  0  0  0  0  0  0  0  0  0  0
    5.2750   -3.1010   24.8040 C   0  0  0  0  0  0  0  0  0  0  0  0
    4.2040   -2.5010   24.5320 O   0  0  0  0  0  0  0  0  0  0  0  0
    5.6540   -3.1810   26.1110 N   0  0  0  0  0  0  0  0  0  0  0  0
    4.9190   -2.5270   27.2180 C   0  0  0  0  0  0  0  0  0  0  0  0
    4.2670   -3.5630   28.0540 C   0  0  0  0  0  0  0  0  0  0  0  0
    5.0900   -4.6520   28.5590 C   0  0  0  0  0  0  0  0  0  0  0  0
    6.2010   -5.0490   27.6760 C   0  0  0  0  0  0  0  0  0  0  0  0
    6.9520   -6.1740   28.1130 C   0  0  0  0  0  0  0  0  0  0  0  0
    6.2720   -6.9790   29.7190 Br  0  0  0  0  0  0  0  0  0  0  0  0
    8.0760   -6.4320   27.1830 C   0  0  0  0  0  0  0  0  0  0  0  0
    8.3830   -5.8070   26.0590 C   0  0  0  0  0  0  0  0  0  0  0  0
    7.6240   -4.7700   25.6530 C   0  0  0  0  0  0  0  0  0  0  0  0
    7.9510   -4.0330   24.3830 C   0  0  0  0  0  0  0  0  0  0  0  0
    6.4610   -4.2840   26.4460 C   0  0  0  0  0  0  0  0  0  0  0  0
    6.6290   -2.7410   22.7400 C   0  0  0  0  0  0  0  0  0  0  0  0
    7.4910   -3.2820   22.1070 C   0  0  0  0  0  0  0  0  0  0  0  0
  1  2  1  0
  2  3  2  0
  2  4  1  0
  4  5  1  0
  5  6  1  0
  6  7  1  0
  7  8  1  0
  8  9  2  0
  8 10  1  0
 10 11  1  0
 11 12  1  0
 12 13  1  0
 13 14  1  0
 14 15  2  0
 15 16  1  0
 15 17  1  0
 17 18  2  0
 18 19  1  0
 19 20  1  0
 10 21  1  0
 14 21  1  0
 19 21  2  0
  7 22  1  0
  4 23  1  0
 22 23  1  0
M  END
