piperidine-amides-27838-covalent
     RDKit          3D

 26 28  0  0  0  0  0  0  0  0999 V2000
    7.0480   -3.3650   19.3340 C   0  0  0  0  0  0  0  0  0  0  0  0
    6.4170   -4.2170   20.3680 C   0  0  0  0  0  0  0  0  0  0  0  0
    5.4090   -4.8530   19.9940 O   0  0  0  0  0  0  0  0  0  0  0  0
    6.9620   -4.3420   21.6680 N   0  0  0  0  0  0  0  0  0  0  0  0
    6.6830   -5.5060   22.4480 C   0  0  0  0  0  0  0  0  0  0  0  0
    6.0240   -5.1670   23.7020 C   0  0  0  0  0  0  0  0  0  0  0  0
    5.8450   -3.7070   23.8320 C   0  0  0  0  0  0  0  0  0  0  0  0
    5.0200   -3.3120   25.0170 C   0  0  0  0  0  0  0  0  0  0  0  0
    3.8110   -3.5670   24.9540 O   0  0  0  0  0  0  0  0  0  0  0  0
    5.4880   -2.6910   26.1810 N   0  0  0  0  0  0  0  0  0  0  0  0
    4.5370   -2.2380   27.1940 C   0  0  0  0  0  0  0  0  0  0  0  0
    4.2250   -3.3430   28.1250 C   0  0  0  0  0  0  0  0  0  0  0  0
    5.2790   -4.2420   28.5030 C   0  0  0  0  0  0  0  0  0  0  0  0
    5.6830   -3.9990   29.7190 C   0  0  0  0  0  0  0  0  0  0  0  0
    5.9070   -2.6120   29.6970 N   0  0  0  0  0  0  0  0  0  0  0  0
    4.4880   -5.5640   28.5940 C   0  0  0  0  0  0  0  0  0  0  0  0
    3.6080   -5.8880   27.6130 C   0  0  0  0  0  0  0  0  0  0  0  0
    2.8450   -7.0170   27.6200 C   0  0  0  0  0  0  0  0  0  0  0  0
    2.9380   -7.8910   28.6430 N   0  0  0  0  0  0  0  0  0  0  0  0
    3.8120   -7.6110   29.6290 C   0  0  0  0  0  0  0  0  0  0  0  0
    4.5940   -6.4610   29.6260 C   0  0  0  0  0  0  0  0  0  0  0  0
    5.4610   -6.2040   30.6330 F   0  0  0  0  0  0  0  0  0  0  0  0
    6.3090   -4.2890   27.6770 C   0  0  0  0  0  0  0  0  0  0  0  0
    6.6080   -3.1100   26.7640 C   0  0  0  0  0  0  0  0  0  0  0  0
    7.2000   -3.0160   23.6330 C   0  0  0  0  0  0  0  0  0  0  0  0
    7.6970   -3.2560   22.3210 C   0  0  0  0  0  0  0  0  0  0  0  0
  1  2  1  0
  2  3  2  0
  2  4  1  0
  4  5  1  0
  5  6  1  0
  6  7  1  0
  7  8  1  0
  8  9  2  0
  8 10  1  0
 10 11  1  0
 11 12  1  0
 12 13  1  0
 13 14  1  0
 14 15  3  0
 13 16  1  0
 16 17  2  0
 17 18  1  0
 18 19  2  0
 19 20  1  0
 16 21  1  0
 20 21  2  0
 21 22  1  0
 13 23  1  0
 10 24  1  0
 23 24  1  0
  7 25  1  0
  4 26  1  0
 25 26  1  0
M  END
