piperidine-amides-31851-covalent
     RDKit          3D

 28 30  0  0  0  0  0  0  0  0999 V2000
    7.0390   -3.4200   19.3560 C   0  0  0  0  0  0  0  0  0  0  0  0
    6.4150   -4.2370   20.3700 C   0  0  0  0  0  0  0  0  0  0  0  0
    5.3930   -4.8990   20.0040 O   0  0  0  0  0  0  0  0  0  0  0  0
    6.9150   -4.3820   21.6920 N   0  0  0  0  0  0  0  0  0  0  0  0
    6.5580   -5.5990   22.4270 C   0  0  0  0  0  0  0  0  0  0  0  0
    5.4840   -4.9520   23.3720 C   0  0  0  0  0  0  0  0  0  0  0  0
    6.2090   -3.9500   24.2570 C   0  0  0  0  0  0  0  0  0  0  0  0
    5.1780   -3.3540   25.3330 C   0  0  0  0  0  0  0  0  0  0  0  0
    4.2120   -2.9070   24.7470 O   0  0  0  0  0  0  0  0  0  0  0  0
    5.6060   -3.4760   26.5330 N   0  0  0  0  0  0  0  0  0  0  0  0
    6.3930   -3.4730   27.5700 C   0  0  0  0  0  0  0  0  0  0  0  0
    6.7680   -4.4320   28.4520 C   0  0  0  0  0  0  0  0  0  0  0  0
    5.7250   -4.5330   29.3180 C   0  0  0  0  0  0  0  0  0  0  0  0
    4.4460   -4.2780   28.6270 C   0  0  2  0  0  0  0  0  0  0  0  0
    4.0280   -5.7520   28.8110 C   0  0  0  0  0  0  0  0  0  0  0  0
    4.8700   -6.5610   29.6530 N   0  0  0  0  0  0  0  0  0  0  0  0
    4.3110   -7.7300   29.6490 N   0  0  0  0  0  0  0  0  0  0  0  0
    3.2290   -7.6660   28.8820 C   0  0  0  0  0  0  0  0  0  0  0  0
    2.8090   -6.4730   28.2040 C   0  0  0  0  0  0  0  0  0  0  0  0
    1.7730   -6.1130   27.3740 N   0  0  0  0  0  0  0  0  0  0  0  0
    1.2750   -7.1930   26.5500 C   0  0  0  0  0  0  0  0  0  0  0  0
    0.6820   -8.1130   27.1390 O   0  0  0  0  0  0  0  0  0  0  0  0
    1.4780   -7.1410   25.1780 N   0  0  0  0  0  0  0  0  0  0  0  0
    0.8180   -6.0850   24.6410 C   0  0  0  0  0  0  0  0  0  0  0  0
    1.4400   -5.9450   23.4230 C   0  0  0  0  0  0  0  0  0  0  0  0
    4.3990   -3.6900   27.3520 C   0  0  0  0  0  0  0  0  0  0  0  0
    7.0400   -2.8820   23.5240 C   0  0  0  0  0  0  0  0  0  0  0  0
    7.6680   -3.3670   22.3940 C   0  0  0  0  0  0  0  0  0  0  0  0
  1  2  1  0
  2  3  2  0
  2  4  1  0
  4  5  1  0
  5  6  1  0
  6  7  1  0
  7  8  1  0
  8  9  2  0
  8 10  1  0
 10 11  1  0
 11 12  1  0
 12 13  1  0
 13 14  1  0
 14 15  1  6
 15 16  2  0
 16 17  1  0
 17 18  1  0
 15 19  1  0
 18 19  2  0
 19 20  1  0
 20 21  1  0
 21 22  2  0
 21 23  1  0
 23 24  1  0
 24 25  1  0
 10 26  1  0
 14 26  1  0
  7 27  1  0
  4 28  1  0
 27 28  1  0
M  END
