piperidine-amides-12212-covalent
     RDKit          3D

 24 25  0  0  0  0  0  0  0  0999 V2000
    7.0500   -3.3660   19.3410 C   0  0  0  0  0  0  0  0  0  0  0  0
    6.3240   -4.1560   20.3280 C   0  0  0  0  0  0  0  0  0  0  0  0
    5.3440   -4.8060   19.9760 O   0  0  0  0  0  0  0  0  0  0  0  0
    6.7810   -4.2160   21.6920 N   0  0  0  0  0  0  0  0  0  0  0  0
    7.6610   -3.1770   22.1860 C   0  0  0  0  0  0  0  0  0  0  0  0
    7.4070   -2.9210   23.6380 C   0  0  0  0  0  0  0  0  0  0  0  0
    6.0870   -3.5860   23.9520 C   0  0  0  0  0  0  0  0  0  0  0  0
    5.6440   -3.1730   25.3110 C   0  0  0  0  0  0  0  0  0  0  0  0
    4.4470   -3.1890   25.6570 O   0  0  0  0  0  0  0  0  0  0  0  0
    6.6220   -2.7460   26.2300 N   0  0  0  0  0  0  0  0  0  0  0  0
    6.4480   -1.4960   26.9380 C   0  0  0  0  0  0  0  0  0  0  0  0
    6.9630   -1.5650   28.3490 C   0  0  0  0  0  0  0  0  0  0  0  0
    6.8840   -0.4730   29.1880 C   0  0  0  0  0  0  0  0  0  0  0  0
    6.3090    0.7210   28.7100 C   0  0  0  0  0  0  0  0  0  0  0  0
    6.2070    1.8530   29.5580 N   0  0  0  0  0  0  0  0  0  0  0  0
    5.8960    1.7780   30.9180 C   0  0  0  0  0  0  0  0  0  0  0  0
    7.1470    2.8130   29.0540 C   0  0  0  0  0  0  0  0  0  0  0  0
    8.2240    3.1450   29.6500 O   0  0  0  0  0  0  0  0  0  0  0  0
    6.7880    3.3570   27.8730 N   0  0  0  0  0  0  0  0  0  0  0  0
    7.8410    3.7640   27.1330 C   0  0  0  0  0  0  0  0  0  0  0  0
    5.8510    0.7460   27.4100 C   0  0  0  0  0  0  0  0  0  0  0  0
    5.9100   -0.3290   26.5270 C   0  0  0  0  0  0  0  0  0  0  0  0
    6.0500   -5.0230   23.7440 C   0  0  0  0  0  0  0  0  0  0  0  0
    6.5820   -5.3920   22.5110 C   0  0  0  0  0  0  0  0  0  0  0  0
  1  2  1  0
  2  3  2  0
  2  4  1  0
  4  5  1  0
  5  6  1  0
  6  7  1  0
  7  8  1  0
  8  9  2  0
  8 10  1  0
 10 11  1  0
 11 12  2  0
 12 13  1  0
 13 14  2  0
 14 15  1  0
 15 16  1  0
 15 17  1  0
 17 18  2  0
 17 19  1  0
 19 20  1  0
 14 21  1  0
 11 22  1  0
 21 22  2  0
  7 23  1  0
  4 24  1  0
 23 24  1  0
M  END
