piperidine-amides-6902-covalent
     RDKit          3D

 23 24  0  0  0  0  0  0  0  0999 V2000
    7.0610   -3.3250   19.3340 C   0  0  0  0  0  0  0  0  0  0  0  0
    6.3890   -4.1780   20.3210 C   0  0  0  0  0  0  0  0  0  0  0  0
    5.3980   -4.8700   19.9880 O   0  0  0  0  0  0  0  0  0  0  0  0
    6.8800   -4.2580   21.6310 N   0  0  0  0  0  0  0  0  0  0  0  0
    7.7100   -3.1660   22.1370 C   0  0  0  0  0  0  0  0  0  0  0  0
    7.5260   -3.0470   23.6570 C   0  0  0  0  0  0  0  0  0  0  0  0
    6.1540   -3.5800   23.9600 C   0  0  0  0  0  0  0  0  0  0  0  0
    5.7620   -3.2550   25.3440 C   0  0  0  0  0  0  0  0  0  0  0  0
    4.6360   -3.6310   25.7370 O   0  0  0  0  0  0  0  0  0  0  0  0
    6.6370   -2.5150   26.1760 N   0  0  0  0  0  0  0  0  0  0  0  0
    6.0800   -1.6620   27.1890 C   0  0  0  0  0  0  0  0  0  0  0  0
    7.0550   -1.4770   28.3180 C   0  0  0  0  0  0  0  0  0  0  0  0
    6.7710   -0.5120   29.2230 C   0  0  0  0  0  0  0  0  0  0  0  0
    6.5480    0.7480   28.6280 N   0  0  0  0  0  0  0  0  0  0  0  0
    6.4400    1.8780   29.4550 C   0  0  0  0  0  0  0  0  0  0  0  0
    6.4650    3.2030   29.0450 O   0  0  0  0  0  0  0  0  0  0  0  0
    6.2970    1.5770   30.8120 C   0  0  0  0  0  0  0  0  0  0  0  0
    5.2290    0.7560   31.1130 O   0  0  0  0  0  0  0  0  0  0  0  0
    5.1790   -0.0150   32.3060 C   0  0  0  0  0  0  0  0  0  0  0  0
    5.7030    0.9050   27.5750 C   0  0  0  0  0  0  0  0  0  0  0  0
    5.8210   -0.3000   26.6550 C   0  0  0  0  0  0  0  0  0  0  0  0
    6.0400   -5.0290   23.7340 C   0  0  0  0  0  0  0  0  0  0  0  0
    6.6000   -5.3950   22.4410 C   0  0  0  0  0  0  0  0  0  0  0  0
  1  2  1  0
  2  3  2  0
  2  4  1  0
  4  5  1  0
  5  6  1  0
  6  7  1  0
  7  8  1  0
  8  9  2  0
  8 10  1  0
 10 11  1  0
 11 12  1  0
 12 13  1  0
 13 14  1  0
 14 15  1  0
 15 16  2  0
 15 17  1  0
 17 18  1  0
 18 19  1  0
 14 20  1  0
 11 21  1  0
 20 21  1  0
  7 22  1  0
  4 23  1  0
 22 23  1  0
M  END
