piperidine-amides-29756-covalent
     RDKit          3D

 25 27  0  0  0  0  0  0  0  0999 V2000
    6.9860   -3.3830   19.4120 C   0  0  0  0  0  0  0  0  0  0  0  0
    6.3500   -4.2610   20.3940 C   0  0  0  0  0  0  0  0  0  0  0  0
    5.4200   -4.9770   20.0160 O   0  0  0  0  0  0  0  0  0  0  0  0
    6.8100   -4.3340   21.7670 N   0  0  0  0  0  0  0  0  0  0  0  0
    6.5070   -5.5050   22.5620 C   0  0  0  0  0  0  0  0  0  0  0  0
    5.8960   -5.1200   23.8990 C   0  0  0  0  0  0  0  0  0  0  0  0
    5.9190   -3.6010   23.9730 C   0  0  0  0  0  0  0  0  0  0  0  0
    5.1880   -2.9790   25.1640 C   0  0  0  0  0  0  0  0  0  0  0  0
    4.5660   -1.9250   25.0060 O   0  0  0  0  0  0  0  0  0  0  0  0
    5.1470   -3.5170   26.4920 N   0  0  0  0  0  0  0  0  0  0  0  0
    4.7830   -2.6350   27.5820 C   0  0  0  0  0  0  0  0  0  0  0  0
    4.6650   -3.5430   28.7800 C   0  0  0  0  0  0  0  0  0  0  0  0
    4.8090   -4.8430   28.5910 N   0  0  0  0  0  0  0  0  0  0  0  0
    4.7860   -5.5290   29.7430 C   0  0  0  0  0  0  0  0  0  0  0  0
    3.7900   -5.3750   30.7070 C   0  0  0  0  0  0  0  0  0  0  0  0
    3.8620   -6.2760   31.7510 C   0  0  0  0  0  0  0  0  0  0  0  0
    5.1580   -7.3810   31.9640 S   0  0  0  0  0  0  0  0  0  0  0  0
    6.1580   -6.8660   32.9340 O   0  0  0  0  0  0  0  0  0  0  0  0
    4.6860   -8.7000   32.4730 O   0  0  0  0  0  0  0  0  0  0  0  0
    5.7650   -7.5040   30.3720 C   0  0  0  0  0  0  0  0  0  0  0  0
    4.7280   -6.8970   29.7240 C   0  0  0  0  0  0  0  0  0  0  0  0
    5.9200   -5.3010   27.8400 C   0  0  0  0  0  0  0  0  0  0  0  0
    6.1660   -4.3630   26.8380 C   0  0  0  0  0  0  0  0  0  0  0  0
    7.2120   -3.0150   23.6810 C   0  0  0  0  0  0  0  0  0  0  0  0
    7.6220   -3.2920   22.3780 C   0  0  0  0  0  0  0  0  0  0  0  0
  1  2  1  0
  2  3  2  0
  2  4  1  0
  4  5  1  0
  5  6  1  0
  6  7  1  0
  7  8  1  0
  8  9  2  0
  8 10  1  0
 10 11  1  0
 11 12  1  0
 12 13  1  0
 13 14  1  0
 14 15  1  0
 15 16  1  0
 17 16  1  0
 17 18  2  0
 17 19  2  0
 17 20  1  0
 14 21  1  0
 20 21  1  0
 13 22  1  0
 10 23  1  0
 22 23  1  0
  7 24  1  0
  4 25  1  0
 24 25  1  0
M  END
