piperidine-amides-30258-covalent
     RDKit          3D

 27 29  0  0  0  0  0  0  0  0999 V2000
    7.0560   -3.3780   19.3710 C   0  0  0  0  0  0  0  0  0  0  0  0
    6.3920   -4.2420   20.3370 C   0  0  0  0  0  0  0  0  0  0  0  0
    5.3820   -4.8600   19.9920 O   0  0  0  0  0  0  0  0  0  0  0  0
    6.9400   -4.4280   21.6590 N   0  0  0  0  0  0  0  0  0  0  0  0
    7.6900   -3.3920   22.3170 C   0  0  0  0  0  0  0  0  0  0  0  0
    6.8920   -2.8020   23.4450 C   0  0  0  0  0  0  0  0  0  0  0  0
    6.3640   -3.9000   24.3700 C   0  0  0  0  0  0  0  0  0  0  0  0
    5.3020   -3.2930   25.2430 C   0  0  0  0  0  0  0  0  0  0  0  0
    4.3880   -2.6180   24.7480 O   0  0  0  0  0  0  0  0  0  0  0  0
    5.2830   -3.4600   26.6590 N   0  0  0  0  0  0  0  0  0  0  0  0
    4.1130   -3.0870   27.3870 C   0  0  0  0  0  0  0  0  0  0  0  0
    4.4220   -3.4180   28.8250 C   0  0  0  0  0  0  0  0  0  0  0  0
    5.2340   -4.4180   29.1250 N   0  0  0  0  0  0  0  0  0  0  0  0
    4.5410   -5.5420   28.8880 C   0  0  0  0  0  0  0  0  0  0  0  0
    3.9260   -6.3070   29.8680 C   0  0  0  0  0  0  0  0  0  0  0  0
    4.5980   -7.2530   30.6050 C   0  0  0  0  0  0  0  0  0  0  0  0
    5.9840   -7.6530   30.5490 C   0  0  0  0  0  0  0  0  0  0  0  0
    3.6590   -7.8710   31.5490 N   0  0  0  0  0  0  0  0  0  0  0  0
    2.5950   -7.1870   31.2070 N   0  0  0  0  0  0  0  0  0  0  0  0
    1.3380   -7.4190   31.8650 C   0  0  0  0  0  0  0  0  0  0  0  0
    1.3000   -6.5350   32.9230 C   0  0  0  0  0  0  0  0  0  0  0  0
    2.6190   -6.2570   30.2520 C   0  0  0  0  0  0  0  0  0  0  0  0
    1.4650   -5.4550   29.8210 C   0  0  0  0  0  0  0  0  0  0  0  0
    6.3980   -4.3990   28.3470 C   0  0  0  0  0  0  0  0  0  0  0  0
    6.3730   -3.2660   27.5160 C   0  0  0  0  0  0  0  0  0  0  0  0
    5.7030   -5.0480   23.6150 C   0  0  0  0  0  0  0  0  0  0  0  0
    6.5910   -5.5520   22.4700 C   0  0  0  0  0  0  0  0  0  0  0  0
  1  2  1  0
  2  3  2  0
  2  4  1  0
  4  5  1  0
  5  6  1  0
  6  7  1  0
  7  8  1  0
  8  9  2  0
  8 10  1  0
 10 11  1  0
 11 12  1  0
 12 13  1  0
 13 14  1  0
 14 15  1  0
 15 16  1  0
 16 17  1  0
 16 18  2  0
 18 19  1  0
 19 20  1  0
 20 21  1  0
 15 22  2  0
 19 22  1  0
 22 23  1  0
 13 24  1  0
 10 25  1  0
 24 25  1  0
  7 26  1  0
  4 27  1  0
 26 27  1  0
M  END
