piperidine-amides-34951-covalent
     RDKit          3D

 32 35  0  0  0  0  0  0  0  0999 V2000
    7.0520   -3.3650   19.4120 C   0  0  0  0  0  0  0  0  0  0  0  0
    6.3550   -4.2180   20.4020 C   0  0  0  0  0  0  0  0  0  0  0  0
    5.3900   -4.8620   19.9900 O   0  0  0  0  0  0  0  0  0  0  0  0
    6.8260   -4.2990   21.7210 N   0  0  0  0  0  0  0  0  0  0  0  0
    7.6750   -3.2550   22.2780 C   0  0  0  0  0  0  0  0  0  0  0  0
    7.3070   -2.9380   23.7080 C   0  0  0  0  0  0  0  0  0  0  0  0
    6.0270   -3.6850   24.0780 C   0  0  0  0  0  0  0  0  0  0  0  0
    5.5800   -3.3360   25.4580 C   0  0  0  0  0  0  0  0  0  0  0  0
    4.3770   -3.4540   25.7140 O   0  0  0  0  0  0  0  0  0  0  0  0
    6.4350   -2.8550   26.4850 N   0  0  0  0  0  0  0  0  0  0  0  0
    6.3200   -3.4510   27.8070 C   0  0  0  0  0  0  0  0  0  0  0  0
    6.1430   -4.9500   27.6900 C   0  0  0  0  0  0  0  0  0  0  0  0
    6.2070   -5.9230   28.6450 C   0  0  0  0  0  0  0  0  0  0  0  0
    6.7850   -1.4770   26.5100 C   0  0  0  0  0  0  0  0  0  0  0  0
    7.4100   -0.8220   27.6260 N   0  0  0  0  0  0  0  0  0  0  0  0
    7.6810    0.5630   27.4220 C   0  0  0  0  0  0  0  0  0  0  0  0
    8.3580    1.3610   28.5180 C   0  0  0  0  0  0  0  0  0  0  0  0
    9.0800    0.2770   29.3140 C   0  0  0  0  0  0  0  0  0  0  0  0
    9.8840    0.8380   30.5010 C   0  0  0  0  0  0  0  0  0  0  0  0
    9.8160    2.3180   30.6700 C   0  0  0  0  0  0  0  0  0  0  0  0
   10.4340    3.2410   31.6750 C   0  0  0  0  0  0  0  0  0  0  0  0
   10.7300    2.9250   33.1290 C   0  0  0  0  0  0  0  0  0  0  0  0
   11.3450    3.9770   33.9920 C   0  0  0  0  0  0  0  0  0  0  0  0
   11.6530    5.3270   33.3830 C   0  0  0  0  0  0  0  0  0  0  0  0
   11.3570    5.5330   32.0540 C   0  0  0  0  0  0  0  0  0  0  0  0
   10.7380    4.4860   31.1620 C   0  0  0  0  0  0  0  0  0  0  0  0
    9.0730    3.3100   29.8400 C   0  0  0  0  0  0  0  0  0  0  0  0
    8.3170    2.7210   28.7040 C   0  0  0  0  0  0  0  0  0  0  0  0
    7.3140    1.1100   26.2180 C   0  0  0  0  0  0  0  0  0  0  0  0
    6.6250   -0.2100   25.3680 S   0  0  0  0  0  0  0  0  0  0  0  0
    6.0730   -5.1260   23.8390 C   0  0  0  0  0  0  0  0  0  0  0  0
    6.6440   -5.4750   22.5080 C   0  0  0  0  0  0  0  0  0  0  0  0
  1  2  1  0
  2  3  2  0
  2  4  1  0
  4  5  1  0
  5  6  1  0
  6  7  1  0
  7  8  1  0
  8  9  2  0
  8 10  1  0
 10 11  1  0
 11 12  1  0
 12 13  2  3
 10 14  1  0
 14 15  2  0
 15 16  1  0
 16 17  1  0
 17 18  2  0
 18 19  1  0
 19 20  2  0
 20 21  1  0
 21 22  2  0
 22 23  1  0
 23 24  2  0
 24 25  1  0
 21 26  1  0
 25 26  2  0
 20 27  1  0
 17 28  1  0
 27 28  2  0
 16 29  2  0
 14 30  1  0
 29 30  1  0
  7 31  1  0
  4 32  1  0
 31 32  1  0
M  END
