piperidine-amides-4982-covalent
     RDKit          3D

 23 24  0  0  0  0  0  0  0  0999 V2000
    7.0990   -3.3330   19.3240 C   0  0  0  0  0  0  0  0  0  0  0  0
    6.3550   -4.1270   20.3230 C   0  0  0  0  0  0  0  0  0  0  0  0
    5.3100   -4.6800   19.9290 O   0  0  0  0  0  0  0  0  0  0  0  0
    6.8390   -4.2790   21.6290 N   0  0  0  0  0  0  0  0  0  0  0  0
    7.6500   -3.2580   22.1990 C   0  0  0  0  0  0  0  0  0  0  0  0
    7.2740   -3.0010   23.5670 C   0  0  0  0  0  0  0  0  0  0  0  0
    5.9770   -3.6230   23.8970 C   0  0  0  0  0  0  0  0  0  0  0  0
    5.5830   -3.2800   25.2750 C   0  0  0  0  0  0  0  0  0  0  0  0
    4.3740   -3.2970   25.5750 O   0  0  0  0  0  0  0  0  0  0  0  0
    6.5520   -2.9370   26.2180 N   0  0  0  0  0  0  0  0  0  0  0  0
    6.4780   -1.7250   27.0410 C   0  0  0  0  0  0  0  0  0  0  0  0
    6.8920   -1.7180   28.4490 C   0  0  0  0  0  0  0  0  0  0  0  0
    6.8920   -0.6070   29.4300 C   0  0  0  0  0  0  0  0  0  0  0  0
    6.7000    0.6610   29.8980 C   0  0  0  0  0  0  0  0  0  0  0  0
    7.5310    1.5670   29.7960 O   0  0  0  0  0  0  0  0  0  0  0  0
    5.4330    0.7550   30.5030 N   0  0  0  0  0  0  0  0  0  0  0  0
    5.0050   -0.3060   31.3940 C   0  0  0  0  0  0  0  0  0  0  0  0
    4.6750   -1.3580   30.5940 C   0  0  0  0  0  0  0  0  0  0  0  0
    6.2430    0.5010   28.2210 S   0  0  0  0  0  0  0  0  0  0  0  0
    6.0320   -0.4310   26.6800 C   0  0  0  0  0  0  0  0  0  0  0  0
    5.5430    0.1620   25.5510 C   0  0  0  0  0  0  0  0  0  0  0  0
    5.9840   -5.1230   23.6750 C   0  0  0  0  0  0  0  0  0  0  0  0
    6.6730   -5.4960   22.4020 C   0  0  0  0  0  0  0  0  0  0  0  0
  1  2  1  0
  2  3  2  0
  2  4  1  0
  4  5  1  0
  5  6  1  0
  6  7  1  0
  7  8  1  0
  8  9  2  0
  8 10  1  0
 10 11  1  0
 11 12  1  0
 12 13  2  0
 13 14  1  0
 14 15  2  0
 14 16  1  0
 16 17  1  0
 17 18  1  0
 13 19  1  0
 11 20  2  0
 19 20  1  0
 20 21  1  0
  7 22  1  0
  4 23  1  0
 22 23  1  0
M  END
