piperidine-amides-30623-covalent
     RDKit          3D

 26 28  0  0  0  0  0  0  0  0999 V2000
    7.0050   -3.3720   19.4290 C   0  0  0  0  0  0  0  0  0  0  0  0
    6.3690   -4.2620   20.4080 C   0  0  0  0  0  0  0  0  0  0  0  0
    5.4090   -4.9480   20.0080 O   0  0  0  0  0  0  0  0  0  0  0  0
    6.8210   -4.4110   21.7480 N   0  0  0  0  0  0  0  0  0  0  0  0
    6.5580   -5.5790   22.5420 C   0  0  0  0  0  0  0  0  0  0  0  0
    5.8210   -5.0910   23.7780 C   0  0  0  0  0  0  0  0  0  0  0  0
    6.2980   -3.7670   24.3440 C   0  0  0  0  0  0  0  0  0  0  0  0
    5.3220   -3.1900   25.3560 C   0  0  0  0  0  0  0  0  0  0  0  0
    4.3680   -2.4880   24.9300 O   0  0  0  0  0  0  0  0  0  0  0  0
    5.3560   -3.3660   26.7910 N   0  0  0  0  0  0  0  0  0  0  0  0
    4.4040   -2.7220   27.7160 C   0  0  0  0  0  0  0  0  0  0  0  0
    4.7850   -3.0970   29.1170 C   0  0  0  0  0  0  0  0  0  0  0  0
    5.2010   -4.4850   29.2750 C   0  0  0  0  0  0  0  0  0  0  0  0
    6.2460   -4.8310   28.2960 C   0  0  0  0  0  0  0  0  0  0  0  0
    6.8130   -6.2440   28.2690 C   0  0  0  0  0  0  0  0  0  0  0  0
    6.1870   -7.1100   29.3180 C   0  0  0  0  0  0  0  0  0  0  0  0
    5.2350   -6.6800   30.1650 C   0  0  0  0  0  0  0  0  0  0  0  0
    4.7250   -5.4070   30.1760 C   0  0  0  0  0  0  0  0  0  0  0  0
    3.7780   -4.9940   31.0170 N   0  0  0  0  0  0  0  0  0  0  0  0
    3.4580   -5.8770   32.2870 S   0  0  0  0  0  0  0  0  0  0  0  0
    4.8720   -6.7930   32.8490 C   0  0  0  0  0  0  0  0  0  0  0  0
    3.0030   -4.9930   33.3800 O   0  0  0  0  0  0  0  0  0  0  0  0
    2.3650   -6.8590   31.9170 O   0  0  0  0  0  0  0  0  0  0  0  0
    6.5810   -3.6220   27.4220 C   0  0  0  0  0  0  0  0  0  0  0  0
    6.5960   -2.8030   23.1670 C   0  0  0  0  0  0  0  0  0  0  0  0
    7.4370   -3.2680   22.4220 C   0  0  0  0  0  0  0  0  0  0  0  0
  1  2  1  0
  2  3  2  0
  2  4  1  0
  4  5  1  0
  5  6  1  0
  6  7  1  0
  7  8  1  0
  8  9  2  0
  8 10  1  0
 10 11  1  0
 11 12  1  0
 12 13  1  0
 13 14  2  0
 14 15  1  0
 15 16  2  0
 16 17  1  0
 13 18  1  0
 17 18  2  0
 18 19  1  0
 20 19  1  0
 20 21  1  0
 20 22  2  0
 20 23  2  0
 10 24  1  0
 14 24  1  0
  7 25  1  0
  4 26  1  0
 25 26  1  0
M  END
