piperidine-amides-31486-covalent
     RDKit          3D

 27 28  0  0  0  0  0  0  0  0999 V2000
    7.0940   -3.3370   19.2110 C   0  0  0  0  0  0  0  0  0  0  0  0
    6.3770   -4.0380   20.2460 C   0  0  0  0  0  0  0  0  0  0  0  0
    5.2920   -4.6070   19.9170 O   0  0  0  0  0  0  0  0  0  0  0  0
    6.8630   -4.1740   21.5670 N   0  0  0  0  0  0  0  0  0  0  0  0
    6.5790   -5.4350   22.2660 C   0  0  0  0  0  0  0  0  0  0  0  0
    5.5780   -4.8680   23.3330 C   0  0  0  0  0  0  0  0  0  0  0  0
    6.3610   -3.8440   24.1280 C   0  0  0  0  0  0  0  0  0  0  0  0
    5.5400   -3.4870   25.4450 C   0  0  0  0  0  0  0  0  0  0  0  0
    4.4390   -4.0140   25.4030 O   0  0  0  0  0  0  0  0  0  0  0  0
    6.2230   -2.7310   26.2080 N   0  0  0  0  0  0  0  0  0  0  0  0
    6.8940   -1.6100   26.5910 C   0  0  0  0  0  0  0  0  0  0  0  0
    6.2040   -3.3660   27.4730 C   0  0  2  0  0  0  0  0  0  0  0  0
    5.8800   -4.7450   27.6130 C   0  0  0  0  0  0  0  0  0  0  0  0
    6.7200   -5.2680   28.6030 O   0  0  0  0  0  0  0  0  0  0  0  0
    6.1760   -6.4380   29.0870 C   0  0  0  0  0  0  0  0  0  0  0  0
    5.0110   -2.9870   28.3630 C   0  0  0  0  0  0  0  0  0  0  0  0
    3.7750   -3.6440   28.0940 C   0  0  0  0  0  0  0  0  0  0  0  0
    2.4330   -3.6070   28.6510 C   0  0  0  0  0  0  0  0  0  0  0  0
    2.6560   -2.5400   29.7650 C   0  0  0  0  0  0  0  0  0  0  0  0
    3.9420   -1.7710   30.1380 C   0  0  0  0  0  0  0  0  0  0  0  0
    4.0560   -0.8380   31.1430 C   0  0  0  0  0  0  0  0  0  0  0  0
    3.1310    0.1620   31.0380 F   0  0  0  0  0  0  0  0  0  0  0  0
    3.9120   -1.2950   32.4500 F   0  0  0  0  0  0  0  0  0  0  0  0
    5.3200   -0.3180   31.1190 F   0  0  0  0  0  0  0  0  0  0  0  0
    5.0880   -2.0810   29.3550 C   0  0  0  0  0  0  0  0  0  0  0  0
    6.8840   -2.6670   23.3100 C   0  0  0  0  0  0  0  0  0  0  0  0
    7.6140   -3.1400   22.2440 C   0  0  0  0  0  0  0  0  0  0  0  0
  1  2  1  0
  2  3  2  0
  2  4  1  0
  4  5  1  0
  5  6  1  0
  6  7  1  0
  7  8  1  0
  8  9  2  0
  8 10  1  0
 10 11  1  0
 10 12  1  0
 12 13  1  6
 13 14  1  0
 14 15  1  0
 12 16  1  0
 16 17  2  0
 17 18  1  0
 18 19  2  0
 19 20  1  0
 20 21  1  0
 21 22  1  0
 21 23  1  0
 21 24  1  0
 16 25  1  0
 20 25  2  0
  7 26  1  0
  4 27  1  0
 26 27  1  0
M  END
