piperidine-amides-30952-covalent
     RDKit          3D

 27 28  0  0  0  0  0  0  0  0999 V2000
    7.0940   -3.2620   19.2130 C   0  0  0  0  0  0  0  0  0  0  0  0
    6.3270   -4.0110   20.2110 C   0  0  0  0  0  0  0  0  0  0  0  0
    5.2630   -4.5560   19.8820 O   0  0  0  0  0  0  0  0  0  0  0  0
    6.7870   -4.1750   21.5220 N   0  0  0  0  0  0  0  0  0  0  0  0
    6.5190   -5.3800   22.2620 C   0  0  0  0  0  0  0  0  0  0  0  0
    5.7720   -4.9380   23.4940 C   0  0  0  0  0  0  0  0  0  0  0  0
    6.5200   -3.8510   24.2150 C   0  0  0  0  0  0  0  0  0  0  0  0
    5.7220   -3.2800   25.3380 C   0  0  0  0  0  0  0  0  0  0  0  0
    4.4720   -3.1320   25.2070 O   0  0  0  0  0  0  0  0  0  0  0  0
    6.2830   -2.8600   26.5720 N   0  0  0  0  0  0  0  0  0  0  0  0
    6.8370   -1.5020   26.7190 C   0  0  0  0  0  0  0  0  0  0  0  0
    6.2470   -3.7260   27.7780 C   0  0  0  0  0  0  0  0  0  0  0  0
    5.1310   -3.4640   28.7020 C   0  0  1  0  0  0  0  0  0  0  0  0
    5.0030   -2.0110   29.0480 C   0  0  0  0  0  0  0  0  0  0  0  0
    3.6530   -1.7360   29.6820 C   0  0  0  0  0  0  0  0  0  0  0  0
    3.2520   -2.9700   30.4180 C   0  0  0  0  0  0  0  0  0  0  0  0
    3.2190   -4.1500   29.6090 N   0  0  0  0  0  0  0  0  0  0  0  0
    3.3010   -5.2770   30.3410 C   0  0  0  0  0  0  0  0  0  0  0  0
    2.2740   -5.9650   30.6700 O   0  0  0  0  0  0  0  0  0  0  0  0
    4.4650   -5.5800   30.6580 O   0  0  0  0  0  0  0  0  0  0  0  0
    4.9830   -6.7510   30.1320 C   0  0  0  0  0  0  0  0  0  0  0  0
    4.1030   -7.6490   29.2920 C   0  0  0  0  0  0  0  0  0  0  0  0
    6.1300   -6.3470   29.2560 C   0  0  0  0  0  0  0  0  0  0  0  0
    5.6000   -7.5530   31.2330 C   0  0  0  0  0  0  0  0  0  0  0  0
    3.8930   -4.0230   28.4140 C   0  0  0  0  0  0  0  0  0  0  0  0
    7.0110   -2.7470   23.3790 C   0  0  0  0  0  0  0  0  0  0  0  0
    7.5460   -3.1550   22.1810 C   0  0  0  0  0  0  0  0  0  0  0  0
  1  2  1  0
  2  3  2  0
  2  4  1  0
  4  5  1  0
  5  6  1  0
  6  7  1  0
  7  8  1  0
  8  9  2  0
  8 10  1  0
 10 11  1  0
 10 12  1  0
 13 12  1  6
 13 14  1  0
 14 15  1  0
 15 16  1  0
 16 17  1  0
 17 18  1  0
 18 19  2  0
 18 20  1  0
 21 20  1  0
 21 22  1  0
 21 23  1  0
 21 24  1  0
 13 25  1  0
 17 25  1  0
  7 26  1  0
  4 27  1  0
 26 27  1  0
M  END
