piperidine-amides-14130-covalent
     RDKit          3D

 25 26  0  0  0  0  0  0  0  0999 V2000
    7.0960   -3.3390   19.3000 C   0  0  0  0  0  0  0  0  0  0  0  0
    6.3500   -4.1530   20.2930 C   0  0  0  0  0  0  0  0  0  0  0  0
    5.3000   -4.7110   19.9390 O   0  0  0  0  0  0  0  0  0  0  0  0
    6.8820   -4.3210   21.5860 N   0  0  0  0  0  0  0  0  0  0  0  0
    6.5820   -5.4890   22.3750 C   0  0  0  0  0  0  0  0  0  0  0  0
    5.7560   -4.9940   23.5650 C   0  0  0  0  0  0  0  0  0  0  0  0
    6.5050   -3.8620   24.1840 C   0  0  0  0  0  0  0  0  0  0  0  0
    5.7750   -3.2690   25.3270 C   0  0  0  0  0  0  0  0  0  0  0  0
    4.5690   -3.0510   25.1560 O   0  0  0  0  0  0  0  0  0  0  0  0
    6.4360   -2.9900   26.5230 N   0  0  0  0  0  0  0  0  0  0  0  0
    6.4610   -1.7500   27.2140 C   0  0  0  0  0  0  0  0  0  0  0  0
    6.9850   -1.5860   28.4800 C   0  0  0  0  0  0  0  0  0  0  0  0
    7.0060   -0.3530   29.1680 C   0  0  0  0  0  0  0  0  0  0  0  0
    6.4900    0.8070   28.6100 C   0  0  0  0  0  0  0  0  0  0  0  0
    6.4580    2.0400   29.1700 N   0  0  0  0  0  0  0  0  0  0  0  0
    5.2020    1.9990   30.3260 S   0  0  0  0  0  0  0  0  0  0  0  0
    5.1940    0.7350   31.1650 O   0  0  0  0  0  0  0  0  0  0  0  0
    5.2570    3.2310   31.1690 O   0  0  0  0  0  0  0  0  0  0  0  0
    3.7520    2.0310   29.2590 C   0  0  0  0  0  0  0  0  0  0  0  0
    2.6190    1.2120   29.8900 C   0  0  0  0  0  0  0  0  0  0  0  0
    3.0490   -0.2160   29.5460 C   0  0  0  0  0  0  0  0  0  0  0  0
    5.9510    0.7630   27.3730 C   0  0  0  0  0  0  0  0  0  0  0  0
    5.9300   -0.5140   26.6590 C   0  0  0  0  0  0  0  0  0  0  0  0
    6.8980   -2.7580   23.2560 C   0  0  0  0  0  0  0  0  0  0  0  0
    7.6310   -3.2760   22.2290 C   0  0  0  0  0  0  0  0  0  0  0  0
  1  2  1  0
  2  3  2  0
  2  4  1  0
  4  5  1  0
  5  6  1  0
  6  7  1  0
  7  8  1  0
  8  9  2  0
  8 10  1  0
 10 11  1  0
 11 12  2  0
 12 13  1  0
 13 14  2  0
 14 15  1  0
 16 15  1  0
 16 17  2  0
 16 18  2  0
 16 19  1  0
 19 20  1  0
 20 21  1  0
 14 22  1  0
 11 23  1  0
 22 23  2  0
  7 24  1  0
  4 25  1  0
 24 25  1  0
M  END
