piperidine-amides-34197-covalent
     RDKit          3D

 31 35  0  0  0  0  0  0  0  0999 V2000
    7.0560   -3.3370   19.3910 C   0  0  0  0  0  0  0  0  0  0  0  0
    6.3990   -4.2200   20.3660 C   0  0  0  0  0  0  0  0  0  0  0  0
    5.4190   -4.9140   20.0010 O   0  0  0  0  0  0  0  0  0  0  0  0
    6.8840   -4.3270   21.6850 N   0  0  0  0  0  0  0  0  0  0  0  0
    7.7000   -3.2600   22.2600 C   0  0  0  0  0  0  0  0  0  0  0  0
    7.1650   -2.9570   23.6710 C   0  0  0  0  0  0  0  0  0  0  0  0
    5.8340   -3.6650   23.7220 C   0  0  0  0  0  0  0  0  0  0  0  0
    4.9460   -3.2610   24.8520 C   0  0  0  0  0  0  0  0  0  0  0  0
    3.7280   -3.2020   24.6210 O   0  0  0  0  0  0  0  0  0  0  0  0
    5.4170   -2.9610   26.1400 N   0  0  0  0  0  0  0  0  0  0  0  0
    4.6120   -2.3610   27.1620 C   0  0  0  0  0  0  0  0  0  0  0  0
    4.3490   -3.4040   28.1850 C   0  0  2  0  0  0  0  0  0  0  0  0
    5.3720   -3.5100   29.0290 C   0  0  0  0  0  0  0  0  0  0  0  0
    6.5070   -3.3620   28.3430 C   0  0  0  0  0  0  0  0  0  0  0  0
    6.3160   -3.6350   27.0120 C   0  0  1  0  0  0  0  0  0  0  0  0
    5.6420   -4.8600   26.9050 C   0  0  1  0  0  0  0  0  0  0  0  0
    6.0750   -6.0430   27.7320 C   0  0  0  0  0  0  0  0  0  0  0  0
    7.1200   -6.6560   27.6890 O   0  0  0  0  0  0  0  0  0  0  0  0
    5.1710   -6.4440   28.6050 N   0  0  0  0  0  0  0  0  0  0  0  0
    5.2090   -7.7070   29.2550 C   0  0  0  0  0  0  0  0  0  0  0  0
    4.2350   -7.5810   30.3850 C   0  0  0  0  0  0  0  0  0  0  0  0
    5.4120   -7.4570   31.2490 C   0  0  0  0  0  0  0  0  0  0  0  0
    5.1940   -7.2950   32.6350 C   0  0  0  0  0  0  0  0  0  0  0  0
    3.8910   -7.2630   33.0850 C   0  0  0  0  0  0  0  0  0  0  0  0
    2.6900   -7.3920   32.1770 C   0  0  0  0  0  0  0  0  0  0  0  0
    2.9110   -7.5650   30.7040 C   0  0  0  0  0  0  0  0  0  0  0  0
    4.0270   -5.7640   28.2070 C   0  0  0  0  0  0  0  0  0  0  0  0
    2.8560   -6.0970   28.5450 O   0  0  0  0  0  0  0  0  0  0  0  0
    4.2540   -4.6600   27.3800 C   0  0  1  0  0  0  0  0  0  0  0  0
    6.0100   -5.1490   23.6570 C   0  0  0  0  0  0  0  0  0  0  0  0
    6.6230   -5.4980   22.4700 C   0  0  0  0  0  0  0  0  0  0  0  0
  1  2  1  0
  2  3  2  0
  2  4  1  0
  4  5  1  0
  5  6  1  0
  6  7  1  0
  7  8  1  0
  8  9  2  0
  8 10  1  0
 10 11  1  0
 12 11  1  6
 12 13  1  0
 13 14  1  0
 10 15  1  0
 15 14  1  1
 15 16  1  0
 16 17  1  1
 17 18  2  0
 17 19  1  0
 19 20  1  0
 20 21  1  0
 21 22  2  0
 22 23  1  0
 23 24  2  0
 24 25  1  0
 21 26  1  0
 25 26  2  0
 19 27  1  0
 27 28  2  0
 12 29  1  0
 16 29  1  0
 29 27  1  1
  7 30  1  0
  4 31  1  0
 30 31  1  0
M  END
