piperidine-amides-4953-covalent
     RDKit          3D

 23 24  0  0  0  0  0  0  0  0999 V2000
    7.1120   -3.2790   19.2180 C   0  0  0  0  0  0  0  0  0  0  0  0
    6.2900   -4.0130   20.2100 C   0  0  0  0  0  0  0  0  0  0  0  0
    5.2040   -4.4690   19.8280 O   0  0  0  0  0  0  0  0  0  0  0  0
    6.7500   -4.2210   21.5070 N   0  0  0  0  0  0  0  0  0  0  0  0
    7.4970   -3.1830   22.1220 C   0  0  0  0  0  0  0  0  0  0  0  0
    7.0400   -2.8480   23.4600 C   0  0  0  0  0  0  0  0  0  0  0  0
    6.6040   -4.0070   24.2630 C   0  0  0  0  0  0  0  0  0  0  0  0
    6.0180   -3.5400   25.5430 C   0  0  0  0  0  0  0  0  0  0  0  0
    4.7740   -3.4430   25.6290 O   0  0  0  0  0  0  0  0  0  0  0  0
    6.8560   -3.1980   26.6350 N   0  0  0  0  0  0  0  0  0  0  0  0
    7.4680   -4.1940   27.5590 C   0  0  0  0  0  0  0  0  0  0  0  0
    8.5200   -5.0470   26.9250 C   0  0  0  0  0  0  0  0  0  0  0  0
    9.6570   -4.3910   26.2740 C   0  0  0  0  0  0  0  0  0  0  0  0
    9.1950   -3.4690   25.2590 N   0  0  0  0  0  0  0  0  0  0  0  0
    9.7000   -2.1680   24.9600 C   0  0  0  0  0  0  0  0  0  0  0  0
    8.8910   -1.2270   25.0650 O   0  0  0  0  0  0  0  0  0  0  0  0
   11.0020   -1.9930   24.5540 C   0  0  0  0  0  0  0  0  0  0  0  0
   11.9900   -2.8700   24.7670 C   0  0  0  0  0  0  0  0  0  0  0  0
   13.1690   -2.4390   24.2510 C   0  0  0  0  0  0  0  0  0  0  0  0
   13.1190   -1.2100   23.6240 C   0  0  0  0  0  0  0  0  0  0  0  0
   11.5300   -0.5860   23.6990 S   0  0  0  0  0  0  0  0  0  0  0  0
    5.6680   -4.8760   23.4550 C   0  0  0  0  0  0  0  0  0  0  0  0
    6.4220   -5.4010   22.2860 C   0  0  0  0  0  0  0  0  0  0  0  0
  1  2  1  0
  2  3  2  0
  2  4  1  0
  4  5  1  0
  5  6  1  0
  6  7  1  0
  7  8  1  0
  8  9  2  0
  8 10  1  0
 10 11  1  0
 11 12  1  0
 12 13  1  0
 13 14  1  0
 14 15  1  0
 15 16  2  0
 15 17  1  0
 17 18  2  0
 18 19  1  0
 19 20  2  0
 17 21  1  0
 20 21  1  0
  7 22  1  0
  4 23  1  0
 22 23  1  0
M  END
