piperidine-amides-19585-covalent
     RDKit          3D

 22 24  0  0  0  0  0  0  0  0999 V2000
    7.1230   -3.3970   19.5250 C   0  0  0  0  0  0  0  0  0  0  0  0
    6.4320   -4.2560   20.4580 C   0  0  0  0  0  0  0  0  0  0  0  0
    5.4590   -4.9530   20.0150 O   0  0  0  0  0  0  0  0  0  0  0  0
    6.8260   -4.3700   21.8180 N   0  0  0  0  0  0  0  0  0  0  0  0
    6.3850   -5.5520   22.5630 C   0  0  0  0  0  0  0  0  0  0  0  0
    5.3820   -4.8490   23.5630 C   0  0  0  0  0  0  0  0  0  0  0  0
    6.1260   -3.7660   24.3400 C   0  0  0  0  0  0  0  0  0  0  0  0
    5.0510   -3.0620   25.3270 C   0  0  0  0  0  0  0  0  0  0  0  0
    4.4820   -2.1880   24.7070 O   0  0  0  0  0  0  0  0  0  0  0  0
    5.0190   -3.5670   26.5120 N   0  0  0  0  0  0  0  0  0  0  0  0
    4.6060   -4.0870   27.6750 C   0  0  0  0  0  0  0  0  0  0  0  0
    5.3070   -4.3230   28.7900 C   0  0  0  0  0  0  0  0  0  0  0  0
    6.4830   -3.6180   28.5530 C   0  0  2  0  0  0  0  0  0  0  0  0
    6.5280   -2.2270   29.0750 C   0  0  0  0  0  0  0  0  0  0  0  0
    7.6350   -1.4480   29.3710 N   0  0  0  0  0  0  0  0  0  0  0  0
    7.2680   -0.2540   29.8280 N   0  0  0  0  0  0  0  0  0  0  0  0
    5.9480   -0.2660   29.8210 C   0  0  0  0  0  0  0  0  0  0  0  0
    5.4750   -1.4500   29.3690 N   0  0  0  0  0  0  0  0  0  0  0  0
    4.1740   -1.7680   29.2470 C   0  0  0  0  0  0  0  0  0  0  0  0
    6.2860   -3.8380   27.0550 C   0  0  0  0  0  0  0  0  0  0  0  0
    7.0290   -2.8510   23.6540 C   0  0  0  0  0  0  0  0  0  0  0  0
    7.7760   -3.5770   22.4840 C   0  0  0  0  0  0  0  0  0  0  0  0
  1  2  1  0
  2  3  2  0
  2  4  1  0
  4  5  1  0
  5  6  1  0
  6  7  1  0
  7  8  1  0
  8  9  2  0
  8 10  1  0
 10 11  1  0
 11 12  1  0
 12 13  1  0
 13 14  1  6
 14 15  2  0
 15 16  1  0
 16 17  2  0
 14 18  1  0
 17 18  1  0
 18 19  1  0
 10 20  1  0
 13 20  1  0
  7 21  1  0
  4 22  1  0
 21 22  1  0
M  END
