piperidine-amides-32574-covalent
     RDKit          3D

 29 32  0  0  0  0  0  0  0  0999 V2000
    7.0650   -3.3180   19.2380 C   0  0  0  0  0  0  0  0  0  0  0  0
    6.3500   -4.1630   20.2380 C   0  0  0  0  0  0  0  0  0  0  0  0
    5.2960   -4.7290   19.9280 O   0  0  0  0  0  0  0  0  0  0  0  0
    6.9210   -4.3390   21.5000 N   0  0  0  0  0  0  0  0  0  0  0  0
    6.6660   -5.5040   22.3050 C   0  0  0  0  0  0  0  0  0  0  0  0
    5.8230   -5.0690   23.5220 C   0  0  0  0  0  0  0  0  0  0  0  0
    6.0780   -3.6220   23.8330 C   0  0  0  0  0  0  0  0  0  0  0  0
    5.6500   -3.1970   25.1860 C   0  0  0  0  0  0  0  0  0  0  0  0
    4.7200   -2.3910   25.2310 O   0  0  0  0  0  0  0  0  0  0  0  0
    6.2740   -3.6970   26.3310 N   0  0  0  0  0  0  0  0  0  0  0  0
    6.8390   -4.9960   26.3550 C   0  0  0  0  0  0  0  0  0  0  0  0
    6.4310   -5.9010   27.2630 C   0  0  0  0  0  0  0  0  0  0  0  0
    5.0650   -5.4950   27.4890 N   0  0  0  0  0  0  0  0  0  0  0  0
    4.1960   -5.0040   26.4870 C   0  0  0  0  0  0  0  0  0  0  0  0
    3.5870   -6.0030   25.7510 C   0  0  0  0  0  0  0  0  0  0  0  0
    3.3850   -7.3820   26.2570 C   0  0  0  0  0  0  0  0  0  0  0  0
    2.7100   -8.4880   25.4490 C   0  0  0  0  0  0  0  0  0  0  0  0
    2.2520   -8.0590   24.0530 C   0  0  0  0  0  0  0  0  0  0  0  0
    2.4660   -6.7590   23.6310 C   0  0  0  0  0  0  0  0  0  0  0  0
    3.1300   -5.7310   24.4730 C   0  0  0  0  0  0  0  0  0  0  0  0
    5.2240   -4.4550   28.4070 C   0  0  0  0  0  0  0  0  0  0  0  0
    4.0410   -4.0210   29.0200 C   0  0  0  0  0  0  0  0  0  0  0  0
    3.8250   -5.5240   28.6400 C   0  0  0  0  0  0  0  0  0  0  0  0
    4.4380   -6.5560   29.5490 C   0  0  0  0  0  0  0  0  0  0  0  0
    5.8620   -6.2320   29.8880 C   0  0  0  0  0  0  0  0  0  0  0  0
    6.2110   -4.9320   29.2470 C   0  0  0  0  0  0  0  0  0  0  0  0
    5.9190   -3.3990   27.7170 C   0  0  0  0  0  0  0  0  0  0  0  0
    7.4190   -3.1420   23.4610 C   0  0  0  0  0  0  0  0  0  0  0  0
    7.6570   -3.2530   22.0150 C   0  0  0  0  0  0  0  0  0  0  0  0
  1  2  1  0
  2  3  2  0
  2  4  1  0
  4  5  1  0
  5  6  1  0
  6  7  1  0
  7  8  1  0
  8  9  2  0
  8 10  1  0
 10 11  1  0
 11 12  1  0
 12 13  1  0
 13 14  1  0
 14 15  1  0
 15 16  2  0
 16 17  1  0
 17 18  2  0
 18 19  1  0
 15 20  1  0
 19 20  2  0
 21 13  1  0
 21 22  1  0
 22 23  1  0
 23 24  1  0
 24 25  1  0
 21 26  1  0
 25 26  1  0
 10 27  1  0
 21 27  1  0
  7 28  1  0
  4 29  1  0
 28 29  1  0
M  END
