piperidine-amides-11329-covalent
     RDKit          3D

 17 17  0  0  0  0  0  0  0  0999 V2000
    7.1220   -3.2790   19.2370 C   0  0  0  0  0  0  0  0  0  0  0  0
    6.3550   -4.0140   20.2440 C   0  0  0  0  0  0  0  0  0  0  0  0
    5.3020   -4.5790   19.9020 O   0  0  0  0  0  0  0  0  0  0  0  0
    6.8080   -4.1390   21.5700 N   0  0  0  0  0  0  0  0  0  0  0  0
    7.7320   -3.1630   22.1490 C   0  0  0  0  0  0  0  0  0  0  0  0
    7.2850   -2.8490   23.5540 C   0  0  0  0  0  0  0  0  0  0  0  0
    6.0490   -3.6020   23.9080 C   0  0  0  0  0  0  0  0  0  0  0  0
    5.5340   -3.2600   25.2470 C   0  0  0  0  0  0  0  0  0  0  0  0
    4.3030   -3.0090   25.3980 O   0  0  0  0  0  0  0  0  0  0  0  0
    6.3240   -3.1730   26.4080 N   0  0  0  0  0  0  0  0  0  0  0  0
    6.7570   -1.8000   26.7720 C   0  0  0  0  0  0  0  0  0  0  0  0
    5.8860   -4.0190   27.5430 C   0  0  2  0  0  0  0  0  0  0  0  0
    6.7790   -3.8990   28.6840 C   0  0  0  0  0  0  0  0  0  0  0  0
    5.7490   -5.5040   27.2950 C   0  0  0  0  0  0  0  0  0  0  0  0
    5.0340   -6.0090   26.1670 N   0  0  0  0  0  0  0  0  0  0  0  0
    6.0960   -5.0620   23.6510 C   0  0  0  0  0  0  0  0  0  0  0  0
    6.6130   -5.3600   22.2980 C   0  0  0  0  0  0  0  0  0  0  0  0
  1  2  1  0
  2  3  2  0
  2  4  1  0
  4  5  1  0
  5  6  1  0
  6  7  1  0
  7  8  1  0
  8  9  2  0
  8 10  1  0
 10 11  1  0
 10 12  1  0
 12 13  1  1
 12 14  1  0
 14 15  1  0
  7 16  1  0
  4 17  1  0
 16 17  1  0
M  END
