piperidine-amides-1499-covalent
     RDKit          3D

 21 22  0  0  0  0  0  0  0  0999 V2000
    7.0320   -3.3160   19.3420 C   0  0  0  0  0  0  0  0  0  0  0  0
    6.3120   -4.1650   20.3340 C   0  0  0  0  0  0  0  0  0  0  0  0
    5.3190   -4.8070   19.9610 O   0  0  0  0  0  0  0  0  0  0  0  0
    6.7900   -4.2650   21.6600 N   0  0  0  0  0  0  0  0  0  0  0  0
    6.6750   -5.4880   22.4210 C   0  0  0  0  0  0  0  0  0  0  0  0
    6.0450   -5.1620   23.7830 C   0  0  0  0  0  0  0  0  0  0  0  0
    6.0800   -3.6830   23.9750 C   0  0  0  0  0  0  0  0  0  0  0  0
    5.6520   -3.2470   25.3270 C   0  0  0  0  0  0  0  0  0  0  0  0
    4.4380   -3.3060   25.5870 O   0  0  0  0  0  0  0  0  0  0  0  0
    6.6110   -2.7890   26.2300 N   0  0  0  0  0  0  0  0  0  0  0  0
    6.5390   -1.6390   27.0640 C   0  0  0  0  0  0  0  0  0  0  0  0
    7.0020   -1.5950   28.3580 C   0  0  0  0  0  0  0  0  0  0  0  0
    6.9160   -0.4520   29.1510 C   0  0  0  0  0  0  0  0  0  0  0  0
    6.3520    0.7050   28.6650 C   0  0  0  0  0  0  0  0  0  0  0  0
    6.2700    1.9170   29.5210 C   0  0  1  0  0  0  0  0  0  0  0  0
    4.9290    2.6640   29.5410 C   0  0  0  0  0  0  0  0  0  0  0  0
    6.5000    1.6430   30.8060 O   0  0  0  0  0  0  0  0  0  0  0  0
    5.8820    0.6770   27.3690 C   0  0  0  0  0  0  0  0  0  0  0  0
    5.9750   -0.4620   26.5930 C   0  0  0  0  0  0  0  0  0  0  0  0
    7.3960   -3.0670   23.6670 C   0  0  0  0  0  0  0  0  0  0  0  0
    7.6370   -3.2080   22.1810 C   0  0  0  0  0  0  0  0  0  0  0  0
  1  2  1  0
  2  3  2  0
  2  4  1  0
  4  5  1  0
  5  6  1  0
  6  7  1  0
  7  8  1  0
  8  9  2  0
  8 10  1  0
 10 11  1  0
 11 12  2  0
 12 13  1  0
 13 14  2  0
 14 15  1  0
 15 16  1  1
 15 17  1  0
 14 18  1  0
 11 19  1  0
 18 19  2  0
  7 20  1  0
  4 21  1  0
 20 21  1  0
M  END
