piperidine-amides-11346-covalent
     RDKit          3D

 22 23  0  0  0  0  0  0  0  0999 V2000
    7.0980   -3.3520   19.3220 C   0  0  0  0  0  0  0  0  0  0  0  0
    6.3590   -4.1220   20.3190 C   0  0  0  0  0  0  0  0  0  0  0  0
    5.3580   -4.7690   19.9640 O   0  0  0  0  0  0  0  0  0  0  0  0
    6.8000   -4.1750   21.6490 N   0  0  0  0  0  0  0  0  0  0  0  0
    7.7620   -3.2170   22.1640 C   0  0  0  0  0  0  0  0  0  0  0  0
    7.4320   -3.0170   23.6110 C   0  0  0  0  0  0  0  0  0  0  0  0
    6.0590   -3.5070   23.9170 C   0  0  0  0  0  0  0  0  0  0  0  0
    5.6360   -3.1180   25.2790 C   0  0  0  0  0  0  0  0  0  0  0  0
    4.4100   -3.0120   25.5660 O   0  0  0  0  0  0  0  0  0  0  0  0
    6.5840   -2.8640   26.2810 N   0  0  0  0  0  0  0  0  0  0  0  0
    6.5900   -1.6550   27.1390 C   0  0  1  0  0  0  0  0  0  0  0  0
    5.4860   -0.7540   26.7150 C   0  0  0  0  0  0  0  0  0  0  0  0
    5.4680    0.5820   27.3440 C   0  0  0  0  0  0  0  0  0  0  0  0
    5.5910    0.4330   28.5670 O   0  0  0  0  0  0  0  0  0  0  0  0
    6.7160   -0.3290   28.8420 C   0  0  0  0  0  0  0  0  0  0  0  0
    6.5540   -1.8020   28.5490 C   0  0  1  0  0  0  0  0  0  0  0  0
    5.3210   -2.3440   29.1800 C   0  0  0  0  0  0  0  0  0  0  0  0
    4.1940   -1.8070   29.2660 O   0  0  0  0  0  0  0  0  0  0  0  0
    5.4440   -3.5930   29.7400 O   0  0  0  0  0  0  0  0  0  0  0  0
    6.0560   -4.4280   28.8370 C   0  0  0  0  0  0  0  0  0  0  0  0
    5.9690   -5.0070   23.7410 C   0  0  0  0  0  0  0  0  0  0  0  0
    6.6090   -5.3880   22.4190 C   0  0  0  0  0  0  0  0  0  0  0  0
  1  2  1  0
  2  3  2  0
  2  4  1  0
  4  5  1  0
  5  6  1  0
  6  7  1  0
  7  8  1  0
  8  9  2  0
  8 10  1  0
 11 10  1  6
 11 12  1  0
 12 13  1  0
 13 14  1  0
 14 15  1  0
 11 16  1  0
 15 16  1  0
 16 17  1  6
 17 18  2  0
 17 19  1  0
 19 20  1  0
  7 21  1  0
  4 22  1  0
 21 22  1  0
M  END
