piperidine-amides-2716-covalent
     RDKit          3D

 25 27  0  0  0  0  0  0  0  0999 V2000
    7.0450   -3.3510   19.3340 C   0  0  0  0  0  0  0  0  0  0  0  0
    6.3800   -4.1780   20.3370 C   0  0  0  0  0  0  0  0  0  0  0  0
    5.4050   -4.8570   19.9920 O   0  0  0  0  0  0  0  0  0  0  0  0
    6.8680   -4.2490   21.6950 N   0  0  0  0  0  0  0  0  0  0  0  0
    6.6250   -5.4380   22.4820 C   0  0  0  0  0  0  0  0  0  0  0  0
    6.0090   -5.0950   23.8170 C   0  0  0  0  0  0  0  0  0  0  0  0
    5.9940   -3.5790   23.9460 C   0  0  0  0  0  0  0  0  0  0  0  0
    5.5420   -3.1230   25.2950 C   0  0  0  0  0  0  0  0  0  0  0  0
    4.3490   -2.8620   25.5290 O   0  0  0  0  0  0  0  0  0  0  0  0
    6.4780   -2.9800   26.3420 N   0  0  0  0  0  0  0  0  0  0  0  0
    6.4880   -1.7740   27.1510 C   0  0  0  0  0  0  0  0  0  0  0  0
    5.8100   -0.5650   26.5860 C   0  0  0  0  0  0  0  0  0  0  0  0
    5.7960    0.6090   27.3170 C   0  0  0  0  0  0  0  0  0  0  0  0
    6.4200    0.6610   28.5830 C   0  0  0  0  0  0  0  0  0  0  0  0
    6.4330    1.8090   29.3360 C   0  0  0  0  0  0  0  0  0  0  0  0
    7.1190    3.0140   28.8860 C   0  0  0  0  0  0  0  0  0  0  0  0
    7.1100    4.1430   29.6710 C   0  0  0  0  0  0  0  0  0  0  0  0
    6.4560    4.1520   30.8880 C   0  0  0  0  0  0  0  0  0  0  0  0
    5.7870    3.0250   31.3600 C   0  0  0  0  0  0  0  0  0  0  0  0
    5.7770    1.8070   30.5500 C   0  0  0  0  0  0  0  0  0  0  0  0
    7.0520   -0.4810   29.1030 C   0  0  0  0  0  0  0  0  0  0  0  0
    7.6720   -0.4380   30.3470 C   0  0  0  0  0  0  0  0  0  0  0  0
    7.0810   -1.6530   28.4130 C   0  0  0  0  0  0  0  0  0  0  0  0
    7.3100   -2.9470   23.6520 C   0  0  0  0  0  0  0  0  0  0  0  0
    7.7250   -3.2090   22.2240 C   0  0  0  0  0  0  0  0  0  0  0  0
  1  2  1  0
  2  3  2  0
  2  4  1  0
  4  5  1  0
  5  6  1  0
  6  7  1  0
  7  8  1  0
  8  9  2  0
  8 10  1  0
 10 11  1  0
 11 12  2  0
 12 13  1  0
 13 14  2  0
 14 15  1  0
 15 16  2  0
 16 17  1  0
 17 18  2  0
 18 19  1  0
 15 20  1  0
 19 20  2  0
 14 21  1  0
 21 22  1  0
 11 23  1  0
 21 23  2  0
  7 24  1  0
  4 25  1  0
 24 25  1  0
M  END
