piperidine-amides-5093-covalent
     RDKit          3D

 22 24  0  0  0  0  0  0  0  0999 V2000
    7.1340   -3.2600   19.1940 C   0  0  0  0  0  0  0  0  0  0  0  0
    6.3680   -4.0110   20.2120 C   0  0  0  0  0  0  0  0  0  0  0  0
    5.2770   -4.5000   19.8600 O   0  0  0  0  0  0  0  0  0  0  0  0
    6.8890   -4.2000   21.4950 N   0  0  0  0  0  0  0  0  0  0  0  0
    6.4590   -5.3120   22.2650 C   0  0  0  0  0  0  0  0  0  0  0  0
    5.9460   -4.9460   23.5880 C   0  0  0  0  0  0  0  0  0  0  0  0
    6.5930   -3.7600   24.2090 C   0  0  0  0  0  0  0  0  0  0  0  0
    5.8160   -3.2650   25.3650 C   0  0  0  0  0  0  0  0  0  0  0  0
    4.5720   -3.2810   25.2990 O   0  0  0  0  0  0  0  0  0  0  0  0
    6.4650   -2.7800   26.5100 N   0  0  0  0  0  0  0  0  0  0  0  0
    6.2260   -3.3350   27.8570 C   0  0  0  0  0  0  0  0  0  0  0  0
    6.4030   -2.2770   28.8920 C   0  0  0  0  0  0  0  0  0  0  0  0
    5.2720   -1.6960   29.6180 C   0  0  0  0  0  0  0  0  0  0  0  0
    5.6830   -0.7740   30.4920 C   0  0  0  0  0  0  0  0  0  0  0  0
    5.1130    0.0460   31.3930 C   0  0  0  0  0  0  0  0  0  0  0  0
    5.9990    0.8970   32.1400 N   0  0  0  0  0  0  0  0  0  0  0  0
    7.3670    0.9360   32.0070 C   0  0  0  0  0  0  0  0  0  0  0  0
    7.8510    0.0490   31.0490 C   0  0  0  0  0  0  0  0  0  0  0  0
    7.0070   -0.7560   30.3420 C   0  0  0  0  0  0  0  0  0  0  0  0
    7.5040   -1.6070   29.4200 N   0  0  0  0  0  0  0  0  0  0  0  0
    6.8250   -2.6690   23.2140 C   0  0  0  0  0  0  0  0  0  0  0  0
    7.7040   -3.2060   22.1610 C   0  0  0  0  0  0  0  0  0  0  0  0
  1  2  1  0
  2  3  2  0
  2  4  1  0
  4  5  1  0
  5  6  1  0
  6  7  1  0
  7  8  1  0
  8  9  2  0
  8 10  1  0
 10 11  1  0
 11 12  1  0
 12 13  2  0
 13 14  1  0
 14 15  2  0
 15 16  1  0
 16 17  2  0
 17 18  1  0
 14 19  1  0
 18 19  2  0
 12 20  1  0
 19 20  1  0
  7 21  1  0
  4 22  1  0
 21 22  1  0
M  END
