piperidine-amides-27132-covalent
     RDKit          3D

 25 26  0  0  0  0  0  0  0  0999 V2000
    7.0280   -3.3870   19.4420 C   0  0  0  0  0  0  0  0  0  0  0  0
    6.3780   -4.2390   20.4420 C   0  0  0  0  0  0  0  0  0  0  0  0
    5.4130   -4.9300   20.0100 O   0  0  0  0  0  0  0  0  0  0  0  0
    6.8420   -4.3090   21.7770 N   0  0  0  0  0  0  0  0  0  0  0  0
    6.7440   -5.5650   22.4990 C   0  0  0  0  0  0  0  0  0  0  0  0
    6.2980   -5.2860   23.9100 C   0  0  0  0  0  0  0  0  0  0  0  0
    6.1780   -3.8100   24.1210 C   0  0  0  0  0  0  0  0  0  0  0  0
    5.6150   -3.4290   25.4710 C   0  0  0  0  0  0  0  0  0  0  0  0
    4.3830   -3.2230   25.4410 O   0  0  0  0  0  0  0  0  0  0  0  0
    6.2150   -3.2270   26.7620 N   0  0  0  0  0  0  0  0  0  0  0  0
    5.3230   -2.6110   27.7280 C   0  0  0  0  0  0  0  0  0  0  0  0
    4.4040   -3.6240   28.4820 C   0  0  0  0  0  0  0  0  0  0  0  0
    4.6470   -5.0160   28.0410 N   0  0  0  0  0  0  0  0  0  0  0  0
    3.7460   -5.9810   28.2130 C   0  0  0  0  0  0  0  0  0  0  0  0
    3.2040   -6.1860   29.4720 C   0  0  0  0  0  0  0  0  0  0  0  0
    2.6980   -5.0520   29.8940 O   0  0  0  0  0  0  0  0  0  0  0  0
    3.2150   -7.3730   30.1100 N   0  0  0  0  0  0  0  0  0  0  0  0
    3.9790   -7.2890   31.3020 C   0  0  0  0  0  0  0  0  0  0  0  0
    5.3320   -7.1100   31.0650 C   0  0  0  0  0  0  0  0  0  0  0  0
    5.8510   -6.4820   29.9590 C   0  0  0  0  0  0  0  0  0  0  0  0
    5.9900   -7.8870   29.9110 C   0  0  0  0  0  0  0  0  0  0  0  0
    5.9740   -5.3090   27.7310 C   0  0  0  0  0  0  0  0  0  0  0  0
    6.4940   -3.9460   27.9770 C   0  0  0  0  0  0  0  0  0  0  0  0
    7.4500   -3.1200   23.7400 C   0  0  0  0  0  0  0  0  0  0  0  0
    7.7000   -3.2460   22.3740 C   0  0  0  0  0  0  0  0  0  0  0  0
  1  2  1  0
  2  3  2  0
  2  4  1  0
  4  5  1  0
  5  6  1  0
  6  7  1  0
  7  8  1  0
  8  9  2  0
  8 10  1  0
 10 11  1  0
 11 12  1  0
 12 13  1  0
 13 14  1  0
 14 15  1  0
 15 16  2  0
 15 17  1  0
 17 18  1  0
 18 19  1  0
 19 20  1  0
 19 21  1  0
 13 22  1  0
 10 23  1  0
 22 23  1  0
  7 24  1  0
  4 25  1  0
 24 25  1  0
M  END
