piperidine-amides-32381-covalent
     RDKit          3D

 28 29  0  0  0  0  0  0  0  0999 V2000
    6.9970   -3.3460   19.4260 C   0  0  0  0  0  0  0  0  0  0  0  0
    6.3310   -4.2550   20.4030 C   0  0  0  0  0  0  0  0  0  0  0  0
    5.3800   -4.9440   19.9980 O   0  0  0  0  0  0  0  0  0  0  0  0
    6.7950   -4.3540   21.7390 N   0  0  0  0  0  0  0  0  0  0  0  0
    6.6530   -5.5940   22.4770 C   0  0  0  0  0  0  0  0  0  0  0  0
    6.3240   -5.3260   23.9680 C   0  0  0  0  0  0  0  0  0  0  0  0
    6.2070   -3.8590   24.2340 C   0  0  0  0  0  0  0  0  0  0  0  0
    5.8530   -3.4370   25.6410 C   0  0  0  0  0  0  0  0  0  0  0  0
    5.6110   -2.2380   25.7660 O   0  0  0  0  0  0  0  0  0  0  0  0
    5.7410   -4.3360   26.7440 N   0  0  0  0  0  0  0  0  0  0  0  0
    4.5460   -4.8420   27.2490 C   0  0  0  0  0  0  0  0  0  0  0  0
    4.2330   -4.7470   28.5980 C   0  0  0  0  0  0  0  0  0  0  0  0
    5.0530   -5.2460   29.6410 C   0  0  0  0  0  0  0  0  0  0  0  0
    6.0360   -6.1650   29.4000 C   0  0  1  0  0  0  0  0  0  0  0  0
    5.7210   -7.5130   29.3250 N   0  0  0  0  0  0  0  0  0  0  0  0
    4.5000   -7.7600   28.8470 C   0  0  0  0  0  0  0  0  0  0  0  0
    6.1770   -8.3900   30.4540 C   0  0  0  0  0  0  0  0  0  0  0  0
    7.1970   -9.6540   30.3470 C   0  0  0  0  0  0  0  0  0  0  0  0
    7.1070  -10.3380   29.2140 O   0  0  0  0  0  0  0  0  0  0  0  0
    8.1320  -10.1620   31.2850 O   0  0  0  0  0  0  0  0  0  0  0  0
    9.1500  -11.1940   31.0720 C   0  0  0  0  0  0  0  0  0  0  0  0
    8.5970  -12.3480   31.7950 C   0  0  0  0  0  0  0  0  0  0  0  0
   10.5410  -11.1600   31.3150 C   0  0  0  0  0  0  0  0  0  0  0  0
    9.1170  -11.7040   29.6370 C   0  0  0  0  0  0  0  0  0  0  0  0
    6.8480   -5.5350   28.5400 C   0  0  0  0  0  0  0  0  0  0  0  0
    6.4780   -4.1370   27.9970 C   0  0  0  0  0  0  0  0  0  0  0  0
    7.4570   -3.1410   23.7780 C   0  0  0  0  0  0  0  0  0  0  0  0
    7.6020   -3.2610   22.3050 C   0  0  0  0  0  0  0  0  0  0  0  0
  1  2  1  0
  2  3  2  0
  2  4  1  0
  4  5  1  0
  5  6  1  0
  6  7  1  0
  7  8  1  0
  8  9  2  0
  8 10  1  0
 10 11  1  0
 11 12  1  0
 12 13  1  0
 13 14  1  0
 14 15  1  6
 15 16  1  0
 15 17  1  0
 17 18  1  0
 18 19  2  0
 18 20  1  0
 21 20  1  0
 21 22  1  0
 21 23  1  0
 21 24  1  0
 14 25  1  0
 10 26  1  0
 25 26  1  0
  7 27  1  0
  4 28  1  0
 27 28  1  0
M  END
