piperidine-amides-24335-covalent
     RDKit          3D

 23 24  0  0  0  0  0  0  0  0999 V2000
    7.0500   -3.3140   19.3580 C   0  0  0  0  0  0  0  0  0  0  0  0
    6.3660   -4.1720   20.3410 C   0  0  0  0  0  0  0  0  0  0  0  0
    5.3870   -4.8620   19.9870 O   0  0  0  0  0  0  0  0  0  0  0  0
    6.8190   -4.2590   21.6720 N   0  0  0  0  0  0  0  0  0  0  0  0
    7.7020   -3.2320   22.1900 C   0  0  0  0  0  0  0  0  0  0  0  0
    7.6730   -3.3460   23.7160 C   0  0  0  0  0  0  0  0  0  0  0  0
    6.2600   -3.7600   24.0430 C   0  0  0  0  0  0  0  0  0  0  0  0
    5.9280   -3.5220   25.4650 C   0  0  0  0  0  0  0  0  0  0  0  0
    4.7350   -3.6870   25.8010 O   0  0  0  0  0  0  0  0  0  0  0  0
    6.9060   -3.0910   26.4140 N   0  0  0  0  0  0  0  0  0  0  0  0
    7.4560   -4.0300   27.3680 C   0  0  0  0  0  0  0  0  0  0  0  0
    8.4130   -5.0000   26.6890 C   0  0  0  0  0  0  0  0  0  0  0  0
    6.6640   -1.7420   26.9020 C   0  0  0  0  0  0  0  0  0  0  0  0
    7.2620   -1.3020   28.0210 C   0  0  0  0  0  0  0  0  0  0  0  0
    7.3600   -0.1850   28.8410 N   0  0  0  0  0  0  0  0  0  0  0  0
    6.5430    0.7570   28.2640 C   0  0  0  0  0  0  0  0  0  0  0  0
    6.4170    2.0020   28.8360 C   0  0  0  0  0  0  0  0  0  0  0  0
    5.9540    2.2340   30.0640 N   0  0  0  0  0  0  0  0  0  0  0  0
    6.9470    3.3470   27.7960 S   0  0  0  0  0  0  0  0  0  0  0  0
    5.7600    0.4160   26.9540 C   0  0  0  0  0  0  0  0  0  0  0  0
    5.8620   -0.8170   26.3400 N   0  0  0  0  0  0  0  0  0  0  0  0
    5.9340   -5.1590   23.6190 C   0  0  0  0  0  0  0  0  0  0  0  0
    6.7370   -5.5100   22.4060 C   0  0  0  0  0  0  0  0  0  0  0  0
  1  2  1  0
  2  3  2  0
  2  4  1  0
  4  5  1  0
  5  6  1  0
  6  7  1  0
  7  8  1  0
  8  9  2  0
  8 10  1  0
 10 11  1  0
 11 12  1  0
 10 13  1  0
 13 14  2  0
 14 15  1  0
 15 16  2  0
 16 17  1  0
 17 18  1  0
 17 19  2  0
 16 20  1  0
 13 21  1  0
 20 21  2  0
  7 22  1  0
  4 23  1  0
 22 23  1  0
M  END
