piperidine-amides-33644-covalent
     RDKit          3D

 30 32  0  0  0  0  0  0  0  0999 V2000
    7.1560   -3.9100   19.6290 C   0  0  0  0  0  0  0  0  0  0  0  0
    5.9090   -3.7440   20.2720 C   0  0  0  0  0  0  0  0  0  0  0  0
    4.9270   -3.9630   19.5420 O   0  0  0  0  0  0  0  0  0  0  0  0
    5.8880   -3.4550   21.6320 N   0  0  0  0  0  0  0  0  0  0  0  0
    5.5230   -4.5540   22.4580 C   0  0  0  0  0  0  0  0  0  0  0  0
    6.4000   -4.7720   23.6080 C   0  0  0  0  0  0  0  0  0  0  0  0
    6.7990   -3.5650   24.3770 C   0  0  0  0  0  0  0  0  0  0  0  0
    5.8600   -3.3100   25.5140 C   0  0  0  0  0  0  0  0  0  0  0  0
    4.6320   -3.3700   25.3060 O   0  0  0  0  0  0  0  0  0  0  0  0
    6.3200   -2.9990   26.8080 N   0  0  0  0  0  0  0  0  0  0  0  0
    6.2060   -3.8590   27.9300 C   0  0  0  0  0  0  0  0  0  0  0  0
    5.8010   -5.2520   27.7460 C   0  0  0  0  0  0  0  0  0  0  0  0
    5.4520   -5.8270   29.1230 C   0  0  0  0  0  0  0  0  0  0  0  0
    6.2390   -6.8550   29.5880 C   0  0  0  0  0  0  0  0  0  0  0  0
    5.8680   -7.4380   31.0010 C   0  0  0  0  0  0  0  0  0  0  0  0
    4.7010   -6.8980   31.8130 C   0  0  0  0  0  0  0  0  0  0  0  0
    3.9470   -5.7620   31.1410 C   0  0  0  0  0  0  0  0  0  0  0  0
    2.8490   -5.0840   31.6570 O   0  0  0  0  0  0  0  0  0  0  0  0
    2.8690   -4.6150   33.0050 C   0  0  0  0  0  0  0  0  0  0  0  0
    4.3980   -5.3060   29.8110 C   0  0  0  0  0  0  0  0  0  0  0  0
    6.6680   -1.6020   26.9700 C   0  0  0  0  0  0  0  0  0  0  0  0
    5.6020   -0.5810   26.7660 C   0  0  0  0  0  0  0  0  0  0  0  0
    5.6000    0.7370   26.8390 C   0  0  0  0  0  0  0  0  0  0  0  0
    4.8980    1.6010   26.7150 N   0  0  0  0  0  0  0  0  0  0  0  0
    3.8390    0.7620   26.4100 N   0  0  0  0  0  0  0  0  0  0  0  0
    2.5890    1.4200   26.1400 C   0  0  0  0  0  0  0  0  0  0  0  0
    1.4150    0.6140   26.6500 C   0  0  0  0  0  0  0  0  0  0  0  0
    4.2890   -0.6840   26.4400 C   0  0  0  0  0  0  0  0  0  0  0  0
    6.8180   -2.3570   23.4870 C   0  0  0  0  0  0  0  0  0  0  0  0
    7.0530   -2.7250   22.0540 C   0  0  0  0  0  0  0  0  0  0  0  0
  1  2  1  0
  2  3  2  0
  2  4  1  0
  4  5  1  0
  5  6  1  0
  6  7  1  0
  7  8  1  0
  8  9  2  0
  8 10  1  0
 10 11  1  0
 11 12  1  0
 12 13  1  0
 13 14  2  0
 14 15  1  0
 15 16  2  0
 16 17  1  0
 17 18  1  0
 18 19  1  0
 13 20  1  0
 17 20  2  0
 10 21  1  0
 21 22  1  0
 22 23  1  0
 23 24  2  0
 24 25  1  0
 25 26  1  0
 26 27  1  0
 22 28  2  0
 25 28  1  0
  7 29  1  0
  4 30  1  0
 29 30  1  0
M  END
