piperidine-amides-35166-covalent
     RDKit          3D

 32 35  0  0  0  0  0  0  0  0999 V2000
    7.1560   -3.2840   19.1880 C   0  0  0  0  0  0  0  0  0  0  0  0
    6.4220   -4.0880   20.1960 C   0  0  0  0  0  0  0  0  0  0  0  0
    5.3300   -4.5500   19.8810 O   0  0  0  0  0  0  0  0  0  0  0  0
    7.0160   -4.3380   21.4220 N   0  0  0  0  0  0  0  0  0  0  0  0
    6.7000   -5.5320   22.1440 C   0  0  0  0  0  0  0  0  0  0  0  0
    6.0280   -5.1130   23.4030 C   0  0  0  0  0  0  0  0  0  0  0  0
    6.9010   -4.1100   24.1700 C   0  0  0  0  0  0  0  0  0  0  0  0
    6.0540   -3.6680   25.2530 C   0  0  0  0  0  0  0  0  0  0  0  0
    5.1790   -2.8070   25.0550 O   0  0  0  0  0  0  0  0  0  0  0  0
    6.2080   -4.2350   26.5100 N   0  0  0  0  0  0  0  0  0  0  0  0
    5.0920   -5.0200   26.8940 C   0  0  0  0  0  0  0  0  0  0  0  0
    4.7510   -4.9210   28.1310 C   0  0  0  0  0  0  0  0  0  0  0  0
    3.6960   -5.7950   27.9690 C   0  0  0  0  0  0  0  0  0  0  0  0
    2.5270   -5.4010   27.6730 O   0  0  0  0  0  0  0  0  0  0  0  0
    3.9320   -7.1250   28.1260 O   0  0  0  0  0  0  0  0  0  0  0  0
    4.5950   -7.6560   29.2710 C   0  0  0  0  0  0  0  0  0  0  0  0
    3.6140   -7.7990   30.2060 C   0  0  0  0  0  0  0  0  0  0  0  0
    6.0360   -4.2160   27.2010 C   0  0  0  0  0  0  0  0  0  0  0  0
    6.1550   -3.7730   28.3080 N   0  0  0  0  0  0  0  0  0  0  0  0
    5.2660   -4.5120   28.1280 N   0  0  0  0  0  0  0  0  0  0  0  0
    4.6710   -4.6230   29.3000 C   0  0  2  0  0  0  0  0  0  0  0  0
    3.7050   -3.5090   29.7040 C   0  0  0  0  0  0  0  0  0  0  0  0
    4.2430   -2.2570   29.5700 F   0  0  0  0  0  0  0  0  0  0  0  0
    3.0650   -3.6180   30.8920 F   0  0  0  0  0  0  0  0  0  0  0  0
    2.5580   -3.4290   28.8670 F   0  0  0  0  0  0  0  0  0  0  0  0
    6.0160   -3.8960   29.1600 C   0  0  0  0  0  0  0  0  0  0  0  0
    6.3880   -3.3470   27.7500 C   0  0  1  0  0  0  0  0  0  0  0  0
    7.7540   -2.8040   27.7680 C   0  0  0  0  0  0  0  0  0  0  0  0
    8.1310   -1.9960   26.7950 C   0  0  0  0  0  0  0  0  0  0  0  0
    7.8790   -1.4150   28.2240 C   0  0  0  0  0  0  0  0  0  0  0  0
    7.2170   -2.8930   23.3450 C   0  0  0  0  0  0  0  0  0  0  0  0
    7.7580   -3.2660   22.0130 C   0  0  0  0  0  0  0  0  0  0  0  0
  1  2  1  0
  2  3  2  0
  2  4  1  0
  4  5  1  0
  5  6  1  0
  6  7  1  0
  7  8  1  0
  8  9  2  0
  8 10  1  0
 10 11  1  0
 11 12  2  0
 12 13  1  0
 13 14  2  0
 13 15  1  0
 15 16  1  0
 16 17  1  0
 12 18  1  0
 18 19  2  0
 11 20  1  0
 19 20  1  0
 20 21  1  0
 21 22  1  6
 22 23  1  0
 22 24  1  0
 22 25  1  0
 21 26  1  0
 10 27  1  0
 26 27  1  0
 27 28  1  1
 28 29  1  0
 28 30  1  0
 29 30  1  0
  7 31  1  0
  4 32  1  0
 31 32  1  0
M  END
