piperidine-amides-14466-covalent
     RDKit          3D

 25 27  0  0  0  0  0  0  0  0999 V2000
    7.0670   -3.3180   19.3410 C   0  0  0  0  0  0  0  0  0  0  0  0
    6.3840   -4.1550   20.3240 C   0  0  0  0  0  0  0  0  0  0  0  0
    5.3630   -4.7620   19.9600 O   0  0  0  0  0  0  0  0  0  0  0  0
    6.9000   -4.3120   21.6360 N   0  0  0  0  0  0  0  0  0  0  0  0
    6.5600   -5.5090   22.3510 C   0  0  0  0  0  0  0  0  0  0  0  0
    6.3060   -5.2140   23.8080 C   0  0  0  0  0  0  0  0  0  0  0  0
    6.0750   -3.7250   23.9570 C   0  0  0  0  0  0  0  0  0  0  0  0
    5.5980   -3.3840   25.3370 C   0  0  0  0  0  0  0  0  0  0  0  0
    4.4060   -3.6030   25.5610 O   0  0  0  0  0  0  0  0  0  0  0  0
    6.4770   -2.8300   26.2580 N   0  0  0  0  0  0  0  0  0  0  0  0
    5.9670   -2.1280   27.3890 C   0  0  0  0  0  0  0  0  0  0  0  0
    4.5880   -1.8860   27.5330 C   0  0  0  0  0  0  0  0  0  0  0  0
    3.8890   -1.0850   26.6270 C   0  0  0  0  0  0  0  0  0  0  0  0
    2.5200   -0.7690   26.6570 C   0  0  0  0  0  0  0  0  0  0  0  0
    1.7630   -1.3740   27.7970 C   0  0  0  0  0  0  0  0  0  0  0  0
    2.4640   -2.2590   28.8250 C   0  0  0  0  0  0  0  0  0  0  0  0
    1.7350   -2.8700   29.9670 C   0  0  0  0  0  0  0  0  0  0  0  0
    2.4110   -4.0370   30.2990 F   0  0  0  0  0  0  0  0  0  0  0  0
    0.4410   -3.1210   29.6080 F   0  0  0  0  0  0  0  0  0  0  0  0
    1.7880   -1.9440   31.0070 F   0  0  0  0  0  0  0  0  0  0  0  0
    3.9250   -2.4710   28.6130 C   0  0  0  0  0  0  0  0  0  0  0  0
    6.9000   -1.0870   27.9930 C   0  0  0  0  0  0  0  0  0  0  0  0
    6.1550   -0.5740   27.1640 C   0  0  0  0  0  0  0  0  0  0  0  0
    7.3730   -3.0610   23.6530 C   0  0  0  0  0  0  0  0  0  0  0  0
    7.6790   -3.2200   22.1950 C   0  0  0  0  0  0  0  0  0  0  0  0
  1  2  1  0
  2  3  2  0
  2  4  1  0
  4  5  1  0
  5  6  1  0
  6  7  1  0
  7  8  1  0
  8  9  2  0
  8 10  1  0
 11 10  1  0
 11 12  1  0
 12 13  2  0
 13 14  1  0
 14 15  2  0
 15 16  1  0
 16 17  1  0
 17 18  1  0
 17 19  1  0
 17 20  1  0
 12 21  1  0
 16 21  2  0
 11 22  1  0
 11 23  1  0
 22 23  1  0
  7 24  1  0
  4 25  1  0
 24 25  1  0
M  END
