piperidine-amides-2755-covalent
     RDKit          3D

 25 27  0  0  0  0  0  0  0  0999 V2000
    7.1240   -3.3580   19.2720 C   0  0  0  0  0  0  0  0  0  0  0  0
    6.3730   -4.1280   20.2450 C   0  0  0  0  0  0  0  0  0  0  0  0
    5.3100   -4.6490   19.9280 O   0  0  0  0  0  0  0  0  0  0  0  0
    6.9170   -4.3420   21.5520 N   0  0  0  0  0  0  0  0  0  0  0  0
    6.4470   -5.4400   22.3470 C   0  0  0  0  0  0  0  0  0  0  0  0
    5.7070   -4.9020   23.5420 C   0  0  0  0  0  0  0  0  0  0  0  0
    6.5820   -3.8540   24.2210 C   0  0  0  0  0  0  0  0  0  0  0  0
    5.8940   -3.2480   25.3910 C   0  0  0  0  0  0  0  0  0  0  0  0
    4.6870   -3.4350   25.6350 O   0  0  0  0  0  0  0  0  0  0  0  0
    6.6570   -2.4120   26.2370 N   0  0  0  0  0  0  0  0  0  0  0  0
    5.9920   -1.6610   27.2710 C   0  0  2  0  0  0  0  0  0  0  0  0
    5.6970   -0.3060   26.7260 C   0  0  0  0  0  0  0  0  0  0  0  0
    5.8760    0.6120   27.7180 C   0  0  0  0  0  0  0  0  0  0  0  0
    6.4020   -0.1120   28.8580 N   0  0  0  0  0  0  0  0  0  0  0  0
    7.2240    0.6530   29.7530 C   0  0  0  0  0  0  0  0  0  0  0  0
    7.1920    2.0490   29.7360 C   0  0  0  0  0  0  0  0  0  0  0  0
    8.0180    2.8670   30.6290 C   0  0  0  0  0  0  0  0  0  0  0  0
    8.9100    2.4370   31.5780 C   0  0  0  0  0  0  0  0  0  0  0  0
    9.6540    3.1530   32.3820 O   0  0  0  0  0  0  0  0  0  0  0  0
   10.8090    3.9750   32.5200 C   0  0  0  0  0  0  0  0  0  0  0  0
    8.9320    0.9330   31.5850 C   0  0  0  0  0  0  0  0  0  0  0  0
    8.1090    0.1190   30.6930 C   0  0  0  0  0  0  0  0  0  0  0  0
    6.6790   -1.4790   28.4910 C   0  0  0  0  0  0  0  0  0  0  0  0
    6.9550   -2.7380   23.2990 C   0  0  0  0  0  0  0  0  0  0  0  0
    7.6700   -3.2850   22.1280 C   0  0  0  0  0  0  0  0  0  0  0  0
  1  2  1  0
  2  3  2  0
  2  4  1  0
  4  5  1  0
  5  6  1  0
  6  7  1  0
  7  8  1  0
  8  9  2  0
  8 10  1  0
 11 10  1  6
 11 12  1  0
 12 13  1  0
 13 14  1  0
 14 15  1  0
 15 16  2  0
 16 17  1  0
 17 18  2  0
 18 19  1  0
 19 20  1  0
 18 21  1  0
 15 22  1  0
 21 22  2  0
 11 23  1  0
 14 23  1  0
  7 24  1  0
  4 25  1  0
 24 25  1  0
M  END
