piperidine-amides-12196-covalent
     RDKit          3D

 25 26  0  0  0  0  0  0  0  0999 V2000
    7.0840   -3.3060   19.2700 C   0  0  0  0  0  0  0  0  0  0  0  0
    6.3240   -4.0460   20.2710 C   0  0  0  0  0  0  0  0  0  0  0  0
    5.3130   -4.6590   19.9300 O   0  0  0  0  0  0  0  0  0  0  0  0
    6.7800   -4.1100   21.6380 N   0  0  0  0  0  0  0  0  0  0  0  0
    7.7350   -3.1370   22.1110 C   0  0  0  0  0  0  0  0  0  0  0  0
    7.5710   -2.9620   23.5830 C   0  0  0  0  0  0  0  0  0  0  0  0
    6.2160   -3.5500   23.9190 C   0  0  0  0  0  0  0  0  0  0  0  0
    5.8060   -3.2180   25.3110 C   0  0  0  0  0  0  0  0  0  0  0  0
    4.7450   -3.6490   25.8040 O   0  0  0  0  0  0  0  0  0  0  0  0
    6.6260   -2.3680   26.1070 N   0  0  0  0  0  0  0  0  0  0  0  0
    5.9520   -1.3360   26.8640 C   0  0  0  0  0  0  0  0  0  0  0  0
    6.9170   -0.6270   27.7900 C   0  0  0  0  0  0  0  0  0  0  0  0
    7.6080   -1.2930   28.7830 C   0  0  0  0  0  0  0  0  0  0  0  0
    8.5050   -0.6310   29.6360 C   0  0  0  0  0  0  0  0  0  0  0  0
    8.7500    0.7190   29.5430 C   0  0  0  0  0  0  0  0  0  0  0  0
    9.5520    1.2830   30.3090 O   0  0  0  0  0  0  0  0  0  0  0  0
   10.8680    0.9890   30.5940 C   0  0  0  0  0  0  0  0  0  0  0  0
    8.1050    1.4440   28.5980 C   0  0  0  0  0  0  0  0  0  0  0  0
    8.3570    2.8070   28.5200 O   0  0  0  0  0  0  0  0  0  0  0  0
    8.1190    3.4760   27.3050 C   0  0  0  0  0  0  0  0  0  0  0  0
    7.1410    0.7290   27.6780 C   0  0  0  0  0  0  0  0  0  0  0  0
    6.4550    1.4420   26.6930 O   0  0  0  0  0  0  0  0  0  0  0  0
    5.1310    1.6660   26.9710 C   0  0  0  0  0  0  0  0  0  0  0  0
    6.1290   -5.0470   23.6490 C   0  0  0  0  0  0  0  0  0  0  0  0
    6.6420   -5.3400   22.3800 C   0  0  0  0  0  0  0  0  0  0  0  0
  1  2  1  0
  2  3  2  0
  2  4  1  0
  4  5  1  0
  5  6  1  0
  6  7  1  0
  7  8  1  0
  8  9  2  0
  8 10  1  0
 10 11  1  0
 11 12  1  0
 12 13  2  0
 13 14  1  0
 14 15  2  0
 15 16  1  0
 16 17  1  0
 15 18  1  0
 18 19  1  0
 19 20  1  0
 12 21  1  0
 18 21  2  0
 21 22  1  0
 22 23  1  0
  7 24  1  0
  4 25  1  0
 24 25  1  0
M  END
