piperidine-amides-21490-covalent
     RDKit          3D

 23 25  0  0  0  0  0  0  0  0999 V2000
    7.0710   -3.3910   19.3940 C   0  0  0  0  0  0  0  0  0  0  0  0
    6.4060   -4.2370   20.3830 C   0  0  0  0  0  0  0  0  0  0  0  0
    5.3720   -4.8420   19.9870 O   0  0  0  0  0  0  0  0  0  0  0  0
    6.9440   -4.3940   21.6700 N   0  0  0  0  0  0  0  0  0  0  0  0
    6.6440   -5.5270   22.5010 C   0  0  0  0  0  0  0  0  0  0  0  0
    5.8470   -5.0460   23.6910 C   0  0  0  0  0  0  0  0  0  0  0  0
    6.4040   -3.8050   24.3740 C   0  0  0  0  0  0  0  0  0  0  0  0
    5.3810   -3.2160   25.2900 C   0  0  0  0  0  0  0  0  0  0  0  0
    4.4570   -2.5840   24.7490 O   0  0  0  0  0  0  0  0  0  0  0  0
    5.3350   -3.3110   26.7070 N   0  0  0  0  0  0  0  0  0  0  0  0
    4.1990   -2.9360   27.4460 C   0  0  0  0  0  0  0  0  0  0  0  0
    4.1970   -3.9070   28.5850 C   0  0  0  0  0  0  0  0  0  0  0  0
    5.2160   -4.6890   29.0110 C   0  0  0  0  0  0  0  0  0  0  0  0
    4.9440   -5.5290   30.0710 C   0  0  0  0  0  0  0  0  0  0  0  0
    4.0810   -5.0930   30.9730 N   0  0  0  0  0  0  0  0  0  0  0  0
    4.0420   -6.1210   31.8490 N   0  0  0  0  0  0  0  0  0  0  0  0
    4.8610   -7.1290   31.4520 N   0  0  0  0  0  0  0  0  0  0  0  0
    5.3970   -6.7000   30.3230 N   0  0  0  0  0  0  0  0  0  0  0  0
    6.3200   -7.2860   29.4000 C   0  0  0  0  0  0  0  0  0  0  0  0
    6.4000   -4.5530   28.3020 C   0  0  0  0  0  0  0  0  0  0  0  0
    6.4400   -3.3730   27.5290 C   0  0  0  0  0  0  0  0  0  0  0  0
    6.8050   -2.7230   23.3640 C   0  0  0  0  0  0  0  0  0  0  0  0
    7.6850   -3.3220   22.2740 C   0  0  0  0  0  0  0  0  0  0  0  0
  1  2  1  0
  2  3  2  0
  2  4  1  0
  4  5  1  0
  5  6  1  0
  6  7  1  0
  7  8  1  0
  8  9  2  0
  8 10  1  0
 10 11  1  0
 11 12  1  0
 12 13  2  0
 13 14  1  0
 14 15  2  0
 15 16  1  0
 16 17  2  0
 14 18  1  0
 17 18  1  0
 18 19  1  0
 13 20  1  0
 10 21  1  0
 20 21  1  0
  7 22  1  0
  4 23  1  0
 22 23  1  0
M  END
