piperidine-amides-726-covalent
     RDKit          3D

 25 27  0  0  0  0  0  0  0  0999 V2000
    7.0780   -3.3850   19.2690 C   0  0  0  0  0  0  0  0  0  0  0  0
    6.4260   -4.1420   20.3080 C   0  0  0  0  0  0  0  0  0  0  0  0
    5.3740   -4.7740   19.9800 O   0  0  0  0  0  0  0  0  0  0  0  0
    6.9450   -4.2640   21.6190 N   0  0  0  0  0  0  0  0  0  0  0  0
    6.6910   -5.5240   22.3300 C   0  0  0  0  0  0  0  0  0  0  0  0
    5.6710   -4.9600   23.3760 C   0  0  0  0  0  0  0  0  0  0  0  0
    6.4050   -3.8780   24.1450 C   0  0  0  0  0  0  0  0  0  0  0  0
    5.5370   -3.5770   25.4460 C   0  0  0  0  0  0  0  0  0  0  0  0
    4.5340   -4.2680   25.4110 O   0  0  0  0  0  0  0  0  0  0  0  0
    6.0380   -2.6960   26.2160 N   0  0  0  0  0  0  0  0  0  0  0  0
    6.3430   -1.7340   27.1290 C   0  0  0  0  0  0  0  0  0  0  0  0
    7.0080   -1.5810   28.3290 C   0  0  0  0  0  0  0  0  0  0  0  0
    7.1710   -0.4230   29.1100 C   0  0  0  0  0  0  0  0  0  0  0  0
    6.6660    0.9170   28.8350 C   0  0  0  0  0  0  0  0  0  0  0  0
    6.8090    2.0990   29.5860 N   0  0  0  0  0  0  0  0  0  0  0  0
    7.4060    2.2440   30.9110 C   0  0  0  0  0  0  0  0  0  0  0  0
    6.2830    2.6540   31.6360 C   0  0  0  0  0  0  0  0  0  0  0  0
    5.1500    1.8550   31.3980 C   0  0  0  0  0  0  0  0  0  0  0  0
    5.1920    3.2120   30.6850 C   0  0  0  0  0  0  0  0  0  0  0  0
    6.0050    3.1480   29.3500 C   0  0  0  0  0  0  0  0  0  0  0  0
    5.9300    0.7360   27.5060 C   0  0  0  0  0  0  0  0  0  0  0  0
    5.7550   -0.3790   26.7210 C   0  0  0  0  0  0  0  0  0  0  0  0
    5.0500   -0.2890   25.5690 F   0  0  0  0  0  0  0  0  0  0  0  0
    6.8570   -2.6880   23.3060 C   0  0  0  0  0  0  0  0  0  0  0  0
    7.6510   -3.2060   22.3070 C   0  0  0  0  0  0  0  0  0  0  0  0
  1  2  1  0
  2  3  2  0
  2  4  1  0
  4  5  1  0
  5  6  1  0
  6  7  1  0
  7  8  1  0
  8  9  2  0
  8 10  1  0
 10 11  1  0
 11 12  2  0
 12 13  1  0
 13 14  2  0
 14 15  1  0
 15 16  1  0
 16 17  1  0
 17 18  1  0
 18 19  1  0
 15 20  1  0
 19 20  1  0
 14 21  1  0
 11 22  1  0
 21 22  2  0
 22 23  1  0
  7 24  1  0
  4 25  1  0
 24 25  1  0
M  END
