piperidine-amides-21678-covalent
     RDKit          3D

 23 25  0  0  0  0  0  0  0  0999 V2000
    7.0640   -3.3470   19.3870 C   0  0  0  0  0  0  0  0  0  0  0  0
    6.4120   -4.2010   20.3820 C   0  0  0  0  0  0  0  0  0  0  0  0
    5.3880   -4.8220   19.9820 O   0  0  0  0  0  0  0  0  0  0  0  0
    6.9350   -4.3480   21.6780 N   0  0  0  0  0  0  0  0  0  0  0  0
    6.6320   -5.4790   22.4990 C   0  0  0  0  0  0  0  0  0  0  0  0
    5.8150   -5.0070   23.6780 C   0  0  0  0  0  0  0  0  0  0  0  0
    6.2900   -3.7160   24.3410 C   0  0  0  0  0  0  0  0  0  0  0  0
    5.2660   -3.2170   25.3400 C   0  0  0  0  0  0  0  0  0  0  0  0
    4.1940   -2.7940   24.8760 O   0  0  0  0  0  0  0  0  0  0  0  0
    5.4290   -3.1830   26.7690 N   0  0  0  0  0  0  0  0  0  0  0  0
    4.3800   -3.0290   27.7470 C   0  0  0  0  0  0  0  0  0  0  0  0
    4.8400   -3.6420   29.0860 C   0  0  0  0  0  0  0  0  0  0  0  0
    5.8880   -4.5040   29.1340 C   0  0  0  0  0  0  0  0  0  0  0  0
    6.3260   -4.9160   27.9320 C   0  0  1  0  0  0  0  0  0  0  0  0
    5.4300   -5.7360   27.3520 N   0  0  0  0  0  0  0  0  0  0  0  0
    4.5610   -6.6150   27.9030 C   0  0  0  0  0  0  0  0  0  0  0  0
    3.9020   -7.1420   26.8910 C   0  0  0  0  0  0  0  0  0  0  0  0
    2.9680   -7.9640   26.3020 C   0  0  0  0  0  0  0  0  0  0  0  0
    4.3020   -6.6470   25.5690 C   0  0  0  0  0  0  0  0  0  0  0  0
    5.3380   -5.7000   25.9550 N   0  0  0  0  0  0  0  0  0  0  0  0
    6.5640   -3.6660   27.3450 C   0  0  0  0  0  0  0  0  0  0  0  0
    6.6280   -2.6290   23.2930 C   0  0  0  0  0  0  0  0  0  0  0  0
    7.6410   -3.2670   22.3520 C   0  0  0  0  0  0  0  0  0  0  0  0
  1  2  1  0
  2  3  2  0
  2  4  1  0
  4  5  1  0
  5  6  1  0
  6  7  1  0
  7  8  1  0
  8  9  2  0
  8 10  1  0
 10 11  1  0
 11 12  1  0
 12 13  1  0
 13 14  1  0
 14 15  1  6
 15 16  1  0
 16 17  2  0
 17 18  1  0
 17 19  1  0
 15 20  1  0
 19 20  2  0
 10 21  1  0
 14 21  1  0
  7 22  1  0
  4 23  1  0
 22 23  1  0
M  END
