piperidine-amides-30815-covalent
     RDKit          3D

 27 28  0  0  0  0  0  0  0  0999 V2000
    7.1170   -3.2630   19.1660 C   0  0  0  0  0  0  0  0  0  0  0  0
    6.3580   -3.9880   20.1890 C   0  0  0  0  0  0  0  0  0  0  0  0
    5.2900   -4.5440   19.8810 O   0  0  0  0  0  0  0  0  0  0  0  0
    6.8470   -4.1090   21.4950 N   0  0  0  0  0  0  0  0  0  0  0  0
    7.7240   -3.1110   22.0620 C   0  0  0  0  0  0  0  0  0  0  0  0
    7.0180   -2.5950   23.2790 C   0  0  0  0  0  0  0  0  0  0  0  0
    6.6330   -3.7300   24.1660 C   0  0  0  0  0  0  0  0  0  0  0  0
    5.7460   -3.2730   25.2600 C   0  0  0  0  0  0  0  0  0  0  0  0
    4.7170   -2.5870   25.0010 O   0  0  0  0  0  0  0  0  0  0  0  0
    5.9790   -3.5750   26.6150 N   0  0  0  0  0  0  0  0  0  0  0  0
    6.4300   -2.5390   27.5220 C   0  0  0  0  0  0  0  0  0  0  0  0
    6.6690   -3.2390   28.8000 C   0  0  0  0  0  0  0  0  0  0  0  0
    5.5940   -4.1380   29.2570 C   0  0  0  0  0  0  0  0  0  0  0  0
    4.2680   -3.4650   29.5420 C   0  0  0  0  0  0  0  0  0  0  0  0
    3.9780   -2.4680   28.6490 O   0  0  0  0  0  0  0  0  0  0  0  0
    3.3470   -3.7550   30.6050 N   0  0  0  0  0  0  0  0  0  0  0  0
    2.8650   -2.4390   31.0470 C   0  0  0  0  0  0  0  0  0  0  0  0
    3.8860   -1.9090   31.9870 C   0  0  0  0  0  0  0  0  0  0  0  0
    3.3340   -0.7890   32.4540 N   0  0  0  0  0  0  0  0  0  0  0  0
    3.7850   -0.2040   33.6990 C   0  0  0  0  0  0  0  0  0  0  0  0
    5.0990   -0.3360   34.1770 C   0  0  0  0  0  0  0  0  0  0  0  0
    3.2020    0.3220   31.5690 C   0  0  0  0  0  0  0  0  0  0  0  0
    2.1810    1.3820   31.9930 C   0  0  0  0  0  0  0  0  0  0  0  0
    5.6680   -5.0720   28.1160 C   0  0  0  0  0  0  0  0  0  0  0  0
    5.1150   -4.5660   27.1770 C   0  0  0  0  0  0  0  0  0  0  0  0
    5.9900   -4.8950   23.5160 C   0  0  0  0  0  0  0  0  0  0  0  0
    6.5410   -5.2410   22.3040 C   0  0  0  0  0  0  0  0  0  0  0  0
  1  2  1  0
  2  3  2  0
  2  4  1  0
  4  5  1  0
  5  6  1  0
  6  7  1  0
  7  8  1  0
  8  9  2  0
  8 10  1  0
 10 11  1  0
 11 12  1  0
 12 13  1  0
 13 14  1  0
 14 15  2  0
 14 16  1  0
 16 17  1  0
 17 18  1  0
 18 19  1  0
 19 20  1  0
 20 21  1  0
 19 22  1  0
 22 23  1  0
 13 24  1  0
 10 25  1  0
 24 25  1  0
  7 26  1  0
  4 27  1  0
 26 27  1  0
M  END
