piperidine-amides-5168-covalent
     RDKit          3D

 22 23  0  0  0  0  0  0  0  0999 V2000
    7.0810   -3.2730   19.2210 C   0  0  0  0  0  0  0  0  0  0  0  0
    6.3350   -4.0580   20.2360 C   0  0  0  0  0  0  0  0  0  0  0  0
    5.2560   -4.5580   19.8740 O   0  0  0  0  0  0  0  0  0  0  0  0
    6.8470   -4.2690   21.5210 N   0  0  0  0  0  0  0  0  0  0  0  0
    7.5720   -3.2370   22.1670 C   0  0  0  0  0  0  0  0  0  0  0  0
    7.2320   -3.1490   23.5740 C   0  0  0  0  0  0  0  0  0  0  0  0
    5.8900   -3.6400   23.9120 C   0  0  0  0  0  0  0  0  0  0  0  0
    5.5940   -3.4260   25.3510 C   0  0  0  0  0  0  0  0  0  0  0  0
    4.4230   -3.1460   25.6630 O   0  0  0  0  0  0  0  0  0  0  0  0
    6.5870   -3.5230   26.3500 N   0  0  0  0  0  0  0  0  0  0  0  0
    6.7540   -4.6860   27.2650 C   0  0  0  0  0  0  0  0  0  0  0  0
    5.6780   -5.7010   27.1310 C   0  0  0  0  0  0  0  0  0  0  0  0
    4.9790   -6.1680   28.3260 C   0  0  0  0  0  0  0  0  0  0  0  0
    5.6960   -6.4980   29.4520 C   0  0  0  0  0  0  0  0  0  0  0  0
    6.7460   -5.9800   29.8340 O   0  0  0  0  0  0  0  0  0  0  0  0
    5.0270   -7.5350   30.1200 N   0  0  0  0  0  0  0  0  0  0  0  0
    3.5630   -7.5810   30.0910 C   0  0  0  0  0  0  0  0  0  0  0  0
    3.1190   -7.6710   31.3580 C   0  0  0  0  0  0  0  0  0  0  0  0
    4.1480   -7.6140   32.2120 C   0  0  0  0  0  0  0  0  0  0  0  0
    5.3570   -7.4660   31.6030 C   0  0  0  0  0  0  0  0  0  0  0  0
    5.7210   -5.0780   23.4830 C   0  0  0  0  0  0  0  0  0  0  0  0
    6.5580   -5.4500   22.3060 C   0  0  0  0  0  0  0  0  0  0  0  0
  1  2  1  0
  2  3  2  0
  2  4  1  0
  4  5  1  0
  5  6  1  0
  6  7  1  0
  7  8  1  0
  8  9  2  0
  8 10  1  0
 10 11  1  0
 11 12  1  0
 12 13  1  0
 13 14  1  0
 14 15  2  0
 14 16  1  0
 16 17  1  0
 17 18  1  0
 18 19  1  0
 16 20  1  0
 19 20  1  0
  7 21  1  0
  4 22  1  0
 21 22  1  0
M  END
