piperidine-amides-12139-covalent
     RDKit          3D

 25 26  0  0  0  0  0  0  0  0999 V2000
    7.0680   -3.2950   19.3200 C   0  0  0  0  0  0  0  0  0  0  0  0
    6.3510   -4.1040   20.3080 C   0  0  0  0  0  0  0  0  0  0  0  0
    5.3700   -4.7590   19.9590 O   0  0  0  0  0  0  0  0  0  0  0  0
    6.7960   -4.1730   21.6740 N   0  0  0  0  0  0  0  0  0  0  0  0
    6.6450   -5.4180   22.3870 C   0  0  0  0  0  0  0  0  0  0  0  0
    6.0380   -5.1680   23.7390 C   0  0  0  0  0  0  0  0  0  0  0  0
    6.0890   -3.6770   23.9750 C   0  0  0  0  0  0  0  0  0  0  0  0
    5.5960   -3.3340   25.3550 C   0  0  0  0  0  0  0  0  0  0  0  0
    4.3780   -3.2540   25.5970 O   0  0  0  0  0  0  0  0  0  0  0  0
    6.5060   -3.0800   26.4170 N   0  0  0  0  0  0  0  0  0  0  0  0
    6.3350   -3.7100   27.7270 C   0  0  2  0  0  0  0  0  0  0  0  0
    5.5890   -5.0140   27.6030 C   0  0  0  0  0  0  0  0  0  0  0  0
    5.3950   -5.4350   26.2990 O   0  0  0  0  0  0  0  0  0  0  0  0
    5.1120   -5.8040   28.6190 O   0  0  0  0  0  0  0  0  0  0  0  0
    5.1390   -7.2040   28.6150 C   0  0  0  0  0  0  0  0  0  0  0  0
    5.7840   -2.8300   28.7670 C   0  0  0  0  0  0  0  0  0  0  0  0
    6.4610   -1.7130   29.2400 C   0  0  0  0  0  0  0  0  0  0  0  0
    5.9470   -0.8410   30.2670 C   0  0  0  0  0  0  0  0  0  0  0  0
    4.7780   -0.9090   30.9500 C   0  0  0  0  0  0  0  0  0  0  0  0
    4.3090   -0.0710   31.9290 O   0  0  0  0  0  0  0  0  0  0  0  0
    5.2110    0.3480   32.9320 C   0  0  0  0  0  0  0  0  0  0  0  0
    4.0020   -2.1080   30.4690 C   0  0  0  0  0  0  0  0  0  0  0  0
    4.5450   -2.9900   29.4150 C   0  0  0  0  0  0  0  0  0  0  0  0
    7.4490   -3.1020   23.6350 C   0  0  0  0  0  0  0  0  0  0  0  0
    7.6010   -3.1040   22.2400 C   0  0  0  0  0  0  0  0  0  0  0  0
  1  2  1  0
  2  3  2  0
  2  4  1  0
  4  5  1  0
  5  6  1  0
  6  7  1  0
  7  8  1  0
  8  9  2  0
  8 10  1  0
 11 10  1  6
 11 12  1  0
 12 13  2  0
 12 14  1  0
 14 15  1  0
 11 16  1  0
 16 17  2  0
 17 18  1  0
 18 19  2  0
 19 20  1  0
 20 21  1  0
 19 22  1  0
 16 23  1  0
 22 23  2  0
  7 24  1  0
  4 25  1  0
 24 25  1  0
M  END
