piperidine-amides-11241-covalent
     RDKit          3D

 19 20  0  0  0  0  0  0  0  0999 V2000
    7.0710   -3.3380   19.2700 C   0  0  0  0  0  0  0  0  0  0  0  0
    6.3840   -4.1570   20.2710 C   0  0  0  0  0  0  0  0  0  0  0  0
    5.3480   -4.7660   19.9570 O   0  0  0  0  0  0  0  0  0  0  0  0
    6.9110   -4.3060   21.5610 N   0  0  0  0  0  0  0  0  0  0  0  0
    7.7730   -3.3160   22.1530 C   0  0  0  0  0  0  0  0  0  0  0  0
    6.9800   -2.7490   23.2770 C   0  0  0  0  0  0  0  0  0  0  0  0
    6.5490   -3.8360   24.2040 C   0  0  0  0  0  0  0  0  0  0  0  0
    5.8760   -3.2610   25.3820 C   0  0  0  0  0  0  0  0  0  0  0  0
    4.6120   -3.3540   25.5690 O   0  0  0  0  0  0  0  0  0  0  0  0
    6.6540   -2.5520   26.3200 N   0  0  0  0  0  0  0  0  0  0  0  0
    6.0750   -1.7840   27.4330 C   0  0  1  0  0  0  0  0  0  0  0  0
    5.0800   -2.6410   28.1180 C   0  0  0  0  0  0  0  0  0  0  0  0
    7.1360   -1.4250   28.4680 C   0  0  0  0  0  0  0  0  0  0  0  0
    6.4780   -0.2970   29.2270 C   0  0  0  0  0  0  0  0  0  0  0  0
    6.1970    0.9590   28.3930 C   0  0  0  0  0  0  0  0  0  0  0  0
    5.2150    0.7190   27.3880 O   0  0  0  0  0  0  0  0  0  0  0  0
    5.4290   -0.5580   26.9570 C   0  0  0  0  0  0  0  0  0  0  0  0
    5.7240   -4.8520   23.4510 C   0  0  0  0  0  0  0  0  0  0  0  0
    6.4380   -5.4040   22.3790 C   0  0  0  0  0  0  0  0  0  0  0  0
  1  2  1  0
  2  3  2  0
  2  4  1  0
  4  5  1  0
  5  6  1  0
  6  7  1  0
  7  8  1  0
  8  9  2  0
  8 10  1  0
 11 10  1  0
 11 12  1  1
 11 13  1  0
 13 14  1  0
 14 15  1  0
 15 16  1  0
 11 17  1  0
 16 17  1  0
  7 18  1  0
  4 19  1  0
 18 19  1  0
M  END
