piperidine-amides-31271-covalent
     RDKit          3D

 27 29  0  0  0  0  0  0  0  0999 V2000
    7.1470   -3.3460   19.4160 C   0  0  0  0  0  0  0  0  0  0  0  0
    6.4960   -4.2240   20.3740 C   0  0  0  0  0  0  0  0  0  0  0  0
    5.4810   -4.8960   19.9980 O   0  0  0  0  0  0  0  0  0  0  0  0
    6.9530   -4.3890   21.7020 N   0  0  0  0  0  0  0  0  0  0  0  0
    7.9510   -3.3930   22.1910 C   0  0  0  0  0  0  0  0  0  0  0  0
    7.5220   -3.1450   23.7010 C   0  0  0  0  0  0  0  0  0  0  0  0
    6.2640   -3.9480   23.8990 C   0  0  0  0  0  0  0  0  0  0  0  0
    5.3070   -3.4640   25.0820 C   0  0  0  0  0  0  0  0  0  0  0  0
    4.1860   -3.2710   24.6470 O   0  0  0  0  0  0  0  0  0  0  0  0
    5.9170   -3.3840   26.1850 N   0  0  0  0  0  0  0  0  0  0  0  0
    6.7740   -2.9610   27.2150 C   0  0  0  0  0  0  0  0  0  0  0  0
    7.0080   -3.1640   28.6360 C   0  0  0  0  0  0  0  0  0  0  0  0
    7.7770   -2.1370   29.2340 C   0  0  0  0  0  0  0  0  0  0  0  0
    7.5850   -4.5350   28.9820 C   0  0  0  0  0  0  0  0  0  0  0  0
    5.8140   -3.2040   29.3580 O   0  0  0  0  0  0  0  0  0  0  0  0
    5.4740   -3.6880   28.2150 C   0  0  0  0  0  0  0  0  0  0  0  0
    4.7260   -4.4790   29.1490 C   0  0  0  0  0  0  0  0  0  0  0  0
    3.7560   -5.5780   29.2340 C   0  0  0  0  0  0  0  0  0  0  0  0
    3.5860   -5.8720   27.7370 C   0  0  0  0  0  0  0  0  0  0  0  0
    2.6170   -6.9900   27.2250 C   0  0  0  0  0  0  0  0  0  0  0  0
    2.1040   -7.7330   28.2930 F   0  0  0  0  0  0  0  0  0  0  0  0
    1.5230   -6.5430   26.5670 F   0  0  0  0  0  0  0  0  0  0  0  0
    3.2950   -7.9240   26.4210 F   0  0  0  0  0  0  0  0  0  0  0  0
    4.3140   -5.1260   26.7500 C   0  0  0  0  0  0  0  0  0  0  0  0
    5.1370   -4.1660   27.0930 C   0  0  0  0  0  0  0  0  0  0  0  0
    6.4590   -5.4330   23.7120 C   0  0  0  0  0  0  0  0  0  0  0  0
    6.7830   -5.6540   22.3920 C   0  0  0  0  0  0  0  0  0  0  0  0
  1  2  1  0
  2  3  2  0
  2  4  1  0
  4  5  1  0
  5  6  1  0
  6  7  1  0
  7  8  1  0
  8  9  2  0
  8 10  1  0
 10 11  1  0
 11 12  1  0
 12 13  1  0
 12 14  1  0
 12 15  1  0
 15 16  1  0
 16 17  2  0
 17 18  1  0
 18 19  2  0
 19 20  1  0
 20 21  1  0
 20 22  1  0
 20 23  1  0
 19 24  1  0
 10 25  1  0
 16 25  1  0
 24 25  2  0
  7 26  1  0
  4 27  1  0
 26 27  1  0
M  END
