piperidine-amides-12460-covalent
     RDKit          3D

 24 26  0  0  0  0  0  0  0  0999 V2000
    7.0750   -3.3300   19.3120 C   0  0  0  0  0  0  0  0  0  0  0  0
    6.3810   -4.1640   20.2900 C   0  0  0  0  0  0  0  0  0  0  0  0
    5.3700   -4.7870   19.9660 O   0  0  0  0  0  0  0  0  0  0  0  0
    6.9110   -4.3030   21.6180 N   0  0  0  0  0  0  0  0  0  0  0  0
    7.7150   -3.2440   22.1790 C   0  0  0  0  0  0  0  0  0  0  0  0
    7.0510   -2.6750   23.3900 C   0  0  0  0  0  0  0  0  0  0  0  0
    6.5450   -3.8440   24.2040 C   0  0  0  0  0  0  0  0  0  0  0  0
    5.8020   -3.2990   25.3700 C   0  0  0  0  0  0  0  0  0  0  0  0
    4.5600   -3.1960   25.3860 O   0  0  0  0  0  0  0  0  0  0  0  0
    6.5380   -2.8720   26.4990 N   0  0  0  0  0  0  0  0  0  0  0  0
    6.3880   -1.5190   26.9710 C   0  0  0  0  0  0  0  0  0  0  0  0
    6.9570   -1.1610   28.2570 C   0  0  0  0  0  0  0  0  0  0  0  0
    6.7210    0.1250   28.5490 N   0  0  0  0  0  0  0  0  0  0  0  0
    6.0120    0.6110   27.4740 N   0  0  0  0  0  0  0  0  0  0  0  0
    5.5030    1.9750   27.3080 C   0  0  0  0  0  0  0  0  0  0  0  0
    6.5980    2.7560   26.9110 C   0  0  0  0  0  0  0  0  0  0  0  0
    7.3570    3.3380   27.9240 C   0  0  0  0  0  0  0  0  0  0  0  0
    8.4980    4.1560   27.6730 C   0  0  0  0  0  0  0  0  0  0  0  0
    8.8630    4.3810   26.4130 C   0  0  0  0  0  0  0  0  0  0  0  0
    8.1850    3.8580   25.3500 C   0  0  0  0  0  0  0  0  0  0  0  0
    7.0000    3.0100   25.6070 N   0  0  0  0  0  0  0  0  0  0  0  0
    5.8180   -0.3930   26.5230 C   0  0  0  0  0  0  0  0  0  0  0  0
    5.7720   -4.8550   23.4940 C   0  0  0  0  0  0  0  0  0  0  0  0
    6.5410   -5.3950   22.4750 C   0  0  0  0  0  0  0  0  0  0  0  0
  1  2  1  0
  2  3  2  0
  2  4  1  0
  4  5  1  0
  5  6  1  0
  6  7  1  0
  7  8  1  0
  8  9  2  0
  8 10  1  0
 10 11  1  0
 11 12  1  0
 12 13  2  0
 13 14  1  0
 14 15  1  0
 15 16  1  0
 16 17  2  0
 17 18  1  0
 18 19  2  0
 19 20  1  0
 16 21  1  0
 20 21  2  0
 11 22  2  0
 14 22  1  0
  7 23  1  0
  4 24  1  0
 23 24  1  0
M  END
