piperidine-amides-31884-covalent
     RDKit          3D

 27 30  0  0  0  0  0  0  0  0999 V2000
    7.1100   -3.3640   19.4740 C   0  0  0  0  0  0  0  0  0  0  0  0
    6.4420   -4.2250   20.4250 C   0  0  0  0  0  0  0  0  0  0  0  0
    5.4560   -4.9200   20.0070 O   0  0  0  0  0  0  0  0  0  0  0  0
    6.8660   -4.3410   21.7720 N   0  0  0  0  0  0  0  0  0  0  0  0
    7.7480   -3.3100   22.3470 C   0  0  0  0  0  0  0  0  0  0  0  0
    6.7280   -2.6470   23.3470 C   0  0  0  0  0  0  0  0  0  0  0  0
    6.2240   -3.7390   24.2780 C   0  0  0  0  0  0  0  0  0  0  0  0
    4.9800   -3.2190   25.1570 C   0  0  0  0  0  0  0  0  0  0  0  0
    3.9980   -3.1640   24.4460 O   0  0  0  0  0  0  0  0  0  0  0  0
    5.2600   -2.9800   26.3900 N   0  0  0  0  0  0  0  0  0  0  0  0
    5.2170   -2.5790   27.6920 C   0  0  0  0  0  0  0  0  0  0  0  0
    5.1180   -3.2220   28.8860 C   0  0  0  0  0  0  0  0  0  0  0  0
    5.2660   -4.5950   28.4850 N   0  0  0  0  0  0  0  0  0  0  0  0
    5.0350   -5.6310   29.2930 C   0  0  0  0  0  0  0  0  0  0  0  0
    5.9520   -6.5890   29.3410 N   0  0  0  0  0  0  0  0  0  0  0  0
    5.9250   -7.7040   30.0700 C   0  0  0  0  0  0  0  0  0  0  0  0
    4.8330   -7.8780   30.8660 N   0  0  0  0  0  0  0  0  0  0  0  0
    3.7470   -6.8910   30.9060 C   0  0  0  0  0  0  0  0  0  0  0  0
    2.6430   -6.9230   31.6150 N   0  0  0  0  0  0  0  0  0  0  0  0
    2.0040   -5.8080   31.2910 C   0  0  0  0  0  0  0  0  0  0  0  0
    2.4760   -4.8210   30.3560 C   0  0  0  0  0  0  0  0  0  0  0  0
    1.8000   -3.3060   29.7960 Cl  0  0  0  0  0  0  0  0  0  0  0  0
    3.7710   -5.6660   30.0990 C   0  0  0  0  0  0  0  0  0  0  0  0
    6.3470   -4.6070   27.7080 C   0  0  0  0  0  0  0  0  0  0  0  0
    6.4530   -3.4070   26.9990 C   0  0  0  0  0  0  0  0  0  0  0  0
    5.8830   -5.1100   23.6560 C   0  0  0  0  0  0  0  0  0  0  0  0
    6.6000   -5.5040   22.5600 C   0  0  0  0  0  0  0  0  0  0  0  0
  1  2  1  0
  2  3  2  0
  2  4  1  0
  4  5  1  0
  5  6  1  0
  6  7  1  0
  7  8  1  0
  8  9  2  0
  8 10  1  0
 10 11  1  0
 11 12  1  0
 12 13  1  0
 13 14  1  0
 14 15  2  0
 15 16  1  0
 16 17  2  0
 17 18  1  0
 18 19  1  0
 19 20  1  0
 20 21  2  0
 21 22  1  0
 14 23  1  0
 18 23  2  0
 21 23  1  0
 13 24  1  0
 10 25  1  0
 24 25  1  0
  7 26  1  0
  4 27  1  0
 26 27  1  0
M  END
