piperidine-amides-1404-covalent
     RDKit          3D

 22 23  0  0  0  0  0  0  0  0999 V2000
    7.0810   -3.2760   19.2880 C   0  0  0  0  0  0  0  0  0  0  0  0
    6.3440   -4.0920   20.2960 C   0  0  0  0  0  0  0  0  0  0  0  0
    5.3200   -4.6980   19.9350 O   0  0  0  0  0  0  0  0  0  0  0  0
    6.8300   -4.1980   21.6210 N   0  0  0  0  0  0  0  0  0  0  0  0
    6.7160   -5.4290   22.3760 C   0  0  0  0  0  0  0  0  0  0  0  0
    6.0620   -5.1210   23.7350 C   0  0  0  0  0  0  0  0  0  0  0  0
    6.0960   -3.6490   23.9410 C   0  0  0  0  0  0  0  0  0  0  0  0
    5.6200   -3.2240   25.2800 C   0  0  0  0  0  0  0  0  0  0  0  0
    4.3940   -3.1830   25.4280 O   0  0  0  0  0  0  0  0  0  0  0  0
    6.5160   -2.8940   26.3030 N   0  0  0  0  0  0  0  0  0  0  0  0
    6.2610   -2.9540   27.7000 C   0  0  0  0  0  0  0  0  0  0  0  0
    6.4680   -1.8960   28.5640 C   0  0  0  0  0  0  0  0  0  0  0  0
    6.0430   -1.5900   29.8260 C   0  0  0  0  0  0  0  0  0  0  0  0
    6.6210   -0.4190   30.0780 C   0  0  0  0  0  0  0  0  0  0  0  0
    6.4610    0.3380   31.3550 C   0  0  0  0  0  0  0  0  0  0  0  0
    7.6930    0.3610   32.2820 C   0  0  0  0  0  0  0  0  0  0  0  0
    8.8040    0.3910   31.2320 C   0  0  0  0  0  0  0  0  0  0  0  0
    7.7300    1.4180   33.2010 C   0  0  0  0  0  0  0  0  0  0  0  0
    7.3860    0.1110   29.1360 O   0  0  0  0  0  0  0  0  0  0  0  0
    7.3260   -0.7840   28.1240 N   0  0  0  0  0  0  0  0  0  0  0  0
    7.4090   -3.0310   23.6390 C   0  0  0  0  0  0  0  0  0  0  0  0
    7.6640   -3.1310   22.1510 C   0  0  0  0  0  0  0  0  0  0  0  0
  1  2  1  0
  2  3  2  0
  2  4  1  0
  4  5  1  0
  5  6  1  0
  6  7  1  0
  7  8  1  0
  8  9  2  0
  8 10  1  0
 10 11  1  0
 11 12  1  0
 12 13  1  0
 13 14  2  0
 14 15  1  0
 15 16  1  0
 16 17  1  0
 16 18  1  0
 14 19  1  0
 12 20  2  0
 19 20  1  0
  7 21  1  0
  4 22  1  0
 21 22  1  0
M  END
