piperidine-amides-4543-covalent
     RDKit          3D

 25 28  0  0  0  0  0  0  0  0999 V2000
    7.0530   -3.3400   19.3430 C   0  0  0  0  0  0  0  0  0  0  0  0
    6.3990   -4.1990   20.3570 C   0  0  0  0  0  0  0  0  0  0  0  0
    5.3870   -4.8260   19.9790 O   0  0  0  0  0  0  0  0  0  0  0  0
    6.9340   -4.3240   21.6540 N   0  0  0  0  0  0  0  0  0  0  0  0
    6.5800   -5.4360   22.4690 C   0  0  0  0  0  0  0  0  0  0  0  0
    6.0290   -5.0270   23.7630 C   0  0  0  0  0  0  0  0  0  0  0  0
    5.9520   -3.5580   23.9450 C   0  0  0  0  0  0  0  0  0  0  0  0
    5.6110   -3.2060   25.3420 C   0  0  0  0  0  0  0  0  0  0  0  0
    4.4200   -3.2690   25.6950 O   0  0  0  0  0  0  0  0  0  0  0  0
    6.6110   -2.8020   26.2350 N   0  0  0  0  0  0  0  0  0  0  0  0
    6.5100   -1.5980   27.0900 C   0  0  0  0  0  0  0  0  0  0  0  0
    5.9180   -0.3530   26.5630 C   0  0  0  0  0  0  0  0  0  0  0  0
    5.8330    0.8030   27.4300 C   0  0  0  0  0  0  0  0  0  0  0  0
    6.3250    0.6340   28.7060 C   0  0  0  0  0  0  0  0  0  0  0  0
    6.9040   -0.5440   29.2470 C   0  0  0  0  0  0  0  0  0  0  0  0
    6.9980   -1.6530   28.4490 C   0  0  0  0  0  0  0  0  0  0  0  0
    7.2800   -0.3760   30.5130 O   0  0  0  0  0  0  0  0  0  0  0  0
    6.9500    0.9330   30.8390 C   0  0  0  0  0  0  0  0  0  0  0  0
    7.1860    1.4670   32.0640 C   0  0  0  0  0  0  0  0  0  0  0  0
    6.8220    2.7900   32.3060 C   0  0  0  0  0  0  0  0  0  0  0  0
    6.1830    3.6300   31.2600 C   0  0  0  0  0  0  0  0  0  0  0  0
    5.9260    3.0180   29.8960 C   0  0  0  0  0  0  0  0  0  0  0  0
    6.3780    1.5870   29.8030 C   0  0  0  0  0  0  0  0  0  0  0  0
    7.1030   -2.7680   23.4850 C   0  0  0  0  0  0  0  0  0  0  0  0
    7.7740   -3.2930   22.2410 C   0  0  0  0  0  0  0  0  0  0  0  0
  1  2  1  0
  2  3  2  0
  2  4  1  0
  4  5  1  0
  5  6  1  0
  6  7  1  0
  7  8  1  0
  8  9  2  0
  8 10  1  0
 10 11  1  0
 11 12  2  0
 12 13  1  0
 13 14  2  0
 14 15  1  0
 11 16  1  0
 15 16  2  0
 15 17  1  0
 17 18  1  0
 18 19  1  0
 19 20  2  0
 20 21  1  0
 21 22  2  0
 14 23  1  0
 18 23  2  0
 22 23  1  0
  7 24  1  0
  4 25  1  0
 24 25  1  0
M  END
