piperidine-amides-5571-covalent
     RDKit          3D

 19 20  0  0  0  0  0  0  0  0999 V2000
    7.0480   -3.3390   19.3120 C   0  0  0  0  0  0  0  0  0  0  0  0
    6.3760   -4.1510   20.3310 C   0  0  0  0  0  0  0  0  0  0  0  0
    5.4000   -4.8460   19.9890 O   0  0  0  0  0  0  0  0  0  0  0  0
    6.8470   -4.1820   21.6590 N   0  0  0  0  0  0  0  0  0  0  0  0
    7.7280   -3.1420   22.1520 C   0  0  0  0  0  0  0  0  0  0  0  0
    7.4650   -3.0300   23.6190 C   0  0  0  0  0  0  0  0  0  0  0  0
    6.1100   -3.5690   23.9360 C   0  0  0  0  0  0  0  0  0  0  0  0
    5.6510   -3.2580   25.3100 C   0  0  0  0  0  0  0  0  0  0  0  0
    4.4190   -3.3040   25.5910 O   0  0  0  0  0  0  0  0  0  0  0  0
    6.5240   -2.8970   26.3610 N   0  0  0  0  0  0  0  0  0  0  0  0
    6.4810   -1.5400   26.9660 C   0  0  2  0  0  0  0  0  0  0  0  0
    6.4900   -1.8180   28.4160 C   0  0  0  0  0  0  0  0  0  0  0  0
    6.8430   -0.7010   29.2880 C   0  0  0  0  0  0  0  0  0  0  0  0
    6.1580    0.5570   29.0070 N   0  0  0  0  0  0  0  0  0  0  0  0
    6.0200    0.5450   27.5150 C   0  0  0  0  0  0  0  0  0  0  0  0
    6.4000    1.6310   26.7670 O   0  0  0  0  0  0  0  0  0  0  0  0
    5.4230   -0.6230   26.7340 C   0  0  0  0  0  0  0  0  0  0  0  0
    6.0910   -5.0400   23.6800 C   0  0  0  0  0  0  0  0  0  0  0  0
    6.5430   -5.3700   22.4200 C   0  0  0  0  0  0  0  0  0  0  0  0
  1  2  1  0
  2  3  2  0
  2  4  1  0
  4  5  1  0
  5  6  1  0
  6  7  1  0
  7  8  1  0
  8  9  2  0
  8 10  1  0
 11 10  1  6
 11 12  1  0
 12 13  1  0
 13 14  1  0
 14 15  1  0
 15 16  2  0
 11 17  1  0
 15 17  1  0
  7 18  1  0
  4 19  1  0
 18 19  1  0
M  END
