piperidine-amides-8793-covalent
     RDKit          3D

 22 23  0  0  0  0  0  0  0  0999 V2000
    7.1070   -3.2660   19.2360 C   0  0  0  0  0  0  0  0  0  0  0  0
    6.3690   -4.0410   20.2360 C   0  0  0  0  0  0  0  0  0  0  0  0
    5.2970   -4.5650   19.8920 O   0  0  0  0  0  0  0  0  0  0  0  0
    6.8940   -4.2360   21.5410 N   0  0  0  0  0  0  0  0  0  0  0  0
    6.4740   -5.3940   22.2670 C   0  0  0  0  0  0  0  0  0  0  0  0
    5.6070   -4.9570   23.4080 C   0  0  0  0  0  0  0  0  0  0  0  0
    6.4420   -4.0100   24.2320 C   0  0  0  0  0  0  0  0  0  0  0  0
    5.5970   -3.4060   25.3180 C   0  0  0  0  0  0  0  0  0  0  0  0
    4.7960   -2.5490   24.9570 O   0  0  0  0  0  0  0  0  0  0  0  0
    5.7490   -3.8480   26.6340 N   0  0  0  0  0  0  0  0  0  0  0  0
    6.4010   -3.0680   27.6310 C   0  0  0  0  0  0  0  0  0  0  0  0
    5.5960   -2.2460   28.4280 C   0  0  0  0  0  0  0  0  0  0  0  0
    6.2160   -1.4230   29.4080 N   0  0  0  0  0  0  0  0  0  0  0  0
    5.2750   -0.6830   30.0920 C   0  0  0  0  0  0  0  0  0  0  0  0
    5.5180    0.2280   31.1120 C   0  0  0  0  0  0  0  0  0  0  0  0
    4.3920    0.4270   31.8930 O   0  0  0  0  0  0  0  0  0  0  0  0
    4.1590    1.7510   32.1780 C   0  0  0  0  0  0  0  0  0  0  0  0
    5.2760    2.7800   32.4650 C   0  0  0  0  0  0  0  0  0  0  0  0
    4.0680   -1.0600   29.5270 N   0  0  0  0  0  0  0  0  0  0  0  0
    4.2530   -1.9820   28.5470 O   0  0  0  0  0  0  0  0  0  0  0  0
    7.0240   -2.8560   23.4940 C   0  0  0  0  0  0  0  0  0  0  0  0
    7.5910   -3.1420   22.1370 C   0  0  0  0  0  0  0  0  0  0  0  0
  1  2  1  0
  2  3  2  0
  2  4  1  0
  4  5  1  0
  5  6  1  0
  6  7  1  0
  7  8  1  0
  8  9  2  0
  8 10  1  0
 10 11  1  0
 11 12  1  0
 12 13  2  0
 13 14  1  0
 14 15  1  0
 15 16  1  0
 16 17  1  0
 17 18  1  0
 14 19  2  0
 12 20  1  0
 19 20  1  0
  7 21  1  0
  4 22  1  0
 21 22  1  0
M  END
