piperidine-amides-14162-covalent
     RDKit          3D

 24 27  0  0  0  0  0  0  0  0999 V2000
    7.0940   -3.2980   19.2780 C   0  0  0  0  0  0  0  0  0  0  0  0
    6.3160   -4.0700   20.2840 C   0  0  0  0  0  0  0  0  0  0  0  0
    5.2730   -4.6330   19.9160 O   0  0  0  0  0  0  0  0  0  0  0  0
    6.8010   -4.1890   21.6080 N   0  0  0  0  0  0  0  0  0  0  0  0
    6.6650   -5.4390   22.3310 C   0  0  0  0  0  0  0  0  0  0  0  0
    6.0680   -5.1240   23.7060 C   0  0  0  0  0  0  0  0  0  0  0  0
    6.1170   -3.6450   23.8640 C   0  0  0  0  0  0  0  0  0  0  0  0
    5.6330   -3.1630   25.1840 C   0  0  0  0  0  0  0  0  0  0  0  0
    4.4340   -2.8630   25.2300 O   0  0  0  0  0  0  0  0  0  0  0  0
    6.4830   -3.0570   26.2920 N   0  0  0  0  0  0  0  0  0  0  0  0
    6.1860   -3.4110   27.6430 C   0  0  0  0  0  0  0  0  0  0  0  0
    4.9150   -3.6300   28.1300 C   0  0  0  0  0  0  0  0  0  0  0  0
    3.9740   -2.5290   27.8970 N   0  0  0  0  0  0  0  0  0  0  0  0
    2.8130   -2.9120   28.4290 N   0  0  0  0  0  0  0  0  0  0  0  0
    3.0590   -4.2250   28.9730 C   0  0  0  0  0  0  0  0  0  0  0  0
    2.1060   -4.9820   29.6210 C   0  0  0  0  0  0  0  0  0  0  0  0
    0.8840   -5.0530   29.0610 C   0  0  0  0  0  0  0  0  0  0  0  0
    1.7520   -6.3290   29.0390 C   0  0  0  0  0  0  0  0  0  0  0  0
    4.3110   -4.6430   28.7900 N   0  0  0  0  0  0  0  0  0  0  0  0
    4.8630   -5.8940   29.2150 C   0  0  0  0  0  0  0  0  0  0  0  0
    4.6920   -6.9190   28.5080 C   0  0  0  0  0  0  0  0  0  0  0  0
    6.1340   -6.5500   28.5750 C   0  0  0  0  0  0  0  0  0  0  0  0
    7.4370   -3.0370   23.5300 C   0  0  0  0  0  0  0  0  0  0  0  0
    7.6480   -3.1660   22.1850 C   0  0  0  0  0  0  0  0  0  0  0  0
  1  2  1  0
  2  3  2  0
  2  4  1  0
  4  5  1  0
  5  6  1  0
  6  7  1  0
  7  8  1  0
  8  9  2  0
  8 10  1  0
 10 11  1  0
 11 12  1  0
 12 13  2  0
 13 14  1  0
 14 15  2  0
 15 16  1  0
 16 17  1  0
 16 18  1  0
 17 18  1  0
 12 19  1  0
 15 19  1  0
 19 20  1  0
 20 21  1  0
 20 22  1  0
 21 22  1  0
  7 23  1  0
  4 24  1  0
 23 24  1  0
M  END
