piperidine-amides-23462-covalent
     RDKit          3D

 24 26  0  0  0  0  0  0  0  0999 V2000
    7.1050   -3.2640   19.1640 C   0  0  0  0  0  0  0  0  0  0  0  0
    6.3340   -3.9840   20.1960 C   0  0  0  0  0  0  0  0  0  0  0  0
    5.2430   -4.4850   19.8490 O   0  0  0  0  0  0  0  0  0  0  0  0
    6.8270   -4.1550   21.5090 N   0  0  0  0  0  0  0  0  0  0  0  0
    7.6050   -3.1110   22.0850 C   0  0  0  0  0  0  0  0  0  0  0  0
    7.3570   -2.8720   23.4930 C   0  0  0  0  0  0  0  0  0  0  0  0
    6.6890   -3.9770   24.2090 C   0  0  0  0  0  0  0  0  0  0  0  0
    5.9820   -3.4440   25.4120 C   0  0  0  0  0  0  0  0  0  0  0  0
    4.7440   -3.1990   25.4030 O   0  0  0  0  0  0  0  0  0  0  0  0
    6.7290   -3.2310   26.5870 N   0  0  0  0  0  0  0  0  0  0  0  0
    7.1480   -4.2880   27.4240 C   0  0  0  0  0  0  0  0  0  0  0  0
    6.1670   -5.3100   27.7890 C   0  0  0  0  0  0  0  0  0  0  0  0
    6.6840   -6.1880   28.8860 C   0  0  0  0  0  0  0  0  0  0  0  0
    5.9770   -7.2160   29.4260 C   0  0  0  0  0  0  0  0  0  0  0  0
    4.5610   -7.5190   28.8940 C   0  0  0  0  0  0  0  0  0  0  0  0
    4.0150   -6.6380   27.7730 C   0  0  0  0  0  0  0  0  0  0  0  0
    2.7330   -6.8980   27.2810 O   0  0  0  0  0  0  0  0  0  0  0  0
    4.8570   -5.4730   27.1880 C   0  0  0  0  0  0  0  0  0  0  0  0
    7.1160   -1.9860   27.1640 C   0  0  0  0  0  0  0  0  0  0  0  0
    6.3810   -1.5750   28.4310 C   0  0  0  0  0  0  0  0  0  0  0  0
    6.2980   -0.2270   28.7710 C   0  0  0  0  0  0  0  0  0  0  0  0
    7.1230   -1.1310   29.7350 C   0  0  0  0  0  0  0  0  0  0  0  0
    5.7950   -4.8220   23.3560 C   0  0  0  0  0  0  0  0  0  0  0  0
    6.4910   -5.3230   22.2740 C   0  0  0  0  0  0  0  0  0  0  0  0
  1  2  1  0
  2  3  2  0
  2  4  1  0
  4  5  1  0
  5  6  1  0
  6  7  1  0
  7  8  1  0
  8  9  2  0
  8 10  1  0
 10 11  1  0
 11 12  1  0
 12 13  2  0
 13 14  1  0
 14 15  2  0
 15 16  1  0
 16 17  1  0
 12 18  1  0
 16 18  2  0
 10 19  1  0
 19 20  1  0
 20 21  1  0
 20 22  1  0
 21 22  1  0
  7 23  1  0
  4 24  1  0
 23 24  1  0
M  END
