piperidine-amides-31616-covalent
     RDKit          3D

 28 30  0  0  0  0  0  0  0  0999 V2000
    6.9920   -3.4580   19.4180 C   0  0  0  0  0  0  0  0  0  0  0  0
    6.3020   -4.2570   20.4080 C   0  0  0  0  0  0  0  0  0  0  0  0
    5.3450   -4.9760   19.9990 O   0  0  0  0  0  0  0  0  0  0  0  0
    6.6670   -4.3110   21.7720 N   0  0  0  0  0  0  0  0  0  0  0  0
    6.6000   -5.6540   22.4230 C   0  0  0  0  0  0  0  0  0  0  0  0
    5.9000   -5.3860   23.8330 C   0  0  0  0  0  0  0  0  0  0  0  0
    6.0250   -3.9160   24.1030 C   0  0  0  0  0  0  0  0  0  0  0  0
    5.3240   -3.3540   25.4450 C   0  0  0  0  0  0  0  0  0  0  0  0
    4.4220   -2.6120   25.0950 O   0  0  0  0  0  0  0  0  0  0  0  0
    5.8290   -3.7760   26.5590 N   0  0  0  0  0  0  0  0  0  0  0  0
    6.6320   -3.9170   27.6260 C   0  0  0  0  0  0  0  0  0  0  0  0
    7.3230   -4.9520   28.1990 C   0  0  0  0  0  0  0  0  0  0  0  0
    6.3640   -5.7000   28.8410 C   0  0  0  0  0  0  0  0  0  0  0  0
    5.0750   -5.3920   28.2140 C   0  0  0  0  0  0  0  0  0  0  0  0
    4.1530   -6.3060   29.0230 C   0  0  0  0  0  0  0  0  0  0  0  0
    2.8300   -6.1380   28.5390 C   0  0  0  0  0  0  0  0  0  0  0  0
    1.8510   -6.9270   29.1820 C   0  0  0  0  0  0  0  0  0  0  0  0
    2.2630   -5.7040   30.0110 C   0  0  0  0  0  0  0  0  0  0  0  0
    1.4080   -5.6260   31.3210 C   0  0  0  0  0  0  0  0  0  0  0  0
    1.9400   -5.8100   32.4420 O   0  0  0  0  0  0  0  0  0  0  0  0
    0.1770   -5.3830   31.2600 O   0  0  0  0  0  0  0  0  0  0  0  0
   -0.6390   -5.0870   32.3850 C   0  0  0  0  0  0  0  0  0  0  0  0
    2.4530   -5.2730   27.4960 C   0  0  0  0  0  0  0  0  0  0  0  0
    1.1430   -5.2200   27.1450 C   0  0  0  0  0  0  0  0  0  0  0  0
    3.3810   -4.4420   26.7820 N   0  0  0  0  0  0  0  0  0  0  0  0
    4.7510   -4.5380   27.1860 C   0  0  0  0  0  0  0  0  0  0  0  0
    7.3080   -3.2960   23.7640 C   0  0  0  0  0  0  0  0  0  0  0  0
    7.5330   -3.2820   22.2950 C   0  0  0  0  0  0  0  0  0  0  0  0
  1  2  1  0
  2  3  2  0
  2  4  1  0
  4  5  1  0
  5  6  1  0
  6  7  1  0
  7  8  1  0
  8  9  2  0
  8 10  1  0
 10 11  1  0
 11 12  1  0
 12 13  1  0
 13 14  1  0
 14 15  2  0
 15 16  1  0
 16 17  1  0
 17 18  1  0
 18 19  1  0
 19 20  2  0
 19 21  1  0
 21 22  1  0
 16 23  2  0
 23 24  1  0
 23 25  1  0
 10 26  1  0
 14 26  1  0
 25 26  2  0
  7 27  1  0
  4 28  1  0
 27 28  1  0
M  END
