piperidine-amides-19288-covalent
     RDKit          3D

 22 24  0  0  0  0  0  0  0  0999 V2000
    7.1400   -3.3240   19.4110 C   0  0  0  0  0  0  0  0  0  0  0  0
    6.4240   -4.1710   20.3400 C   0  0  0  0  0  0  0  0  0  0  0  0
    5.3420   -4.7100   19.9440 O   0  0  0  0  0  0  0  0  0  0  0  0
    6.9040   -4.4640   21.6350 N   0  0  0  0  0  0  0  0  0  0  0  0
    6.3830   -5.6810   22.2820 C   0  0  0  0  0  0  0  0  0  0  0  0
    5.3860   -5.0220   23.3130 C   0  0  0  0  0  0  0  0  0  0  0  0
    6.2400   -4.0670   24.1160 C   0  0  0  0  0  0  0  0  0  0  0  0
    5.5440   -3.6260   25.4820 C   0  0  0  0  0  0  0  0  0  0  0  0
    5.7410   -2.4350   25.6700 O   0  0  0  0  0  0  0  0  0  0  0  0
    4.9320   -4.6000   26.0550 N   0  0  0  0  0  0  0  0  0  0  0  0
    3.9870   -5.3760   26.5650 C   0  0  0  0  0  0  0  0  0  0  0  0
    4.4590   -5.9410   27.6110 C   0  0  0  0  0  0  0  0  0  0  0  0
    4.2080   -5.3090   28.8430 O   0  0  0  0  0  0  0  0  0  0  0  0
    3.5220   -5.9740   29.8370 C   0  0  0  0  0  0  0  0  0  0  0  0
    3.5980   -7.4510   29.8830 C   0  0  0  0  0  0  0  0  0  0  0  0
    2.7360   -7.9680   31.1120 C   0  0  0  0  0  0  0  0  0  0  0  0
    2.0590   -7.0070   31.9350 C   0  0  0  0  0  0  0  0  0  0  0  0
    2.0700   -5.6190   31.7800 N   0  0  0  0  0  0  0  0  0  0  0  0
    2.8050   -5.0570   30.7210 C   0  0  0  0  0  0  0  0  0  0  0  0
    5.7790   -5.3700   27.0690 C   0  0  0  0  0  0  0  0  0  0  0  0
    6.7850   -2.9550   23.2620 C   0  0  0  0  0  0  0  0  0  0  0  0
    7.6800   -3.5270   22.4030 C   0  0  0  0  0  0  0  0  0  0  0  0
  1  2  1  0
  2  3  2  0
  2  4  1  0
  4  5  1  0
  5  6  1  0
  6  7  1  0
  7  8  1  0
  8  9  2  0
  8 10  1  0
 10 11  1  0
 11 12  1  0
 12 13  1  0
 13 14  1  0
 14 15  2  0
 15 16  1  0
 16 17  2  0
 17 18  1  0
 14 19  1  0
 18 19  2  0
 10 20  1  0
 12 20  1  0
  7 21  1  0
  4 22  1  0
 21 22  1  0
M  END
