piperidine-amides-12214-covalent
     RDKit          3D

 24 24  0  0  0  0  0  0  0  0999 V2000
    7.1200   -3.2800   19.2940 C   0  0  0  0  0  0  0  0  0  0  0  0
    6.3080   -4.0180   20.2550 C   0  0  0  0  0  0  0  0  0  0  0  0
    5.2670   -4.5590   19.8880 O   0  0  0  0  0  0  0  0  0  0  0  0
    6.7410   -4.1600   21.6170 N   0  0  0  0  0  0  0  0  0  0  0  0
    7.6500   -3.1970   22.2030 C   0  0  0  0  0  0  0  0  0  0  0  0
    7.3030   -3.0040   23.6510 C   0  0  0  0  0  0  0  0  0  0  0  0
    6.0100   -3.7630   23.8770 C   0  0  0  0  0  0  0  0  0  0  0  0
    5.4650   -3.5590   25.2550 C   0  0  0  0  0  0  0  0  0  0  0  0
    4.2550   -3.4030   25.4920 O   0  0  0  0  0  0  0  0  0  0  0  0
    6.3420   -3.5420   26.3450 N   0  0  0  0  0  0  0  0  0  0  0  0
    6.1020   -4.4180   27.4770 C   0  0  1  0  0  0  0  0  0  0  0  0
    6.5300   -3.6710   28.6930 C   0  0  0  0  0  0  0  0  0  0  0  0
    6.6670   -2.2870   28.6570 C   0  0  0  0  0  0  0  0  0  0  0  0
    5.4990   -1.4760   29.7650 S   0  0  0  0  0  0  0  0  0  0  0  0
    5.5650    0.2750   29.6190 C   0  0  0  0  0  0  0  0  0  0  0  0
    6.3700    0.6530   28.5660 F   0  0  0  0  0  0  0  0  0  0  0  0
    4.3150    0.7780   29.4710 F   0  0  0  0  0  0  0  0  0  0  0  0
    6.1240    0.8850   30.7520 F   0  0  0  0  0  0  0  0  0  0  0  0
    4.7260   -4.9340   27.4560 C   0  0  0  0  0  0  0  0  0  0  0  0
    4.1980   -5.4020   26.4330 O   0  0  0  0  0  0  0  0  0  0  0  0
    4.0440   -4.8800   28.6520 O   0  0  0  0  0  0  0  0  0  0  0  0
    3.4400   -3.7370   29.0460 C   0  0  0  0  0  0  0  0  0  0  0  0
    6.0960   -5.2370   23.5850 C   0  0  0  0  0  0  0  0  0  0  0  0
    6.6170   -5.4420   22.3180 C   0  0  0  0  0  0  0  0  0  0  0  0
  1  2  1  0
  2  3  2  0
  2  4  1  0
  4  5  1  0
  5  6  1  0
  6  7  1  0
  7  8  1  0
  8  9  2  0
  8 10  1  0
 10 11  1  0
 11 12  1  1
 12 13  1  0
 13 14  1  0
 14 15  1  0
 15 16  1  0
 15 17  1  0
 15 18  1  0
 11 19  1  0
 19 20  2  0
 19 21  1  0
 21 22  1  0
  7 23  1  0
  4 24  1  0
 23 24  1  0
M  END
