piperidine-amides-4111-covalent
     RDKit          3D

 28 31  0  0  0  0  0  0  0  0999 V2000
    7.0660   -3.2960   19.2570 C   0  0  0  0  0  0  0  0  0  0  0  0
    6.3010   -4.0930   20.2310 C   0  0  0  0  0  0  0  0  0  0  0  0
    5.2050   -4.5470   19.8600 O   0  0  0  0  0  0  0  0  0  0  0  0
    6.7880   -4.4020   21.5150 N   0  0  0  0  0  0  0  0  0  0  0  0
    7.5120   -3.4010   22.2080 C   0  0  0  0  0  0  0  0  0  0  0  0
    7.6290   -3.6430   23.6320 C   0  0  0  0  0  0  0  0  0  0  0  0
    6.4610   -4.3030   24.2780 C   0  0  0  0  0  0  0  0  0  0  0  0
    5.8400   -3.3440   25.2500 C   0  0  0  0  0  0  0  0  0  0  0  0
    4.6740   -3.5090   25.6650 O   0  0  0  0  0  0  0  0  0  0  0  0
    6.6070   -2.2410   25.6700 N   0  0  0  0  0  0  0  0  0  0  0  0
    6.5600   -1.4330   26.8230 C   0  0  0  0  0  0  0  0  0  0  0  0
    7.0290   -1.7040   28.1550 C   0  0  0  0  0  0  0  0  0  0  0  0
    6.8650   -0.6040   29.2310 C   0  0  0  0  0  0  0  0  0  0  0  0
    6.2850    0.6740   29.0580 C   0  0  0  0  0  0  0  0  0  0  0  0
    5.7330    1.0720   27.6590 C   0  0  0  0  0  0  0  0  0  0  0  0
    5.9870   -0.0880   26.7980 C   0  0  0  0  0  0  0  0  0  0  0  0
    5.5450   -0.0030   25.3230 C   0  0  0  0  0  0  0  0  0  0  0  0
    6.0990   -0.5620   24.1630 N   0  0  0  0  0  0  0  0  0  0  0  0
    5.1810   -0.0620   23.1920 C   0  0  0  0  0  0  0  0  0  0  0  0
    5.2110   -0.3040   21.6920 C   0  0  0  0  0  0  0  0  0  0  0  0
    4.1060    0.3500   20.8460 C   0  0  0  0  0  0  0  0  0  0  0  0
    3.1100    1.1600   21.6050 C   0  0  0  0  0  0  0  0  0  0  0  0
    1.8020    1.9520   20.7070 Cl  0  0  0  0  0  0  0  0  0  0  0  0
    3.1830    1.3090   22.9910 C   0  0  0  0  0  0  0  0  0  0  0  0
    4.1670    0.7320   23.7690 C   0  0  0  0  0  0  0  0  0  0  0  0
    4.4440    0.7330   25.1030 N   0  0  0  0  0  0  0  0  0  0  0  0
    5.4830   -4.7830   23.2680 C   0  0  0  0  0  0  0  0  0  0  0  0
    6.1800   -5.4600   22.2730 C   0  0  0  0  0  0  0  0  0  0  0  0
  1  2  1  0
  2  3  2  0
  2  4  1  0
  4  5  1  0
  5  6  1  0
  6  7  1  0
  7  8  1  0
  8  9  2  0
  8 10  1  0
 10 11  1  0
 11 12  2  0
 12 13  1  0
 13 14  2  0
 14 15  1  0
 11 16  1  0
 15 16  2  0
 16 17  1  0
 17 18  2  0
 18 19  1  0
 19 20  2  0
 20 21  1  0
 21 22  2  0
 22 23  1  0
 22 24  1  0
 19 25  1  0
 24 25  2  0
 17 26  1  0
 25 26  1  0
  7 27  1  0
  4 28  1  0
 27 28  1  0
M  END
