piperidine-amides-27496-covalent
     RDKit          3D

 26 29  0  0  0  0  0  0  0  0999 V2000
    7.0340   -3.3710   19.3790 C   0  0  0  0  0  0  0  0  0  0  0  0
    6.4020   -4.2400   20.3800 C   0  0  0  0  0  0  0  0  0  0  0  0
    5.3890   -4.8830   19.9890 O   0  0  0  0  0  0  0  0  0  0  0  0
    6.9420   -4.3700   21.6740 N   0  0  0  0  0  0  0  0  0  0  0  0
    6.7390   -5.5870   22.4520 C   0  0  0  0  0  0  0  0  0  0  0  0
    6.2320   -5.2350   23.8360 C   0  0  0  0  0  0  0  0  0  0  0  0
    6.1890   -3.7470   24.0120 C   0  0  0  0  0  0  0  0  0  0  0  0
    5.6740   -3.2720   25.3200 C   0  0  0  0  0  0  0  0  0  0  0  0
    5.0230   -2.2120   25.2780 O   0  0  0  0  0  0  0  0  0  0  0  0
    5.7670   -3.8580   26.5990 N   0  0  0  0  0  0  0  0  0  0  0  0
    4.5600   -3.6630   27.3850 C   0  0  0  0  0  0  0  0  0  0  0  0
    4.4210   -4.6370   28.5410 C   0  0  0  0  0  0  0  0  0  0  0  0
    5.4740   -4.8970   29.3190 C   0  0  0  0  0  0  0  0  0  0  0  0
    5.2630   -5.8620   30.2620 N   0  0  0  0  0  0  0  0  0  0  0  0
    5.9220   -6.7680   31.0350 N   0  0  0  0  0  0  0  0  0  0  0  0
    4.9360   -7.3050   31.7410 C   0  0  0  0  0  0  0  0  0  0  0  0
    5.1820   -8.2720   32.6840 C   0  0  0  0  0  0  0  0  0  0  0  0
    4.0980   -8.7910   33.3830 C   0  0  0  0  0  0  0  0  0  0  0  0
    2.7920   -8.3600   33.1510 C   0  0  0  0  0  0  0  0  0  0  0  0
    2.4440   -7.2880   32.1240 C   0  0  0  0  0  0  0  0  0  0  0  0
    3.7440   -6.8400   31.4680 C   0  0  0  0  0  0  0  0  0  0  0  0
    3.9020   -5.8980   30.5070 N   0  0  0  0  0  0  0  0  0  0  0  0
    6.6220   -4.7740   28.6240 C   0  0  0  0  0  0  0  0  0  0  0  0
    6.4110   -3.4720   27.8390 C   0  0  0  0  0  0  0  0  0  0  0  0
    7.4690   -3.1070   23.6640 C   0  0  0  0  0  0  0  0  0  0  0  0
    7.7680   -3.3070   22.2060 C   0  0  0  0  0  0  0  0  0  0  0  0
  1  2  1  0
  2  3  2  0
  2  4  1  0
  4  5  1  0
  5  6  1  0
  6  7  1  0
  7  8  1  0
  8  9  2  0
  8 10  1  0
 10 11  1  0
 11 12  1  0
 12 13  1  0
 13 14  1  0
 14 15  1  0
 15 16  2  0
 16 17  1  0
 17 18  2  0
 18 19  1  0
 19 20  2  0
 16 21  1  0
 20 21  1  0
 14 22  1  0
 21 22  2  0
 13 23  1  0
 10 24  1  0
 23 24  1  0
  7 25  1  0
  4 26  1  0
 25 26  1  0
M  END
