piperidine-amides-6811-covalent
     RDKit          3D

 23 24  0  0  0  0  0  0  0  0999 V2000
    7.0740   -3.3130   19.3230 C   0  0  0  0  0  0  0  0  0  0  0  0
    6.3960   -4.1690   20.3100 C   0  0  0  0  0  0  0  0  0  0  0  0
    5.3840   -4.8310   19.9790 O   0  0  0  0  0  0  0  0  0  0  0  0
    6.9020   -4.2890   21.6130 N   0  0  0  0  0  0  0  0  0  0  0  0
    7.7320   -3.2430   22.1750 C   0  0  0  0  0  0  0  0  0  0  0  0
    6.9450   -2.6570   23.3370 C   0  0  0  0  0  0  0  0  0  0  0  0
    6.5230   -3.8330   24.1790 C   0  0  0  0  0  0  0  0  0  0  0  0
    5.7590   -3.3440   25.3400 C   0  0  0  0  0  0  0  0  0  0  0  0
    4.5290   -3.1700   25.2150 O   0  0  0  0  0  0  0  0  0  0  0  0
    6.4280   -3.0900   26.5540 N   0  0  0  0  0  0  0  0  0  0  0  0
    6.3960   -1.7820   27.1470 C   0  0  0  0  0  0  0  0  0  0  0  0
    7.0200   -1.6000   28.5080 C   0  0  0  0  0  0  0  0  0  0  0  0
    7.0400   -0.4120   29.1710 C   0  0  0  0  0  0  0  0  0  0  0  0
    7.6390   -0.3750   30.4000 C   0  0  0  0  0  0  0  0  0  0  0  0
    6.4680    0.6720   28.5770 C   0  0  0  0  0  0  0  0  0  0  0  0
    5.8640    0.6610   27.3400 C   0  0  0  0  0  0  0  0  0  0  0  0
    5.2090    1.8250   26.6180 C   0  0  0  0  0  0  0  0  0  0  0  0
    5.7470    2.5990   25.8260 O   0  0  0  0  0  0  0  0  0  0  0  0
    3.8890    2.0180   26.8920 O   0  0  0  0  0  0  0  0  0  0  0  0
    3.1830    0.8400   26.9810 C   0  0  0  0  0  0  0  0  0  0  0  0
    5.8100   -0.4940   26.6240 C   0  0  0  0  0  0  0  0  0  0  0  0
    5.6720   -4.7990   23.3800 C   0  0  0  0  0  0  0  0  0  0  0  0
    6.5410   -5.4000   22.4590 C   0  0  0  0  0  0  0  0  0  0  0  0
  1  2  1  0
  2  3  2  0
  2  4  1  0
  4  5  1  0
  5  6  1  0
  6  7  1  0
  7  8  1  0
  8  9  2  0
  8 10  1  0
 10 11  1  0
 11 12  2  0
 12 13  1  0
 13 14  1  0
 13 15  2  0
 15 16  1  0
 16 17  1  0
 17 18  2  0
 17 19  1  0
 19 20  1  0
 11 21  1  0
 16 21  2  0
  7 22  1  0
  4 23  1  0
 22 23  1  0
M  END
