piperidine-amides-23972-covalent
     RDKit          3D

 24 27  0  0  0  0  0  0  0  0999 V2000
    7.1360   -3.3260   19.2600 C   0  0  0  0  0  0  0  0  0  0  0  0
    6.3770   -4.0660   20.2770 C   0  0  0  0  0  0  0  0  0  0  0  0
    5.2940   -4.5790   19.9050 O   0  0  0  0  0  0  0  0  0  0  0  0
    6.8810   -4.2430   21.5910 N   0  0  0  0  0  0  0  0  0  0  0  0
    6.4880   -5.3960   22.3180 C   0  0  0  0  0  0  0  0  0  0  0  0
    6.0710   -5.0880   23.6810 C   0  0  0  0  0  0  0  0  0  0  0  0
    6.0780   -3.6460   24.0010 C   0  0  0  0  0  0  0  0  0  0  0  0
    5.5160   -3.3510   25.3630 C   0  0  0  0  0  0  0  0  0  0  0  0
    4.3790   -3.7670   25.6440 O   0  0  0  0  0  0  0  0  0  0  0  0
    6.2120   -2.6090   26.3380 N   0  0  0  0  0  0  0  0  0  0  0  0
    6.7840   -1.3680   26.1790 C   0  0  0  0  0  0  0  0  0  0  0  0
    6.7090   -1.1160   27.5560 C   0  0  0  0  0  0  0  0  0  0  0  0
    5.8430    0.1260   27.8710 C   0  0  0  0  0  0  0  0  0  0  0  0
    5.7150    0.2200   29.2900 N   0  0  0  0  0  0  0  0  0  0  0  0
    4.9750    1.2930   29.5280 N   0  0  0  0  0  0  0  0  0  0  0  0
    4.7160    1.7600   28.2330 C   0  0  0  0  0  0  0  0  0  0  0  0
    5.2310    1.0700   27.1840 N   0  0  0  0  0  0  0  0  0  0  0  0
    5.0690    1.4020   25.7830 C   0  0  0  0  0  0  0  0  0  0  0  0
    3.8740    2.3140   25.7440 C   0  0  0  0  0  0  0  0  0  0  0  0
    4.0810    3.2800   26.7530 O   0  0  0  0  0  0  0  0  0  0  0  0
    3.9020    2.9780   28.0840 C   0  0  0  0  0  0  0  0  0  0  0  0
    6.0200   -2.4680   27.7990 C   0  0  0  0  0  0  0  0  0  0  0  0
    7.4390   -3.0540   23.7080 C   0  0  0  0  0  0  0  0  0  0  0  0
    7.6370   -3.1660   22.1870 C   0  0  0  0  0  0  0  0  0  0  0  0
  1  2  1  0
  2  3  2  0
  2  4  1  0
  4  5  1  0
  5  6  1  0
  6  7  1  0
  7  8  1  0
  8  9  2  0
  8 10  1  0
 10 11  1  0
 11 12  1  0
 12 13  1  0
 13 14  2  0
 14 15  1  0
 15 16  2  0
 13 17  1  0
 16 17  1  0
 17 18  1  0
 18 19  1  0
 19 20  1  0
 16 21  1  0
 20 21  1  0
 10 22  1  0
 12 22  1  0
  7 23  1  0
  4 24  1  0
 23 24  1  0
M  END
