piperidine-amides-5504-covalent
     RDKit          3D

 20 21  0  0  0  0  0  0  0  0999 V2000
    7.0850   -3.3300   19.3590 C   0  0  0  0  0  0  0  0  0  0  0  0
    6.3530   -4.1290   20.3430 C   0  0  0  0  0  0  0  0  0  0  0  0
    5.3360   -4.7290   19.9590 O   0  0  0  0  0  0  0  0  0  0  0  0
    6.7880   -4.2830   21.6840 N   0  0  0  0  0  0  0  0  0  0  0  0
    6.5890   -5.5430   22.3780 C   0  0  0  0  0  0  0  0  0  0  0  0
    6.1560   -5.1940   23.7830 C   0  0  0  0  0  0  0  0  0  0  0  0
    5.9740   -3.7210   23.9440 C   0  0  0  0  0  0  0  0  0  0  0  0
    5.4220   -3.2830   25.2650 C   0  0  0  0  0  0  0  0  0  0  0  0
    4.3170   -2.6690   25.2800 O   0  0  0  0  0  0  0  0  0  0  0  0
    6.0150   -3.4810   26.5390 N   0  0  0  0  0  0  0  0  0  0  0  0
    6.0250   -4.8060   27.2190 C   0  0  0  0  0  0  0  0  0  0  0  0
    4.7390   -5.1810   27.8390 C   0  0  0  0  0  0  0  0  0  0  0  0
    4.6190   -6.4250   28.6190 C   0  0  0  0  0  0  0  0  0  0  0  0
    3.2370   -6.4950   29.0940 C   0  0  0  0  0  0  0  0  0  0  0  0
    2.7740   -7.6630   29.9420 C   0  0  0  0  0  0  0  0  0  0  0  0
    3.6760   -7.8350   31.0170 O   0  0  0  0  0  0  0  0  0  0  0  0
    2.6330   -5.3270   28.5830 N   0  0  0  0  0  0  0  0  0  0  0  0
    3.4740   -4.5640   27.8670 N   0  0  0  0  0  0  0  0  0  0  0  0
    7.2560   -3.0400   23.6110 C   0  0  0  0  0  0  0  0  0  0  0  0
    7.5160   -3.1780   22.2640 C   0  0  0  0  0  0  0  0  0  0  0  0
  1  2  1  0
  2  3  2  0
  2  4  1  0
  4  5  1  0
  5  6  1  0
  6  7  1  0
  7  8  1  0
  8  9  2  0
  8 10  1  0
 10 11  1  0
 11 12  1  0
 12 13  1  0
 13 14  2  0
 14 15  1  0
 15 16  1  0
 14 17  1  0
 12 18  2  0
 17 18  1  0
  7 19  1  0
  4 20  1  0
 19 20  1  0
M  END
