piperidine-amides-10834-covalent
     RDKit          3D

 22 23  0  0  0  0  0  0  0  0999 V2000
    7.1170   -3.3060   19.2400 C   0  0  0  0  0  0  0  0  0  0  0  0
    6.3990   -4.1040   20.2290 C   0  0  0  0  0  0  0  0  0  0  0  0
    5.3240   -4.6360   19.9190 O   0  0  0  0  0  0  0  0  0  0  0  0
    6.9380   -4.3290   21.4990 N   0  0  0  0  0  0  0  0  0  0  0  0
    7.6900   -3.3250   22.2010 C   0  0  0  0  0  0  0  0  0  0  0  0
    6.6950   -2.7560   23.1580 C   0  0  0  0  0  0  0  0  0  0  0  0
    6.0990   -3.8370   24.0200 C   0  0  0  0  0  0  0  0  0  0  0  0
    5.0750   -3.3120   24.9510 C   0  0  0  0  0  0  0  0  0  0  0  0
    3.8510   -3.3540   24.6490 O   0  0  0  0  0  0  0  0  0  0  0  0
    5.3770   -2.7590   26.1980 N   0  0  0  0  0  0  0  0  0  0  0  0
    6.1800   -3.5330   27.1310 C   0  0  1  0  0  0  0  0  0  0  0  0
    5.6900   -4.9350   27.2100 C   0  0  0  0  0  0  0  0  0  0  0  0
    7.5640   -3.6480   26.5780 C   0  0  0  0  0  0  0  0  0  0  0  0
    8.1380   -4.6090   27.5130 C   0  0  0  0  0  0  0  0  0  0  0  0
    9.5310   -4.9110   27.2150 C   0  0  0  0  0  0  0  0  0  0  0  0
   10.0820   -5.7930   28.1030 F   0  0  0  0  0  0  0  0  0  0  0  0
   10.1700   -4.2590   26.0480 C   0  0  0  0  0  0  0  0  0  0  0  0
    9.5280   -3.3700   25.2350 C   0  0  0  0  0  0  0  0  0  0  0  0
    8.1960   -3.0500   25.5070 C   0  0  0  0  0  0  0  0  0  0  0  0
    7.5020   -2.1590   24.7460 F   0  0  0  0  0  0  0  0  0  0  0  0
    5.4400   -4.9620   23.1990 C   0  0  0  0  0  0  0  0  0  0  0  0
    6.4960   -5.4940   22.2210 C   0  0  0  0  0  0  0  0  0  0  0  0
  1  2  1  0
  2  3  2  0
  2  4  1  0
  4  5  1  0
  5  6  1  0
  6  7  1  0
  7  8  1  0
  8  9  2  0
  8 10  1  0
 10 11  1  0
 11 12  1  6
 11 13  1  0
 13 14  2  0
 14 15  1  0
 15 16  1  0
 15 17  2  0
 17 18  1  0
 13 19  1  0
 18 19  2  0
 19 20  1  0
  7 21  1  0
  4 22  1  0
 21 22  1  0
M  END
