piperidine-amides-10725-covalent
     RDKit          3D

 22 23  0  0  0  0  0  0  0  0999 V2000
    7.0790   -3.3480   19.3390 C   0  0  0  0  0  0  0  0  0  0  0  0
    6.3500   -4.1270   20.3370 C   0  0  0  0  0  0  0  0  0  0  0  0
    5.3580   -4.7850   19.9710 O   0  0  0  0  0  0  0  0  0  0  0  0
    6.7890   -4.1820   21.6740 N   0  0  0  0  0  0  0  0  0  0  0  0
    7.7170   -3.1850   22.1990 C   0  0  0  0  0  0  0  0  0  0  0  0
    7.3540   -2.9420   23.6370 C   0  0  0  0  0  0  0  0  0  0  0  0
    6.0530   -3.5820   23.9730 C   0  0  0  0  0  0  0  0  0  0  0  0
    5.5750   -3.2530   25.3370 C   0  0  0  0  0  0  0  0  0  0  0  0
    4.3360   -3.1310   25.5560 O   0  0  0  0  0  0  0  0  0  0  0  0
    6.4330   -3.0510   26.4370 N   0  0  0  0  0  0  0  0  0  0  0  0
    6.5280   -1.7160   27.0750 C   0  0  0  0  0  0  0  0  0  0  0  0
    7.0280   -1.7010   28.4050 C   0  0  0  0  0  0  0  0  0  0  0  0
    7.1520   -0.4190   29.1080 C   0  0  0  0  0  0  0  0  0  0  0  0
    6.8270    1.0370   28.6750 C   0  0  0  0  0  0  0  0  0  0  0  0
    6.4120    2.3030   27.9460 C   0  0  0  0  0  0  0  0  0  0  0  0
    7.4790    2.4550   26.9270 C   0  0  0  0  0  0  0  0  0  0  0  0
    5.1320    2.1780   27.1020 C   0  0  0  0  0  0  0  0  0  0  0  0
    6.2350    3.3960   28.7670 C   0  0  0  0  0  0  0  0  0  0  0  0
    6.3700    0.6220   27.3380 N   0  0  0  0  0  0  0  0  0  0  0  0
    6.2060   -0.4920   26.5770 C   0  0  0  0  0  0  0  0  0  0  0  0
    6.0420   -5.0750   23.7910 C   0  0  0  0  0  0  0  0  0  0  0  0
    6.6320   -5.4050   22.4390 C   0  0  0  0  0  0  0  0  0  0  0  0
  1  2  1  0
  2  3  2  0
  2  4  1  0
  4  5  1  0
  5  6  1  0
  6  7  1  0
  7  8  1  0
  8  9  2  0
  8 10  1  0
 10 11  1  0
 11 12  2  0
 12 13  1  0
 13 14  2  0
 14 15  1  0
 15 16  1  0
 15 17  1  0
 15 18  1  0
 14 19  1  0
 11 20  1  0
 19 20  2  0
  7 21  1  0
  4 22  1  0
 21 22  1  0
M  END
