piperidine-amides-23883-covalent
     RDKit          3D

 24 26  0  0  0  0  0  0  0  0999 V2000
    7.0220   -3.3970   19.4130 C   0  0  0  0  0  0  0  0  0  0  0  0
    6.4120   -4.2790   20.4260 C   0  0  0  0  0  0  0  0  0  0  0  0
    5.4350   -4.9630   20.0180 O   0  0  0  0  0  0  0  0  0  0  0  0
    6.9290   -4.3810   21.7600 N   0  0  0  0  0  0  0  0  0  0  0  0
    6.5380   -5.4950   22.5730 C   0  0  0  0  0  0  0  0  0  0  0  0
    5.9580   -5.0760   23.8480 C   0  0  0  0  0  0  0  0  0  0  0  0
    6.0860   -3.6200   23.9860 C   0  0  0  0  0  0  0  0  0  0  0  0
    5.4030   -2.9380   25.1670 C   0  0  0  0  0  0  0  0  0  0  0  0
    4.8780   -1.8460   24.9300 O   0  0  0  0  0  0  0  0  0  0  0  0
    5.2580   -3.3980   26.5000 N   0  0  0  0  0  0  0  0  0  0  0  0
    4.0640   -3.4830   27.2240 C   0  0  0  0  0  0  0  0  0  0  0  0
    4.1430   -3.5930   28.6790 C   0  0  0  0  0  0  0  0  0  0  0  0
    5.6000   -3.3660   29.0820 C   0  0  0  0  0  0  0  0  0  0  0  0
    6.4100   -4.2540   28.4940 C   0  0  1  0  0  0  0  0  0  0  0  0
    5.7180   -5.4200   28.1560 N   0  0  0  0  0  0  0  0  0  0  0  0
    5.2110   -5.6120   26.9050 N   0  0  0  0  0  0  0  0  0  0  0  0
    4.5080   -6.8500   26.7710 C   0  0  0  0  0  0  0  0  0  0  0  0
    3.8210   -7.3640   25.5450 C   0  0  0  0  0  0  0  0  0  0  0  0
    4.6290   -7.4660   28.1240 C   0  0  0  0  0  0  0  0  0  0  0  0
    5.4050   -6.5530   28.9920 C   0  0  0  0  0  0  0  0  0  0  0  0
    5.6840   -6.9290   30.4320 C   0  0  0  0  0  0  0  0  0  0  0  0
    6.3520   -3.2090   27.3480 C   0  0  0  0  0  0  0  0  0  0  0  0
    7.5090   -3.2520   23.7380 C   0  0  0  0  0  0  0  0  0  0  0  0
    7.7210   -3.2860   22.3420 C   0  0  0  0  0  0  0  0  0  0  0  0
  1  2  1  0
  2  3  2  0
  2  4  1  0
  4  5  1  0
  5  6  1  0
  6  7  1  0
  7  8  1  0
  8  9  2  0
  8 10  1  0
 10 11  1  0
 11 12  1  0
 12 13  1  0
 13 14  1  0
 14 15  1  6
 15 16  1  0
 16 17  2  0
 17 18  1  0
 17 19  1  0
 15 20  1  0
 19 20  2  0
 20 21  1  0
 10 22  1  0
 14 22  1  0
  7 23  1  0
  4 24  1  0
 23 24  1  0
M  END
