piperidine-amides-35058-covalent
     RDKit          3D

 31 33  0  0  0  0  0  0  0  0999 V2000
    6.9660   -3.3630   19.4350 C   0  0  0  0  0  0  0  0  0  0  0  0
    6.3490   -4.2780   20.4390 C   0  0  0  0  0  0  0  0  0  0  0  0
    5.4380   -4.9920   20.0160 O   0  0  0  0  0  0  0  0  0  0  0  0
    6.8110   -4.3250   21.7750 N   0  0  0  0  0  0  0  0  0  0  0  0
    7.6750   -3.2920   22.3070 C   0  0  0  0  0  0  0  0  0  0  0  0
    7.3710   -3.0590   23.7610 C   0  0  0  0  0  0  0  0  0  0  0  0
    6.0480   -3.7450   24.0900 C   0  0  0  0  0  0  0  0  0  0  0  0
    5.5340   -3.3020   25.4360 C   0  0  0  0  0  0  0  0  0  0  0  0
    4.9490   -2.2210   25.4660 O   0  0  0  0  0  0  0  0  0  0  0  0
    5.6330   -4.0100   26.6760 N   0  0  0  0  0  0  0  0  0  0  0  0
    6.3960   -3.4560   27.7340 C   0  0  0  0  0  0  0  0  0  0  0  0
    6.7910   -4.6710   28.5600 C   0  0  0  0  0  0  0  0  0  0  0  0
    5.6110   -4.9430   29.3360 N   0  0  0  0  0  0  0  0  0  0  0  0
    5.8220   -6.2810   29.9070 C   0  0  0  0  0  0  0  0  0  0  0  0
    5.8530   -7.3170   29.1950 O   0  0  0  0  0  0  0  0  0  0  0  0
    5.9940   -6.4800   31.2580 O   0  0  0  0  0  0  0  0  0  0  0  0
    4.9370   -6.8490   32.1370 C   0  0  0  0  0  0  0  0  0  0  0  0
    5.4920   -7.9200   32.7840 C   0  0  0  0  0  0  0  0  0  0  0  0
    5.2340   -6.8580   33.5470 C   0  0  0  0  0  0  0  0  0  0  0  0
    3.8840   -7.7900   31.7150 C   0  0  0  0  0  0  0  0  0  0  0  0
    4.3570   -4.7950   28.6890 C   0  0  0  0  0  0  0  0  0  0  0  0
    4.3840   -4.5470   27.1990 C   0  0  1  0  0  0  0  0  0  0  0  0
    3.2180   -3.6690   26.8710 C   0  0  0  0  0  0  0  0  0  0  0  0
    2.0230   -3.9900   26.0020 C   0  0  0  0  0  0  0  0  0  0  0  0
    0.9690   -2.9760   25.8230 C   0  0  0  0  0  0  0  0  0  0  0  0
    1.0900   -1.6370   26.5010 C   0  0  0  0  0  0  0  0  0  0  0  0
    2.1800   -1.3390   27.2910 C   0  0  0  0  0  0  0  0  0  0  0  0
    2.2660    0.2510   28.0560 Cl  0  0  0  0  0  0  0  0  0  0  0  0
    3.2520   -2.4090   27.4560 C   0  0  0  0  0  0  0  0  0  0  0  0
    6.1110   -5.2710   23.9390 C   0  0  0  0  0  0  0  0  0  0  0  0
    6.6200   -5.5700   22.5130 C   0  0  0  0  0  0  0  0  0  0  0  0
  1  2  1  0
  2  3  2  0
  2  4  1  0
  4  5  1  0
  5  6  1  0
  6  7  1  0
  7  8  1  0
  8  9  2  0
  8 10  1  0
 10 11  1  0
 11 12  1  0
 12 13  1  0
 13 14  1  0
 14 15  2  0
 14 16  1  0
 17 16  1  0
 17 18  1  0
 17 19  1  0
 17 20  1  0
 13 21  1  0
 10 22  1  0
 21 22  1  0
 22 23  1  1
 23 24  2  0
 24 25  1  0
 25 26  2  0
 26 27  1  0
 27 28  1  0
 23 29  1  0
 27 29  2  0
  7 30  1  0
  4 31  1  0
 30 31  1  0
M  END
