piperidine-amides-10870-covalent
     RDKit          3D

 22 24  0  0  0  0  0  0  0  0999 V2000
    7.0930   -3.3250   19.2690 C   0  0  0  0  0  0  0  0  0  0  0  0
    6.4040   -4.1320   20.2750 C   0  0  0  0  0  0  0  0  0  0  0  0
    5.3750   -4.7520   19.9590 O   0  0  0  0  0  0  0  0  0  0  0  0
    6.9230   -4.2550   21.5720 N   0  0  0  0  0  0  0  0  0  0  0  0
    7.7640   -3.2420   22.1630 C   0  0  0  0  0  0  0  0  0  0  0  0
    6.9780   -2.6950   23.3110 C   0  0  0  0  0  0  0  0  0  0  0  0
    6.5170   -3.7910   24.2120 C   0  0  0  0  0  0  0  0  0  0  0  0
    5.7650   -3.2770   25.3710 C   0  0  0  0  0  0  0  0  0  0  0  0
    4.5310   -3.0120   25.2780 O   0  0  0  0  0  0  0  0  0  0  0  0
    6.3810   -3.0650   26.6140 N   0  0  0  0  0  0  0  0  0  0  0  0
    6.3900   -1.7360   27.2620 C   0  0  0  0  0  0  0  0  0  0  0  0
    5.7980   -0.5340   26.5950 C   0  0  0  0  0  0  0  0  0  0  0  0
    5.8140    0.7850   27.2820 C   0  0  0  0  0  0  0  0  0  0  0  0
    6.4390    0.8470   28.6460 C   0  0  0  0  0  0  0  0  0  0  0  0
    6.6090    1.9320   29.5580 N   0  0  0  0  0  0  0  0  0  0  0  0
    7.2940    1.2170   30.6600 C   0  0  0  0  0  0  0  0  0  0  0  0
    7.7280    1.8750   31.9210 C   0  0  0  0  0  0  0  0  0  0  0  0
    7.5190   -0.1730   30.4370 O   0  0  0  0  0  0  0  0  0  0  0  0
    6.9910   -0.4130   29.1900 C   0  0  0  0  0  0  0  0  0  0  0  0
    7.0160   -1.6670   28.6180 C   0  0  0  0  0  0  0  0  0  0  0  0
    5.6660   -4.8580   23.5030 C   0  0  0  0  0  0  0  0  0  0  0  0
    6.5300   -5.3970   22.3610 C   0  0  0  0  0  0  0  0  0  0  0  0
  1  2  1  0
  2  3  2  0
  2  4  1  0
  4  5  1  0
  5  6  1  0
  6  7  1  0
  7  8  1  0
  8  9  2  0
  8 10  1  0
 10 11  1  0
 11 12  2  0
 12 13  1  0
 13 14  2  0
 14 15  1  0
 15 16  2  0
 16 17  1  0
 16 18  1  0
 14 19  1  0
 18 19  1  0
 11 20  1  0
 19 20  2  0
  7 21  1  0
  4 22  1  0
 21 22  1  0
M  END
