piperidine-amides-31460-covalent
     RDKit          3D

 25 27  0  0  0  0  0  0  0  0999 V2000
    6.9370   -3.4090   19.3770 C   0  0  0  0  0  0  0  0  0  0  0  0
    6.2740   -4.1990   20.4020 C   0  0  0  0  0  0  0  0  0  0  0  0
    5.3820   -5.0050   20.0030 O   0  0  0  0  0  0  0  0  0  0  0  0
    6.5760   -4.1460   21.7830 N   0  0  0  0  0  0  0  0  0  0  0  0
    6.5300   -5.4440   22.5050 C   0  0  0  0  0  0  0  0  0  0  0  0
    5.9880   -5.0490   23.9490 C   0  0  0  0  0  0  0  0  0  0  0  0
    5.7770   -3.5450   23.9550 C   0  0  0  0  0  0  0  0  0  0  0  0
    4.6910   -2.9730   25.0200 C   0  0  0  0  0  0  0  0  0  0  0  0
    3.7880   -2.5050   24.3740 O   0  0  0  0  0  0  0  0  0  0  0  0
    4.9620   -3.1190   26.2670 N   0  0  0  0  0  0  0  0  0  0  0  0
    4.6890   -3.1340   27.6080 C   0  0  0  0  0  0  0  0  0  0  0  0
    5.2140   -3.8590   28.5560 C   0  0  0  0  0  0  0  0  0  0  0  0
    6.3090   -4.0200   27.7950 C   0  0  0  0  0  0  0  0  0  0  0  0
    7.7310   -4.6280   28.1460 C   0  0  0  0  0  0  0  0  0  0  0  0
    8.7280   -4.5920   26.9090 C   0  0  0  0  0  0  0  0  0  0  0  0
   10.2510   -5.0680   26.6840 S   0  0  0  0  0  0  0  0  0  0  0  0
   10.3880   -5.0170   28.3950 N   0  0  0  0  0  0  0  0  0  0  0  0
   11.0640   -4.1310   25.8900 O   0  0  0  0  0  0  0  0  0  0  0  0
   10.0320   -6.4400   26.1800 O   0  0  0  0  0  0  0  0  0  0  0  0
    8.0210   -4.0930   26.1350 C   0  0  0  0  0  0  0  0  0  0  0  0
    8.2750   -3.6480   24.4560 Cl  0  0  0  0  0  0  0  0  0  0  0  0
    7.2080   -4.1290   27.1380 C   0  0  0  0  0  0  0  0  0  0  0  0
    6.3330   -3.5750   26.2970 C   0  0  0  0  0  0  0  0  0  0  0  0
    6.9920   -2.7400   23.5770 C   0  0  0  0  0  0  0  0  0  0  0  0
    7.3800   -3.0660   22.2870 C   0  0  0  0  0  0  0  0  0  0  0  0
  1  2  1  0
  2  3  2  0
  2  4  1  0
  4  5  1  0
  5  6  1  0
  6  7  1  0
  7  8  1  0
  8  9  2  0
  8 10  1  0
 10 11  1  0
 11 12  1  0
 12 13  1  0
 13 14  1  0
 14 15  2  0
 15 16  1  0
 16 17  1  0
 16 18  2  0
 16 19  2  0
 15 20  1  0
 20 21  1  0
 20 22  2  0
 10 23  1  0
 13 23  2  0
 22 23  1  0
  7 24  1  0
  4 25  1  0
 24 25  1  0
M  END
