piperidine-amides-1420-covalent
     RDKit          3D

 21 22  0  0  0  0  0  0  0  0999 V2000
    7.1390   -3.2920   19.2430 C   0  0  0  0  0  0  0  0  0  0  0  0
    6.3310   -4.0420   20.2370 C   0  0  0  0  0  0  0  0  0  0  0  0
    5.2570   -4.5580   19.8860 O   0  0  0  0  0  0  0  0  0  0  0  0
    6.8420   -4.1930   21.5400 N   0  0  0  0  0  0  0  0  0  0  0  0
    7.7210   -3.2360   22.1670 C   0  0  0  0  0  0  0  0  0  0  0  0
    6.9960   -2.7200   23.4070 C   0  0  0  0  0  0  0  0  0  0  0  0
    6.6290   -3.9000   24.2510 C   0  0  0  0  0  0  0  0  0  0  0  0
    5.8890   -3.4900   25.4640 C   0  0  0  0  0  0  0  0  0  0  0  0
    4.6700   -3.7070   25.4650 O   0  0  0  0  0  0  0  0  0  0  0  0
    6.5700   -2.8800   26.5270 N   0  0  0  0  0  0  0  0  0  0  0  0
    6.7590   -1.4850   26.7010 C   0  0  0  0  0  0  0  0  0  0  0  0
    5.7340   -0.5690   26.8590 C   0  0  0  0  0  0  0  0  0  0  0  0
    4.5210   -1.3880   26.8430 O   0  0  0  0  0  0  0  0  0  0  0  0
    3.5820   -1.1160   25.8530 C   0  0  0  0  0  0  0  0  0  0  0  0
    2.5030   -1.9740   25.8530 C   0  0  0  0  0  0  0  0  0  0  0  0
    4.1750   -1.2810   24.4970 C   0  0  0  0  0  0  0  0  0  0  0  0
    5.5820    0.5650   25.9910 C   0  0  0  0  0  0  0  0  0  0  0  0
    5.7560    1.5030   27.1320 C   0  0  0  0  0  0  0  0  0  0  0  0
    5.8900    0.3970   27.8830 C   0  0  0  0  0  0  0  0  0  0  0  0
    5.8110   -4.9440   23.5590 C   0  0  0  0  0  0  0  0  0  0  0  0
    6.5030   -5.3770   22.2830 C   0  0  0  0  0  0  0  0  0  0  0  0
  1  2  1  0
  2  3  2  0
  2  4  1  0
  4  5  1  0
  5  6  1  0
  6  7  1  0
  7  8  1  0
  8  9  2  0
  8 10  1  0
 10 11  1  0
 11 12  1  0
 12 13  1  0
 13 14  1  0
 14 15  1  0
 14 16  1  0
 12 17  1  0
 17 18  1  0
 12 19  1  0
 18 19  1  0
  7 20  1  0
  4 21  1  0
 20 21  1  0
M  END
