piperidine-amides-13247-covalent
     RDKit          3D

 18 18  0  0  0  0  0  0  0  0999 V2000
    7.1460   -3.2870   19.1700 C   0  0  0  0  0  0  0  0  0  0  0  0
    6.4310   -4.0270   20.2350 C   0  0  0  0  0  0  0  0  0  0  0  0
    5.3450   -4.5460   19.9000 O   0  0  0  0  0  0  0  0  0  0  0  0
    6.9860   -4.1790   21.5200 N   0  0  0  0  0  0  0  0  0  0  0  0
    7.7610   -3.1190   22.0800 C   0  0  0  0  0  0  0  0  0  0  0  0
    7.2980   -2.7640   23.4070 C   0  0  0  0  0  0  0  0  0  0  0  0
    6.0260   -3.4260   23.7430 C   0  0  0  0  0  0  0  0  0  0  0  0
    5.6340   -3.0760   25.1180 C   0  0  0  0  0  0  0  0  0  0  0  0
    4.6480   -2.3360   25.2820 O   0  0  0  0  0  0  0  0  0  0  0  0
    6.3320   -3.5690   26.2150 N   0  0  0  0  0  0  0  0  0  0  0  0
    5.6730   -4.5050   27.1280 C   0  0  1  0  0  0  0  0  0  0  0  0
    5.6200   -5.9180   26.6670 C   0  0  0  0  0  0  0  0  0  0  0  0
    4.8660   -6.2570   25.7100 O   0  0  0  0  0  0  0  0  0  0  0  0
    6.1820   -4.4240   28.4770 C   0  0  2  0  0  0  0  0  0  0  0  0
    6.8770   -5.5070   28.9430 C   0  0  0  0  0  0  0  0  0  0  0  0
    5.2550   -4.1280   29.4300 O   0  0  0  0  0  0  0  0  0  0  0  0
    6.0490   -4.9130   23.5190 C   0  0  0  0  0  0  0  0  0  0  0  0
    6.5660   -5.3000   22.3100 C   0  0  0  0  0  0  0  0  0  0  0  0
  1  2  1  0
  2  3  2  0
  2  4  1  0
  4  5  1  0
  5  6  1  0
  6  7  1  0
  7  8  1  0
  8  9  2  0
  8 10  1  0
 10 11  1  0
 11 12  1  6
 12 13  1  0
 11 14  1  0
 14 15  1  1
 14 16  1  0
  7 17  1  0
  4 18  1  0
 17 18  1  0
M  END
