piperidine-amides-29929-covalent
     RDKit          3D

 27 29  0  0  0  0  0  0  0  0999 V2000
    7.0380   -3.3420   19.3820 C   0  0  0  0  0  0  0  0  0  0  0  0
    6.3770   -4.1970   20.3660 C   0  0  0  0  0  0  0  0  0  0  0  0
    5.4270   -4.8960   20.0010 O   0  0  0  0  0  0  0  0  0  0  0  0
    6.8490   -4.2590   21.7340 N   0  0  0  0  0  0  0  0  0  0  0  0
    7.7060   -3.2000   22.2570 C   0  0  0  0  0  0  0  0  0  0  0  0
    7.4170   -2.9170   23.7100 C   0  0  0  0  0  0  0  0  0  0  0  0
    6.0760   -3.5400   24.0100 C   0  0  0  0  0  0  0  0  0  0  0  0
    5.4820   -3.1610   25.3380 C   0  0  0  0  0  0  0  0  0  0  0  0
    4.2700   -2.8920   25.4160 O   0  0  0  0  0  0  0  0  0  0  0  0
    6.2300   -3.0950   26.5510 N   0  0  0  0  0  0  0  0  0  0  0  0
    6.1870   -4.3220   27.3170 C   0  0  0  0  0  0  0  0  0  0  0  0
    6.0410   -1.8870   27.3350 C   0  0  0  0  0  0  0  0  0  0  0  0
    6.9060   -1.7440   28.4100 C   0  0  0  0  0  0  0  0  0  0  0  0
    6.8920   -0.6280   29.2540 C   0  0  0  0  0  0  0  0  0  0  0  0
    6.1450    0.4940   28.8350 N   0  0  0  0  0  0  0  0  0  0  0  0
    5.6290    1.3960   29.7710 C   0  0  2  0  0  0  0  0  0  0  0  0
    6.5390    2.4860   30.0970 C   0  0  0  0  0  0  0  0  0  0  0  0
    5.4210    0.8790   31.0300 C   0  0  0  0  0  0  0  0  0  0  0  0
    4.4820   -0.1330   31.2010 C   0  0  0  0  0  0  0  0  0  0  0  0
    4.2460   -0.6860   32.4560 C   0  0  0  0  0  0  0  0  0  0  0  0
    5.0310   -0.1490   33.5540 C   0  0  0  0  0  0  0  0  0  0  0  0
    5.9520    0.8510   33.3640 C   0  0  0  0  0  0  0  0  0  0  0  0
    6.1800    1.4100   32.0610 N   0  0  0  0  0  0  0  0  0  0  0  0
    5.7760    0.4600   27.4510 C   0  0  0  0  0  0  0  0  0  0  0  0
    5.8480   -0.7550   26.5840 C   0  0  0  0  0  0  0  0  0  0  0  0
    6.0660   -5.0330   23.8780 C   0  0  0  0  0  0  0  0  0  0  0  0
    6.6200   -5.4390   22.5220 C   0  0  0  0  0  0  0  0  0  0  0  0
  1  2  1  0
  2  3  2  0
  2  4  1  0
  4  5  1  0
  5  6  1  0
  6  7  1  0
  7  8  1  0
  8  9  2  0
  8 10  1  0
 10 11  1  0
 10 12  1  0
 12 13  1  0
 13 14  1  0
 14 15  1  0
 15 16  1  0
 16 17  1  1
 16 18  1  0
 18 19  2  0
 19 20  1  0
 20 21  2  0
 21 22  1  0
 18 23  1  0
 22 23  2  0
 15 24  1  0
 12 25  1  0
 24 25  1  0
  7 26  1  0
  4 27  1  0
 26 27  1  0
M  END
