piperidine-amides-19414-covalent
     RDKit          3D

 20 21  0  0  0  0  0  0  0  0999 V2000
    7.1120   -3.3330   19.2480 C   0  0  0  0  0  0  0  0  0  0  0  0
    6.3360   -3.9960   20.2680 C   0  0  0  0  0  0  0  0  0  0  0  0
    5.2630   -4.5650   19.8980 O   0  0  0  0  0  0  0  0  0  0  0  0
    6.7330   -4.0950   21.6180 N   0  0  0  0  0  0  0  0  0  0  0  0
    6.4060   -5.3940   22.2700 C   0  0  0  0  0  0  0  0  0  0  0  0
    6.4470   -5.0570   23.8160 C   0  0  0  0  0  0  0  0  0  0  0  0
    6.0870   -3.6000   23.9460 C   0  0  0  0  0  0  0  0  0  0  0  0
    5.2390   -3.2470   25.2450 C   0  0  0  0  0  0  0  0  0  0  0  0
    4.1660   -3.8240   25.2190 O   0  0  0  0  0  0  0  0  0  0  0  0
    5.8840   -2.4460   25.9890 N   0  0  0  0  0  0  0  0  0  0  0  0
    6.7180   -1.8080   26.7330 C   0  0  0  0  0  0  0  0  0  0  0  0
    5.9890   -0.9140   27.3000 C   0  0  0  0  0  0  0  0  0  0  0  0
    6.0830   -1.1860   28.7370 N   0  0  0  0  0  0  0  0  0  0  0  0
    5.9750    0.1980   29.7490 S   0  0  0  0  0  0  0  0  0  0  0  0
    4.6510    1.2470   29.3160 N   0  0  0  0  0  0  0  0  0  0  0  0
    5.7280   -0.2140   31.1420 O   0  0  0  0  0  0  0  0  0  0  0  0
    7.2680    0.9380   29.5900 O   0  0  0  0  0  0  0  0  0  0  0  0
    4.8640   -1.4370   26.5110 C   0  0  0  0  0  0  0  0  0  0  0  0
    7.3400   -2.7910   23.6380 C   0  0  0  0  0  0  0  0  0  0  0  0
    7.6060   -3.0890   22.1680 C   0  0  0  0  0  0  0  0  0  0  0  0
  1  2  1  0
  2  3  2  0
  2  4  1  0
  4  5  1  0
  5  6  1  0
  6  7  1  0
  7  8  1  0
  8  9  2  0
  8 10  1  0
 10 11  1  0
 11 12  1  0
 12 13  1  0
 14 13  1  0
 14 15  1  0
 14 16  2  0
 14 17  2  0
 10 18  1  0
 12 18  1  0
  7 19  1  0
  4 20  1  0
 19 20  1  0
M  END
