piperidine-amides-11397-covalent
     RDKit          3D

 24 26  0  0  0  0  0  0  0  0999 V2000
    7.0760   -3.3220   19.3560 C   0  0  0  0  0  0  0  0  0  0  0  0
    6.3670   -4.1460   20.3410 C   0  0  0  0  0  0  0  0  0  0  0  0
    5.3530   -4.7640   19.9730 O   0  0  0  0  0  0  0  0  0  0  0  0
    6.8210   -4.3000   21.6680 N   0  0  0  0  0  0  0  0  0  0  0  0
    6.6550   -5.5410   22.3920 C   0  0  0  0  0  0  0  0  0  0  0  0
    6.0840   -5.1450   23.7280 C   0  0  0  0  0  0  0  0  0  0  0  0
    6.1200   -3.6590   23.8920 C   0  0  0  0  0  0  0  0  0  0  0  0
    5.6490   -3.1750   25.2220 C   0  0  0  0  0  0  0  0  0  0  0  0
    4.4370   -2.8270   25.3410 O   0  0  0  0  0  0  0  0  0  0  0  0
    6.4580   -3.0540   26.3820 N   0  0  0  0  0  0  0  0  0  0  0  0
    6.1410   -3.7480   27.6710 C   0  0  0  0  0  0  0  0  0  0  0  0
    4.6800   -3.9710   27.8000 C   0  0  2  0  0  0  0  0  0  0  0  0
    4.1550   -3.7030   28.9580 O   0  0  0  0  0  0  0  0  0  0  0  0
    3.3840   -4.6850   29.4620 C   0  0  0  0  0  0  0  0  0  0  0  0
    2.6190   -4.8150   30.7500 C   0  0  0  0  0  0  0  0  0  0  0  0
    1.8430   -6.1080   30.9790 C   0  0  0  0  0  0  0  0  0  0  0  0
    1.8930   -7.1520   29.9070 C   0  0  0  0  0  0  0  0  0  0  0  0
    0.9390   -8.7950   30.1050 Br  0  0  0  0  0  0  0  0  0  0  0  0
    2.6450   -6.8600   28.7970 C   0  0  0  0  0  0  0  0  0  0  0  0
    3.3540   -5.6790   28.5910 C   0  0  0  0  0  0  0  0  0  0  0  0
    4.1930   -5.2500   27.4400 C   0  0  2  0  0  0  0  0  0  0  0  0
    5.3570   -6.2230   27.2240 C   0  0  0  0  0  0  0  0  0  0  0  0
    7.5230   -3.2070   23.4780 C   0  0  0  0  0  0  0  0  0  0  0  0
    7.5560   -3.1680   22.2670 C   0  0  0  0  0  0  0  0  0  0  0  0
  1  2  1  0
  2  3  2  0
  2  4  1  0
  4  5  1  0
  5  6  1  0
  6  7  1  0
  7  8  1  0
  8  9  2  0
  8 10  1  0
 10 11  1  0
 12 11  1  1
 12 13  1  0
 13 14  1  0
 14 15  1  0
 15 16  2  0
 16 17  1  0
 17 18  1  0
 17 19  2  0
 14 20  2  0
 19 20  1  0
 12 21  1  0
 20 21  1  0
 21 22  1  1
  7 23  1  0
  4 24  1  0
 23 24  1  0
M  END
