piperidine-amides-19717-covalent
     RDKit          3D

 22 23  0  0  0  0  0  0  0  0999 V2000
    7.0500   -3.3580   19.3550 C   0  0  0  0  0  0  0  0  0  0  0  0
    6.3030   -4.1740   20.3420 C   0  0  0  0  0  0  0  0  0  0  0  0
    5.2930   -4.7440   19.9410 O   0  0  0  0  0  0  0  0  0  0  0  0
    6.7810   -4.3060   21.6450 N   0  0  0  0  0  0  0  0  0  0  0  0
    7.5600   -3.2550   22.2470 C   0  0  0  0  0  0  0  0  0  0  0  0
    7.2440   -3.2170   23.7040 C   0  0  0  0  0  0  0  0  0  0  0  0
    5.8520   -3.7520   23.9340 C   0  0  0  0  0  0  0  0  0  0  0  0
    5.3970   -3.3460   25.2860 C   0  0  0  0  0  0  0  0  0  0  0  0
    4.1930   -3.1210   25.4540 O   0  0  0  0  0  0  0  0  0  0  0  0
    6.2700   -3.1900   26.3820 N   0  0  0  0  0  0  0  0  0  0  0  0
    6.7760   -4.3980   27.0360 C   0  0  0  0  0  0  0  0  0  0  0  0
    5.6660   -5.3700   27.3370 C   0  0  0  0  0  0  0  0  0  0  0  0
    5.8350   -6.3610   28.2630 C   0  0  0  0  0  0  0  0  0  0  0  0
    6.3490   -1.9220   27.0770 C   0  0  0  0  0  0  0  0  0  0  0  0
    6.8990   -1.8690   28.3170 C   0  0  0  0  0  0  0  0  0  0  0  0
    7.1100   -0.7140   29.2710 C   0  0  0  0  0  0  0  0  0  0  0  0
    6.5860    0.5590   28.6530 C   0  0  0  0  0  0  0  0  0  0  0  0
    5.9650    0.5510   27.2720 C   0  0  0  0  0  0  0  0  0  0  0  0
    5.8780   -0.7430   26.5290 C   0  0  0  0  0  0  0  0  0  0  0  0
    5.3190   -0.7710   25.2790 F   0  0  0  0  0  0  0  0  0  0  0  0
    5.7880   -5.2240   23.6570 C   0  0  0  0  0  0  0  0  0  0  0  0
    6.5520   -5.5410   22.3720 C   0  0  0  0  0  0  0  0  0  0  0  0
  1  2  1  0
  2  3  2  0
  2  4  1  0
  4  5  1  0
  5  6  1  0
  6  7  1  0
  7  8  1  0
  8  9  2  0
  8 10  1  0
 10 11  1  0
 11 12  1  0
 12 13  1  0
 10 14  1  0
 14 15  2  0
 15 16  1  0
 16 17  2  0
 17 18  1  0
 14 19  1  0
 18 19  2  0
 19 20  1  0
  7 21  1  0
  4 22  1  0
 21 22  1  0
M  END
