piperidine-amides-2709-covalent
     RDKit          3D

 25 28  0  0  0  0  0  0  0  0999 V2000
    7.0940   -3.3730   19.3470 C   0  0  0  0  0  0  0  0  0  0  0  0
    6.3540   -4.2240   20.2640 C   0  0  0  0  0  0  0  0  0  0  0  0
    5.2810   -4.7120   19.9320 O   0  0  0  0  0  0  0  0  0  0  0  0
    6.9250   -4.5500   21.5300 N   0  0  0  0  0  0  0  0  0  0  0  0
    6.4320   -5.6940   22.2510 C   0  0  0  0  0  0  0  0  0  0  0  0
    5.5640   -5.2590   23.4090 C   0  0  0  0  0  0  0  0  0  0  0  0
    6.2700   -4.1350   24.1540 C   0  0  0  0  0  0  0  0  0  0  0  0
    5.4460   -3.6080   25.2600 C   0  0  0  0  0  0  0  0  0  0  0  0
    4.2070   -3.7000   25.2960 O   0  0  0  0  0  0  0  0  0  0  0  0
    6.1070   -2.9560   26.3040 N   0  0  0  0  0  0  0  0  0  0  0  0
    6.2640   -1.5340   26.1760 C   0  0  0  0  0  0  0  0  0  0  0  0
    7.1750   -1.1700   25.0170 C   0  0  0  0  0  0  0  0  0  0  0  0
    7.1450    0.0310   24.2900 C   0  0  0  0  0  0  0  0  0  0  0  0
    8.0970    0.2610   23.2600 C   0  0  0  0  0  0  0  0  0  0  0  0
    9.0720   -0.6620   22.9350 C   0  0  0  0  0  0  0  0  0  0  0  0
    9.0310   -1.8640   23.6890 C   0  0  0  0  0  0  0  0  0  0  0  0
    8.1200   -2.0860   24.6610 C   0  0  0  0  0  0  0  0  0  0  0  0
    9.9300   -2.6980   23.3680 O   0  0  0  0  0  0  0  0  0  0  0  0
   11.2320   -2.1450   23.2540 C   0  0  0  0  0  0  0  0  0  0  0  0
   11.2780   -1.3180   22.1320 C   0  0  0  0  0  0  0  0  0  0  0  0
   10.0790   -0.6040   22.0060 O   0  0  0  0  0  0  0  0  0  0  0  0
    6.5070   -0.8420   27.4570 C   0  0  0  0  0  0  0  0  0  0  0  0
    5.4770   -0.5140   26.8890 C   0  0  0  0  0  0  0  0  0  0  0  0
    6.5510   -2.9990   23.2280 C   0  0  0  0  0  0  0  0  0  0  0  0
    7.5130   -3.4760   22.2230 C   0  0  0  0  0  0  0  0  0  0  0  0
  1  2  1  0
  2  3  2  0
  2  4  1  0
  4  5  1  0
  5  6  1  0
  6  7  1  0
  7  8  1  0
  8  9  2  0
  8 10  1  0
 11 10  1  0
 11 12  1  0
 12 13  2  0
 13 14  1  0
 14 15  2  0
 15 16  1  0
 12 17  1  0
 16 17  2  0
 16 18  1  0
 18 19  1  0
 19 20  1  0
 15 21  1  0
 20 21  1  0
 11 22  1  0
 11 23  1  0
 22 23  1  0
  7 24  1  0
  4 25  1  0
 24 25  1  0
M  END
