piperidine-amides-1954-covalent
     RDKit          3D

 18 19  0  0  0  0  0  0  0  0999 V2000
    7.0680   -3.3640   19.3560 C   0  0  0  0  0  0  0  0  0  0  0  0
    6.3620   -4.1930   20.3580 C   0  0  0  0  0  0  0  0  0  0  0  0
    5.3620   -4.7970   19.9730 O   0  0  0  0  0  0  0  0  0  0  0  0
    6.8720   -4.3020   21.6570 N   0  0  0  0  0  0  0  0  0  0  0  0
    7.6750   -3.2460   22.2400 C   0  0  0  0  0  0  0  0  0  0  0  0
    7.3330   -3.0490   23.6930 C   0  0  0  0  0  0  0  0  0  0  0  0
    5.9820   -3.6970   23.9860 C   0  0  0  0  0  0  0  0  0  0  0  0
    5.5280   -3.4360   25.3660 C   0  0  0  0  0  0  0  0  0  0  0  0
    4.3320   -3.5870   25.6360 O   0  0  0  0  0  0  0  0  0  0  0  0
    6.4010   -3.0050   26.3770 N   0  0  0  0  0  0  0  0  0  0  0  0
    6.6520   -1.5930   26.4900 C   0  0  2  0  0  0  0  0  0  0  0  0
    6.7840   -1.2900   27.8000 C   0  0  0  0  0  0  0  0  0  0  0  0
    5.6440   -0.6430   27.2900 C   0  0  1  0  0  0  0  0  0  0  0  0
    5.6240    0.1490   26.1840 C   0  0  0  0  0  0  0  0  0  0  0  0
    5.2590    1.4390   26.5230 O   0  0  0  0  0  0  0  0  0  0  0  0
    6.3460    2.2570   26.7470 C   0  0  0  0  0  0  0  0  0  0  0  0
    6.0830   -5.1900   23.7460 C   0  0  0  0  0  0  0  0  0  0  0  0
    6.6450   -5.4910   22.4030 C   0  0  0  0  0  0  0  0  0  0  0  0
  1  2  1  0
  2  3  2  0
  2  4  1  0
  4  5  1  0
  5  6  1  0
  6  7  1  0
  7  8  1  0
  8  9  2  0
  8 10  1  0
 11 10  1  1
 11 12  1  0
 11 13  1  0
 12 13  1  0
 13 14  1  6
 14 15  1  0
 15 16  1  0
  7 17  1  0
  4 18  1  0
 17 18  1  0
M  END
