piperidine-amides-14585-covalent
     RDKit          3D

 23 25  0  0  0  0  0  0  0  0999 V2000
    7.1190   -3.3680   19.3360 C   0  0  0  0  0  0  0  0  0  0  0  0
    6.4180   -4.1910   20.3080 C   0  0  0  0  0  0  0  0  0  0  0  0
    5.3560   -4.7390   19.9590 O   0  0  0  0  0  0  0  0  0  0  0  0
    6.9970   -4.3950   21.5830 N   0  0  0  0  0  0  0  0  0  0  0  0
    7.6800   -3.2960   22.1930 C   0  0  0  0  0  0  0  0  0  0  0  0
    6.7830   -2.7280   23.2390 C   0  0  0  0  0  0  0  0  0  0  0  0
    6.5360   -3.8420   24.2280 C   0  0  0  0  0  0  0  0  0  0  0  0
    5.7930   -3.2840   25.3960 C   0  0  0  0  0  0  0  0  0  0  0  0
    4.5760   -3.1560   25.2640 O   0  0  0  0  0  0  0  0  0  0  0  0
    6.5190   -2.9540   26.5230 N   0  0  0  0  0  0  0  0  0  0  0  0
    6.4320   -1.6860   27.1550 C   0  0  0  0  0  0  0  0  0  0  0  0
    5.8600   -0.4490   26.7350 C   0  0  0  0  0  0  0  0  0  0  0  0
    5.8350    0.7230   27.4700 C   0  0  0  0  0  0  0  0  0  0  0  0
    6.3930    0.7760   28.7220 C   0  0  0  0  0  0  0  0  0  0  0  0
    6.2380    2.1430   29.3190 C   0  0  1  0  0  0  0  0  0  0  0  0
    4.9680    2.3180   30.1570 C   0  0  0  0  0  0  0  0  0  0  0  0
    5.4230    2.8350   31.4390 C   0  0  0  0  0  0  0  0  0  0  0  0
    6.6600    3.0480   31.4240 O   0  0  0  0  0  0  0  0  0  0  0  0
    7.3200    2.5070   30.2920 C   0  0  0  0  0  0  0  0  0  0  0  0
    6.9880   -0.3360   29.2600 C   0  0  0  0  0  0  0  0  0  0  0  0
    7.0160   -1.4950   28.5440 C   0  0  0  0  0  0  0  0  0  0  0  0
    5.6910   -4.8850   23.5550 C   0  0  0  0  0  0  0  0  0  0  0  0
    6.4220   -5.4520   22.3680 C   0  0  0  0  0  0  0  0  0  0  0  0
  1  2  1  0
  2  3  2  0
  2  4  1  0
  4  5  1  0
  5  6  1  0
  6  7  1  0
  7  8  1  0
  8  9  2  0
  8 10  1  0
 10 11  1  0
 11 12  2  0
 12 13  1  0
 13 14  2  0
 15 14  1  1
 15 16  1  0
 16 17  1  0
 17 18  1  0
 15 19  1  0
 18 19  1  0
 14 20  1  0
 11 21  1  0
 20 21  2  0
  7 22  1  0
  4 23  1  0
 22 23  1  0
M  END
