piperidine-amides-13984-covalent
     RDKit          3D

 25 27  0  0  0  0  0  0  0  0999 V2000
    7.0450   -3.3260   19.3530 C   0  0  0  0  0  0  0  0  0  0  0  0
    6.3560   -4.1900   20.3510 C   0  0  0  0  0  0  0  0  0  0  0  0
    5.3700   -4.8520   19.9830 O   0  0  0  0  0  0  0  0  0  0  0  0
    6.8560   -4.2800   21.6740 N   0  0  0  0  0  0  0  0  0  0  0  0
    6.6750   -5.4850   22.4510 C   0  0  0  0  0  0  0  0  0  0  0  0
    5.9430   -5.1070   23.7480 C   0  0  0  0  0  0  0  0  0  0  0  0
    6.1590   -3.6490   23.9530 C   0  0  0  0  0  0  0  0  0  0  0  0
    5.7860   -3.1880   25.3140 C   0  0  0  0  0  0  0  0  0  0  0  0
    4.6410   -3.4820   25.6850 O   0  0  0  0  0  0  0  0  0  0  0  0
    6.6900   -2.4590   26.0980 N   0  0  0  0  0  0  0  0  0  0  0  0
    6.4050   -1.3960   27.0130 C   0  0  2  0  0  0  0  0  0  0  0  0
    6.5900   -1.6800   28.3560 C   0  0  0  0  0  0  0  0  0  0  0  0
    6.7000   -0.5810   29.1730 C   0  0  0  0  0  0  0  0  0  0  0  0
    6.3230    0.4970   28.4630 C   0  0  0  0  0  0  0  0  0  0  0  0
    6.0540    0.2800   27.1460 N   0  0  0  0  0  0  0  0  0  0  0  0
    6.0930    1.3730   26.3420 C   0  0  0  0  0  0  0  0  0  0  0  0
    5.9220    2.8490   26.6660 C   0  0  0  0  0  0  0  0  0  0  0  0
    6.1030    3.3480   25.2860 C   0  0  0  0  0  0  0  0  0  0  0  0
    6.3220    2.3960   24.3890 N   0  0  0  0  0  0  0  0  0  0  0  0
    6.3250    1.1890   24.9890 N   0  0  0  0  0  0  0  0  0  0  0  0
    6.5330   -0.1120   24.3600 C   0  0  0  0  0  0  0  0  0  0  0  0
    5.0850   -0.7290   26.8060 C   0  0  0  0  0  0  0  0  0  0  0  0
    4.0750   -0.0070   26.6750 O   0  0  0  0  0  0  0  0  0  0  0  0
    7.5360   -3.1950   23.5990 C   0  0  0  0  0  0  0  0  0  0  0  0
    7.6710   -3.2290   22.2370 C   0  0  0  0  0  0  0  0  0  0  0  0
  1  2  1  0
  2  3  2  0
  2  4  1  0
  4  5  1  0
  5  6  1  0
  6  7  1  0
  7  8  1  0
  8  9  2  0
  8 10  1  0
 11 10  1  6
 11 12  1  0
 12 13  1  0
 13 14  1  0
 14 15  1  0
 15 16  1  0
 16 17  2  0
 17 18  1  0
 18 19  2  0
 16 20  1  0
 19 20  1  0
 20 21  1  0
 11 22  1  0
 15 22  1  0
 22 23  2  0
  7 24  1  0
  4 25  1  0
 24 25  1  0
M  END
