piperidine-amides-30968-covalent
     RDKit          3D

 27 28  0  0  0  0  0  0  0  0999 V2000
    7.1020   -3.2890   19.2040 C   0  0  0  0  0  0  0  0  0  0  0  0
    6.3450   -4.0730   20.1840 C   0  0  0  0  0  0  0  0  0  0  0  0
    5.2550   -4.5690   19.8780 O   0  0  0  0  0  0  0  0  0  0  0  0
    6.8580   -4.3270   21.4500 N   0  0  0  0  0  0  0  0  0  0  0  0
    7.6600   -3.3270   22.1240 C   0  0  0  0  0  0  0  0  0  0  0  0
    6.8710   -2.9320   23.3260 C   0  0  0  0  0  0  0  0  0  0  0  0
    6.5280   -4.1560   24.1080 C   0  0  0  0  0  0  0  0  0  0  0  0
    5.7630   -3.8170   25.3120 C   0  0  0  0  0  0  0  0  0  0  0  0
    4.5890   -3.3390   25.2320 O   0  0  0  0  0  0  0  0  0  0  0  0
    6.2990   -3.9960   26.5940 N   0  0  0  0  0  0  0  0  0  0  0  0
    5.4600   -3.5360   27.7240 C   0  0  0  0  0  0  0  0  0  0  0  0
    5.8620   -4.3450   28.8750 C   0  0  0  0  0  0  0  0  0  0  0  0
    6.9000   -5.3300   28.5370 C   0  0  0  0  0  0  0  0  0  0  0  0
    8.1370   -4.6860   27.9710 C   0  0  1  0  0  0  0  0  0  0  0  0
    9.1540   -5.7110   27.5560 C   0  0  0  0  0  0  0  0  0  0  0  0
    7.7070   -3.8530   26.7340 C   0  0  1  0  0  0  0  0  0  0  0  0
    8.4310   -4.1420   25.5910 C   0  0  0  0  0  0  0  0  0  0  0  0
    9.8270   -3.6490   25.6590 N   0  0  0  0  0  0  0  0  0  0  0  0
   10.2030   -2.7400   24.5790 C   0  0  0  0  0  0  0  0  0  0  0  0
    9.4090   -1.6170   24.3550 O   0  0  0  0  0  0  0  0  0  0  0  0
   11.3200   -2.9800   23.7680 O   0  0  0  0  0  0  0  0  0  0  0  0
   12.3890   -2.0650   23.6770 C   0  0  0  0  0  0  0  0  0  0  0  0
   13.3730   -2.1080   24.8500 C   0  0  0  0  0  0  0  0  0  0  0  0
   13.1260   -2.4050   22.3850 C   0  0  0  0  0  0  0  0  0  0  0  0
   12.0140   -0.6010   23.4830 C   0  0  0  0  0  0  0  0  0  0  0  0
    5.8360   -5.2140   23.3580 C   0  0  0  0  0  0  0  0  0  0  0  0
    6.4620   -5.4950   22.1710 C   0  0  0  0  0  0  0  0  0  0  0  0
  1  2  1  0
  2  3  2  0
  2  4  1  0
  4  5  1  0
  5  6  1  0
  6  7  1  0
  7  8  1  0
  8  9  2  0
  8 10  1  0
 10 11  1  0
 11 12  1  0
 12 13  1  0
 13 14  1  0
 14 15  1  6
 10 16  1  0
 14 16  1  0
 16 17  1  6
 17 18  1  0
 18 19  1  0
 19 20  2  0
 19 21  1  0
 22 21  1  0
 22 23  1  0
 22 24  1  0
 22 25  1  0
  7 26  1  0
  4 27  1  0
 26 27  1  0
M  END
