piperidine-amides-4068-covalent
     RDKit          3D

 28 30  0  0  0  0  0  0  0  0999 V2000
    7.1300   -3.2860   19.2260 C   0  0  0  0  0  0  0  0  0  0  0  0
    6.4020   -4.0570   20.2520 C   0  0  0  0  0  0  0  0  0  0  0  0
    5.3150   -4.5810   19.9010 O   0  0  0  0  0  0  0  0  0  0  0  0
    6.9440   -4.2380   21.5530 N   0  0  0  0  0  0  0  0  0  0  0  0
    6.4850   -5.3390   22.3260 C   0  0  0  0  0  0  0  0  0  0  0  0
    6.0730   -4.9470   23.6710 C   0  0  0  0  0  0  0  0  0  0  0  0
    5.8740   -3.4850   23.8360 C   0  0  0  0  0  0  0  0  0  0  0  0
    5.1950   -3.1090   25.1240 C   0  0  0  0  0  0  0  0  0  0  0  0
    4.0640   -2.5980   25.0610 O   0  0  0  0  0  0  0  0  0  0  0  0
    5.7510   -3.3030   26.4000 N   0  0  0  0  0  0  0  0  0  0  0  0
    5.5030   -4.3610   27.3010 C   0  0  1  0  0  0  0  0  0  0  0  0
    5.6220   -5.7480   26.8440 C   0  0  0  0  0  0  0  0  0  0  0  0
    6.5490   -4.3060   28.3400 C   0  0  1  0  0  0  0  0  0  0  0  0
    6.6070   -5.2860   29.3250 O   0  0  0  0  0  0  0  0  0  0  0  0
    5.3550   -5.9000   29.5320 C   0  0  0  0  0  0  0  0  0  0  0  0
    5.5550   -6.9960   30.5850 C   0  0  0  0  0  0  0  0  0  0  0  0
    4.1310   -7.4210   30.4730 C   0  0  0  0  0  0  0  0  0  0  0  0
    3.1050   -6.5560   30.8600 O   0  0  0  0  0  0  0  0  0  0  0  0
    3.3890   -5.1760   30.8910 C   0  0  0  0  0  0  0  0  0  0  0  0
    4.4020   -4.9110   29.8000 C   0  0  0  0  0  0  0  0  0  0  0  0
    7.5640   -4.4890   27.4400 C   0  0  0  0  0  0  0  0  0  0  0  0
    8.0110   -3.6790   26.1940 C   0  0  0  0  0  0  0  0  0  0  0  0
    9.1560   -4.2100   25.4410 C   0  0  0  0  0  0  0  0  0  0  0  0
    9.7970   -5.3470   25.8260 C   0  0  0  0  0  0  0  0  0  0  0  0
    9.4070   -6.0350   26.8770 C   0  0  0  0  0  0  0  0  0  0  0  0
    8.2690   -5.6110   27.7140 C   0  0  0  0  0  0  0  0  0  0  0  0
    7.1410   -2.7380   23.5270 C   0  0  0  0  0  0  0  0  0  0  0  0
    7.6550   -3.1450   22.1580 C   0  0  0  0  0  0  0  0  0  0  0  0
  1  2  1  0
  2  3  2  0
  2  4  1  0
  4  5  1  0
  5  6  1  0
  6  7  1  0
  7  8  1  0
  8  9  2  0
  8 10  1  0
 10 11  1  0
 11 12  1  6
 11 13  1  0
 13 14  1  1
 14 15  1  0
 15 16  1  0
 16 17  1  0
 17 18  1  0
 18 19  1  0
 15 20  1  0
 19 20  1  0
 13 21  1  0
 21 22  2  0
 22 23  1  0
 23 24  2  0
 24 25  1  0
 21 26  1  0
 25 26  2  0
  7 27  1  0
  4 28  1  0
 27 28  1  0
M  END
