piperidine-amides-29386-covalent
     RDKit          3D

 26 27  0  0  0  0  0  0  0  0999 V2000
    7.0630   -3.3440   19.2930 C   0  0  0  0  0  0  0  0  0  0  0  0
    6.4080   -4.1870   20.2930 C   0  0  0  0  0  0  0  0  0  0  0  0
    5.3670   -4.7830   19.9640 O   0  0  0  0  0  0  0  0  0  0  0  0
    6.9880   -4.3560   21.5730 N   0  0  0  0  0  0  0  0  0  0  0  0
    6.6350   -5.5180   22.3300 C   0  0  0  0  0  0  0  0  0  0  0  0
    5.8350   -5.0800   23.5170 C   0  0  0  0  0  0  0  0  0  0  0  0
    6.6670   -4.0710   24.2910 C   0  0  0  0  0  0  0  0  0  0  0  0
    5.8690   -3.5580   25.4510 C   0  0  0  0  0  0  0  0  0  0  0  0
    4.7600   -3.0940   25.1800 O   0  0  0  0  0  0  0  0  0  0  0  0
    6.4150   -3.6330   26.7290 N   0  0  0  0  0  0  0  0  0  0  0  0
    7.7070   -4.1300   26.9570 C   0  0  0  0  0  0  0  0  0  0  0  0
    7.6040   -4.7850   28.1620 C   0  0  0  0  0  0  0  0  0  0  0  0
    6.3350   -4.5340   28.6640 C   0  0  0  0  0  0  0  0  0  0  0  0
    5.4880   -3.7620   27.8580 C   0  0  2  0  0  0  0  0  0  0  0  0
    4.4450   -4.7960   27.5530 C   0  0  0  0  0  0  0  0  0  0  0  0
    5.0660   -5.8740   26.9680 O   0  0  0  0  0  0  0  0  0  0  0  0
    4.4470   -7.0530   27.3990 C   0  0  0  0  0  0  0  0  0  0  0  0
    5.0280   -2.5590   28.4060 C   0  0  0  0  0  0  0  0  0  0  0  0
    5.2620   -1.2740   27.9660 O   0  0  0  0  0  0  0  0  0  0  0  0
    4.2400   -2.6530   29.5410 O   0  0  0  0  0  0  0  0  0  0  0  0
    4.1230   -1.5690   30.4440 C   0  0  0  0  0  0  0  0  0  0  0  0
    3.1910   -0.4820   29.8540 C   0  0  0  0  0  0  0  0  0  0  0  0
    3.6130   -1.8390   31.6950 C   0  0  0  0  0  0  0  0  0  0  0  0
    5.4540   -0.8470   30.6250 C   0  0  0  0  0  0  0  0  0  0  0  0
    7.0820   -2.8900   23.4710 C   0  0  0  0  0  0  0  0  0  0  0  0
    7.7410   -3.3020   22.1970 C   0  0  0  0  0  0  0  0  0  0  0  0
  1  2  1  0
  2  3  2  0
  2  4  1  0
  4  5  1  0
  5  6  1  0
  6  7  1  0
  7  8  1  0
  8  9  2  0
  8 10  1  0
 10 11  1  0
 11 12  1  0
 12 13  1  0
 10 14  1  0
 13 14  1  0
 14 15  1  6
 15 16  1  0
 16 17  1  0
 14 18  1  0
 18 19  2  0
 18 20  1  0
 21 20  1  0
 21 22  1  0
 21 23  1  0
 21 24  1  0
  7 25  1  0
  4 26  1  0
 25 26  1  0
M  END
