piperidine-amides-4371-covalent
     RDKit          3D

 26 27  0  0  0  0  0  0  0  0999 V2000
    7.0980   -3.3300   19.3200 C   0  0  0  0  0  0  0  0  0  0  0  0
    6.3470   -4.1060   20.3210 C   0  0  0  0  0  0  0  0  0  0  0  0
    5.3010   -4.6730   19.9260 O   0  0  0  0  0  0  0  0  0  0  0  0
    6.8120   -4.2500   21.6500 N   0  0  0  0  0  0  0  0  0  0  0  0
    7.6450   -3.2360   22.1940 C   0  0  0  0  0  0  0  0  0  0  0  0
    7.3060   -2.9780   23.5650 C   0  0  0  0  0  0  0  0  0  0  0  0
    6.0500   -3.6450   23.9300 C   0  0  0  0  0  0  0  0  0  0  0  0
    5.6200   -3.2450   25.3040 C   0  0  0  0  0  0  0  0  0  0  0  0
    4.4160   -3.2930   25.6150 O   0  0  0  0  0  0  0  0  0  0  0  0
    6.5640   -2.8100   26.2400 N   0  0  0  0  0  0  0  0  0  0  0  0
    6.5310   -1.6930   27.1030 C   0  0  0  0  0  0  0  0  0  0  0  0
    7.0290   -1.6830   28.4790 C   0  0  0  0  0  0  0  0  0  0  0  0
    6.9330   -0.3910   29.3210 C   0  0  0  0  0  0  0  0  0  0  0  0
    6.3770    0.7600   28.7860 C   0  0  0  0  0  0  0  0  0  0  0  0
    6.2820    1.9210   29.5230 O   0  0  0  0  0  0  0  0  0  0  0  0
    6.4660    1.7100   30.8840 C   0  0  0  0  0  0  0  0  0  0  0  0
    5.4490    0.6840   31.2760 C   0  0  0  0  0  0  0  0  0  0  0  0
    6.0810    2.9380   31.7430 C   0  0  0  0  0  0  0  0  0  0  0  0
    5.8860    0.8290   27.4940 C   0  0  0  0  0  0  0  0  0  0  0  0
    5.2660    2.0640   26.8500 C   0  0  0  0  0  0  0  0  0  0  0  0
    5.7060    2.2050   25.5640 F   0  0  0  0  0  0  0  0  0  0  0  0
    3.9080    2.1160   27.0080 F   0  0  0  0  0  0  0  0  0  0  0  0
    5.7430    3.2000   27.4280 F   0  0  0  0  0  0  0  0  0  0  0  0
    5.9520   -0.3880   26.6290 C   0  0  0  0  0  0  0  0  0  0  0  0
    6.1340   -5.1360   23.7310 C   0  0  0  0  0  0  0  0  0  0  0  0
    6.5720   -5.4530   22.4240 C   0  0  0  0  0  0  0  0  0  0  0  0
  1  2  1  0
  2  3  2  0
  2  4  1  0
  4  5  1  0
  5  6  1  0
  6  7  1  0
  7  8  1  0
  8  9  2  0
  8 10  1  0
 10 11  1  0
 11 12  2  0
 12 13  1  0
 13 14  2  0
 14 15  1  0
 15 16  1  0
 16 17  1  0
 16 18  1  0
 14 19  1  0
 19 20  1  0
 20 21  1  0
 20 22  1  0
 20 23  1  0
 11 24  1  0
 19 24  2  0
  7 25  1  0
  4 26  1  0
 25 26  1  0
M  END
