piperidine-amides-8830-covalent
     RDKit          3D

 22 24  0  0  0  0  0  0  0  0999 V2000
    7.0810   -3.2590   19.2440 C   0  0  0  0  0  0  0  0  0  0  0  0
    6.3350   -4.0270   20.2370 C   0  0  0  0  0  0  0  0  0  0  0  0
    5.2660   -4.5540   19.8840 O   0  0  0  0  0  0  0  0  0  0  0  0
    6.8440   -4.2080   21.5460 N   0  0  0  0  0  0  0  0  0  0  0  0
    6.4620   -5.3830   22.2740 C   0  0  0  0  0  0  0  0  0  0  0  0
    5.6240   -4.9670   23.4440 C   0  0  0  0  0  0  0  0  0  0  0  0
    6.4500   -3.9360   24.1670 C   0  0  0  0  0  0  0  0  0  0  0  0
    5.6690   -3.3750   25.3230 C   0  0  0  0  0  0  0  0  0  0  0  0
    4.5510   -2.9440   25.0460 O   0  0  0  0  0  0  0  0  0  0  0  0
    6.2340   -3.3680   26.6020 N   0  0  0  0  0  0  0  0  0  0  0  0
    6.1670   -4.4910   27.4970 C   0  0  0  0  0  0  0  0  0  0  0  0
    4.8950   -4.8700   27.9630 C   0  0  0  0  0  0  0  0  0  0  0  0
    4.5920   -6.2200   28.1070 C   0  0  0  0  0  0  0  0  0  0  0  0
    3.3560   -6.6250   28.5670 C   0  0  0  0  0  0  0  0  0  0  0  0
    2.3680   -5.7090   28.9060 N   0  0  0  0  0  0  0  0  0  0  0  0
    1.0280   -5.9010   29.4010 C   0  0  0  0  0  0  0  0  0  0  0  0
    0.5080   -4.4510   29.5580 C   0  0  0  0  0  0  0  0  0  0  0  0
    1.4400   -3.5500   29.1940 N   0  0  0  0  0  0  0  0  0  0  0  0
    2.5790   -4.3220   28.7970 C   0  0  0  0  0  0  0  0  0  0  0  0
    3.9360   -3.8870   28.2910 C   0  0  0  0  0  0  0  0  0  0  0  0
    6.9200   -2.8060   23.3580 C   0  0  0  0  0  0  0  0  0  0  0  0
    7.6160   -3.1910   22.2350 C   0  0  0  0  0  0  0  0  0  0  0  0
  1  2  1  0
  2  3  2  0
  2  4  1  0
  4  5  1  0
  5  6  1  0
  6  7  1  0
  7  8  1  0
  8  9  2  0
  8 10  1  0
 10 11  1  0
 11 12  1  0
 12 13  1  0
 13 14  2  0
 14 15  1  0
 15 16  1  0
 16 17  2  0
 17 18  1  0
 15 19  1  0
 18 19  2  0
 12 20  2  0
 19 20  1  0
  7 21  1  0
  4 22  1  0
 21 22  1  0
M  END
