piperidine-amides-6701-covalent
     RDKit          3D

 22 24  0  0  0  0  0  0  0  0999 V2000
    7.1310   -3.2610   19.1660 C   0  0  0  0  0  0  0  0  0  0  0  0
    6.3830   -4.0160   20.1860 C   0  0  0  0  0  0  0  0  0  0  0  0
    5.3020   -4.5690   19.8940 O   0  0  0  0  0  0  0  0  0  0  0  0
    6.9010   -4.1740   21.4760 N   0  0  0  0  0  0  0  0  0  0  0  0
    6.5450   -5.3500   22.2310 C   0  0  0  0  0  0  0  0  0  0  0  0
    5.6970   -4.8490   23.3990 C   0  0  0  0  0  0  0  0  0  0  0  0
    6.5540   -3.8340   24.1270 C   0  0  0  0  0  0  0  0  0  0  0  0
    5.7770   -3.2710   25.2360 C   0  0  0  0  0  0  0  0  0  0  0  0
    4.5580   -3.0630   25.0690 O   0  0  0  0  0  0  0  0  0  0  0  0
    6.4220   -2.9770   26.4520 N   0  0  0  0  0  0  0  0  0  0  0  0
    6.1620   -3.8180   27.5790 C   0  0  0  0  0  0  0  0  0  0  0  0
    5.0360   -3.1940   28.3670 C   0  0  0  0  0  0  0  0  0  0  0  0
    5.0620   -3.3640   29.6520 C   0  0  0  0  0  0  0  0  0  0  0  0
    3.9020   -3.8960   29.5170 C   0  0  0  0  0  0  0  0  0  0  0  0
    3.6540   -3.8020   28.1040 C   0  0  0  0  0  0  0  0  0  0  0  0
    2.9270   -3.6190   30.3880 C   0  0  0  0  0  0  0  0  0  0  0  0
    2.5330   -4.8280   31.2250 C   0  0  0  0  0  0  0  0  0  0  0  0
    1.3180   -5.4250   31.1080 F   0  0  0  0  0  0  0  0  0  0  0  0
    2.9950   -4.8200   32.5430 F   0  0  0  0  0  0  0  0  0  0  0  0
    3.6360   -5.0540   30.1700 C   0  0  0  0  0  0  0  0  0  0  0  0
    7.0300   -2.7080   23.3150 C   0  0  0  0  0  0  0  0  0  0  0  0
    7.6710   -3.1430   22.0890 C   0  0  0  0  0  0  0  0  0  0  0  0
  1  2  1  0
  2  3  2  0
  2  4  1  0
  4  5  1  0
  5  6  1  0
  6  7  1  0
  7  8  1  0
  8  9  2  0
  8 10  1  0
 10 11  1  0
 11 12  1  0
 12 13  1  0
 14 13  1  0
 12 15  1  0
 14 15  1  0
 14 16  1  0
 16 17  1  0
 17 18  1  0
 17 19  1  0
 14 20  1  0
 17 20  1  0
  7 21  1  0
  4 22  1  0
 21 22  1  0
M  END
