piperidine-amides-2994-covalent
     RDKit          3D

 23 24  0  0  0  0  0  0  0  0999 V2000
    7.1460   -3.2620   19.1940 C   0  0  0  0  0  0  0  0  0  0  0  0
    6.3680   -4.0120   20.1770 C   0  0  0  0  0  0  0  0  0  0  0  0
    5.2870   -4.5080   19.8680 O   0  0  0  0  0  0  0  0  0  0  0  0
    6.8980   -4.2200   21.4870 N   0  0  0  0  0  0  0  0  0  0  0  0
    7.6740   -3.1780   22.1080 C   0  0  0  0  0  0  0  0  0  0  0  0
    6.9440   -2.6260   23.2930 C   0  0  0  0  0  0  0  0  0  0  0  0
    6.5910   -3.7920   24.1960 C   0  0  0  0  0  0  0  0  0  0  0  0
    5.8230   -3.2840   25.3600 C   0  0  0  0  0  0  0  0  0  0  0  0
    4.5980   -3.0650   25.3000 O   0  0  0  0  0  0  0  0  0  0  0  0
    6.5120   -3.0440   26.5710 N   0  0  0  0  0  0  0  0  0  0  0  0
    5.8300   -3.3770   27.7970 C   0  0  1  0  0  0  0  0  0  0  0  0
    6.4840   -4.5580   28.4820 C   0  0  0  0  0  0  0  0  0  0  0  0
    6.2360   -5.6330   27.6070 F   0  0  0  0  0  0  0  0  0  0  0  0
    5.8300   -2.2060   28.7120 C   0  0  0  0  0  0  0  0  0  0  0  0
    7.0490   -1.7340   29.2750 C   0  0  0  0  0  0  0  0  0  0  0  0
    7.0710   -0.6510   30.1320 C   0  0  0  0  0  0  0  0  0  0  0  0
    5.8440    0.0160   30.4610 C   0  0  0  0  0  0  0  0  0  0  0  0
    5.9790    1.0830   31.3260 F   0  0  0  0  0  0  0  0  0  0  0  0
    4.6880   -0.4310   29.9240 C   0  0  0  0  0  0  0  0  0  0  0  0
    4.6680   -1.5120   29.0720 C   0  0  0  0  0  0  0  0  0  0  0  0
    3.3990   -1.8520   28.6040 F   0  0  0  0  0  0  0  0  0  0  0  0
    5.9240   -4.9560   23.5520 C   0  0  0  0  0  0  0  0  0  0  0  0
    6.4350   -5.3290   22.2370 C   0  0  0  0  0  0  0  0  0  0  0  0
  1  2  1  0
  2  3  2  0
  2  4  1  0
  4  5  1  0
  5  6  1  0
  6  7  1  0
  7  8  1  0
  8  9  2  0
  8 10  1  0
 10 11  1  0
 11 12  1  1
 12 13  1  0
 11 14  1  0
 14 15  2  0
 15 16  1  0
 16 17  2  0
 17 18  1  0
 17 19  1  0
 14 20  1  0
 19 20  2  0
 20 21  1  0
  7 22  1  0
  4 23  1  0
 22 23  1  0
M  END
