piperidine-amides-14507-covalent
     RDKit          3D

 23 25  0  0  0  0  0  0  0  0999 V2000
    7.0950   -3.3700   19.3510 C   0  0  0  0  0  0  0  0  0  0  0  0
    6.4020   -4.1970   20.3230 C   0  0  0  0  0  0  0  0  0  0  0  0
    5.3550   -4.7700   19.9690 O   0  0  0  0  0  0  0  0  0  0  0  0
    6.9640   -4.3800   21.6130 N   0  0  0  0  0  0  0  0  0  0  0  0
    7.5980   -3.2580   22.2410 C   0  0  0  0  0  0  0  0  0  0  0  0
    6.6910   -2.7500   23.3220 C   0  0  0  0  0  0  0  0  0  0  0  0
    6.4850   -3.8970   24.2890 C   0  0  0  0  0  0  0  0  0  0  0  0
    5.6940   -3.4240   25.4810 C   0  0  0  0  0  0  0  0  0  0  0  0
    4.4730   -3.5240   25.3850 O   0  0  0  0  0  0  0  0  0  0  0  0
    6.3590   -2.9010   26.5910 N   0  0  0  0  0  0  0  0  0  0  0  0
    6.8610   -1.5680   26.5470 C   0  0  1  0  0  0  0  0  0  0  0  0
    5.9510   -0.5200   26.4260 C   0  0  0  0  0  0  0  0  0  0  0  0
    6.0080    0.5760   27.3440 C   0  0  0  0  0  0  0  0  0  0  0  0
    6.3090    0.2590   28.6830 O   0  0  0  0  0  0  0  0  0  0  0  0
    7.1040   -0.6710   29.1680 C   0  0  0  0  0  0  0  0  0  0  0  0
    7.0310    0.1330   30.6180 C   0  0  0  0  0  0  0  0  0  0  0  0
    6.0820    1.2780   30.1530 C   0  0  0  0  0  0  0  0  0  0  0  0
    7.6490   -0.8720   30.3770 C   0  0  0  0  0  0  0  0  0  0  0  0
    6.7360   -0.0130   29.4360 C   0  0  0  0  0  0  0  0  0  0  0  0
    6.1380    0.1830   28.0470 C   0  0  0  0  0  0  0  0  0  0  0  0
    6.7500   -0.8230   27.7850 C   0  0  0  0  0  0  0  0  0  0  0  0
    5.6890   -4.9620   23.5840 C   0  0  0  0  0  0  0  0  0  0  0  0
    6.4440   -5.4700   22.3830 C   0  0  0  0  0  0  0  0  0  0  0  0
  1  2  1  0
  2  3  2  0
  2  4  1  0
  4  5  1  0
  5  6  1  0
  6  7  1  0
  7  8  1  0
  8  9  2  0
  8 10  1  0
 11 10  1  1
 11 12  1  0
 12 13  1  0
 13 14  1  0
 14 15  1  0
 15 16  2  0
 16 17  1  0
 16 18  1  0
 18 19  2  0
 19 20  1  0
 11 21  1  0
 15 21  1  0
 20 21  2  0
  7 22  1  0
  4 23  1  0
 22 23  1  0
M  END
