piperidine-amides-28013-covalent
     RDKit          3D

 25 27  0  0  0  0  0  0  0  0999 V2000
    7.0860   -3.3330   19.2220 C   0  0  0  0  0  0  0  0  0  0  0  0
    6.4040   -4.1300   20.2660 C   0  0  0  0  0  0  0  0  0  0  0  0
    5.3400   -4.6890   19.9350 O   0  0  0  0  0  0  0  0  0  0  0  0
    6.9720   -4.2830   21.5370 N   0  0  0  0  0  0  0  0  0  0  0  0
    6.5810   -5.3660   22.3740 C   0  0  0  0  0  0  0  0  0  0  0  0
    6.1030   -4.9560   23.6980 C   0  0  0  0  0  0  0  0  0  0  0  0
    6.6440   -3.6730   24.2230 C   0  0  0  0  0  0  0  0  0  0  0  0
    5.7650   -3.1420   25.2830 C   0  0  0  0  0  0  0  0  0  0  0  0
    4.6100   -2.7920   24.9740 O   0  0  0  0  0  0  0  0  0  0  0  0
    6.2040   -3.0350   26.6110 N   0  0  0  0  0  0  0  0  0  0  0  0
    6.3250   -1.7130   27.2690 C   0  0  0  0  0  0  0  0  0  0  0  0
    5.7510   -0.5200   26.6060 C   0  0  0  0  0  0  0  0  0  0  0  0
    5.9000    0.7250   27.3310 C   0  0  0  0  0  0  0  0  0  0  0  0
    6.5440    0.7380   28.5510 C   0  0  0  0  0  0  0  0  0  0  0  0
    7.0780   -0.4010   29.1440 C   0  0  0  0  0  0  0  0  0  0  0  0
    6.9930   -1.6220   28.5480 C   0  0  0  0  0  0  0  0  0  0  0  0
    5.9890   -4.1700   27.4800 C   0  0  0  0  0  0  0  0  0  0  0  0
    5.5810   -5.2820   26.8680 C   0  0  0  0  0  0  0  0  0  0  0  0
    5.3870   -6.3530   27.7240 C   0  0  0  0  0  0  0  0  0  0  0  0
    5.6270   -6.2220   29.1970 C   0  0  0  0  0  0  0  0  0  0  0  0
    5.4060   -7.5020   30.3490 Cl  0  0  0  0  0  0  0  0  0  0  0  0
    5.9820   -5.1630   29.5420 N   0  0  0  0  0  0  0  0  0  0  0  0
    6.1810   -4.1250   28.7820 N   0  0  0  0  0  0  0  0  0  0  0  0
    6.8730   -2.6210   23.2100 C   0  0  0  0  0  0  0  0  0  0  0  0
    7.7220   -3.2040   22.1380 C   0  0  0  0  0  0  0  0  0  0  0  0
  1  2  1  0
  2  3  2  0
  2  4  1  0
  4  5  1  0
  5  6  1  0
  6  7  1  0
  7  8  1  0
  8  9  2  0
  8 10  1  0
 10 11  1  0
 11 12  2  0
 12 13  1  0
 13 14  2  0
 14 15  1  0
 11 16  1  0
 15 16  2  0
 10 17  1  0
 17 18  2  0
 18 19  1  0
 19 20  2  0
 20 21  1  0
 20 22  1  0
 17 23  1  0
 22 23  2  0
  7 24  1  0
  4 25  1  0
 24 25  1  0
M  END
