piperidine-amides-9914-covalent
     RDKit          3D

 26 28  0  0  0  0  0  0  0  0999 V2000
    7.0920   -3.3430   19.3010 C   0  0  0  0  0  0  0  0  0  0  0  0
    6.3590   -4.1120   20.3080 C   0  0  0  0  0  0  0  0  0  0  0  0
    5.3010   -4.6750   19.9290 O   0  0  0  0  0  0  0  0  0  0  0  0
    6.8700   -4.2300   21.6000 N   0  0  0  0  0  0  0  0  0  0  0  0
    7.7220   -3.2040   22.1500 C   0  0  0  0  0  0  0  0  0  0  0  0
    7.0540   -2.6630   23.3680 C   0  0  0  0  0  0  0  0  0  0  0  0
    6.6000   -3.7790   24.2600 C   0  0  0  0  0  0  0  0  0  0  0  0
    5.7780   -3.2300   25.3710 C   0  0  0  0  0  0  0  0  0  0  0  0
    4.5440   -3.1570   25.1830 O   0  0  0  0  0  0  0  0  0  0  0  0
    6.3060   -2.7740   26.6180 N   0  0  0  0  0  0  0  0  0  0  0  0
    6.0660   -1.4080   27.1010 C   0  0  0  0  0  0  0  0  0  0  0  0
    7.0190   -1.6550   26.1690 C   0  0  0  0  0  0  0  0  0  0  0  0
    6.1290   -2.5630   26.8320 N   0  0  0  0  0  0  0  0  0  0  0  0
    5.5280   -1.3800   27.6180 N   0  0  0  0  0  0  0  0  0  0  0  0
    4.5420   -1.6520   28.5040 C   0  0  0  0  0  0  0  0  0  0  0  0
    4.8060   -2.9580   28.8680 C   0  0  0  0  0  0  0  0  0  0  0  0
    6.0750   -3.5300   28.8970 C   0  0  0  0  0  0  0  0  0  0  0  0
    6.2190   -4.8470   29.2710 C   0  0  0  0  0  0  0  0  0  0  0  0
    5.1700   -5.6460   29.6310 C   0  0  0  0  0  0  0  0  0  0  0  0
    5.5230   -7.4390   30.1280 Br  0  0  0  0  0  0  0  0  0  0  0  0
    3.7640   -5.1050   29.6330 C   0  0  0  0  0  0  0  0  0  0  0  0
    3.6540   -3.6470   29.2080 C   0  0  0  0  0  0  0  0  0  0  0  0
    2.0590   -2.9190   29.1770 Cl  0  0  0  0  0  0  0  0  0  0  0  0
    6.2090   -0.0980   27.2070 C   0  0  0  0  0  0  0  0  0  0  0  0
    5.7740   -4.8120   23.5300 C   0  0  0  0  0  0  0  0  0  0  0  0
    6.5250   -5.3350   22.4930 C   0  0  0  0  0  0  0  0  0  0  0  0
  1  2  1  0
  2  3  2  0
  2  4  1  0
  4  5  1  0
  5  6  1  0
  6  7  1  0
  7  8  1  0
  8  9  2  0
  8 10  1  0
 10 11  1  0
 11 12  1  0
 12 13  2  0
 13 14  1  0
 14 15  1  0
 15 16  1  0
 16 17  2  0
 17 18  1  0
 18 19  2  0
 19 20  1  0
 19 21  1  0
 16 22  1  0
 21 22  2  0
 22 23  1  0
 11 24  2  0
 14 24  1  0
  7 25  1  0
  4 26  1  0
 25 26  1  0
M  END
