piperidine-amides-23933-covalent
     RDKit          3D

 23 25  0  0  0  0  0  0  0  0999 V2000
    6.9920   -3.3950   19.4160 C   0  0  0  0  0  0  0  0  0  0  0  0
    6.3910   -4.2820   20.4330 C   0  0  0  0  0  0  0  0  0  0  0  0
    5.4320   -4.9830   20.0210 O   0  0  0  0  0  0  0  0  0  0  0  0
    6.8920   -4.3680   21.7760 N   0  0  0  0  0  0  0  0  0  0  0  0
    6.5190   -5.4910   22.5850 C   0  0  0  0  0  0  0  0  0  0  0  0
    5.9370   -5.0900   23.8660 C   0  0  0  0  0  0  0  0  0  0  0  0
    5.9520   -3.6240   24.0040 C   0  0  0  0  0  0  0  0  0  0  0  0
    5.1510   -3.0240   25.1650 C   0  0  0  0  0  0  0  0  0  0  0  0
    4.3090   -2.1730   24.8610 O   0  0  0  0  0  0  0  0  0  0  0  0
    5.2410   -3.3240   26.5530 N   0  0  0  0  0  0  0  0  0  0  0  0
    6.4110   -3.5810   27.1630 C   0  0  0  0  0  0  0  0  0  0  0  0
    6.7870   -3.1150   28.4810 C   0  0  0  0  0  0  0  0  0  0  0  0
    5.3510   -2.9900   29.5080 S   0  0  0  0  0  0  0  0  0  0  0  0
    4.0740   -3.8500   28.6760 C   0  0  2  0  0  0  0  0  0  0  0  0
    4.3530   -5.1660   29.0230 C   0  0  0  0  0  0  0  0  0  0  0  0
    5.8630   -5.1830   28.7300 C   0  0  0  0  0  0  0  0  0  0  0  0
    6.5390   -6.5160   29.0000 C   0  0  0  0  0  0  0  0  0  0  0  0
    5.5750   -7.5960   29.5190 C   0  0  0  0  0  0  0  0  0  0  0  0
    4.1100   -7.5140   29.7850 C   0  0  0  0  0  0  0  0  0  0  0  0
    3.5690   -6.1670   29.4830 C   0  0  0  0  0  0  0  0  0  0  0  0
    3.9920   -3.7290   27.1620 C   0  0  0  0  0  0  0  0  0  0  0  0
    7.3490   -3.1330   23.7830 C   0  0  0  0  0  0  0  0  0  0  0  0
    7.6200   -3.2560   22.3970 C   0  0  0  0  0  0  0  0  0  0  0  0
  1  2  1  0
  2  3  2  0
  2  4  1  0
  4  5  1  0
  5  6  1  0
  6  7  1  0
  7  8  1  0
  8  9  2  0
  8 10  1  0
 10 11  1  0
 11 12  1  0
 12 13  1  0
 13 14  1  0
 14 15  1  6
 15 16  2  0
 16 17  1  0
 17 18  2  0
 18 19  1  0
 15 20  1  0
 19 20  2  0
 10 21  1  0
 14 21  1  0
  7 22  1  0
  4 23  1  0
 22 23  1  0
M  END
