piperidine-amides-25727-covalent
     RDKit          3D

 25 28  0  0  0  0  0  0  0  0999 V2000
    7.0890   -3.3260   19.2580 C   0  0  0  0  0  0  0  0  0  0  0  0
    6.3920   -4.1570   20.2690 C   0  0  0  0  0  0  0  0  0  0  0  0
    5.3390   -4.6940   19.9370 O   0  0  0  0  0  0  0  0  0  0  0  0
    6.9760   -4.3470   21.5180 N   0  0  0  0  0  0  0  0  0  0  0  0
    6.6800   -5.4990   22.3190 C   0  0  0  0  0  0  0  0  0  0  0  0
    5.9410   -5.0550   23.5500 C   0  0  0  0  0  0  0  0  0  0  0  0
    6.7120   -3.9340   24.2660 C   0  0  0  0  0  0  0  0  0  0  0  0
    5.9100   -3.4940   25.4110 C   0  0  0  0  0  0  0  0  0  0  0  0
    4.9790   -2.6950   25.2490 O   0  0  0  0  0  0  0  0  0  0  0  0
    6.2120   -3.9840   26.6800 N   0  0  0  0  0  0  0  0  0  0  0  0
    6.9850   -5.1940   26.7860 C   0  0  0  0  0  0  0  0  0  0  0  0
    7.0470   -5.2350   28.2660 C   0  0  0  0  0  0  0  0  0  0  0  0
    6.2190   -4.3120   28.8160 C   0  0  0  0  0  0  0  0  0  0  0  0
    5.5050   -3.6330   27.8800 C   0  0  2  0  0  0  0  0  0  0  0  0
    4.1630   -3.9020   27.9570 C   0  0  0  0  0  0  0  0  0  0  0  0
    3.2570   -2.9690   28.2590 N   0  0  0  0  0  0  0  0  0  0  0  0
    1.9790   -3.7010   28.2400 C   0  0  0  0  0  0  0  0  0  0  0  0
    2.3330   -5.0940   27.8960 C   0  0  0  0  0  0  0  0  0  0  0  0
    3.6660   -5.1430   27.7420 N   0  0  0  0  0  0  0  0  0  0  0  0
    1.2420   -6.1200   27.7940 C   0  0  0  0  0  0  0  0  0  0  0  0
    0.4960   -5.7650   29.0310 C   0  0  0  0  0  0  0  0  0  0  0  0
   -0.2440   -4.4810   28.8410 C   0  0  0  0  0  0  0  0  0  0  0  0
    0.5640   -3.2340   28.4950 C   0  0  0  0  0  0  0  0  0  0  0  0
    6.9240   -2.7840   23.3200 C   0  0  0  0  0  0  0  0  0  0  0  0
    7.7120   -3.2770   22.1570 C   0  0  0  0  0  0  0  0  0  0  0  0
  1  2  1  0
  2  3  2  0
  2  4  1  0
  4  5  1  0
  5  6  1  0
  6  7  1  0
  7  8  1  0
  8  9  2  0
  8 10  1  0
 10 11  1  0
 11 12  1  0
 12 13  1  0
 10 14  1  0
 13 14  1  0
 14 15  1  6
 15 16  2  0
 16 17  1  0
 17 18  2  0
 15 19  1  0
 18 19  1  0
 18 20  1  0
 20 21  1  0
 21 22  1  0
 17 23  1  0
 22 23  1  0
  7 24  1  0
  4 25  1  0
 24 25  1  0
M  END
