piperidine-amides-27214-covalent
     RDKit          3D

 25 26  0  0  0  0  0  0  0  0999 V2000
    7.1650   -3.2960   19.2420 C   0  0  0  0  0  0  0  0  0  0  0  0
    6.3770   -4.0100   20.2550 C   0  0  0  0  0  0  0  0  0  0  0  0
    5.2960   -4.5350   19.8810 O   0  0  0  0  0  0  0  0  0  0  0  0
    6.8650   -4.1130   21.5540 N   0  0  0  0  0  0  0  0  0  0  0  0
    7.5960   -3.0310   22.1680 C   0  0  0  0  0  0  0  0  0  0  0  0
    6.8690   -2.6180   23.4020 C   0  0  0  0  0  0  0  0  0  0  0  0
    6.5630   -3.8010   24.2710 C   0  0  0  0  0  0  0  0  0  0  0  0
    5.8170   -3.3360   25.4530 C   0  0  0  0  0  0  0  0  0  0  0  0
    4.5710   -3.2570   25.3600 O   0  0  0  0  0  0  0  0  0  0  0  0
    6.4220   -2.9650   26.6590 N   0  0  0  0  0  0  0  0  0  0  0  0
    6.7620   -1.5720   26.8460 C   0  0  0  0  0  0  0  0  0  0  0  0
    6.2250   -3.8550   27.7880 C   0  0  0  0  0  0  0  0  0  0  0  0
    5.7210   -3.1500   28.8170 C   0  0  0  0  0  0  0  0  0  0  0  0
    4.4270   -3.5330   29.2660 O   0  0  0  0  0  0  0  0  0  0  0  0
    6.4650   -2.1450   29.3450 N   0  0  0  0  0  0  0  0  0  0  0  0
    5.9170   -1.1530   30.0600 C   0  0  0  0  0  0  0  0  0  0  0  0
    6.7370   -0.3820   30.8690 C   0  0  0  0  0  0  0  0  0  0  0  0
    6.2030    0.6430   31.6180 C   0  0  0  0  0  0  0  0  0  0  0  0
    7.2150    1.2750   32.3520 F   0  0  0  0  0  0  0  0  0  0  0  0
    4.8700    0.9570   31.6130 C   0  0  0  0  0  0  0  0  0  0  0  0
    3.8530    0.2100   30.7850 C   0  0  0  0  0  0  0  0  0  0  0  0
    2.5440    0.6150   30.8620 F   0  0  0  0  0  0  0  0  0  0  0  0
    4.5540   -0.9020   29.9960 C   0  0  0  0  0  0  0  0  0  0  0  0
    5.7720   -4.8880   23.5330 C   0  0  0  0  0  0  0  0  0  0  0  0
    6.5930   -5.3180   22.3370 C   0  0  0  0  0  0  0  0  0  0  0  0
  1  2  1  0
  2  3  2  0
  2  4  1  0
  4  5  1  0
  5  6  1  0
  6  7  1  0
  7  8  1  0
  8  9  2  0
  8 10  1  0
 10 11  1  0
 10 12  1  0
 12 13  1  0
 13 14  2  0
 13 15  1  0
 15 16  1  0
 16 17  2  0
 17 18  1  0
 18 19  1  0
 18 20  2  0
 20 21  1  0
 21 22  1  0
 16 23  1  0
 21 23  2  0
  7 24  1  0
  4 25  1  0
 24 25  1  0
M  END
