piperidine-amides-5114-covalent
     RDKit          3D

 22 23  0  0  0  0  0  0  0  0999 V2000
    7.1150   -3.2650   19.2050 C   0  0  0  0  0  0  0  0  0  0  0  0
    6.3670   -4.0300   20.2320 C   0  0  0  0  0  0  0  0  0  0  0  0
    5.2850   -4.5320   19.8740 O   0  0  0  0  0  0  0  0  0  0  0  0
    6.8870   -4.2190   21.5180 N   0  0  0  0  0  0  0  0  0  0  0  0
    7.6340   -3.1790   22.1470 C   0  0  0  0  0  0  0  0  0  0  0  0
    7.1030   -2.7170   23.4270 C   0  0  0  0  0  0  0  0  0  0  0  0
    6.3490   -3.7210   24.2220 C   0  0  0  0  0  0  0  0  0  0  0  0
    5.4590   -3.0230   25.1890 C   0  0  0  0  0  0  0  0  0  0  0  0
    4.2330   -3.0310   24.9680 O   0  0  0  0  0  0  0  0  0  0  0  0
    5.9650   -2.3740   26.3350 N   0  0  0  0  0  0  0  0  0  0  0  0
    6.4420   -3.1570   27.4810 C   0  0  1  0  0  0  0  0  0  0  0  0
    5.3580   -4.0140   28.0180 C   0  0  0  0  0  0  0  0  0  0  0  0
    7.4750   -4.0240   26.9960 C   0  0  0  0  0  0  0  0  0  0  0  0
    8.2010   -3.7020   25.8940 C   0  0  0  0  0  0  0  0  0  0  0  0
    9.1890   -4.4700   25.3540 C   0  0  0  0  0  0  0  0  0  0  0  0
    9.4830   -5.6450   25.9680 C   0  0  0  0  0  0  0  0  0  0  0  0
    8.7860   -5.9940   27.0610 C   0  0  0  0  0  0  0  0  0  0  0  0
    7.8350   -5.2030   27.5240 C   0  0  0  0  0  0  0  0  0  0  0  0
    6.9970   -5.7340   28.9130 S   0  0  0  0  0  0  0  0  0  0  0  0
    5.6400   -6.5310   28.2500 C   0  0  0  0  0  0  0  0  0  0  0  0
    5.6000   -4.7460   23.4450 C   0  0  0  0  0  0  0  0  0  0  0  0
    6.4830   -5.3280   22.3710 C   0  0  0  0  0  0  0  0  0  0  0  0
  1  2  1  0
  2  3  2  0
  2  4  1  0
  4  5  1  0
  5  6  1  0
  6  7  1  0
  7  8  1  0
  8  9  2  0
  8 10  1  0
 10 11  1  0
 11 12  1  6
 11 13  1  0
 13 14  2  0
 14 15  1  0
 15 16  2  0
 16 17  1  0
 13 18  1  0
 17 18  2  0
 18 19  1  0
 19 20  1  0
  7 21  1  0
  4 22  1  0
 21 22  1  0
M  END
