piperidine-amides-4357-covalent
     RDKit          3D

 26 27  0  0  0  0  0  0  0  0999 V2000
    7.1200   -3.3020   19.2560 C   0  0  0  0  0  0  0  0  0  0  0  0
    6.3970   -4.1020   20.2570 C   0  0  0  0  0  0  0  0  0  0  0  0
    5.3040   -4.6000   19.9020 O   0  0  0  0  0  0  0  0  0  0  0  0
    6.9440   -4.3550   21.5340 N   0  0  0  0  0  0  0  0  0  0  0  0
    7.6260   -3.2770   22.1710 C   0  0  0  0  0  0  0  0  0  0  0  0
    7.1500   -2.9270   23.5010 C   0  0  0  0  0  0  0  0  0  0  0  0
    6.4390   -3.9890   24.2440 C   0  0  0  0  0  0  0  0  0  0  0  0
    5.6980   -3.4010   25.4020 C   0  0  0  0  0  0  0  0  0  0  0  0
    4.4690   -3.2210   25.3050 O   0  0  0  0  0  0  0  0  0  0  0  0
    6.3410   -3.0360   26.5990 N   0  0  0  0  0  0  0  0  0  0  0  0
    6.3370   -1.7420   27.1670 C   0  0  0  0  0  0  0  0  0  0  0  0
    5.8520   -0.4920   26.5860 C   0  0  0  0  0  0  0  0  0  0  0  0
    5.9400    0.8260   27.4080 C   0  0  0  0  0  0  0  0  0  0  0  0
    6.4680    0.8960   28.7010 C   0  0  0  0  0  0  0  0  0  0  0  0
    6.9390   -0.4770   29.1910 C   0  0  0  0  0  0  0  0  0  0  0  0
    7.4700   -0.4750   30.4770 O   0  0  0  0  0  0  0  0  0  0  0  0
    7.4010    0.7990   31.0430 C   0  0  0  0  0  0  0  0  0  0  0  0
    7.6760    0.7820   32.5530 C   0  0  0  0  0  0  0  0  0  0  0  0
    6.6210    0.4840   33.4660 N   0  0  0  0  0  0  0  0  0  0  0  0
    5.4770    0.1870   32.7000 C   0  0  0  0  0  0  0  0  0  0  0  0
    4.3930   -0.5980   33.4260 C   0  0  0  0  0  0  0  0  0  0  0  0
    6.8330   -0.2050   34.6840 C   0  0  0  0  0  0  0  0  0  0  0  0
    8.2200   -0.6360   35.0060 C   0  0  0  0  0  0  0  0  0  0  0  0
    6.8830   -1.6450   28.5120 C   0  0  0  0  0  0  0  0  0  0  0  0
    5.5870   -4.8970   23.4310 C   0  0  0  0  0  0  0  0  0  0  0  0
    6.4180   -5.4410   22.3020 C   0  0  0  0  0  0  0  0  0  0  0  0
  1  2  1  0
  2  3  2  0
  2  4  1  0
  4  5  1  0
  5  6  1  0
  6  7  1  0
  7  8  1  0
  8  9  2  0
  8 10  1  0
 10 11  1  0
 11 12  2  0
 12 13  1  0
 13 14  2  0
 14 15  1  0
 15 16  1  0
 16 17  1  0
 17 18  1  0
 18 19  1  0
 19 20  1  0
 20 21  1  0
 19 22  1  0
 22 23  1  0
 11 24  1  0
 15 24  2  0
  7 25  1  0
  4 26  1  0
 25 26  1  0
M  END
