piperidine-amides-34149-covalent
     RDKit          3D

 30 32  0  0  0  0  0  0  0  0999 V2000
    7.0850   -3.3330   19.2630 C   0  0  0  0  0  0  0  0  0  0  0  0
    6.4090   -4.1680   20.2670 C   0  0  0  0  0  0  0  0  0  0  0  0
    5.3710   -4.7990   19.9680 O   0  0  0  0  0  0  0  0  0  0  0  0
    6.9540   -4.3100   21.5490 N   0  0  0  0  0  0  0  0  0  0  0  0
    6.6260   -5.4760   22.3250 C   0  0  0  0  0  0  0  0  0  0  0  0
    5.8550   -4.9540   23.5380 C   0  0  0  0  0  0  0  0  0  0  0  0
    6.7160   -3.8660   24.1590 C   0  0  0  0  0  0  0  0  0  0  0  0
    5.9400   -3.1950   25.2170 C   0  0  0  0  0  0  0  0  0  0  0  0
    5.2230   -2.2330   24.8770 O   0  0  0  0  0  0  0  0  0  0  0  0
    5.9380   -3.6120   26.5600 N   0  0  0  0  0  0  0  0  0  0  0  0
    4.6880   -3.3770   27.1770 C   0  0  0  0  0  0  0  0  0  0  0  0
    4.4640   -4.5100   28.1090 C   0  0  0  0  0  0  0  0  0  0  0  0
    5.5370   -5.0630   28.6950 C   0  0  0  0  0  0  0  0  0  0  0  0
    6.4980   -4.1010   28.8350 C   0  0  0  0  0  0  0  0  0  0  0  0
    6.3930   -3.1110   27.8390 C   0  0  0  0  0  0  0  0  0  0  0  0
    5.9460   -6.1710   27.9400 C   0  0  0  0  0  0  0  0  0  0  0  0
    4.9730   -7.0710   28.1810 N   0  0  0  0  0  0  0  0  0  0  0  0
    4.1530   -7.1690   27.1160 C   0  0  0  0  0  0  0  0  0  0  0  0
    4.9620   -7.8060   29.3810 C   0  0  0  0  0  0  0  0  0  0  0  0
    5.5680   -6.7990   30.2850 C   0  0  0  0  0  0  0  0  0  0  0  0
    5.3160   -5.5500   29.9540 N   0  0  0  0  0  0  0  0  0  0  0  0
    4.1040   -5.3090   30.5290 C   0  0  0  0  0  0  0  0  0  0  0  0
    3.0760   -6.0060   30.3130 O   0  0  0  0  0  0  0  0  0  0  0  0
    3.8950   -4.2650   31.4250 O   0  0  0  0  0  0  0  0  0  0  0  0
    3.3300   -3.0500   31.0270 C   0  0  0  0  0  0  0  0  0  0  0  0
    2.8250   -2.4820   32.1580 C   0  0  0  0  0  0  0  0  0  0  0  0
    4.2840   -2.3340   30.3290 C   0  0  0  0  0  0  0  0  0  0  0  0
    2.1710   -3.2440   30.0880 C   0  0  0  0  0  0  0  0  0  0  0  0
    7.1880   -2.7730   23.2730 C   0  0  0  0  0  0  0  0  0  0  0  0
    7.7090   -3.2020   22.0900 C   0  0  0  0  0  0  0  0  0  0  0  0
  1  2  1  0
  2  3  2  0
  2  4  1  0
  4  5  1  0
  5  6  1  0
  6  7  1  0
  7  8  1  0
  8  9  2  0
  8 10  1  0
 10 11  1  0
 11 12  1  0
 12 13  1  0
 13 14  1  0
 10 15  1  0
 14 15  1  0
 13 16  1  0
 16 17  1  0
 17 18  1  0
 17 19  1  0
 19 20  1  0
 13 21  1  0
 20 21  1  0
 21 22  1  0
 22 23  2  0
 22 24  1  0
 25 24  1  0
 25 26  1  0
 25 27  1  0
 25 28  1  0
  7 29  1  0
  4 30  1  0
 29 30  1  0
M  END
