piperidine-amides-23991-covalent
     RDKit          3D

 23 25  0  0  0  0  0  0  0  0999 V2000
    7.1160   -3.2840   19.2050 C   0  0  0  0  0  0  0  0  0  0  0  0
    6.4110   -4.0890   20.2160 C   0  0  0  0  0  0  0  0  0  0  0  0
    5.3070   -4.5810   19.8920 O   0  0  0  0  0  0  0  0  0  0  0  0
    6.9940   -4.3550   21.4710 N   0  0  0  0  0  0  0  0  0  0  0  0
    7.7040   -3.3030   22.0970 C   0  0  0  0  0  0  0  0  0  0  0  0
    7.0960   -2.9190   23.3400 C   0  0  0  0  0  0  0  0  0  0  0  0
    5.8270   -3.6180   23.6170 C   0  0  0  0  0  0  0  0  0  0  0  0
    5.2640   -3.1380   24.9030 C   0  0  0  0  0  0  0  0  0  0  0  0
    4.1800   -2.5330   24.9400 O   0  0  0  0  0  0  0  0  0  0  0  0
    5.9600   -3.3800   26.0700 N   0  0  0  0  0  0  0  0  0  0  0  0
    6.6820   -4.5820   26.2580 C   0  0  0  0  0  0  0  0  0  0  0  0
    8.0940   -4.6380   25.8920 C   0  0  0  0  0  0  0  0  0  0  0  0
    8.7900   -3.4160   25.2630 C   0  0  0  0  0  0  0  0  0  0  0  0
   10.1000   -3.6790   25.0350 C   0  0  0  0  0  0  0  0  0  0  0  0
   10.1640   -5.1070   25.5520 C   0  0  0  0  0  0  0  0  0  0  0  0
    8.9420   -5.5850   26.0300 O   0  0  0  0  0  0  0  0  0  0  0  0
    5.8900   -2.4580   27.1860 C   0  0  0  0  0  0  0  0  0  0  0  0
    6.0890   -1.1260   26.8760 N   0  0  0  0  0  0  0  0  0  0  0  0
    6.0240   -0.2530   27.8820 C   0  0  0  0  0  0  0  0  0  0  0  0
    5.7410   -0.9270   29.1450 C   0  0  0  0  0  0  0  0  0  0  0  0
    5.5760   -2.6560   28.9340 S   0  0  0  0  0  0  0  0  0  0  0  0
    5.9830   -5.1290   23.5580 C   0  0  0  0  0  0  0  0  0  0  0  0
    6.5500   -5.5150   22.1830 C   0  0  0  0  0  0  0  0  0  0  0  0
  1  2  1  0
  2  3  2  0
  2  4  1  0
  4  5  1  0
  5  6  1  0
  6  7  1  0
  7  8  1  0
  8  9  2  0
  8 10  1  0
 10 11  1  0
 11 12  1  0
 12 13  2  0
 13 14  1  0
 14 15  2  0
 12 16  1  0
 15 16  1  0
 10 17  1  0
 17 18  2  0
 18 19  1  0
 19 20  2  0
 17 21  1  0
 20 21  1  0
  7 22  1  0
  4 23  1  0
 22 23  1  0
M  END
