piperidine-amides-30212-covalent
     RDKit          3D

 27 29  0  0  0  0  0  0  0  0999 V2000
    7.0450   -3.3010   19.2650 C   0  0  0  0  0  0  0  0  0  0  0  0
    6.2840   -4.0790   20.2460 C   0  0  0  0  0  0  0  0  0  0  0  0
    5.2470   -4.6350   19.9050 O   0  0  0  0  0  0  0  0  0  0  0  0
    6.7550   -4.2470   21.5840 N   0  0  0  0  0  0  0  0  0  0  0  0
    7.6310   -3.2780   22.1730 C   0  0  0  0  0  0  0  0  0  0  0  0
    7.3580   -3.2120   23.6390 C   0  0  0  0  0  0  0  0  0  0  0  0
    5.9100   -3.5060   23.8690 C   0  0  0  0  0  0  0  0  0  0  0  0
    5.5110   -3.1850   25.2820 C   0  0  0  0  0  0  0  0  0  0  0  0
    4.5040   -3.7060   25.7860 O   0  0  0  0  0  0  0  0  0  0  0  0
    6.2590   -2.2520   26.0680 N   0  0  0  0  0  0  0  0  0  0  0  0
    6.2840   -2.4720   27.5050 C   0  0  0  0  0  0  0  0  0  0  0  0
    6.0880   -3.9040   27.8610 C   0  0  0  0  0  0  0  0  0  0  0  0
    6.7840   -4.8280   27.1380 C   0  0  0  0  0  0  0  0  0  0  0  0
    6.6840   -6.1530   27.4100 C   0  0  0  0  0  0  0  0  0  0  0  0
    5.8700   -6.5650   28.4060 C   0  0  0  0  0  0  0  0  0  0  0  0
    5.1060   -5.6340   29.1930 C   0  0  0  0  0  0  0  0  0  0  0  0
    4.3590   -6.0940   30.1170 O   0  0  0  0  0  0  0  0  0  0  0  0
    4.8610   -7.3000   30.6240 C   0  0  0  0  0  0  0  0  0  0  0  0
    5.2600   -4.3260   28.8710 N   0  0  0  0  0  0  0  0  0  0  0  0
    6.1240   -0.8230   25.8590 C   0  0  0  0  0  0  0  0  0  0  0  0
    6.3260   -0.1390   24.6490 C   0  0  0  0  0  0  0  0  0  0  0  0
    7.0860   -0.5790   23.4770 C   0  0  0  0  0  0  0  0  0  0  0  0
    4.8520   -0.1340   24.2970 C   0  0  0  0  0  0  0  0  0  0  0  0
    4.8410    1.1910   24.5010 O   0  0  0  0  0  0  0  0  0  0  0  0
    6.2240    1.3900   24.8520 C   0  0  0  0  0  0  0  0  0  0  0  0
    5.6420   -4.9720   23.5920 C   0  0  0  0  0  0  0  0  0  0  0  0
    6.4470   -5.4260   22.3510 C   0  0  0  0  0  0  0  0  0  0  0  0
  1  2  1  0
  2  3  2  0
  2  4  1  0
  4  5  1  0
  5  6  1  0
  6  7  1  0
  7  8  1  0
  8  9  2  0
  8 10  1  0
 10 11  1  0
 11 12  1  0
 12 13  2  0
 13 14  1  0
 14 15  2  0
 15 16  1  0
 16 17  1  0
 17 18  1  0
 12 19  1  0
 16 19  2  0
 10 20  1  0
 21 20  1  0
 21 22  1  0
 21 23  1  0
 23 24  1  0
 21 25  1  0
 24 25  1  0
  7 26  1  0
  4 27  1  0
 26 27  1  0
M  END
