piperidine-amides-8902-covalent
     RDKit          3D

 22 23  0  0  0  0  0  0  0  0999 V2000
    7.0430   -3.3640   19.3600 C   0  0  0  0  0  0  0  0  0  0  0  0
    6.3380   -4.1720   20.3520 C   0  0  0  0  0  0  0  0  0  0  0  0
    5.3530   -4.8280   19.9710 O   0  0  0  0  0  0  0  0  0  0  0  0
    6.7990   -4.2320   21.6910 N   0  0  0  0  0  0  0  0  0  0  0  0
    7.7050   -3.2120   22.1680 C   0  0  0  0  0  0  0  0  0  0  0  0
    7.4530   -2.9630   23.6170 C   0  0  0  0  0  0  0  0  0  0  0  0
    6.1110   -3.5920   23.8730 C   0  0  0  0  0  0  0  0  0  0  0  0
    5.6580   -3.3060   25.2720 C   0  0  0  0  0  0  0  0  0  0  0  0
    4.4700   -3.4930   25.5050 O   0  0  0  0  0  0  0  0  0  0  0  0
    6.6110   -2.8530   26.1770 N   0  0  0  0  0  0  0  0  0  0  0  0
    6.4570   -1.7180   27.0470 C   0  0  0  0  0  0  0  0  0  0  0  0
    5.8400   -0.3080   26.7430 C   0  0  0  0  0  0  0  0  0  0  0  0
    5.2390   -1.1070   25.9030 N   0  0  0  0  0  0  0  0  0  0  0  0
    4.8750   -1.4340   27.2380 C   0  0  0  0  0  0  0  0  0  0  0  0
    3.6310   -2.0270   27.4170 C   0  0  1  0  0  0  0  0  0  0  0  0
    3.3830   -1.5820   28.8280 C   0  0  0  0  0  0  0  0  0  0  0  0
    2.7180   -1.6990   26.4460 C   0  0  0  0  0  0  0  0  0  0  0  0
    2.3280   -0.2700   26.4310 C   0  0  0  0  0  0  0  0  0  0  0  0
    5.6950   -1.0220   28.3640 N   0  0  0  0  0  0  0  0  0  0  0  0
    7.0930   -1.2750   28.2280 C   0  0  0  0  0  0  0  0  0  0  0  0
    6.0330   -5.0460   23.6430 C   0  0  0  0  0  0  0  0  0  0  0  0
    6.6710   -5.4370   22.4830 C   0  0  0  0  0  0  0  0  0  0  0  0
  1  2  1  0
  2  3  2  0
  2  4  1  0
  4  5  1  0
  5  6  1  0
  6  7  1  0
  7  8  1  0
  8  9  2  0
  8 10  1  0
 10 11  1  0
 11 12  2  0
 12 13  1  0
 13 14  2  0
 14 15  1  0
 15 16  1  1
 15 17  1  0
 17 18  1  0
 14 19  1  0
 11 20  1  0
 19 20  2  0
  7 21  1  0
  4 22  1  0
 21 22  1  0
M  END
