piperidine-amides-13046-covalent
     RDKit          3D

 23 24  0  0  0  0  0  0  0  0999 V2000
    7.0690   -3.1920   19.2770 C   0  0  0  0  0  0  0  0  0  0  0  0
    6.2870   -3.9130   20.3130 C   0  0  0  0  0  0  0  0  0  0  0  0
    5.2920   -4.5270   19.8730 O   0  0  0  0  0  0  0  0  0  0  0  0
    6.5720   -3.9800   21.7030 N   0  0  0  0  0  0  0  0  0  0  0  0
    5.5740   -4.6330   22.4400 C   0  0  0  0  0  0  0  0  0  0  0  0
    4.8370   -3.7910   23.3710 C   0  0  0  0  0  0  0  0  0  0  0  0
    5.6580   -2.9500   24.2600 C   0  0  0  0  0  0  0  0  0  0  0  0
    5.0730   -3.1050   25.6700 C   0  0  0  0  0  0  0  0  0  0  0  0
    3.8620   -2.8230   25.7080 O   0  0  0  0  0  0  0  0  0  0  0  0
    5.6480   -3.4960   26.9330 N   0  0  0  0  0  0  0  0  0  0  0  0
    5.8140   -4.9190   27.3890 C   0  0  0  0  0  0  0  0  0  0  0  0
    4.5590   -5.6690   27.4670 C   0  0  0  0  0  0  0  0  0  0  0  0
    6.5890   -5.1650   28.6200 C   0  0  0  0  0  0  0  0  0  0  0  0
    6.5130   -5.2920   26.2910 C   0  0  0  0  0  0  0  0  0  0  0  0
    7.8210   -5.5260   26.3410 C   0  0  0  0  0  0  0  0  0  0  0  0
    8.4510   -5.8410   25.2290 C   0  0  0  0  0  0  0  0  0  0  0  0
    7.7550   -5.9410   24.0350 C   0  0  0  0  0  0  0  0  0  0  0  0
    6.4210   -5.7260   23.9920 C   0  0  0  0  0  0  0  0  0  0  0  0
    5.7160   -5.8340   22.8710 O   0  0  0  0  0  0  0  0  0  0  0  0
    6.2140   -6.6300   21.8630 C   0  0  0  0  0  0  0  0  0  0  0  0
    5.8430   -5.4000   25.1440 C   0  0  0  0  0  0  0  0  0  0  0  0
    7.1340   -3.1100   23.9820 C   0  0  0  0  0  0  0  0  0  0  0  0
    7.4010   -3.0230   22.4570 C   0  0  0  0  0  0  0  0  0  0  0  0
  1  2  1  0
  2  3  2  0
  2  4  1  0
  4  5  1  0
  5  6  1  0
  6  7  1  0
  7  8  1  0
  8  9  2  0
  8 10  1  0
 11 10  1  0
 11 12  1  0
 11 13  1  0
 11 14  1  0
 14 15  2  0
 15 16  1  0
 16 17  2  0
 17 18  1  0
 18 19  1  0
 19 20  1  0
 14 21  1  0
 18 21  2  0
  7 22  1  0
  4 23  1  0
 22 23  1  0
M  END
