piperidine-amides-11981-covalent
     RDKit          3D

 26 28  0  0  0  0  0  0  0  0999 V2000
    7.1520   -3.2870   19.2810 C   0  0  0  0  0  0  0  0  0  0  0  0
    6.4140   -4.0790   20.2530 C   0  0  0  0  0  0  0  0  0  0  0  0
    5.3530   -4.6150   19.9260 O   0  0  0  0  0  0  0  0  0  0  0  0
    6.9590   -4.2880   21.5700 N   0  0  0  0  0  0  0  0  0  0  0  0
    6.6240   -5.4860   22.2940 C   0  0  0  0  0  0  0  0  0  0  0  0
    5.9690   -5.1080   23.5910 C   0  0  0  0  0  0  0  0  0  0  0  0
    5.7050   -3.6140   23.5170 C   0  0  0  0  0  0  0  0  0  0  0  0
    4.7700   -3.1840   24.5860 C   0  0  0  0  0  0  0  0  0  0  0  0
    3.5840   -3.5400   24.5810 O   0  0  0  0  0  0  0  0  0  0  0  0
    5.1710   -2.3660   25.6480 N   0  0  0  0  0  0  0  0  0  0  0  0
    4.6480   -2.7610   26.9290 C   0  0  0  0  0  0  0  0  0  0  0  0
    5.8530   -3.3020   27.5200 C   0  0  0  0  0  0  0  0  0  0  0  0
    6.8920   -2.4320   27.6190 C   0  0  0  0  0  0  0  0  0  0  0  0
    8.0750   -2.8390   28.1290 C   0  0  0  0  0  0  0  0  0  0  0  0
    8.9720   -1.8220   28.1600 F   0  0  0  0  0  0  0  0  0  0  0  0
    8.2710   -4.1270   28.5400 C   0  0  0  0  0  0  0  0  0  0  0  0
    7.1650   -5.0380   28.4500 C   0  0  0  0  0  0  0  0  0  0  0  0
    5.9730   -4.6010   27.9460 C   0  0  0  0  0  0  0  0  0  0  0  0
    4.9830   -5.5200   27.9080 N   0  0  0  0  0  0  0  0  0  0  0  0
    3.8150   -5.1710   28.6740 C   0  0  0  0  0  0  0  0  0  0  0  0
    4.1810   -5.1120   30.0130 C   0  0  0  0  0  0  0  0  0  0  0  0
    5.1280   -6.0620   30.2500 O   0  0  0  0  0  0  0  0  0  0  0  0
    4.9820   -7.1830   29.4380 C   0  0  0  0  0  0  0  0  0  0  0  0
    5.3470   -6.8590   28.1370 C   0  0  0  0  0  0  0  0  0  0  0  0
    6.9980   -2.8580   23.5030 C   0  0  0  0  0  0  0  0  0  0  0  0
    7.6450   -3.2000   22.2020 C   0  0  0  0  0  0  0  0  0  0  0  0
  1  2  1  0
  2  3  2  0
  2  4  1  0
  4  5  1  0
  5  6  1  0
  6  7  1  0
  7  8  1  0
  8  9  2  0
  8 10  1  0
 10 11  1  0
 11 12  1  0
 12 13  2  0
 13 14  1  0
 14 15  1  0
 14 16  2  0
 16 17  1  0
 12 18  1  0
 17 18  2  0
 18 19  1  0
 19 20  1  0
 20 21  1  0
 21 22  1  0
 22 23  1  0
 19 24  1  0
 23 24  1  0
  7 25  1  0
  4 26  1  0
 25 26  1  0
M  END
