piperidine-amides-174-covalent
     RDKit          3D

 19 20  0  0  0  0  0  0  0  0999 V2000
    7.1120   -3.2960   19.4100 C   0  0  0  0  0  0  0  0  0  0  0  0
    6.3680   -4.0860   20.3710 C   0  0  0  0  0  0  0  0  0  0  0  0
    5.3710   -4.7590   19.9570 O   0  0  0  0  0  0  0  0  0  0  0  0
    6.7210   -4.1770   21.7400 N   0  0  0  0  0  0  0  0  0  0  0  0
    7.7920   -3.2330   22.1940 C   0  0  0  0  0  0  0  0  0  0  0  0
    7.3400   -2.7950   23.6430 C   0  0  0  0  0  0  0  0  0  0  0  0
    6.3170   -3.8130   24.0480 C   0  0  0  0  0  0  0  0  0  0  0  0
    5.6860   -3.5940   25.4950 C   0  0  0  0  0  0  0  0  0  0  0  0
    4.8460   -4.4550   25.6950 O   0  0  0  0  0  0  0  0  0  0  0  0
    6.1680   -2.5790   26.1020 N   0  0  0  0  0  0  0  0  0  0  0  0
    6.4910   -1.4830   26.8520 C   0  0  2  0  0  0  0  0  0  0  0  0
    6.7460   -1.2050   28.1860 C   0  0  0  0  0  0  0  0  0  0  0  0
    7.0100    0.1250   28.3640 O   0  0  0  0  0  0  0  0  0  0  0  0
    6.2540    0.7540   27.4460 C   0  0  0  0  0  0  0  0  0  0  0  0
    5.4020   -0.3470   26.9170 C   0  0  1  0  0  0  0  0  0  0  0  0
    4.9020   -0.0810   25.6650 O   0  0  0  0  0  0  0  0  0  0  0  0
    3.8860   -1.0200   25.3880 C   0  0  0  0  0  0  0  0  0  0  0  0
    6.6260   -5.2610   23.7430 C   0  0  0  0  0  0  0  0  0  0  0  0
    6.5930   -5.4740   22.3610 C   0  0  0  0  0  0  0  0  0  0  0  0
  1  2  1  0
  2  3  2  0
  2  4  1  0
  4  5  1  0
  5  6  1  0
  6  7  1  0
  7  8  1  0
  8  9  2  0
  8 10  1  0
 11 10  1  1
 11 12  1  0
 12 13  1  0
 13 14  1  0
 11 15  1  0
 14 15  1  0
 15 16  1  6
 16 17  1  0
  7 18  1  0
  4 19  1  0
 18 19  1  0
M  END
