piperidine-amides-22364-covalent
     RDKit          3D

 23 24  0  0  0  0  0  0  0  0999 V2000
    7.0150   -3.3490   19.3790 C   0  0  0  0  0  0  0  0  0  0  0  0
    6.3500   -4.2160   20.3690 C   0  0  0  0  0  0  0  0  0  0  0  0
    5.4010   -4.9450   20.0040 O   0  0  0  0  0  0  0  0  0  0  0  0
    6.7840   -4.2660   21.7100 N   0  0  0  0  0  0  0  0  0  0  0  0
    6.6720   -5.5240   22.4390 C   0  0  0  0  0  0  0  0  0  0  0  0
    6.1870   -5.2410   23.8810 C   0  0  0  0  0  0  0  0  0  0  0  0
    6.0920   -3.7440   24.0220 C   0  0  0  0  0  0  0  0  0  0  0  0
    5.6510   -3.2420   25.3590 C   0  0  0  0  0  0  0  0  0  0  0  0
    5.2120   -2.0810   25.3860 O   0  0  0  0  0  0  0  0  0  0  0  0
    5.6640   -4.0020   26.5610 N   0  0  0  0  0  0  0  0  0  0  0  0
    4.4000   -4.1890   27.2180 C   0  0  0  0  0  0  0  0  0  0  0  0
    4.5860   -4.5100   28.7020 C   0  0  0  0  0  0  0  0  0  0  0  0
    5.7220   -5.1290   29.1210 C   0  0  0  0  0  0  0  0  0  0  0  0
    5.7010   -6.5030   29.1750 C   0  0  0  0  0  0  0  0  0  0  0  0
    4.7720   -7.1030   30.0360 C   0  0  0  0  0  0  0  0  0  0  0  0
    5.0760   -7.0380   31.3810 C   0  0  0  0  0  0  0  0  0  0  0  0
    4.0540   -6.5490   32.3970 C   0  0  0  0  0  0  0  0  0  0  0  0
    4.4840   -7.9930   32.4590 C   0  0  0  0  0  0  0  0  0  0  0  0
    4.6630   -8.5950   33.8130 C   0  0  0  0  0  0  0  0  0  0  0  0
    6.8350   -4.8220   28.4040 C   0  0  0  0  0  0  0  0  0  0  0  0
    6.4070   -3.6640   27.7370 C   0  0  0  0  0  0  0  0  0  0  0  0
    7.4520   -3.1500   23.7050 C   0  0  0  0  0  0  0  0  0  0  0  0
    7.6650   -3.2290   22.2200 C   0  0  0  0  0  0  0  0  0  0  0  0
  1  2  1  0
  2  3  2  0
  2  4  1  0
  4  5  1  0
  5  6  1  0
  6  7  1  0
  7  8  1  0
  8  9  2  0
  8 10  1  0
 10 11  1  0
 11 12  1  0
 12 13  1  0
 13 14  1  0
 14 15  1  0
 15 16  1  0
 16 17  1  0
 17 18  1  0
 18 19  1  0
 13 20  1  0
 10 21  1  0
 20 21  1  0
  7 22  1  0
  4 23  1  0
 22 23  1  0
M  END
