piperidine-amides-31708-covalent
     RDKit          3D

 28 30  0  0  0  0  0  0  0  0999 V2000
    7.0190   -3.4010   19.3350 C   0  0  0  0  0  0  0  0  0  0  0  0
    6.3510   -4.1770   20.3570 C   0  0  0  0  0  0  0  0  0  0  0  0
    5.3600   -4.8750   19.9900 O   0  0  0  0  0  0  0  0  0  0  0  0
    6.7760   -4.2280   21.7030 N   0  0  0  0  0  0  0  0  0  0  0  0
    6.7160   -5.5640   22.3660 C   0  0  0  0  0  0  0  0  0  0  0  0
    5.9010   -5.2970   23.7060 C   0  0  0  0  0  0  0  0  0  0  0  0
    6.0340   -3.8340   24.0440 C   0  0  0  0  0  0  0  0  0  0  0  0
    5.2460   -3.4210   25.3700 C   0  0  0  0  0  0  0  0  0  0  0  0
    4.3940   -2.5900   25.1040 O   0  0  0  0  0  0  0  0  0  0  0  0
    5.7010   -4.0570   26.3690 N   0  0  0  0  0  0  0  0  0  0  0  0
    6.5830   -4.7800   27.0470 C   0  0  0  0  0  0  0  0  0  0  0  0
    6.9100   -5.9660   27.5350 C   0  0  1  0  0  0  0  0  0  0  0  0
    8.3110   -6.1350   27.3740 C   0  0  0  0  0  0  0  0  0  0  0  0
    6.6460   -5.8780   29.0400 C   0  0  0  0  0  0  0  0  0  0  0  0
    5.1350   -5.7810   28.8260 C   0  0  0  0  0  0  0  0  0  0  0  0
    4.6080   -6.8830   29.5010 C   0  0  0  0  0  0  0  0  0  0  0  0
    3.2470   -7.2510   29.6230 C   0  0  0  0  0  0  0  0  0  0  0  0
    2.8390   -8.3420   30.3160 O   0  0  0  0  0  0  0  0  0  0  0  0
    2.9030   -8.2420   31.6860 C   0  0  0  0  0  0  0  0  0  0  0  0
    2.3510   -6.2350   28.8680 C   0  0  0  0  0  0  0  0  0  0  0  0
    1.1090   -6.4350   28.8890 O   0  0  0  0  0  0  0  0  0  0  0  0
    0.3220   -6.3820   30.0690 C   0  0  0  0  0  0  0  0  0  0  0  0
    2.9760   -5.0930   28.1760 C   0  0  0  0  0  0  0  0  0  0  0  0
    4.2740   -4.7710   28.0880 C   0  0  0  0  0  0  0  0  0  0  0  0
    4.7340   -3.6510   27.4180 C   0  0  1  0  0  0  0  0  0  0  0  0
    5.2520   -2.7340   28.3300 C   0  0  0  0  0  0  0  0  0  0  0  0
    7.3360   -3.1800   23.7640 C   0  0  0  0  0  0  0  0  0  0  0  0
    7.6520   -3.2620   22.3140 C   0  0  0  0  0  0  0  0  0  0  0  0
  1  2  1  0
  2  3  2  0
  2  4  1  0
  4  5  1  0
  5  6  1  0
  6  7  1  0
  7  8  1  0
  8  9  2  0
  8 10  1  0
 10 11  1  0
 11 12  1  0
 12 13  1  1
 12 14  1  0
 14 15  1  0
 15 16  1  0
 16 17  2  0
 17 18  1  0
 18 19  1  0
 17 20  1  0
 20 21  1  0
 21 22  1  0
 20 23  2  0
 15 24  2  0
 23 24  1  0
 10 25  1  0
 24 25  1  0
 25 26  1  1
  7 27  1  0
  4 28  1  0
 27 28  1  0
M  END
