piperidine-amides-25812-covalent
     RDKit          3D

 23 24  0  0  0  0  0  0  0  0999 V2000
    7.0230   -3.3600   19.3610 C   0  0  0  0  0  0  0  0  0  0  0  0
    6.3900   -4.2340   20.3850 C   0  0  0  0  0  0  0  0  0  0  0  0
    5.4240   -4.8970   20.0020 O   0  0  0  0  0  0  0  0  0  0  0  0
    6.9150   -4.3110   21.6920 N   0  0  0  0  0  0  0  0  0  0  0  0
    7.6710   -3.2330   22.2940 C   0  0  0  0  0  0  0  0  0  0  0  0
    6.8210   -2.5770   23.3490 C   0  0  0  0  0  0  0  0  0  0  0  0
    5.9610   -3.6480   24.0080 C   0  0  0  0  0  0  0  0  0  0  0  0
    5.5200   -3.2060   25.3650 C   0  0  0  0  0  0  0  0  0  0  0  0
    4.3070   -3.1190   25.5390 O   0  0  0  0  0  0  0  0  0  0  0  0
    6.3640   -2.9110   26.4690 N   0  0  0  0  0  0  0  0  0  0  0  0
    6.5320   -4.0710   27.3260 C   0  0  0  0  0  0  0  0  0  0  0  0
    6.2790   -1.5790   27.0770 C   0  0  2  0  0  0  0  0  0  0  0  0
    6.6280   -1.7030   28.4190 C   0  0  0  0  0  0  0  0  0  0  0  0
    6.7160   -0.5470   29.1000 C   0  0  0  0  0  0  0  0  0  0  0  0
    6.3470    0.4520   28.2840 C   0  0  0  0  0  0  0  0  0  0  0  0
    6.1060    0.1780   26.8170 C   0  0  0  0  0  0  0  0  0  0  0  0
    4.9940   -0.7960   27.0580 C   0  0  1  0  0  0  0  0  0  0  0  0
    3.9610   -0.5480   25.7240 S   0  0  0  0  0  0  0  0  0  0  0  0
    2.5830   -1.7170   25.7780 C   0  0  0  0  0  0  0  0  0  0  0  0
    3.4290    0.8430   25.8530 O   0  0  0  0  0  0  0  0  0  0  0  0
    4.8010   -0.7320   24.4970 O   0  0  0  0  0  0  0  0  0  0  0  0
    6.4620   -5.0380   23.9040 C   0  0  0  0  0  0  0  0  0  0  0  0
    6.6730   -5.4880   22.4890 C   0  0  0  0  0  0  0  0  0  0  0  0
  1  2  1  0
  2  3  2  0
  2  4  1  0
  4  5  1  0
  5  6  1  0
  6  7  1  0
  7  8  1  0
  8  9  2  0
  8 10  1  0
 10 11  1  0
 12 10  1  1
 12 13  1  0
 13 14  1  0
 14 15  1  0
 15 16  1  0
 12 17  1  0
 16 17  1  0
 17 18  1  6
 18 19  1  0
 18 20  2  0
 18 21  2  0
  7 22  1  0
  4 23  1  0
 22 23  1  0
M  END
