piperidine-amides-4527-covalent
     RDKit          3D

 25 26  0  0  0  0  0  0  0  0999 V2000
    7.2860   -3.8480   19.5820 C   0  0  0  0  0  0  0  0  0  0  0  0
    6.0780   -3.6360   20.2690 C   0  0  0  0  0  0  0  0  0  0  0  0
    5.0730   -3.8130   19.5420 O   0  0  0  0  0  0  0  0  0  0  0  0
    6.1210   -3.3950   21.6390 N   0  0  0  0  0  0  0  0  0  0  0  0
    5.5520   -4.4080   22.4180 C   0  0  0  0  0  0  0  0  0  0  0  0
    4.9310   -3.8600   23.5990 C   0  0  0  0  0  0  0  0  0  0  0  0
    5.7450   -2.7970   24.1920 C   0  0  0  0  0  0  0  0  0  0  0  0
    5.5440   -2.8350   25.6620 C   0  0  0  0  0  0  0  0  0  0  0  0
    4.3740   -2.7130   26.0620 O   0  0  0  0  0  0  0  0  0  0  0  0
    6.5770   -2.9900   26.6010 N   0  0  0  0  0  0  0  0  0  0  0  0
    6.3680   -3.6190   27.9410 C   0  0  0  0  0  0  0  0  0  0  0  0
    5.7610   -4.9790   27.8430 C   0  0  0  0  0  0  0  0  0  0  0  0
    5.9440   -5.9320   28.9400 C   0  0  0  0  0  0  0  0  0  0  0  0
    4.6990   -6.6390   29.2120 N   0  0  0  0  0  0  0  0  0  0  0  0
    3.7500   -7.0760   28.2430 C   0  0  0  0  0  0  0  0  0  0  0  0
    2.6920   -7.5670   28.6750 O   0  0  0  0  0  0  0  0  0  0  0  0
    4.0670   -6.9070   26.9090 C   0  0  0  0  0  0  0  0  0  0  0  0
    3.3770   -7.5640   25.9180 C   0  0  0  0  0  0  0  0  0  0  0  0
    3.6990   -7.3910   24.5890 C   0  0  0  0  0  0  0  0  0  0  0  0
    4.7180   -6.5600   24.1940 C   0  0  0  0  0  0  0  0  0  0  0  0
    5.1890   -6.3120   22.3690 Br  0  0  0  0  0  0  0  0  0  0  0  0
    5.4300   -5.8800   25.1590 C   0  0  0  0  0  0  0  0  0  0  0  0
    5.0760   -6.0770   26.5550 C   0  0  0  0  0  0  0  0  0  0  0  0
    7.1800   -2.8570   23.7630 C   0  0  0  0  0  0  0  0  0  0  0  0
    7.3100   -2.8080   22.2500 C   0  0  0  0  0  0  0  0  0  0  0  0
  1  2  1  0
  2  3  2  0
  2  4  1  0
  4  5  1  0
  5  6  1  0
  6  7  1  0
  7  8  1  0
  8  9  2  0
  8 10  1  0
 10 11  1  0
 11 12  1  0
 12 13  1  0
 13 14  1  0
 14 15  1  0
 15 16  2  0
 15 17  1  0
 17 18  2  0
 18 19  1  0
 19 20  2  0
 20 21  1  0
 20 22  1  0
 17 23  1  0
 22 23  2  0
  7 24  1  0
  4 25  1  0
 24 25  1  0
M  END
