piperidine-amides-2727-covalent
     RDKit          3D

 25 27  0  0  0  0  0  0  0  0999 V2000
    7.0660   -3.2780   19.2590 C   0  0  0  0  0  0  0  0  0  0  0  0
    6.3250   -4.0570   20.2520 C   0  0  0  0  0  0  0  0  0  0  0  0
    5.3090   -4.6680   19.9220 O   0  0  0  0  0  0  0  0  0  0  0  0
    6.7930   -4.1470   21.6070 N   0  0  0  0  0  0  0  0  0  0  0  0
    7.7100   -3.1510   22.1060 C   0  0  0  0  0  0  0  0  0  0  0  0
    7.5210   -3.0060   23.5740 C   0  0  0  0  0  0  0  0  0  0  0  0
    6.1500   -3.5700   23.8670 C   0  0  0  0  0  0  0  0  0  0  0  0
    5.7400   -3.2270   25.2490 C   0  0  0  0  0  0  0  0  0  0  0  0
    4.6130   -3.4980   25.7040 O   0  0  0  0  0  0  0  0  0  0  0  0
    6.6810   -2.5610   26.0610 N   0  0  0  0  0  0  0  0  0  0  0  0
    6.2060   -1.6290   27.0480 C   0  0  0  0  0  0  0  0  0  0  0  0
    5.5900   -0.4580   26.3210 C   0  0  0  0  0  0  0  0  0  0  0  0
    4.4890   -0.4660   25.4670 C   0  0  0  0  0  0  0  0  0  0  0  0
    4.2110    0.8720   24.9630 N   0  0  0  0  0  0  0  0  0  0  0  0
    5.1620    1.5800   25.5490 N   0  0  0  0  0  0  0  0  0  0  0  0
    5.4770    2.9890   25.4830 C   0  0  0  0  0  0  0  0  0  0  0  0
    4.4860    3.9370   25.2860 C   0  0  0  0  0  0  0  0  0  0  0  0
    4.8180    5.3490   25.2220 C   0  0  0  0  0  0  0  0  0  0  0  0
    6.1080    5.7670   25.3550 C   0  0  0  0  0  0  0  0  0  0  0  0
    6.6380    7.5970   25.2890 Br  0  0  0  0  0  0  0  0  0  0  0  0
    7.0660    4.8050   25.5480 C   0  0  0  0  0  0  0  0  0  0  0  0
    6.7870    3.4350   25.6150 C   0  0  0  0  0  0  0  0  0  0  0  0
    6.0470    0.8180   26.4030 C   0  0  0  0  0  0  0  0  0  0  0  0
    6.0360   -5.0650   23.6060 C   0  0  0  0  0  0  0  0  0  0  0  0
    6.6070   -5.3610   22.3630 C   0  0  0  0  0  0  0  0  0  0  0  0
  1  2  1  0
  2  3  2  0
  2  4  1  0
  4  5  1  0
  5  6  1  0
  6  7  1  0
  7  8  1  0
  8  9  2  0
  8 10  1  0
 10 11  1  0
 11 12  1  0
 12 13  1  0
 13 14  2  0
 14 15  1  0
 15 16  1  0
 16 17  2  0
 17 18  1  0
 18 19  2  0
 19 20  1  0
 19 21  1  0
 16 22  1  0
 21 22  2  0
 12 23  2  0
 15 23  1  0
  7 24  1  0
  4 25  1  0
 24 25  1  0
M  END
