piperidine-amides-8256-covalent
     RDKit          3D

 25 27  0  0  0  0  0  0  0  0999 V2000
    7.0800   -3.2590   19.2570 C   0  0  0  0  0  0  0  0  0  0  0  0
    6.3320   -4.0330   20.2500 C   0  0  0  0  0  0  0  0  0  0  0  0
    5.2820   -4.5880   19.8900 O   0  0  0  0  0  0  0  0  0  0  0  0
    6.8140   -4.1780   21.5760 N   0  0  0  0  0  0  0  0  0  0  0  0
    7.6570   -3.1390   22.1160 C   0  0  0  0  0  0  0  0  0  0  0  0
    7.4860   -3.0540   23.6010 C   0  0  0  0  0  0  0  0  0  0  0  0
    6.1340   -3.6510   23.9050 C   0  0  0  0  0  0  0  0  0  0  0  0
    5.6480   -3.2940   25.2760 C   0  0  0  0  0  0  0  0  0  0  0  0
    4.4450   -3.4390   25.4690 O   0  0  0  0  0  0  0  0  0  0  0  0
    6.5600   -2.8400   26.2160 N   0  0  0  0  0  0  0  0  0  0  0  0
    6.4760   -1.5330   26.7820 C   0  0  0  0  0  0  0  0  0  0  0  0
    5.1740   -1.1420   27.1390 C   0  0  2  0  0  0  0  0  0  0  0  0
    4.4010   -0.6340   26.1180 C   0  0  0  0  0  0  0  0  0  0  0  0
    3.0200   -0.5890   26.1980 C   0  0  0  0  0  0  0  0  0  0  0  0
    2.7900    0.0860   27.5120 C   0  0  0  0  0  0  0  0  0  0  0  0
    3.5460   -0.5360   28.4710 O   0  0  0  0  0  0  0  0  0  0  0  0
    4.8960   -0.2750   28.2080 C   0  0  1  0  0  0  0  0  0  0  0  0
    5.7910   -0.2080   29.3890 C   0  0  0  0  0  0  0  0  0  0  0  0
    5.1210    0.2740   30.6400 C   0  0  0  0  0  0  0  0  0  0  0  0
    6.0810    0.3400   31.8470 C   0  0  0  0  0  0  0  0  0  0  0  0
    7.4090   -0.0090   31.7720 C   0  0  0  0  0  0  0  0  0  0  0  0
    8.0060   -0.4530   30.6070 C   0  0  0  0  0  0  0  0  0  0  0  0
    7.1300   -0.5450   29.3820 C   0  0  0  0  0  0  0  0  0  0  0  0
    6.2150   -5.1660   23.7030 C   0  0  0  0  0  0  0  0  0  0  0  0
    6.6560   -5.4160   22.2750 C   0  0  0  0  0  0  0  0  0  0  0  0
  1  2  1  0
  2  3  2  0
  2  4  1  0
  4  5  1  0
  5  6  1  0
  6  7  1  0
  7  8  1  0
  8  9  2  0
  8 10  1  0
 10 11  1  0
 12 11  1  6
 12 13  1  0
 13 14  1  0
 14 15  1  0
 15 16  1  0
 12 17  1  0
 16 17  1  0
 17 18  1  1
 18 19  2  0
 19 20  1  0
 20 21  2  0
 21 22  1  0
 18 23  1  0
 22 23  2  0
  7 24  1  0
  4 25  1  0
 24 25  1  0
M  END
