piperidine-amides-12471-covalent
     RDKit          3D

 23 25  0  0  0  0  0  0  0  0999 V2000
    7.0530   -3.3790   19.3230 C   0  0  0  0  0  0  0  0  0  0  0  0
    6.3500   -4.1730   20.3220 C   0  0  0  0  0  0  0  0  0  0  0  0
    5.3590   -4.8180   19.9820 O   0  0  0  0  0  0  0  0  0  0  0  0
    6.8380   -4.2490   21.6770 N   0  0  0  0  0  0  0  0  0  0  0  0
    7.6430   -3.1860   22.2210 C   0  0  0  0  0  0  0  0  0  0  0  0
    7.0030   -2.6260   23.4600 C   0  0  0  0  0  0  0  0  0  0  0  0
    6.5390   -3.7830   24.3300 C   0  0  0  0  0  0  0  0  0  0  0  0
    5.7410   -3.2730   25.5000 C   0  0  0  0  0  0  0  0  0  0  0  0
    4.4940   -3.2260   25.4470 O   0  0  0  0  0  0  0  0  0  0  0  0
    6.3780   -2.8290   26.7040 N   0  0  0  0  0  0  0  0  0  0  0  0
    6.6530   -1.4020   26.8650 C   0  0  1  0  0  0  0  0  0  0  0  0
    5.5850   -0.6910   26.0810 C   0  0  0  0  0  0  0  0  0  0  0  0
    5.2820    0.6120   26.4100 C   0  0  0  0  0  0  0  0  0  0  0  0
    5.9060    1.2530   27.4620 C   0  0  0  0  0  0  0  0  0  0  0  0
    6.4620    0.5000   28.4360 C   0  0  0  0  0  0  0  0  0  0  0  0
    6.6460    1.1030   29.7410 C   0  0  0  0  0  0  0  0  0  0  0  0
    7.1940    0.4420   30.7720 C   0  0  0  0  0  0  0  0  0  0  0  0
    7.3720    0.9940   31.9860 F   0  0  0  0  0  0  0  0  0  0  0  0
    7.5660   -0.8370   30.5120 C   0  0  0  0  0  0  0  0  0  0  0  0
    7.4200   -1.4960   29.2890 C   0  0  0  0  0  0  0  0  0  0  0  0
    6.8360   -0.8140   28.1520 C   0  0  0  0  0  0  0  0  0  0  0  0
    5.7410   -4.8330   23.5620 C   0  0  0  0  0  0  0  0  0  0  0  0
    6.5140   -5.3560   22.5260 C   0  0  0  0  0  0  0  0  0  0  0  0
  1  2  1  0
  2  3  2  0
  2  4  1  0
  4  5  1  0
  5  6  1  0
  6  7  1  0
  7  8  1  0
  8  9  2  0
  8 10  1  0
 11 10  1  1
 11 12  1  0
 12 13  1  0
 13 14  1  0
 14 15  1  0
 15 16  2  0
 16 17  1  0
 17 18  1  0
 17 19  2  0
 19 20  1  0
 11 21  1  0
 15 21  1  0
 20 21  2  0
  7 22  1  0
  4 23  1  0
 22 23  1  0
M  END
