piperidine-amides-19515-covalent
     RDKit          3D

 22 25  0  0  0  0  0  0  0  0999 V2000
    7.0350   -3.4040   19.3270 C   0  0  0  0  0  0  0  0  0  0  0  0
    6.3920   -4.1980   20.3470 C   0  0  0  0  0  0  0  0  0  0  0  0
    5.3740   -4.8660   19.9920 O   0  0  0  0  0  0  0  0  0  0  0  0
    6.8630   -4.3170   21.6800 N   0  0  0  0  0  0  0  0  0  0  0  0
    6.6940   -5.6450   22.3320 C   0  0  0  0  0  0  0  0  0  0  0  0
    6.1160   -5.2700   23.7590 C   0  0  0  0  0  0  0  0  0  0  0  0
    5.9340   -3.7820   23.7120 C   0  0  0  0  0  0  0  0  0  0  0  0
    4.9160   -3.2000   24.7880 C   0  0  0  0  0  0  0  0  0  0  0  0
    3.9150   -2.7770   24.2580 O   0  0  0  0  0  0  0  0  0  0  0  0
    5.4000   -3.3300   25.9200 N   0  0  0  0  0  0  0  0  0  0  0  0
    6.2580   -3.4570   26.8880 C   0  0  0  0  0  0  0  0  0  0  0  0
    6.3880   -4.4510   27.7530 C   0  0  1  0  0  0  0  0  0  0  0  0
    6.7010   -4.0610   28.9870 C   0  0  1  0  0  0  0  0  0  0  0  0
    6.2740   -2.6630   29.3010 C   0  0  0  0  0  0  0  0  0  0  0  0
    4.8270   -2.9840   29.8280 C   0  0  0  0  0  0  0  0  0  0  0  0
    4.7490   -4.3530   29.4970 C   0  0  2  0  0  0  0  0  0  0  0  0
    5.8470   -5.1670   29.3740 C   0  0  0  0  0  0  0  0  0  0  0  0
    4.9920   -4.5480   28.0170 C   0  0  2  0  0  0  0  0  0  0  0  0
    5.0020   -6.0470   27.5310 C   0  0  0  0  0  0  0  0  0  0  0  0
    4.4720   -3.4900   27.0930 C   0  0  0  0  0  0  0  0  0  0  0  0
    7.2160   -3.0130   23.5150 C   0  0  0  0  0  0  0  0  0  0  0  0
    7.6920   -3.2800   22.2800 C   0  0  0  0  0  0  0  0  0  0  0  0
  1  2  1  0
  2  3  2  0
  2  4  1  0
  4  5  1  0
  5  6  1  0
  6  7  1  0
  7  8  1  0
  8  9  2  0
  8 10  1  0
 10 11  1  0
 12 11  1  6
 12 13  1  0
 13 14  1  1
 14 15  1  0
 16 15  1  6
 13 17  1  0
 16 17  1  0
 12 18  1  0
 16 18  1  0
 18 19  1  6
 10 20  1  0
 18 20  1  0
  7 21  1  0
  4 22  1  0
 21 22  1  0
M  END
