piperidine-amides-33166-covalent
     RDKit          3D

 29 30  0  0  0  0  0  0  0  0999 V2000
    7.1760   -3.2820   19.2050 C   0  0  0  0  0  0  0  0  0  0  0  0
    6.4300   -4.0440   20.2170 C   0  0  0  0  0  0  0  0  0  0  0  0
    5.3170   -4.5120   19.8790 O   0  0  0  0  0  0  0  0  0  0  0  0
    6.9900   -4.2900   21.4880 N   0  0  0  0  0  0  0  0  0  0  0  0
    7.5590   -3.1670   22.1340 C   0  0  0  0  0  0  0  0  0  0  0  0
    6.8390   -2.8080   23.3390 C   0  0  0  0  0  0  0  0  0  0  0  0
    6.5030   -3.9460   24.2100 C   0  0  0  0  0  0  0  0  0  0  0  0
    5.7420   -3.4580   25.3880 C   0  0  0  0  0  0  0  0  0  0  0  0
    4.5540   -3.1110   25.2390 O   0  0  0  0  0  0  0  0  0  0  0  0
    6.3280   -3.3760   26.6510 N   0  0  0  0  0  0  0  0  0  0  0  0
    6.4030   -2.1070   27.3170 C   0  0  0  0  0  0  0  0  0  0  0  0
    5.6990   -1.8250   28.5540 C   0  0  0  0  0  0  0  0  0  0  0  0
    4.5910   -2.7900   28.9710 C   0  0  0  0  0  0  0  0  0  0  0  0
    3.8890   -2.5810   30.1200 C   0  0  0  0  0  0  0  0  0  0  0  0
    2.8890   -3.4470   30.5030 O   0  0  0  0  0  0  0  0  0  0  0  0
    3.1260   -4.7440   30.0800 C   0  0  0  0  0  0  0  0  0  0  0  0
    4.2120   -1.3710   31.0030 C   0  0  0  0  0  0  0  0  0  0  0  0
    3.5650   -1.0540   32.2020 O   0  0  0  0  0  0  0  0  0  0  0  0
    4.1420   -0.0990   33.0710 C   0  0  0  0  0  0  0  0  0  0  0  0
    5.2260   -0.4250   30.6850 C   0  0  0  0  0  0  0  0  0  0  0  0
    6.0480   -0.6010   29.4060 C   0  0  0  0  0  0  0  0  0  0  0  0
    7.0450    0.2870   29.0180 O   0  0  0  0  0  0  0  0  0  0  0  0
    6.6690    1.5620   28.4620 C   0  0  0  0  0  0  0  0  0  0  0  0
    6.5910   -4.6960   27.2650 C   0  0  0  0  0  0  0  0  0  0  0  0
    5.3580   -5.2880   27.4190 C   0  0  0  0  0  0  0  0  0  0  0  0
    7.4660   -5.4470   26.5130 C   0  0  0  0  0  0  0  0  0  0  0  0
    7.1620   -4.6680   28.6650 C   0  0  0  0  0  0  0  0  0  0  0  0
    5.7410   -5.0170   23.4790 C   0  0  0  0  0  0  0  0  0  0  0  0
    6.5200   -5.4110   22.2360 C   0  0  0  0  0  0  0  0  0  0  0  0
  1  2  1  0
  2  3  2  0
  2  4  1  0
  4  5  1  0
  5  6  1  0
  6  7  1  0
  7  8  1  0
  8  9  2  0
  8 10  1  0
 10 11  1  0
 11 12  1  0
 12 13  2  0
 13 14  1  0
 14 15  1  0
 15 16  1  0
 14 17  2  0
 17 18  1  0
 18 19  1  0
 17 20  1  0
 12 21  1  0
 20 21  2  0
 21 22  1  0
 22 23  1  0
 24 10  1  0
 24 25  1  0
 24 26  1  0
 24 27  1  0
  7 28  1  0
  4 29  1  0
 28 29  1  0
M  END
