piperidine-amides-11020-covalent
     RDKit          3D

 21 22  0  0  0  0  0  0  0  0999 V2000
    7.1310   -3.2600   19.1920 C   0  0  0  0  0  0  0  0  0  0  0  0
    6.3520   -4.0000   20.1870 C   0  0  0  0  0  0  0  0  0  0  0  0
    5.2620   -4.4910   19.8600 O   0  0  0  0  0  0  0  0  0  0  0  0
    6.8390   -4.2410   21.4770 N   0  0  0  0  0  0  0  0  0  0  0  0
    6.5090   -5.4250   22.2250 C   0  0  0  0  0  0  0  0  0  0  0  0
    5.7420   -4.9180   23.4140 C   0  0  0  0  0  0  0  0  0  0  0  0
    6.5510   -3.9270   24.1980 C   0  0  0  0  0  0  0  0  0  0  0  0
    5.8450   -3.4390   25.4110 C   0  0  0  0  0  0  0  0  0  0  0  0
    4.6000   -3.2160   25.3720 O   0  0  0  0  0  0  0  0  0  0  0  0
    6.5050   -3.1830   26.6350 N   0  0  0  0  0  0  0  0  0  0  0  0
    6.2660   -3.9670   27.8850 C   0  0  2  0  0  0  0  0  0  0  0  0
    6.0320   -5.4200   27.6390 C   0  0  0  0  0  0  0  0  0  0  0  0
    5.4350   -5.8040   26.3510 C   0  0  0  0  0  0  0  0  0  0  0  0
    5.1320   -3.4020   28.6990 C   0  0  0  0  0  0  0  0  0  0  0  0
    5.1500   -2.2050   29.5100 N   0  0  0  0  0  0  0  0  0  0  0  0
    3.8500   -1.9760   30.1620 C   0  0  0  0  0  0  0  0  0  0  0  0
    2.6890   -2.8780   29.9950 C   0  0  0  0  0  0  0  0  0  0  0  0
    2.8550   -3.9540   29.1930 C   0  0  0  0  0  0  0  0  0  0  0  0
    3.9870   -4.2290   28.5750 N   0  0  0  0  0  0  0  0  0  0  0  0
    6.9460   -2.7440   23.3560 C   0  0  0  0  0  0  0  0  0  0  0  0
    7.6770   -3.2550   22.1390 C   0  0  0  0  0  0  0  0  0  0  0  0
  1  2  1  0
  2  3  2  0
  2  4  1  0
  4  5  1  0
  5  6  1  0
  6  7  1  0
  7  8  1  0
  8  9  2  0
  8 10  1  0
 10 11  1  0
 11 12  1  6
 12 13  1  0
 11 14  1  0
 14 15  2  0
 15 16  1  0
 16 17  2  0
 17 18  1  0
 14 19  1  0
 18 19  2  0
  7 20  1  0
  4 21  1  0
 20 21  1  0
M  END
