piperidine-amides-12578-covalent
     RDKit          3D

 23 24  0  0  0  0  0  0  0  0999 V2000
    7.1160   -3.2650   19.1480 C   0  0  0  0  0  0  0  0  0  0  0  0
    6.3390   -3.9890   20.1790 C   0  0  0  0  0  0  0  0  0  0  0  0
    5.2380   -4.4460   19.8320 O   0  0  0  0  0  0  0  0  0  0  0  0
    6.8500   -4.2050   21.4600 N   0  0  0  0  0  0  0  0  0  0  0  0
    7.6150   -3.1820   22.1040 C   0  0  0  0  0  0  0  0  0  0  0  0
    7.1730   -2.8150   23.4480 C   0  0  0  0  0  0  0  0  0  0  0  0
    6.4690   -3.8760   24.1920 C   0  0  0  0  0  0  0  0  0  0  0  0
    5.7990   -3.2990   25.3840 C   0  0  0  0  0  0  0  0  0  0  0  0
    4.5550   -3.2520   25.3920 O   0  0  0  0  0  0  0  0  0  0  0  0
    6.5500   -2.8040   26.4700 N   0  0  0  0  0  0  0  0  0  0  0  0
    6.3480   -3.2160   27.8840 C   0  0  0  0  0  0  0  0  0  0  0  0
    6.0240   -4.6590   28.0640 C   0  0  0  0  0  0  0  0  0  0  0  0
    4.6440   -4.9550   28.4830 C   0  0  0  0  0  0  0  0  0  0  0  0
    3.5640   -4.3580   27.8940 C   0  0  0  0  0  0  0  0  0  0  0  0
    2.2510   -4.5760   28.2190 C   0  0  0  0  0  0  0  0  0  0  0  0
    1.9870   -5.4630   29.2120 C   0  0  0  0  0  0  0  0  0  0  0  0
    3.0300   -6.0920   29.8380 C   0  0  0  0  0  0  0  0  0  0  0  0
    2.6070   -7.3420   31.2330 Br  0  0  0  0  0  0  0  0  0  0  0  0
    4.3410   -5.8500   29.4920 C   0  0  0  0  0  0  0  0  0  0  0  0
    5.3290   -6.4900   30.1390 O   0  0  0  0  0  0  0  0  0  0  0  0
    6.2250   -7.2140   29.3520 C   0  0  0  0  0  0  0  0  0  0  0  0
    5.5730   -4.7380   23.3950 C   0  0  0  0  0  0  0  0  0  0  0  0
    6.3940   -5.3200   22.2770 C   0  0  0  0  0  0  0  0  0  0  0  0
  1  2  1  0
  2  3  2  0
  2  4  1  0
  4  5  1  0
  5  6  1  0
  6  7  1  0
  7  8  1  0
  8  9  2  0
  8 10  1  0
 10 11  1  0
 11 12  1  0
 12 13  1  0
 13 14  2  0
 14 15  1  0
 15 16  2  0
 16 17  1  0
 17 18  1  0
 13 19  1  0
 17 19  2  0
 19 20  1  0
 20 21  1  0
  7 22  1  0
  4 23  1  0
 22 23  1  0
M  END
