piperidine-amides-26961-covalent
     RDKit          3D

 25 27  0  0  0  0  0  0  0  0999 V2000
    6.9950   -3.3800   19.4240 C   0  0  0  0  0  0  0  0  0  0  0  0
    6.3830   -4.2730   20.4160 C   0  0  0  0  0  0  0  0  0  0  0  0
    5.3980   -4.9410   20.0020 O   0  0  0  0  0  0  0  0  0  0  0  0
    6.8990   -4.3980   21.7210 N   0  0  0  0  0  0  0  0  0  0  0  0
    6.7280   -5.6290   22.4700 C   0  0  0  0  0  0  0  0  0  0  0  0
    6.0750   -5.2820   23.7830 C   0  0  0  0  0  0  0  0  0  0  0  0
    5.8510   -3.8020   23.8400 C   0  0  0  0  0  0  0  0  0  0  0  0
    5.1390   -3.3340   25.0730 C   0  0  0  0  0  0  0  0  0  0  0  0
    4.1980   -2.5440   24.8940 O   0  0  0  0  0  0  0  0  0  0  0  0
    5.4000   -3.6790   26.4150 N   0  0  0  0  0  0  0  0  0  0  0  0
    4.3580   -4.2300   27.2820 C   0  0  0  0  0  0  0  0  0  0  0  0
    5.1300   -4.8140   28.4380 C   0  0  1  0  0  0  0  0  0  0  0  0
    6.4580   -4.7120   28.7250 C   0  0  0  0  0  0  0  0  0  0  0  0
    6.5950   -3.3850   28.3540 C   0  0  1  0  0  0  0  0  0  0  0  0
    6.4730   -2.9770   27.0190 C   0  0  0  0  0  0  0  0  0  0  0  0
    5.3270   -3.3600   28.6030 N   0  0  0  0  0  0  0  0  0  0  0  0
    5.0430   -2.5690   29.6530 C   0  0  0  0  0  0  0  0  0  0  0  0
    3.7600   -2.2390   30.1140 O   0  0  0  0  0  0  0  0  0  0  0  0
    6.0510   -2.1140   30.2450 O   0  0  0  0  0  0  0  0  0  0  0  0
    6.5990   -0.8530   29.9120 C   0  0  0  0  0  0  0  0  0  0  0  0
    6.6880   -0.0060   31.1590 C   0  0  0  0  0  0  0  0  0  0  0  0
    5.9850   -0.2300   28.8680 C   0  0  0  0  0  0  0  0  0  0  0  0
    7.7930   -1.2130   29.3450 C   0  0  0  0  0  0  0  0  0  0  0  0
    7.1490   -3.0750   23.6260 C   0  0  0  0  0  0  0  0  0  0  0  0
    7.6890   -3.3310   22.3750 C   0  0  0  0  0  0  0  0  0  0  0  0
  1  2  1  0
  2  3  2  0
  2  4  1  0
  4  5  1  0
  5  6  1  0
  6  7  1  0
  7  8  1  0
  8  9  2  0
  8 10  1  0
 10 11  1  0
 12 11  1  6
 12 13  1  0
 14 13  1  6
 10 15  1  0
 14 15  1  0
 12 16  1  0
 14 16  1  0
 16 17  1  0
 17 18  2  0
 17 19  1  0
 20 19  1  0
 20 21  1  0
 20 22  1  0
 20 23  1  0
  7 24  1  0
  4 25  1  0
 24 25  1  0
M  END
