piperidine-amides-13795-covalent
     RDKit          3D

 26 27  0  0  0  0  0  0  0  0999 V2000
    7.0630   -3.3370   19.2910 C   0  0  0  0  0  0  0  0  0  0  0  0
    6.3600   -4.1780   20.2990 C   0  0  0  0  0  0  0  0  0  0  0  0
    5.3360   -4.7910   19.9610 O   0  0  0  0  0  0  0  0  0  0  0  0
    6.8950   -4.2980   21.5960 N   0  0  0  0  0  0  0  0  0  0  0  0
    7.8020   -3.3050   22.1320 C   0  0  0  0  0  0  0  0  0  0  0  0
    7.1160   -2.6990   23.3340 C   0  0  0  0  0  0  0  0  0  0  0  0
    6.6810   -3.8400   24.1760 C   0  0  0  0  0  0  0  0  0  0  0  0
    6.0230   -3.3370   25.3940 C   0  0  0  0  0  0  0  0  0  0  0  0
    4.7880   -3.4260   25.4690 O   0  0  0  0  0  0  0  0  0  0  0  0
    6.8500   -2.7890   26.3720 N   0  0  0  0  0  0  0  0  0  0  0  0
    6.6760   -1.6060   27.1440 C   0  0  0  0  0  0  0  0  0  0  0  0
    7.1590   -1.5280   28.4340 C   0  0  0  0  0  0  0  0  0  0  0  0
    7.0230   -0.4020   29.2590 C   0  0  0  0  0  0  0  0  0  0  0  0
    6.3780    0.7180   28.8040 C   0  0  0  0  0  0  0  0  0  0  0  0
    6.1710    1.9670   29.5870 C   0  0  0  0  0  0  0  0  0  0  0  0
    7.0390    2.1290   30.6900 N   0  0  0  0  0  0  0  0  0  0  0  0
    5.2220    2.8370   29.2410 O   0  0  0  0  0  0  0  0  0  0  0  0
    5.8610    0.7490   27.5280 C   0  0  0  0  0  0  0  0  0  0  0  0
    6.0010   -0.4660   26.6170 C   0  0  0  0  0  0  0  0  0  0  0  0
    5.4570   -0.3610   25.3440 O   0  0  0  0  0  0  0  0  0  0  0  0
    6.0960    0.4620   24.3860 C   0  0  0  0  0  0  0  0  0  0  0  0
    5.0650    1.3720   23.8240 C   0  0  0  0  0  0  0  0  0  0  0  0
    5.3700    1.9160   22.6210 F   0  0  0  0  0  0  0  0  0  0  0  0
    4.7910    2.4500   24.6210 F   0  0  0  0  0  0  0  0  0  0  0  0
    5.8220   -4.8620   23.4890 C   0  0  0  0  0  0  0  0  0  0  0  0
    6.5390   -5.4020   22.4470 C   0  0  0  0  0  0  0  0  0  0  0  0
  1  2  1  0
  2  3  2  0
  2  4  1  0
  4  5  1  0
  5  6  1  0
  6  7  1  0
  7  8  1  0
  8  9  2  0
  8 10  1  0
 10 11  1  0
 11 12  2  0
 12 13  1  0
 13 14  2  0
 14 15  1  0
 15 16  1  0
 15 17  2  0
 14 18  1  0
 11 19  1  0
 18 19  2  0
 19 20  1  0
 20 21  1  0
 21 22  1  0
 22 23  1  0
 22 24  1  0
  7 25  1  0
  4 26  1  0
 25 26  1  0
M  END
