piperidine-amides-34017-covalent
     RDKit          3D

 30 33  0  0  0  0  0  0  0  0999 V2000
    7.0320   -3.3280   19.3310 C   0  0  0  0  0  0  0  0  0  0  0  0
    6.3650   -4.1930   20.3180 C   0  0  0  0  0  0  0  0  0  0  0  0
    5.3690   -4.8650   19.9800 O   0  0  0  0  0  0  0  0  0  0  0  0
    6.8470   -4.3210   21.6270 N   0  0  0  0  0  0  0  0  0  0  0  0
    6.6990   -5.6070   22.2710 C   0  0  0  0  0  0  0  0  0  0  0  0
    6.1690   -5.3630   23.6900 C   0  0  0  0  0  0  0  0  0  0  0  0
    5.9270   -3.8800   23.8030 C   0  0  0  0  0  0  0  0  0  0  0  0
    5.2190   -3.5370   25.0630 C   0  0  0  0  0  0  0  0  0  0  0  0
    4.0290   -3.1870   24.9800 O   0  0  0  0  0  0  0  0  0  0  0  0
    5.8570   -3.5950   26.3130 N   0  0  0  0  0  0  0  0  0  0  0  0
    5.0840   -3.8780   27.4990 C   0  0  0  0  0  0  0  0  0  0  0  0
    4.6680   -4.4260   28.8690 C   0  0  0  0  0  0  0  0  0  0  0  0
    5.3390   -5.2230   29.7630 C   0  0  0  0  0  0  0  0  0  0  0  0
    6.3830   -5.2400   28.8970 N   0  0  0  0  0  0  0  0  0  0  0  0
    6.2200   -4.5730   27.8030 N   0  0  0  0  0  0  0  0  0  0  0  0
    7.3610   -4.7460   27.1450 C   0  0  2  0  0  0  0  0  0  0  0  0
    8.2730   -5.6370   27.6480 C   0  0  0  0  0  0  0  0  0  0  0  0
    7.6650   -6.6120   28.3840 F   0  0  0  0  0  0  0  0  0  0  0  0
    9.0480   -4.9690   28.5140 F   0  0  0  0  0  0  0  0  0  0  0  0
    9.0720   -6.2070   26.6750 F   0  0  0  0  0  0  0  0  0  0  0  0
    7.8210   -3.4810   27.1400 C   0  0  0  0  0  0  0  0  0  0  0  0
    6.8530   -2.5900   26.5030 C   0  0  2  0  0  0  0  0  0  0  0  0
    6.8860   -2.0100   27.9150 C   0  0  0  0  0  0  0  0  0  0  0  0
    8.2630   -1.6210   28.4270 C   0  0  0  0  0  0  0  0  0  0  0  0
    7.8950   -1.0880   29.7800 C   0  0  0  0  0  0  0  0  0  0  0  0
    6.6570   -0.9730   30.4050 C   0  0  0  0  0  0  0  0  0  0  0  0
    5.5230   -1.3480   29.8640 C   0  0  0  0  0  0  0  0  0  0  0  0
    5.6260   -1.9110   28.5190 C   0  0  0  0  0  0  0  0  0  0  0  0
    7.1940   -3.0760   23.6580 C   0  0  0  0  0  0  0  0  0  0  0  0
    7.6600   -3.2720   22.2110 C   0  0  0  0  0  0  0  0  0  0  0  0
  1  2  1  0
  2  3  2  0
  2  4  1  0
  4  5  1  0
  5  6  1  0
  6  7  1  0
  7  8  1  0
  8  9  2  0
  8 10  1  0
 10 11  1  0
 11 12  2  0
 12 13  1  0
 13 14  2  0
 11 15  1  0
 14 15  1  0
 15 16  1  0
 16 17  1  1
 17 18  1  0
 17 19  1  0
 17 20  1  0
 16 21  1  0
 10 22  1  0
 21 22  1  0
 22 23  1  1
 23 24  2  0
 24 25  1  0
 25 26  2  0
 26 27  1  0
 23 28  1  0
 27 28  2  0
  7 29  1  0
  4 30  1  0
 29 30  1  0
M  END
