piperidine-amides-23649-covalent
     RDKit          3D

 22 23  0  0  0  0  0  0  0  0999 V2000
    7.0450   -3.3660   19.3640 C   0  0  0  0  0  0  0  0  0  0  0  0
    6.4080   -4.2380   20.3670 C   0  0  0  0  0  0  0  0  0  0  0  0
    5.3900   -4.8700   19.9890 O   0  0  0  0  0  0  0  0  0  0  0  0
    6.9540   -4.3970   21.6730 N   0  0  0  0  0  0  0  0  0  0  0  0
    6.4660   -5.4490   22.4950 C   0  0  0  0  0  0  0  0  0  0  0  0
    5.8150   -5.0230   23.7430 C   0  0  0  0  0  0  0  0  0  0  0  0
    6.3080   -3.7810   24.4060 C   0  0  0  0  0  0  0  0  0  0  0  0
    5.3320   -3.2330   25.4400 C   0  0  0  0  0  0  0  0  0  0  0  0
    4.4770   -2.4180   25.0630 O   0  0  0  0  0  0  0  0  0  0  0  0
    5.3400   -3.6130   26.8170 N   0  0  0  0  0  0  0  0  0  0  0  0
    6.2090   -4.5240   27.3360 C   0  0  0  0  0  0  0  0  0  0  0  0
    5.9340   -5.3110   28.4760 C   0  0  0  0  0  0  0  0  0  0  0  0
    4.7790   -5.1010   29.0540 N   0  0  0  0  0  0  0  0  0  0  0  0
    4.6390   -6.2760   30.2370 S   0  0  0  0  0  0  0  0  0  0  0  0
    5.9410   -6.4310   30.9680 O   0  0  0  0  0  0  0  0  0  0  0  0
    3.5540   -5.9870   31.2120 O   0  0  0  0  0  0  0  0  0  0  0  0
    4.2760   -7.6930   29.2340 C   0  0  0  0  0  0  0  0  0  0  0  0
    4.0760   -7.1970   27.9560 C   0  0  0  0  0  0  0  0  0  0  0  0
    4.8000   -3.6930   29.2150 C   0  0  0  0  0  0  0  0  0  0  0  0
    4.6630   -2.9320   27.9060 C   0  0  0  0  0  0  0  0  0  0  0  0
    6.6720   -2.7200   23.3620 C   0  0  0  0  0  0  0  0  0  0  0  0
    7.6290   -3.3260   22.3640 C   0  0  0  0  0  0  0  0  0  0  0  0
  1  2  1  0
  2  3  2  0
  2  4  1  0
  4  5  1  0
  5  6  1  0
  6  7  1  0
  7  8  1  0
  8  9  2  0
  8 10  1  0
 10 11  1  0
 11 12  1  0
 12 13  1  0
 13 14  1  0
 14 15  2  0
 14 16  2  0
 14 17  1  0
 17 18  1  0
 13 19  1  0
 10 20  1  0
 19 20  1  0
  7 21  1  0
  4 22  1  0
 21 22  1  0
M  END
