piperidine-amides-33044-covalent
     RDKit          3D

 28 31  0  0  0  0  0  0  0  0999 V2000
    7.0100   -3.3510   19.4150 C   0  0  0  0  0  0  0  0  0  0  0  0
    6.3540   -4.2520   20.4110 C   0  0  0  0  0  0  0  0  0  0  0  0
    5.4140   -4.9640   20.0090 O   0  0  0  0  0  0  0  0  0  0  0  0
    6.8170   -4.3090   21.7600 N   0  0  0  0  0  0  0  0  0  0  0  0
    6.6650   -5.4940   22.5910 C   0  0  0  0  0  0  0  0  0  0  0  0
    6.0140   -5.1210   23.9490 C   0  0  0  0  0  0  0  0  0  0  0  0
    5.9490   -3.6360   24.0480 C   0  0  0  0  0  0  0  0  0  0  0  0
    5.3200   -2.9920   25.2660 C   0  0  0  0  0  0  0  0  0  0  0  0
    4.8210   -1.8990   25.0280 O   0  0  0  0  0  0  0  0  0  0  0  0
    5.2480   -3.5280   26.5750 N   0  0  0  0  0  0  0  0  0  0  0  0
    4.3700   -3.1810   27.5970 C   0  0  0  0  0  0  0  0  0  0  0  0
    4.7500   -3.5250   28.8730 C   0  0  0  0  0  0  0  0  0  0  0  0
    5.2570   -4.8730   28.7320 N   0  0  0  0  0  0  0  0  0  0  0  0
    4.3800   -5.9350   28.4980 C   0  0  0  0  0  0  0  0  0  0  0  0
    3.8550   -6.3210   29.7020 N   0  0  0  0  0  0  0  0  0  0  0  0
    2.8420   -7.5450   29.1410 S   0  0  0  0  0  0  0  0  0  0  0  0
    1.8190   -8.6530   29.3110 O   0  0  0  0  0  0  0  0  0  0  0  0
    2.2650   -7.9630   30.4560 O   0  0  0  0  0  0  0  0  0  0  0  0
    3.0200   -7.6320   27.4660 C   0  0  0  0  0  0  0  0  0  0  0  0
    2.5250   -8.3820   26.2750 C   0  0  0  0  0  0  0  0  0  0  0  0
    3.0210   -8.0660   24.8560 C   0  0  0  0  0  0  0  0  0  0  0  0
    4.0480   -6.9380   24.8010 C   0  0  0  0  0  0  0  0  0  0  0  0
    4.4480   -6.2980   25.9600 C   0  0  0  0  0  0  0  0  0  0  0  0
    3.9580   -6.6140   27.3170 C   0  0  0  0  0  0  0  0  0  0  0  0
    6.4000   -4.9030   27.8720 C   0  0  0  0  0  0  0  0  0  0  0  0
    6.4920   -3.6880   27.1880 C   0  0  0  0  0  0  0  0  0  0  0  0
    7.2390   -2.9610   23.7140 C   0  0  0  0  0  0  0  0  0  0  0  0
    7.6780   -3.2510   22.2940 C   0  0  0  0  0  0  0  0  0  0  0  0
  1  2  1  0
  2  3  2  0
  2  4  1  0
  4  5  1  0
  5  6  1  0
  6  7  1  0
  7  8  1  0
  8  9  2  0
  8 10  1  0
 10 11  1  0
 11 12  1  0
 12 13  1  0
 13 14  1  0
 14 15  2  0
 15 16  1  0
 16 17  2  0
 16 18  2  0
 16 19  1  0
 19 20  1  0
 20 21  2  0
 21 22  1  0
 22 23  2  0
 14 24  1  0
 19 24  2  0
 23 24  1  0
 13 25  1  0
 10 26  1  0
 25 26  1  0
  7 27  1  0
  4 28  1  0
 27 28  1  0
M  END
