piperidine-amides-25647-covalent
     RDKit          3D

 25 27  0  0  0  0  0  0  0  0999 V2000
    7.0770   -3.3250   19.2470 C   0  0  0  0  0  0  0  0  0  0  0  0
    6.3940   -4.1390   20.2840 C   0  0  0  0  0  0  0  0  0  0  0  0
    5.3700   -4.7360   19.9500 O   0  0  0  0  0  0  0  0  0  0  0  0
    6.9450   -4.2430   21.5610 N   0  0  0  0  0  0  0  0  0  0  0  0
    6.7170   -5.3980   22.3900 C   0  0  0  0  0  0  0  0  0  0  0  0
    6.0210   -4.9700   23.6540 C   0  0  0  0  0  0  0  0  0  0  0  0
    6.1670   -3.4510   23.8670 C   0  0  0  0  0  0  0  0  0  0  0  0
    5.7880   -3.1440   25.2480 C   0  0  0  0  0  0  0  0  0  0  0  0
    5.0040   -2.2230   25.4990 O   0  0  0  0  0  0  0  0  0  0  0  0
    6.2940   -3.9570   26.2450 N   0  0  0  0  0  0  0  0  0  0  0  0
    5.4910   -4.9840   26.6440 C   0  0  0  0  0  0  0  0  0  0  0  0
    6.5530   -4.9130   27.7530 C   0  0  0  0  0  0  0  0  0  0  0  0
    7.1200   -5.3650   28.9660 C   0  0  0  0  0  0  0  0  0  0  0  0
    6.3960   -6.4340   29.5180 C   0  0  0  0  0  0  0  0  0  0  0  0
    5.4090   -6.6590   28.6870 C   0  0  0  0  0  0  0  0  0  0  0  0
    5.6510   -5.6470   27.6730 C   0  0  0  0  0  0  0  0  0  0  0  0
    6.9020   -4.9760   28.2740 C   0  0  0  0  0  0  0  0  0  0  0  0
    6.7940   -3.5810   27.5450 C   0  0  1  0  0  0  0  0  0  0  0  0
    8.1140   -2.9260   27.7830 C   0  0  0  0  0  0  0  0  0  0  0  0
    7.9040   -1.6750   28.5770 C   0  0  0  0  0  0  0  0  0  0  0  0
    8.7310   -1.3140   29.4780 O   0  0  0  0  0  0  0  0  0  0  0  0
    6.9530   -0.8610   28.4700 O   0  0  0  0  0  0  0  0  0  0  0  0
    6.3250   -0.7740   27.1740 C   0  0  0  0  0  0  0  0  0  0  0  0
    7.5900   -3.0510   23.5910 C   0  0  0  0  0  0  0  0  0  0  0  0
    7.7630   -3.1690   22.1100 C   0  0  0  0  0  0  0  0  0  0  0  0
  1  2  1  0
  2  3  2  0
  2  4  1  0
  4  5  1  0
  5  6  1  0
  6  7  1  0
  7  8  1  0
  8  9  2  0
  8 10  1  0
 10 11  1  0
 11 12  2  0
 12 13  1  0
 13 14  2  0
 14 15  1  0
 11 16  1  0
 15 16  2  0
 16 17  1  0
 10 18  1  0
 17 18  1  0
 18 19  1  6
 19 20  1  0
 20 21  2  0
 20 22  1  0
 22 23  1  0
  7 24  1  0
  4 25  1  0
 24 25  1  0
M  END
