piperidine-amides-28140-covalent
     RDKit          3D

 25 26  0  0  0  0  0  0  0  0999 V2000
    7.0840   -3.3650   19.3670 C   0  0  0  0  0  0  0  0  0  0  0  0
    6.3740   -4.1910   20.3660 C   0  0  0  0  0  0  0  0  0  0  0  0
    5.3520   -4.7920   19.9670 O   0  0  0  0  0  0  0  0  0  0  0  0
    6.8760   -4.3190   21.6710 N   0  0  0  0  0  0  0  0  0  0  0  0
    6.5520   -5.4420   22.4820 C   0  0  0  0  0  0  0  0  0  0  0  0
    6.4580   -5.1660   23.9320 C   0  0  0  0  0  0  0  0  0  0  0  0
    6.6970   -3.7710   24.4190 C   0  0  0  0  0  0  0  0  0  0  0  0
    5.7320   -3.4610   25.5340 C   0  0  0  0  0  0  0  0  0  0  0  0
    4.5790   -3.1700   25.1720 O   0  0  0  0  0  0  0  0  0  0  0  0
    6.0180   -3.4760   26.9460 N   0  0  0  0  0  0  0  0  0  0  0  0
    6.3760   -4.6800   27.6960 C   0  0  0  0  0  0  0  0  0  0  0  0
    5.4280   -4.7460   28.7570 C   0  0  0  0  0  0  0  0  0  0  0  0
    4.6010   -3.5490   28.7990 C   0  0  1  0  0  0  0  0  0  0  0  0
    3.3440   -3.8770   28.3270 C   0  0  0  0  0  0  0  0  0  0  0  0
    2.6140   -2.6790   28.3130 N   0  0  0  0  0  0  0  0  0  0  0  0
    4.5720   -2.8890   29.9810 N   0  0  0  0  0  0  0  0  0  0  0  0
    3.6860   -3.7340   30.5930 C   0  0  0  0  0  0  0  0  0  0  0  0
    3.9010   -4.9960   30.3400 O   0  0  0  0  0  0  0  0  0  0  0  0
    2.6770   -3.3150   31.4130 C   0  0  0  0  0  0  0  0  0  0  0  0
    2.0860   -4.2150   32.2680 F   0  0  0  0  0  0  0  0  0  0  0  0
    1.6400   -2.8390   30.5790 F   0  0  0  0  0  0  0  0  0  0  0  0
    3.0950   -2.2240   32.1040 F   0  0  0  0  0  0  0  0  0  0  0  0
    5.1530   -2.7030   27.8260 C   0  0  0  0  0  0  0  0  0  0  0  0
    6.7650   -2.7350   23.3620 C   0  0  0  0  0  0  0  0  0  0  0  0
    7.5360   -3.2170   22.3090 C   0  0  0  0  0  0  0  0  0  0  0  0
  1  2  1  0
  2  3  2  0
  2  4  1  0
  4  5  1  0
  5  6  1  0
  6  7  1  0
  7  8  1  0
  8  9  2  0
  8 10  1  0
 10 11  1  0
 11 12  1  0
 12 13  1  0
 13 14  1  6
 14 15  3  0
 13 16  1  0
 16 17  1  0
 17 18  2  0
 17 19  1  0
 19 20  1  0
 19 21  1  0
 19 22  1  0
 10 23  1  0
 13 23  1  0
  7 24  1  0
  4 25  1  0
 24 25  1  0
M  END
