piperidine-amides-10468-covalent
     RDKit          3D

 24 25  0  0  0  0  0  0  0  0999 V2000
    7.0250   -3.3500   19.3650 C   0  0  0  0  0  0  0  0  0  0  0  0
    6.3770   -4.1900   20.3810 C   0  0  0  0  0  0  0  0  0  0  0  0
    5.3920   -4.8700   19.9880 O   0  0  0  0  0  0  0  0  0  0  0  0
    6.8640   -4.2510   21.7000 N   0  0  0  0  0  0  0  0  0  0  0  0
    7.7490   -3.2260   22.2190 C   0  0  0  0  0  0  0  0  0  0  0  0
    7.3880   -2.9940   23.6540 C   0  0  0  0  0  0  0  0  0  0  0  0
    6.0500   -3.6080   23.9300 C   0  0  0  0  0  0  0  0  0  0  0  0
    5.5810   -3.3230   25.3110 C   0  0  0  0  0  0  0  0  0  0  0  0
    4.3540   -3.3960   25.5250 O   0  0  0  0  0  0  0  0  0  0  0  0
    6.4160   -2.9690   26.3870 N   0  0  0  0  0  0  0  0  0  0  0  0
    6.3510   -1.6610   26.9940 C   0  0  0  0  0  0  0  0  0  0  0  0
    5.5160   -0.5550   26.3770 C   0  0  0  0  0  0  0  0  0  0  0  0
    5.4510    0.6880   26.9520 C   0  0  0  0  0  0  0  0  0  0  0  0
    6.1570    0.9410   28.1040 C   0  0  0  0  0  0  0  0  0  0  0  0
    6.0320    2.1630   28.5650 O   0  0  0  0  0  0  0  0  0  0  0  0
    4.8690    2.3410   29.1210 C   0  0  0  0  0  0  0  0  0  0  0  0
    7.0160   -0.0740   28.7970 C   0  0  0  0  0  0  0  0  0  0  0  0
    7.6260    0.2760   29.8150 O   0  0  0  0  0  0  0  0  0  0  0  0
    7.1610   -0.1670   31.0600 C   0  0  0  0  0  0  0  0  0  0  0  0
    5.6980   -0.5340   30.9900 C   0  0  0  0  0  0  0  0  0  0  0  0
    7.5230    0.6050   32.1190 C   0  0  0  0  0  0  0  0  0  0  0  0
    7.0870   -1.3140   28.2470 C   0  0  0  0  0  0  0  0  0  0  0  0
    6.0670   -5.1010   23.7240 C   0  0  0  0  0  0  0  0  0  0  0  0
    6.6900   -5.4470   22.5310 C   0  0  0  0  0  0  0  0  0  0  0  0
  1  2  1  0
  2  3  2  0
  2  4  1  0
  4  5  1  0
  5  6  1  0
  6  7  1  0
  7  8  1  0
  8  9  2  0
  8 10  1  0
 10 11  1  0
 11 12  2  0
 12 13  1  0
 13 14  2  0
 14 15  1  0
 15 16  1  0
 14 17  1  0
 17 18  1  0
 18 19  1  0
 19 20  1  0
 19 21  1  0
 11 22  1  0
 17 22  2  0
  7 23  1  0
  4 24  1  0
 23 24  1  0
M  END
