piperidine-amides-1898-covalent
     RDKit          3D

 26 28  0  0  0  0  0  0  0  0999 V2000
    7.0480   -3.3280   19.2850 C   0  0  0  0  0  0  0  0  0  0  0  0
    6.3360   -4.1880   20.2650 C   0  0  0  0  0  0  0  0  0  0  0  0
    5.2670   -4.6700   19.9150 O   0  0  0  0  0  0  0  0  0  0  0  0
    6.9110   -4.4690   21.4950 N   0  0  0  0  0  0  0  0  0  0  0  0
    7.6390   -3.4670   22.2100 C   0  0  0  0  0  0  0  0  0  0  0  0
    6.7620   -3.0000   23.3100 C   0  0  0  0  0  0  0  0  0  0  0  0
    6.5020   -4.1810   24.2340 C   0  0  0  0  0  0  0  0  0  0  0  0
    5.7770   -3.6440   25.3830 C   0  0  0  0  0  0  0  0  0  0  0  0
    4.5390   -3.6810   25.4330 O   0  0  0  0  0  0  0  0  0  0  0  0
    6.5080   -3.0650   26.4160 N   0  0  0  0  0  0  0  0  0  0  0  0
    6.6770   -1.6400   26.3410 C   0  0  0  0  0  0  0  0  0  0  0  0
    7.4490   -1.2570   25.0590 C   0  0  0  0  0  0  0  0  0  0  0  0
    8.6040   -1.9570   24.6060 C   0  0  0  0  0  0  0  0  0  0  0  0
    9.3200   -1.6240   23.4460 C   0  0  0  0  0  0  0  0  0  0  0  0
   10.4340   -2.3740   23.0840 F   0  0  0  0  0  0  0  0  0  0  0  0
    8.9870   -0.5920   22.6320 C   0  0  0  0  0  0  0  0  0  0  0  0
    7.8090    0.2100   22.9990 C   0  0  0  0  0  0  0  0  0  0  0  0
    7.6330    1.2960   21.9610 C   0  0  0  0  0  0  0  0  0  0  0  0
    6.3650    1.5910   21.5560 O   0  0  0  0  0  0  0  0  0  0  0  0
    8.7310    1.9760   21.4290 O   0  0  0  0  0  0  0  0  0  0  0  0
    9.3290    3.0610   22.1550 C   0  0  0  0  0  0  0  0  0  0  0  0
    7.0130   -0.1010   24.2120 C   0  0  0  0  0  0  0  0  0  0  0  0
    5.5540   -0.8160   26.8510 C   0  0  0  0  0  0  0  0  0  0  0  0
    6.8510   -0.8160   27.6280 C   0  0  0  0  0  0  0  0  0  0  0  0
    5.7010   -5.2160   23.4800 C   0  0  0  0  0  0  0  0  0  0  0  0
    6.4800   -5.6270   22.2570 C   0  0  0  0  0  0  0  0  0  0  0  0
  1  2  1  0
  2  3  2  0
  2  4  1  0
  4  5  1  0
  5  6  1  0
  6  7  1  0
  7  8  1  0
  8  9  2  0
  8 10  1  0
 11 10  1  0
 11 12  1  0
 12 13  2  0
 13 14  1  0
 14 15  1  0
 14 16  2  0
 16 17  1  0
 17 18  1  0
 18 19  2  0
 18 20  1  0
 20 21  1  0
 12 22  1  0
 17 22  2  0
 11 23  1  0
 11 24  1  0
 23 24  1  0
  7 25  1  0
  4 26  1  0
 25 26  1  0
M  END
