piperidine-amides-30238-covalent
     RDKit          3D

 27 29  0  0  0  0  0  0  0  0999 V2000
    7.0140   -3.3730   19.3550 C   0  0  0  0  0  0  0  0  0  0  0  0
    6.3640   -4.2390   20.3350 C   0  0  0  0  0  0  0  0  0  0  0  0
    5.3750   -4.8860   19.9910 O   0  0  0  0  0  0  0  0  0  0  0  0
    6.8850   -4.3950   21.6700 N   0  0  0  0  0  0  0  0  0  0  0  0
    7.6460   -3.3480   22.3120 C   0  0  0  0  0  0  0  0  0  0  0  0
    6.8750   -2.7530   23.4630 C   0  0  0  0  0  0  0  0  0  0  0  0
    6.3330   -3.8660   24.3570 C   0  0  0  0  0  0  0  0  0  0  0  0
    5.3210   -3.3080   25.3260 C   0  0  0  0  0  0  0  0  0  0  0  0
    4.4280   -2.5500   24.9250 O   0  0  0  0  0  0  0  0  0  0  0  0
    5.3350   -3.6120   26.7290 N   0  0  0  0  0  0  0  0  0  0  0  0
    4.1180   -3.8840   27.4310 C   0  0  0  0  0  0  0  0  0  0  0  0
    4.4830   -4.3060   28.8480 C   0  0  0  0  0  0  0  0  0  0  0  0
    5.6000   -4.9770   29.1580 N   0  0  0  0  0  0  0  0  0  0  0  0
    5.3500   -6.3080   29.1870 C   0  0  0  0  0  0  0  0  0  0  0  0
    4.5880   -6.9950   30.1500 C   0  0  0  0  0  0  0  0  0  0  0  0
    4.7340   -6.6380   31.4720 C   0  0  0  0  0  0  0  0  0  0  0  0
    4.5760   -7.5690   32.5820 C   0  0  0  0  0  0  0  0  0  0  0  0
    5.4730   -8.5200   33.0270 C   0  0  0  0  0  0  0  0  0  0  0  0
    5.3130   -9.3930   34.0810 C   0  0  0  0  0  0  0  0  0  0  0  0
    4.1320   -9.3420   34.7980 C   0  0  0  0  0  0  0  0  0  0  0  0
    3.1370   -8.3580   34.3810 C   0  0  0  0  0  0  0  0  0  0  0  0
    1.9910   -8.3480   35.1210 F   0  0  0  0  0  0  0  0  0  0  0  0
    3.3920   -7.5210   33.3060 C   0  0  0  0  0  0  0  0  0  0  0  0
    6.6300   -4.5260   28.2980 C   0  0  0  0  0  0  0  0  0  0  0  0
    6.4940   -3.3100   27.4220 C   0  0  0  0  0  0  0  0  0  0  0  0
    5.6610   -4.9930   23.6170 C   0  0  0  0  0  0  0  0  0  0  0  0
    6.4970   -5.5120   22.4640 C   0  0  0  0  0  0  0  0  0  0  0  0
  1  2  1  0
  2  3  2  0
  2  4  1  0
  4  5  1  0
  5  6  1  0
  6  7  1  0
  7  8  1  0
  8  9  2  0
  8 10  1  0
 10 11  1  0
 11 12  1  0
 12 13  1  0
 13 14  1  0
 14 15  1  0
 15 16  1  0
 16 17  1  0
 17 18  2  0
 18 19  1  0
 19 20  2  0
 20 21  1  0
 21 22  1  0
 17 23  1  0
 21 23  2  0
 13 24  1  0
 10 25  1  0
 24 25  1  0
  7 26  1  0
  4 27  1  0
 26 27  1  0
M  END
