piperidine-amides-30546-covalent
     RDKit          3D

 23 25  0  0  0  0  0  0  0  0999 V2000
    7.2410   -4.0740   19.7410 C   0  0  0  0  0  0  0  0  0  0  0  0
    6.0730   -4.0630   20.4770 C   0  0  0  0  0  0  0  0  0  0  0  0
    5.0500   -4.1950   19.7790 O   0  0  0  0  0  0  0  0  0  0  0  0
    6.1630   -4.0560   21.8750 N   0  0  0  0  0  0  0  0  0  0  0  0
    6.1230   -5.3500   22.5260 C   0  0  0  0  0  0  0  0  0  0  0  0
    5.9190   -5.0700   23.9760 C   0  0  0  0  0  0  0  0  0  0  0  0
    6.0780   -3.6080   24.2540 C   0  0  0  0  0  0  0  0  0  0  0  0
    5.9230   -3.1870   25.6900 C   0  0  0  0  0  0  0  0  0  0  0  0
    5.4980   -2.0270   25.9450 O   0  0  0  0  0  0  0  0  0  0  0  0
    6.1660   -4.0360   26.8130 N   0  0  0  0  0  0  0  0  0  0  0  0
    6.0630   -5.4420   26.4270 C   0  0  0  0  0  0  0  0  0  0  0  0
    4.7250   -5.8950   26.8450 C   0  0  0  0  0  0  0  0  0  0  0  0
    3.9000   -5.0190   27.7520 C   0  0  0  0  0  0  0  0  0  0  0  0
    4.6030   -4.8210   29.0310 C   0  0  0  0  0  0  0  0  0  0  0  0
    5.8860   -5.2310   28.4710 C   0  0  0  0  0  0  0  0  0  0  0  0
    5.4630   -6.0740   29.6140 C   0  0  0  0  0  0  0  0  0  0  0  0
    3.8930   -6.0930   30.7480 Br  0  0  0  0  0  0  0  0  0  0  0  0
    6.4160   -6.8290   29.6390 C   0  0  0  0  0  0  0  0  0  0  0  0
    6.4720   -5.8010   28.5920 C   0  0  0  0  0  0  0  0  0  0  0  0
    5.0630   -5.1100   29.1000 C   0  0  0  0  0  0  0  0  0  0  0  0
    5.2200   -4.1220   27.8740 C   0  0  0  0  0  0  0  0  0  0  0  0
    7.3890   -3.2000   23.5630 C   0  0  0  0  0  0  0  0  0  0  0  0
    7.1680   -3.0830   22.3730 C   0  0  0  0  0  0  0  0  0  0  0  0
  1  2  1  0
  2  3  2  0
  2  4  1  0
  4  5  1  0
  5  6  1  0
  6  7  1  0
  7  8  1  0
  8  9  2  0
  8 10  1  0
 10 11  1  0
 11 12  1  0
 12 13  1  0
 13 14  1  0
 14 15  1  0
 15 16  1  0
 16 17  1  0
 16 18  2  0
 18 19  1  0
 19 20  2  0
 10 21  1  0
 15 21  2  0
 20 21  1  0
  7 22  1  0
  4 23  1  0
 22 23  1  0
M  END
