piperidine-amides-11169-covalent
     RDKit          3D

 19 20  0  0  0  0  0  0  0  0999 V2000
    7.0860   -3.2900   19.2520 C   0  0  0  0  0  0  0  0  0  0  0  0
    6.3350   -4.0420   20.2630 C   0  0  0  0  0  0  0  0  0  0  0  0
    5.3040   -4.6420   19.9180 O   0  0  0  0  0  0  0  0  0  0  0  0
    6.7760   -4.1390   21.5970 N   0  0  0  0  0  0  0  0  0  0  0  0
    7.6960   -3.1630   22.1550 C   0  0  0  0  0  0  0  0  0  0  0  0
    7.2580   -2.8520   23.5590 C   0  0  0  0  0  0  0  0  0  0  0  0
    6.0000   -3.5750   23.9280 C   0  0  0  0  0  0  0  0  0  0  0  0
    5.5950   -3.2610   25.3160 C   0  0  0  0  0  0  0  0  0  0  0  0
    4.3890   -2.9900   25.5830 O   0  0  0  0  0  0  0  0  0  0  0  0
    6.5170   -3.2450   26.3760 N   0  0  0  0  0  0  0  0  0  0  0  0
    6.0890   -3.2060   27.7890 C   0  0  0  0  0  0  0  0  0  0  0  0
    5.7760   -4.5740   28.2760 C   0  0  0  0  0  0  0  0  0  0  0  0
    6.6420   -5.5660   28.8730 C   0  0  0  0  0  0  0  0  0  0  0  0
    5.7550   -6.9700   29.2630 S   0  0  0  0  0  0  0  0  0  0  0  0
    4.1900   -6.3940   28.6840 C   0  0  0  0  0  0  0  0  0  0  0  0
    2.6060   -7.1990   28.6770 Cl  0  0  0  0  0  0  0  0  0  0  0  0
    4.4920   -5.0400   28.1900 N   0  0  0  0  0  0  0  0  0  0  0  0
    5.9750   -5.0320   23.6350 C   0  0  0  0  0  0  0  0  0  0  0  0
    6.6190   -5.3570   22.3420 C   0  0  0  0  0  0  0  0  0  0  0  0
  1  2  1  0
  2  3  2  0
  2  4  1  0
  4  5  1  0
  5  6  1  0
  6  7  1  0
  7  8  1  0
  8  9  2  0
  8 10  1  0
 10 11  1  0
 11 12  1  0
 12 13  2  0
 13 14  1  0
 14 15  1  0
 15 16  1  0
 12 17  1  0
 15 17  2  0
  7 18  1  0
  4 19  1  0
 18 19  1  0
M  END
