piperidine-amides-8637-covalent
     RDKit          3D

 23 24  0  0  0  0  0  0  0  0999 V2000
    7.1140   -3.2730   19.2120 C   0  0  0  0  0  0  0  0  0  0  0  0
    6.3780   -4.0430   20.2150 C   0  0  0  0  0  0  0  0  0  0  0  0
    5.2940   -4.5530   19.8870 O   0  0  0  0  0  0  0  0  0  0  0  0
    6.9260   -4.2450   21.5020 N   0  0  0  0  0  0  0  0  0  0  0  0
    7.6200   -3.1540   22.1220 C   0  0  0  0  0  0  0  0  0  0  0  0
    6.8410   -2.7140   23.3190 C   0  0  0  0  0  0  0  0  0  0  0  0
    6.7160   -3.9190   24.2270 C   0  0  0  0  0  0  0  0  0  0  0  0
    6.1090   -3.4830   25.5220 C   0  0  0  0  0  0  0  0  0  0  0  0
    4.9040   -3.2120   25.5000 O   0  0  0  0  0  0  0  0  0  0  0  0
    6.9460   -3.4090   26.6370 N   0  0  0  0  0  0  0  0  0  0  0  0
    7.4400   -4.5500   27.3500 C   0  0  2  0  0  0  0  0  0  0  0  0
    8.3930   -5.3380   26.6890 C   0  0  0  0  0  0  0  0  0  0  0  0
    9.6910   -4.8940   26.6090 C   0  0  0  0  0  0  0  0  0  0  0  0
   10.0260   -3.7780   25.8640 C   0  0  0  0  0  0  0  0  0  0  0  0
   11.3190   -3.5220   25.3690 N   0  0  0  0  0  0  0  0  0  0  0  0
    6.3160   -5.4950   27.6440 C   0  0  0  0  0  0  0  0  0  0  0  0
    5.1150   -5.7350   26.6700 C   0  0  0  0  0  0  0  0  0  0  0  0
    4.0520   -6.7030   27.0570 C   0  0  0  0  0  0  0  0  0  0  0  0
    4.1620   -7.4130   28.3600 C   0  0  0  0  0  0  0  0  0  0  0  0
    5.3590   -7.1340   29.2630 C   0  0  0  0  0  0  0  0  0  0  0  0
    6.3640   -6.2580   28.9600 C   0  0  0  0  0  0  0  0  0  0  0  0
    5.8060   -4.9010   23.5440 C   0  0  0  0  0  0  0  0  0  0  0  0
    6.4040   -5.3630   22.2430 C   0  0  0  0  0  0  0  0  0  0  0  0
  1  2  1  0
  2  3  2  0
  2  4  1  0
  4  5  1  0
  5  6  1  0
  6  7  1  0
  7  8  1  0
  8  9  2  0
  8 10  1  0
 10 11  1  0
 11 12  1  6
 12 13  1  0
 13 14  1  0
 14 15  3  0
 11 16  1  0
 16 17  2  0
 17 18  1  0
 18 19  2  0
 19 20  1  0
 16 21  1  0
 20 21  2  0
  7 22  1  0
  4 23  1  0
 22 23  1  0
M  END
