piperidine-amides-35602-covalent
     RDKit          3D

 39 45  0  0  0  0  0  0  0  0999 V2000
    7.0430   -3.3460   19.3630 C   0  0  0  0  0  0  0  0  0  0  0  0
    6.4040   -4.2390   20.3640 C   0  0  0  0  0  0  0  0  0  0  0  0
    5.4030   -4.8550   19.9860 O   0  0  0  0  0  0  0  0  0  0  0  0
    6.9480   -4.4030   21.6450 N   0  0  0  0  0  0  0  0  0  0  0  0
    6.5930   -5.5130   22.4760 C   0  0  0  0  0  0  0  0  0  0  0  0
    5.6580   -5.0340   23.5580 C   0  0  0  0  0  0  0  0  0  0  0  0
    6.2230   -3.8090   24.3080 C   0  0  0  0  0  0  0  0  0  0  0  0
    5.1170   -3.1960   25.1110 C   0  0  0  0  0  0  0  0  0  0  0  0
    4.1560   -2.7010   24.5300 O   0  0  0  0  0  0  0  0  0  0  0  0
    5.1620   -3.1880   26.5220 N   0  0  0  0  0  0  0  0  0  0  0  0
    4.3140   -2.3860   27.4200 C   0  0  0  0  0  0  0  0  0  0  0  0
    4.3800   -3.0270   28.8030 C   0  0  0  0  0  0  0  0  0  0  0  0
    5.1640   -4.0830   28.8860 C   0  0  0  0  0  0  0  0  0  0  0  0
    6.1620   -4.3060   28.1510 C   0  0  0  0  0  0  0  0  0  0  0  0
    6.6560   -5.5990   28.6240 N   0  0  0  0  0  0  0  0  0  0  0  0
    5.7860   -6.0540   29.7230 C   0  0  0  0  0  0  0  0  0  0  0  0
    5.8990   -7.3320   30.5140 C   0  0  0  0  0  0  0  0  0  0  0  0
    4.8480   -7.4900   31.5790 C   0  0  0  0  0  0  0  0  0  0  0  0
    3.7880   -6.4200   31.7820 C   0  0  0  0  0  0  0  0  0  0  0  0
    3.8150   -5.2160   30.9040 C   0  0  0  0  0  0  0  0  0  0  0  0
    4.8030   -4.9560   29.8330 C   0  0  0  0  0  0  0  0  0  0  0  0
    6.3890   -3.3020   27.2080 C   0  0  2  0  0  0  0  0  0  0  0  0
    6.7580   -1.9240   27.6640 C   0  0  0  0  0  0  0  0  0  0  0  0
    7.1920   -1.7020   29.0980 C   0  0  0  0  0  0  0  0  0  0  0  0
    7.5890   -0.4610   29.5700 C   0  0  0  0  0  0  0  0  0  0  0  0
    7.5600    0.6800   28.6190 C   0  0  0  0  0  0  0  0  0  0  0  0
    7.1410    0.4540   27.3410 C   0  0  0  0  0  0  0  0  0  0  0  0
    6.7110   -0.8740   26.7680 C   0  0  0  0  0  0  0  0  0  0  0  0
    7.2210    1.6830   26.7900 C   0  0  0  0  0  0  0  0  0  0  0  0
    6.8480    2.0360   25.3400 C   0  0  0  0  0  0  0  0  0  0  0  0
    6.9480    3.3900   24.7810 C   0  0  0  0  0  0  0  0  0  0  0  0
    7.4550    4.4090   25.7540 C   0  0  0  0  0  0  0  0  0  0  0  0
    7.8150    4.0300   27.1680 C   0  0  0  0  0  0  0  0  0  0  0  0
    7.7470    2.6540   27.8730 C   0  0  0  0  0  0  0  0  0  0  0  0
    7.9000    1.9250   28.8650 N   0  0  0  0  0  0  0  0  0  0  0  0
    8.3910    2.3590   30.1540 C   0  0  0  0  0  0  0  0  0  0  0  0
    9.8610    1.9550   30.3240 C   0  0  0  0  0  0  0  0  0  0  0  0
    6.8800   -2.7390   23.4310 C   0  0  0  0  0  0  0  0  0  0  0  0
    7.7010   -3.3550   22.3080 C   0  0  0  0  0  0  0  0  0  0  0  0
  1  2  1  0
  2  3  2  0
  2  4  1  0
  4  5  1  0
  5  6  1  0
  6  7  1  0
  7  8  1  0
  8  9  2  0
  8 10  1  0
 10 11  1  0
 11 12  1  0
 12 13  1  0
 13 14  2  0
 14 15  1  0
 15 16  1  0
 16 17  1  0
 17 18  2  0
 18 19  1  0
 19 20  2  0
 13 21  1  0
 16 21  2  0
 20 21  1  0
 10 22  1  0
 14 22  1  0
 22 23  1  1
 23 24  2  0
 24 25  1  0
 25 26  2  0
 26 27  1  0
 23 28  1  0
 27 28  2  0
 27 29  1  0
 29 30  2  0
 30 31  1  0
 31 32  2  0
 32 33  1  0
 29 34  1  0
 33 34  2  0
 26 35  1  0
 34 35  1  0
 35 36  1  0
 36 37  1  0
  7 38  1  0
  4 39  1  0
 38 39  1  0
M  END
