piperidine-amides-19490-covalent
     RDKit          3D

 22 23  0  0  0  0  0  0  0  0999 V2000
    7.0500   -3.3920   19.2860 C   0  0  0  0  0  0  0  0  0  0  0  0
    6.3900   -4.1790   20.3020 C   0  0  0  0  0  0  0  0  0  0  0  0
    5.3260   -4.7770   19.9680 O   0  0  0  0  0  0  0  0  0  0  0  0
    6.9170   -4.3590   21.6020 N   0  0  0  0  0  0  0  0  0  0  0  0
    6.5370   -5.5790   22.3530 C   0  0  0  0  0  0  0  0  0  0  0  0
    5.5050   -4.9770   23.3880 C   0  0  0  0  0  0  0  0  0  0  0  0
    6.2280   -3.8490   24.0930 C   0  0  0  0  0  0  0  0  0  0  0  0
    5.3760   -3.2330   25.2910 C   0  0  0  0  0  0  0  0  0  0  0  0
    4.2770   -2.9000   24.8750 O   0  0  0  0  0  0  0  0  0  0  0  0
    6.0290   -3.2390   26.3920 N   0  0  0  0  0  0  0  0  0  0  0  0
    6.4860   -3.7180   27.5910 C   0  0  0  0  0  0  0  0  0  0  0  0
    6.4260   -1.8970   26.5700 C   0  0  0  0  0  0  0  0  0  0  0  0
    6.7340   -1.1210   25.4210 C   0  0  0  0  0  0  0  0  0  0  0  0
    7.8530   -1.5450   24.5380 C   0  0  0  0  0  0  0  0  0  0  0  0
    8.1440   -0.6510   23.3100 C   0  0  0  0  0  0  0  0  0  0  0  0
    7.3280    0.4780   23.1360 C   0  0  0  0  0  0  0  0  0  0  0  0
    7.5760    1.1930   22.1430 O   0  0  0  0  0  0  0  0  0  0  0  0
    8.6910    1.9790   22.0330 C   0  0  0  0  0  0  0  0  0  0  0  0
    6.2160    0.8420   24.0620 C   0  0  0  0  0  0  0  0  0  0  0  0
    5.8000    0.0520   25.3340 C   0  0  0  0  0  0  0  0  0  0  0  0
    6.6110   -2.7700   23.0760 C   0  0  0  0  0  0  0  0  0  0  0  0
    7.6050   -3.3050   22.3150 C   0  0  0  0  0  0  0  0  0  0  0  0
  1  2  1  0
  2  3  2  0
  2  4  1  0
  4  5  1  0
  5  6  1  0
  6  7  1  0
  7  8  1  0
  8  9  2  0
  8 10  1  0
 10 11  1  0
 10 12  1  0
 12 13  1  0
 13 14  2  0
 14 15  1  0
 15 16  2  0
 16 17  1  0
 17 18  1  0
 16 19  1  0
 13 20  1  0
 19 20  2  0
  7 21  1  0
  4 22  1  0
 21 22  1  0
M  END
