piperidine-amides-14156-covalent
     RDKit          3D

 25 26  0  0  0  0  0  0  0  0999 V2000
    7.0550   -3.2610   19.2580 C   0  0  0  0  0  0  0  0  0  0  0  0
    6.2900   -4.0610   20.2580 C   0  0  0  0  0  0  0  0  0  0  0  0
    5.2470   -4.6220   19.8990 O   0  0  0  0  0  0  0  0  0  0  0  0
    6.7780   -4.2030   21.5740 N   0  0  0  0  0  0  0  0  0  0  0  0
    6.6440   -5.4280   22.3190 C   0  0  0  0  0  0  0  0  0  0  0  0
    5.6950   -5.1600   23.4980 C   0  0  0  0  0  0  0  0  0  0  0  0
    6.0930   -3.8840   24.1710 C   0  0  0  0  0  0  0  0  0  0  0  0
    6.1280   -3.9850   25.6580 C   0  0  0  0  0  0  0  0  0  0  0  0
    5.2780   -3.3050   26.2540 O   0  0  0  0  0  0  0  0  0  0  0  0
    7.0940   -4.8230   26.2890 N   0  0  0  0  0  0  0  0  0  0  0  0
    7.1200   -5.4540   27.5960 C   0  0  0  0  0  0  0  0  0  0  0  0
    6.2040   -6.4080   28.0590 C   0  0  0  0  0  0  0  0  0  0  0  0
    6.4510   -7.4860   29.0080 C   0  0  0  0  0  0  0  0  0  0  0  0
    7.5030   -8.4580   28.9090 O   0  0  0  0  0  0  0  0  0  0  0  0
    7.5340   -9.7870   29.5260 C   0  0  0  0  0  0  0  0  0  0  0  0
    8.6740  -10.9200   29.5970 C   0  0  0  0  0  0  0  0  0  0  0  0
    9.8810  -10.7450   29.9720 C   0  0  0  0  0  0  0  0  0  0  0  0
   11.0070  -11.3500   30.2870 C   0  0  0  0  0  0  0  0  0  0  0  0
   11.1020  -12.4130   30.2410 C   0  0  0  0  0  0  0  0  0  0  0  0
   12.3000  -12.6300   30.7220 O   0  0  0  0  0  0  0  0  0  0  0  0
   12.9120  -11.7840   31.7050 C   0  0  0  0  0  0  0  0  0  0  0  0
    9.9840  -12.9160   29.7520 C   0  0  0  0  0  0  0  0  0  0  0  0
    8.8190  -12.0680   29.4820 C   0  0  0  0  0  0  0  0  0  0  0  0
    7.3980   -3.2950   23.7250 C   0  0  0  0  0  0  0  0  0  0  0  0
    7.4990   -3.1280   22.2280 C   0  0  0  0  0  0  0  0  0  0  0  0
  1  2  1  0
  2  3  2  0
  2  4  1  0
  4  5  1  0
  5  6  1  0
  6  7  1  0
  7  8  1  0
  8  9  2  0
  8 10  1  0
 10 11  1  0
 11 12  1  0
 12 13  1  0
 13 14  1  0
 14 15  1  0
 15 16  1  0
 16 17  2  0
 17 18  1  0
 18 19  2  0
 19 20  1  0
 20 21  1  0
 19 22  1  0
 16 23  1  0
 22 23  2  0
  7 24  1  0
  4 25  1  0
 24 25  1  0
M  END
