piperidine-amides-34852-covalent
     RDKit          3D

 29 30  0  0  0  0  0  0  0  0999 V2000
    7.0440   -3.3510   19.3360 C   0  0  0  0  0  0  0  0  0  0  0  0
    6.3980   -4.2330   20.3420 C   0  0  0  0  0  0  0  0  0  0  0  0
    5.3820   -4.8230   19.9780 O   0  0  0  0  0  0  0  0  0  0  0  0
    6.9620   -4.4140   21.6160 N   0  0  0  0  0  0  0  0  0  0  0  0
    6.6310   -5.5580   22.4040 C   0  0  0  0  0  0  0  0  0  0  0  0
    5.7110   -5.1120   23.5070 C   0  0  0  0  0  0  0  0  0  0  0  0
    6.2580   -3.8810   24.2530 C   0  0  0  0  0  0  0  0  0  0  0  0
    5.1620   -3.4240   25.1570 C   0  0  0  0  0  0  0  0  0  0  0  0
    4.0470   -3.2370   24.6720 O   0  0  0  0  0  0  0  0  0  0  0  0
    5.3350   -3.1840   26.5350 N   0  0  0  0  0  0  0  0  0  0  0  0
    6.6190   -2.9250   26.9730 C   0  0  0  0  0  0  0  0  0  0  0  0
    6.5740   -3.7890   28.2010 C   0  0  2  0  0  0  0  0  0  0  0  0
    6.0720   -5.0710   28.3740 C   0  0  0  0  0  0  0  0  0  0  0  0
    5.9990   -5.6940   27.1400 F   0  0  0  0  0  0  0  0  0  0  0  0
    4.9190   -5.1900   29.1500 F   0  0  0  0  0  0  0  0  0  0  0  0
    6.9780   -5.9250   29.0950 F   0  0  0  0  0  0  0  0  0  0  0  0
    5.2450   -3.9490   28.6510 C   0  0  1  0  0  0  0  0  0  0  0  0
    4.8430   -2.5830   29.6220 S   0  0  2  0  0  0  0  0  0  0  0  0
    4.1320   -1.5300   28.4870 C   0  0  0  0  0  0  0  0  0  0  0  0
    6.0550   -1.9350   30.2020 O   0  0  0  0  0  0  0  0  0  0  0  0
    3.7130   -3.2330   30.7640 N   0  0  0  0  0  0  0  0  0  0  0  0
    3.2870   -2.1260   31.6480 C   0  0  0  0  0  0  0  0  0  0  0  0
    4.0740   -1.1950   32.2960 O   0  0  0  0  0  0  0  0  0  0  0  0
    2.0930   -1.9120   31.9110 O   0  0  0  0  0  0  0  0  0  0  0  0
    1.2620   -2.7760   32.6590 C   0  0  0  0  0  0  0  0  0  0  0  0
   -0.0840   -3.1990   32.1360 C   0  0  0  0  0  0  0  0  0  0  0  0
    4.4840   -3.9440   27.4590 C   0  0  0  0  0  0  0  0  0  0  0  0
    6.7650   -2.7730   23.3610 C   0  0  0  0  0  0  0  0  0  0  0  0
    7.6660   -3.3410   22.2770 C   0  0  0  0  0  0  0  0  0  0  0  0
  1  2  1  0
  2  3  2  0
  2  4  1  0
  4  5  1  0
  5  6  1  0
  6  7  1  0
  7  8  1  0
  8  9  2  0
  8 10  1  0
 10 11  1  0
 11 12  1  0
 12 13  1  6
 13 14  1  0
 13 15  1  0
 13 16  1  0
 12 17  1  0
 17 18  1  0
 18 19  1  6
 18 20  2  0
 18 21  2  0
 21 22  1  0
 22 23  2  0
 22 24  1  0
 24 25  1  0
 25 26  1  0
 10 27  1  0
 17 27  1  6
  7 28  1  0
  4 29  1  0
 28 29  1  0
M  END
