piperidine-amides-35545-covalent
     RDKit          3D

 32 34  0  0  0  0  0  0  0  0999 V2000
    7.1220   -3.2550   19.2040 C   0  0  0  0  0  0  0  0  0  0  0  0
    6.3940   -4.0140   20.2500 C   0  0  0  0  0  0  0  0  0  0  0  0
    5.3480   -4.5700   19.9080 O   0  0  0  0  0  0  0  0  0  0  0  0
    6.9170   -4.1250   21.5430 N   0  0  0  0  0  0  0  0  0  0  0  0
    6.4600   -5.1530   22.4100 C   0  0  0  0  0  0  0  0  0  0  0  0
    5.5270   -4.5310   23.4170 C   0  0  0  0  0  0  0  0  0  0  0  0
    6.0290   -3.1520   23.8890 C   0  0  0  0  0  0  0  0  0  0  0  0
    5.7380   -3.0340   25.3380 C   0  0  0  0  0  0  0  0  0  0  0  0
    4.5510   -3.0730   25.6960 O   0  0  0  0  0  0  0  0  0  0  0  0
    6.7420   -2.8700   26.3220 N   0  0  0  0  0  0  0  0  0  0  0  0
    7.0150   -4.0440   27.1290 C   0  0  0  0  0  0  0  0  0  0  0  0
    6.3780   -5.1650   26.3510 C   0  0  0  0  0  0  0  0  0  0  0  0
    5.1070   -5.5410   26.7360 C   0  0  0  0  0  0  0  0  0  0  0  0
    4.4350   -6.4840   26.1400 C   0  0  0  0  0  0  0  0  0  0  0  0
    2.8190   -6.9600   26.6370 Cl  0  0  0  0  0  0  0  0  0  0  0  0
    5.0660   -7.0380   25.1420 C   0  0  0  0  0  0  0  0  0  0  0  0
    6.4270   -6.7880   24.5670 C   0  0  0  0  0  0  0  0  0  0  0  0
    7.0020   -7.7060   23.1980 Cl  0  0  0  0  0  0  0  0  0  0  0  0
    7.2680   -5.6880   25.2470 C   0  0  0  0  0  0  0  0  0  0  0  0
    8.5060   -5.4270   24.7700 O   0  0  0  0  0  0  0  0  0  0  0  0
    6.6760   -1.6540   27.0940 C   0  0  0  0  0  0  0  0  0  0  0  0
    7.3650   -1.6930   28.4160 C   0  0  0  0  0  0  0  0  0  0  0  0
    7.3140   -0.4720   29.2530 C   0  0  0  0  0  0  0  0  0  0  0  0
    6.5880    0.7620   28.7640 C   0  0  0  0  0  0  0  0  0  0  0  0
    5.9290    0.7250   27.4330 C   0  0  0  0  0  0  0  0  0  0  0  0
    5.0150    1.8290   26.4740 S   0  0  0  0  0  0  0  0  0  0  0  0
    3.4950    2.1100   27.2510 N   0  0  0  0  0  0  0  0  0  0  0  0
    5.7710    3.1230   26.3590 O   0  0  0  0  0  0  0  0  0  0  0  0
    4.8160    1.2710   25.0940 O   0  0  0  0  0  0  0  0  0  0  0  0
    5.9970   -0.5440   26.5990 C   0  0  0  0  0  0  0  0  0  0  0  0
    7.4980   -2.9890   23.5810 C   0  0  0  0  0  0  0  0  0  0  0  0
    7.6900   -3.0410   22.0840 C   0  0  0  0  0  0  0  0  0  0  0  0
  1  2  1  0
  2  3  2  0
  2  4  1  0
  4  5  1  0
  5  6  1  0
  6  7  1  0
  7  8  1  0
  8  9  2  0
  8 10  1  0
 10 11  1  0
 11 12  1  0
 12 13  2  0
 13 14  1  0
 14 15  1  0
 14 16  2  0
 16 17  1  0
 17 18  1  0
 12 19  1  0
 17 19  2  0
 19 20  1  0
 10 21  1  0
 21 22  2  0
 22 23  1  0
 23 24  2  0
 24 25  1  0
 25 26  1  0
 26 27  1  0
 26 28  2  0
 26 29  2  0
 21 30  1  0
 25 30  2  0
  7 31  1  0
  4 32  1  0
 31 32  1  0
M  END
