piperidine-amides-12297-covalent
     RDKit          3D

 24 26  0  0  0  0  0  0  0  0999 V2000
    7.0590   -3.3410   19.2870 C   0  0  0  0  0  0  0  0  0  0  0  0
    6.3520   -4.1490   20.2710 C   0  0  0  0  0  0  0  0  0  0  0  0
    5.3280   -4.7490   19.9520 O   0  0  0  0  0  0  0  0  0  0  0  0
    6.8780   -4.2970   21.5960 N   0  0  0  0  0  0  0  0  0  0  0  0
    7.7150   -3.2620   22.1490 C   0  0  0  0  0  0  0  0  0  0  0  0
    7.0230   -2.6170   23.2990 C   0  0  0  0  0  0  0  0  0  0  0  0
    6.5010   -3.7390   24.1650 C   0  0  0  0  0  0  0  0  0  0  0  0
    5.8780   -3.1520   25.3800 C   0  0  0  0  0  0  0  0  0  0  0  0
    4.6800   -3.3250   25.6830 O   0  0  0  0  0  0  0  0  0  0  0  0
    6.7220   -2.3560   26.1930 N   0  0  0  0  0  0  0  0  0  0  0  0
    6.1620   -1.4710   27.1950 C   0  0  1  0  0  0  0  0  0  0  0  0
    7.1040   -1.5720   28.3750 C   0  0  0  0  0  0  0  0  0  0  0  0
    6.9010   -0.8550   29.5570 C   0  0  0  0  0  0  0  0  0  0  0  0
    6.0440    0.2660   29.7040 C   0  0  0  0  0  0  0  0  0  0  0  0
    6.2650    1.3830   28.8440 O   0  0  0  0  0  0  0  0  0  0  0  0
    5.9580    1.2490   27.4570 C   0  0  0  0  0  0  0  0  0  0  0  0
    5.6800    2.5370   26.8040 C   0  0  0  0  0  0  0  0  0  0  0  0
    5.5900    1.5520   25.9970 C   0  0  0  0  0  0  0  0  0  0  0  0
    5.2790    2.4620   25.0550 F   0  0  0  0  0  0  0  0  0  0  0  0
    5.9450    1.0930   27.3190 C   0  0  0  0  0  0  0  0  0  0  0  0
    6.2590    0.0750   28.2330 C   0  0  0  0  0  0  0  0  0  0  0  0
    5.9660   -0.1120   26.9210 C   0  0  0  0  0  0  0  0  0  0  0  0
    5.6010   -4.7030   23.4180 C   0  0  0  0  0  0  0  0  0  0  0  0
    6.3840   -5.3400   22.4500 C   0  0  0  0  0  0  0  0  0  0  0  0
  1  2  1  0
  2  3  2  0
  2  4  1  0
  4  5  1  0
  5  6  1  0
  6  7  1  0
  7  8  1  0
  8  9  2  0
  8 10  1  0
 11 10  1  6
 11 12  1  0
 12 13  1  0
 13 14  1  0
 14 15  1  0
 15 16  1  0
 16 17  1  0
 17 18  2  0
 18 19  1  0
 18 20  1  0
 20 21  2  0
 11 22  1  0
 16 22  2  0
 21 22  1  0
  7 23  1  0
  4 24  1  0
 23 24  1  0
M  END
