piperidine-amides-26942-covalent
     RDKit          3D

 25 27  0  0  0  0  0  0  0  0999 V2000
    7.0040   -3.3630   19.4490 C   0  0  0  0  0  0  0  0  0  0  0  0
    6.3690   -4.2380   20.4430 C   0  0  0  0  0  0  0  0  0  0  0  0
    5.4110   -4.9360   20.0080 O   0  0  0  0  0  0  0  0  0  0  0  0
    6.8310   -4.3180   21.7780 N   0  0  0  0  0  0  0  0  0  0  0  0
    6.7460   -5.5910   22.4760 C   0  0  0  0  0  0  0  0  0  0  0  0
    6.3040   -5.3560   23.8970 C   0  0  0  0  0  0  0  0  0  0  0  0
    6.1660   -3.8920   24.1690 C   0  0  0  0  0  0  0  0  0  0  0  0
    5.6300   -3.6000   25.5510 C   0  0  0  0  0  0  0  0  0  0  0  0
    4.3830   -3.5550   25.5930 O   0  0  0  0  0  0  0  0  0  0  0  0
    6.2600   -3.3340   26.8210 N   0  0  0  0  0  0  0  0  0  0  0  0
    5.3710   -2.7130   27.7760 C   0  0  0  0  0  0  0  0  0  0  0  0
    4.4830   -3.7280   28.5560 C   0  0  0  0  0  0  0  0  0  0  0  0
    4.8310   -5.1440   28.2630 N   0  0  0  0  0  0  0  0  0  0  0  0
    4.0470   -6.1340   28.6650 C   0  0  0  0  0  0  0  0  0  0  0  0
    3.0590   -6.7380   27.8400 O   0  0  0  0  0  0  0  0  0  0  0  0
    4.1920   -6.6210   29.9540 C   0  0  0  0  0  0  0  0  0  0  0  0
    3.4720   -7.7760   30.2620 C   0  0  0  0  0  0  0  0  0  0  0  0
    2.1130   -7.7420   29.9670 C   0  0  0  0  0  0  0  0  0  0  0  0
    1.4620   -6.7620   30.3950 O   0  0  0  0  0  0  0  0  0  0  0  0
    2.1420   -5.5360   30.5220 C   0  0  0  0  0  0  0  0  0  0  0  0
    3.5740   -5.6960   30.9660 C   0  0  0  0  0  0  0  0  0  0  0  0
    6.1720   -5.4020   27.9920 C   0  0  0  0  0  0  0  0  0  0  0  0
    6.5990   -3.9850   28.0740 C   0  0  0  0  0  0  0  0  0  0  0  0
    7.4200   -3.1660   23.7770 C   0  0  0  0  0  0  0  0  0  0  0  0
    7.6650   -3.2560   22.4030 C   0  0  0  0  0  0  0  0  0  0  0  0
  1  2  1  0
  2  3  2  0
  2  4  1  0
  4  5  1  0
  5  6  1  0
  6  7  1  0
  7  8  1  0
  8  9  2  0
  8 10  1  0
 10 11  1  0
 11 12  1  0
 12 13  1  0
 13 14  1  0
 14 15  2  0
 14 16  1  0
 16 17  1  0
 17 18  1  0
 18 19  1  0
 19 20  1  0
 16 21  1  0
 20 21  1  0
 13 22  1  0
 10 23  1  0
 22 23  1  0
  7 24  1  0
  4 25  1  0
 24 25  1  0
M  END
