piperidine-amides-1720-covalent
     RDKit          3D

 20 20  0  0  0  0  0  0  0  0999 V2000
    7.1110   -3.2990   19.2390 C   0  0  0  0  0  0  0  0  0  0  0  0
    6.3920   -4.1090   20.2620 C   0  0  0  0  0  0  0  0  0  0  0  0
    5.3380   -4.6850   19.9370 O   0  0  0  0  0  0  0  0  0  0  0  0
    6.9480   -4.2450   21.5510 N   0  0  0  0  0  0  0  0  0  0  0  0
    7.7360   -3.1960   22.1380 C   0  0  0  0  0  0  0  0  0  0  0  0
    6.8800   -2.6120   23.2550 C   0  0  0  0  0  0  0  0  0  0  0  0
    6.4590   -3.7310   24.1560 C   0  0  0  0  0  0  0  0  0  0  0  0
    5.6760   -3.2090   25.2970 C   0  0  0  0  0  0  0  0  0  0  0  0
    4.4570   -3.4180   25.2720 O   0  0  0  0  0  0  0  0  0  0  0  0
    6.3070   -2.5120   26.3310 N   0  0  0  0  0  0  0  0  0  0  0  0
    6.5180   -2.9850   27.6430 C   0  0  0  0  0  0  0  0  0  0  0  0
    7.6050   -3.7200   27.9720 C   0  0  0  0  0  0  0  0  0  0  0  0
    8.3740   -3.7530   26.7470 O   0  0  0  0  0  0  0  0  0  0  0  0
    9.1880   -4.8400   26.7300 C   0  0  0  0  0  0  0  0  0  0  0  0
   10.3430   -4.7170   25.9970 C   0  0  0  0  0  0  0  0  0  0  0  0
    9.6190   -5.0460   28.1070 C   0  0  0  0  0  0  0  0  0  0  0  0
    8.4050   -5.9110   26.4740 C   0  0  0  0  0  0  0  0  0  0  0  0
    7.1020   -6.0290   27.2780 C   0  0  0  0  0  0  0  0  0  0  0  0
    5.6110   -4.7720   23.4020 C   0  0  0  0  0  0  0  0  0  0  0  0
    6.4700   -5.3460   22.3380 C   0  0  0  0  0  0  0  0  0  0  0  0
  1  2  1  0
  2  3  2  0
  2  4  1  0
  4  5  1  0
  5  6  1  0
  6  7  1  0
  7  8  1  0
  8  9  2  0
  8 10  1  0
 10 11  1  0
 11 12  1  0
 12 13  1  0
 14 13  1  0
 14 15  1  0
 14 16  1  0
 14 17  1  0
 17 18  1  0
  7 19  1  0
  4 20  1  0
 19 20  1  0
M  END
