piperidine-amides-5372-covalent
     RDKit          3D

 21 22  0  0  0  0  0  0  0  0999 V2000
    7.1130   -3.3670   19.3670 C   0  0  0  0  0  0  0  0  0  0  0  0
    6.3750   -4.1770   20.3320 C   0  0  0  0  0  0  0  0  0  0  0  0
    5.3310   -4.7370   19.9580 O   0  0  0  0  0  0  0  0  0  0  0  0
    6.8480   -4.3970   21.6430 N   0  0  0  0  0  0  0  0  0  0  0  0
    6.5480   -5.6020   22.3580 C   0  0  0  0  0  0  0  0  0  0  0  0
    5.8370   -5.1350   23.6040 C   0  0  0  0  0  0  0  0  0  0  0  0
    6.5240   -3.9960   24.3270 C   0  0  0  0  0  0  0  0  0  0  0  0
    5.6400   -3.4050   25.3730 C   0  0  0  0  0  0  0  0  0  0  0  0
    4.5100   -2.9580   25.0560 O   0  0  0  0  0  0  0  0  0  0  0  0
    5.9550   -3.2850   26.7420 N   0  0  0  0  0  0  0  0  0  0  0  0
    6.5440   -2.0310   27.2410 C   0  0  1  0  0  0  0  0  0  0  0  0
    7.9610   -2.3360   27.1450 C   0  0  0  0  0  0  0  0  0  0  0  0
    8.0270   -3.7200   27.2540 F   0  0  0  0  0  0  0  0  0  0  0  0
    8.4720   -2.0780   25.8660 F   0  0  0  0  0  0  0  0  0  0  0  0
    8.7070   -1.6890   28.0640 F   0  0  0  0  0  0  0  0  0  0  0  0
    6.1560   -0.8240   26.3440 C   0  0  0  0  0  0  0  0  0  0  0  0
    5.8430    0.2560   27.3620 C   0  0  0  0  0  0  0  0  0  0  0  0
    5.4820   -0.5040   28.4410 O   0  0  0  0  0  0  0  0  0  0  0  0
    6.4030   -1.5050   28.5450 C   0  0  0  0  0  0  0  0  0  0  0  0
    6.8970   -2.8840   23.3820 C   0  0  0  0  0  0  0  0  0  0  0  0
    7.5590   -3.3360   22.2760 C   0  0  0  0  0  0  0  0  0  0  0  0
  1  2  1  0
  2  3  2  0
  2  4  1  0
  4  5  1  0
  5  6  1  0
  6  7  1  0
  7  8  1  0
  8  9  2  0
  8 10  1  0
 11 10  1  1
 11 12  1  0
 12 13  1  0
 12 14  1  0
 12 15  1  0
 11 16  1  0
 16 17  1  0
 17 18  1  0
 11 19  1  0
 18 19  1  0
  7 20  1  0
  4 21  1  0
 20 21  1  0
M  END
