piperidine-amides-29037-covalent
     RDKit          3D

 22 24  0  0  0  0  0  0  0  0999 V2000
    7.0970   -3.3380   19.3250 C   0  0  0  0  0  0  0  0  0  0  0  0
    6.3510   -4.1250   20.2990 C   0  0  0  0  0  0  0  0  0  0  0  0
    5.3020   -4.6780   19.9300 O   0  0  0  0  0  0  0  0  0  0  0  0
    6.8570   -4.2800   21.6090 N   0  0  0  0  0  0  0  0  0  0  0  0
    6.6260   -5.5040   22.3150 C   0  0  0  0  0  0  0  0  0  0  0  0
    5.8950   -5.1790   23.5790 C   0  0  0  0  0  0  0  0  0  0  0  0
    6.6760   -4.0760   24.2630 C   0  0  0  0  0  0  0  0  0  0  0  0
    5.8160   -3.5030   25.3440 C   0  0  0  0  0  0  0  0  0  0  0  0
    5.0080   -2.6320   25.0240 O   0  0  0  0  0  0  0  0  0  0  0  0
    5.9790   -4.0090   26.6170 N   0  0  0  0  0  0  0  0  0  0  0  0
    6.7840   -5.2050   26.7820 C   0  0  0  0  0  0  0  0  0  0  0  0
    6.9520   -5.8050   28.0500 C   0  0  0  0  0  0  0  0  0  0  0  0
    5.8970   -5.6990   28.8790 C   0  0  0  0  0  0  0  0  0  0  0  0
    5.7300   -6.7230   29.8680 N   0  0  0  0  0  0  0  0  0  0  0  0
    4.6130   -6.6520   30.7220 C   0  0  0  0  0  0  0  0  0  0  0  0
    3.6110   -5.5500   30.6240 C   0  0  0  0  0  0  0  0  0  0  0  0
    3.7930   -4.4410   29.5640 C   0  0  0  0  0  0  0  0  0  0  0  0
    2.5300   -3.0010   29.4030 Br  0  0  0  0  0  0  0  0  0  0  0  0
    4.9830   -4.5480   28.6800 C   0  0  0  0  0  0  0  0  0  0  0  0
    5.1090   -3.4720   27.6700 C   0  0  0  0  0  0  0  0  0  0  0  0
    7.1200   -2.9380   23.4390 C   0  0  0  0  0  0  0  0  0  0  0  0
    7.6940   -3.2840   22.2420 C   0  0  0  0  0  0  0  0  0  0  0  0
  1  2  1  0
  2  3  2  0
  2  4  1  0
  4  5  1  0
  5  6  1  0
  6  7  1  0
  7  8  1  0
  8  9  2  0
  8 10  1  0
 10 11  1  0
 11 12  1  0
 12 13  1  0
 13 14  2  0
 14 15  1  0
 15 16  2  0
 16 17  1  0
 17 18  1  0
 13 19  1  0
 17 19  2  0
 10 20  1  0
 19 20  1  0
  7 21  1  0
  4 22  1  0
 21 22  1  0
M  END
