piperidine-amides-14041-covalent
     RDKit          3D

 25 27  0  0  0  0  0  0  0  0999 V2000
    7.0610   -3.3280   19.3650 C   0  0  0  0  0  0  0  0  0  0  0  0
    6.3750   -4.2010   20.3610 C   0  0  0  0  0  0  0  0  0  0  0  0
    5.3820   -4.8490   19.9870 O   0  0  0  0  0  0  0  0  0  0  0  0
    6.8860   -4.3130   21.6760 N   0  0  0  0  0  0  0  0  0  0  0  0
    6.7710   -5.5760   22.3890 C   0  0  0  0  0  0  0  0  0  0  0  0
    6.2550   -5.2890   23.8020 C   0  0  0  0  0  0  0  0  0  0  0  0
    6.1580   -3.8200   23.8970 C   0  0  0  0  0  0  0  0  0  0  0  0
    5.4970   -3.3340   25.1280 C   0  0  0  0  0  0  0  0  0  0  0  0
    4.2870   -3.1610   24.9940 O   0  0  0  0  0  0  0  0  0  0  0  0
    6.1550   -3.0880   26.3450 N   0  0  0  0  0  0  0  0  0  0  0  0
    5.7220   -2.0710   27.2580 C   0  0  0  0  0  0  0  0  0  0  0  0
    6.0880   -0.8200   28.0520 C   0  0  0  0  0  0  0  0  0  0  0  0
    4.9930   -0.4360   28.7380 N   0  0  0  0  0  0  0  0  0  0  0  0
    5.2470   -1.3790   27.9470 N   0  0  0  0  0  0  0  0  0  0  0  0
    4.1860   -2.3320   27.6340 C   0  0  0  0  0  0  0  0  0  0  0  0
    3.1050   -1.8580   28.3480 C   0  0  0  0  0  0  0  0  0  0  0  0
    1.8620   -2.2590   27.9030 N   0  0  0  0  0  0  0  0  0  0  0  0
    1.3870   -1.7650   26.7340 C   0  0  0  0  0  0  0  0  0  0  0  0
    0.1380   -2.6720   26.5010 C   0  0  0  0  0  0  0  0  0  0  0  0
    0.0570   -3.5980   27.7150 C   0  0  0  0  0  0  0  0  0  0  0  0
    1.0970   -3.3110   28.5390 C   0  0  0  0  0  0  0  0  0  0  0  0
    1.1750   -4.0410   29.7040 O   0  0  0  0  0  0  0  0  0  0  0  0
    6.7550   -1.4400   27.3530 C   0  0  0  0  0  0  0  0  0  0  0  0
    7.4290   -3.1070   23.6040 C   0  0  0  0  0  0  0  0  0  0  0  0
    7.6920   -3.2560   22.2660 C   0  0  0  0  0  0  0  0  0  0  0  0
  1  2  1  0
  2  3  2  0
  2  4  1  0
  4  5  1  0
  5  6  1  0
  6  7  1  0
  7  8  1  0
  8  9  2  0
  8 10  1  0
 10 11  1  0
 11 12  1  0
 12 13  2  0
 13 14  1  0
 14 15  1  0
 15 16  1  0
 16 17  1  0
 17 18  1  0
 18 19  1  0
 19 20  1  0
 17 21  1  0
 20 21  1  0
 21 22  2  0
 11 23  2  0
 14 23  1  0
  7 24  1  0
  4 25  1  0
 24 25  1  0
M  END
