piperidine-amides-10752-covalent
     RDKit          3D

 22 24  0  0  0  0  0  0  0  0999 V2000
    7.1300   -3.3270   19.2700 C   0  0  0  0  0  0  0  0  0  0  0  0
    6.3570   -4.0770   20.2560 C   0  0  0  0  0  0  0  0  0  0  0  0
    5.3040   -4.6410   19.9170 O   0  0  0  0  0  0  0  0  0  0  0  0
    6.8280   -4.2100   21.5640 N   0  0  0  0  0  0  0  0  0  0  0  0
    7.7260   -3.2430   22.1540 C   0  0  0  0  0  0  0  0  0  0  0  0
    6.9960   -2.7030   23.3410 C   0  0  0  0  0  0  0  0  0  0  0  0
    6.5730   -3.8190   24.2320 C   0  0  0  0  0  0  0  0  0  0  0  0
    5.7990   -3.3250   25.3870 C   0  0  0  0  0  0  0  0  0  0  0  0
    4.5510   -3.1290   25.2920 O   0  0  0  0  0  0  0  0  0  0  0  0
    6.4000   -3.0530   26.6290 N   0  0  0  0  0  0  0  0  0  0  0  0
    6.3770   -1.6950   27.2090 C   0  0  0  0  0  0  0  0  0  0  0  0
    6.9860   -1.6370   28.5430 C   0  0  0  0  0  0  0  0  0  0  0  0
    7.0390   -0.3610   29.2770 C   0  0  0  0  0  0  0  0  0  0  0  0
    6.4780    0.9360   28.7060 C   0  0  0  0  0  0  0  0  0  0  0  0
    6.5270    2.2540   29.4550 C   0  0  0  0  0  0  0  0  0  0  0  0
    5.9470    2.0450   30.6430 C   0  0  0  0  0  0  0  0  0  0  0  0
    5.1090    2.9000   29.8840 C   0  0  0  0  0  0  0  0  0  0  0  0
    5.8690    0.8050   27.3230 C   0  0  0  0  0  0  0  0  0  0  0  0
    5.1990    2.2650   26.5870 Cl  0  0  0  0  0  0  0  0  0  0  0  0
    5.8510   -0.5330   26.6340 C   0  0  0  0  0  0  0  0  0  0  0  0
    5.7890   -4.9180   23.5660 C   0  0  0  0  0  0  0  0  0  0  0  0
    6.5180   -5.3900   22.3370 C   0  0  0  0  0  0  0  0  0  0  0  0
  1  2  1  0
  2  3  2  0
  2  4  1  0
  4  5  1  0
  5  6  1  0
  6  7  1  0
  7  8  1  0
  8  9  2  0
  8 10  1  0
 10 11  1  0
 11 12  2  0
 12 13  1  0
 13 14  2  0
 14 15  1  0
 15 16  1  0
 15 17  1  0
 16 17  1  0
 14 18  1  0
 18 19  1  0
 11 20  1  0
 18 20  2  0
  7 21  1  0
  4 22  1  0
 21 22  1  0
M  END
