piperidine-amides-25186-covalent
     RDKit          3D

 22 24  0  0  0  0  0  0  0  0999 V2000
    7.0780   -3.3170   19.2610 C   0  0  0  0  0  0  0  0  0  0  0  0
    6.3730   -4.1390   20.2770 C   0  0  0  0  0  0  0  0  0  0  0  0
    5.3260   -4.6820   19.9310 O   0  0  0  0  0  0  0  0  0  0  0  0
    6.9260   -4.3230   21.5450 N   0  0  0  0  0  0  0  0  0  0  0  0
    6.6860   -5.5280   22.2920 C   0  0  0  0  0  0  0  0  0  0  0  0
    5.9810   -5.1810   23.5740 C   0  0  0  0  0  0  0  0  0  0  0  0
    6.6840   -3.9970   24.2400 C   0  0  0  0  0  0  0  0  0  0  0  0
    5.8840   -3.6470   25.4210 C   0  0  0  0  0  0  0  0  0  0  0  0
    4.6710   -3.3840   25.2860 O   0  0  0  0  0  0  0  0  0  0  0  0
    6.5120   -3.6550   26.6920 N   0  0  0  0  0  0  0  0  0  0  0  0
    5.6680   -3.1470   27.9340 C   0  0  0  0  0  0  0  0  0  0  0  0
    5.9160   -4.3890   28.7400 C   0  0  0  0  0  0  0  0  0  0  0  0
    6.4650   -4.3550   27.6540 C   0  0  0  0  0  0  0  0  0  0  0  0
    7.1560   -4.9480   26.9700 C   0  0  0  0  0  0  0  0  0  0  0  0
    7.1690   -5.8330   27.9470 C   0  0  0  0  0  0  0  0  0  0  0  0
    6.1710   -4.9840   28.8770 C   0  0  0  0  0  0  0  0  0  0  0  0
    5.5300   -3.5470   28.5480 C   0  0  0  0  0  0  0  0  0  0  0  0
    4.4110   -2.5430   29.5250 Cl  0  0  0  0  0  0  0  0  0  0  0  0
    6.0210   -3.0630   27.1970 C   0  0  0  0  0  0  0  0  0  0  0  0
    5.9600   -1.7320   26.0130 Cl  0  0  0  0  0  0  0  0  0  0  0  0
    6.9250   -2.8390   23.3650 C   0  0  0  0  0  0  0  0  0  0  0  0
    7.6700   -3.2520   22.1510 C   0  0  0  0  0  0  0  0  0  0  0  0
  1  2  1  0
  2  3  2  0
  2  4  1  0
  4  5  1  0
  5  6  1  0
  6  7  1  0
  7  8  1  0
  8  9  2  0
  8 10  1  0
 10 11  1  0
 11 12  1  0
 12 13  1  0
 10 14  1  0
 13 14  2  0
 14 15  1  0
 15 16  2  0
 16 17  1  0
 17 18  1  0
 13 19  1  0
 17 19  2  0
 19 20  1  0
  7 21  1  0
  4 22  1  0
 21 22  1  0
M  END
