piperidine-amides-33440-covalent
     RDKit          3D

 29 31  0  0  0  0  0  0  0  0999 V2000
    7.0720   -3.3460   19.3500 C   0  0  0  0  0  0  0  0  0  0  0  0
    6.4100   -4.1970   20.3510 C   0  0  0  0  0  0  0  0  0  0  0  0
    5.3800   -4.8140   19.9760 O   0  0  0  0  0  0  0  0  0  0  0  0
    6.9490   -4.3520   21.6540 N   0  0  0  0  0  0  0  0  0  0  0  0
    6.5370   -5.4590   22.4380 C   0  0  0  0  0  0  0  0  0  0  0  0
    6.0830   -5.1170   23.7920 C   0  0  0  0  0  0  0  0  0  0  0  0
    6.4940   -3.7930   24.3380 C   0  0  0  0  0  0  0  0  0  0  0  0
    5.4340   -3.2440   25.2680 C   0  0  0  0  0  0  0  0  0  0  0  0
    4.5050   -2.5910   24.7710 O   0  0  0  0  0  0  0  0  0  0  0  0
    5.4170   -3.4310   26.6760 N   0  0  0  0  0  0  0  0  0  0  0  0
    4.7630   -2.6740   27.6450 C   0  0  0  0  0  0  0  0  0  0  0  0
    4.0880   -3.3940   28.7160 C   0  0  0  0  0  0  0  0  0  0  0  0
    2.5820   -3.1310   28.5200 C   0  0  0  0  0  0  0  0  0  0  0  0
    4.3750   -3.0650   30.1010 C   0  0  0  0  0  0  0  0  0  0  0  0
    4.0930   -4.6620   28.6260 O   0  0  0  0  0  0  0  0  0  0  0  0
    5.3750   -5.0870   28.3460 C   0  0  0  0  0  0  0  0  0  0  0  0
    5.3730   -6.5980   28.2900 C   0  0  0  0  0  0  0  0  0  0  0  0
    6.1240   -6.7040   29.3890 N   0  0  0  0  0  0  0  0  0  0  0  0
    5.6130   -7.1770   30.5570 C   0  0  0  0  0  0  0  0  0  0  0  0
    4.5470   -7.8220   30.5270 O   0  0  0  0  0  0  0  0  0  0  0  0
    6.1680   -6.9980   31.8410 O   0  0  0  0  0  0  0  0  0  0  0  0
    5.4400   -7.1140   33.0380 C   0  0  0  0  0  0  0  0  0  0  0  0
    4.9470   -8.5270   33.2620 C   0  0  0  0  0  0  0  0  0  0  0  0
    6.2070   -6.7280   34.2860 C   0  0  0  0  0  0  0  0  0  0  0  0
    4.2150   -6.2270   32.9240 C   0  0  0  0  0  0  0  0  0  0  0  0
    6.2100   -5.3150   29.4070 C   0  0  0  0  0  0  0  0  0  0  0  0
    6.1070   -4.5330   27.2240 C   0  0  0  0  0  0  0  0  0  0  0  0
    6.7970   -2.7930   23.2700 C   0  0  0  0  0  0  0  0  0  0  0  0
    7.6680   -3.2890   22.3090 C   0  0  0  0  0  0  0  0  0  0  0  0
  1  2  1  0
  2  3  2  0
  2  4  1  0
  4  5  1  0
  5  6  1  0
  6  7  1  0
  7  8  1  0
  8  9  2  0
  8 10  1  0
 10 11  1  0
 11 12  1  0
 12 13  1  0
 12 14  1  0
 12 15  1  0
 16 15  1  0
 16 17  1  0
 17 18  1  0
 18 19  1  0
 19 20  2  0
 19 21  1  0
 22 21  1  0
 22 23  1  0
 22 24  1  0
 22 25  1  0
 16 26  1  0
 18 26  1  0
 10 27  1  0
 16 27  1  0
  7 28  1  0
  4 29  1  0
 28 29  1  0
M  END
