piperidine-amides-11692-covalent
     RDKit          3D

 28 29  0  0  0  0  0  0  0  0999 V2000
    7.0680   -3.3160   19.3020 C   0  0  0  0  0  0  0  0  0  0  0  0
    6.3710   -4.1190   20.3040 C   0  0  0  0  0  0  0  0  0  0  0  0
    5.3750   -4.7620   19.9690 O   0  0  0  0  0  0  0  0  0  0  0  0
    6.8670   -4.2220   21.6570 N   0  0  0  0  0  0  0  0  0  0  0  0
    7.7470   -3.2000   22.1920 C   0  0  0  0  0  0  0  0  0  0  0  0
    7.4750   -2.9530   23.6540 C   0  0  0  0  0  0  0  0  0  0  0  0
    6.1340   -3.5830   23.9630 C   0  0  0  0  0  0  0  0  0  0  0  0
    5.6220   -3.2830   25.3410 C   0  0  0  0  0  0  0  0  0  0  0  0
    4.4380   -2.9530   25.5180 O   0  0  0  0  0  0  0  0  0  0  0  0
    6.4520   -3.3630   26.4890 N   0  0  0  0  0  0  0  0  0  0  0  0
    5.8300   -3.7840   27.7340 C   0  0  1  0  0  0  0  0  0  0  0  0
    6.4990   -4.9870   28.3590 C   0  0  0  0  0  0  0  0  0  0  0  0
    5.8570   -2.7140   28.7610 C   0  0  0  0  0  0  0  0  0  0  0  0
    6.8850   -1.7520   28.8150 C   0  0  0  0  0  0  0  0  0  0  0  0
    6.9020   -0.7640   29.7920 C   0  0  0  0  0  0  0  0  0  0  0  0
    5.8450   -0.6810   30.7890 C   0  0  0  0  0  0  0  0  0  0  0  0
    5.9450    0.2990   31.6940 N   0  0  0  0  0  0  0  0  0  0  0  0
    5.5160    1.6650   31.5720 C   0  0  0  0  0  0  0  0  0  0  0  0
    5.2380    2.1600   30.3940 O   0  0  0  0  0  0  0  0  0  0  0  0
    5.4020    2.4430   32.6860 N   0  0  0  0  0  0  0  0  0  0  0  0
    5.2460    3.8930   32.6610 C   0  0  0  0  0  0  0  0  0  0  0  0
    4.1350    4.5400   32.1250 C   0  0  0  0  0  0  0  0  0  0  0  0
    5.0120    1.6460   33.8590 C   0  0  0  0  0  0  0  0  0  0  0  0
    3.8940    0.9140   33.4890 C   0  0  0  0  0  0  0  0  0  0  0  0
    4.8370   -1.5820   30.7680 C   0  0  0  0  0  0  0  0  0  0  0  0
    4.8580   -2.6180   29.7160 C   0  0  0  0  0  0  0  0  0  0  0  0
    6.1190   -5.0650   23.7750 C   0  0  0  0  0  0  0  0  0  0  0  0
    6.6500   -5.4300   22.4010 C   0  0  0  0  0  0  0  0  0  0  0  0
  1  2  1  0
  2  3  2  0
  2  4  1  0
  4  5  1  0
  5  6  1  0
  6  7  1  0
  7  8  1  0
  8  9  2  0
  8 10  1  0
 10 11  1  0
 11 12  1  1
 11 13  1  0
 13 14  2  0
 14 15  1  0
 15 16  2  0
 16 17  1  0
 17 18  1  0
 18 19  2  0
 18 20  1  0
 20 21  1  0
 21 22  1  0
 20 23  1  0
 23 24  1  0
 16 25  1  0
 13 26  1  0
 25 26  2  0
  7 27  1  0
  4 28  1  0
 27 28  1  0
M  END
