piperidine-amides-30809-covalent
     RDKit          3D

 28 30  0  0  0  0  0  0  0  0999 V2000
    7.0940   -3.2660   19.2140 C   0  0  0  0  0  0  0  0  0  0  0  0
    6.3160   -4.0020   20.2150 C   0  0  0  0  0  0  0  0  0  0  0  0
    5.2570   -4.5510   19.8780 O   0  0  0  0  0  0  0  0  0  0  0  0
    6.7550   -4.1490   21.5380 N   0  0  0  0  0  0  0  0  0  0  0  0
    7.7000   -3.2080   22.1110 C   0  0  0  0  0  0  0  0  0  0  0  0
    7.1870   -2.8170   23.4710 C   0  0  0  0  0  0  0  0  0  0  0  0
    6.8650   -4.0130   24.3150 C   0  0  0  0  0  0  0  0  0  0  0  0
    6.1720   -3.6060   25.5560 C   0  0  0  0  0  0  0  0  0  0  0  0
    4.9000   -3.5670   25.5950 O   0  0  0  0  0  0  0  0  0  0  0  0
    6.8870   -3.2230   26.7220 N   0  0  0  0  0  0  0  0  0  0  0  0
    7.2240   -1.7940   26.8620 C   0  0  0  0  0  0  0  0  0  0  0  0
    6.7570   -1.2870   28.1740 C   0  0  0  0  0  0  0  0  0  0  0  0
    7.7030   -1.2320   29.2930 C   0  0  0  0  0  0  0  0  0  0  0  0
    7.2310   -0.7100   30.6200 C   0  0  0  0  0  0  0  0  0  0  0  0
    5.7950   -0.2550   30.7990 C   0  0  0  0  0  0  0  0  0  0  0  0
    4.9920   -0.3890   29.5550 C   0  0  0  0  0  0  0  0  0  0  0  0
    5.4670   -0.8680   28.3620 C   0  0  0  0  0  0  0  0  0  0  0  0
    4.7170   -0.9520   27.3330 O   0  0  0  0  0  0  0  0  0  0  0  0
    7.4830   -4.1260   27.6710 C   0  0  2  0  0  0  0  0  0  0  0  0
    8.3470   -5.2190   27.0690 C   0  0  0  0  0  0  0  0  0  0  0  0
    6.4750   -4.7740   28.5650 C   0  0  0  0  0  0  0  0  0  0  0  0
    6.4750   -6.1880   28.9960 C   0  0  0  0  0  0  0  0  0  0  0  0
    6.1200   -7.1680   29.5400 C   0  0  0  0  0  0  0  0  0  0  0  0
    4.9080   -6.5750   30.1990 C   0  0  0  0  0  0  0  0  0  0  0  0
    4.5110   -5.2310   30.0620 C   0  0  0  0  0  0  0  0  0  0  0  0
    5.2570   -4.1680   29.2230 C   0  0  0  0  0  0  0  0  0  0  0  0
    6.0020   -5.0130   23.6280 C   0  0  0  0  0  0  0  0  0  0  0  0
    6.5590   -5.3700   22.2760 C   0  0  0  0  0  0  0  0  0  0  0  0
  1  2  1  0
  2  3  2  0
  2  4  1  0
  4  5  1  0
  5  6  1  0
  6  7  1  0
  7  8  1  0
  8  9  2  0
  8 10  1  0
 10 11  1  0
 11 12  1  0
 12 13  2  0
 13 14  1  0
 14 15  2  0
 15 16  1  0
 12 17  1  0
 16 17  2  0
 17 18  1  0
 10 19  1  0
 19 20  1  6
 19 21  1  0
 21 22  2  0
 22 23  1  0
 23 24  2  0
 24 25  1  0
 21 26  1  0
 25 26  2  0
  7 27  1  0
  4 28  1  0
 27 28  1  0
M  END
