piperidine-amides-6571-covalent
     RDKit          3D

 24 26  0  0  0  0  0  0  0  0999 V2000
    7.0550   -3.3560   19.3650 C   0  0  0  0  0  0  0  0  0  0  0  0
    6.3380   -4.1690   20.3590 C   0  0  0  0  0  0  0  0  0  0  0  0
    5.3850   -4.8920   19.9920 O   0  0  0  0  0  0  0  0  0  0  0  0
    6.7390   -4.1720   21.7050 N   0  0  0  0  0  0  0  0  0  0  0  0
    7.6720   -3.1570   22.1470 C   0  0  0  0  0  0  0  0  0  0  0  0
    7.5430   -3.1320   23.6600 C   0  0  0  0  0  0  0  0  0  0  0  0
    6.1250   -3.5790   23.8940 C   0  0  0  0  0  0  0  0  0  0  0  0
    5.6640   -3.2070   25.2460 C   0  0  0  0  0  0  0  0  0  0  0  0
    4.4400   -3.2360   25.4880 O   0  0  0  0  0  0  0  0  0  0  0  0
    6.6110   -2.8340   26.2210 N   0  0  0  0  0  0  0  0  0  0  0  0
    6.4730   -1.6070   26.9520 C   0  0  0  0  0  0  0  0  0  0  0  0
    6.9860   -1.5530   28.3770 C   0  0  0  0  0  0  0  0  0  0  0  0
    6.9190   -0.4570   29.1820 C   0  0  0  0  0  0  0  0  0  0  0  0
    6.3580    0.7140   28.7370 C   0  0  0  0  0  0  0  0  0  0  0  0
    6.2740    1.8480   29.5480 C   0  0  0  0  0  0  0  0  0  0  0  0
    7.1480    1.8150   30.5380 N   0  0  0  0  0  0  0  0  0  0  0  0
    6.9270    3.0160   31.2440 C   0  0  0  0  0  0  0  0  0  0  0  0
    5.9280    3.6460   30.5910 N   0  0  0  0  0  0  0  0  0  0  0  0
    5.4500    4.8380   30.9940 C   0  0  0  0  0  0  0  0  0  0  0  0
    5.4740    2.9550   29.5070 N   0  0  0  0  0  0  0  0  0  0  0  0
    5.8580    0.7960   27.4680 C   0  0  0  0  0  0  0  0  0  0  0  0
    5.8620   -0.3180   26.4680 C   0  0  0  0  0  0  0  0  0  0  0  0
    5.9780   -5.0710   23.6760 C   0  0  0  0  0  0  0  0  0  0  0  0
    6.6680   -5.3940   22.4820 C   0  0  0  0  0  0  0  0  0  0  0  0
  1  2  1  0
  2  3  2  0
  2  4  1  0
  4  5  1  0
  5  6  1  0
  6  7  1  0
  7  8  1  0
  8  9  2  0
  8 10  1  0
 10 11  1  0
 11 12  2  0
 12 13  1  0
 13 14  2  0
 14 15  1  0
 15 16  1  0
 16 17  2  0
 17 18  1  0
 18 19  1  0
 15 20  2  0
 18 20  1  0
 14 21  1  0
 11 22  1  0
 21 22  2  0
  7 23  1  0
  4 24  1  0
 23 24  1  0
M  END
