piperidine-amides-3400-covalent
     RDKit          3D

 21 22  0  0  0  0  0  0  0  0999 V2000
    7.1440   -3.2580   19.2030 C   0  0  0  0  0  0  0  0  0  0  0  0
    6.3640   -4.0140   20.1750 C   0  0  0  0  0  0  0  0  0  0  0  0
    5.2820   -4.5110   19.8650 O   0  0  0  0  0  0  0  0  0  0  0  0
    6.8930   -4.2310   21.4820 N   0  0  0  0  0  0  0  0  0  0  0  0
    6.4230   -5.3440   22.2530 C   0  0  0  0  0  0  0  0  0  0  0  0
    5.6030   -4.8360   23.4040 C   0  0  0  0  0  0  0  0  0  0  0  0
    6.3750   -3.6930   24.0500 C   0  0  0  0  0  0  0  0  0  0  0  0
    5.5480   -3.1040   25.1300 C   0  0  0  0  0  0  0  0  0  0  0  0
    4.3150   -2.9500   25.0370 O   0  0  0  0  0  0  0  0  0  0  0  0
    6.2020   -2.7200   26.3100 N   0  0  0  0  0  0  0  0  0  0  0  0
    6.6590   -3.7890   27.1420 C   0  0  1  0  0  0  0  0  0  0  0  0
    5.5090   -4.4520   27.8340 C   0  0  0  0  0  0  0  0  0  0  0  0
    7.3010   -4.8280   26.3510 C   0  0  2  0  0  0  0  0  0  0  0  0
    7.3880   -5.9340   27.1200 C   0  0  0  0  0  0  0  0  0  0  0  0
    8.2340   -5.7000   28.1220 C   0  0  0  0  0  0  0  0  0  0  0  0
    9.4710   -5.1700   27.6480 C   0  0  0  0  0  0  0  0  0  0  0  0
    9.7520   -4.8950   26.3240 C   0  0  2  0  0  0  0  0  0  0  0  0
   10.7540   -4.0550   25.8960 C   0  0  0  0  0  0  0  0  0  0  0  0
    8.4350   -4.4700   25.6740 C   0  0  0  0  0  0  0  0  0  0  0  0
    6.8820   -2.6710   23.1610 C   0  0  0  0  0  0  0  0  0  0  0  0
    7.6540   -3.2100   22.1580 C   0  0  0  0  0  0  0  0  0  0  0  0
  1  2  1  0
  2  3  2  0
  2  4  1  0
  4  5  1  0
  5  6  1  0
  6  7  1  0
  7  8  1  0
  8  9  2  0
  8 10  1  0
 10 11  1  0
 11 12  1  6
 11 13  1  0
 13 14  1  1
 14 15  1  0
 15 16  1  0
 16 17  1  0
 17 18  1  1
 13 19  1  0
 17 19  1  0
  7 20  1  0
  4 21  1  0
 20 21  1  0
M  END
