piperidine-amides-33258-covalent
     RDKit          3D

 28 30  0  0  0  0  0  0  0  0999 V2000
    7.1910   -3.3150   19.2150 C   0  0  0  0  0  0  0  0  0  0  0  0
    6.4470   -4.1080   20.1940 C   0  0  0  0  0  0  0  0  0  0  0  0
    5.3000   -4.5010   19.8740 O   0  0  0  0  0  0  0  0  0  0  0  0
    7.0650   -4.4780   21.4100 N   0  0  0  0  0  0  0  0  0  0  0  0
    6.5010   -5.5550   22.1400 C   0  0  0  0  0  0  0  0  0  0  0  0
    5.8110   -5.1070   23.3390 C   0  0  0  0  0  0  0  0  0  0  0  0
    5.8540   -3.6400   23.4830 C   0  0  0  0  0  0  0  0  0  0  0  0
    5.2010   -3.1520   24.7120 C   0  0  0  0  0  0  0  0  0  0  0  0
    4.2530   -3.7670   25.2320 O   0  0  0  0  0  0  0  0  0  0  0  0
    5.6590   -1.9660   25.2670 N   0  0  0  0  0  0  0  0  0  0  0  0
    7.0040   -1.6260   25.5420 C   0  0  0  0  0  0  0  0  0  0  0  0
    4.7750   -1.3480   26.1930 C   0  0  0  0  0  0  0  0  0  0  0  0
    5.4590   -1.2560   27.5110 C   0  0  0  0  0  0  0  0  0  0  0  0
    5.3920   -0.1170   28.2890 C   0  0  0  0  0  0  0  0  0  0  0  0
    6.1850   -0.1600   29.6310 C   0  0  0  0  0  0  0  0  0  0  0  0
    6.9390   -1.4360   29.9380 C   0  0  0  0  0  0  0  0  0  0  0  0
    6.7840   -2.5000   28.8520 C   0  0  0  0  0  0  0  0  0  0  0  0
    7.3280   -3.8210   28.7630 N   0  0  0  0  0  0  0  0  0  0  0  0
    6.2680   -4.6940   28.8720 C   0  0  0  0  0  0  0  0  0  0  0  0
    6.4580   -5.7460   27.8130 C   0  0  1  0  0  0  0  0  0  0  0  0
    5.6180   -5.4000   26.5750 C   0  0  0  0  0  0  0  0  0  0  0  0
    7.9160   -5.8650   27.3600 C   0  0  0  0  0  0  0  0  0  0  0  0
    8.5410   -4.3170   27.7740 S   0  0  0  0  0  0  0  0  0  0  0  0
    8.6430   -3.5020   26.5280 O   0  0  0  0  0  0  0  0  0  0  0  0
    9.8390   -4.5350   28.4190 O   0  0  0  0  0  0  0  0  0  0  0  0
    6.0950   -2.3970   27.7390 C   0  0  0  0  0  0  0  0  0  0  0  0
    7.2040   -3.0430   23.3410 C   0  0  0  0  0  0  0  0  0  0  0  0
    7.8570   -3.4780   22.0740 C   0  0  0  0  0  0  0  0  0  0  0  0
  1  2  1  0
  2  3  2  0
  2  4  1  0
  4  5  1  0
  5  6  1  0
  6  7  1  0
  7  8  1  0
  8  9  2  0
  8 10  1  0
 10 11  1  0
 10 12  1  0
 12 13  1  0
 13 14  2  0
 14 15  1  0
 15 16  2  0
 16 17  1  0
 17 18  1  0
 18 19  1  0
 19 20  1  0
 20 21  1  6
 20 22  1  0
 23 18  1  0
 22 23  1  0
 23 24  2  0
 23 25  2  0
 13 26  1  0
 17 26  2  0
  7 27  1  0
  4 28  1  0
 27 28  1  0
M  END
