piperidine-amides-2241-covalent
     RDKit          3D

 28 30  0  0  0  0  0  0  0  0999 V2000
    6.9760   -3.3030   19.3650 C   0  0  0  0  0  0  0  0  0  0  0  0
    6.2720   -4.1400   20.3770 C   0  0  0  0  0  0  0  0  0  0  0  0
    5.3760   -4.8750   19.9710 O   0  0  0  0  0  0  0  0  0  0  0  0
    6.6240   -4.1140   21.7290 N   0  0  0  0  0  0  0  0  0  0  0  0
    7.4200   -3.0630   22.3020 C   0  0  0  0  0  0  0  0  0  0  0  0
    7.1050   -2.8680   23.7740 C   0  0  0  0  0  0  0  0  0  0  0  0
    5.6210   -2.9660   24.1070 C   0  0  0  0  0  0  0  0  0  0  0  0
    5.3410   -3.3220   25.5600 C   0  0  0  0  0  0  0  0  0  0  0  0
    4.8460   -4.4220   25.7490 O   0  0  0  0  0  0  0  0  0  0  0  0
    5.5210   -2.4460   26.7120 N   0  0  0  0  0  0  0  0  0  0  0  0
    5.3030   -1.1450   26.2400 C   0  0  0  0  0  0  0  0  0  0  0  0
    6.5460   -1.6830   26.8080 C   0  0  0  0  0  0  0  0  0  0  0  0
    6.4200   -2.4370   27.9560 C   0  0  0  0  0  0  0  0  0  0  0  0
    5.0960   -2.5800   28.3670 C   0  0  0  0  0  0  0  0  0  0  0  0
    4.7410   -2.5450   29.7050 O   0  0  0  0  0  0  0  0  0  0  0  0
    3.9310   -2.7580   27.4640 N   0  0  0  0  0  0  0  0  0  0  0  0
    3.6090   -4.1240   27.0920 C   0  0  0  0  0  0  0  0  0  0  0  0
    4.9810   -4.7220   26.8320 C   0  0  0  0  0  0  0  0  0  0  0  0
    5.6280   -5.0060   28.1540 C   0  0  0  0  0  0  0  0  0  0  0  0
    7.0360   -5.5650   28.0450 C   0  0  0  0  0  0  0  0  0  0  0  0
    7.6730   -5.7840   26.7030 C   0  0  0  0  0  0  0  0  0  0  0  0
    9.2980   -6.3960   26.5810 Cl  0  0  0  0  0  0  0  0  0  0  0  0
    6.9170   -5.4700   25.4730 C   0  0  0  0  0  0  0  0  0  0  0  0
    7.6780   -5.7250   23.9360 Cl  0  0  0  0  0  0  0  0  0  0  0  0
    5.5340   -4.9350   25.4650 C   0  0  0  0  0  0  0  0  0  0  0  0
    3.9260   -1.6070   26.5300 C   0  0  0  0  0  0  0  0  0  0  0  0
    4.9300   -4.0060   23.1970 C   0  0  0  0  0  0  0  0  0  0  0  0
    5.8530   -4.8940   22.6630 C   0  0  0  0  0  0  0  0  0  0  0  0
  1  2  1  0
  2  3  2  0
  2  4  1  0
  4  5  1  0
  5  6  1  0
  6  7  1  0
  7  8  1  0
  8  9  2  0
  8 10  1  0
 10 11  1  0
 11 12  1  0
 12 13  2  0
 13 14  1  0
 14 15  2  0
 14 16  1  0
 16 17  1  0
 17 18  1  0
 18 19  2  0
 19 20  1  0
 20 21  2  0
 21 22  1  0
 21 23  1  0
 23 24  1  0
 18 25  1  0
 23 25  2  0
 11 26  2  0
 16 26  1  0
  7 27  1  0
  4 28  1  0
 27 28  1  0
M  END
