piperidine-amides-4956-covalent
     RDKit          3D

 23 24  0  0  0  0  0  0  0  0999 V2000
    7.0850   -3.2770   19.2080 C   0  0  0  0  0  0  0  0  0  0  0  0
    6.3410   -4.0250   20.2470 C   0  0  0  0  0  0  0  0  0  0  0  0
    5.2750   -4.5600   19.8880 O   0  0  0  0  0  0  0  0  0  0  0  0
    6.8400   -4.1590   21.5500 N   0  0  0  0  0  0  0  0  0  0  0  0
    7.6280   -3.1270   22.1340 C   0  0  0  0  0  0  0  0  0  0  0  0
    7.5080   -2.9810   23.5860 C   0  0  0  0  0  0  0  0  0  0  0  0
    6.7620   -4.0320   24.3250 C   0  0  0  0  0  0  0  0  0  0  0  0
    6.0380   -3.3840   25.4470 C   0  0  0  0  0  0  0  0  0  0  0  0
    4.7980   -3.2530   25.3480 O   0  0  0  0  0  0  0  0  0  0  0  0
    6.7240   -2.9080   26.5900 N   0  0  0  0  0  0  0  0  0  0  0  0
    7.5120   -3.7730   27.5070 C   0  0  0  0  0  0  0  0  0  0  0  0
    6.6540   -4.6340   28.3790 C   0  0  0  0  0  0  0  0  0  0  0  0
    7.1310   -6.0090   28.4620 C   0  0  0  0  0  0  0  0  0  0  0  0
    6.3510   -6.8700   29.2800 N   0  0  0  0  0  0  0  0  0  0  0  0
    5.2160   -6.4520   29.9520 C   0  0  0  0  0  0  0  0  0  0  0  0
    4.8250   -5.1380   29.8280 C   0  0  0  0  0  0  0  0  0  0  0  0
    5.5060   -4.2020   29.0630 C   0  0  0  0  0  0  0  0  0  0  0  0
    5.1220   -2.8980   28.9440 C   0  0  0  0  0  0  0  0  0  0  0  0
    4.2400   -2.3560   29.8990 F   0  0  0  0  0  0  0  0  0  0  0  0
    6.2540   -2.1360   29.0150 F   0  0  0  0  0  0  0  0  0  0  0  0
    4.4450   -2.7710   27.7590 F   0  0  0  0  0  0  0  0  0  0  0  0
    5.8880   -4.9360   23.5200 C   0  0  0  0  0  0  0  0  0  0  0  0
    6.5270   -5.3160   22.3400 C   0  0  0  0  0  0  0  0  0  0  0  0
  1  2  1  0
  2  3  2  0
  2  4  1  0
  4  5  1  0
  5  6  1  0
  6  7  1  0
  7  8  1  0
  8  9  2  0
  8 10  1  0
 10 11  1  0
 11 12  1  0
 12 13  2  0
 13 14  1  0
 14 15  2  0
 15 16  1  0
 12 17  1  0
 16 17  2  0
 17 18  1  0
 18 19  1  0
 18 20  1  0
 18 21  1  0
  7 22  1  0
  4 23  1  0
 22 23  1  0
M  END
