piperidine-amides-23786-covalent
     RDKit          3D

 24 26  0  0  0  0  0  0  0  0999 V2000
    7.0760   -3.3850   19.4190 C   0  0  0  0  0  0  0  0  0  0  0  0
    6.4000   -4.2230   20.4190 C   0  0  0  0  0  0  0  0  0  0  0  0
    5.4190   -4.8940   20.0040 O   0  0  0  0  0  0  0  0  0  0  0  0
    6.8700   -4.3060   21.7640 N   0  0  0  0  0  0  0  0  0  0  0  0
    6.5930   -5.4790   22.5260 C   0  0  0  0  0  0  0  0  0  0  0  0
    6.0970   -5.1350   23.8480 C   0  0  0  0  0  0  0  0  0  0  0  0
    5.9150   -3.6790   23.9610 C   0  0  0  0  0  0  0  0  0  0  0  0
    5.1070   -3.2210   25.1660 C   0  0  0  0  0  0  0  0  0  0  0  0
    3.8990   -3.0210   24.9640 O   0  0  0  0  0  0  0  0  0  0  0  0
    5.5240   -2.9960   26.5040 N   0  0  0  0  0  0  0  0  0  0  0  0
    5.0020   -3.5280   27.6990 C   0  0  0  0  0  0  0  0  0  0  0  0
    5.9790   -3.6840   28.7750 C   0  0  0  0  0  0  0  0  0  0  0  0
    7.3300   -3.3170   28.0900 C   0  0  2  0  0  0  0  0  0  0  0  0
    7.7200   -2.0040   27.9710 C   0  0  0  0  0  0  0  0  0  0  0  0
    6.8480   -2.5480   26.8190 C   0  0  1  0  0  0  0  0  0  0  0  0
    7.6140   -3.7360   26.7200 C   0  0  0  0  0  0  0  0  0  0  0  0
    6.8830   -4.6040   27.7130 C   0  0  0  0  0  0  0  0  0  0  0  0
    7.3270   -5.9790   27.9760 C   0  0  0  0  0  0  0  0  0  0  0  0
    8.5410   -6.3390   27.1660 C   0  0  0  0  0  0  0  0  0  0  0  0
    9.2210   -5.4180   26.2030 C   0  0  0  0  0  0  0  0  0  0  0  0
   10.2840   -5.9530   25.6370 F   0  0  0  0  0  0  0  0  0  0  0  0
    8.6660   -4.1040   26.0240 C   0  0  0  0  0  0  0  0  0  0  0  0
    7.1560   -2.9000   23.6390 C   0  0  0  0  0  0  0  0  0  0  0  0
    7.6330   -3.2190   22.3600 C   0  0  0  0  0  0  0  0  0  0  0  0
  1  2  1  0
  2  3  2  0
  2  4  1  0
  4  5  1  0
  5  6  1  0
  6  7  1  0
  7  8  1  0
  8  9  2  0
  8 10  1  0
 10 11  1  0
 11 12  1  0
 12 13  1  0
 13 14  1  1
 10 15  1  0
 13 15  1  0
 15 16  1  6
 16 17  2  0
 17 18  1  0
 18 19  2  0
 19 20  1  0
 20 21  1  0
 16 22  1  0
 20 22  2  0
  7 23  1  0
  4 24  1  0
 23 24  1  0
M  END
