piperidine-amides-2369-covalent
     RDKit          3D

 27 29  0  0  0  0  0  0  0  0999 V2000
    6.9940   -3.3490   19.3990 C   0  0  0  0  0  0  0  0  0  0  0  0
    6.3570   -4.2220   20.4240 C   0  0  0  0  0  0  0  0  0  0  0  0
    5.4460   -4.9450   20.0130 O   0  0  0  0  0  0  0  0  0  0  0  0
    6.8040   -4.2290   21.7660 N   0  0  0  0  0  0  0  0  0  0  0  0
    7.6890   -3.2100   22.2910 C   0  0  0  0  0  0  0  0  0  0  0  0
    7.3500   -2.9320   23.7310 C   0  0  0  0  0  0  0  0  0  0  0  0
    5.9910   -3.5670   23.9930 C   0  0  0  0  0  0  0  0  0  0  0  0
    5.4020   -3.2400   25.3330 C   0  0  0  0  0  0  0  0  0  0  0  0
    4.1680   -3.2310   25.4030 O   0  0  0  0  0  0  0  0  0  0  0  0
    6.1320   -2.9540   26.5230 N   0  0  0  0  0  0  0  0  0  0  0  0
    6.5620   -1.5910   26.8150 C   0  0  0  0  0  0  0  0  0  0  0  0
    7.0180   -1.5380   28.2850 C   0  0  0  0  0  0  0  0  0  0  0  0
    6.6260   -0.5260   29.0590 C   0  0  0  0  0  0  0  0  0  0  0  0
    5.5960    0.2310   28.5590 N   0  0  0  0  0  0  0  0  0  0  0  0
    4.5580    0.7350   29.4350 C   0  0  0  0  0  0  0  0  0  0  0  0
    4.6750    0.3100   30.7400 C   0  0  0  0  0  0  0  0  0  0  0  0
    3.8310   -0.5940   31.6070 C   0  0  0  0  0  0  0  0  0  0  0  0
    4.3530   -0.7770   33.0130 C   0  0  0  0  0  0  0  0  0  0  0  0
    3.6270   -1.7560   34.2870 Cl  0  0  0  0  0  0  0  0  0  0  0  0
    5.6380   -0.0330   33.3420 C   0  0  0  0  0  0  0  0  0  0  0  0
    6.3820    0.8340   32.3850 C   0  0  0  0  0  0  0  0  0  0  0  0
    7.8490    1.6050   32.9630 Cl  0  0  0  0  0  0  0  0  0  0  0  0
    5.9380    1.0700   30.9880 C   0  0  0  0  0  0  0  0  0  0  0  0
    5.0500   -0.5520   27.5090 C   0  0  0  0  0  0  0  0  0  0  0  0
    5.8110   -0.3970   26.2180 C   0  0  0  0  0  0  0  0  0  0  0  0
    6.0530   -5.0790   23.7930 C   0  0  0  0  0  0  0  0  0  0  0  0
    6.6380   -5.4350   22.5790 C   0  0  0  0  0  0  0  0  0  0  0  0
  1  2  1  0
  2  3  2  0
  2  4  1  0
  4  5  1  0
  5  6  1  0
  6  7  1  0
  7  8  1  0
  8  9  2  0
  8 10  1  0
 10 11  1  0
 11 12  1  0
 12 13  1  0
 13 14  1  0
 14 15  1  0
 15 16  1  0
 16 17  2  0
 17 18  1  0
 18 19  1  0
 18 20  2  0
 20 21  1  0
 21 22  1  0
 16 23  1  0
 21 23  2  0
 14 24  1  0
 11 25  1  0
 24 25  1  0
  7 26  1  0
  4 27  1  0
 26 27  1  0
M  END
