piperidine-amides-8350-covalent
     RDKit          3D

 24 25  0  0  0  0  0  0  0  0999 V2000
    7.0630   -3.3480   19.3360 C   0  0  0  0  0  0  0  0  0  0  0  0
    6.4150   -4.2080   20.3220 C   0  0  0  0  0  0  0  0  0  0  0  0
    5.3890   -4.8250   19.9770 O   0  0  0  0  0  0  0  0  0  0  0  0
    6.9850   -4.3610   21.6140 N   0  0  0  0  0  0  0  0  0  0  0  0
    7.6580   -3.2180   22.1950 C   0  0  0  0  0  0  0  0  0  0  0  0
    7.4900   -3.1640   23.6910 C   0  0  0  0  0  0  0  0  0  0  0  0
    6.0940   -3.6450   24.0220 C   0  0  0  0  0  0  0  0  0  0  0  0
    5.6850   -3.2340   25.3980 C   0  0  0  0  0  0  0  0  0  0  0  0
    4.4970   -3.3680   25.6780 O   0  0  0  0  0  0  0  0  0  0  0  0
    6.6640   -2.7260   26.2380 N   0  0  0  0  0  0  0  0  0  0  0  0
    6.4670   -1.4880   26.9140 C   0  0  0  0  0  0  0  0  0  0  0  0
    6.1710   -0.2920   26.2660 C   0  0  0  0  0  0  0  0  0  0  0  0
    5.9800    0.8950   26.9200 C   0  0  0  0  0  0  0  0  0  0  0  0
    6.0550    1.0400   28.2890 C   0  0  0  0  0  0  0  0  0  0  0  0
    5.8410    2.2880   28.8540 O   0  0  0  0  0  0  0  0  0  0  0  0
    6.3660   -0.2260   29.0230 C   0  0  0  0  0  0  0  0  0  0  0  0
    6.4850   -0.3070   30.7400 S   0  0  0  0  0  0  0  0  0  0  0  0
    7.8640   -0.7220   31.1010 O   0  0  0  0  0  0  0  0  0  0  0  0
    5.4740   -1.3100   31.1950 O   0  0  0  0  0  0  0  0  0  0  0  0
    6.1440    1.2200   31.5050 N   0  0  0  0  0  0  0  0  0  0  0  0
    4.9130    1.7010   31.3270 C   0  0  0  0  0  0  0  0  0  0  0  0
    6.5620   -1.4120   28.3300 C   0  0  0  0  0  0  0  0  0  0  0  0
    6.0130   -5.0980   23.7540 C   0  0  0  0  0  0  0  0  0  0  0  0
    6.5830   -5.5060   22.3940 C   0  0  0  0  0  0  0  0  0  0  0  0
  1  2  1  0
  2  3  2  0
  2  4  1  0
  4  5  1  0
  5  6  1  0
  6  7  1  0
  7  8  1  0
  8  9  2  0
  8 10  1  0
 10 11  1  0
 11 12  2  0
 12 13  1  0
 13 14  2  0
 14 15  1  0
 14 16  1  0
 16 17  1  0
 17 18  2  0
 17 19  2  0
 17 20  1  0
 20 21  1  0
 11 22  1  0
 16 22  2  0
  7 23  1  0
  4 24  1  0
 23 24  1  0
M  END
