piperidine-amides-23794-covalent
     RDKit          3D

 24 26  0  0  0  0  0  0  0  0999 V2000
    7.1360   -3.3430   19.3000 C   0  0  0  0  0  0  0  0  0  0  0  0
    6.4160   -4.1330   20.3040 C   0  0  0  0  0  0  0  0  0  0  0  0
    5.3480   -4.6880   19.9430 O   0  0  0  0  0  0  0  0  0  0  0  0
    6.9610   -4.3050   21.5980 N   0  0  0  0  0  0  0  0  0  0  0  0
    6.5260   -5.3870   22.3960 C   0  0  0  0  0  0  0  0  0  0  0  0
    6.2020   -5.0090   23.7740 C   0  0  0  0  0  0  0  0  0  0  0  0
    6.7490   -3.7060   24.2410 C   0  0  0  0  0  0  0  0  0  0  0  0
    5.9040   -3.1420   25.3500 C   0  0  0  0  0  0  0  0  0  0  0  0
    5.2570   -2.1020   25.1680 O   0  0  0  0  0  0  0  0  0  0  0  0
    5.7840   -3.7960   26.5840 N   0  0  0  0  0  0  0  0  0  0  0  0
    5.0960   -4.9570   26.8020 C   0  0  0  0  0  0  0  0  0  0  0  0
    5.4710   -5.6620   28.0040 C   0  0  0  0  0  0  0  0  0  0  0  0
    5.0440   -4.8100   29.1960 C   0  0  0  0  0  0  0  0  0  0  0  0
    4.8240   -5.5630   30.3300 C   0  0  0  0  0  0  0  0  0  0  0  0
    5.9360   -6.6190   30.1510 C   0  0  0  0  0  0  0  0  0  0  0  0
    5.9810   -7.6560   31.2730 C   0  0  0  0  0  0  0  0  0  0  0  0
    4.9100   -7.4480   32.3650 C   0  0  0  0  0  0  0  0  0  0  0  0
    3.8680   -6.3920   32.4550 C   0  0  0  0  0  0  0  0  0  0  0  0
    2.9620   -6.3130   33.4860 F   0  0  0  0  0  0  0  0  0  0  0  0
    3.9080   -5.4420   31.3250 C   0  0  0  0  0  0  0  0  0  0  0  0
    6.4260   -4.5550   28.6360 C   0  0  0  0  0  0  0  0  0  0  0  0
    6.3010   -3.2980   27.8090 C   0  0  0  0  0  0  0  0  0  0  0  0
    6.9470   -2.6990   23.1650 C   0  0  0  0  0  0  0  0  0  0  0  0
    7.7420   -3.2620   22.1970 C   0  0  0  0  0  0  0  0  0  0  0  0
  1  2  1  0
  2  3  2  0
  2  4  1  0
  4  5  1  0
  5  6  1  0
  6  7  1  0
  7  8  1  0
  8  9  2  0
  8 10  1  0
 10 11  1  0
 11 12  1  0
 12 13  1  0
 13 14  1  0
 14 15  2  0
 15 16  1  0
 16 17  2  0
 17 18  1  0
 18 19  1  0
 14 20  1  0
 18 20  2  0
 13 21  1  0
 10 22  1  0
 21 22  1  0
  7 23  1  0
  4 24  1  0
 23 24  1  0
M  END
