piperidine-amides-31529-covalent
     RDKit          3D

 28 31  0  0  0  0  0  0  0  0999 V2000
    7.1040   -3.3350   19.4370 C   0  0  0  0  0  0  0  0  0  0  0  0
    6.4190   -4.1580   20.4080 C   0  0  0  0  0  0  0  0  0  0  0  0
    5.4560   -4.8930   20.0020 O   0  0  0  0  0  0  0  0  0  0  0  0
    6.8120   -4.1810   21.7700 N   0  0  0  0  0  0  0  0  0  0  0  0
    6.6630   -5.4790   22.4970 C   0  0  0  0  0  0  0  0  0  0  0  0
    6.0490   -5.0910   23.9220 C   0  0  0  0  0  0  0  0  0  0  0  0
    6.2030   -3.5970   24.0810 C   0  0  0  0  0  0  0  0  0  0  0  0
    5.2930   -2.9240   25.2130 C   0  0  0  0  0  0  0  0  0  0  0  0
    4.2500   -2.5850   24.6860 O   0  0  0  0  0  0  0  0  0  0  0  0
    5.8180   -2.8890   26.3800 N   0  0  0  0  0  0  0  0  0  0  0  0
    6.0420   -3.1810   27.6830 C   0  0  0  0  0  0  0  0  0  0  0  0
    5.4340   -4.0160   28.5740 C   0  0  0  0  0  0  0  0  0  0  0  0
    4.0420   -3.8870   28.6120 C   0  0  0  0  0  0  0  0  0  0  0  0
    3.1030   -4.6520   29.4750 C   0  0  0  0  0  0  0  0  0  0  0  0
    3.8830   -5.6630   30.3780 C   0  0  0  0  0  0  0  0  0  0  0  0
    5.2960   -5.6670   30.2140 C   0  0  0  0  0  0  0  0  0  0  0  0
    6.0330   -4.8760   29.3440 C   0  0  0  0  0  0  0  0  0  0  0  0
    6.0270   -6.4320   30.8990 O   0  0  0  0  0  0  0  0  0  0  0  0
    5.5020   -7.6820   30.8280 C   0  0  0  0  0  0  0  0  0  0  0  0
    3.9920   -7.6280   31.1920 C   0  0  0  0  0  0  0  0  0  0  0  0
    3.4770   -6.4880   31.2400 O   0  0  0  0  0  0  0  0  0  0  0  0
    6.5570   -1.6790   26.8250 C   0  0  0  0  0  0  0  0  0  0  0  0
    5.9050   -0.4890   26.5470 C   0  0  0  0  0  0  0  0  0  0  0  0
    5.8860    0.3430   27.6110 C   0  0  0  0  0  0  0  0  0  0  0  0
    6.3890   -0.3100   28.6970 C   0  0  0  0  0  0  0  0  0  0  0  0
    6.7380   -1.6110   28.3400 C   0  0  0  0  0  0  0  0  0  0  0  0
    7.5090   -3.0100   23.7550 C   0  0  0  0  0  0  0  0  0  0  0  0
    7.7750   -3.2410   22.3090 C   0  0  0  0  0  0  0  0  0  0  0  0
  1  2  1  0
  2  3  2  0
  2  4  1  0
  4  5  1  0
  5  6  1  0
  6  7  1  0
  7  8  1  0
  8  9  2  0
  8 10  1  0
 10 11  1  0
 11 12  1  0
 12 13  2  0
 13 14  1  0
 14 15  2  0
 15 16  1  0
 12 17  1  0
 16 17  2  0
 16 18  1  0
 18 19  1  0
 19 20  1  0
 15 21  1  0
 20 21  1  0
 10 22  1  0
 22 23  1  0
 23 24  1  0
 24 25  1  0
 22 26  1  0
 25 26  1  0
  7 27  1  0
  4 28  1  0
 27 28  1  0
M  END
