piperidine-amides-4033-covalent
     RDKit          3D

 28 30  0  0  0  0  0  0  0  0999 V2000
    7.1560   -3.3370   19.2900 C   0  0  0  0  0  0  0  0  0  0  0  0
    6.4060   -4.1160   20.2800 C   0  0  0  0  0  0  0  0  0  0  0  0
    5.3090   -4.6030   19.9100 O   0  0  0  0  0  0  0  0  0  0  0  0
    6.9470   -4.3600   21.5620 N   0  0  0  0  0  0  0  0  0  0  0  0
    7.6170   -3.2680   22.1700 C   0  0  0  0  0  0  0  0  0  0  0  0
    7.0280   -2.8260   23.4240 C   0  0  0  0  0  0  0  0  0  0  0  0
    6.3900   -3.8660   24.2650 C   0  0  0  0  0  0  0  0  0  0  0  0
    5.6420   -3.2270   25.3910 C   0  0  0  0  0  0  0  0  0  0  0  0
    4.4040   -3.1180   25.3050 O   0  0  0  0  0  0  0  0  0  0  0  0
    6.2840   -2.7410   26.5470 N   0  0  0  0  0  0  0  0  0  0  0  0
    6.2700   -1.4100   27.0380 C   0  0  0  0  0  0  0  0  0  0  0  0
    5.7940   -0.2930   26.2390 C   0  0  0  0  0  0  0  0  0  0  0  0
    5.8280    1.1010   26.8810 C   0  0  0  0  0  0  0  0  0  0  0  0
    5.3200    2.0800   25.9230 N   0  0  0  0  0  0  0  0  0  0  0  0
    4.6230    3.1130   26.6250 C   0  0  0  0  0  0  0  0  0  0  0  0
    5.0500    4.0460   27.5470 O   0  0  0  0  0  0  0  0  0  0  0  0
    3.1410    3.1680   26.2600 C   0  0  0  0  0  0  0  0  0  0  0  0
    3.0960    2.6400   24.8620 C   0  0  0  0  0  0  0  0  0  0  0  0
    1.5980    2.6920   24.4720 C   0  0  0  0  0  0  0  0  0  0  0  0
    0.3760    3.1550   25.2570 C   0  0  0  0  0  0  0  0  0  0  0  0
    0.6310    3.6570   26.6620 C   0  0  0  0  0  0  0  0  0  0  0  0
    2.0580    3.6630   27.1770 C   0  0  0  0  0  0  0  0  0  0  0  0
    6.2930    1.2400   28.1620 C   0  0  0  0  0  0  0  0  0  0  0  0
    6.7230    0.1130   28.8370 C   0  0  0  0  0  0  0  0  0  0  0  0
    6.7100   -1.1480   28.2990 C   0  0  0  0  0  0  0  0  0  0  0  0
    7.1910   -2.2550   29.1140 C   0  0  0  0  0  0  0  0  0  0  0  0
    5.5340   -4.8230   23.4810 C   0  0  0  0  0  0  0  0  0  0  0  0
    6.3730   -5.3900   22.3540 C   0  0  0  0  0  0  0  0  0  0  0  0
  1  2  1  0
  2  3  2  0
  2  4  1  0
  4  5  1  0
  5  6  1  0
  6  7  1  0
  7  8  1  0
  8  9  2  0
  8 10  1  0
 10 11  1  0
 11 12  2  0
 12 13  1  0
 13 14  1  0
 14 15  1  0
 15 16  2  0
 15 17  1  0
 17 18  2  0
 18 19  1  0
 19 20  2  0
 20 21  1  0
 17 22  1  0
 21 22  2  0
 13 23  2  0
 23 24  1  0
 11 25  1  0
 24 25  2  0
 25 26  1  0
  7 27  1  0
  4 28  1  0
 27 28  1  0
M  END
