piperidine-amides-33270-covalent
     RDKit          3D

 29 31  0  0  0  0  0  0  0  0999 V2000
    7.1020   -3.3620   19.2700 C   0  0  0  0  0  0  0  0  0  0  0  0
    6.4580   -4.1930   20.2950 C   0  0  0  0  0  0  0  0  0  0  0  0
    5.3890   -4.7680   19.9690 O   0  0  0  0  0  0  0  0  0  0  0  0
    7.0550   -4.3860   21.5650 N   0  0  0  0  0  0  0  0  0  0  0  0
    6.4570   -5.3570   22.3890 C   0  0  0  0  0  0  0  0  0  0  0  0
    5.7080   -4.7780   23.5050 C   0  0  0  0  0  0  0  0  0  0  0  0
    6.2540   -3.5380   24.1470 C   0  0  0  0  0  0  0  0  0  0  0  0
    5.2370   -2.9570   25.0990 C   0  0  0  0  0  0  0  0  0  0  0  0
    4.5320   -1.9810   24.8170 O   0  0  0  0  0  0  0  0  0  0  0  0
    5.1290   -3.5880   26.3190 N   0  0  0  0  0  0  0  0  0  0  0  0
    6.1410   -4.3450   26.6230 C   0  0  0  0  0  0  0  0  0  0  0  0
    5.9920   -4.7630   27.9120 C   0  0  2  0  0  0  0  0  0  0  0  0
    6.0320   -6.2700   28.0510 C   0  0  0  0  0  0  0  0  0  0  0  0
    6.3110   -6.5240   29.3630 C   0  0  0  0  0  0  0  0  0  0  0  0
    5.0240   -5.7630   29.7760 C   0  0  0  0  0  0  0  0  0  0  0  0
    5.5580   -4.3560   29.5980 C   0  0  0  0  0  0  0  0  0  0  0  0
    4.7240   -4.2490   28.3500 C   0  0  2  0  0  0  0  0  0  0  0  0
    3.5030   -5.1410   28.1400 C   0  0  0  0  0  0  0  0  0  0  0  0
    2.3290   -4.8250   28.8840 N   0  0  0  0  0  0  0  0  0  0  0  0
    1.1690   -5.3280   28.4450 C   0  0  0  0  0  0  0  0  0  0  0  0
    0.8440   -5.0580   27.2630 O   0  0  0  0  0  0  0  0  0  0  0  0
    0.3080   -6.1060   29.1680 O   0  0  0  0  0  0  0  0  0  0  0  0
   -1.0990   -6.0590   29.0290 C   0  0  0  0  0  0  0  0  0  0  0  0
   -1.4030   -4.6040   28.9160 C   0  0  0  0  0  0  0  0  0  0  0  0
   -1.8920   -6.7100   29.9590 C   0  0  0  0  0  0  0  0  0  0  0  0
   -1.7090   -6.2860   27.6580 C   0  0  0  0  0  0  0  0  0  0  0  0
    4.6900   -3.0340   27.5960 C   0  0  0  0  0  0  0  0  0  0  0  0
    6.8110   -2.5560   23.1690 C   0  0  0  0  0  0  0  0  0  0  0  0
    7.7000   -3.2660   22.1710 C   0  0  0  0  0  0  0  0  0  0  0  0
  1  2  1  0
  2  3  2  0
  2  4  1  0
  4  5  1  0
  5  6  1  0
  6  7  1  0
  7  8  1  0
  8  9  2  0
  8 10  1  0
 10 11  1  0
 12 11  1  6
 12 13  1  0
 13 14  1  0
 14 15  1  0
 15 16  1  0
 12 17  1  0
 16 17  1  0
 17 18  1  1
 18 19  1  0
 19 20  1  0
 20 21  2  0
 20 22  1  0
 23 22  1  0
 23 24  1  0
 23 25  1  0
 23 26  1  0
 10 27  1  0
 17 27  1  0
  7 28  1  0
  4 29  1  0
 28 29  1  0
M  END
