piperidine-amides-13529-covalent
     RDKit          3D

 21 22  0  0  0  0  0  0  0  0999 V2000
    7.1430   -3.2890   19.2530 C   0  0  0  0  0  0  0  0  0  0  0  0
    6.3450   -4.0600   20.2420 C   0  0  0  0  0  0  0  0  0  0  0  0
    5.2690   -4.5620   19.8880 O   0  0  0  0  0  0  0  0  0  0  0  0
    6.8610   -4.2530   21.5390 N   0  0  0  0  0  0  0  0  0  0  0  0
    6.5350   -5.4290   22.3020 C   0  0  0  0  0  0  0  0  0  0  0  0
    5.7220   -4.9400   23.5050 C   0  0  0  0  0  0  0  0  0  0  0  0
    6.5000   -3.8410   24.1550 C   0  0  0  0  0  0  0  0  0  0  0  0
    5.7860   -3.2790   25.3230 C   0  0  0  0  0  0  0  0  0  0  0  0
    4.6250   -2.9070   25.1250 O   0  0  0  0  0  0  0  0  0  0  0  0
    6.4130   -3.1890   26.5730 N   0  0  0  0  0  0  0  0  0  0  0  0
    6.1820   -4.0150   27.7090 C   0  0  0  0  0  0  0  0  0  0  0  0
    5.8330   -5.3480   27.6510 C   0  0  0  0  0  0  0  0  0  0  0  0
    5.8360   -6.1390   28.8060 C   0  0  0  0  0  0  0  0  0  0  0  0
    4.8280   -5.9700   29.7260 C   0  0  0  0  0  0  0  0  0  0  0  0
    3.4910   -5.6270   29.1630 C   0  0  0  0  0  0  0  0  0  0  0  0
    2.2800   -5.7100   30.1020 C   0  0  0  0  0  0  0  0  0  0  0  0
    2.3200   -7.1090   30.7090 C   0  0  0  0  0  0  0  0  0  0  0  0
    3.5320   -7.7550   30.7800 C   0  0  0  0  0  0  0  0  0  0  0  0
    4.7670   -6.9340   30.7090 C   0  0  0  0  0  0  0  0  0  0  0  0
    6.9010   -2.7120   23.2560 C   0  0  0  0  0  0  0  0  0  0  0  0
    7.6100   -3.2310   22.2090 C   0  0  0  0  0  0  0  0  0  0  0  0
  1  2  1  0
  2  3  2  0
  2  4  1  0
  4  5  1  0
  5  6  1  0
  6  7  1  0
  7  8  1  0
  8  9  2  0
  8 10  1  0
 10 11  1  0
 11 12  1  0
 12 13  1  0
 13 14  1  0
 14 15  1  0
 15 16  1  0
 16 17  1  0
 17 18  1  0
 14 19  1  0
 18 19  1  0
  7 20  1  0
  4 21  1  0
 20 21  1  0
M  END
