piperidine-amides-5044-covalent
     RDKit          3D

 22 23  0  0  0  0  0  0  0  0999 V2000
    7.0940   -3.3410   19.3340 C   0  0  0  0  0  0  0  0  0  0  0  0
    6.3580   -4.1410   20.3400 C   0  0  0  0  0  0  0  0  0  0  0  0
    5.3230   -4.7140   19.9420 O   0  0  0  0  0  0  0  0  0  0  0  0
    6.8410   -4.2800   21.6550 N   0  0  0  0  0  0  0  0  0  0  0  0
    7.6590   -3.2580   22.2240 C   0  0  0  0  0  0  0  0  0  0  0  0
    7.3000   -2.9910   23.6030 C   0  0  0  0  0  0  0  0  0  0  0  0
    6.0080   -3.6040   23.9610 C   0  0  0  0  0  0  0  0  0  0  0  0
    5.6040   -3.2380   25.3390 C   0  0  0  0  0  0  0  0  0  0  0  0
    4.3980   -3.2980   25.6290 O   0  0  0  0  0  0  0  0  0  0  0  0
    6.5460   -2.8330   26.2900 N   0  0  0  0  0  0  0  0  0  0  0  0
    6.4740   -1.5500   27.0260 C   0  0  0  0  0  0  0  0  0  0  0  0
    6.9660   -1.6070   28.4240 C   0  0  0  0  0  0  0  0  0  0  0  0
    6.9600   -0.4310   29.2720 C   0  0  0  0  0  0  0  0  0  0  0  0
    6.4750    0.7360   28.7200 C   0  0  0  0  0  0  0  0  0  0  0  0
    6.0180    0.7760   27.4090 C   0  0  0  0  0  0  0  0  0  0  0  0
    5.5340    1.8950   26.8030 C   0  0  0  0  0  0  0  0  0  0  0  0
    5.9260    3.0990   27.3350 C   0  0  0  0  0  0  0  0  0  0  0  0
    5.7300    2.0640   25.4480 F   0  0  0  0  0  0  0  0  0  0  0  0
    4.1260    1.8600   26.9720 F   0  0  0  0  0  0  0  0  0  0  0  0
    5.9990   -0.3080   26.5510 C   0  0  0  0  0  0  0  0  0  0  0  0
    6.0180   -5.1000   23.7390 C   0  0  0  0  0  0  0  0  0  0  0  0
    6.6640   -5.4840   22.4460 C   0  0  0  0  0  0  0  0  0  0  0  0
  1  2  1  0
  2  3  2  0
  2  4  1  0
  4  5  1  0
  5  6  1  0
  6  7  1  0
  7  8  1  0
  8  9  2  0
  8 10  1  0
 10 11  1  0
 11 12  2  0
 12 13  1  0
 13 14  2  0
 14 15  1  0
 15 16  1  0
 16 17  1  0
 16 18  1  0
 16 19  1  0
 11 20  1  0
 15 20  2  0
  7 21  1  0
  4 22  1  0
 21 22  1  0
M  END
