piperidine-amides-27823-covalent
     RDKit          3D

 25 26  0  0  0  0  0  0  0  0999 V2000
    7.1280   -3.2600   19.2160 C   0  0  0  0  0  0  0  0  0  0  0  0
    6.3670   -4.0200   20.2360 C   0  0  0  0  0  0  0  0  0  0  0  0
    5.2850   -4.5200   19.8700 O   0  0  0  0  0  0  0  0  0  0  0  0
    6.8740   -4.2060   21.5250 N   0  0  0  0  0  0  0  0  0  0  0  0
    6.4150   -5.2840   22.3300 C   0  0  0  0  0  0  0  0  0  0  0  0
    5.7870   -4.8600   23.5890 C   0  0  0  0  0  0  0  0  0  0  0  0
    6.4670   -3.7460   24.2970 C   0  0  0  0  0  0  0  0  0  0  0  0
    5.5510   -3.1020   25.2780 C   0  0  0  0  0  0  0  0  0  0  0  0
    4.3230   -3.2370   25.1200 O   0  0  0  0  0  0  0  0  0  0  0  0
    6.0430   -2.3460   26.3630 N   0  0  0  0  0  0  0  0  0  0  0  0
    6.6230   -1.0090   26.1770 C   0  0  0  0  0  0  0  0  0  0  0  0
    6.4360   -3.0410   27.5080 C   0  0  0  0  0  0  0  0  0  0  0  0
    7.3500   -4.1090   27.2930 C   0  0  0  0  0  0  0  0  0  0  0  0
    8.2440   -4.0840   26.2690 C   0  0  0  0  0  0  0  0  0  0  0  0
    9.1480   -5.0590   25.9940 C   0  0  0  0  0  0  0  0  0  0  0  0
    9.1460   -6.1270   26.8110 C   0  0  0  0  0  0  0  0  0  0  0  0
    8.2480   -6.1680   27.8490 C   0  0  0  0  0  0  0  0  0  0  0  0
    7.3570   -5.1910   28.1000 C   0  0  0  0  0  0  0  0  0  0  0  0
    6.4880   -5.3010   29.1430 O   0  0  0  0  0  0  0  0  0  0  0  0
    5.3530   -6.1480   29.0700 C   0  0  0  0  0  0  0  0  0  0  0  0
    5.5410   -7.1270   29.9940 F   0  0  0  0  0  0  0  0  0  0  0  0
    4.2430   -5.4510   29.3440 F   0  0  0  0  0  0  0  0  0  0  0  0
    5.1770   -6.8140   27.8680 F   0  0  0  0  0  0  0  0  0  0  0  0
    7.0830   -2.7030   23.4400 C   0  0  0  0  0  0  0  0  0  0  0  0
    7.7250   -3.2190   22.1840 C   0  0  0  0  0  0  0  0  0  0  0  0
  1  2  1  0
  2  3  2  0
  2  4  1  0
  4  5  1  0
  5  6  1  0
  6  7  1  0
  7  8  1  0
  8  9  2  0
  8 10  1  0
 10 11  1  0
 10 12  1  0
 12 13  1  0
 13 14  2  0
 14 15  1  0
 15 16  2  0
 16 17  1  0
 13 18  1  0
 17 18  2  0
 18 19  1  0
 19 20  1  0
 20 21  1  0
 20 22  1  0
 20 23  1  0
  7 24  1  0
  4 25  1  0
 24 25  1  0
M  END
