piperidine-amides-14039-covalent
     RDKit          3D

 25 26  0  0  0  0  0  0  0  0999 V2000
    7.1210   -3.2780   19.2380 C   0  0  0  0  0  0  0  0  0  0  0  0
    6.3070   -4.0160   20.2410 C   0  0  0  0  0  0  0  0  0  0  0  0
    5.2460   -4.5560   19.8860 O   0  0  0  0  0  0  0  0  0  0  0  0
    6.7920   -4.1240   21.5580 N   0  0  0  0  0  0  0  0  0  0  0  0
    7.6530   -3.0890   22.1000 C   0  0  0  0  0  0  0  0  0  0  0  0
    7.6430   -3.1740   23.6250 C   0  0  0  0  0  0  0  0  0  0  0  0
    6.2940   -3.6560   24.0160 C   0  0  0  0  0  0  0  0  0  0  0  0
    5.9760   -3.3800   25.4260 C   0  0  0  0  0  0  0  0  0  0  0  0
    5.1320   -4.1080   25.9530 O   0  0  0  0  0  0  0  0  0  0  0  0
    6.6000   -2.3200   26.0910 N   0  0  0  0  0  0  0  0  0  0  0  0
    5.9480   -1.1740   26.5960 C   0  0  0  0  0  0  0  0  0  0  0  0
    4.5660   -1.0830   26.6840 C   0  0  0  0  0  0  0  0  0  0  0  0
    3.6920   -1.9400   25.9890 C   0  0  0  0  0  0  0  0  0  0  0  0
    2.3210   -1.8300   26.1060 C   0  0  0  0  0  0  0  0  0  0  0  0
    1.7330   -0.7860   26.9790 C   0  0  0  0  0  0  0  0  0  0  0  0
    0.2250   -0.5880   27.1710 C   0  0  0  0  0  0  0  0  0  0  0  0
    2.6110    0.0160   27.6210 C   0  0  0  0  0  0  0  0  0  0  0  0
    3.9710   -0.1290   27.4760 C   0  0  0  0  0  0  0  0  0  0  0  0
    4.6540    0.8020   28.2250 O   0  0  0  0  0  0  0  0  0  0  0  0
    4.3240    2.1630   28.1020 C   0  0  1  0  0  0  0  0  0  0  0  0
    3.4980    2.6410   29.2830 C   0  0  0  0  0  0  0  0  0  0  0  0
    5.4690    3.1080   27.8490 C   0  0  0  0  0  0  0  0  0  0  0  0
    6.6100    2.5640   26.9610 C   0  0  0  0  0  0  0  0  0  0  0  0
    6.0590   -5.0900   23.6730 C   0  0  0  0  0  0  0  0  0  0  0  0
    6.6410   -5.3710   22.2900 C   0  0  0  0  0  0  0  0  0  0  0  0
  1  2  1  0
  2  3  2  0
  2  4  1  0
  4  5  1  0
  5  6  1  0
  6  7  1  0
  7  8  1  0
  8  9  2  0
  8 10  1  0
 10 11  1  0
 11 12  1  0
 12 13  2  0
 13 14  1  0
 14 15  2  0
 15 16  1  0
 15 17  1  0
 12 18  1  0
 17 18  2  0
 18 19  1  0
 19 20  1  0
 20 21  1  1
 20 22  1  0
 22 23  1  0
  7 24  1  0
  4 25  1  0
 24 25  1  0
M  END
