piperidine-amides-35610-covalent
     RDKit          3D

 37 40  0  0  0  0  0  0  0  0999 V2000
    7.0950   -3.2720   19.2700 C   0  0  0  0  0  0  0  0  0  0  0  0
    6.3510   -4.1230   20.2380 C   0  0  0  0  0  0  0  0  0  0  0  0
    5.2620   -4.5580   19.8860 O   0  0  0  0  0  0  0  0  0  0  0  0
    6.9200   -4.4430   21.4720 N   0  0  0  0  0  0  0  0  0  0  0  0
    6.4900   -5.5990   22.2130 C   0  0  0  0  0  0  0  0  0  0  0  0
    6.1620   -5.1970   23.6330 C   0  0  0  0  0  0  0  0  0  0  0  0
    5.6760   -3.7410   23.6920 C   0  0  0  0  0  0  0  0  0  0  0  0
    5.3950   -3.4160   25.0960 C   0  0  0  0  0  0  0  0  0  0  0  0
    4.2300   -3.4840   25.5030 O   0  0  0  0  0  0  0  0  0  0  0  0
    6.4060   -3.0270   25.9870 N   0  0  0  0  0  0  0  0  0  0  0  0
    7.0650   -1.7350   25.7290 C   0  0  0  0  0  0  0  0  0  0  0  0
    8.0270   -1.8820   24.5170 C   0  0  0  0  0  0  0  0  0  0  0  0
    8.7060   -3.0700   24.3650 O   0  0  0  0  0  0  0  0  0  0  0  0
    8.1190   -0.7200   23.5930 N   0  0  0  0  0  0  0  0  0  0  0  0
    9.5410   -0.5870   23.1830 C   0  0  0  0  0  0  0  0  0  0  0  0
   10.0020    0.6970   23.1940 C   0  0  0  0  0  0  0  0  0  0  0  0
   11.2930    1.0230   22.8650 C   0  0  0  0  0  0  0  0  0  0  0  0
   12.4020    0.0980   22.4520 C   0  0  0  0  0  0  0  0  0  0  0  0
   11.8720   -1.2790   22.4200 C   0  0  0  0  0  0  0  0  0  0  0  0
   13.0380   -2.1270   21.9620 C   0  0  0  0  0  0  0  0  0  0  0  0
   13.4840   -1.8920   20.6780 O   0  0  0  0  0  0  0  0  0  0  0  0
   13.4240   -2.9370   22.9230 N   0  0  0  0  0  0  0  0  0  0  0  0
   12.7070   -2.8100   24.1300 C   0  0  0  0  0  0  0  0  0  0  0  0
   12.4780   -1.7880   24.9020 C   0  0  0  0  0  0  0  0  0  0  0  0
   13.6240   -2.7020   25.4110 C   0  0  0  0  0  0  0  0  0  0  0  0
   10.5790   -1.6640   22.7460 C   0  0  0  0  0  0  0  0  0  0  0  0
    6.2860   -3.3320   27.4160 C   0  0  2  0  0  0  0  0  0  0  0  0
    6.2410   -4.6660   27.8160 C   0  0  0  0  0  0  0  0  0  0  0  0
    5.0450   -2.6150   27.9320 C   0  0  0  0  0  0  0  0  0  0  0  0
    4.3020   -3.3260   29.0770 C   0  0  0  0  0  0  0  0  0  0  0  0
    3.0460   -2.7240   29.6910 C   0  0  0  0  0  0  0  0  0  0  0  0
    2.5040   -1.5480   29.2860 C   0  0  0  0  0  0  0  0  0  0  0  0
    1.0580   -0.9280   30.0480 Cl  0  0  0  0  0  0  0  0  0  0  0  0
    3.2680   -0.8640   28.1450 C   0  0  0  0  0  0  0  0  0  0  0  0
    4.5040   -1.4000   27.4990 C   0  0  0  0  0  0  0  0  0  0  0  0
    6.6060   -2.7570   23.1100 C   0  0  0  0  0  0  0  0  0  0  0  0
    7.5840   -3.3880   22.1780 C   0  0  0  0  0  0  0  0  0  0  0  0
  1  2  1  0
  2  3  2  0
  2  4  1  0
  4  5  1  0
  5  6  1  0
  6  7  1  0
  7  8  1  0
  8  9  2  0
  8 10  1  0
 10 11  1  0
 11 12  1  0
 12 13  2  0
 12 14  1  0
 14 15  1  0
 15 16  2  0
 16 17  1  0
 17 18  2  0
 18 19  1  0
 19 20  1  0
 20 21  2  0
 20 22  1  0
 22 23  1  0
 23 24  1  0
 23 25  1  0
 24 25  1  0
 15 26  1  0
 19 26  2  0
 10 27  1  0
 27 28  1  6
 27 29  1  0
 29 30  2  0
 30 31  1  0
 31 32  2  0
 32 33  1  0
 32 34  1  0
 29 35  1  0
 34 35  2  0
  7 36  1  0
  4 37  1  0
 36 37  1  0
M  END
