piperidine-amides-32362-covalent
     RDKit          3D

 28 30  0  0  0  0  0  0  0  0999 V2000
    7.0660   -3.3490   19.3300 C   0  0  0  0  0  0  0  0  0  0  0  0
    6.3900   -4.2360   20.3130 C   0  0  0  0  0  0  0  0  0  0  0  0
    5.3510   -4.8170   19.9720 O   0  0  0  0  0  0  0  0  0  0  0  0
    6.9700   -4.4520   21.5840 N   0  0  0  0  0  0  0  0  0  0  0  0
    6.5830   -5.5770   22.3770 C   0  0  0  0  0  0  0  0  0  0  0  0
    5.5840   -5.0160   23.3910 C   0  0  0  0  0  0  0  0  0  0  0  0
    6.3020   -4.0310   24.2630 C   0  0  0  0  0  0  0  0  0  0  0  0
    5.4000   -3.4080   25.2700 C   0  0  0  0  0  0  0  0  0  0  0  0
    4.6420   -2.5390   24.8390 O   0  0  0  0  0  0  0  0  0  0  0  0
    5.4030   -3.7840   26.6190 N   0  0  0  0  0  0  0  0  0  0  0  0
    4.3040   -4.0990   27.4360 C   0  0  0  0  0  0  0  0  0  0  0  0
    4.4410   -4.6180   28.7090 C   0  0  0  0  0  0  0  0  0  0  0  0
    5.6800   -4.6160   29.3440 C   0  0  0  0  0  0  0  0  0  0  0  0
    5.9970   -5.7240   30.1250 O   0  0  0  0  0  0  0  0  0  0  0  0
    5.0440   -6.6240   30.5980 C   0  0  0  0  0  0  0  0  0  0  0  0
    5.2180   -7.1680   31.9790 C   0  0  0  0  0  0  0  0  0  0  0  0
    3.9730   -7.5660   32.5230 N   0  0  0  0  0  0  0  0  0  0  0  0
    3.9380   -8.4700   33.6410 C   0  0  0  0  0  0  0  0  0  0  0  0
    2.5940   -8.6190   34.3810 C   0  0  2  0  0  0  0  0  0  0  0  0
    2.1860   -9.9230   34.5640 C   0  0  0  0  0  0  0  0  0  0  0  0
    1.4750   -7.9930   33.8450 O   0  0  0  0  0  0  0  0  0  0  0  0
    1.7770   -7.1020   32.8130 C   0  0  1  0  0  0  0  0  0  0  0  0
    2.1120   -5.7710   33.4650 C   0  0  0  0  0  0  0  0  0  0  0  0
    2.8220   -7.5710   31.8440 C   0  0  0  0  0  0  0  0  0  0  0  0
    6.7140   -4.3680   28.4430 C   0  0  0  0  0  0  0  0  0  0  0  0
    6.4290   -3.2470   27.4620 C   0  0  0  0  0  0  0  0  0  0  0  0
    6.9490   -2.8920   23.4870 C   0  0  0  0  0  0  0  0  0  0  0  0
    7.6590   -3.3570   22.2650 C   0  0  0  0  0  0  0  0  0  0  0  0
  1  2  1  0
  2  3  2  0
  2  4  1  0
  4  5  1  0
  5  6  1  0
  6  7  1  0
  7  8  1  0
  8  9  2  0
  8 10  1  0
 10 11  1  0
 11 12  1  0
 12 13  1  0
 13 14  1  0
 14 15  1  0
 15 16  1  0
 16 17  1  0
 17 18  1  0
 18 19  1  0
 19 20  1  6
 19 21  1  0
 21 22  1  0
 22 23  1  1
 17 24  1  0
 22 24  1  0
 13 25  1  0
 10 26  1  0
 25 26  1  0
  7 27  1  0
  4 28  1  0
 27 28  1  0
M  END
