piperidine-amides-6476-covalent
     RDKit          3D

 25 27  0  0  0  0  0  0  0  0999 V2000
    7.1320   -3.2900   19.2680 C   0  0  0  0  0  0  0  0  0  0  0  0
    6.3510   -4.0380   20.2640 C   0  0  0  0  0  0  0  0  0  0  0  0
    5.3090   -4.6370   19.9200 O   0  0  0  0  0  0  0  0  0  0  0  0
    6.7950   -4.1250   21.5890 N   0  0  0  0  0  0  0  0  0  0  0  0
    7.6760   -3.0860   22.0870 C   0  0  0  0  0  0  0  0  0  0  0  0
    7.5350   -3.0740   23.6110 C   0  0  0  0  0  0  0  0  0  0  0  0
    6.1530   -3.6160   23.8770 C   0  0  0  0  0  0  0  0  0  0  0  0
    5.7470   -3.3660   25.2700 C   0  0  0  0  0  0  0  0  0  0  0  0
    4.6200   -3.7610   25.6350 O   0  0  0  0  0  0  0  0  0  0  0  0
    6.6140   -2.6780   26.1480 N   0  0  0  0  0  0  0  0  0  0  0  0
    6.2830   -1.3230   26.4850 C   0  0  0  0  0  0  0  0  0  0  0  0
    6.7790   -1.0200   27.8790 C   0  0  0  0  0  0  0  0  0  0  0  0
    7.8370   -1.5290   28.5470 C   0  0  0  0  0  0  0  0  0  0  0  0
    8.1340   -1.1100   29.8270 C   0  0  0  0  0  0  0  0  0  0  0  0
    7.4060   -0.1580   30.5630 C   0  0  0  0  0  0  0  0  0  0  0  0
    6.3420    0.3770   29.9420 N   0  0  0  0  0  0  0  0  0  0  0  0
    6.0020   -0.0140   28.6280 C   0  0  0  0  0  0  0  0  0  0  0  0
    4.9230    0.6310   28.1660 N   0  0  0  0  0  0  0  0  0  0  0  0
    3.7770    0.3770   28.7660 C   0  0  0  0  0  0  0  0  0  0  0  0
    2.6830    1.1660   28.1520 C   0  0  0  0  0  0  0  0  0  0  0  0
    3.3010    1.8880   27.1550 N   0  0  0  0  0  0  0  0  0  0  0  0
    4.6460    1.6060   27.1160 C   0  0  0  0  0  0  0  0  0  0  0  0
    5.6070    2.1970   26.1800 C   0  0  0  0  0  0  0  0  0  0  0  0
    6.1420   -5.0920   23.6130 C   0  0  0  0  0  0  0  0  0  0  0  0
    6.5180   -5.3220   22.3170 C   0  0  0  0  0  0  0  0  0  0  0  0
  1  2  1  0
  2  3  2  0
  2  4  1  0
  4  5  1  0
  5  6  1  0
  6  7  1  0
  7  8  1  0
  8  9  2  0
  8 10  1  0
 10 11  1  0
 11 12  1  0
 12 13  2  0
 13 14  1  0
 14 15  2  0
 15 16  1  0
 12 17  1  0
 16 17  2  0
 17 18  1  0
 18 19  1  0
 19 20  2  0
 20 21  1  0
 18 22  1  0
 21 22  2  0
 22 23  1  0
  7 24  1  0
  4 25  1  0
 24 25  1  0
M  END
