piperidine-amides-9891-covalent
     RDKit          3D

 28 30  0  0  0  0  0  0  0  0999 V2000
    7.0020   -3.3410   19.3210 C   0  0  0  0  0  0  0  0  0  0  0  0
    6.3340   -4.1820   20.3180 C   0  0  0  0  0  0  0  0  0  0  0  0
    5.3060   -4.8010   19.9500 O   0  0  0  0  0  0  0  0  0  0  0  0
    6.8580   -4.3070   21.5990 N   0  0  0  0  0  0  0  0  0  0  0  0
    7.6400   -3.2540   22.1890 C   0  0  0  0  0  0  0  0  0  0  0  0
    7.2910   -3.2360   23.6330 C   0  0  0  0  0  0  0  0  0  0  0  0
    5.8930   -3.6750   23.8830 C   0  0  0  0  0  0  0  0  0  0  0  0
    5.5320   -3.3920   25.2890 C   0  0  0  0  0  0  0  0  0  0  0  0
    4.3270   -3.4650   25.6040 O   0  0  0  0  0  0  0  0  0  0  0  0
    6.4710   -3.0350   26.2800 N   0  0  0  0  0  0  0  0  0  0  0  0
    6.3890   -1.7590   26.9550 C   0  0  0  0  0  0  0  0  0  0  0  0
    5.7670   -0.4950   26.4370 C   0  0  0  0  0  0  0  0  0  0  0  0
    5.1410   -0.1860   25.2590 C   0  0  0  0  0  0  0  0  0  0  0  0
    4.2900    0.8910   25.3440 C   0  0  0  0  0  0  0  0  0  0  0  0
    6.0810   -0.0060   24.2770 C   0  0  0  0  0  0  0  0  0  0  0  0
    5.9650    0.4770   27.5530 N   0  0  0  0  0  0  0  0  0  0  0  0
    6.1610    1.7990   27.4410 C   0  0  0  0  0  0  0  0  0  0  0  0
    6.8260   -0.0350   28.4770 N   0  0  0  0  0  0  0  0  0  0  0  0
    6.2570    0.1830   29.7770 C   0  0  0  0  0  0  0  0  0  0  0  0
    7.0860   -0.0150   31.0600 C   0  0  0  0  0  0  0  0  0  0  0  0
    6.3120    0.2680   32.3470 C   0  0  0  0  0  0  0  0  0  0  0  0
    4.8890    0.6900   32.3320 C   0  0  0  0  0  0  0  0  0  0  0  0
    4.2150    0.8390   31.0090 C   0  0  0  0  0  0  0  0  0  0  0  0
    4.9050    0.5870   29.8430 C   0  0  0  0  0  0  0  0  0  0  0  0
    6.8610   -1.3630   28.2830 C   0  0  0  0  0  0  0  0  0  0  0  0
    7.2500   -2.1360   29.1930 O   0  0  0  0  0  0  0  0  0  0  0  0
    5.7490   -5.1400   23.5850 C   0  0  0  0  0  0  0  0  0  0  0  0
    6.5970   -5.5210   22.3570 C   0  0  0  0  0  0  0  0  0  0  0  0
  1  2  1  0
  2  3  2  0
  2  4  1  0
  4  5  1  0
  5  6  1  0
  6  7  1  0
  7  8  1  0
  8  9  2  0
  8 10  1  0
 10 11  1  0
 11 12  2  0
 12 13  1  0
 13 14  1  0
 13 15  1  0
 12 16  1  0
 16 17  1  0
 16 18  1  0
 18 19  1  0
 19 20  2  0
 20 21  1  0
 21 22  2  0
 22 23  1  0
 19 24  1  0
 23 24  2  0
 11 25  1  0
 18 25  1  0
 25 26  2  0
  7 27  1  0
  4 28  1  0
 27 28  1  0
M  END
