piperidine-amides-33637-covalent
     RDKit          3D

 30 32  0  0  0  0  0  0  0  0999 V2000
    7.1570   -3.3150   19.2540 C   0  0  0  0  0  0  0  0  0  0  0  0
    6.4020   -4.0500   20.2730 C   0  0  0  0  0  0  0  0  0  0  0  0
    5.3140   -4.5580   19.9050 O   0  0  0  0  0  0  0  0  0  0  0  0
    6.9300   -4.2230   21.5790 N   0  0  0  0  0  0  0  0  0  0  0  0
    6.5570   -5.3810   22.3190 C   0  0  0  0  0  0  0  0  0  0  0  0
    6.0970   -5.0800   23.6730 C   0  0  0  0  0  0  0  0  0  0  0  0
    6.0230   -3.6360   23.9560 C   0  0  0  0  0  0  0  0  0  0  0  0
    5.4590   -3.3540   25.3140 C   0  0  0  0  0  0  0  0  0  0  0  0
    4.2270   -3.2190   25.4030 O   0  0  0  0  0  0  0  0  0  0  0  0
    6.2100   -3.2350   26.4980 N   0  0  0  0  0  0  0  0  0  0  0  0
    6.5570   -1.9690   27.0520 C   0  0  0  0  0  0  0  0  0  0  0  0
    5.5170   -0.9980   27.3930 C   0  0  2  0  0  0  0  0  0  0  0  0
    5.1700   -0.1680   26.4970 O   0  0  0  0  0  0  0  0  0  0  0  0
    6.0670   -0.1600   28.5610 C   0  0  0  0  0  0  0  0  0  0  0  0
    5.8120   -0.4140   29.7600 O   0  0  0  0  0  0  0  0  0  0  0  0
    4.8910    0.1470   30.5420 C   0  0  0  0  0  0  0  0  0  0  0  0
    5.2690    1.6660   30.6550 C   0  0  0  0  0  0  0  0  0  0  0  0
    4.3240    2.5100   31.5240 C   0  0  0  0  0  0  0  0  0  0  0  0
    3.1880    1.6720   32.1090 C   0  0  0  0  0  0  0  0  0  0  0  0
    2.9750    0.2340   31.9010 C   0  0  0  0  0  0  0  0  0  0  0  0
    1.7900   -0.4210   32.5670 C   0  0  0  0  0  0  0  0  0  0  0  0
    1.5670   -1.9090   32.3550 C   0  0  0  0  0  0  0  0  0  0  0  0
    2.5820   -2.5520   31.4860 C   0  0  0  0  0  0  0  0  0  0  0  0
    3.6540   -1.8580   30.9080 C   0  0  0  0  0  0  0  0  0  0  0  0
    3.8270   -0.4910   31.1270 C   0  0  0  0  0  0  0  0  0  0  0  0
    5.9140   -4.2590   27.4840 C   0  0  0  0  0  0  0  0  0  0  0  0
    6.0500   -5.5940   27.1360 C   0  0  0  0  0  0  0  0  0  0  0  0
    6.8170   -4.1620   28.7010 C   0  0  0  0  0  0  0  0  0  0  0  0
    7.2910   -2.9540   23.6460 C   0  0  0  0  0  0  0  0  0  0  0  0
    7.7260   -3.2280   22.2580 C   0  0  0  0  0  0  0  0  0  0  0  0
  1  2  1  0
  2  3  2  0
  2  4  1  0
  4  5  1  0
  5  6  1  0
  6  7  1  0
  7  8  1  0
  8  9  2  0
  8 10  1  0
 10 11  1  0
 11 12  1  0
 12 13  1  6
 12 14  1  0
 14 15  1  0
 15 16  1  0
 16 17  2  0
 17 18  1  0
 18 19  2  0
 19 20  1  0
 20 21  1  0
 21 22  2  0
 22 23  1  0
 23 24  2  0
 16 25  1  0
 20 25  2  0
 24 25  1  0
 10 26  1  0
 26 27  1  0
 26 28  1  0
  7 29  1  0
  4 30  1  0
 29 30  1  0
M  END
