piperidine-amides-32220-covalent
     RDKit          3D

 28 30  0  0  0  0  0  0  0  0999 V2000
    7.0980   -3.3650   19.3650 C   0  0  0  0  0  0  0  0  0  0  0  0
    6.3640   -4.2090   20.3400 C   0  0  0  0  0  0  0  0  0  0  0  0
    5.3400   -4.8060   19.9710 O   0  0  0  0  0  0  0  0  0  0  0  0
    6.8860   -4.3520   21.6460 N   0  0  0  0  0  0  0  0  0  0  0  0
    6.5770   -5.4950   22.4560 C   0  0  0  0  0  0  0  0  0  0  0  0
    5.7000   -4.9810   23.6080 C   0  0  0  0  0  0  0  0  0  0  0  0
    6.4360   -3.8910   24.3270 C   0  0  0  0  0  0  0  0  0  0  0  0
    5.6540   -3.3520   25.4860 C   0  0  0  0  0  0  0  0  0  0  0  0
    4.6760   -2.6780   25.1620 O   0  0  0  0  0  0  0  0  0  0  0  0
    5.9780   -3.5910   26.8420 N   0  0  0  0  0  0  0  0  0  0  0  0
    6.1570   -4.8570   27.4210 C   0  0  0  0  0  0  0  0  0  0  0  0
    5.4240   -5.1800   28.4500 C   0  0  1  0  0  0  0  0  0  0  0  0
    6.0150   -5.9250   29.4580 C   0  0  0  0  0  0  0  0  0  0  0  0
    7.2390   -6.4760   29.1860 O   0  0  0  0  0  0  0  0  0  0  0  0
    5.4680   -6.1520   30.6960 O   0  0  0  0  0  0  0  0  0  0  0  0
    4.7390   -7.3350   30.9960 C   0  0  0  0  0  0  0  0  0  0  0  0
    5.1190   -3.8440   28.8800 C   0  0  2  0  0  0  0  0  0  0  0  0
    3.7510   -3.6000   29.5310 C   0  0  0  0  0  0  0  0  0  0  0  0
    2.6240   -4.2850   28.8200 C   0  0  0  0  0  0  0  0  0  0  0  0
    1.3420   -4.1690   29.2780 C   0  0  0  0  0  0  0  0  0  0  0  0
    0.3460   -4.8160   28.5910 F   0  0  0  0  0  0  0  0  0  0  0  0
    0.9610   -3.3710   30.4960 C   0  0  0  0  0  0  0  0  0  0  0  0
    2.2000   -2.7010   31.1600 C   0  0  0  0  0  0  0  0  0  0  0  0
    1.9600   -1.9460   32.2820 F   0  0  0  0  0  0  0  0  0  0  0  0
    3.5050   -2.8000   30.7190 C   0  0  0  0  0  0  0  0  0  0  0  0
    5.3850   -2.7500   27.9170 C   0  0  0  0  0  0  0  0  0  0  0  0
    6.9160   -2.7730   23.4610 C   0  0  0  0  0  0  0  0  0  0  0  0
    7.6870   -3.3120   22.2590 C   0  0  0  0  0  0  0  0  0  0  0  0
  1  2  1  0
  2  3  2  0
  2  4  1  0
  4  5  1  0
  5  6  1  0
  6  7  1  0
  7  8  1  0
  8  9  2  0
  8 10  1  0
 10 11  1  0
 11 12  1  0
 12 13  1  1
 13 14  2  0
 13 15  1  0
 15 16  1  0
 12 17  1  0
 17 18  1  6
 18 19  2  0
 19 20  1  0
 20 21  1  0
 20 22  2  0
 22 23  1  0
 23 24  1  0
 18 25  1  0
 23 25  2  0
 10 26  1  0
 17 26  1  0
  7 27  1  0
  4 28  1  0
 27 28  1  0
M  END
