piperidine-amides-24278-covalent
     RDKit          3D

 24 26  0  0  0  0  0  0  0  0999 V2000
    7.0110   -3.3450   19.3980 C   0  0  0  0  0  0  0  0  0  0  0  0
    6.3370   -4.2360   20.3610 C   0  0  0  0  0  0  0  0  0  0  0  0
    5.3760   -4.9440   19.9910 O   0  0  0  0  0  0  0  0  0  0  0  0
    6.7820   -4.3310   21.6880 N   0  0  0  0  0  0  0  0  0  0  0  0
    6.6720   -5.6050   22.3760 C   0  0  0  0  0  0  0  0  0  0  0  0
    5.8840   -5.3680   23.6770 C   0  0  0  0  0  0  0  0  0  0  0  0
    5.9040   -3.8780   23.8870 C   0  0  0  0  0  0  0  0  0  0  0  0
    5.2520   -3.4690   25.1650 C   0  0  0  0  0  0  0  0  0  0  0  0
    4.5100   -2.4730   25.1180 O   0  0  0  0  0  0  0  0  0  0  0  0
    5.4570   -4.1450   26.4000 N   0  0  0  0  0  0  0  0  0  0  0  0
    6.8100   -4.2190   26.8030 C   0  0  0  0  0  0  0  0  0  0  0  0
    6.8570   -5.0160   28.0580 C   0  0  0  0  0  0  0  0  0  0  0  0
    5.7020   -4.7530   28.6320 C   0  0  0  0  0  0  0  0  0  0  0  0
    5.0080   -3.8950   27.8010 C   0  0  2  0  0  0  0  0  0  0  0  0
    3.6160   -3.9890   27.7020 C   0  0  0  0  0  0  0  0  0  0  0  0
    3.0490   -5.1810   27.7660 N   0  0  0  0  0  0  0  0  0  0  0  0
    1.6490   -5.0620   27.6520 C   0  0  0  0  0  0  0  0  0  0  0  0
    0.6890   -6.2330   27.6840 C   0  0  0  0  0  0  0  0  0  0  0  0
    0.5420   -6.6600   28.9450 N   0  0  0  0  0  0  0  0  0  0  0  0
    0.0950   -6.7630   26.7430 O   0  0  0  0  0  0  0  0  0  0  0  0
    1.4300   -3.6570   27.5100 N   0  0  0  0  0  0  0  0  0  0  0  0
    2.6080   -3.0510   27.5440 O   0  0  0  0  0  0  0  0  0  0  0  0
    7.2670   -3.3320   23.7290 C   0  0  0  0  0  0  0  0  0  0  0  0
    7.6030   -3.2800   22.2730 C   0  0  0  0  0  0  0  0  0  0  0  0
  1  2  1  0
  2  3  2  0
  2  4  1  0
  4  5  1  0
  5  6  1  0
  6  7  1  0
  7  8  1  0
  8  9  2  0
  8 10  1  0
 10 11  1  0
 11 12  1  0
 12 13  1  0
 10 14  1  0
 13 14  1  0
 14 15  1  6
 15 16  2  0
 16 17  1  0
 17 18  1  0
 18 19  1  0
 18 20  2  0
 17 21  2  0
 15 22  1  0
 21 22  1  0
  7 23  1  0
  4 24  1  0
 23 24  1  0
M  END
