piperidine-amides-32915-covalent
     RDKit          3D

 29 31  0  0  0  0  0  0  0  0999 V2000
    7.0150   -3.3710   19.4500 C   0  0  0  0  0  0  0  0  0  0  0  0
    6.3620   -4.2980   20.4200 C   0  0  0  0  0  0  0  0  0  0  0  0
    5.4010   -4.9730   20.0090 O   0  0  0  0  0  0  0  0  0  0  0  0
    6.8510   -4.4280   21.7520 N   0  0  0  0  0  0  0  0  0  0  0  0
    6.6060   -5.6400   22.5190 C   0  0  0  0  0  0  0  0  0  0  0  0
    6.1780   -5.2760   23.9670 C   0  0  0  0  0  0  0  0  0  0  0  0
    6.0380   -3.7980   24.0330 C   0  0  0  0  0  0  0  0  0  0  0  0
    5.5520   -3.1290   25.2910 C   0  0  0  0  0  0  0  0  0  0  0  0
    5.2040   -1.9690   25.1060 O   0  0  0  0  0  0  0  0  0  0  0  0
    5.4200   -3.6820   26.5910 N   0  0  0  0  0  0  0  0  0  0  0  0
    6.2620   -4.5720   27.2680 C   0  0  0  0  0  0  0  0  0  0  0  0
    5.9910   -5.0100   28.4970 C   0  0  0  0  0  0  0  0  0  0  0  0
    5.0740   -4.1310   28.9800 C   0  0  2  0  0  0  0  0  0  0  0  0
    3.7650   -4.5190   29.2270 O   0  0  0  0  0  0  0  0  0  0  0  0
    3.2930   -5.2210   30.3240 C   0  0  0  0  0  0  0  0  0  0  0  0
    3.3190   -4.5350   31.6250 C   0  0  0  0  0  0  0  0  0  0  0  0
    2.8000   -5.3050   32.8190 C   0  0  0  0  0  0  0  0  0  0  0  0
    2.3190   -6.6350   32.6220 N   0  0  0  0  0  0  0  0  0  0  0  0
    2.3250   -7.2390   31.3180 C   0  0  0  0  0  0  0  0  0  0  0  0
    1.8540   -8.5240   31.1560 C   0  0  0  0  0  0  0  0  0  0  0  0
    0.5700   -8.9030   31.0630 N   0  0  0  0  0  0  0  0  0  0  0  0
    0.4670  -10.1840   30.3900 C   0  0  0  0  0  0  0  0  0  0  0  0
   -0.4940   -7.9320   31.0520 C   0  0  0  0  0  0  0  0  0  0  0  0
   -1.5770   -8.4720   31.7020 C   0  0  0  0  0  0  0  0  0  0  0  0
   -1.6180   -8.1790   30.1210 C   0  0  0  0  0  0  0  0  0  0  0  0
    2.8080   -6.5080   30.2460 C   0  0  0  0  0  0  0  0  0  0  0  0
    5.0950   -3.0680   27.8930 C   0  0  0  0  0  0  0  0  0  0  0  0
    7.3100   -3.0840   23.6400 C   0  0  0  0  0  0  0  0  0  0  0  0
    7.5780   -3.3250   22.3060 C   0  0  0  0  0  0  0  0  0  0  0  0
  1  2  1  0
  2  3  2  0
  2  4  1  0
  4  5  1  0
  5  6  1  0
  6  7  1  0
  7  8  1  0
  8  9  2  0
  8 10  1  0
 10 11  1  0
 11 12  1  0
 12 13  1  0
 13 14  1  6
 14 15  1  0
 15 16  2  0
 16 17  1  0
 17 18  2  0
 18 19  1  0
 19 20  1  0
 20 21  1  0
 21 22  1  0
 21 23  1  0
 23 24  1  0
 23 25  1  0
 15 26  1  0
 19 26  2  0
 10 27  1  0
 13 27  1  0
  7 28  1  0
  4 29  1  0
 28 29  1  0
M  END
