piperidine-amides-23427-covalent
     RDKit          3D

 24 26  0  0  0  0  0  0  0  0999 V2000
    7.0960   -3.3370   19.2810 C   0  0  0  0  0  0  0  0  0  0  0  0
    6.4150   -4.1550   20.2970 C   0  0  0  0  0  0  0  0  0  0  0  0
    5.3440   -4.7090   19.9470 O   0  0  0  0  0  0  0  0  0  0  0  0
    6.9780   -4.3660   21.5820 N   0  0  0  0  0  0  0  0  0  0  0  0
    6.5360   -5.4870   22.3290 C   0  0  0  0  0  0  0  0  0  0  0  0
    6.1140   -5.1560   23.6840 C   0  0  0  0  0  0  0  0  0  0  0  0
    6.7290   -3.9390   24.2500 C   0  0  0  0  0  0  0  0  0  0  0  0
    5.8770   -3.3850   25.3390 C   0  0  0  0  0  0  0  0  0  0  0  0
    4.8570   -2.7620   25.0040 O   0  0  0  0  0  0  0  0  0  0  0  0
    6.2230   -3.5870   26.7010 N   0  0  0  0  0  0  0  0  0  0  0  0
    5.4780   -3.2660   27.9080 C   0  0  0  0  0  0  0  0  0  0  0  0
    5.6860   -4.2440   28.9540 C   0  0  0  0  0  0  0  0  0  0  0  0
    6.5980   -4.8690   27.9690 C   0  0  0  0  0  0  0  0  0  0  0  0
    7.0390   -4.7480   26.8420 C   0  0  0  0  0  0  0  0  0  0  0  0
    7.2690   -5.8140   28.0040 C   0  0  0  0  0  0  0  0  0  0  0  0
    6.4050   -5.5810   29.3820 C   0  0  0  0  0  0  0  0  0  0  0  0
    5.5070   -4.2670   29.3480 C   0  0  0  0  0  0  0  0  0  0  0  0
    5.7330   -3.6740   28.1170 C   0  0  0  0  0  0  0  0  0  0  0  0
    5.1160   -2.3270   27.5780 C   0  0  0  0  0  0  0  0  0  0  0  0
    6.1300   -1.4970   26.7310 C   0  0  0  0  0  0  0  0  0  0  0  0
    3.8400   -2.5110   26.7680 C   0  0  0  0  0  0  0  0  0  0  0  0
    4.6890   -1.5770   28.5170 O   0  0  0  0  0  0  0  0  0  0  0  0
    6.9850   -2.8720   23.2330 C   0  0  0  0  0  0  0  0  0  0  0  0
    7.7760   -3.3500   22.2190 C   0  0  0  0  0  0  0  0  0  0  0  0
  1  2  1  0
  2  3  2  0
  2  4  1  0
  4  5  1  0
  5  6  1  0
  6  7  1  0
  7  8  1  0
  8  9  2  0
  8 10  1  0
 10 11  1  0
 11 12  1  0
 12 13  1  0
 10 14  1  0
 13 14  2  0
 14 15  1  0
 15 16  2  0
 16 17  1  0
 13 18  1  0
 17 18  2  0
 18 19  1  0
 19 20  1  0
 19 21  1  0
 19 22  1  0
  7 23  1  0
  4 24  1  0
 23 24  1  0
M  END
