piperidine-amides-6267-covalent
     RDKit          3D

 26 28  0  0  0  0  0  0  0  0999 V2000
    7.0830   -3.3460   19.3350 C   0  0  0  0  0  0  0  0  0  0  0  0
    6.3580   -4.1500   20.3260 C   0  0  0  0  0  0  0  0  0  0  0  0
    5.3640   -4.8220   19.9780 O   0  0  0  0  0  0  0  0  0  0  0  0
    6.8050   -4.2100   21.6550 N   0  0  0  0  0  0  0  0  0  0  0  0
    7.6990   -3.1730   22.1500 C   0  0  0  0  0  0  0  0  0  0  0  0
    7.5730   -3.1270   23.6780 C   0  0  0  0  0  0  0  0  0  0  0  0
    6.1590   -3.5580   23.9600 C   0  0  0  0  0  0  0  0  0  0  0  0
    5.7220   -3.2600   25.3380 C   0  0  0  0  0  0  0  0  0  0  0  0
    4.5600   -3.5900   25.6440 O   0  0  0  0  0  0  0  0  0  0  0  0
    6.5820   -2.6060   26.2580 N   0  0  0  0  0  0  0  0  0  0  0  0
    6.0110   -1.7040   27.2290 C   0  0  0  0  0  0  0  0  0  0  0  0
    5.1640   -2.6120   28.1230 C   0  0  0  0  0  0  0  0  0  0  0  0
    5.8930   -3.4360   29.0170 O   0  0  0  0  0  0  0  0  0  0  0  0
    3.7090   -2.5790   28.0110 N   0  0  0  0  0  0  0  0  0  0  0  0
    2.8590   -1.4650   28.4090 C   0  0  0  0  0  0  0  0  0  0  0  0
    2.3410   -1.8070   29.6340 C   0  0  0  0  0  0  0  0  0  0  0  0
    1.7050   -3.0090   29.5620 O   0  0  0  0  0  0  0  0  0  0  0  0
    2.4390   -4.0810   29.1150 C   0  0  0  0  0  0  0  0  0  0  0  0
    2.8520   -3.7200   27.8500 C   0  0  0  0  0  0  0  0  0  0  0  0
    7.0930   -1.2260   28.0820 C   0  0  0  0  0  0  0  0  0  0  0  0
    6.8290    0.1300   28.6890 C   0  0  0  0  0  0  0  0  0  0  0  0
    5.4210    0.3940   29.0760 C   0  0  0  0  0  0  0  0  0  0  0  0
    5.6300    0.6250   27.6320 C   0  0  0  0  0  0  0  0  0  0  0  0
    5.4140   -0.5280   26.8570 C   0  0  0  0  0  0  0  0  0  0  0  0
    6.0940   -5.0690   23.7660 C   0  0  0  0  0  0  0  0  0  0  0  0
    6.6420   -5.4300   22.4090 C   0  0  0  0  0  0  0  0  0  0  0  0
  1  2  1  0
  2  3  2  0
  2  4  1  0
  4  5  1  0
  5  6  1  0
  6  7  1  0
  7  8  1  0
  8  9  2  0
  8 10  1  0
 10 11  1  0
 11 12  1  0
 12 13  2  0
 12 14  1  0
 14 15  1  0
 15 16  1  0
 16 17  1  0
 17 18  1  0
 14 19  1  0
 18 19  1  0
 11 20  1  0
 20 21  1  0
 21 22  1  0
 22 23  1  0
 11 24  1  0
 23 24  1  0
  7 25  1  0
  4 26  1  0
 25 26  1  0
M  END
