piperidine-amides-27003-covalent
     RDKit          3D

 25 26  0  0  0  0  0  0  0  0999 V2000
    7.0280   -3.3490   19.3780 C   0  0  0  0  0  0  0  0  0  0  0  0
    6.3830   -4.2030   20.3860 C   0  0  0  0  0  0  0  0  0  0  0  0
    5.3740   -4.8440   19.9830 O   0  0  0  0  0  0  0  0  0  0  0  0
    6.8910   -4.3340   21.6980 N   0  0  0  0  0  0  0  0  0  0  0  0
    6.6160   -5.5120   22.5020 C   0  0  0  0  0  0  0  0  0  0  0  0
    6.0010   -5.1080   23.8330 C   0  0  0  0  0  0  0  0  0  0  0  0
    5.8640   -3.6120   23.9330 C   0  0  0  0  0  0  0  0  0  0  0  0
    5.1700   -3.1150   25.1630 C   0  0  0  0  0  0  0  0  0  0  0  0
    4.3930   -2.1610   24.9770 O   0  0  0  0  0  0  0  0  0  0  0  0
    5.2480   -3.5630   26.5060 N   0  0  0  0  0  0  0  0  0  0  0  0
    6.4280   -3.2960   27.2510 C   0  0  0  0  0  0  0  0  0  0  0  0
    6.6580   -4.4010   28.2860 C   0  0  0  0  0  0  0  0  0  0  0  0
    5.7200   -4.5780   29.1790 C   0  0  0  0  0  0  0  0  0  0  0  0
    5.5460   -5.7590   29.8640 C   0  0  0  0  0  0  0  0  0  0  0  0
    6.5390   -6.5870   29.6820 O   0  0  0  0  0  0  0  0  0  0  0  0
    4.4630   -5.9880   30.6320 N   0  0  0  0  0  0  0  0  0  0  0  0
    4.3230   -7.1300   31.2960 C   0  0  0  0  0  0  0  0  0  0  0  0
    3.1060   -7.7120   30.9800 C   0  0  0  0  0  0  0  0  0  0  0  0
    2.4010   -8.3580   31.9700 C   0  0  0  0  0  0  0  0  0  0  0  0
    1.1130   -9.0320   31.5550 C   0  0  0  0  0  0  0  0  0  0  0  0
    1.0430  -10.0980   32.6490 C   0  0  0  0  0  0  0  0  0  0  0  0
    4.5020   -4.2510   28.7270 C   0  0  0  0  0  0  0  0  0  0  0  0
    4.5260   -3.1130   27.7050 C   0  0  0  0  0  0  0  0  0  0  0  0
    7.1500   -2.9200   23.6720 C   0  0  0  0  0  0  0  0  0  0  0  0
    7.6550   -3.2580   22.2860 C   0  0  0  0  0  0  0  0  0  0  0  0
  1  2  1  0
  2  3  2  0
  2  4  1  0
  4  5  1  0
  5  6  1  0
  6  7  1  0
  7  8  1  0
  8  9  2  0
  8 10  1  0
 10 11  1  0
 11 12  1  0
 12 13  1  0
 13 14  1  0
 14 15  2  0
 14 16  1  0
 16 17  1  0
 17 18  1  0
 18 19  1  0
 19 20  1  0
 20 21  1  0
 13 22  1  0
 10 23  1  0
 22 23  1  0
  7 24  1  0
  4 25  1  0
 24 25  1  0
M  END
