piperidine-amides-609-covalent
     RDKit          3D

 26 28  0  0  0  0  0  0  0  0999 V2000
    7.0450   -3.3650   19.2850 C   0  0  0  0  0  0  0  0  0  0  0  0
    6.3460   -4.0910   20.3230 C   0  0  0  0  0  0  0  0  0  0  0  0
    5.3260   -4.7520   19.9610 O   0  0  0  0  0  0  0  0  0  0  0  0
    6.7630   -4.1400   21.6730 N   0  0  0  0  0  0  0  0  0  0  0  0
    6.6620   -5.4800   22.3260 C   0  0  0  0  0  0  0  0  0  0  0  0
    6.1200   -5.1410   23.7790 C   0  0  0  0  0  0  0  0  0  0  0  0
    6.3180   -3.6590   23.9560 C   0  0  0  0  0  0  0  0  0  0  0  0
    5.6520   -3.0150   25.2440 C   0  0  0  0  0  0  0  0  0  0  0  0
    5.0910   -1.9800   24.9320 O   0  0  0  0  0  0  0  0  0  0  0  0
    5.8380   -3.7130   26.2930 N   0  0  0  0  0  0  0  0  0  0  0  0
    5.8610   -4.3640   27.4830 C   0  0  0  0  0  0  0  0  0  0  0  0
    5.1170   -4.4910   28.6210 C   0  0  0  0  0  0  0  0  0  0  0  0
    4.6800   -3.4520   29.4300 C   0  0  0  0  0  0  0  0  0  0  0  0
    3.9620   -4.1200   30.4370 C   0  0  0  0  0  0  0  0  0  0  0  0
    3.4020   -3.0970   31.4380 C   0  0  0  0  0  0  0  0  0  0  0  0
    2.5580   -3.8760   32.2220 C   0  0  0  0  0  0  0  0  0  0  0  0
    1.7330   -3.5310   33.3380 C   0  0  0  0  0  0  0  0  0  0  0  0
    2.0300   -1.9950   33.4630 C   0  0  0  0  0  0  0  0  0  0  0  0
    1.3950   -1.4840   34.4030 O   0  0  0  0  0  0  0  0  0  0  0  0
    2.2960   -1.1100   35.3900 C   0  0  0  0  0  0  0  0  0  0  0  0
    2.9480   -1.1920   32.5950 C   0  0  0  0  0  0  0  0  0  0  0  0
    3.6070   -1.7890   31.6020 C   0  0  0  0  0  0  0  0  0  0  0  0
    3.9060   -5.5020   30.3350 N   0  0  0  0  0  0  0  0  0  0  0  0
    4.6360   -5.6850   29.1990 O   0  0  0  0  0  0  0  0  0  0  0  0
    7.6910   -3.1800   23.5610 C   0  0  0  0  0  0  0  0  0  0  0  0
    7.7140   -3.1680   22.1940 C   0  0  0  0  0  0  0  0  0  0  0  0
  1  2  1  0
  2  3  2  0
  2  4  1  0
  4  5  1  0
  5  6  1  0
  6  7  1  0
  7  8  1  0
  8  9  2  0
  8 10  1  0
 10 11  1  0
 11 12  1  0
 12 13  2  0
 13 14  1  0
 14 15  1  0
 15 16  2  0
 16 17  1  0
 17 18  2  0
 18 19  1  0
 19 20  1  0
 18 21  1  0
 15 22  1  0
 21 22  2  0
 14 23  2  0
 12 24  1  0
 23 24  1  0
  7 25  1  0
  4 26  1  0
 25 26  1  0
M  END
