piperidine-amides-3485-covalent
     RDKit          3D

 21 22  0  0  0  0  0  0  0  0999 V2000
    7.1510   -3.2750   19.2000 C   0  0  0  0  0  0  0  0  0  0  0  0
    6.3330   -3.9900   20.1740 C   0  0  0  0  0  0  0  0  0  0  0  0
    5.2580   -4.4850   19.8530 O   0  0  0  0  0  0  0  0  0  0  0  0
    6.8250   -4.1620   21.5050 N   0  0  0  0  0  0  0  0  0  0  0  0
    6.5880   -5.3990   22.1930 C   0  0  0  0  0  0  0  0  0  0  0  0
    5.9620   -5.1030   23.5230 C   0  0  0  0  0  0  0  0  0  0  0  0
    6.0010   -3.5950   23.7060 C   0  0  0  0  0  0  0  0  0  0  0  0
    5.5360   -3.2760   25.0700 C   0  0  0  0  0  0  0  0  0  0  0  0
    4.5420   -2.5620   25.3010 O   0  0  0  0  0  0  0  0  0  0  0  0
    6.2600   -3.8240   26.1390 N   0  0  0  0  0  0  0  0  0  0  0  0
    5.5100   -4.4290   27.2010 C   0  0  1  0  0  0  0  0  0  0  0  0
    5.5380   -5.9270   27.0370 C   0  0  0  0  0  0  0  0  0  0  0  0
    5.0780   -6.7190   28.0760 C   0  0  0  0  0  0  0  0  0  0  0  0
    5.8480   -6.9580   29.2270 C   0  0  0  0  0  0  0  0  0  0  0  0
    6.1820   -3.9910   28.4030 C   0  0  0  0  0  0  0  0  0  0  0  0
    6.7940   -2.6930   28.4980 C   0  0  0  0  0  0  0  0  0  0  0  0
    8.1000   -2.7180   28.2540 C   0  0  0  0  0  0  0  0  0  0  0  0
    8.4600   -4.0360   28.1770 C   0  0  0  0  0  0  0  0  0  0  0  0
    7.3910   -4.8770   28.4870 C   0  0  0  0  0  0  0  0  0  0  0  0
    7.2640   -2.9460   23.4160 C   0  0  0  0  0  0  0  0  0  0  0  0
    7.6790   -3.1750   22.1230 C   0  0  0  0  0  0  0  0  0  0  0  0
  1  2  1  0
  2  3  2  0
  2  4  1  0
  4  5  1  0
  5  6  1  0
  6  7  1  0
  7  8  1  0
  8  9  2  0
  8 10  1  0
 10 11  1  0
 11 12  1  6
 12 13  1  0
 13 14  1  0
 11 15  1  0
 15 16  1  0
 16 17  1  0
 17 18  1  0
 15 19  1  0
 18 19  1  0
  7 20  1  0
  4 21  1  0
 20 21  1  0
M  END
