piperidine-amides-1157-covalent
     RDKit          3D

 23 25  0  0  0  0  0  0  0  0999 V2000
    7.1670   -3.2890   19.2430 C   0  0  0  0  0  0  0  0  0  0  0  0
    6.3820   -4.0460   20.2510 C   0  0  0  0  0  0  0  0  0  0  0  0
    5.3160   -4.5860   19.9060 O   0  0  0  0  0  0  0  0  0  0  0  0
    6.9020   -4.1680   21.5550 N   0  0  0  0  0  0  0  0  0  0  0  0
    7.7120   -3.1450   22.1720 C   0  0  0  0  0  0  0  0  0  0  0  0
    6.7680   -2.2780   23.0150 C   0  0  0  0  0  0  0  0  0  0  0  0
    6.1010   -3.1800   24.0010 C   0  0  0  0  0  0  0  0  0  0  0  0
    5.1390   -2.4900   24.9240 C   0  0  0  0  0  0  0  0  0  0  0  0
    4.2040   -3.2030   25.3130 O   0  0  0  0  0  0  0  0  0  0  0  0
    5.2720   -1.1370   25.3720 N   0  0  0  0  0  0  0  0  0  0  0  0
    5.6010   -0.8660   26.7240 C   0  0  0  0  0  0  0  0  0  0  0  0
    6.1830   -1.9430   27.1260 C   0  0  0  0  0  0  0  0  0  0  0  0
    6.0450   -2.7690   28.2350 C   0  0  0  0  0  0  0  0  0  0  0  0
    6.9420   -3.8450   28.0120 N   0  0  0  0  0  0  0  0  0  0  0  0
    7.2160   -4.9510   28.7090 C   0  0  0  0  0  0  0  0  0  0  0  0
    8.1920   -5.8330   28.0900 C   0  0  0  0  0  0  0  0  0  0  0  0
    8.7620   -5.3750   26.7770 C   0  0  0  0  0  0  0  0  0  0  0  0
    9.7300   -6.2730   26.1500 C   0  0  0  0  0  0  0  0  0  0  0  0
    8.4050   -4.2790   26.2430 N   0  0  0  0  0  0  0  0  0  0  0  0
    7.5290   -3.5480   26.8330 C   0  0  0  0  0  0  0  0  0  0  0  0
    7.0970   -2.4540   26.3420 N   0  0  0  0  0  0  0  0  0  0  0  0
    5.3930   -4.3520   23.3740 C   0  0  0  0  0  0  0  0  0  0  0  0
    6.2990   -5.1330   22.4350 C   0  0  0  0  0  0  0  0  0  0  0  0
  1  2  1  0
  2  3  2  0
  2  4  1  0
  4  5  1  0
  5  6  1  0
  6  7  1  0
  7  8  1  0
  8  9  2  0
  8 10  1  0
 10 11  1  0
 11 12  1  0
 12 13  2  0
 13 14  1  0
 14 15  1  0
 15 16  2  0
 16 17  1  0
 17 18  1  0
 17 19  2  0
 14 20  1  0
 19 20  1  0
 12 21  1  0
 20 21  2  0
  7 22  1  0
  4 23  1  0
 22 23  1  0
M  END
