piperidine-amides-11903-covalent
     RDKit          3D

 27 29  0  0  0  0  0  0  0  0999 V2000
    7.0750   -3.2820   19.1900 C   0  0  0  0  0  0  0  0  0  0  0  0
    6.3070   -4.0210   20.1880 C   0  0  0  0  0  0  0  0  0  0  0  0
    5.2460   -4.5510   19.8760 O   0  0  0  0  0  0  0  0  0  0  0  0
    6.8030   -4.1840   21.5220 N   0  0  0  0  0  0  0  0  0  0  0  0
    7.6600   -3.1830   22.1110 C   0  0  0  0  0  0  0  0  0  0  0  0
    7.1110   -2.7260   23.4280 C   0  0  0  0  0  0  0  0  0  0  0  0
    6.8030   -3.9480   24.2740 C   0  0  0  0  0  0  0  0  0  0  0  0
    6.1300   -3.5000   25.5150 C   0  0  0  0  0  0  0  0  0  0  0  0
    4.8840   -3.4990   25.6450 O   0  0  0  0  0  0  0  0  0  0  0  0
    6.9500   -3.0320   26.5720 N   0  0  0  0  0  0  0  0  0  0  0  0
    7.6820   -3.9590   27.4150 C   0  0  2  0  0  0  0  0  0  0  0  0
    8.4490   -4.9690   26.5910 C   0  0  0  0  0  0  0  0  0  0  0  0
    6.7820   -4.6830   28.3300 C   0  0  0  0  0  0  0  0  0  0  0  0
    7.0720   -6.0190   28.6510 C   0  0  0  0  0  0  0  0  0  0  0  0
    6.2550   -6.7310   29.5200 C   0  0  0  0  0  0  0  0  0  0  0  0
    5.0870   -6.1000   30.1080 C   0  0  0  0  0  0  0  0  0  0  0  0
    4.4310   -6.9310   30.9260 N   0  0  0  0  0  0  0  0  0  0  0  0
    4.7000   -7.1350   32.3290 C   0  0  0  0  0  0  0  0  0  0  0  0
    5.9340   -7.0180   32.7820 O   0  0  0  0  0  0  0  0  0  0  0  0
    3.6810   -7.4410   33.1980 N   0  0  0  0  0  0  0  0  0  0  0  0
    3.2770   -8.8090   33.5020 C   0  0  0  0  0  0  0  0  0  0  0  0
    2.2560   -9.2190   34.2180 C   0  0  0  0  0  0  0  0  0  0  0  0
    1.7910   -9.2140   32.9570 C   0  0  0  0  0  0  0  0  0  0  0  0
    4.8400   -4.8020   29.7590 C   0  0  0  0  0  0  0  0  0  0  0  0
    5.6490   -4.0950   28.9000 C   0  0  0  0  0  0  0  0  0  0  0  0
    5.8670   -4.9010   23.5600 C   0  0  0  0  0  0  0  0  0  0  0  0
    6.5330   -5.3810   22.2680 C   0  0  0  0  0  0  0  0  0  0  0  0
  1  2  1  0
  2  3  2  0
  2  4  1  0
  4  5  1  0
  5  6  1  0
  6  7  1  0
  7  8  1  0
  8  9  2  0
  8 10  1  0
 10 11  1  0
 11 12  1  6
 11 13  1  0
 13 14  2  0
 14 15  1  0
 15 16  2  0
 16 17  1  0
 17 18  1  0
 18 19  2  0
 18 20  1  0
 20 21  1  0
 21 22  1  0
 21 23  1  0
 22 23  1  0
 16 24  1  0
 13 25  1  0
 24 25  2  0
  7 26  1  0
  4 27  1  0
 26 27  1  0
M  END
