piperidine-amides-14565-covalent
     RDKit          3D

 25 26  0  0  0  0  0  0  0  0999 V2000
    7.0560   -3.3520   19.3430 C   0  0  0  0  0  0  0  0  0  0  0  0
    6.3420   -4.1470   20.3360 C   0  0  0  0  0  0  0  0  0  0  0  0
    5.3490   -4.7930   19.9670 O   0  0  0  0  0  0  0  0  0  0  0  0
    6.8160   -4.2010   21.6720 N   0  0  0  0  0  0  0  0  0  0  0  0
    6.6120   -5.4130   22.4180 C   0  0  0  0  0  0  0  0  0  0  0  0
    6.1110   -5.0870   23.8020 C   0  0  0  0  0  0  0  0  0  0  0  0
    6.0930   -3.5800   23.9420 C   0  0  0  0  0  0  0  0  0  0  0  0
    5.5520   -3.1370   25.2670 C   0  0  0  0  0  0  0  0  0  0  0  0
    4.3320   -3.1740   25.3980 O   0  0  0  0  0  0  0  0  0  0  0  0
    6.4550   -2.7280   26.2340 N   0  0  0  0  0  0  0  0  0  0  0  0
    6.3790   -1.4800   26.9310 C   0  0  0  0  0  0  0  0  0  0  0  0
    6.0200   -0.2930   26.2900 C   0  0  0  0  0  0  0  0  0  0  0  0
    5.9500    0.9230   26.9500 C   0  0  0  0  0  0  0  0  0  0  0  0
    6.2290    1.0930   28.3030 C   0  0  0  0  0  0  0  0  0  0  0  0
    6.6030   -0.1970   28.9400 C   0  0  0  0  0  0  0  0  0  0  0  0
    6.9540   -0.2130   30.4430 C   0  0  0  0  0  0  0  0  0  0  0  0
    5.9200   -0.4970   31.0900 O   0  0  0  0  0  0  0  0  0  0  0  0
    5.7780    0.2590   32.2180 C   0  0  0  0  0  0  0  0  0  0  0  0
    5.3240    1.6360   31.8300 C   0  0  0  0  0  0  0  0  0  0  0  0
    6.9160    0.2410   32.9910 C   0  0  0  0  0  0  0  0  0  0  0  0
    4.8330   -0.4890   32.9040 C   0  0  0  0  0  0  0  0  0  0  0  0
    6.6460   -1.3560   28.2390 C   0  0  0  0  0  0  0  0  0  0  0  0
    7.0100   -2.5970   28.9370 C   0  0  0  0  0  0  0  0  0  0  0  0
    7.5070   -3.0590   23.6840 C   0  0  0  0  0  0  0  0  0  0  0  0
    7.6920   -3.1930   22.1920 C   0  0  0  0  0  0  0  0  0  0  0  0
  1  2  1  0
  2  3  2  0
  2  4  1  0
  4  5  1  0
  5  6  1  0
  6  7  1  0
  7  8  1  0
  8  9  2  0
  8 10  1  0
 10 11  1  0
 11 12  2  0
 12 13  1  0
 13 14  2  0
 14 15  1  0
 15 16  1  0
 16 17  1  0
 18 17  1  0
 18 19  1  0
 18 20  1  0
 18 21  1  0
 11 22  1  0
 15 22  2  0
 22 23  1  0
  7 24  1  0
  4 25  1  0
 24 25  1  0
M  END
