piperidine-amides-12646-covalent
     RDKit          3D

 23 24  0  0  0  0  0  0  0  0999 V2000
    7.0550   -3.3160   19.2230 C   0  0  0  0  0  0  0  0  0  0  0  0
    6.3450   -4.1020   20.2600 C   0  0  0  0  0  0  0  0  0  0  0  0
    5.2840   -4.6470   19.9100 O   0  0  0  0  0  0  0  0  0  0  0  0
    6.8670   -4.2670   21.5470 N   0  0  0  0  0  0  0  0  0  0  0  0
    7.6650   -3.2370   22.1330 C   0  0  0  0  0  0  0  0  0  0  0  0
    7.4530   -2.9840   23.5560 C   0  0  0  0  0  0  0  0  0  0  0  0
    6.7590   -4.0360   24.3310 C   0  0  0  0  0  0  0  0  0  0  0  0
    6.0430   -3.3890   25.4480 C   0  0  0  0  0  0  0  0  0  0  0  0
    4.8070   -3.2290   25.3780 O   0  0  0  0  0  0  0  0  0  0  0  0
    6.7830   -2.9740   26.5670 N   0  0  0  0  0  0  0  0  0  0  0  0
    6.6340   -1.6610   27.2370 C   0  0  0  0  0  0  0  0  0  0  0  0
    7.2180   -1.5540   28.5750 C   0  0  0  0  0  0  0  0  0  0  0  0
    7.1140   -0.3170   29.3060 C   0  0  0  0  0  0  0  0  0  0  0  0
    6.4540    0.7410   28.6940 C   0  0  0  0  0  0  0  0  0  0  0  0
    5.8900    0.6720   27.4160 C   0  0  0  0  0  0  0  0  0  0  0  0
    5.9680   -0.4910   26.6920 C   0  0  0  0  0  0  0  0  0  0  0  0
    5.3630   -0.4410   25.4210 O   0  0  0  0  0  0  0  0  0  0  0  0
    5.1610    0.7730   24.7530 C   0  0  0  0  0  0  0  0  0  0  0  0
    3.9980    1.3850   25.1200 C   0  0  0  0  0  0  0  0  0  0  0  0
    3.8930    2.6340   24.5620 O   0  0  0  0  0  0  0  0  0  0  0  0
    3.0990    2.6640   23.4360 C   0  0  0  0  0  0  0  0  0  0  0  0
    5.8700   -4.9570   23.5770 C   0  0  0  0  0  0  0  0  0  0  0  0
    6.5930   -5.4450   22.3520 C   0  0  0  0  0  0  0  0  0  0  0  0
  1  2  1  0
  2  3  2  0
  2  4  1  0
  4  5  1  0
  5  6  1  0
  6  7  1  0
  7  8  1  0
  8  9  2  0
  8 10  1  0
 10 11  1  0
 11 12  2  0
 12 13  1  0
 13 14  2  0
 14 15  1  0
 11 16  1  0
 15 16  2  0
 16 17  1  0
 17 18  1  0
 18 19  1  0
 19 20  1  0
 20 21  1  0
  7 22  1  0
  4 23  1  0
 22 23  1  0
M  END
