piperidine-amides-3574-covalent
     RDKit          3D

 19 19  0  0  0  0  0  0  0  0999 V2000
    7.1420   -3.2530   19.1600 C   0  0  0  0  0  0  0  0  0  0  0  0
    6.3820   -3.9910   20.1850 C   0  0  0  0  0  0  0  0  0  0  0  0
    5.2770   -4.4700   19.8500 O   0  0  0  0  0  0  0  0  0  0  0  0
    6.9140   -4.2060   21.4790 N   0  0  0  0  0  0  0  0  0  0  0  0
    7.6200   -3.1290   22.0830 C   0  0  0  0  0  0  0  0  0  0  0  0
    7.1280   -2.7180   23.3930 C   0  0  0  0  0  0  0  0  0  0  0  0
    6.5750   -3.7910   24.2360 C   0  0  0  0  0  0  0  0  0  0  0  0
    5.8800   -3.2430   25.4440 C   0  0  0  0  0  0  0  0  0  0  0  0
    4.7430   -2.7420   25.3480 O   0  0  0  0  0  0  0  0  0  0  0  0
    6.5280   -3.3140   26.6870 N   0  0  0  0  0  0  0  0  0  0  0  0
    7.3740   -4.3710   27.0760 C   0  0  2  0  0  0  0  0  0  0  0  0
    7.1060   -5.6990   26.5720 C   0  0  0  0  0  0  0  0  0  0  0  0
    5.5860   -5.9600   26.6270 C   0  0  0  0  0  0  0  0  0  0  0  0
    7.4210   -4.6210   28.5320 C   0  0  0  0  0  0  0  0  0  0  0  0
    6.8330   -5.9910   28.9050 C   0  0  0  0  0  0  0  0  0  0  0  0
    6.4550   -6.0970   30.2400 O   0  0  0  0  0  0  0  0  0  0  0  0
    5.8470   -7.3430   30.4260 C   0  0  0  0  0  0  0  0  0  0  0  0
    5.6490   -4.7070   23.4300 C   0  0  0  0  0  0  0  0  0  0  0  0
    6.4870   -5.2910   22.3200 C   0  0  0  0  0  0  0  0  0  0  0  0
  1  2  1  0
  2  3  2  0
  2  4  1  0
  4  5  1  0
  5  6  1  0
  6  7  1  0
  7  8  1  0
  8  9  2  0
  8 10  1  0
 10 11  1  0
 11 12  1  6
 12 13  1  0
 11 14  1  0
 14 15  1  0
 15 16  1  0
 16 17  1  0
  7 18  1  0
  4 19  1  0
 18 19  1  0
M  END
