piperidine-amides-9254-covalent
     RDKit          3D

 19 19  0  0  0  0  0  0  0  0999 V2000
    7.0880   -3.2710   19.2190 C   0  0  0  0  0  0  0  0  0  0  0  0
    6.3330   -4.0050   20.2380 C   0  0  0  0  0  0  0  0  0  0  0  0
    5.2950   -4.6050   19.9060 O   0  0  0  0  0  0  0  0  0  0  0  0
    6.7840   -4.0910   21.5640 N   0  0  0  0  0  0  0  0  0  0  0  0
    7.7180   -3.1200   22.1120 C   0  0  0  0  0  0  0  0  0  0  0  0
    7.4080   -3.0230   23.5710 C   0  0  0  0  0  0  0  0  0  0  0  0
    6.0580   -3.5850   23.8560 C   0  0  0  0  0  0  0  0  0  0  0  0
    5.6010   -3.3230   25.2360 C   0  0  0  0  0  0  0  0  0  0  0  0
    4.3830   -3.0970   25.4780 O   0  0  0  0  0  0  0  0  0  0  0  0
    6.4920   -3.3060   26.3220 N   0  0  0  0  0  0  0  0  0  0  0  0
    5.9870   -3.2500   27.7010 C   0  0  0  0  0  0  0  0  0  0  0  0
    6.2790   -4.4940   28.4650 C   0  0  0  0  0  0  0  0  0  0  0  0
    5.9130   -5.8480   27.9900 C   0  0  2  0  0  0  0  0  0  0  0  0
    5.2570   -5.7920   26.6400 C   0  0  0  0  0  0  0  0  0  0  0  0
    5.0190   -6.7030   28.8480 C   0  0  0  0  0  0  0  0  0  0  0  0
    6.1010   -7.0520   29.8070 C   0  0  0  0  0  0  0  0  0  0  0  0
    5.9220   -6.7640   31.1440 O   0  0  0  0  0  0  0  0  0  0  0  0
    6.0550   -5.0660   23.5360 C   0  0  0  0  0  0  0  0  0  0  0  0
    6.5860   -5.3420   22.2680 C   0  0  0  0  0  0  0  0  0  0  0  0
  1  2  1  0
  2  3  2  0
  2  4  1  0
  4  5  1  0
  5  6  1  0
  6  7  1  0
  7  8  1  0
  8  9  2  0
  8 10  1  0
 10 11  1  0
 11 12  1  0
 12 13  1  0
 13 14  1  6
 13 15  1  0
 15 16  1  0
 16 17  1  0
  7 18  1  0
  4 19  1  0
 18 19  1  0
M  END
