piperidine-amides-25200-covalent
     RDKit          3D

 25 27  0  0  0  0  0  0  0  0999 V2000
    7.0650   -3.2710   19.2670 C   0  0  0  0  0  0  0  0  0  0  0  0
    6.3340   -4.0710   20.2860 C   0  0  0  0  0  0  0  0  0  0  0  0
    5.3070   -4.6320   19.9120 O   0  0  0  0  0  0  0  0  0  0  0  0
    6.8300   -4.1990   21.5900 N   0  0  0  0  0  0  0  0  0  0  0  0
    6.6630   -5.4230   22.3310 C   0  0  0  0  0  0  0  0  0  0  0  0
    6.0860   -5.1320   23.6910 C   0  0  0  0  0  0  0  0  0  0  0  0
    6.1140   -3.6300   23.9760 C   0  0  0  0  0  0  0  0  0  0  0  0
    5.6840   -3.4230   25.3760 C   0  0  0  0  0  0  0  0  0  0  0  0
    4.5600   -3.8260   25.7050 O   0  0  0  0  0  0  0  0  0  0  0  0
    6.4820   -2.7780   26.3430 N   0  0  0  0  0  0  0  0  0  0  0  0
    6.6790   -1.3680   26.1450 C   0  0  0  0  0  0  0  0  0  0  0  0
    5.3030   -0.7320   26.1330 C   0  0  0  0  0  0  0  0  0  0  0  0
    4.1450   -1.2830   26.6480 C   0  0  0  0  0  0  0  0  0  0  0  0
    2.9740   -0.6240   26.5790 C   0  0  0  0  0  0  0  0  0  0  0  0
    2.9920    0.5880   25.9920 C   0  0  0  0  0  0  0  0  0  0  0  0
    4.2250    1.2240   25.4180 C   0  0  0  0  0  0  0  0  0  0  0  0
    5.4170    0.6010   25.4620 N   0  0  0  0  0  0  0  0  0  0  0  0
    6.3030   -3.1450   27.7000 C   0  0  0  0  0  0  0  0  0  0  0  0
    6.3870   -2.1790   28.8530 C   0  0  0  0  0  0  0  0  0  0  0  0
    5.1640   -1.7460   29.5340 C   0  0  0  0  0  0  0  0  0  0  0  0
    5.7180   -0.8470   30.5380 C   0  0  0  0  0  0  0  0  0  0  0  0
    7.2400   -0.8160   30.3750 C   0  0  0  0  0  0  0  0  0  0  0  0
    7.6100   -1.6740   29.2960 O   0  0  0  0  0  0  0  0  0  0  0  0
    7.4900   -3.0970   23.6670 C   0  0  0  0  0  0  0  0  0  0  0  0
    7.6810   -3.1750   22.1790 C   0  0  0  0  0  0  0  0  0  0  0  0
  1  2  1  0
  2  3  2  0
  2  4  1  0
  4  5  1  0
  5  6  1  0
  6  7  1  0
  7  8  1  0
  8  9  2  0
  8 10  1  0
 10 11  1  0
 11 12  1  0
 12 13  2  0
 13 14  1  0
 14 15  2  0
 15 16  1  0
 12 17  1  0
 16 17  2  0
 10 18  1  0
 18 19  1  0
 19 20  2  0
 20 21  1  0
 21 22  2  0
 19 23  1  0
 22 23  1  0
  7 24  1  0
  4 25  1  0
 24 25  1  0
M  END
