piperidine-amides-11426-covalent
     RDKit          3D

 21 23  0  0  0  0  0  0  0  0999 V2000
    7.1190   -3.2690   19.1910 C   0  0  0  0  0  0  0  0  0  0  0  0
    6.3620   -4.0100   20.2020 C   0  0  0  0  0  0  0  0  0  0  0  0
    5.2920   -4.5520   19.8850 O   0  0  0  0  0  0  0  0  0  0  0  0
    6.8530   -4.1620   21.5040 N   0  0  0  0  0  0  0  0  0  0  0  0
    7.7280   -3.1860   22.1140 C   0  0  0  0  0  0  0  0  0  0  0  0
    6.9940   -2.6890   23.3200 C   0  0  0  0  0  0  0  0  0  0  0  0
    6.5200   -3.8170   24.1750 C   0  0  0  0  0  0  0  0  0  0  0  0
    5.7890   -3.3600   25.3780 C   0  0  0  0  0  0  0  0  0  0  0  0
    4.5230   -3.4220   25.4250 O   0  0  0  0  0  0  0  0  0  0  0  0
    6.4580   -2.8500   26.5190 N   0  0  0  0  0  0  0  0  0  0  0  0
    6.2550   -1.4680   27.0250 C   0  0  0  0  0  0  0  0  0  0  0  0
    5.6610   -0.5850   25.9840 C   0  0  1  0  0  0  0  0  0  0  0  0
    6.2130   -0.6300   24.8550 O   0  0  0  0  0  0  0  0  0  0  0  0
    4.2620   -0.9100   25.6700 C   0  0  0  0  0  0  0  0  0  0  0  0
    3.5730    0.3970   25.9230 C   0  0  1  0  0  0  0  0  0  0  0  0
    3.5510    0.6990   27.4030 C   0  0  0  0  0  0  0  0  0  0  0  0
    5.0130    0.8830   27.6200 C   0  0  0  0  0  0  0  0  0  0  0  0
    5.6170    0.7350   26.3880 C   0  0  2  0  0  0  0  0  0  0  0  0
    4.7350    1.1980   25.3930 C   0  0  0  0  0  0  0  0  0  0  0  0
    5.6280   -4.8160   23.4160 C   0  0  0  0  0  0  0  0  0  0  0  0
    6.4710   -5.3330   22.2490 C   0  0  0  0  0  0  0  0  0  0  0  0
  1  2  1  0
  2  3  2  0
  2  4  1  0
  4  5  1  0
  5  6  1  0
  6  7  1  0
  7  8  1  0
  8  9  2  0
  8 10  1  0
 10 11  1  0
 11 12  1  0
 12 13  1  6
 12 14  1  0
 15 14  1  1
 15 16  1  0
 16 17  1  0
 12 18  1  0
 18 17  1  1
 15 19  1  0
 18 19  1  0
  7 20  1  0
  4 21  1  0
 20 21  1  0
M  END
