piperidine-amides-33106-covalent
     RDKit          3D

 29 31  0  0  0  0  0  0  0  0999 V2000
    7.0690   -3.3890   19.4240 C   0  0  0  0  0  0  0  0  0  0  0  0
    6.4170   -4.2570   20.4170 C   0  0  0  0  0  0  0  0  0  0  0  0
    5.4160   -4.9040   20.0070 O   0  0  0  0  0  0  0  0  0  0  0  0
    6.9310   -4.3930   21.7470 N   0  0  0  0  0  0  0  0  0  0  0  0
    6.4870   -5.4940   22.5390 C   0  0  0  0  0  0  0  0  0  0  0  0
    5.8970   -5.0820   23.8210 C   0  0  0  0  0  0  0  0  0  0  0  0
    5.8460   -3.6110   23.9780 C   0  0  0  0  0  0  0  0  0  0  0  0
    5.0040   -3.0990   25.1510 C   0  0  0  0  0  0  0  0  0  0  0  0
    4.0380   -2.3770   24.8880 O   0  0  0  0  0  0  0  0  0  0  0  0
    5.2210   -3.3870   26.5110 N   0  0  0  0  0  0  0  0  0  0  0  0
    6.2770   -4.0520   26.9880 C   0  0  0  0  0  0  0  0  0  0  0  0
    6.3000   -4.4370   28.3640 C   0  0  0  0  0  0  0  0  0  0  0  0
    4.9270   -3.8680   28.6850 C   0  0  2  0  0  0  0  0  0  0  0  0
    4.0390   -5.0390   28.6910 N   0  0  0  0  0  0  0  0  0  0  0  0
    3.4950   -5.2320   30.0030 C   0  0  0  0  0  0  0  0  0  0  0  0
    2.0170   -5.5250   29.7310 C   0  0  0  0  0  0  0  0  0  0  0  0
    0.9460   -5.2930   30.6360 N   0  0  0  0  0  0  0  0  0  0  0  0
   -0.2320   -5.6380   30.1410 O   0  0  0  0  0  0  0  0  0  0  0  0
    0.1120   -6.1070   28.8630 C   0  0  0  0  0  0  0  0  0  0  0  0
   -0.9670   -6.6240   27.9090 C   0  0  0  0  0  0  0  0  0  0  0  0
   -0.5470   -6.8880   26.4830 C   0  0  0  0  0  0  0  0  0  0  0  0
   -1.5800   -7.8860   28.4870 C   0  0  0  0  0  0  0  0  0  0  0  0
    1.4180   -6.0340   28.6450 N   0  0  0  0  0  0  0  0  0  0  0  0
    4.4340   -6.1220   27.8590 C   0  0  0  0  0  0  0  0  0  0  0  0
    4.2260   -7.4880   28.3980 C   0  0  0  0  0  0  0  0  0  0  0  0
    4.9360   -6.0920   26.7090 O   0  0  0  0  0  0  0  0  0  0  0  0
    4.4440   -3.0160   27.6930 C   0  0  0  0  0  0  0  0  0  0  0  0
    7.1710   -2.9640   23.7640 C   0  0  0  0  0  0  0  0  0  0  0  0
    7.6570   -3.2940   22.3560 C   0  0  0  0  0  0  0  0  0  0  0  0
  1  2  1  0
  2  3  2  0
  2  4  1  0
  4  5  1  0
  5  6  1  0
  6  7  1  0
  7  8  1  0
  8  9  2  0
  8 10  1  0
 10 11  1  0
 11 12  1  0
 12 13  1  0
 13 14  1  6
 14 15  1  0
 15 16  1  0
 16 17  2  0
 17 18  1  0
 18 19  1  0
 19 20  1  0
 20 21  1  0
 20 22  1  0
 16 23  1  0
 19 23  2  0
 14 24  1  0
 24 25  1  0
 24 26  2  0
 10 27  1  0
 13 27  1  0
  7 28  1  0
  4 29  1  0
 28 29  1  0
M  END
