piperidine-amides-23980-covalent
     RDKit          3D

 24 26  0  0  0  0  0  0  0  0999 V2000
    7.0970   -3.3790   19.3460 C   0  0  0  0  0  0  0  0  0  0  0  0
    6.4110   -4.2080   20.3440 C   0  0  0  0  0  0  0  0  0  0  0  0
    5.3700   -4.8040   19.9740 O   0  0  0  0  0  0  0  0  0  0  0  0
    6.9560   -4.3590   21.6450 N   0  0  0  0  0  0  0  0  0  0  0  0
    6.6250   -5.5160   22.4060 C   0  0  0  0  0  0  0  0  0  0  0  0
    6.1100   -5.1570   23.7150 C   0  0  0  0  0  0  0  0  0  0  0  0
    6.2170   -3.7080   23.9240 C   0  0  0  0  0  0  0  0  0  0  0  0
    5.6480   -3.2310   25.2240 C   0  0  0  0  0  0  0  0  0  0  0  0
    4.8570   -2.2770   25.2100 O   0  0  0  0  0  0  0  0  0  0  0  0
    5.9320   -3.8200   26.4590 N   0  0  0  0  0  0  0  0  0  0  0  0
    5.2390   -4.9310   26.9560 C   0  0  0  0  0  0  0  0  0  0  0  0
    5.6910   -5.6260   28.1600 C   0  0  0  0  0  0  0  0  0  0  0  0
    5.8880   -4.5990   29.2590 C   0  0  0  0  0  0  0  0  0  0  0  0
    4.6730   -4.1470   29.7500 C   0  0  0  0  0  0  0  0  0  0  0  0
    5.0280   -2.6530   29.8000 C   0  0  0  0  0  0  0  0  0  0  0  0
    3.8790   -1.8050   30.3180 C   0  0  0  0  0  0  0  0  0  0  0  0
    2.6280   -2.6500   30.6700 C   0  0  0  0  0  0  0  0  0  0  0  0
    1.5110   -2.0260   31.1490 F   0  0  0  0  0  0  0  0  0  0  0  0
    2.5480   -4.1400   30.5210 C   0  0  0  0  0  0  0  0  0  0  0  0
    3.5780   -4.9510   30.0500 N   0  0  0  0  0  0  0  0  0  0  0  0
    6.6520   -3.5450   28.7980 C   0  0  0  0  0  0  0  0  0  0  0  0
    6.3690   -2.9050   27.4450 C   0  0  0  0  0  0  0  0  0  0  0  0
    7.6100   -3.2650   23.6390 C   0  0  0  0  0  0  0  0  0  0  0  0
    7.7420   -3.2820   22.2430 C   0  0  0  0  0  0  0  0  0  0  0  0
  1  2  1  0
  2  3  2  0
  2  4  1  0
  4  5  1  0
  5  6  1  0
  6  7  1  0
  7  8  1  0
  8  9  2  0
  8 10  1  0
 10 11  1  0
 11 12  1  0
 12 13  1  0
 13 14  1  0
 14 15  2  0
 15 16  1  0
 16 17  2  0
 17 18  1  0
 17 19  1  0
 14 20  1  0
 19 20  2  0
 13 21  1  0
 10 22  1  0
 21 22  1  0
  7 23  1  0
  4 24  1  0
 23 24  1  0
M  END
