piperidine-amides-32842-covalent
     RDKit          3D

 29 31  0  0  0  0  0  0  0  0999 V2000
    7.1390   -3.3230   19.2630 C   0  0  0  0  0  0  0  0  0  0  0  0
    6.3580   -4.1230   20.2410 C   0  0  0  0  0  0  0  0  0  0  0  0
    5.2650   -4.5960   19.8940 O   0  0  0  0  0  0  0  0  0  0  0  0
    6.9020   -4.3860   21.5070 N   0  0  0  0  0  0  0  0  0  0  0  0
    6.5270   -5.5810   22.2080 C   0  0  0  0  0  0  0  0  0  0  0  0
    5.6270   -5.0960   23.3340 C   0  0  0  0  0  0  0  0  0  0  0  0
    6.4770   -4.1770   24.1280 C   0  0  0  0  0  0  0  0  0  0  0  0
    5.7670   -3.5680   25.2660 C   0  0  0  0  0  0  0  0  0  0  0  0
    4.6930   -3.0110   25.0140 O   0  0  0  0  0  0  0  0  0  0  0  0
    6.2950   -3.6320   26.5500 N   0  0  0  0  0  0  0  0  0  0  0  0
    6.2790   -2.5730   27.4830 C   0  0  0  0  0  0  0  0  0  0  0  0
    6.1540   -2.7960   28.8020 C   0  0  0  0  0  0  0  0  0  0  0  0
    5.0140   -3.4440   29.1390 C   0  0  0  0  0  0  0  0  0  0  0  0
    3.9770   -3.1000   29.9660 C   0  0  0  0  0  0  0  0  0  0  0  0
    2.8570   -4.0500   30.1200 C   0  0  0  0  0  0  0  0  0  0  0  0
    2.8490   -5.3890   29.3750 C   0  0  0  0  0  0  0  0  0  0  0  0
    4.1050   -5.5480   28.5070 C   0  0  0  0  0  0  0  0  0  0  0  0
    4.3760   -6.6060   27.7480 N   0  0  0  0  0  0  0  0  0  0  0  0
    4.0700   -7.6630   28.5170 C   0  0  0  0  0  0  0  0  0  0  0  0
    2.7750   -7.9640   28.8870 O   0  0  0  0  0  0  0  0  0  0  0  0
    5.1150   -8.4510   28.9560 O   0  0  0  0  0  0  0  0  0  0  0  0
    6.1760   -8.0040   29.7410 C   0  0  0  0  0  0  0  0  0  0  0  0
    7.1660   -9.2280   29.9380 C   0  0  0  0  0  0  0  0  0  0  0  0
    5.7260   -7.4450   31.0580 C   0  0  0  0  0  0  0  0  0  0  0  0
    6.8070   -6.7610   29.0220 C   0  0  0  0  0  0  0  0  0  0  0  0
    5.0870   -4.5940   28.4360 C   0  0  0  0  0  0  0  0  0  0  0  0
    6.3470   -4.6400   27.6020 C   0  0  0  0  0  0  0  0  0  0  0  0
    7.0150   -2.9870   23.3610 C   0  0  0  0  0  0  0  0  0  0  0  0
    7.5970   -3.3190   22.1580 C   0  0  0  0  0  0  0  0  0  0  0  0
  1  2  1  0
  2  3  2  0
  2  4  1  0
  4  5  1  0
  5  6  1  0
  6  7  1  0
  7  8  1  0
  8  9  2  0
  8 10  1  0
 10 11  1  0
 11 12  1  0
 12 13  1  0
 13 14  2  0
 14 15  1  0
 15 16  2  0
 16 17  1  0
 17 18  1  0
 18 19  1  0
 19 20  2  0
 19 21  1  0
 22 21  1  0
 22 23  1  0
 22 24  1  0
 22 25  1  0
 13 26  1  0
 17 26  2  0
 10 27  1  0
 26 27  1  0
  7 28  1  0
  4 29  1  0
 28 29  1  0
M  END
