piperidine-amides-13812-covalent
     RDKit          3D

 26 28  0  0  0  0  0  0  0  0999 V2000
    7.0570   -3.3130   19.3240 C   0  0  0  0  0  0  0  0  0  0  0  0
    6.3480   -4.1630   20.3200 C   0  0  0  0  0  0  0  0  0  0  0  0
    5.3370   -4.7930   19.9630 O   0  0  0  0  0  0  0  0  0  0  0  0
    6.8660   -4.2690   21.6280 N   0  0  0  0  0  0  0  0  0  0  0  0
    7.6690   -3.2050   22.1920 C   0  0  0  0  0  0  0  0  0  0  0  0
    7.5480   -3.2820   23.7140 C   0  0  0  0  0  0  0  0  0  0  0  0
    6.1700   -3.7560   24.0130 C   0  0  0  0  0  0  0  0  0  0  0  0
    5.6550   -3.2620   25.3080 C   0  0  0  0  0  0  0  0  0  0  0  0
    4.4390   -3.3760   25.4880 O   0  0  0  0  0  0  0  0  0  0  0  0
    6.5200   -2.6940   26.2490 N   0  0  0  0  0  0  0  0  0  0  0  0
    6.2480   -1.5770   27.0810 C   0  0  1  0  0  0  0  0  0  0  0  0
    7.0400   -1.4050   28.2110 C   0  0  0  0  0  0  0  0  0  0  0  0
    6.6930   -0.5150   29.2340 C   0  0  0  0  0  0  0  0  0  0  0  0
    6.2370    0.7060   28.8160 C   0  0  0  0  0  0  0  0  0  0  0  0
    6.0480    0.8530   27.5000 N   0  0  0  0  0  0  0  0  0  0  0  0
    5.8410    1.9920   26.8110 C   0  0  0  0  0  0  0  0  0  0  0  0
    5.6810    1.7090   25.3490 C   0  0  0  0  0  0  0  0  0  0  0  0
    5.4370    2.9160   24.4330 C   0  0  0  0  0  0  0  0  0  0  0  0
    4.7280    3.9140   25.0750 O   0  0  0  0  0  0  0  0  0  0  0  0
    5.8660    3.0140   23.1160 O   0  0  0  0  0  0  0  0  0  0  0  0
    4.9280    3.2440   22.0870 C   0  0  0  0  0  0  0  0  0  0  0  0
    3.7670    2.3770   22.4070 C   0  0  0  0  0  0  0  0  0  0  0  0
    5.8000    0.4020   25.2120 N   0  0  0  0  0  0  0  0  0  0  0  0
    6.0330   -0.2090   26.5220 C   0  0  0  0  0  0  0  0  0  0  0  0
    6.1850   -5.2100   23.8240 C   0  0  0  0  0  0  0  0  0  0  0  0
    6.6560   -5.4820   22.3810 C   0  0  0  0  0  0  0  0  0  0  0  0
  1  2  1  0
  2  3  2  0
  2  4  1  0
  4  5  1  0
  5  6  1  0
  6  7  1  0
  7  8  1  0
  8  9  2  0
  8 10  1  0
 11 10  1  6
 11 12  1  0
 12 13  1  0
 13 14  1  0
 14 15  1  0
 15 16  1  0
 16 17  2  0
 17 18  1  0
 18 19  2  0
 18 20  1  0
 20 21  1  0
 21 22  1  0
 17 23  1  0
 11 24  1  0
 15 24  1  0
 23 24  2  0
  7 25  1  0
  4 26  1  0
 25 26  1  0
M  END
