piperidine-amides-32524-covalent
     RDKit          3D

 29 32  0  0  0  0  0  0  0  0999 V2000
    7.0310   -3.3920   19.4720 C   0  0  0  0  0  0  0  0  0  0  0  0
    6.3240   -4.2850   20.4270 C   0  0  0  0  0  0  0  0  0  0  0  0
    5.3710   -4.9580   20.0040 O   0  0  0  0  0  0  0  0  0  0  0  0
    6.7730   -4.3830   21.7700 N   0  0  0  0  0  0  0  0  0  0  0  0
    6.5990   -5.6050   22.5330 C   0  0  0  0  0  0  0  0  0  0  0  0
    6.1700   -5.2800   23.9890 C   0  0  0  0  0  0  0  0  0  0  0  0
    6.0400   -3.7980   24.1250 C   0  0  0  0  0  0  0  0  0  0  0  0
    5.4480   -3.2020   25.3850 C   0  0  0  0  0  0  0  0  0  0  0  0
    4.9700   -2.0870   25.1960 O   0  0  0  0  0  0  0  0  0  0  0  0
    5.3760   -3.7810   26.6890 N   0  0  0  0  0  0  0  0  0  0  0  0
    6.4400   -3.7490   27.5640 C   0  0  0  0  0  0  0  0  0  0  0  0
    6.7560   -4.8430   28.3390 C   0  0  0  0  0  0  0  0  0  0  0  0
    5.5250   -4.9940   29.0560 O   0  0  0  0  0  0  0  0  0  0  0  0
    4.6860   -3.9330   28.7890 C   0  0  0  0  0  0  0  0  0  0  0  0
    4.2220   -3.6980   27.4920 C   0  0  2  0  0  0  0  0  0  0  0  0
    2.9030   -4.3130   27.1600 C   0  0  0  0  0  0  0  0  0  0  0  0
    2.0980   -3.6790   26.2060 N   0  0  0  0  0  0  0  0  0  0  0  0
    0.9370   -4.4740   26.1110 C   0  0  0  0  0  0  0  0  0  0  0  0
    1.0570   -5.5040   26.9560 N   0  0  0  0  0  0  0  0  0  0  0  0
    0.0870   -6.4240   27.0760 C   0  0  0  0  0  0  0  0  0  0  0  0
    0.2100   -7.6110   26.3830 C   0  0  0  0  0  0  0  0  0  0  0  0
    1.3630   -8.5210   26.5330 C   0  0  0  0  0  0  0  0  0  0  0  0
    1.2370   -9.7900   25.6360 C   0  0  0  0  0  0  0  0  0  0  0  0
    0.3490  -10.3700   24.6950 C   0  0  0  0  0  0  0  0  0  0  0  0
   -0.7030   -9.2390   24.7480 C   0  0  0  0  0  0  0  0  0  0  0  0
   -0.7410   -7.9870   25.5300 C   0  0  0  0  0  0  0  0  0  0  0  0
    2.2260   -5.4140   27.5820 N   0  0  0  0  0  0  0  0  0  0  0  0
    7.3480   -3.1170   23.7900 C   0  0  0  0  0  0  0  0  0  0  0  0
    7.5860   -3.2960   22.3320 C   0  0  0  0  0  0  0  0  0  0  0  0
  1  2  1  0
  2  3  2  0
  2  4  1  0
  4  5  1  0
  5  6  1  0
  6  7  1  0
  7  8  1  0
  8  9  2  0
  8 10  1  0
 10 11  1  0
 11 12  1  0
 12 13  1  0
 13 14  1  0
 10 15  1  0
 14 15  1  0
 15 16  1  6
 16 17  1  0
 17 18  2  0
 18 19  1  0
 19 20  1  0
 20 21  1  0
 21 22  2  0
 22 23  1  0
 23 24  2  0
 24 25  1  0
 21 26  1  0
 25 26  2  0
 16 27  2  0
 19 27  1  0
  7 28  1  0
  4 29  1  0
 28 29  1  0
M  END
