piperidine-amides-3187-covalent
     RDKit          3D

 22 24  0  0  0  0  0  0  0  0999 V2000
    7.0690   -3.3100   19.2300 C   0  0  0  0  0  0  0  0  0  0  0  0
    6.3430   -4.0810   20.2320 C   0  0  0  0  0  0  0  0  0  0  0  0
    5.3070   -4.6610   19.9240 O   0  0  0  0  0  0  0  0  0  0  0  0
    6.8650   -4.2090   21.5610 N   0  0  0  0  0  0  0  0  0  0  0  0
    7.6120   -3.1350   22.1480 C   0  0  0  0  0  0  0  0  0  0  0  0
    6.8890   -2.6630   23.3680 C   0  0  0  0  0  0  0  0  0  0  0  0
    6.5840   -3.8890   24.2070 C   0  0  0  0  0  0  0  0  0  0  0  0
    5.8270   -3.4690   25.4130 C   0  0  0  0  0  0  0  0  0  0  0  0
    4.6490   -3.0640   25.3510 O   0  0  0  0  0  0  0  0  0  0  0  0
    6.4680   -3.5330   26.6720 N   0  0  0  0  0  0  0  0  0  0  0  0
    6.9060   -4.8240   27.1580 C   0  0  0  0  0  0  0  0  0  0  0  0
    5.6910   -5.6830   27.3190 C   0  0  0  0  0  0  0  0  0  0  0  0
    5.6050   -6.5600   28.3810 C   0  0  0  0  0  0  0  0  0  0  0  0
    5.0940   -6.2140   29.6330 C   0  0  2  0  0  0  0  0  0  0  0  0
    5.2870   -7.1550   30.6430 C   0  0  0  0  0  0  0  0  0  0  0  0
    4.0030   -7.3440   31.2800 C   0  0  1  0  0  0  0  0  0  0  0  0
    3.4640   -6.2640   31.9140 C   0  0  0  0  0  0  0  0  0  0  0  0
    3.3290   -5.3420   30.8840 C   0  0  0  0  0  0  0  0  0  0  0  0
    3.7100   -6.0380   29.7190 C   0  0  2  0  0  0  0  0  0  0  0  0
    3.2450   -7.3620   30.1000 C   0  0  0  0  0  0  0  0  0  0  0  0
    5.8150   -4.9510   23.4330 C   0  0  0  0  0  0  0  0  0  0  0  0
    6.5930   -5.3740   22.3550 C   0  0  0  0  0  0  0  0  0  0  0  0
  1  2  1  0
  2  3  2  0
  2  4  1  0
  4  5  1  0
  5  6  1  0
  6  7  1  0
  7  8  1  0
  8  9  2  0
  8 10  1  0
 10 11  1  0
 11 12  1  0
 12 13  1  0
 14 13  1  6
 14 15  1  0
 16 15  1  6
 16 17  1  0
 17 18  1  0
 14 19  1  0
 19 18  1  1
 16 20  1  0
 19 20  1  0
  7 21  1  0
  4 22  1  0
 21 22  1  0
M  END
