piperidine-amides-24094-covalent
     RDKit          3D

 24 26  0  0  0  0  0  0  0  0999 V2000
    7.0530   -3.3970   19.4060 C   0  0  0  0  0  0  0  0  0  0  0  0
    6.3930   -4.2400   20.4120 C   0  0  0  0  0  0  0  0  0  0  0  0
    5.3990   -4.8970   20.0020 O   0  0  0  0  0  0  0  0  0  0  0  0
    6.8830   -4.3610   21.7500 N   0  0  0  0  0  0  0  0  0  0  0  0
    6.3940   -5.3930   22.5750 C   0  0  0  0  0  0  0  0  0  0  0  0
    5.9420   -4.9610   23.9110 C   0  0  0  0  0  0  0  0  0  0  0  0
    6.3400   -3.6020   24.4050 C   0  0  0  0  0  0  0  0  0  0  0  0
    5.2670   -3.0260   25.3420 C   0  0  0  0  0  0  0  0  0  0  0  0
    4.2280   -2.5900   24.8360 O   0  0  0  0  0  0  0  0  0  0  0  0
    5.4060   -2.9940   26.7680 N   0  0  0  0  0  0  0  0  0  0  0  0
    4.5530   -2.5230   27.8100 C   0  0  0  0  0  0  0  0  0  0  0  0
    4.7720   -2.9310   29.2460 C   0  0  0  0  0  0  0  0  0  0  0  0
    5.0040   -4.4490   29.3290 C   0  0  0  0  0  0  0  0  0  0  0  0
    4.4910   -5.2460   30.3730 C   0  0  0  0  0  0  0  0  0  0  0  0
    3.7440   -4.6770   31.3860 O   0  0  0  0  0  0  0  0  0  0  0  0
    3.6480   -5.4850   32.5080 C   0  0  0  0  0  0  0  0  0  0  0  0
    4.7410   -6.7670   30.4140 C   0  0  0  0  0  0  0  0  0  0  0  0
    5.5530   -7.2060   29.2290 C   0  0  0  0  0  0  0  0  0  0  0  0
    6.0380   -6.2780   28.1780 C   0  0  0  0  0  0  0  0  0  0  0  0
    6.7490   -6.6570   27.1120 F   0  0  0  0  0  0  0  0  0  0  0  0
    5.7430   -4.8370   28.2570 C   0  0  0  0  0  0  0  0  0  0  0  0
    6.2490   -3.9680   27.1740 C   0  0  0  0  0  0  0  0  0  0  0  0
    6.6870   -2.6690   23.2740 C   0  0  0  0  0  0  0  0  0  0  0  0
    7.6040   -3.3050   22.4260 C   0  0  0  0  0  0  0  0  0  0  0  0
  1  2  1  0
  2  3  2  0
  2  4  1  0
  4  5  1  0
  5  6  1  0
  6  7  1  0
  7  8  1  0
  8  9  2  0
  8 10  1  0
 10 11  1  0
 11 12  1  0
 12 13  1  0
 13 14  2  0
 14 15  1  0
 15 16  1  0
 14 17  1  0
 17 18  2  0
 18 19  1  0
 19 20  1  0
 13 21  1  0
 19 21  2  0
 10 22  1  0
 21 22  1  0
  7 23  1  0
  4 24  1  0
 23 24  1  0
M  END
