piperidine-amides-1832-covalent
     RDKit          3D

 19 19  0  0  0  0  0  0  0  0999 V2000
    7.1330   -3.2460   19.2060 C   0  0  0  0  0  0  0  0  0  0  0  0
    6.3660   -4.0100   20.2220 C   0  0  0  0  0  0  0  0  0  0  0  0
    5.3000   -4.5130   19.8720 O   0  0  0  0  0  0  0  0  0  0  0  0
    6.8900   -4.1760   21.5040 N   0  0  0  0  0  0  0  0  0  0  0  0
    7.6660   -3.1550   22.1610 C   0  0  0  0  0  0  0  0  0  0  0  0
    6.9250   -2.6550   23.3700 C   0  0  0  0  0  0  0  0  0  0  0  0
    6.5380   -3.8410   24.2580 C   0  0  0  0  0  0  0  0  0  0  0  0
    5.8160   -3.2940   25.4320 C   0  0  0  0  0  0  0  0  0  0  0  0
    4.7850   -2.6330   25.2490 O   0  0  0  0  0  0  0  0  0  0  0  0
    6.2680   -3.5150   26.7580 N   0  0  0  0  0  0  0  0  0  0  0  0
    5.7090   -4.6340   27.4950 C   0  0  1  0  0  0  0  0  0  0  0  0
    5.7320   -5.8150   26.5750 C   0  0  0  0  0  0  0  0  0  0  0  0
    4.4470   -6.2640   26.3350 O   0  0  0  0  0  0  0  0  0  0  0  0
    6.4650   -5.0650   28.7110 C   0  0  0  0  0  0  0  0  0  0  0  0
    5.3970   -5.7930   29.1510 C   0  0  0  0  0  0  0  0  0  0  0  0
    5.2680   -7.1230   28.8350 C   0  0  0  0  0  0  0  0  0  0  0  0
    5.5040   -6.7960   30.1880 C   0  0  0  0  0  0  0  0  0  0  0  0
    5.7610   -4.8820   23.5080 C   0  0  0  0  0  0  0  0  0  0  0  0
    6.4900   -5.3230   22.2750 C   0  0  0  0  0  0  0  0  0  0  0  0
  1  2  1  0
  2  3  2  0
  2  4  1  0
  4  5  1  0
  5  6  1  0
  6  7  1  0
  7  8  1  0
  8  9  2  0
  8 10  1  0
 10 11  1  0
 11 12  1  6
 12 13  1  0
 11 14  1  0
 14 15  1  0
 15 16  1  0
 15 17  1  0
  7 18  1  0
  4 19  1  0
 18 19  1  0
M  END
