piperidine-amides-958-covalent
     RDKit          3D

 24 26  0  0  0  0  0  0  0  0999 V2000
    7.1250   -3.2630   19.1870 C   0  0  0  0  0  0  0  0  0  0  0  0
    6.3590   -4.0230   20.2130 C   0  0  0  0  0  0  0  0  0  0  0  0
    5.2920   -4.5680   19.8900 O   0  0  0  0  0  0  0  0  0  0  0  0
    6.8870   -4.1510   21.5150 N   0  0  0  0  0  0  0  0  0  0  0  0
    6.5990   -5.3190   22.3110 C   0  0  0  0  0  0  0  0  0  0  0  0
    6.1570   -4.8390   23.7050 C   0  0  0  0  0  0  0  0  0  0  0  0
    5.9650   -3.3580   23.6380 C   0  0  0  0  0  0  0  0  0  0  0  0
    5.2620   -2.8050   24.8140 C   0  0  0  0  0  0  0  0  0  0  0  0
    4.0680   -3.0930   24.9270 O   0  0  0  0  0  0  0  0  0  0  0  0
    5.9350   -2.0060   25.7370 N   0  0  0  0  0  0  0  0  0  0  0  0
    6.1080   -2.3850   27.0750 C   0  0  0  0  0  0  0  0  0  0  0  0
    5.9410   -3.6780   27.4340 C   0  0  2  0  0  0  0  0  0  0  0  0
    4.8160   -4.3660   26.9600 C   0  0  0  0  0  0  0  0  0  0  0  0
    6.0470   -3.8220   28.9160 C   0  0  0  0  0  0  0  0  0  0  0  0
    5.8310   -5.2370   29.2840 C   0  0  0  0  0  0  0  0  0  0  0  0
    6.6030   -6.2590   28.4730 C   0  0  0  0  0  0  0  0  0  0  0  0
    7.4440   -5.5110   27.4330 C   0  0  0  0  0  0  0  0  0  0  0  0
    8.5450   -6.1150   27.0070 C   0  0  0  0  0  0  0  0  0  0  0  0
    9.4800   -5.6400   26.0290 C   0  0  0  0  0  0  0  0  0  0  0  0
    9.0040   -4.2930   25.5430 C   0  0  0  0  0  0  0  0  0  0  0  0
    7.9370   -3.4550   25.8240 C   0  0  0  0  0  0  0  0  0  0  0  0
    7.1650   -4.2940   26.9040 C   0  0  0  0  0  0  0  0  0  0  0  0
    7.2020   -2.5890   23.3420 C   0  0  0  0  0  0  0  0  0  0  0  0
    7.7850   -3.1460   22.0580 C   0  0  0  0  0  0  0  0  0  0  0  0
  1  2  1  0
  2  3  2  0
  2  4  1  0
  4  5  1  0
  5  6  1  0
  6  7  1  0
  7  8  1  0
  8  9  2  0
  8 10  1  0
 10 11  1  0
 12 11  1  0
 12 13  1  6
 12 14  1  0
 14 15  1  0
 15 16  1  0
 16 17  1  0
 17 18  2  0
 18 19  1  0
 19 20  2  0
 20 21  1  0
 12 22  1  0
 17 22  1  0
 21 22  2  0
  7 23  1  0
  4 24  1  0
 23 24  1  0
M  END
