piperidine-amides-14921-covalent
     RDKit          3D

 21 21  0  0  0  0  0  0  0  0999 V2000
    7.1370   -3.3120   19.2420 C   0  0  0  0  0  0  0  0  0  0  0  0
    6.3910   -4.0690   20.2390 C   0  0  0  0  0  0  0  0  0  0  0  0
    5.3050   -4.5750   19.9020 O   0  0  0  0  0  0  0  0  0  0  0  0
    6.9430   -4.2630   21.5280 N   0  0  0  0  0  0  0  0  0  0  0  0
    6.4540   -5.3420   22.3220 C   0  0  0  0  0  0  0  0  0  0  0  0
    5.6040   -4.7710   23.4230 C   0  0  0  0  0  0  0  0  0  0  0  0
    6.4770   -3.8260   24.2270 C   0  0  0  0  0  0  0  0  0  0  0  0
    5.7320   -3.3600   25.4410 C   0  0  0  0  0  0  0  0  0  0  0  0
    4.5220   -3.2070   25.3100 O   0  0  0  0  0  0  0  0  0  0  0  0
    6.4520   -3.1260   26.6070 N   0  0  0  0  0  0  0  0  0  0  0  0
    6.2110   -3.8150   27.8370 C   0  0  0  0  0  0  0  0  0  0  0  0
    5.9330   -5.1930   27.7330 C   0  0  0  0  0  0  0  0  0  0  0  0
    4.4990   -5.3110   28.1030 N   0  0  0  0  0  0  0  0  0  0  0  0
    4.1920   -5.7770   29.7490 S   0  0  0  0  0  0  0  0  0  0  0  0
    4.0580   -4.5510   30.6160 O   0  0  0  0  0  0  0  0  0  0  0  0
    2.9200   -6.5550   29.8770 O   0  0  0  0  0  0  0  0  0  0  0  0
    5.5340   -6.7000   30.3100 N   0  0  0  0  0  0  0  0  0  0  0  0
    5.2000   -7.2210   31.6030 C   0  0  0  0  0  0  0  0  0  0  0  0
    5.6230   -7.7640   29.5210 C   0  0  0  0  0  0  0  0  0  0  0  0
    6.8970   -2.6690   23.3620 C   0  0  0  0  0  0  0  0  0  0  0  0
    7.7050   -3.2470   22.1910 C   0  0  0  0  0  0  0  0  0  0  0  0
  1  2  1  0
  2  3  2  0
  2  4  1  0
  4  5  1  0
  5  6  1  0
  6  7  1  0
  7  8  1  0
  8  9  2  0
  8 10  1  0
 10 11  1  0
 11 12  1  0
 12 13  1  0
 14 13  1  0
 14 15  2  0
 14 16  2  0
 14 17  1  0
 17 18  1  0
 17 19  1  0
  7 20  1  0
  4 21  1  0
 20 21  1  0
M  END
