piperidine-amides-12800-covalent
     RDKit          3D

 22 23  0  0  0  0  0  0  0  0999 V2000
    7.0970   -3.3390   19.3350 C   0  0  0  0  0  0  0  0  0  0  0  0
    6.3520   -4.1360   20.3350 C   0  0  0  0  0  0  0  0  0  0  0  0
    5.3130   -4.6980   19.9350 O   0  0  0  0  0  0  0  0  0  0  0  0
    6.8320   -4.2790   21.6440 N   0  0  0  0  0  0  0  0  0  0  0  0
    7.6630   -3.2660   22.1980 C   0  0  0  0  0  0  0  0  0  0  0  0
    7.3530   -3.0500   23.5920 C   0  0  0  0  0  0  0  0  0  0  0  0
    6.0330   -3.6080   23.9520 C   0  0  0  0  0  0  0  0  0  0  0  0
    5.6660   -3.2750   25.3500 C   0  0  0  0  0  0  0  0  0  0  0  0
    4.4850   -3.4560   25.7040 O   0  0  0  0  0  0  0  0  0  0  0  0
    6.6270   -2.7810   26.2430 N   0  0  0  0  0  0  0  0  0  0  0  0
    6.4950   -1.5430   27.0580 C   0  0  0  0  0  0  0  0  0  0  0  0
    7.0920   -1.5780   28.4020 C   0  0  0  0  0  0  0  0  0  0  0  0
    7.0180   -0.4240   29.2550 C   0  0  0  0  0  0  0  0  0  0  0  0
    6.3720    0.6860   28.7520 C   0  0  0  0  0  0  0  0  0  0  0  0
    5.7990    0.7380   27.4800 C   0  0  0  0  0  0  0  0  0  0  0  0
    5.0140    2.2370   27.0040 Cl  0  0  0  0  0  0  0  0  0  0  0  0
    5.8290   -0.3280   26.6090 C   0  0  0  0  0  0  0  0  0  0  0  0
    5.2310   -0.2280   25.3350 N   0  0  0  0  0  0  0  0  0  0  0  0
    6.0930   -0.2120   24.2000 C   0  0  0  0  0  0  0  0  0  0  0  0
    3.9700   -1.0380   25.3180 C   0  0  0  0  0  0  0  0  0  0  0  0
    5.9430   -5.0970   23.6880 C   0  0  0  0  0  0  0  0  0  0  0  0
    6.6620   -5.4840   22.4340 C   0  0  0  0  0  0  0  0  0  0  0  0
  1  2  1  0
  2  3  2  0
  2  4  1  0
  4  5  1  0
  5  6  1  0
  6  7  1  0
  7  8  1  0
  8  9  2  0
  8 10  1  0
 10 11  1  0
 11 12  2  0
 12 13  1  0
 13 14  2  0
 14 15  1  0
 15 16  1  0
 11 17  1  0
 15 17  2  0
 17 18  1  0
 18 19  1  0
 18 20  1  0
  7 21  1  0
  4 22  1  0
 21 22  1  0
M  END
