piperidine-amides-25771-covalent
     RDKit          3D

 25 27  0  0  0  0  0  0  0  0999 V2000
    7.0860   -3.3250   19.2630 C   0  0  0  0  0  0  0  0  0  0  0  0
    6.3930   -4.1840   20.2500 C   0  0  0  0  0  0  0  0  0  0  0  0
    5.3060   -4.6500   19.9190 O   0  0  0  0  0  0  0  0  0  0  0  0
    6.9990   -4.4950   21.4720 N   0  0  0  0  0  0  0  0  0  0  0  0
    6.6690   -5.7100   22.1450 C   0  0  0  0  0  0  0  0  0  0  0  0
    5.6930   -5.3660   23.2130 C   0  0  0  0  0  0  0  0  0  0  0  0
    6.2570   -4.2210   24.0400 C   0  0  0  0  0  0  0  0  0  0  0  0
    5.1580   -3.7140   24.8630 C   0  0  0  0  0  0  0  0  0  0  0  0
    4.0470   -3.5140   24.3680 O   0  0  0  0  0  0  0  0  0  0  0  0
    5.3680   -3.4430   26.1860 N   0  0  0  0  0  0  0  0  0  0  0  0
    4.3420   -2.6440   26.8000 C   0  0  0  0  0  0  0  0  0  0  0  0
    4.6160   -2.5380   28.2660 C   0  0  0  0  0  0  0  0  0  0  0  0
    5.8570   -2.4350   28.7190 C   0  0  1  0  0  0  0  0  0  0  0  0
    5.9230   -2.6120   29.9600 C   0  0  0  0  0  0  0  0  0  0  0  0
    6.5640   -3.5600   28.0530 C   0  0  1  0  0  0  0  0  0  0  0  0
    5.8290   -4.8740   28.3300 C   0  0  0  0  0  0  0  0  0  0  0  0
    4.3500   -4.5990   28.2440 C   0  0  0  0  0  0  0  0  0  0  0  0
    3.3730   -5.7300   28.5030 C   0  0  0  0  0  0  0  0  0  0  0  0
    3.9380   -7.0690   28.8340 C   0  0  0  0  0  0  0  0  0  0  0  0
    3.0120   -8.0930   29.0790 O   0  0  0  0  0  0  0  0  0  0  0  0
    5.4040   -7.2860   28.9010 C   0  0  0  0  0  0  0  0  0  0  0  0
    6.4320   -6.2080   28.6520 C   0  0  0  0  0  0  0  0  0  0  0  0
    6.5510   -3.0570   26.7740 C   0  0  0  0  0  0  0  0  0  0  0  0
    6.7930   -3.0430   23.2210 C   0  0  0  0  0  0  0  0  0  0  0  0
    7.6740   -3.4830   22.2670 C   0  0  0  0  0  0  0  0  0  0  0  0
  1  2  1  0
  2  3  2  0
  2  4  1  0
  4  5  1  0
  5  6  1  0
  6  7  1  0
  7  8  1  0
  8  9  2  0
  8 10  1  0
 10 11  1  0
 11 12  1  0
 12 13  1  0
 13 14  1  1
 13 15  1  0
 15 16  1  6
 16 17  2  0
 17 18  1  0
 18 19  2  0
 19 20  1  0
 19 21  1  0
 16 22  1  0
 21 22  2  0
 10 23  1  0
 15 23  1  0
  7 24  1  0
  4 25  1  0
 24 25  1  0
M  END
