piperidine-amides-9304-covalent
     RDKit          3D

 19 19  0  0  0  0  0  0  0  0999 V2000
    7.1670   -3.2520   19.1320 C   0  0  0  0  0  0  0  0  0  0  0  0
    6.3760   -3.9590   20.1410 C   0  0  0  0  0  0  0  0  0  0  0  0
    5.2800   -4.4540   19.8420 O   0  0  0  0  0  0  0  0  0  0  0  0
    6.8720   -4.1290   21.4340 N   0  0  0  0  0  0  0  0  0  0  0  0
    7.7560   -3.1540   22.0400 C   0  0  0  0  0  0  0  0  0  0  0  0
    7.0010   -2.5930   23.1980 C   0  0  0  0  0  0  0  0  0  0  0  0
    6.5820   -3.7020   24.0960 C   0  0  0  0  0  0  0  0  0  0  0  0
    5.8380   -3.2030   25.2580 C   0  0  0  0  0  0  0  0  0  0  0  0
    4.9280   -2.3360   25.1290 O   0  0  0  0  0  0  0  0  0  0  0  0
    6.0830   -3.6820   26.5460 N   0  0  0  0  0  0  0  0  0  0  0  0
    5.1330   -4.6510   27.1050 C   0  0  0  0  0  0  0  0  0  0  0  0
    5.8590   -5.7650   27.7210 C   0  0  1  0  0  0  0  0  0  0  0  0
    6.7330   -6.3310   27.0400 O   0  0  0  0  0  0  0  0  0  0  0  0
    6.5730   -5.3380   28.9060 C   0  0  0  0  0  0  0  0  0  0  0  0
    6.6560   -6.0580   29.9870 O   0  0  0  0  0  0  0  0  0  0  0  0
    7.1920   -4.1050   28.9120 O   0  0  0  0  0  0  0  0  0  0  0  0
    6.4990   -2.8540   28.9090 C   0  0  0  0  0  0  0  0  0  0  0  0
    5.9070   -4.8660   23.4550 C   0  0  0  0  0  0  0  0  0  0  0  0
    6.5730   -5.2920   22.2080 C   0  0  0  0  0  0  0  0  0  0  0  0
  1  2  1  0
  2  3  2  0
  2  4  1  0
  4  5  1  0
  5  6  1  0
  6  7  1  0
  7  8  1  0
  8  9  2  0
  8 10  1  0
 10 11  1  0
 11 12  1  0
 12 13  1  6
 12 14  1  0
 14 15  2  0
 14 16  1  0
 16 17  1  0
  7 18  1  0
  4 19  1  0
 18 19  1  0
M  END
