piperidine-amides-3114-covalent
     RDKit          3D

 23 24  0  0  0  0  0  0  0  0999 V2000
    7.1270   -3.2920   19.2680 C   0  0  0  0  0  0  0  0  0  0  0  0
    6.3880   -4.0800   20.2460 C   0  0  0  0  0  0  0  0  0  0  0  0
    5.3400   -4.6450   19.9250 O   0  0  0  0  0  0  0  0  0  0  0  0
    6.9150   -4.2400   21.5710 N   0  0  0  0  0  0  0  0  0  0  0  0
    7.7050   -3.1710   22.1440 C   0  0  0  0  0  0  0  0  0  0  0  0
    7.3530   -2.9200   23.5880 C   0  0  0  0  0  0  0  0  0  0  0  0
    6.0320   -3.6050   23.9000 C   0  0  0  0  0  0  0  0  0  0  0  0
    5.5810   -3.2230   25.2610 C   0  0  0  0  0  0  0  0  0  0  0  0
    4.4090   -2.8880   25.5130 O   0  0  0  0  0  0  0  0  0  0  0  0
    6.5430   -3.2430   26.2830 N   0  0  0  0  0  0  0  0  0  0  0  0
    6.1520   -2.9500   27.6340 C   0  0  0  0  0  0  0  0  0  0  0  0
    5.6540   -4.2030   28.3200 C   0  0  0  0  0  0  0  0  0  0  0  0
    4.4700   -4.0580   29.0200 C   0  0  0  0  0  0  0  0  0  0  0  0
    3.9410   -5.1280   29.7380 C   0  0  0  0  0  0  0  0  0  0  0  0
    4.6420   -6.3300   29.5740 N   0  0  0  0  0  0  0  0  0  0  0  0
    5.8590   -6.5410   30.2050 C   0  0  0  0  0  0  0  0  0  0  0  0
    6.8930   -6.5530   29.5320 O   0  0  0  0  0  0  0  0  0  0  0  0
    5.9850   -6.7150   31.5720 O   0  0  0  0  0  0  0  0  0  0  0  0
    5.5190   -7.8350   32.1640 C   0  0  0  0  0  0  0  0  0  0  0  0
    4.6810   -6.4650   28.1420 C   0  0  0  0  0  0  0  0  0  0  0  0
    5.3870   -5.4280   27.5440 C   0  0  0  0  0  0  0  0  0  0  0  0
    6.0000   -5.0640   23.6510 C   0  0  0  0  0  0  0  0  0  0  0  0
    6.5330   -5.3750   22.3300 C   0  0  0  0  0  0  0  0  0  0  0  0
  1  2  1  0
  2  3  2  0
  2  4  1  0
  4  5  1  0
  5  6  1  0
  6  7  1  0
  7  8  1  0
  8  9  2  0
  8 10  1  0
 10 11  1  0
 11 12  1  0
 12 13  1  0
 13 14  1  0
 14 15  1  0
 15 16  1  0
 16 17  2  0
 16 18  1  0
 18 19  1  0
 15 20  1  0
 12 21  1  0
 20 21  1  0
  7 22  1  0
  4 23  1  0
 22 23  1  0
M  END
