piperidine-amides-11192-covalent
     RDKit          3D

 19 19  0  0  0  0  0  0  0  0999 V2000
    7.1150   -3.2690   19.2090 C   0  0  0  0  0  0  0  0  0  0  0  0
    6.3490   -4.0070   20.2130 C   0  0  0  0  0  0  0  0  0  0  0  0
    5.2830   -4.5530   19.8850 O   0  0  0  0  0  0  0  0  0  0  0  0
    6.8250   -4.1520   21.5220 N   0  0  0  0  0  0  0  0  0  0  0  0
    7.7180   -3.1770   22.1180 C   0  0  0  0  0  0  0  0  0  0  0  0
    7.2570   -3.0190   23.5300 C   0  0  0  0  0  0  0  0  0  0  0  0
    5.9600   -3.7340   23.7340 C   0  0  0  0  0  0  0  0  0  0  0  0
    5.4030   -3.5250   25.0710 C   0  0  0  0  0  0  0  0  0  0  0  0
    4.1570   -3.4130   25.2520 O   0  0  0  0  0  0  0  0  0  0  0  0
    6.2220   -3.4340   26.1860 N   0  0  0  0  0  0  0  0  0  0  0  0
    6.4270   -2.1220   26.7790 C   0  0  0  0  0  0  0  0  0  0  0  0
    6.2890   -2.2870   28.2230 C   0  0  0  0  0  0  0  0  0  0  0  0
    4.9380   -2.0260   28.7440 C   0  0  0  0  0  0  0  0  0  0  0  0
    6.5320   -3.7130   28.6460 C   0  0  0  0  0  0  0  0  0  0  0  0
    7.1300   -1.3100   28.9740 C   0  0  2  0  0  0  0  0  0  0  0  0
    6.6350   -1.0050   30.3310 C   0  0  0  0  0  0  0  0  0  0  0  0
    7.2940   -0.0220   28.4030 O   0  0  0  0  0  0  0  0  0  0  0  0
    6.1590   -5.2040   23.4650 C   0  0  0  0  0  0  0  0  0  0  0  0
    6.6320   -5.4340   22.1710 C   0  0  0  0  0  0  0  0  0  0  0  0
  1  2  1  0
  2  3  2  0
  2  4  1  0
  4  5  1  0
  5  6  1  0
  6  7  1  0
  7  8  1  0
  8  9  2  0
  8 10  1  0
 10 11  1  0
 12 11  1  0
 12 13  1  0
 12 14  1  0
 12 15  1  0
 15 16  1  1
 15 17  1  0
  7 18  1  0
  4 19  1  0
 18 19  1  0
M  END
