piperidine-amides-15124-covalent
     RDKit          3D

 21 22  0  0  0  0  0  0  0  0999 V2000
    7.0770   -3.2590   19.1770 C   0  0  0  0  0  0  0  0  0  0  0  0
    6.2670   -4.0390   20.1190 C   0  0  0  0  0  0  0  0  0  0  0  0
    5.1420   -4.4120   19.7900 O   0  0  0  0  0  0  0  0  0  0  0  0
    6.7930   -4.3860   21.3710 N   0  0  0  0  0  0  0  0  0  0  0  0
    7.4500   -3.3330   22.0620 C   0  0  0  0  0  0  0  0  0  0  0  0
    6.5310   -2.8380   23.1260 C   0  0  0  0  0  0  0  0  0  0  0  0
    6.4160   -3.9790   24.1010 C   0  0  0  0  0  0  0  0  0  0  0  0
    5.8920   -3.4420   25.3770 C   0  0  0  0  0  0  0  0  0  0  0  0
    4.6760   -3.5030   25.5870 O   0  0  0  0  0  0  0  0  0  0  0  0
    6.8540   -2.8940   26.2080 N   0  0  0  0  0  0  0  0  0  0  0  0
    7.7980   -1.9320   25.7260 C   0  0  0  0  0  0  0  0  0  0  0  0
    8.9610   -2.4540   25.0950 C   0  0  2  0  0  0  0  0  0  0  0  0
   10.1380   -1.7730   25.1300 C   0  0  0  0  0  0  0  0  0  0  0  0
   11.0410   -2.2620   24.2650 C   0  0  0  0  0  0  0  0  0  0  0  0
   10.2860   -2.7290   23.2230 N   0  0  0  0  0  0  0  0  0  0  0  0
   10.5180   -1.9490   22.0210 C   0  0  0  0  0  0  0  0  0  0  0  0
   11.9650   -2.0540   21.4690 C   0  0  0  0  0  0  0  0  0  0  0  0
    9.6510   -1.1180   21.3560 O   0  0  0  0  0  0  0  0  0  0  0  0
    8.9300   -2.8380   23.7580 C   0  0  0  0  0  0  0  0  0  0  0  0
    5.6590   -5.0820   23.4650 C   0  0  0  0  0  0  0  0  0  0  0  0
    6.1780   -5.4950   22.0690 C   0  0  0  0  0  0  0  0  0  0  0  0
  1  2  1  0
  2  3  2  0
  2  4  1  0
  4  5  1  0
  5  6  1  0
  6  7  1  0
  7  8  1  0
  8  9  2  0
  8 10  1  0
 10 11  1  0
 12 11  1  6
 12 13  1  0
 13 14  1  0
 14 15  1  0
 15 16  1  0
 16 17  1  0
 16 18  2  0
 12 19  1  0
 15 19  1  0
  7 20  1  0
  4 21  1  0
 20 21  1  0
M  END
