piperidine-amides-14515-covalent
     RDKit          3D

 23 24  0  0  0  0  0  0  0  0999 V2000
    7.0850   -3.2790   19.2720 C   0  0  0  0  0  0  0  0  0  0  0  0
    6.3640   -4.0650   20.2750 C   0  0  0  0  0  0  0  0  0  0  0  0
    5.3190   -4.6370   19.9210 O   0  0  0  0  0  0  0  0  0  0  0  0
    6.8790   -4.2020   21.5930 N   0  0  0  0  0  0  0  0  0  0  0  0
    7.6630   -3.1330   22.1580 C   0  0  0  0  0  0  0  0  0  0  0  0
    7.4480   -3.0720   23.6430 C   0  0  0  0  0  0  0  0  0  0  0  0
    6.0700   -3.6430   23.8740 C   0  0  0  0  0  0  0  0  0  0  0  0
    5.5370   -3.3300   25.2380 C   0  0  0  0  0  0  0  0  0  0  0  0
    4.3180   -3.4110   25.3430 O   0  0  0  0  0  0  0  0  0  0  0  0
    6.4090   -2.9770   26.2660 N   0  0  0  0  0  0  0  0  0  0  0  0
    6.2660   -3.4420   27.6120 C   0  0  1  0  0  0  0  0  0  0  0  0
    6.7220   -2.5680   28.5970 C   0  0  0  0  0  0  0  0  0  0  0  0
    6.8750   -1.2360   28.2690 C   0  0  0  0  0  0  0  0  0  0  0  0
    7.5220   -0.5520   29.2820 O   0  0  0  0  0  0  0  0  0  0  0  0
    4.8090   -3.6280   27.8910 C   0  0  0  0  0  0  0  0  0  0  0  0
    3.8700   -2.5920   27.3790 C   0  0  0  0  0  0  0  0  0  0  0  0
    2.3350   -2.6280   27.5810 C   0  0  0  0  0  0  0  0  0  0  0  0
    1.8080   -3.7980   28.3520 C   0  0  0  0  0  0  0  0  0  0  0  0
    2.8630   -4.7720   28.8160 C   0  0  0  0  0  0  0  0  0  0  0  0
    2.4120   -6.0150   29.6240 C   0  0  0  0  0  0  0  0  0  0  0  0
    4.2130   -4.6700   28.5920 C   0  0  0  0  0  0  0  0  0  0  0  0
    6.1870   -5.1230   23.7010 C   0  0  0  0  0  0  0  0  0  0  0  0
    6.5790   -5.4390   22.2830 C   0  0  0  0  0  0  0  0  0  0  0  0
  1  2  1  0
  2  3  2  0
  2  4  1  0
  4  5  1  0
  5  6  1  0
  6  7  1  0
  7  8  1  0
  8  9  2  0
  8 10  1  0
 10 11  1  0
 11 12  1  1
 12 13  1  0
 13 14  1  0
 11 15  1  0
 15 16  2  0
 16 17  1  0
 17 18  2  0
 18 19  1  0
 19 20  1  0
 15 21  1  0
 19 21  2  0
  7 22  1  0
  4 23  1  0
 22 23  1  0
M  END
