piperidine-amides-10893-covalent
     RDKit          3D

 22 23  0  0  0  0  0  0  0  0999 V2000
    7.0590   -3.3310   19.3220 C   0  0  0  0  0  0  0  0  0  0  0  0
    6.3790   -4.1410   20.3340 C   0  0  0  0  0  0  0  0  0  0  0  0
    5.4100   -4.8430   19.9860 O   0  0  0  0  0  0  0  0  0  0  0  0
    6.8250   -4.1690   21.6680 N   0  0  0  0  0  0  0  0  0  0  0  0
    7.7410   -3.1630   22.1740 C   0  0  0  0  0  0  0  0  0  0  0  0
    7.4580   -3.0250   23.6370 C   0  0  0  0  0  0  0  0  0  0  0  0
    6.0980   -3.5450   23.9560 C   0  0  0  0  0  0  0  0  0  0  0  0
    5.6260   -3.1900   25.3120 C   0  0  0  0  0  0  0  0  0  0  0  0
    4.3880   -3.1380   25.5640 O   0  0  0  0  0  0  0  0  0  0  0  0
    6.5110   -2.9010   26.3690 N   0  0  0  0  0  0  0  0  0  0  0  0
    6.4560   -1.6360   27.1310 C   0  0  0  0  0  0  0  0  0  0  0  0
    7.0200   -1.6610   28.4950 C   0  0  0  0  0  0  0  0  0  0  0  0
    7.0020   -0.4540   29.3170 C   0  0  0  0  0  0  0  0  0  0  0  0
    6.4030    0.8010   28.7490 C   0  0  0  0  0  0  0  0  0  0  0  0
    6.3190    2.0470   29.4440 N   0  0  0  0  0  0  0  0  0  0  0  0
    6.9680    1.7890   30.7270 C   0  0  0  0  0  0  0  0  0  0  0  0
    5.0500    2.6610   29.7730 C   0  0  0  0  0  0  0  0  0  0  0  0
    5.8400    0.7650   27.3380 C   0  0  0  0  0  0  0  0  0  0  0  0
    5.1550    2.2560   26.7220 Cl  0  0  0  0  0  0  0  0  0  0  0  0
    5.8550   -0.3920   26.5400 C   0  0  0  0  0  0  0  0  0  0  0  0
    5.9880   -5.0640   23.7590 C   0  0  0  0  0  0  0  0  0  0  0  0
    6.6430   -5.4030   22.4080 C   0  0  0  0  0  0  0  0  0  0  0  0
  1  2  1  0
  2  3  2  0
  2  4  1  0
  4  5  1  0
  5  6  1  0
  6  7  1  0
  7  8  1  0
  8  9  2  0
  8 10  1  0
 10 11  1  0
 11 12  2  0
 12 13  1  0
 13 14  2  0
 14 15  1  0
 15 16  1  0
 15 17  1  0
 14 18  1  0
 18 19  1  0
 11 20  1  0
 18 20  2  0
  7 21  1  0
  4 22  1  0
 21 22  1  0
M  END
