piperidine-amides-30966-covalent
     RDKit          3D

 27 28  0  0  0  0  0  0  0  0999 V2000
    7.1060   -3.3590   19.3350 C   0  0  0  0  0  0  0  0  0  0  0  0
    6.3720   -4.1590   20.3080 C   0  0  0  0  0  0  0  0  0  0  0  0
    5.3320   -4.7370   19.9540 O   0  0  0  0  0  0  0  0  0  0  0  0
    6.8550   -4.3340   21.6110 N   0  0  0  0  0  0  0  0  0  0  0  0
    7.6910   -3.3480   22.2630 C   0  0  0  0  0  0  0  0  0  0  0  0
    6.8900   -2.8290   23.4270 C   0  0  0  0  0  0  0  0  0  0  0  0
    6.2790   -3.9310   24.2470 C   0  0  0  0  0  0  0  0  0  0  0  0
    5.1530   -3.4420   25.0900 C   0  0  0  0  0  0  0  0  0  0  0  0
    3.9790   -3.4440   24.6370 O   0  0  0  0  0  0  0  0  0  0  0  0
    5.3050   -2.9630   26.4040 N   0  0  0  0  0  0  0  0  0  0  0  0
    6.6220   -2.9470   26.9140 C   0  0  0  0  0  0  0  0  0  0  0  0
    6.5980   -3.9560   28.0060 C   0  0  0  0  0  0  0  0  0  0  0  0
    5.5600   -3.7120   28.9660 C   0  0  0  0  0  0  0  0  0  0  0  0
    5.5240   -2.3880   29.6380 N   0  0  0  0  0  0  0  0  0  0  0  0
    6.8080   -1.7080   29.2910 C   0  0  0  0  0  0  0  0  0  0  0  0
    6.6150   -0.6080   28.2710 C   0  0  0  0  0  0  0  0  0  0  0  0
    4.2230   -1.7370   29.6360 C   0  0  0  0  0  0  0  0  0  0  0  0
    3.0360   -2.4170   29.5940 O   0  0  0  0  0  0  0  0  0  0  0  0
    4.1200   -0.4880   29.6890 O   0  0  0  0  0  0  0  0  0  0  0  0
    4.3910    0.2830   30.8170 C   0  0  0  0  0  0  0  0  0  0  0  0
    5.6790    0.8420   30.8260 C   0  0  0  0  0  0  0  0  0  0  0  0
    5.4220   -0.1810   31.8650 C   0  0  0  0  0  0  0  0  0  0  0  0
    3.9960   -0.4910   32.1250 C   0  0  0  0  0  0  0  0  0  0  0  0
    4.4940   -4.1240   28.0330 C   0  0  0  0  0  0  0  0  0  0  0  0
    4.2320   -3.1810   27.3290 C   0  0  0  0  0  0  0  0  0  0  0  0
    5.7920   -5.1320   23.5220 C   0  0  0  0  0  0  0  0  0  0  0  0
    6.5030   -5.4630   22.3940 C   0  0  0  0  0  0  0  0  0  0  0  0
  1  2  1  0
  2  3  2  0
  2  4  1  0
  4  5  1  0
  5  6  1  0
  6  7  1  0
  7  8  1  0
  8  9  2  0
  8 10  1  0
 10 11  1  0
 11 12  1  0
 12 13  1  0
 13 14  1  0
 14 15  1  0
 15 16  1  0
 14 17  1  0
 17 18  2  0
 17 19  1  0
 20 19  1  0
 20 21  1  0
 20 22  1  0
 20 23  1  0
 13 24  1  0
 10 25  1  0
 24 25  1  0
  7 26  1  0
  4 27  1  0
 26 27  1  0
M  END
