piperidine-amides-129-covalent
     RDKit          3D

 26 28  0  0  0  0  0  0  0  0999 V2000
    7.1350   -3.2940   19.3500 C   0  0  0  0  0  0  0  0  0  0  0  0
    6.4000   -4.0700   20.3200 C   0  0  0  0  0  0  0  0  0  0  0  0
    5.3700   -4.7160   19.9440 O   0  0  0  0  0  0  0  0  0  0  0  0
    6.8250   -4.1650   21.6540 N   0  0  0  0  0  0  0  0  0  0  0  0
    7.5770   -3.0100   22.2060 C   0  0  0  0  0  0  0  0  0  0  0  0
    7.6420   -3.3490   23.7470 C   0  0  0  0  0  0  0  0  0  0  0  0
    6.2530   -3.8130   24.1160 C   0  0  0  0  0  0  0  0  0  0  0  0
    5.8890   -3.7270   25.6560 C   0  0  0  0  0  0  0  0  0  0  0  0
    5.3930   -4.7760   26.0000 O   0  0  0  0  0  0  0  0  0  0  0  0
    6.1610   -2.6010   26.1690 N   0  0  0  0  0  0  0  0  0  0  0  0
    6.2270   -1.4010   26.7990 C   0  0  0  0  0  0  0  0  0  0  0  0
    5.8630   -0.0810   26.5410 C   0  0  0  0  0  0  0  0  0  0  0  0
    6.0060    1.0450   27.3790 C   0  0  0  0  0  0  0  0  0  0  0  0
    6.5850    0.9490   28.6880 C   0  0  0  0  0  0  0  0  0  0  0  0
    6.6980    2.1840   29.5210 C   0  0  0  0  0  0  0  0  0  0  0  0
    6.1860    3.3040   28.8630 C   0  0  0  0  0  0  0  0  0  0  0  0
    6.9190    4.2520   28.5100 O   0  0  0  0  0  0  0  0  0  0  0  0
    4.8080    3.3890   28.5870 O   0  0  0  0  0  0  0  0  0  0  0  0
    3.8710    2.4290   28.9030 C   0  0  0  0  0  0  0  0  0  0  0  0
    7.2860    2.1180   30.8500 N   0  0  0  0  0  0  0  0  0  0  0  0
    7.7310    0.7620   31.2550 C   0  0  0  0  0  0  0  0  0  0  0  0
    7.5540   -0.4870   30.2690 C   0  0  0  0  0  0  0  0  0  0  0  0
    6.9990   -0.4180   29.0180 C   0  0  0  0  0  0  0  0  0  0  0  0
    6.8670   -1.5230   28.2120 C   0  0  0  0  0  0  0  0  0  0  0  0
    5.8760   -5.1580   23.5100 C   0  0  0  0  0  0  0  0  0  0  0  0
    6.6580   -5.3760   22.4110 C   0  0  0  0  0  0  0  0  0  0  0  0
  1  2  1  0
  2  3  2  0
  2  4  1  0
  4  5  1  0
  5  6  1  0
  6  7  1  0
  7  8  1  0
  8  9  2  0
  8 10  1  0
 10 11  1  0
 11 12  2  0
 12 13  1  0
 13 14  2  0
 14 15  1  0
 15 16  1  0
 16 17  2  0
 16 18  1  0
 18 19  1  0
 15 20  2  0
 20 21  1  0
 21 22  2  0
 14 23  1  0
 22 23  1  0
 11 24  1  0
 23 24  2  0
  7 25  1  0
  4 26  1  0
 25 26  1  0
M  END
