piperidine-amides-4966-covalent
     RDKit          3D

 23 24  0  0  0  0  0  0  0  0999 V2000
    7.0310   -3.3460   19.2910 C   0  0  0  0  0  0  0  0  0  0  0  0
    6.3800   -4.1760   20.3340 C   0  0  0  0  0  0  0  0  0  0  0  0
    5.3650   -4.8040   19.9720 O   0  0  0  0  0  0  0  0  0  0  0  0
    6.9080   -4.3010   21.6350 N   0  0  0  0  0  0  0  0  0  0  0  0
    7.7110   -3.2610   22.1860 C   0  0  0  0  0  0  0  0  0  0  0  0
    7.3580   -2.9730   23.5630 C   0  0  0  0  0  0  0  0  0  0  0  0
    6.0710   -3.5830   23.9510 C   0  0  0  0  0  0  0  0  0  0  0  0
    5.6870   -3.2140   25.3390 C   0  0  0  0  0  0  0  0  0  0  0  0
    4.4780   -3.2180   25.6290 O   0  0  0  0  0  0  0  0  0  0  0  0
    6.6450   -2.8670   26.3020 N   0  0  0  0  0  0  0  0  0  0  0  0
    6.5780   -1.6270   27.1150 C   0  0  0  0  0  0  0  0  0  0  0  0
    5.9600   -0.4490   26.4930 C   0  0  0  0  0  0  0  0  0  0  0  0
    5.8570    0.7980   27.2250 C   0  0  0  0  0  0  0  0  0  0  0  0
    5.1180    2.2090   26.4920 Cl  0  0  0  0  0  0  0  0  0  0  0  0
    6.3510    0.8800   28.5190 C   0  0  0  0  0  0  0  0  0  0  0  0
    6.2800    1.9430   29.1740 O   0  0  0  0  0  0  0  0  0  0  0  0
    6.8280    2.9620   28.5570 C   0  0  0  0  0  0  0  0  0  0  0  0
    7.7520    3.7030   29.2310 C   0  0  0  0  0  0  0  0  0  0  0  0
    6.9270   -0.2660   29.0690 C   0  0  0  0  0  0  0  0  0  0  0  0
    7.5480   -0.1410   30.7380 Cl  0  0  0  0  0  0  0  0  0  0  0  0
    7.0550   -1.4770   28.4270 C   0  0  0  0  0  0  0  0  0  0  0  0
    6.0630   -5.0810   23.7300 C   0  0  0  0  0  0  0  0  0  0  0  0
    6.7250   -5.4890   22.4510 C   0  0  0  0  0  0  0  0  0  0  0  0
  1  2  1  0
  2  3  2  0
  2  4  1  0
  4  5  1  0
  5  6  1  0
  6  7  1  0
  7  8  1  0
  8  9  2  0
  8 10  1  0
 10 11  1  0
 11 12  2  0
 12 13  1  0
 13 14  1  0
 13 15  2  0
 15 16  1  0
 16 17  1  0
 17 18  1  0
 15 19  1  0
 19 20  1  0
 11 21  1  0
 19 21  2  0
  7 22  1  0
  4 23  1  0
 22 23  1  0
M  END
