piperidine-amides-15161-covalent
     RDKit          3D

 20 21  0  0  0  0  0  0  0  0999 V2000
    7.0440   -3.2750   19.2550 C   0  0  0  0  0  0  0  0  0  0  0  0
    6.3280   -4.0470   20.2760 C   0  0  0  0  0  0  0  0  0  0  0  0
    5.3210   -4.6860   19.9270 O   0  0  0  0  0  0  0  0  0  0  0  0
    6.7860   -4.0910   21.6200 N   0  0  0  0  0  0  0  0  0  0  0  0
    7.6420   -3.0390   22.1000 C   0  0  0  0  0  0  0  0  0  0  0  0
    7.3140   -2.7220   23.5270 C   0  0  0  0  0  0  0  0  0  0  0  0
    6.0110   -3.4170   23.8390 C   0  0  0  0  0  0  0  0  0  0  0  0
    5.5640   -3.1390   25.2550 C   0  0  0  0  0  0  0  0  0  0  0  0
    4.3960   -3.4170   25.5100 O   0  0  0  0  0  0  0  0  0  0  0  0
    6.4670   -2.5810   26.1710 N   0  0  0  0  0  0  0  0  0  0  0  0
    6.3750   -2.8060   27.5830 C   0  0  0  0  0  0  0  0  0  0  0  0
    6.7260   -4.0860   28.0140 C   0  0  0  0  0  0  0  0  0  0  0  0
    7.7230   -4.6940   27.3560 C   0  0  0  0  0  0  0  0  0  0  0  0
    8.3490   -5.8790   27.6200 C   0  0  0  0  0  0  0  0  0  0  0  0
    9.3980   -6.2140   26.6650 C   0  0  0  0  0  0  0  0  0  0  0  0
    9.7340   -5.4740   25.6500 N   0  0  0  0  0  0  0  0  0  0  0  0
    9.2210   -4.3410   25.2880 N   0  0  0  0  0  0  0  0  0  0  0  0
    8.2380   -3.9640   26.1280 C   0  0  0  0  0  0  0  0  0  0  0  0
    6.0140   -4.9050   23.6810 C   0  0  0  0  0  0  0  0  0  0  0  0
    6.5470   -5.3010   22.3260 C   0  0  0  0  0  0  0  0  0  0  0  0
  1  2  1  0
  2  3  2  0
  2  4  1  0
  4  5  1  0
  5  6  1  0
  6  7  1  0
  7  8  1  0
  8  9  2  0
  8 10  1  0
 10 11  1  0
 11 12  1  0
 12 13  1  0
 13 14  2  0
 14 15  1  0
 15 16  2  0
 16 17  1  0
 13 18  1  0
 17 18  2  0
  7 19  1  0
  4 20  1  0
 19 20  1  0
M  END
