piperidine-amides-2211-covalent
     RDKit          3D

 29 31  0  0  0  0  0  0  0  0999 V2000
    7.0500   -3.2620   19.2520 C   0  0  0  0  0  0  0  0  0  0  0  0
    6.3130   -4.0570   20.2760 C   0  0  0  0  0  0  0  0  0  0  0  0
    5.2900   -4.6270   19.9040 O   0  0  0  0  0  0  0  0  0  0  0  0
    6.8020   -4.1650   21.5830 N   0  0  0  0  0  0  0  0  0  0  0  0
    7.7100   -3.1890   22.1330 C   0  0  0  0  0  0  0  0  0  0  0  0
    7.5240   -3.1310   23.6120 C   0  0  0  0  0  0  0  0  0  0  0  0
    6.1360   -3.6700   23.9370 C   0  0  0  0  0  0  0  0  0  0  0  0
    5.8230   -3.2610   25.3170 C   0  0  0  0  0  0  0  0  0  0  0  0
    4.7900   -3.6760   25.8590 O   0  0  0  0  0  0  0  0  0  0  0  0
    6.6950   -2.3970   26.0100 N   0  0  0  0  0  0  0  0  0  0  0  0
    6.1440   -1.4460   26.9480 C   0  0  0  0  0  0  0  0  0  0  0  0
    5.5070   -0.3160   26.1510 C   0  0  0  0  0  0  0  0  0  0  0  0
    5.7200   -0.0820   24.8110 C   0  0  0  0  0  0  0  0  0  0  0  0
    5.3190   -0.9070   23.7920 C   0  0  0  0  0  0  0  0  0  0  0  0
    5.5540   -0.6420   22.4660 C   0  0  0  0  0  0  0  0  0  0  0  0
    6.2620    0.5430   21.8730 C   0  0  0  0  0  0  0  0  0  0  0  0
    6.6950    1.4350   22.9700 C   0  0  0  0  0  0  0  0  0  0  0  0
    7.4300    2.6840   22.5710 C   0  0  0  0  0  0  0  0  0  0  0  0
    6.5660    3.7280   22.3660 F   0  0  0  0  0  0  0  0  0  0  0  0
    8.3230    2.5800   21.5620 F   0  0  0  0  0  0  0  0  0  0  0  0
    8.2870    3.1900   23.5880 F   0  0  0  0  0  0  0  0  0  0  0  0
    6.4730    1.2110   24.4420 C   0  0  0  0  0  0  0  0  0  0  0  0
    4.0370   -0.4150   25.7880 C   0  0  0  0  0  0  0  0  0  0  0  0
    3.2090   -0.3380   27.0680 C   0  0  0  0  0  0  0  0  0  0  0  0
    3.9640    0.0140   28.3010 C   0  0  0  0  0  0  0  0  0  0  0  0
    5.2410    0.7760   28.1250 C   0  0  0  0  0  0  0  0  0  0  0  0
    5.6360    1.0110   26.8340 C   0  0  0  0  0  0  0  0  0  0  0  0
    6.0850   -5.1430   23.6780 C   0  0  0  0  0  0  0  0  0  0  0  0
    6.6940   -5.4510   22.2980 C   0  0  0  0  0  0  0  0  0  0  0  0
  1  2  1  0
  2  3  2  0
  2  4  1  0
  4  5  1  0
  5  6  1  0
  6  7  1  0
  7  8  1  0
  8  9  2  0
  8 10  1  0
 10 11  1  0
 12 11  1  0
 12 13  1  0
 13 14  2  0
 14 15  1  0
 15 16  2  0
 16 17  1  0
 17 18  1  0
 18 19  1  0
 18 20  1  0
 18 21  1  0
 13 22  1  0
 17 22  2  0
 12 23  1  0
 23 24  1  0
 24 25  1  0
 25 26  1  0
 12 27  1  0
 26 27  1  0
  7 28  1  0
  4 29  1  0
 28 29  1  0
M  END
