piperidine-amides-21500-covalent
     RDKit          3D

 23 25  0  0  0  0  0  0  0  0999 V2000
    7.1140   -3.3320   19.2480 C   0  0  0  0  0  0  0  0  0  0  0  0
    6.3700   -4.1020   20.2440 C   0  0  0  0  0  0  0  0  0  0  0  0
    5.2680   -4.5880   19.8900 O   0  0  0  0  0  0  0  0  0  0  0  0
    6.9240   -4.3140   21.4940 N   0  0  0  0  0  0  0  0  0  0  0  0
    6.6520   -5.5320   22.2190 C   0  0  0  0  0  0  0  0  0  0  0  0
    5.9290   -5.1360   23.4680 C   0  0  0  0  0  0  0  0  0  0  0  0
    6.6220   -3.9930   24.1470 C   0  0  0  0  0  0  0  0  0  0  0  0
    5.7610   -3.4600   25.2120 C   0  0  0  0  0  0  0  0  0  0  0  0
    4.8400   -2.6800   24.9010 O   0  0  0  0  0  0  0  0  0  0  0  0
    5.9120   -3.8030   26.5500 N   0  0  0  0  0  0  0  0  0  0  0  0
    6.3220   -2.8020   27.5120 C   0  0  0  0  0  0  0  0  0  0  0  0
    6.6270   -3.5900   28.7250 C   0  0  1  0  0  0  0  0  0  0  0  0
    5.9620   -2.9910   29.7710 F   0  0  0  0  0  0  0  0  0  0  0  0
    6.0800   -4.7710   28.5520 C   0  0  1  0  0  0  0  0  0  0  0  0
    5.3380   -5.3380   29.5630 C   0  0  0  0  0  0  0  0  0  0  0  0
    5.6810   -6.5520   30.1570 C   0  0  0  0  0  0  0  0  0  0  0  0
    4.8920   -7.0590   31.1720 C   0  0  0  0  0  0  0  0  0  0  0  0
    3.7730   -6.4010   31.6150 C   0  0  0  0  0  0  0  0  0  0  0  0
    3.3010   -5.0870   31.0510 C   0  0  0  0  0  0  0  0  0  0  0  0
    4.2270   -4.5980   29.9390 C   0  0  0  0  0  0  0  0  0  0  0  0
    5.1850   -4.6520   27.5210 C   0  0  0  0  0  0  0  0  0  0  0  0
    6.9340   -2.8650   23.2150 C   0  0  0  0  0  0  0  0  0  0  0  0
    7.7070   -3.2840   22.1750 C   0  0  0  0  0  0  0  0  0  0  0  0
  1  2  1  0
  2  3  2  0
  2  4  1  0
  4  5  1  0
  5  6  1  0
  6  7  1  0
  7  8  1  0
  8  9  2  0
  8 10  1  0
 10 11  1  0
 11 12  1  0
 12 13  1  1
 12 14  1  0
 14 15  1  1
 15 16  2  0
 16 17  1  0
 17 18  2  0
 18 19  1  0
 15 20  1  0
 19 20  2  0
 10 21  1  0
 14 21  1  0
  7 22  1  0
  4 23  1  0
 22 23  1  0
M  END
