piperidine-amides-27874-covalent
     RDKit          3D

 26 28  0  0  0  0  0  0  0  0999 V2000
    7.1090   -3.3710   19.3030 C   0  0  0  0  0  0  0  0  0  0  0  0
    6.4030   -4.1730   20.3180 C   0  0  0  0  0  0  0  0  0  0  0  0
    5.3390   -4.7110   19.9510 O   0  0  0  0  0  0  0  0  0  0  0  0
    6.9580   -4.3610   21.5990 N   0  0  0  0  0  0  0  0  0  0  0  0
    6.6950   -5.5690   22.3110 C   0  0  0  0  0  0  0  0  0  0  0  0
    6.1260   -5.3100   23.6280 C   0  0  0  0  0  0  0  0  0  0  0  0
    6.0060   -3.8660   23.8740 C   0  0  0  0  0  0  0  0  0  0  0  0
    5.3780   -3.5960   25.1820 C   0  0  0  0  0  0  0  0  0  0  0  0
    4.1710   -3.3150   25.1860 O   0  0  0  0  0  0  0  0  0  0  0  0
    6.0800   -3.6370   26.3770 N   0  0  0  0  0  0  0  0  0  0  0  0
    6.5160   -2.4200   26.9840 C   0  0  0  0  0  0  0  0  0  0  0  0
    6.5200   -2.8920   28.3830 C   0  0  1  0  0  0  0  0  0  0  0  0
    6.4350   -1.8060   29.3530 C   0  0  0  0  0  0  0  0  0  0  0  0
    7.1620   -0.7710   29.1730 O   0  0  0  0  0  0  0  0  0  0  0  0
    5.6190   -1.8810   30.4340 O   0  0  0  0  0  0  0  0  0  0  0  0
    5.2300   -0.7260   31.1810 C   0  0  0  0  0  0  0  0  0  0  0  0
    5.5780   -3.8800   28.7000 C   0  0  1  0  0  0  0  0  0  0  0  0
    4.3760   -3.3030   29.0090 C   0  0  0  0  0  0  0  0  0  0  0  0
    3.4740   -4.0320   29.7490 C   0  0  0  0  0  0  0  0  0  0  0  0
    2.2320   -3.5890   30.1310 C   0  0  0  0  0  0  0  0  0  0  0  0
    1.8480   -2.3080   29.7450 C   0  0  0  0  0  0  0  0  0  0  0  0
    2.7200   -1.4310   28.9550 C   0  0  0  0  0  0  0  0  0  0  0  0
    4.0560   -2.0300   28.5970 C   0  0  0  0  0  0  0  0  0  0  0  0
    5.5240   -4.5240   27.3700 C   0  0  0  0  0  0  0  0  0  0  0  0
    7.2130   -3.0800   23.6140 C   0  0  0  0  0  0  0  0  0  0  0  0
    7.7800   -3.3320   22.2350 C   0  0  0  0  0  0  0  0  0  0  0  0
  1  2  1  0
  2  3  2  0
  2  4  1  0
  4  5  1  0
  5  6  1  0
  6  7  1  0
  7  8  1  0
  8  9  2  0
  8 10  1  0
 10 11  1  0
 11 12  1  0
 12 13  1  1
 13 14  2  0
 13 15  1  0
 15 16  1  0
 12 17  1  0
 17 18  1  6
 18 19  2  0
 19 20  1  0
 20 21  2  0
 21 22  1  0
 18 23  1  0
 22 23  2  0
 10 24  1  0
 17 24  1  0
  7 25  1  0
  4 26  1  0
 25 26  1  0
M  END
