piperidine-amides-1439-covalent
     RDKit          3D

 22 23  0  0  0  0  0  0  0  0999 V2000
    7.1420   -3.3040   19.2380 C   0  0  0  0  0  0  0  0  0  0  0  0
    6.3550   -4.0800   20.2310 C   0  0  0  0  0  0  0  0  0  0  0  0
    5.2690   -4.5690   19.8890 O   0  0  0  0  0  0  0  0  0  0  0  0
    6.8960   -4.2900   21.5130 N   0  0  0  0  0  0  0  0  0  0  0  0
    6.4200   -5.3630   22.3370 C   0  0  0  0  0  0  0  0  0  0  0  0
    5.5470   -4.6880   23.4000 C   0  0  0  0  0  0  0  0  0  0  0  0
    6.4130   -3.7560   24.1950 C   0  0  0  0  0  0  0  0  0  0  0  0
    5.7480   -3.3600   25.4580 C   0  0  0  0  0  0  0  0  0  0  0  0
    4.5100   -3.3310   25.4340 O   0  0  0  0  0  0  0  0  0  0  0  0
    6.5070   -3.0330   26.5920 N   0  0  0  0  0  0  0  0  0  0  0  0
    6.3570   -3.5050   27.9310 C   0  0  0  0  0  0  0  0  0  0  0  0
    5.3060   -4.2390   28.4050 C   0  0  0  0  0  0  0  0  0  0  0  0
    4.0600   -3.7210   28.7950 C   0  0  0  0  0  0  0  0  0  0  0  0
    3.0310   -4.4740   29.2680 C   0  0  0  0  0  0  0  0  0  0  0  0
    3.1790   -5.9300   29.4030 C   0  0  0  0  0  0  0  0  0  0  0  0
    2.0380   -6.8010   29.9360 C   0  0  0  0  0  0  0  0  0  0  0  0
    2.5600   -8.1930   29.5950 C   0  0  0  0  0  0  0  0  0  0  0  0
    1.6710   -6.5810   31.2750 C   0  0  0  0  0  0  0  0  0  0  0  0
    4.3750   -6.4910   29.0360 C   0  0  0  0  0  0  0  0  0  0  0  0
    5.5770   -5.7240   28.4970 C   0  0  0  0  0  0  0  0  0  0  0  0
    6.8120   -2.6420   23.3170 C   0  0  0  0  0  0  0  0  0  0  0  0
    7.6320   -3.2440   22.1660 C   0  0  0  0  0  0  0  0  0  0  0  0
  1  2  1  0
  2  3  2  0
  2  4  1  0
  4  5  1  0
  5  6  1  0
  6  7  1  0
  7  8  1  0
  8  9  2  0
  8 10  1  0
 10 11  1  0
 11 12  1  0
 12 13  2  0
 13 14  1  0
 14 15  2  0
 15 16  1  0
 16 17  1  0
 16 18  1  0
 15 19  1  0
 12 20  1  0
 19 20  2  0
  7 21  1  0
  4 22  1  0
 21 22  1  0
M  END
