piperidine-amides-7125-covalent
     RDKit          3D

 21 23  0  0  0  0  0  0  0  0999 V2000
    7.0830   -3.3450   19.3850 C   0  0  0  0  0  0  0  0  0  0  0  0
    6.3690   -4.1800   20.3590 C   0  0  0  0  0  0  0  0  0  0  0  0
    5.3850   -4.8620   19.9910 O   0  0  0  0  0  0  0  0  0  0  0  0
    6.8140   -4.2540   21.6900 N   0  0  0  0  0  0  0  0  0  0  0  0
    6.6000   -5.4830   22.4350 C   0  0  0  0  0  0  0  0  0  0  0  0
    6.0650   -5.1320   23.8430 C   0  0  0  0  0  0  0  0  0  0  0  0
    6.0200   -3.6240   23.9660 C   0  0  0  0  0  0  0  0  0  0  0  0
    5.5150   -3.2240   25.3070 C   0  0  0  0  0  0  0  0  0  0  0  0
    4.2760   -3.1400   25.4360 O   0  0  0  0  0  0  0  0  0  0  0  0
    6.3730   -2.9570   26.3990 N   0  0  0  0  0  0  0  0  0  0  0  0
    6.7780   -1.6090   26.7280 C   0  0  1  0  0  0  0  0  0  0  0  0
    5.7370   -0.5480   26.3990 C   0  0  0  0  0  0  0  0  0  0  0  0
    5.3980    0.2390   27.4830 C   0  0  1  0  0  0  0  0  0  0  0  0
    4.0830    0.6150   27.5710 C   0  0  0  0  0  0  0  0  0  0  0  0
    5.9630   -0.4300   28.5880 N   0  0  0  0  0  0  0  0  0  0  0  0
    6.5630    0.4080   29.5110 C   0  0  0  0  0  0  0  0  0  0  0  0
    6.2060    0.1690   30.6820 C   0  0  0  0  0  0  0  0  0  0  0  0
    7.7060   -0.0950   30.5470 C   0  0  0  0  0  0  0  0  0  0  0  0
    6.8870   -1.4370   28.2010 C   0  0  0  0  0  0  0  0  0  0  0  0
    7.2910   -2.9610   23.6410 C   0  0  0  0  0  0  0  0  0  0  0  0
    7.6350   -3.2310   22.2540 C   0  0  0  0  0  0  0  0  0  0  0  0
  1  2  1  0
  2  3  2  0
  2  4  1  0
  4  5  1  0
  5  6  1  0
  6  7  1  0
  7  8  1  0
  8  9  2  0
  8 10  1  0
 11 10  1  1
 11 12  1  0
 12 13  1  0
 13 14  1  1
 13 15  1  0
 15 16  1  0
 16 17  1  0
 16 18  1  0
 17 18  1  0
 11 19  1  0
 15 19  1  0
  7 20  1  0
  4 21  1  0
 20 21  1  0
M  END
