piperidine-amides-13891-covalent
     RDKit          3D

 26 27  0  0  0  0  0  0  0  0999 V2000
    7.0960   -3.2670   19.2420 C   0  0  0  0  0  0  0  0  0  0  0  0
    6.3470   -4.0420   20.2730 C   0  0  0  0  0  0  0  0  0  0  0  0
    5.3290   -4.6700   19.9280 O   0  0  0  0  0  0  0  0  0  0  0  0
    6.8300   -4.0790   21.5970 N   0  0  0  0  0  0  0  0  0  0  0  0
    7.7380   -3.0620   22.0970 C   0  0  0  0  0  0  0  0  0  0  0  0
    7.5380   -2.9560   23.6050 C   0  0  0  0  0  0  0  0  0  0  0  0
    6.1740   -3.4810   23.8560 C   0  0  0  0  0  0  0  0  0  0  0  0
    5.6560   -3.1700   25.2090 C   0  0  0  0  0  0  0  0  0  0  0  0
    4.4360   -2.9890   25.2940 O   0  0  0  0  0  0  0  0  0  0  0  0
    6.5190   -3.0920   26.3090 N   0  0  0  0  0  0  0  0  0  0  0  0
    6.1920   -3.3060   27.6800 C   0  0  0  0  0  0  0  0  0  0  0  0
    5.7570   -4.4910   28.2530 C   0  0  1  0  0  0  0  0  0  0  0  0
    6.9610   -5.0060   28.8680 O   0  0  0  0  0  0  0  0  0  0  0  0
    4.8680   -4.3950   29.3410 C   0  0  0  0  0  0  0  0  0  0  0  0
    4.2050   -3.2070   29.5980 C   0  0  0  0  0  0  0  0  0  0  0  0
    3.2600   -3.0720   30.7360 C   0  0  0  0  0  0  0  0  0  0  0  0
    2.9680   -4.2360   31.6820 C   0  0  0  0  0  0  0  0  0  0  0  0
    3.7850   -5.4450   31.2390 C   0  0  0  0  0  0  0  0  0  0  0  0
    4.6490   -5.4900   30.1630 C   0  0  0  0  0  0  0  0  0  0  0  0
    5.4840   -6.9990   29.8570 Cl  0  0  0  0  0  0  0  0  0  0  0  0
    5.5090   -5.5360   27.4220 C   0  0  0  0  0  0  0  0  0  0  0  0
    6.4160   -6.5170   27.5290 F   0  0  0  0  0  0  0  0  0  0  0  0
    5.4450   -5.1890   26.1100 F   0  0  0  0  0  0  0  0  0  0  0  0
    4.2920   -6.0950   27.7810 F   0  0  0  0  0  0  0  0  0  0  0  0
    6.0120   -4.9450   23.5730 C   0  0  0  0  0  0  0  0  0  0  0  0
    6.6540   -5.2640   22.3980 C   0  0  0  0  0  0  0  0  0  0  0  0
  1  2  1  0
  2  3  2  0
  2  4  1  0
  4  5  1  0
  5  6  1  0
  6  7  1  0
  7  8  1  0
  8  9  2  0
  8 10  1  0
 10 11  1  0
 11 12  1  0
 12 13  1  1
 12 14  1  0
 14 15  2  0
 15 16  1  0
 16 17  2  0
 17 18  1  0
 14 19  1  0
 18 19  2  0
 19 20  1  0
 12 21  1  0
 21 22  1  0
 21 23  1  0
 21 24  1  0
  7 25  1  0
  4 26  1  0
 25 26  1  0
M  END
