piperidine-amides-30018-covalent
     RDKit          3D

 27 29  0  0  0  0  0  0  0  0999 V2000
    7.0050   -3.3680   19.3300 C   0  0  0  0  0  0  0  0  0  0  0  0
    6.3070   -4.2060   20.3030 C   0  0  0  0  0  0  0  0  0  0  0  0
    5.3120   -4.8340   19.9660 O   0  0  0  0  0  0  0  0  0  0  0  0
    6.8060   -4.3380   21.6420 N   0  0  0  0  0  0  0  0  0  0  0  0
    7.6040   -3.2800   22.1970 C   0  0  0  0  0  0  0  0  0  0  0  0
    7.3120   -3.1400   23.6520 C   0  0  0  0  0  0  0  0  0  0  0  0
    5.8970   -3.5500   23.8900 C   0  0  0  0  0  0  0  0  0  0  0  0
    5.4580   -3.2090   25.2780 C   0  0  0  0  0  0  0  0  0  0  0  0
    4.2630   -2.9860   25.5430 O   0  0  0  0  0  0  0  0  0  0  0  0
    6.4000   -3.1300   26.3390 N   0  0  0  0  0  0  0  0  0  0  0  0
    6.6630   -4.3880   27.0100 C   0  0  0  0  0  0  0  0  0  0  0  0
    6.4810   -1.8580   27.0610 C   0  0  0  0  0  0  0  0  0  0  0  0
    6.9700   -1.7490   28.3580 C   0  0  0  0  0  0  0  0  0  0  0  0
    7.0350   -0.5130   29.0320 C   0  0  0  0  0  0  0  0  0  0  0  0
    6.6150    0.6750   28.4550 C   0  0  0  0  0  0  0  0  0  0  0  0
    6.6840    1.7440   29.0900 O   0  0  0  0  0  0  0  0  0  0  0  0
    5.6680    2.5040   29.6370 C   0  0  0  0  0  0  0  0  0  0  0  0
    5.9250    2.7710   30.9680 C   0  0  0  0  0  0  0  0  0  0  0  0
    5.1310    1.9940   31.7280 N   0  0  0  0  0  0  0  0  0  0  0  0
    3.7400    1.9710   31.3340 C   0  0  0  0  0  0  0  0  0  0  0  0
    3.0130    1.9880   32.5040 C   0  0  0  0  0  0  0  0  0  0  0  0
    3.9320    2.0670   33.6260 C   0  0  0  0  0  0  0  0  0  0  0  0
    5.2360    2.0870   33.1590 C   0  0  0  0  0  0  0  0  0  0  0  0
    6.1380    0.5630   27.1840 C   0  0  0  0  0  0  0  0  0  0  0  0
    6.0590   -0.7210   26.4420 C   0  0  0  0  0  0  0  0  0  0  0  0
    5.7010   -5.0140   23.6550 C   0  0  0  0  0  0  0  0  0  0  0  0
    6.4770   -5.4920   22.4340 C   0  0  0  0  0  0  0  0  0  0  0  0
  1  2  1  0
  2  3  2  0
  2  4  1  0
  4  5  1  0
  5  6  1  0
  6  7  1  0
  7  8  1  0
  8  9  2  0
  8 10  1  0
 10 11  1  0
 10 12  1  0
 12 13  2  0
 13 14  1  0
 14 15  2  0
 15 16  1  0
 16 17  1  0
 17 18  1  0
 18 19  1  0
 19 20  1  0
 20 21  1  0
 21 22  1  0
 19 23  1  0
 22 23  1  0
 15 24  1  0
 12 25  1  0
 24 25  2  0
  7 26  1  0
  4 27  1  0
 26 27  1  0
M  END
