piperidine-amides-9856-covalent
     RDKit          3D

 27 29  0  0  0  0  0  0  0  0999 V2000
    7.1280   -3.2550   19.1670 C   0  0  0  0  0  0  0  0  0  0  0  0
    6.3620   -3.9930   20.1780 C   0  0  0  0  0  0  0  0  0  0  0  0
    5.2420   -4.4380   19.8320 O   0  0  0  0  0  0  0  0  0  0  0  0
    6.9020   -4.2280   21.4370 N   0  0  0  0  0  0  0  0  0  0  0  0
    7.7040   -3.2340   22.1090 C   0  0  0  0  0  0  0  0  0  0  0  0
    6.9560   -2.7840   23.3220 C   0  0  0  0  0  0  0  0  0  0  0  0
    6.5300   -3.9550   24.1590 C   0  0  0  0  0  0  0  0  0  0  0  0
    5.7260   -3.5010   25.3050 C   0  0  0  0  0  0  0  0  0  0  0  0
    4.5460   -3.1430   25.0980 O   0  0  0  0  0  0  0  0  0  0  0  0
    6.2400   -3.4400   26.5980 N   0  0  0  0  0  0  0  0  0  0  0  0
    6.0460   -4.4990   27.5640 C   0  0  1  0  0  0  0  0  0  0  0  0
    6.4070   -3.9450   28.9060 C   0  0  0  0  0  0  0  0  0  0  0  0
    5.6980   -2.9270   29.5080 C   0  0  0  0  0  0  0  0  0  0  0  0
    4.3500   -2.9320   29.7760 C   0  0  0  0  0  0  0  0  0  0  0  0
    3.9920   -1.8040   30.3640 N   0  0  0  0  0  0  0  0  0  0  0  0
    5.0230   -1.0090   30.5210 C   0  0  0  0  0  0  0  0  0  0  0  0
    5.0810    0.2460   31.0880 C   0  0  0  0  0  0  0  0  0  0  0  0
    6.2590    0.9590   31.1810 C   0  0  0  0  0  0  0  0  0  0  0  0
    7.5930    0.4420   30.6770 C   0  0  0  0  0  0  0  0  0  0  0  0
    7.4420   -0.9490   30.0620 C   0  0  0  0  0  0  0  0  0  0  0  0
    6.1230   -1.6770   29.9930 C   0  0  0  0  0  0  0  0  0  0  0  0
    4.6400   -4.9270   27.5850 C   0  0  0  0  0  0  0  0  0  0  0  0
    3.7450   -4.3560   26.9210 O   0  0  0  0  0  0  0  0  0  0  0  0
    4.1790   -6.0240   28.3560 N   0  0  0  0  0  0  0  0  0  0  0  0
    4.7010   -7.3560   28.1480 C   0  0  0  0  0  0  0  0  0  0  0  0
    5.7080   -4.9270   23.3330 C   0  0  0  0  0  0  0  0  0  0  0  0
    6.5720   -5.4190   22.1890 C   0  0  0  0  0  0  0  0  0  0  0  0
  1  2  1  0
  2  3  2  0
  2  4  1  0
  4  5  1  0
  5  6  1  0
  6  7  1  0
  7  8  1  0
  8  9  2  0
  8 10  1  0
 10 11  1  0
 11 12  1  1
 12 13  1  0
 13 14  2  0
 14 15  1  0
 15 16  1  0
 16 17  1  0
 17 18  2  0
 18 19  1  0
 19 20  2  0
 13 21  1  0
 16 21  2  0
 20 21  1  0
 11 22  1  0
 22 23  2  0
 22 24  1  0
 24 25  1  0
  7 26  1  0
  4 27  1  0
 26 27  1  0
M  END
