piperidine-amides-33346-covalent
     RDKit          3D

 29 32  0  0  0  0  0  0  0  0999 V2000
    7.0930   -3.3540   19.3330 C   0  0  0  0  0  0  0  0  0  0  0  0
    6.4380   -4.2060   20.3400 C   0  0  0  0  0  0  0  0  0  0  0  0
    5.4010   -4.8170   19.9800 O   0  0  0  0  0  0  0  0  0  0  0  0
    7.0020   -4.3590   21.6370 N   0  0  0  0  0  0  0  0  0  0  0  0
    6.5680   -5.4630   22.4330 C   0  0  0  0  0  0  0  0  0  0  0  0
    6.1920   -5.0830   23.7980 C   0  0  0  0  0  0  0  0  0  0  0  0
    6.2460   -3.6270   24.0490 C   0  0  0  0  0  0  0  0  0  0  0  0
    5.7200   -3.2000   25.3930 C   0  0  0  0  0  0  0  0  0  0  0  0
    4.6630   -2.5520   25.4200 O   0  0  0  0  0  0  0  0  0  0  0  0
    6.3450   -3.4850   26.6280 N   0  0  0  0  0  0  0  0  0  0  0  0
    7.6040   -3.1690   27.0920 C   0  0  0  0  0  0  0  0  0  0  0  0
    7.8610   -3.9030   28.3040 C   0  0  0  0  0  0  0  0  0  0  0  0
    7.8450   -5.2320   28.2870 N   0  0  0  0  0  0  0  0  0  0  0  0
    8.2370   -5.9870   27.1260 C   0  0  0  0  0  0  0  0  0  0  0  0
    6.3720   -5.2270   28.4630 C   0  0  0  0  0  0  0  0  0  0  0  0
    6.1910   -6.2290   29.5310 C   0  0  0  0  0  0  0  0  0  0  0  0
    4.8450   -6.2400   29.7260 C   0  0  0  0  0  0  0  0  0  0  0  0
    5.5230   -5.2670   28.6230 C   0  0  0  0  0  0  0  0  0  0  0  0
    4.3810   -4.4880   27.9730 C   0  0  0  0  0  0  0  0  0  0  0  0
    4.1530   -3.0400   28.2400 C   0  0  0  0  0  0  0  0  0  0  0  0
    2.9680   -2.4360   27.5210 C   0  0  0  0  0  0  0  0  0  0  0  0
    2.2160   -3.4010   26.6580 C   0  0  0  0  0  0  0  0  0  0  0  0
    1.0920   -3.0530   25.9090 C   0  0  0  0  0  0  0  0  0  0  0  0
    0.0170   -2.4090   26.5820 N   0  0  0  0  0  0  0  0  0  0  0  0
    3.0580   -4.9240   26.8360 S   0  0  0  0  0  0  0  0  0  0  0  0
    6.8850   -4.9020   28.0600 C   0  0  0  0  0  0  0  0  0  0  0  0
    5.6890   -4.3230   27.6010 C   0  0  0  0  0  0  0  0  0  0  0  0
    7.5880   -3.0970   23.6820 C   0  0  0  0  0  0  0  0  0  0  0  0
    7.7740   -3.2740   22.1870 C   0  0  0  0  0  0  0  0  0  0  0  0
  1  2  1  0
  2  3  2  0
  2  4  1  0
  4  5  1  0
  5  6  1  0
  6  7  1  0
  7  8  1  0
  8  9  2  0
  8 10  1  0
 10 11  1  0
 11 12  1  0
 12 13  1  0
 13 14  1  0
 13 15  1  0
 15 16  2  0
 16 17  1  0
 17 18  2  0
 18 19  1  0
 19 20  2  0
 20 21  1  0
 21 22  2  0
 22 23  1  0
 23 24  3  0
 19 25  1  0
 22 25  1  0
 18 26  1  0
 10 27  1  0
 15 27  1  0
 26 27  2  0
  7 28  1  0
  4 29  1  0
 28 29  1  0
M  END
