piperidine-amides-11184-covalent
     RDKit          3D

 20 21  0  0  0  0  0  0  0  0999 V2000
    7.0810   -3.2680   19.2080 C   0  0  0  0  0  0  0  0  0  0  0  0
    6.3080   -4.0030   20.2170 C   0  0  0  0  0  0  0  0  0  0  0  0
    5.2490   -4.5470   19.8760 O   0  0  0  0  0  0  0  0  0  0  0  0
    6.7510   -4.1530   21.5370 N   0  0  0  0  0  0  0  0  0  0  0  0
    6.5670   -5.3850   22.2690 C   0  0  0  0  0  0  0  0  0  0  0  0
    6.0240   -4.9820   23.6140 C   0  0  0  0  0  0  0  0  0  0  0  0
    5.8980   -3.4880   23.7510 C   0  0  0  0  0  0  0  0  0  0  0  0
    5.3670   -3.0400   25.0630 C   0  0  0  0  0  0  0  0  0  0  0  0
    4.2450   -2.4640   25.1280 O   0  0  0  0  0  0  0  0  0  0  0  0
    6.0240   -3.2300   26.2920 N   0  0  0  0  0  0  0  0  0  0  0  0
    6.1800   -4.5970   26.7920 C   0  0  0  0  0  0  0  0  0  0  0  0
    7.5520   -4.9230   26.4500 C   0  0  0  0  0  0  0  0  0  0  0  0
    8.2410   -3.9100   25.8830 N   0  0  0  0  0  0  0  0  0  0  0  0
    9.5080   -4.3760   25.6470 C   0  0  0  0  0  0  0  0  0  0  0  0
   10.6170   -3.5480   25.0350 C   0  0  0  0  0  0  0  0  0  0  0  0
   10.2700   -2.0950   25.1540 C   0  0  0  0  0  0  0  0  0  0  0  0
    9.6100   -5.8220   26.1060 C   0  0  0  0  0  0  0  0  0  0  0  0
    8.3690   -6.0320   26.5680 N   0  0  0  0  0  0  0  0  0  0  0  0
    7.2210   -2.8370   23.4060 C   0  0  0  0  0  0  0  0  0  0  0  0
    7.6110   -3.1290   22.0960 C   0  0  0  0  0  0  0  0  0  0  0  0
  1  2  1  0
  2  3  2  0
  2  4  1  0
  4  5  1  0
  5  6  1  0
  6  7  1  0
  7  8  1  0
  8  9  2  0
  8 10  1  0
 10 11  1  0
 11 12  1  0
 12 13  2  0
 13 14  1  0
 14 15  1  0
 15 16  1  0
 14 17  2  0
 12 18  1  0
 17 18  1  0
  7 19  1  0
  4 20  1  0
 19 20  1  0
M  END
