piperidine-amides-15398-covalent
     RDKit          3D

 17 17  0  0  0  0  0  0  0  0999 V2000
    7.0760   -3.2700   19.2060 C   0  0  0  0  0  0  0  0  0  0  0  0
    6.3290   -4.0370   20.2140 C   0  0  0  0  0  0  0  0  0  0  0  0
    5.2680   -4.6110   19.9000 O   0  0  0  0  0  0  0  0  0  0  0  0
    6.8170   -4.1820   21.5170 N   0  0  0  0  0  0  0  0  0  0  0  0
    6.5390   -5.3940   22.2560 C   0  0  0  0  0  0  0  0  0  0  0  0
    5.6880   -4.9600   23.4500 C   0  0  0  0  0  0  0  0  0  0  0  0
    6.5000   -3.9020   24.1510 C   0  0  0  0  0  0  0  0  0  0  0  0
    5.7490   -3.4030   25.3220 C   0  0  0  0  0  0  0  0  0  0  0  0
    4.5100   -3.2690   25.2180 O   0  0  0  0  0  0  0  0  0  0  0  0
    6.4230   -3.0820   26.5240 N   0  0  0  0  0  0  0  0  0  0  0  0
    6.7540   -1.7070   26.7550 C   0  0  0  0  0  0  0  0  0  0  0  0
    5.4850   -0.8870   26.7190 C   0  0  0  0  0  0  0  0  0  0  0  0
    6.2490   -3.9390   27.6880 C   0  0  0  0  0  0  0  0  0  0  0  0
    6.0610   -5.2900   27.4900 C   0  0  0  0  0  0  0  0  0  0  0  0
    4.8340   -5.6860   27.9970 F   0  0  0  0  0  0  0  0  0  0  0  0
    6.8620   -2.7470   23.2640 C   0  0  0  0  0  0  0  0  0  0  0  0
    7.6000   -3.1530   22.1790 C   0  0  0  0  0  0  0  0  0  0  0  0
  1  2  1  0
  2  3  2  0
  2  4  1  0
  4  5  1  0
  5  6  1  0
  6  7  1  0
  7  8  1  0
  8  9  2  0
  8 10  1  0
 10 11  1  0
 11 12  1  0
 10 13  1  0
 13 14  1  0
 14 15  1  0
  7 16  1  0
  4 17  1  0
 16 17  1  0
M  END
