piperidine-amides-27193-covalent
     RDKit          3D

 24 25  0  0  0  0  0  0  0  0999 V2000
    7.1010   -3.2890   19.2090 C   0  0  0  0  0  0  0  0  0  0  0  0
    6.3840   -4.0460   20.2440 C   0  0  0  0  0  0  0  0  0  0  0  0
    5.3040   -4.5880   19.8970 O   0  0  0  0  0  0  0  0  0  0  0  0
    6.9220   -4.1810   21.5240 N   0  0  0  0  0  0  0  0  0  0  0  0
    7.7570   -3.1430   22.0830 C   0  0  0  0  0  0  0  0  0  0  0  0
    7.0100   -2.5810   23.2340 C   0  0  0  0  0  0  0  0  0  0  0  0
    6.6720   -3.6800   24.1920 C   0  0  0  0  0  0  0  0  0  0  0  0
    5.8480   -3.1160   25.2710 C   0  0  0  0  0  0  0  0  0  0  0  0
    4.6030   -3.0860   25.1160 O   0  0  0  0  0  0  0  0  0  0  0  0
    6.4080   -2.6130   26.4570 N   0  0  0  0  0  0  0  0  0  0  0  0
    6.8330   -1.2380   26.5670 C   0  0  0  0  0  0  0  0  0  0  0  0
    6.4020   -3.4720   27.6030 C   0  0  0  0  0  0  0  0  0  0  0  0
    5.1070   -3.5850   28.0430 C   0  0  0  0  0  0  0  0  0  0  0  0
    4.5940   -2.7060   29.0040 C   0  0  0  0  0  0  0  0  0  0  0  0
    4.0800   -3.4580   29.9630 O   0  0  0  0  0  0  0  0  0  0  0  0
    4.6110   -4.6300   29.9200 C   0  0  0  0  0  0  0  0  0  0  0  0
    4.1000   -5.7860   30.4880 C   0  0  0  0  0  0  0  0  0  0  0  0
    4.6860   -7.0320   30.4230 C   0  0  0  0  0  0  0  0  0  0  0  0
    5.9830   -7.3110   29.7070 C   0  0  0  0  0  0  0  0  0  0  0  0
    6.5390   -6.0310   29.0820 C   0  0  0  0  0  0  0  0  0  0  0  0
    8.0280   -6.0550   28.1810 Cl  0  0  0  0  0  0  0  0  0  0  0  0
    5.7920   -4.7560   29.2480 C   0  0  0  0  0  0  0  0  0  0  0  0
    5.9040   -4.7860   23.5080 C   0  0  0  0  0  0  0  0  0  0  0  0
    6.5770   -5.2970   22.4120 C   0  0  0  0  0  0  0  0  0  0  0  0
  1  2  1  0
  2  3  2  0
  2  4  1  0
  4  5  1  0
  5  6  1  0
  6  7  1  0
  7  8  1  0
  8  9  2  0
  8 10  1  0
 10 11  1  0
 10 12  1  0
 12 13  1  0
 13 14  1  0
 14 15  1  0
 15 16  1  0
 16 17  2  0
 17 18  1  0
 18 19  2  0
 19 20  1  0
 20 21  1  0
 16 22  1  0
 20 22  2  0
  7 23  1  0
  4 24  1  0
 23 24  1  0
M  END
