piperidine-amides-32629-covalent
     RDKit          3D

 29 32  0  0  0  0  0  0  0  0999 V2000
    7.0520   -3.3390   19.3270 C   0  0  0  0  0  0  0  0  0  0  0  0
    6.3740   -4.2060   20.3310 C   0  0  0  0  0  0  0  0  0  0  0  0
    5.3640   -4.8370   19.9760 O   0  0  0  0  0  0  0  0  0  0  0  0
    6.9060   -4.3420   21.6380 N   0  0  0  0  0  0  0  0  0  0  0  0
    6.5160   -5.4500   22.4620 C   0  0  0  0  0  0  0  0  0  0  0  0
    5.4740   -4.8770   23.4350 C   0  0  0  0  0  0  0  0  0  0  0  0
    6.1160   -3.7630   24.2130 C   0  0  0  0  0  0  0  0  0  0  0  0
    5.1440   -3.0540   25.1270 C   0  0  0  0  0  0  0  0  0  0  0  0
    4.0980   -2.6680   24.6230 O   0  0  0  0  0  0  0  0  0  0  0  0
    5.4610   -2.8900   26.4800 N   0  0  0  0  0  0  0  0  0  0  0  0
    6.3950   -3.7110   26.9110 C   0  0  0  0  0  0  0  0  0  0  0  0
    6.0600   -5.0270   26.8370 C   0  0  0  0  0  0  0  0  0  0  0  0
    6.3620   -5.7490   25.6210 O   0  0  0  0  0  0  0  0  0  0  0  0
    5.3890   -5.4380   27.9660 N   0  0  0  0  0  0  0  0  0  0  0  0
    4.8570   -6.7100   28.2370 C   0  0  0  0  0  0  0  0  0  0  0  0
    5.0350   -7.0230   29.5790 C   0  0  0  0  0  0  0  0  0  0  0  0
    4.7520   -5.8400   30.3090 N   0  0  0  0  0  0  0  0  0  0  0  0
    3.7420   -6.0850   31.2970 C   0  0  0  0  0  0  0  0  0  0  0  0
    3.9350   -7.2290   32.3100 C   0  0  0  0  0  0  0  0  0  0  0  0
    5.2860   -7.2320   32.9680 C   0  0  0  0  0  0  0  0  0  0  0  0
    5.5440   -8.2240   33.8970 C   0  0  0  0  0  0  0  0  0  0  0  0
    4.5910   -9.3150   34.3200 C   0  0  0  0  0  0  0  0  0  0  0  0
    3.2550   -9.1740   33.5600 C   0  0  0  0  0  0  0  0  0  0  0  0
    2.9340   -8.2250   32.6320 C   0  0  0  0  0  0  0  0  0  0  0  0
    5.0060   -4.6240   29.8840 C   0  0  0  0  0  0  0  0  0  0  0  0
    4.5810   -4.3860   28.5000 C   0  0  1  0  0  0  0  0  0  0  0  0
    4.8480   -2.9910   27.8150 C   0  0  0  0  0  0  0  0  0  0  0  0
    6.7430   -2.6890   23.3380 C   0  0  0  0  0  0  0  0  0  0  0  0
    7.4570   -3.1810   22.2510 C   0  0  0  0  0  0  0  0  0  0  0  0
  1  2  1  0
  2  3  2  0
  2  4  1  0
  4  5  1  0
  5  6  1  0
  6  7  1  0
  7  8  1  0
  8  9  2  0
  8 10  1  0
 10 11  1  0
 11 12  1  0
 12 13  2  0
 12 14  1  0
 14 15  1  0
 15 16  1  0
 16 17  1  0
 17 18  1  0
 18 19  1  0
 19 20  2  0
 20 21  1  0
 21 22  2  0
 22 23  1  0
 19 24  1  0
 23 24  2  0
 17 25  1  0
 14 26  1  0
 26 25  1  1
 10 27  1  0
 26 27  1  0
  7 28  1  0
  4 29  1  0
 28 29  1  0
M  END
