piperidine-amides-5292-covalent
     RDKit          3D

 21 22  0  0  0  0  0  0  0  0999 V2000
    7.1570   -3.2390   19.1400 C   0  0  0  0  0  0  0  0  0  0  0  0
    6.3620   -3.9650   20.1550 C   0  0  0  0  0  0  0  0  0  0  0  0
    5.2480   -4.4020   19.8130 O   0  0  0  0  0  0  0  0  0  0  0  0
    6.8830   -4.2020   21.4240 N   0  0  0  0  0  0  0  0  0  0  0  0
    7.6160   -3.1670   22.0820 C   0  0  0  0  0  0  0  0  0  0  0  0
    7.0650   -2.7500   23.3660 C   0  0  0  0  0  0  0  0  0  0  0  0
    6.5080   -3.8530   24.1660 C   0  0  0  0  0  0  0  0  0  0  0  0
    5.7660   -3.3090   25.3190 C   0  0  0  0  0  0  0  0  0  0  0  0
    4.5220   -3.2910   25.2610 O   0  0  0  0  0  0  0  0  0  0  0  0
    6.4400   -2.8220   26.4470 N   0  0  0  0  0  0  0  0  0  0  0  0
    6.1050   -1.5340   27.0840 C   0  0  0  0  0  0  0  0  0  0  0  0
    5.3630   -1.7780   28.3580 C   0  0  0  0  0  0  0  0  0  0  0  0
    4.3690   -2.8310   28.1780 C   0  0  0  0  0  0  0  0  0  0  0  0
    3.3000   -2.5670   27.3470 C   0  0  0  0  0  0  0  0  0  0  0  0
    4.5710   -0.7970   28.9540 C   0  0  0  0  0  0  0  0  0  0  0  0
    5.2250    0.3410   29.3100 C   0  0  0  0  0  0  0  0  0  0  0  0
    6.5270    0.2560   29.6790 C   0  0  0  0  0  0  0  0  0  0  0  0
    7.1060   -0.9690   29.7420 C   0  0  0  0  0  0  0  0  0  0  0  0
    6.2200   -2.0040   29.4410 C   0  0  0  0  0  0  0  0  0  0  0  0
    5.7290   -4.8690   23.4310 C   0  0  0  0  0  0  0  0  0  0  0  0
    6.4730   -5.3500   22.2200 C   0  0  0  0  0  0  0  0  0  0  0  0
  1  2  1  0
  2  3  2  0
  2  4  1  0
  4  5  1  0
  5  6  1  0
  6  7  1  0
  7  8  1  0
  8  9  2  0
  8 10  1  0
 10 11  1  0
 12 11  1  0
 12 13  1  0
 13 14  1  0
 12 15  1  0
 15 16  1  0
 16 17  1  0
 17 18  1  0
 12 19  1  0
 18 19  1  0
  7 20  1  0
  4 21  1  0
 20 21  1  0
M  END
