piperidine-amides-23410-covalent
     RDKit          3D

 24 26  0  0  0  0  0  0  0  0999 V2000
    7.0530   -3.3960   19.4740 C   0  0  0  0  0  0  0  0  0  0  0  0
    6.4010   -4.2620   20.4700 C   0  0  0  0  0  0  0  0  0  0  0  0
    5.4530   -4.9690   20.0250 O   0  0  0  0  0  0  0  0  0  0  0  0
    6.8470   -4.3370   21.8350 N   0  0  0  0  0  0  0  0  0  0  0  0
    6.5320   -5.4980   22.6040 C   0  0  0  0  0  0  0  0  0  0  0  0
    5.9470   -5.1470   23.8960 C   0  0  0  0  0  0  0  0  0  0  0  0
    5.8690   -3.6840   24.0260 C   0  0  0  0  0  0  0  0  0  0  0  0
    5.0510   -3.1370   25.2030 C   0  0  0  0  0  0  0  0  0  0  0  0
    4.0330   -2.5030   24.9070 O   0  0  0  0  0  0  0  0  0  0  0  0
    5.3000   -3.2670   26.6010 N   0  0  0  0  0  0  0  0  0  0  0  0
    6.4660   -3.6110   27.1460 C   0  0  0  0  0  0  0  0  0  0  0  0
    6.7880   -3.3770   28.5540 C   0  0  0  0  0  0  0  0  0  0  0  0
    5.9120   -3.7420   29.3680 O   0  0  0  0  0  0  0  0  0  0  0  0
    5.4640   -4.9560   28.9730 C   0  0  1  0  0  0  0  0  0  0  0  0
    4.9860   -5.5810   30.0930 C   0  0  0  0  0  0  0  0  0  0  0  0
    6.0460   -6.6910   30.1150 C   0  0  0  0  0  0  0  0  0  0  0  0
    5.8890   -7.6630   31.2750 C   0  0  0  0  0  0  0  0  0  0  0  0
    4.6910   -7.3470   32.1950 C   0  0  0  0  0  0  0  0  0  0  0  0
    3.6900   -6.2390   32.1010 C   0  0  0  0  0  0  0  0  0  0  0  0
    3.9500   -5.3580   30.9370 C   0  0  0  0  0  0  0  0  0  0  0  0
    4.3070   -4.8060   28.0400 C   0  0  0  0  0  0  0  0  0  0  0  0
    4.2080   -3.4140   27.5030 C   0  0  0  0  0  0  0  0  0  0  0  0
    7.1830   -3.0250   23.7430 C   0  0  0  0  0  0  0  0  0  0  0  0
    7.6250   -3.2520   22.4250 C   0  0  0  0  0  0  0  0  0  0  0  0
  1  2  1  0
  2  3  2  0
  2  4  1  0
  4  5  1  0
  5  6  1  0
  6  7  1  0
  7  8  1  0
  8  9  2  0
  8 10  1  0
 10 11  1  0
 11 12  1  0
 12 13  1  0
 13 14  1  0
 14 15  1  1
 15 16  2  0
 16 17  1  0
 17 18  2  0
 18 19  1  0
 15 20  1  0
 19 20  2  0
 14 21  1  0
 10 22  1  0
 21 22  1  0
  7 23  1  0
  4 24  1  0
 23 24  1  0
M  END
