piperidine-amides-2058-covalent
     RDKit          3D

 20 22  0  0  0  0  0  0  0  0999 V2000
    7.0430   -3.3290   19.3500 C   0  0  0  0  0  0  0  0  0  0  0  0
    6.3800   -4.1840   20.3680 C   0  0  0  0  0  0  0  0  0  0  0  0
    5.4210   -4.8590   19.9900 O   0  0  0  0  0  0  0  0  0  0  0  0
    6.8780   -4.2220   21.6780 N   0  0  0  0  0  0  0  0  0  0  0  0
    7.6990   -3.1490   22.2030 C   0  0  0  0  0  0  0  0  0  0  0  0
    7.4860   -2.9550   23.6840 C   0  0  0  0  0  0  0  0  0  0  0  0
    6.1460   -3.5650   24.0950 C   0  0  0  0  0  0  0  0  0  0  0  0
    5.8670   -3.2590   25.5250 C   0  0  0  0  0  0  0  0  0  0  0  0
    4.8410   -3.7300   26.0320 O   0  0  0  0  0  0  0  0  0  0  0  0
    6.7280   -2.4560   26.3140 N   0  0  0  0  0  0  0  0  0  0  0  0
    6.1780   -1.3060   27.0240 C   0  0  2  0  0  0  0  0  0  0  0  0
    7.1640   -0.5670   27.8480 C   0  0  0  0  0  0  0  0  0  0  0  0
    7.0130   -0.5630   29.1770 C   0  0  0  0  0  0  0  0  0  0  0  0
    6.0340   -1.4500   29.3380 C   0  0  0  0  0  0  0  0  0  0  0  0
    5.2930   -1.5380   28.1730 C   0  0  1  0  0  0  0  0  0  0  0  0
    4.4210   -0.5330   28.0420 O   0  0  0  0  0  0  0  0  0  0  0  0
    4.9610    0.5700   27.4520 C   0  0  0  0  0  0  0  0  0  0  0  0
    5.1250   -0.4470   26.3350 C   0  0  0  0  0  0  0  0  0  0  0  0
    6.0660   -5.0120   23.8230 C   0  0  0  0  0  0  0  0  0  0  0  0
    6.5620   -5.3800   22.4690 C   0  0  0  0  0  0  0  0  0  0  0  0
  1  2  1  0
  2  3  2  0
  2  4  1  0
  4  5  1  0
  5  6  1  0
  6  7  1  0
  7  8  1  0
  8  9  2  0
  8 10  1  0
 11 10  1  6
 11 12  1  0
 12 13  1  0
 13 14  1  0
 11 15  1  0
 15 14  1  1
 15 16  1  0
 16 17  1  0
 11 18  1  0
 17 18  1  0
  7 19  1  0
  4 20  1  0
 19 20  1  0
M  END
