piperidine-amides-17022-covalent
     RDKit          3D

 20 21  0  0  0  0  0  0  0  0999 V2000
    7.1550   -3.2720   19.1890 C   0  0  0  0  0  0  0  0  0  0  0  0
    6.4060   -4.0260   20.2080 C   0  0  0  0  0  0  0  0  0  0  0  0
    5.2980   -4.5060   19.8710 O   0  0  0  0  0  0  0  0  0  0  0  0
    6.9550   -4.2500   21.4910 N   0  0  0  0  0  0  0  0  0  0  0  0
    6.4370   -5.3150   22.2650 C   0  0  0  0  0  0  0  0  0  0  0  0
    5.9020   -4.9090   23.5650 C   0  0  0  0  0  0  0  0  0  0  0  0
    6.5500   -3.7360   24.2060 C   0  0  0  0  0  0  0  0  0  0  0  0
    5.7480   -3.2730   25.3870 C   0  0  0  0  0  0  0  0  0  0  0  0
    4.5140   -3.1500   25.2630 O   0  0  0  0  0  0  0  0  0  0  0  0
    6.3410   -2.9550   26.6230 N   0  0  0  0  0  0  0  0  0  0  0  0
    6.7530   -1.6610   27.0110 C   0  0  0  0  0  0  0  0  0  0  0  0
    6.0590   -3.8370   27.7490 C   0  0  0  0  0  0  0  0  0  0  0  0
    4.9120   -4.8680   27.6150 C   0  0  1  0  0  0  0  0  0  0  0  0
    4.7460   -5.5710   26.4400 C   0  0  0  0  0  0  0  0  0  0  0  0
    3.8130   -6.6980   27.0640 C   0  0  0  0  0  0  0  0  0  0  0  0
    4.5970   -6.9160   28.3470 C   0  0  0  0  0  0  0  0  0  0  0  0
    5.1540   -5.7920   28.6570 N   0  0  0  0  0  0  0  0  0  0  0  0
    6.4070   -5.7940   29.1370 C   0  0  0  0  0  0  0  0  0  0  0  0
    6.8500   -2.5970   23.2700 C   0  0  0  0  0  0  0  0  0  0  0  0
    7.6820   -3.1960   22.1610 C   0  0  0  0  0  0  0  0  0  0  0  0
  1  2  1  0
  2  3  2  0
  2  4  1  0
  4  5  1  0
  5  6  1  0
  6  7  1  0
  7  8  1  0
  8  9  2  0
  8 10  1  0
 10 11  1  0
 10 12  1  0
 13 12  1  6
 13 14  1  0
 14 15  1  0
 15 16  1  0
 13 17  1  0
 16 17  1  0
 17 18  1  0
  7 19  1  0
  4 20  1  0
 19 20  1  0
M  END
