piperidine-amides-25543-covalent
     RDKit          3D

 25 27  0  0  0  0  0  0  0  0999 V2000
    7.0860   -3.2840   19.2290 C   0  0  0  0  0  0  0  0  0  0  0  0
    6.3090   -4.0380   20.2460 C   0  0  0  0  0  0  0  0  0  0  0  0
    5.2520   -4.5370   19.8750 O   0  0  0  0  0  0  0  0  0  0  0  0
    6.8040   -4.1990   21.5440 N   0  0  0  0  0  0  0  0  0  0  0  0
    6.5320   -5.3870   22.3030 C   0  0  0  0  0  0  0  0  0  0  0  0
    5.8370   -4.9970   23.5760 C   0  0  0  0  0  0  0  0  0  0  0  0
    6.5940   -3.8400   24.2350 C   0  0  0  0  0  0  0  0  0  0  0  0
    5.8090   -3.3440   25.3900 C   0  0  0  0  0  0  0  0  0  0  0  0
    4.5720   -3.3530   25.3340 O   0  0  0  0  0  0  0  0  0  0  0  0
    6.4480   -2.8460   26.5500 N   0  0  0  0  0  0  0  0  0  0  0  0
    6.9090   -1.4860   26.4730 C   0  0  0  0  0  0  0  0  0  0  0  0
    6.2110   -3.4210   27.8410 C   0  0  0  0  0  0  0  0  0  0  0  0
    5.4640   -4.5650   27.8210 C   0  0  0  0  0  0  0  0  0  0  0  0
    5.4230   -5.6050   26.9440 C   0  0  0  0  0  0  0  0  0  0  0  0
    4.5840   -6.6860   27.1110 C   0  0  0  0  0  0  0  0  0  0  0  0
    3.5980   -6.9030   28.2500 C   0  0  0  0  0  0  0  0  0  0  0  0
    3.6960   -5.7340   29.1620 C   0  0  0  0  0  0  0  0  0  0  0  0
    2.8050   -5.7700   30.3280 N   0  0  0  0  0  0  0  0  0  0  0  0
    2.9200   -4.5310   31.0620 C   0  0  0  0  0  0  0  0  0  0  0  0
    2.8960   -4.8460   32.5190 C   0  0  0  0  0  0  0  0  0  0  0  0
    2.8980   -6.3350   32.5720 C   0  0  0  0  0  0  0  0  0  0  0  0
    2.8830   -6.9110   31.1690 C   0  0  0  0  0  0  0  0  0  0  0  0
    4.5180   -4.6440   29.0270 C   0  0  0  0  0  0  0  0  0  0  0  0
    6.8210   -2.6950   23.2620 C   0  0  0  0  0  0  0  0  0  0  0  0
    7.5680   -3.1520   22.1990 C   0  0  0  0  0  0  0  0  0  0  0  0
  1  2  1  0
  2  3  2  0
  2  4  1  0
  4  5  1  0
  5  6  1  0
  6  7  1  0
  7  8  1  0
  8  9  2  0
  8 10  1  0
 10 11  1  0
 10 12  1  0
 12 13  1  0
 13 14  2  0
 14 15  1  0
 15 16  2  0
 16 17  1  0
 17 18  1  0
 18 19  1  0
 19 20  1  0
 20 21  1  0
 18 22  1  0
 21 22  1  0
 13 23  1  0
 17 23  2  0
  7 24  1  0
  4 25  1  0
 24 25  1  0
M  END
