piperidine-amides-13601-covalent
     RDKit          3D

 30 33  0  0  0  0  0  0  0  0999 V2000
    7.0510   -3.3240   19.3380 C   0  0  0  0  0  0  0  0  0  0  0  0
    6.3460   -4.1660   20.3440 C   0  0  0  0  0  0  0  0  0  0  0  0
    5.3750   -4.8520   19.9800 O   0  0  0  0  0  0  0  0  0  0  0  0
    6.8240   -4.1850   21.6720 N   0  0  0  0  0  0  0  0  0  0  0  0
    7.6950   -3.1440   22.1730 C   0  0  0  0  0  0  0  0  0  0  0  0
    7.5560   -3.1050   23.6920 C   0  0  0  0  0  0  0  0  0  0  0  0
    6.2020   -3.6360   23.9960 C   0  0  0  0  0  0  0  0  0  0  0  0
    5.6680   -3.2240   25.3190 C   0  0  0  0  0  0  0  0  0  0  0  0
    4.4380   -3.2170   25.4290 O   0  0  0  0  0  0  0  0  0  0  0  0
    6.5270   -2.8670   26.3660 N   0  0  0  0  0  0  0  0  0  0  0  0
    6.4810   -1.6850   27.1610 C   0  0  0  0  0  0  0  0  0  0  0  0
    7.0580   -1.5980   28.4160 C   0  0  0  0  0  0  0  0  0  0  0  0
    7.0130   -0.4350   29.1960 C   0  0  0  0  0  0  0  0  0  0  0  0
    6.3730    0.6700   28.7110 C   0  0  0  0  0  0  0  0  0  0  0  0
    6.2010    1.8820   29.2720 N   0  0  0  0  0  0  0  0  0  0  0  0
    5.5180    2.6110   28.4240 C   0  0  0  0  0  0  0  0  0  0  0  0
    5.0460    4.0630   28.5670 C   0  0  0  0  0  0  0  0  0  0  0  0
    3.6750    3.8930   29.2230 C   0  0  0  0  0  0  0  0  0  0  0  0
    3.5310    3.9850   30.6110 C   0  0  0  0  0  0  0  0  0  0  0  0
    2.3020    3.8530   31.4720 C   0  0  0  0  0  0  0  0  0  0  0  0
    1.0950    3.5810   30.5840 C   0  0  0  0  0  0  0  0  0  0  0  0
   -0.0990    3.4400   31.2880 O   0  0  0  0  0  0  0  0  0  0  0  0
   -1.1760    2.7350   30.7050 C   0  0  0  0  0  0  0  0  0  0  0  0
    1.2470    3.4850   29.1390 C   0  0  0  0  0  0  0  0  0  0  0  0
    2.5690    3.6480   28.4690 C   0  0  0  0  0  0  0  0  0  0  0  0
    5.2010    1.9880   27.2960 N   0  0  0  0  0  0  0  0  0  0  0  0
    5.7410    0.7310   27.4570 C   0  0  0  0  0  0  0  0  0  0  0  0
    5.8200   -0.5330   26.6650 C   0  0  0  0  0  0  0  0  0  0  0  0
    6.1340   -5.1300   23.7420 C   0  0  0  0  0  0  0  0  0  0  0  0
    6.6240   -5.3800   22.4850 C   0  0  0  0  0  0  0  0  0  0  0  0
  1  2  1  0
  2  3  2  0
  2  4  1  0
  4  5  1  0
  5  6  1  0
  6  7  1  0
  7  8  1  0
  8  9  2  0
  8 10  1  0
 10 11  1  0
 11 12  2  0
 12 13  1  0
 13 14  2  0
 14 15  1  0
 15 16  2  0
 16 17  1  0
 17 18  1  0
 18 19  2  0
 19 20  1  0
 20 21  2  0
 21 22  1  0
 22 23  1  0
 21 24  1  0
 18 25  1  0
 24 25  2  0
 16 26  1  0
 14 27  1  0
 26 27  1  0
 11 28  1  0
 27 28  2  0
  7 29  1  0
  4 30  1  0
 29 30  1  0
M  END
