piperidine-amides-10291-covalent
     RDKit          3D

 24 25  0  0  0  0  0  0  0  0999 V2000
    7.1090   -3.2710   19.2150 C   0  0  0  0  0  0  0  0  0  0  0  0
    6.3660   -4.0320   20.2270 C   0  0  0  0  0  0  0  0  0  0  0  0
    5.2660   -4.5200   19.8670 O   0  0  0  0  0  0  0  0  0  0  0  0
    6.9000   -4.2390   21.4990 N   0  0  0  0  0  0  0  0  0  0  0  0
    6.5510   -5.4000   22.2800 C   0  0  0  0  0  0  0  0  0  0  0  0
    5.8360   -4.9250   23.5150 C   0  0  0  0  0  0  0  0  0  0  0  0
    6.6070   -3.8430   24.2240 C   0  0  0  0  0  0  0  0  0  0  0  0
    5.8520   -3.4220   25.4310 C   0  0  0  0  0  0  0  0  0  0  0  0
    5.0680   -2.4490   25.3360 O   0  0  0  0  0  0  0  0  0  0  0  0
    5.9640   -4.0870   26.6710 N   0  0  0  0  0  0  0  0  0  0  0  0
    5.7070   -5.5150   26.6990 C   0  0  0  0  0  0  0  0  0  0  0  0
    5.2420   -6.0780   28.0380 C   0  0  0  0  0  0  0  0  0  0  0  0
    5.8500   -5.8170   29.2310 C   0  0  0  0  0  0  0  0  0  0  0  0
    5.3960   -6.3370   30.4180 C   0  0  0  0  0  0  0  0  0  0  0  0
    4.2910   -7.1550   30.4660 C   0  0  0  0  0  0  0  0  0  0  0  0
    3.8520   -7.6890   32.0350 S   0  0  0  0  0  0  0  0  0  0  0  0
    2.3900   -8.6190   31.9070 N   0  0  0  0  0  0  0  0  0  0  0  0
    3.5510   -6.4860   32.8540 O   0  0  0  0  0  0  0  0  0  0  0  0
    4.8700   -8.5700   32.6650 O   0  0  0  0  0  0  0  0  0  0  0  0
    3.6660   -7.4410   29.2600 C   0  0  0  0  0  0  0  0  0  0  0  0
    4.1390   -6.9090   28.0640 C   0  0  0  0  0  0  0  0  0  0  0  0
    3.4170   -7.2600   26.7850 C   0  0  0  0  0  0  0  0  0  0  0  0
    6.8610   -2.6720   23.3480 C   0  0  0  0  0  0  0  0  0  0  0  0
    7.5820   -3.0910   22.0940 C   0  0  0  0  0  0  0  0  0  0  0  0
  1  2  1  0
  2  3  2  0
  2  4  1  0
  4  5  1  0
  5  6  1  0
  6  7  1  0
  7  8  1  0
  8  9  2  0
  8 10  1  0
 10 11  1  0
 11 12  1  0
 12 13  2  0
 13 14  1  0
 14 15  2  0
 15 16  1  0
 16 17  1  0
 16 18  2  0
 16 19  2  0
 15 20  1  0
 12 21  1  0
 20 21  2  0
 21 22  1  0
  7 23  1  0
  4 24  1  0
 23 24  1  0
M  END
