piperidine-amides-14659-covalent
     RDKit          3D

 22 23  0  0  0  0  0  0  0  0999 V2000
    7.1630   -3.9450   19.6110 C   0  0  0  0  0  0  0  0  0  0  0  0
    5.9320   -3.9020   20.2660 C   0  0  0  0  0  0  0  0  0  0  0  0
    4.9380   -3.9480   19.5420 O   0  0  0  0  0  0  0  0  0  0  0  0
    5.9760   -3.9290   21.6570 N   0  0  0  0  0  0  0  0  0  0  0  0
    7.1310   -3.2520   22.1320 C   0  0  0  0  0  0  0  0  0  0  0  0
    6.8660   -2.7740   23.4980 C   0  0  0  0  0  0  0  0  0  0  0  0
    6.1270   -3.8660   24.2500 C   0  0  0  0  0  0  0  0  0  0  0  0
    4.8800   -3.2570   24.7940 C   0  0  0  0  0  0  0  0  0  0  0  0
    3.8130   -3.7430   24.4470 O   0  0  0  0  0  0  0  0  0  0  0  0
    5.0100   -2.1990   25.6540 N   0  0  0  0  0  0  0  0  0  0  0  0
    5.7050   -2.3840   26.8380 C   0  0  1  0  0  0  0  0  0  0  0  0
    5.3740   -3.5320   27.6040 C   0  0  0  0  0  0  0  0  0  0  0  0
    6.9940   -2.7890   26.4140 C   0  0  0  0  0  0  0  0  0  0  0  0
    7.8530   -2.2570   25.4600 C   0  0  0  0  0  0  0  0  0  0  0  0
    9.3530   -3.1950   25.3880 S   0  0  0  0  0  0  0  0  0  0  0  0
    8.7440   -4.2830   26.6930 C   0  0  0  0  0  0  0  0  0  0  0  0
    9.4710   -5.3990   27.2850 C   0  0  0  0  0  0  0  0  0  0  0  0
    8.3200   -5.9140   28.0510 C   0  0  0  0  0  0  0  0  0  0  0  0
    9.7700   -6.2320   26.1350 C   0  0  0  0  0  0  0  0  0  0  0  0
    7.5390   -3.8930   27.0320 N   0  0  0  0  0  0  0  0  0  0  0  0
    5.6850   -5.1170   23.6060 C   0  0  0  0  0  0  0  0  0  0  0  0
    5.8550   -5.2390   22.2560 C   0  0  0  0  0  0  0  0  0  0  0  0
  1  2  1  0
  2  3  2  0
  2  4  1  0
  4  5  1  0
  5  6  1  0
  6  7  1  0
  7  8  1  0
  8  9  2  0
  8 10  1  0
 10 11  1  0
 11 12  1  1
 11 13  1  0
 13 14  2  0
 14 15  1  0
 15 16  1  0
 16 17  1  0
 17 18  1  0
 17 19  1  0
 13 20  1  0
 16 20  2  0
  7 21  1  0
  4 22  1  0
 21 22  1  0
M  END
