piperidine-amides-11582-covalent
     RDKit          3D

 22 22  0  0  0  0  0  0  0  0999 V2000
    7.1180   -3.2660   19.1960 C   0  0  0  0  0  0  0  0  0  0  0  0
    6.3520   -4.0040   20.2040 C   0  0  0  0  0  0  0  0  0  0  0  0
    5.2810   -4.5430   19.8800 O   0  0  0  0  0  0  0  0  0  0  0  0
    6.8260   -4.1630   21.5140 N   0  0  0  0  0  0  0  0  0  0  0  0
    7.7210   -3.2280   22.1610 C   0  0  0  0  0  0  0  0  0  0  0  0
    6.9860   -2.6900   23.3550 C   0  0  0  0  0  0  0  0  0  0  0  0
    6.4650   -3.7970   24.2170 C   0  0  0  0  0  0  0  0  0  0  0  0
    5.7620   -3.2630   25.4160 C   0  0  0  0  0  0  0  0  0  0  0  0
    4.5190   -3.0280   25.3620 O   0  0  0  0  0  0  0  0  0  0  0  0
    6.4290   -2.9510   26.6300 N   0  0  0  0  0  0  0  0  0  0  0  0
    6.3150   -3.7450   27.8960 C   0  0  0  0  0  0  0  0  0  0  0  0
    5.0550   -4.5100   28.0080 C   0  0  0  0  0  0  0  0  0  0  0  0
    4.5840   -5.2140   26.8080 C   0  0  0  0  0  0  0  0  0  0  0  0
    5.6620   -6.1140   26.2950 C   0  0  0  0  0  0  0  0  0  0  0  0
    5.1950   -5.6440   28.9610 C   0  0  0  0  0  0  0  0  0  0  0  0
    6.5870   -6.1070   29.1690 C   0  0  0  0  0  0  0  0  0  0  0  0
    4.0790   -3.8260   28.6940 C   0  0  0  0  0  0  0  0  0  0  0  0
    3.0490   -4.5780   29.1780 F   0  0  0  0  0  0  0  0  0  0  0  0
    3.4540   -2.9610   27.8280 F   0  0  0  0  0  0  0  0  0  0  0  0
    4.4230   -2.9680   29.6960 F   0  0  0  0  0  0  0  0  0  0  0  0
    5.5610   -4.7170   23.4300 C   0  0  0  0  0  0  0  0  0  0  0  0
    6.3830   -5.2940   22.2990 C   0  0  0  0  0  0  0  0  0  0  0  0
  1  2  1  0
  2  3  2  0
  2  4  1  0
  4  5  1  0
  5  6  1  0
  6  7  1  0
  7  8  1  0
  8  9  2  0
  8 10  1  0
 10 11  1  0
 12 11  1  0
 12 13  1  0
 13 14  1  0
 12 15  1  0
 15 16  1  0
 12 17  1  0
 17 18  1  0
 17 19  1  0
 17 20  1  0
  7 21  1  0
  4 22  1  0
 21 22  1  0
M  END
