piperidine-amides-11937-covalent
     RDKit          3D

 26 28  0  0  0  0  0  0  0  0999 V2000
    7.1470   -3.2700   19.2060 C   0  0  0  0  0  0  0  0  0  0  0  0
    6.3740   -4.0270   20.1810 C   0  0  0  0  0  0  0  0  0  0  0  0
    5.2910   -4.5250   19.8740 O   0  0  0  0  0  0  0  0  0  0  0  0
    6.9190   -4.2400   21.4860 N   0  0  0  0  0  0  0  0  0  0  0  0
    7.7230   -3.2170   22.0990 C   0  0  0  0  0  0  0  0  0  0  0  0
    6.9890   -2.6360   23.2570 C   0  0  0  0  0  0  0  0  0  0  0  0
    6.5920   -3.7850   24.1640 C   0  0  0  0  0  0  0  0  0  0  0  0
    5.7570   -3.2530   25.2600 C   0  0  0  0  0  0  0  0  0  0  0  0
    4.5910   -2.8550   25.0800 O   0  0  0  0  0  0  0  0  0  0  0  0
    6.3100   -3.2170   26.5510 N   0  0  0  0  0  0  0  0  0  0  0  0
    5.8660   -4.2290   27.4690 C   0  0  0  0  0  0  0  0  0  0  0  0
    6.3440   -3.8540   28.8380 C   0  0  0  0  0  0  0  0  0  0  0  0
    6.0280   -2.6070   29.3560 C   0  0  0  0  0  0  0  0  0  0  0  0
    7.0620   -1.6370   29.4430 C   0  0  0  0  0  0  0  0  0  0  0  0
    6.8290   -0.3770   29.9530 C   0  0  0  0  0  0  0  0  0  0  0  0
    5.4940   -0.0810   30.3940 C   0  0  0  0  0  0  0  0  0  0  0  0
    4.4930   -0.9890   30.3190 C   0  0  0  0  0  0  0  0  0  0  0  0
    4.7450   -2.2420   29.8070 C   0  0  0  0  0  0  0  0  0  0  0  0
    3.6620   -3.1500   29.7530 N   0  0  0  0  0  0  0  0  0  0  0  0
    3.4870   -4.0100   30.7850 C   0  0  0  0  0  0  0  0  0  0  0  0
    2.2000   -4.6620   31.0640 C   0  0  0  0  0  0  0  0  0  0  0  0
    1.1490   -4.1240   30.7090 O   0  0  0  0  0  0  0  0  0  0  0  0
    1.3040   -3.5190   29.4990 C   0  0  0  0  0  0  0  0  0  0  0  0
    2.4040   -2.7110   29.2180 C   0  0  0  0  0  0  0  0  0  0  0  0
    5.7660   -4.8300   23.4460 C   0  0  0  0  0  0  0  0  0  0  0  0
    6.5660   -5.3880   22.2680 C   0  0  0  0  0  0  0  0  0  0  0  0
  1  2  1  0
  2  3  2  0
  2  4  1  0
  4  5  1  0
  5  6  1  0
  6  7  1  0
  7  8  1  0
  8  9  2  0
  8 10  1  0
 10 11  1  0
 11 12  1  0
 12 13  1  0
 13 14  2  0
 14 15  1  0
 15 16  2  0
 16 17  1  0
 13 18  1  0
 17 18  2  0
 18 19  1  0
 19 20  1  0
 20 21  1  0
 21 22  1  0
 22 23  1  0
 19 24  1  0
 23 24  1  0
  7 25  1  0
  4 26  1  0
 25 26  1  0
M  END
