piperidine-amides-25575-covalent
     RDKit          3D

 25 27  0  0  0  0  0  0  0  0999 V2000
    7.0520   -3.3290   19.2850 C   0  0  0  0  0  0  0  0  0  0  0  0
    6.3760   -4.1620   20.3110 C   0  0  0  0  0  0  0  0  0  0  0  0
    5.3650   -4.7680   19.9630 O   0  0  0  0  0  0  0  0  0  0  0  0
    6.9190   -4.2740   21.5980 N   0  0  0  0  0  0  0  0  0  0  0  0
    6.6580   -5.4070   22.4380 C   0  0  0  0  0  0  0  0  0  0  0  0
    5.9810   -4.9440   23.7020 C   0  0  0  0  0  0  0  0  0  0  0  0
    6.6360   -3.6630   24.2510 C   0  0  0  0  0  0  0  0  0  0  0  0
    5.7280   -3.0570   25.2570 C   0  0  0  0  0  0  0  0  0  0  0  0
    4.6390   -2.6110   24.8750 O   0  0  0  0  0  0  0  0  0  0  0  0
    6.0620   -2.9990   26.6300 N   0  0  0  0  0  0  0  0  0  0  0  0
    5.9070   -4.2340   27.3640 C   0  0  0  0  0  0  0  0  0  0  0  0
    5.1540   -5.2780   26.5460 C   0  0  0  0  0  0  0  0  0  0  0  0
    4.9090   -6.5200   27.0530 C   0  0  0  0  0  0  0  0  0  0  0  0
    5.4100   -6.6270   28.2850 C   0  0  0  0  0  0  0  0  0  0  0  0
    5.5340   -7.5100   29.3250 C   0  0  0  0  0  0  0  0  0  0  0  0
    6.1170   -5.7230   29.1260 C   0  0  0  0  0  0  0  0  0  0  0  0
    6.3630   -4.4960   28.6300 N   0  0  0  0  0  0  0  0  0  0  0  0
    6.1500   -1.7370   27.3160 C   0  0  0  0  0  0  0  0  0  0  0  0
    7.1780   -1.5270   28.4080 C   0  0  0  0  0  0  0  0  0  0  0  0
    6.5190   -0.5370   29.3050 C   0  0  0  0  0  0  0  0  0  0  0  0
    6.1740    0.7190   28.5980 C   0  0  0  0  0  0  0  0  0  0  0  0
    5.7110    0.6270   27.1610 C   0  0  0  0  0  0  0  0  0  0  0  0
    6.0160   -0.6550   26.4520 C   0  0  0  0  0  0  0  0  0  0  0  0
    6.8700   -2.6370   23.1610 C   0  0  0  0  0  0  0  0  0  0  0  0
    7.6740   -3.1860   22.1970 C   0  0  0  0  0  0  0  0  0  0  0  0
  1  2  1  0
  2  3  2  0
  2  4  1  0
  4  5  1  0
  5  6  1  0
  6  7  1  0
  7  8  1  0
  8  9  2  0
  8 10  1  0
 10 11  1  0
 11 12  2  0
 12 13  1  0
 13 14  2  0
 14 15  1  0
 14 16  1  0
 11 17  1  0
 16 17  2  0
 10 18  1  0
 18 19  1  0
 19 20  1  0
 20 21  1  0
 21 22  1  0
 18 23  1  0
 22 23  1  0
  7 24  1  0
  4 25  1  0
 24 25  1  0
M  END
