piperidine-amides-10130-covalent
     RDKit          3D

 25 27  0  0  0  0  0  0  0  0999 V2000
    7.0650   -3.3330   19.2970 C   0  0  0  0  0  0  0  0  0  0  0  0
    6.3870   -4.1460   20.3130 C   0  0  0  0  0  0  0  0  0  0  0  0
    5.3370   -4.7360   19.9470 O   0  0  0  0  0  0  0  0  0  0  0  0
    6.9220   -4.2840   21.5970 N   0  0  0  0  0  0  0  0  0  0  0  0
    6.6080   -5.4350   22.4090 C   0  0  0  0  0  0  0  0  0  0  0  0
    5.9220   -4.9480   23.6580 C   0  0  0  0  0  0  0  0  0  0  0  0
    6.6490   -3.7880   24.2930 C   0  0  0  0  0  0  0  0  0  0  0  0
    5.8980   -3.2990   25.4740 C   0  0  0  0  0  0  0  0  0  0  0  0
    4.6570   -3.1700   25.3600 O   0  0  0  0  0  0  0  0  0  0  0  0
    6.4970   -2.9760   26.7120 N   0  0  0  0  0  0  0  0  0  0  0  0
    6.4270   -1.6240   27.2180 C   0  0  0  0  0  0  0  0  0  0  0  0
    5.8540   -0.4930   26.4060 C   0  0  0  0  0  0  0  0  0  0  0  0
    5.7610    0.7970   26.8530 C   0  0  0  0  0  0  0  0  0  0  0  0
    5.2340    1.8120   26.0910 C   0  0  0  0  0  0  0  0  0  0  0  0
    6.2070    1.1140   28.1140 C   0  0  0  0  0  0  0  0  0  0  0  0
    6.7600    0.1880   28.9800 C   0  0  0  0  0  0  0  0  0  0  0  0
    7.1620    0.6550   30.2150 C   0  0  0  0  0  0  0  0  0  0  0  0
    7.6840   -0.3190   31.2410 C   0  0  0  0  0  0  0  0  0  0  0  0
    8.0990    0.2930   32.5760 C   0  0  0  0  0  0  0  0  0  0  0  0
    7.9580    1.7630   32.7430 C   0  0  0  0  0  0  0  0  0  0  0  0
    7.4270    2.6490   31.6530 C   0  0  0  0  0  0  0  0  0  0  0  0
    7.0640    2.0380   30.4640 C   0  0  0  0  0  0  0  0  0  0  0  0
    6.8690   -1.1250   28.5520 C   0  0  0  0  0  0  0  0  0  0  0  0
    6.8290   -2.6730   23.3210 C   0  0  0  0  0  0  0  0  0  0  0  0
    7.6890   -3.1900   22.1720 C   0  0  0  0  0  0  0  0  0  0  0  0
  1  2  1  0
  2  3  2  0
  2  4  1  0
  4  5  1  0
  5  6  1  0
  6  7  1  0
  7  8  1  0
  8  9  2  0
  8 10  1  0
 10 11  1  0
 11 12  2  0
 12 13  1  0
 13 14  1  0
 13 15  2  0
 15 16  1  0
 16 17  1  0
 17 18  2  0
 18 19  1  0
 19 20  2  0
 20 21  1  0
 17 22  1  0
 21 22  2  0
 11 23  1  0
 16 23  2  0
  7 24  1  0
  4 25  1  0
 24 25  1  0
M  END
