piperidine-amides-1160-covalent
     RDKit          3D

 23 25  0  0  0  0  0  0  0  0999 V2000
    7.0290   -3.3270   19.3330 C   0  0  0  0  0  0  0  0  0  0  0  0
    6.3390   -4.1750   20.3480 C   0  0  0  0  0  0  0  0  0  0  0  0
    5.3800   -4.8750   19.9870 O   0  0  0  0  0  0  0  0  0  0  0  0
    6.8220   -4.1880   21.6790 N   0  0  0  0  0  0  0  0  0  0  0  0
    7.7000   -3.1370   22.1570 C   0  0  0  0  0  0  0  0  0  0  0  0
    7.5090   -3.0300   23.6610 C   0  0  0  0  0  0  0  0  0  0  0  0
    6.1430   -3.5440   23.9150 C   0  0  0  0  0  0  0  0  0  0  0  0
    5.6650   -3.2120   25.2750 C   0  0  0  0  0  0  0  0  0  0  0  0
    4.4520   -3.3280   25.4820 O   0  0  0  0  0  0  0  0  0  0  0  0
    6.5830   -2.7900   26.2370 N   0  0  0  0  0  0  0  0  0  0  0  0
    6.5090   -1.6390   27.0700 C   0  0  0  0  0  0  0  0  0  0  0  0
    7.0050   -1.5870   28.3640 C   0  0  0  0  0  0  0  0  0  0  0  0
    6.9340   -0.4510   29.1970 C   0  0  0  0  0  0  0  0  0  0  0  0
    6.3460    0.7150   28.7610 C   0  0  0  0  0  0  0  0  0  0  0  0
    5.7900    0.7650   27.4000 C   0  0  0  0  0  0  0  0  0  0  0  0
    5.8960   -0.4910   26.5430 C   0  0  0  0  0  0  0  0  0  0  0  0
    5.2290    2.0280   27.1170 N   0  0  0  0  0  0  0  0  0  0  0  0
    4.5420    2.7470   28.1290 C   0  0  0  0  0  0  0  0  0  0  0  0
    3.4620    3.5820   27.9000 O   0  0  0  0  0  0  0  0  0  0  0  0
    4.9880    2.5940   29.4280 C   0  0  0  0  0  0  0  0  0  0  0  0
    6.2610    1.8350   29.5600 C   0  0  0  0  0  0  0  0  0  0  0  0
    5.9680   -5.0050   23.6330 C   0  0  0  0  0  0  0  0  0  0  0  0
    6.6820   -5.3640   22.5090 C   0  0  0  0  0  0  0  0  0  0  0  0
  1  2  1  0
  2  3  2  0
  2  4  1  0
  4  5  1  0
  5  6  1  0
  6  7  1  0
  7  8  1  0
  8  9  2  0
  8 10  1  0
 10 11  1  0
 11 12  2  0
 12 13  1  0
 13 14  2  0
 14 15  1  0
 11 16  1  0
 15 16  2  0
 15 17  1  0
 17 18  1  0
 18 19  2  0
 18 20  1  0
 14 21  1  0
 20 21  1  0
  7 22  1  0
  4 23  1  0
 22 23  1  0
M  END
