piperidine-amides-10883-covalent
     RDKit          3D

 22 23  0  0  0  0  0  0  0  0999 V2000
    7.1140   -3.3120   19.3020 C   0  0  0  0  0  0  0  0  0  0  0  0
    6.3470   -4.0510   20.3050 C   0  0  0  0  0  0  0  0  0  0  0  0
    5.3320   -4.6700   19.9390 O   0  0  0  0  0  0  0  0  0  0  0  0
    6.7690   -4.1100   21.6500 N   0  0  0  0  0  0  0  0  0  0  0  0
    7.7290   -3.1510   22.1770 C   0  0  0  0  0  0  0  0  0  0  0  0
    7.4580   -3.0290   23.6520 C   0  0  0  0  0  0  0  0  0  0  0  0
    6.1130   -3.5910   23.9820 C   0  0  0  0  0  0  0  0  0  0  0  0
    5.6000   -3.2810   25.3440 C   0  0  0  0  0  0  0  0  0  0  0  0
    4.3660   -3.0380   25.4930 O   0  0  0  0  0  0  0  0  0  0  0  0
    6.3830   -3.2360   26.5250 N   0  0  0  0  0  0  0  0  0  0  0  0
    5.7660   -3.6150   27.8240 C   0  0  2  0  0  0  0  0  0  0  0  0
    5.8110   -2.4600   28.7540 C   0  0  0  0  0  0  0  0  0  0  0  0
    4.7480   -1.6980   29.4050 C   0  0  0  0  0  0  0  0  0  0  0  0
    5.3210   -0.6340   30.2570 N   0  0  0  0  0  0  0  0  0  0  0  0
    6.6430   -0.7710   30.1090 N   0  0  0  0  0  0  0  0  0  0  0  0
    7.4360    0.0930   30.7990 C   0  0  0  0  0  0  0  0  0  0  0  0
    6.9780   -1.7630   29.2840 C   0  0  0  0  0  0  0  0  0  0  0  0
    6.5260   -4.6860   28.5060 C   0  0  0  0  0  0  0  0  0  0  0  0
    5.6750   -5.3580   29.3400 C   0  0  0  0  0  0  0  0  0  0  0  0
    6.3200   -6.1700   28.2740 C   0  0  0  0  0  0  0  0  0  0  0  0
    6.0410   -5.1040   23.7450 C   0  0  0  0  0  0  0  0  0  0  0  0
    6.5980   -5.3790   22.3370 C   0  0  0  0  0  0  0  0  0  0  0  0
  1  2  1  0
  2  3  2  0
  2  4  1  0
  4  5  1  0
  5  6  1  0
  6  7  1  0
  7  8  1  0
  8  9  2  0
  8 10  1  0
 11 10  1  6
 11 12  1  0
 12 13  1  0
 13 14  2  0
 14 15  1  0
 15 16  1  0
 12 17  2  0
 15 17  1  0
 11 18  1  0
 18 19  1  0
 18 20  1  0
  7 21  1  0
  4 22  1  0
 21 22  1  0
M  END
