piperidine-amides-13959-covalent
     RDKit          3D

 26 28  0  0  0  0  0  0  0  0999 V2000
    7.1000   -3.2640   19.2410 C   0  0  0  0  0  0  0  0  0  0  0  0
    6.3270   -4.0420   20.2450 C   0  0  0  0  0  0  0  0  0  0  0  0
    5.2730   -4.5950   19.8980 O   0  0  0  0  0  0  0  0  0  0  0  0
    6.8360   -4.1710   21.5520 N   0  0  0  0  0  0  0  0  0  0  0  0
    7.7100   -3.1580   22.1080 C   0  0  0  0  0  0  0  0  0  0  0  0
    7.4880   -3.1400   23.6160 C   0  0  0  0  0  0  0  0  0  0  0  0
    6.1170   -3.6760   23.8430 C   0  0  0  0  0  0  0  0  0  0  0  0
    5.5690   -3.3080   25.1600 C   0  0  0  0  0  0  0  0  0  0  0  0
    4.3770   -2.9900   25.1930 O   0  0  0  0  0  0  0  0  0  0  0  0
    6.3890   -3.3350   26.2800 N   0  0  0  0  0  0  0  0  0  0  0  0
    5.9920   -3.1680   27.6210 C   0  0  2  0  0  0  0  0  0  0  0  0
    6.7860   -3.3540   28.7060 C   0  0  0  0  0  0  0  0  0  0  0  0
    4.8070   -4.0670   27.9520 C   0  0  0  0  0  0  0  0  0  0  0  0
    4.7000   -5.6970   28.4830 S   0  0  0  0  0  0  0  0  0  0  0  0
    2.9950   -5.6690   28.5550 C   0  0  0  0  0  0  0  0  0  0  0  0
    1.9800   -6.6880   28.9370 C   0  0  0  0  0  0  0  0  0  0  0  0
    2.2640   -8.1210   29.3990 C   0  0  0  0  0  0  0  0  0  0  0  0
    1.0410   -8.9490   29.7250 C   0  0  0  0  0  0  0  0  0  0  0  0
   -0.2140   -8.4400   29.6110 C   0  0  0  0  0  0  0  0  0  0  0  0
   -0.6730   -7.0930   29.1880 C   0  0  0  0  0  0  0  0  0  0  0  0
    0.5520   -6.2230   28.8460 C   0  0  0  0  0  0  0  0  0  0  0  0
    2.5500   -4.4690   28.1850 N   0  0  0  0  0  0  0  0  0  0  0  0
    3.4780   -3.5660   27.8490 C   0  0  0  0  0  0  0  0  0  0  0  0
    3.0570   -2.1450   27.4100 C   0  0  0  0  0  0  0  0  0  0  0  0
    5.9930   -5.1430   23.5960 C   0  0  0  0  0  0  0  0  0  0  0  0
    6.6940   -5.4260   22.2660 C   0  0  0  0  0  0  0  0  0  0  0  0
  1  2  1  0
  2  3  2  0
  2  4  1  0
  4  5  1  0
  5  6  1  0
  6  7  1  0
  7  8  1  0
  8  9  2  0
  8 10  1  0
 10 11  1  0
 11 12  1  1
 11 13  1  0
 13 14  1  0
 14 15  1  0
 15 16  1  0
 16 17  2  0
 17 18  1  0
 18 19  2  0
 19 20  1  0
 16 21  1  0
 20 21  2  0
 15 22  2  0
 13 23  2  0
 22 23  1  0
 23 24  1  0
  7 25  1  0
  4 26  1  0
 25 26  1  0
M  END
