piperidine-amides-18798-covalent
     RDKit          3D

 21 21  0  0  0  0  0  0  0  0999 V2000
    7.0920   -3.3210   19.2720 C   0  0  0  0  0  0  0  0  0  0  0  0
    6.2920   -3.9940   20.2750 C   0  0  0  0  0  0  0  0  0  0  0  0
    5.2150   -4.5260   19.8760 O   0  0  0  0  0  0  0  0  0  0  0  0
    6.6540   -4.1600   21.6320 N   0  0  0  0  0  0  0  0  0  0  0  0
    7.6880   -3.2110   22.1620 C   0  0  0  0  0  0  0  0  0  0  0  0
    7.2140   -2.8610   23.6360 C   0  0  0  0  0  0  0  0  0  0  0  0
    6.2410   -3.9380   24.0340 C   0  0  0  0  0  0  0  0  0  0  0  0
    5.5020   -3.5970   25.4100 C   0  0  0  0  0  0  0  0  0  0  0  0
    4.4520   -4.2100   25.4830 O   0  0  0  0  0  0  0  0  0  0  0  0
    6.1730   -2.7570   26.0870 N   0  0  0  0  0  0  0  0  0  0  0  0
    6.7750   -1.5760   26.3640 C   0  0  0  0  0  0  0  0  0  0  0  0
    6.3410   -0.2850   26.4430 C   0  0  0  0  0  0  0  0  0  0  0  0
    6.1230   -3.3530   27.4330 C   0  0  0  0  0  0  0  0  0  0  0  0
    5.9880   -4.8180   27.6460 C   0  0  0  0  0  0  0  0  0  0  0  0
    6.0300   -5.6160   26.5040 O   0  0  0  0  0  0  0  0  0  0  0  0
    5.7930   -5.5190   28.8580 N   0  0  0  0  0  0  0  0  0  0  0  0
    5.3940   -6.9250   28.8400 C   0  0  0  0  0  0  0  0  0  0  0  0
    4.3440   -7.1600   29.7350 C   0  0  0  0  0  0  0  0  0  0  0  0
    5.8720   -7.6280   30.1000 C   0  0  0  0  0  0  0  0  0  0  0  0
    6.6150   -5.2840   23.7640 C   0  0  0  0  0  0  0  0  0  0  0  0
    6.5960   -5.4420   22.2150 C   0  0  0  0  0  0  0  0  0  0  0  0
  1  2  1  0
  2  3  2  0
  2  4  1  0
  4  5  1  0
  5  6  1  0
  6  7  1  0
  7  8  1  0
  8  9  2  0
  8 10  1  0
 10 11  1  0
 11 12  1  0
 10 13  1  0
 13 14  1  0
 14 15  2  0
 14 16  1  0
 16 17  1  0
 17 18  1  0
 17 19  1  0
  7 20  1  0
  4 21  1  0
 20 21  1  0
M  END
