piperidine-amides-3307-covalent
     RDKit          3D

 22 23  0  0  0  0  0  0  0  0999 V2000
    7.1190   -3.3750   19.3840 C   0  0  0  0  0  0  0  0  0  0  0  0
    6.4060   -4.1990   20.3400 C   0  0  0  0  0  0  0  0  0  0  0  0
    5.4000   -4.8230   19.9880 O   0  0  0  0  0  0  0  0  0  0  0  0
    6.9330   -4.3140   21.6740 N   0  0  0  0  0  0  0  0  0  0  0  0
    7.6530   -3.2080   22.2330 C   0  0  0  0  0  0  0  0  0  0  0  0
    6.8750   -2.6700   23.3960 C   0  0  0  0  0  0  0  0  0  0  0  0
    6.5050   -3.8300   24.3080 C   0  0  0  0  0  0  0  0  0  0  0  0
    5.7470   -3.3150   25.4970 C   0  0  0  0  0  0  0  0  0  0  0  0
    4.4960   -3.2410   25.5320 O   0  0  0  0  0  0  0  0  0  0  0  0
    6.4790   -2.9030   26.6460 N   0  0  0  0  0  0  0  0  0  0  0  0
    6.4140   -1.5330   27.1450 C   0  0  0  0  0  0  0  0  0  0  0  0
    7.2410   -1.4760   28.4580 C   0  0  0  0  0  0  0  0  0  0  0  0
    7.1450   -0.1410   28.8870 N   0  0  0  0  0  0  0  0  0  0  0  0
    6.4740    0.8820   28.3080 C   0  0  0  0  0  0  0  0  0  0  0  0
    6.4550    2.0380   28.7910 O   0  0  0  0  0  0  0  0  0  0  0  0
    6.1450    2.1920   30.1440 C   0  0  0  0  0  0  0  0  0  0  0  0
    5.7070    0.6780   27.0280 C   0  0  0  0  0  0  0  0  0  0  0  0
    4.9230    1.6040   26.2200 C   0  0  0  0  0  0  0  0  0  0  0  0
    3.5960    1.5540   26.4720 N   0  0  0  0  0  0  0  0  0  0  0  0
    5.7150   -0.5270   26.5010 C   0  0  0  0  0  0  0  0  0  0  0  0
    5.6360   -4.8360   23.5400 C   0  0  0  0  0  0  0  0  0  0  0  0
    6.4190   -5.3690   22.5130 C   0  0  0  0  0  0  0  0  0  0  0  0
  1  2  1  0
  2  3  2  0
  2  4  1  0
  4  5  1  0
  5  6  1  0
  6  7  1  0
  7  8  1  0
  8  9  2  0
  8 10  1  0
 10 11  1  0
 11 12  2  0
 12 13  1  0
 13 14  2  0
 14 15  1  0
 15 16  1  0
 14 17  1  0
 17 18  1  0
 18 19  3  0
 11 20  1  0
 17 20  2  0
  7 21  1  0
  4 22  1  0
 21 22  1  0
M  END
