piperidine-amides-29321-covalent
     RDKit          3D

 26 27  0  0  0  0  0  0  0  0999 V2000
    7.1010   -3.2860   19.2810 C   0  0  0  0  0  0  0  0  0  0  0  0
    6.3290   -4.0330   20.2690 C   0  0  0  0  0  0  0  0  0  0  0  0
    5.2700   -4.5710   19.8940 O   0  0  0  0  0  0  0  0  0  0  0  0
    6.8130   -4.1800   21.5940 N   0  0  0  0  0  0  0  0  0  0  0  0
    6.6080   -5.4520   22.2330 C   0  0  0  0  0  0  0  0  0  0  0  0
    6.2400   -5.2530   23.6780 C   0  0  0  0  0  0  0  0  0  0  0  0
    6.0420   -3.7680   23.8760 C   0  0  0  0  0  0  0  0  0  0  0  0
    5.4510   -3.4690   25.2180 C   0  0  0  0  0  0  0  0  0  0  0  0
    4.2280   -3.3710   25.2450 O   0  0  0  0  0  0  0  0  0  0  0  0
    6.2610   -3.3100   26.3340 N   0  0  0  0  0  0  0  0  0  0  0  0
    6.5470   -1.9840   26.7470 C   0  0  0  0  0  0  0  0  0  0  0  0
    5.4810   -1.0830   26.6050 C   0  0  0  0  0  0  0  0  0  0  0  0
    5.4250   -0.1150   27.5640 C   0  0  0  0  0  0  0  0  0  0  0  0
    4.3200    0.7320   27.7050 C   0  0  0  0  0  0  0  0  0  0  0  0
    4.3700    1.7640   28.8020 C   0  0  0  0  0  0  0  0  0  0  0  0
    5.6100    1.8540   29.7150 C   0  0  0  0  0  0  0  0  0  0  0  0
    6.6590    0.8710   29.3950 C   0  0  0  0  0  0  0  0  0  0  0  0
    7.7360    0.8030   30.0310 O   0  0  0  0  0  0  0  0  0  0  0  0
    7.8540   -0.3820   30.7570 C   0  0  0  0  0  0  0  0  0  0  0  0
    6.5160   -0.0120   28.3900 C   0  0  0  0  0  0  0  0  0  0  0  0
    6.2430   -3.6340   27.7540 C   0  0  0  0  0  0  0  0  0  0  0  0
    6.2580   -5.0010   27.9710 C   0  0  0  0  0  0  0  0  0  0  0  0
    5.2360   -5.5010   28.7430 F   0  0  0  0  0  0  0  0  0  0  0  0
    6.0290   -5.8030   26.8950 F   0  0  0  0  0  0  0  0  0  0  0  0
    7.2920   -3.0010   23.6330 C   0  0  0  0  0  0  0  0  0  0  0  0
    7.6730   -3.1890   22.1960 C   0  0  0  0  0  0  0  0  0  0  0  0
  1  2  1  0
  2  3  2  0
  2  4  1  0
  4  5  1  0
  5  6  1  0
  6  7  1  0
  7  8  1  0
  8  9  2  0
  8 10  1  0
 10 11  1  0
 11 12  1  0
 12 13  1  0
 13 14  2  0
 14 15  1  0
 15 16  2  0
 16 17  1  0
 17 18  1  0
 18 19  1  0
 13 20  1  0
 17 20  2  0
 10 21  1  0
 21 22  1  0
 22 23  1  0
 22 24  1  0
  7 25  1  0
  4 26  1  0
 25 26  1  0
M  END
