piperidine-amides-13735-covalent
     RDKit          3D

 27 29  0  0  0  0  0  0  0  0999 V2000
    7.1740   -3.3130   19.2630 C   0  0  0  0  0  0  0  0  0  0  0  0
    6.3960   -4.0790   20.2650 C   0  0  0  0  0  0  0  0  0  0  0  0
    5.3200   -4.6010   19.9180 O   0  0  0  0  0  0  0  0  0  0  0  0
    6.9460   -4.2370   21.5560 N   0  0  0  0  0  0  0  0  0  0  0  0
    7.7710   -3.2330   22.1680 C   0  0  0  0  0  0  0  0  0  0  0  0
    6.9270   -2.6350   23.2870 C   0  0  0  0  0  0  0  0  0  0  0  0
    6.5080   -3.7390   24.2030 C   0  0  0  0  0  0  0  0  0  0  0  0
    5.6840   -3.2110   25.3130 C   0  0  0  0  0  0  0  0  0  0  0  0
    4.5120   -2.9780   25.0050 O   0  0  0  0  0  0  0  0  0  0  0  0
    6.2070   -2.9830   26.6010 N   0  0  0  0  0  0  0  0  0  0  0  0
    5.9510   -3.7460   27.7800 C   0  0  2  0  0  0  0  0  0  0  0  0
    5.2030   -4.9090   27.6890 C   0  0  0  0  0  0  0  0  0  0  0  0
    4.0700   -4.9450   26.8240 C   0  0  0  0  0  0  0  0  0  0  0  0
    3.2530   -6.0440   26.6460 C   0  0  0  0  0  0  0  0  0  0  0  0
    3.5470   -7.2760   27.3850 C   0  0  0  0  0  0  0  0  0  0  0  0
    4.7260   -7.3340   28.3230 C   0  0  0  0  0  0  0  0  0  0  0  0
    5.5230   -6.0370   28.4040 C   0  0  0  0  0  0  0  0  0  0  0  0
    6.6040   -6.0510   29.2440 C   0  0  0  0  0  0  0  0  0  0  0  0
    5.6980   -3.0200   29.0500 C   0  0  2  0  0  0  0  0  0  0  0  0
    4.4360   -2.8960   28.2270 C   0  0  0  0  0  0  0  0  0  0  0  0
    3.3800   -2.3850   28.9530 C   0  0  0  0  0  0  0  0  0  0  0  0
    4.0310   -1.2060   28.1240 C   0  0  2  0  0  0  0  0  0  0  0  0
    3.8570   -1.3280   26.6200 C   0  0  0  0  0  0  0  0  0  0  0  0
    5.3040   -0.7440   28.5750 C   0  0  0  0  0  0  0  0  0  0  0  0
    6.2200   -1.7960   29.0490 C   0  0  0  0  0  0  0  0  0  0  0  0
    5.7880   -4.8860   23.4920 C   0  0  0  0  0  0  0  0  0  0  0  0
    6.5080   -5.3120   22.4120 C   0  0  0  0  0  0  0  0  0  0  0  0
  1  2  1  0
  2  3  2  0
  2  4  1  0
  4  5  1  0
  5  6  1  0
  6  7  1  0
  7  8  1  0
  8  9  2  0
  8 10  1  0
 11 10  1  6
 11 12  1  0
 12 13  2  0
 13 14  1  0
 14 15  2  0
 15 16  1  0
 12 17  1  0
 16 17  2  0
 17 18  1  0
 11 19  1  0
 19 20  1  6
 20 21  1  0
 21 22  1  0
 22 23  1  6
 22 24  1  0
 19 25  1  0
 24 25  1  0
  7 26  1  0
  4 27  1  0
 26 27  1  0
M  END
