piperidine-amides-13440-covalent
     RDKit          3D

 24 26  0  0  0  0  0  0  0  0999 V2000
    7.1160   -3.3410   19.3180 C   0  0  0  0  0  0  0  0  0  0  0  0
    6.3600   -4.1440   20.3140 C   0  0  0  0  0  0  0  0  0  0  0  0
    5.3290   -4.7380   19.9520 O   0  0  0  0  0  0  0  0  0  0  0  0
    6.8670   -4.2470   21.6250 N   0  0  0  0  0  0  0  0  0  0  0  0
    7.7570   -3.2460   22.1760 C   0  0  0  0  0  0  0  0  0  0  0  0
    7.0400   -2.6340   23.3670 C   0  0  0  0  0  0  0  0  0  0  0  0
    6.5540   -3.7750   24.1810 C   0  0  0  0  0  0  0  0  0  0  0  0
    5.7870   -3.3100   25.3560 C   0  0  0  0  0  0  0  0  0  0  0  0
    4.5610   -3.2090   25.2170 O   0  0  0  0  0  0  0  0  0  0  0  0
    6.4490   -3.0050   26.5410 N   0  0  0  0  0  0  0  0  0  0  0  0
    6.4470   -1.7590   27.2270 C   0  0  0  0  0  0  0  0  0  0  0  0
    6.9780   -1.6040   28.4880 C   0  0  0  0  0  0  0  0  0  0  0  0
    6.9800   -0.3870   29.1950 C   0  0  0  0  0  0  0  0  0  0  0  0
    6.4350    0.7630   28.6600 C   0  0  0  0  0  0  0  0  0  0  0  0
    6.3760    1.9800   29.2540 N   0  0  0  0  0  0  0  0  0  0  0  0
    6.4640    2.1310   30.6080 C   0  0  0  0  0  0  0  0  0  0  0  0
    5.2300    2.9350   31.1180 C   0  0  0  0  0  0  0  0  0  0  0  0
    4.6110    3.1170   29.7380 C   0  0  0  0  0  0  0  0  0  0  0  0
    3.4300    3.8340   29.8010 O   0  0  0  0  0  0  0  0  0  0  0  0
    5.3050    2.5670   28.7690 N   0  0  0  0  0  0  0  0  0  0  0  0
    5.8920    0.7220   27.4220 C   0  0  0  0  0  0  0  0  0  0  0  0
    5.8780   -0.5390   26.6600 C   0  0  0  0  0  0  0  0  0  0  0  0
    5.7530   -4.8070   23.4430 C   0  0  0  0  0  0  0  0  0  0  0  0
    6.5430   -5.3650   22.4670 C   0  0  0  0  0  0  0  0  0  0  0  0
  1  2  1  0
  2  3  2  0
  2  4  1  0
  4  5  1  0
  5  6  1  0
  6  7  1  0
  7  8  1  0
  8  9  2  0
  8 10  1  0
 10 11  1  0
 11 12  2  0
 12 13  1  0
 13 14  2  0
 14 15  1  0
 15 16  1  0
 16 17  1  0
 17 18  1  0
 18 19  2  0
 15 20  1  0
 18 20  1  0
 14 21  1  0
 11 22  1  0
 21 22  2  0
  7 23  1  0
  4 24  1  0
 23 24  1  0
M  END
