piperidine-amides-13697-covalent
     RDKit          3D

 27 29  0  0  0  0  0  0  0  0999 V2000
    7.0450   -3.3090   19.3100 C   0  0  0  0  0  0  0  0  0  0  0  0
    6.3380   -4.1550   20.3130 C   0  0  0  0  0  0  0  0  0  0  0  0
    5.3310   -4.7920   19.9590 O   0  0  0  0  0  0  0  0  0  0  0  0
    6.8500   -4.2450   21.6220 N   0  0  0  0  0  0  0  0  0  0  0  0
    7.6490   -3.1730   22.1840 C   0  0  0  0  0  0  0  0  0  0  0  0
    7.5160   -3.2440   23.7000 C   0  0  0  0  0  0  0  0  0  0  0  0
    6.1410   -3.7340   23.9840 C   0  0  0  0  0  0  0  0  0  0  0  0
    5.6320   -3.2170   25.2720 C   0  0  0  0  0  0  0  0  0  0  0  0
    4.4070   -3.1850   25.4170 O   0  0  0  0  0  0  0  0  0  0  0  0
    6.5410   -2.8030   26.2450 N   0  0  0  0  0  0  0  0  0  0  0  0
    6.4730   -1.6300   27.0410 C   0  0  0  0  0  0  0  0  0  0  0  0
    6.9520   -1.6150   28.3280 C   0  0  0  0  0  0  0  0  0  0  0  0
    6.9280   -0.5130   29.1730 C   0  0  0  0  0  0  0  0  0  0  0  0
    6.4090    0.7000   28.8000 C   0  0  0  0  0  0  0  0  0  0  0  0
    6.3310    1.8100   29.5160 O   0  0  0  0  0  0  0  0  0  0  0  0
    6.0430    1.5470   30.7680 C   0  0  0  0  0  0  0  0  0  0  0  0
    5.8960    0.7780   27.5070 C   0  0  0  0  0  0  0  0  0  0  0  0
    5.1780    2.2570   26.8280 S   0  0  0  0  0  0  0  0  0  0  0  0
    6.0400    3.4170   27.2100 O   0  0  0  0  0  0  0  0  0  0  0  0
    5.1540    2.2150   25.3350 O   0  0  0  0  0  0  0  0  0  0  0  0
    3.5460    2.4380   27.3360 N   0  0  0  0  0  0  0  0  0  0  0  0
    2.8950    1.1800   27.4010 C   0  0  0  0  0  0  0  0  0  0  0  0
    1.7030    1.2030   27.7690 C   0  0  0  0  0  0  0  0  0  0  0  0
    2.5620    0.4790   28.7650 C   0  0  0  0  0  0  0  0  0  0  0  0
    5.9170   -0.3120   26.6600 C   0  0  0  0  0  0  0  0  0  0  0  0
    6.1770   -5.1890   23.8230 C   0  0  0  0  0  0  0  0  0  0  0  0
    6.6500   -5.4620   22.3780 C   0  0  0  0  0  0  0  0  0  0  0  0
  1  2  1  0
  2  3  2  0
  2  4  1  0
  4  5  1  0
  5  6  1  0
  6  7  1  0
  7  8  1  0
  8  9  2  0
  8 10  1  0
 10 11  1  0
 11 12  2  0
 12 13  1  0
 13 14  2  0
 14 15  1  0
 15 16  1  0
 14 17  1  0
 17 18  1  0
 18 19  2  0
 18 20  2  0
 18 21  1  0
 21 22  1  0
 22 23  1  0
 22 24  1  0
 23 24  1  0
 11 25  1  0
 17 25  2  0
  7 26  1  0
  4 27  1  0
 26 27  1  0
M  END
