piperidine-amides-4649-covalent
     RDKit          3D

 24 25  0  0  0  0  0  0  0  0999 V2000
    7.1070   -3.2590   19.2300 C   0  0  0  0  0  0  0  0  0  0  0  0
    6.3670   -4.0210   20.2610 C   0  0  0  0  0  0  0  0  0  0  0  0
    5.3030   -4.5660   19.8930 O   0  0  0  0  0  0  0  0  0  0  0  0
    6.8700   -4.1600   21.5650 N   0  0  0  0  0  0  0  0  0  0  0  0
    7.6090   -3.1080   22.1820 C   0  0  0  0  0  0  0  0  0  0  0  0
    7.1460   -2.7500   23.5310 C   0  0  0  0  0  0  0  0  0  0  0  0
    5.7790   -3.2140   23.8920 C   0  0  0  0  0  0  0  0  0  0  0  0
    5.4940   -3.0910   25.3650 C   0  0  0  0  0  0  0  0  0  0  0  0
    4.3220   -3.3200   25.7200 O   0  0  0  0  0  0  0  0  0  0  0  0
    6.4660   -2.7010   26.3330 N   0  0  0  0  0  0  0  0  0  0  0  0
    6.6200   -3.2790   27.7130 C   0  0  2  0  0  0  0  0  0  0  0  0
    7.8890   -3.9960   27.8290 C   0  0  0  0  0  0  0  0  0  0  0  0
    7.7910   -5.3880   27.5570 C   0  0  0  0  0  0  0  0  0  0  0  0
    6.8420   -5.5860   26.5930 C   0  0  0  0  0  0  0  0  0  0  0  0
    7.1900   -5.2900   25.2950 C   0  0  0  0  0  0  0  0  0  0  0  0
    8.4810   -4.9300   25.1750 C   0  0  0  0  0  0  0  0  0  0  0  0
    9.3460   -5.6490   25.9340 C   0  0  0  0  0  0  0  0  0  0  0  0
    8.9510   -5.9600   27.1740 C   0  0  0  0  0  0  0  0  0  0  0  0
    5.4460   -4.0220   28.2670 C   0  0  0  0  0  0  0  0  0  0  0  0
    4.8490   -3.4390   29.1900 O   0  0  0  0  0  0  0  0  0  0  0  0
    4.9500   -5.2740   27.8860 O   0  0  0  0  0  0  0  0  0  0  0  0
    5.2370   -6.4880   28.5790 C   0  0  0  0  0  0  0  0  0  0  0  0
    5.3840   -4.5840   23.4010 C   0  0  0  0  0  0  0  0  0  0  0  0
    6.3790   -5.1900   22.4390 C   0  0  0  0  0  0  0  0  0  0  0  0
  1  2  1  0
  2  3  2  0
  2  4  1  0
  4  5  1  0
  5  6  1  0
  6  7  1  0
  7  8  1  0
  8  9  2  0
  8 10  1  0
 10 11  1  0
 11 12  1  6
 12 13  1  0
 13 14  1  0
 14 15  1  0
 15 16  1  0
 16 17  1  0
 13 18  1  0
 17 18  1  0
 11 19  1  0
 19 20  2  0
 19 21  1  0
 21 22  1  0
  7 23  1  0
  4 24  1  0
 23 24  1  0
M  END
