piperidine-amides-26102-covalent
     RDKit          3D

 25 27  0  0  0  0  0  0  0  0999 V2000
    7.0380   -3.3770   19.4280 C   0  0  0  0  0  0  0  0  0  0  0  0
    6.3790   -4.2640   20.3880 C   0  0  0  0  0  0  0  0  0  0  0  0
    5.3890   -4.9120   20.0000 O   0  0  0  0  0  0  0  0  0  0  0  0
    6.8610   -4.4430   21.7070 N   0  0  0  0  0  0  0  0  0  0  0  0
    6.7120   -5.6950   22.4190 C   0  0  0  0  0  0  0  0  0  0  0  0
    6.0790   -5.3030   23.7240 C   0  0  0  0  0  0  0  0  0  0  0  0
    6.0080   -3.8180   23.7950 C   0  0  0  0  0  0  0  0  0  0  0  0
    5.3360   -3.2630   25.0060 C   0  0  0  0  0  0  0  0  0  0  0  0
    4.5790   -2.2650   24.8900 O   0  0  0  0  0  0  0  0  0  0  0  0
    5.4480   -3.7620   26.3120 N   0  0  0  0  0  0  0  0  0  0  0  0
    4.2800   -3.9730   27.1400 C   0  0  0  0  0  0  0  0  0  0  0  0
    4.6430   -3.3670   28.4430 C   0  0  0  0  0  0  0  0  0  0  0  0
    5.3660   -4.2400   29.1380 N   0  0  0  0  0  0  0  0  0  0  0  0
    4.8480   -5.3550   29.8220 C   0  0  0  0  0  0  0  0  0  0  0  0
    5.7580   -6.3860   30.4060 C   0  0  0  0  0  0  0  0  0  0  0  0
    5.1320   -7.5070   31.1690 C   0  0  0  0  0  0  0  0  0  0  0  0
    6.0310   -8.4290   31.7320 O   0  0  0  0  0  0  0  0  0  0  0  0
    5.7020   -8.5510   33.0680 C   0  0  0  0  0  0  0  0  0  0  0  0
    3.6120   -7.4900   31.2370 C   0  0  0  0  0  0  0  0  0  0  0  0
    2.8950   -6.4670   30.6230 C   0  0  0  0  0  0  0  0  0  0  0  0
    3.5100   -5.4610   29.9620 N   0  0  0  0  0  0  0  0  0  0  0  0
    6.4370   -4.2600   28.2820 C   0  0  0  0  0  0  0  0  0  0  0  0
    6.3990   -3.1910   27.1660 C   0  0  0  0  0  0  0  0  0  0  0  0
    7.4260   -3.2940   23.5190 C   0  0  0  0  0  0  0  0  0  0  0  0
    7.5780   -3.3000   22.3090 C   0  0  0  0  0  0  0  0  0  0  0  0
  1  2  1  0
  2  3  2  0
  2  4  1  0
  4  5  1  0
  5  6  1  0
  6  7  1  0
  7  8  1  0
  8  9  2  0
  8 10  1  0
 10 11  1  0
 11 12  1  0
 12 13  1  0
 13 14  1  0
 14 15  2  0
 15 16  1  0
 16 17  1  0
 17 18  1  0
 16 19  2  0
 19 20  1  0
 14 21  1  0
 20 21  2  0
 13 22  1  0
 10 23  1  0
 22 23  1  0
  7 24  1  0
  4 25  1  0
 24 25  1  0
M  END
