piperidine-amides-481-covalent
     RDKit          3D

 27 28  0  0  0  0  0  0  0  0999 V2000
    7.1740   -3.3310   19.3970 C   0  0  0  0  0  0  0  0  0  0  0  0
    6.4900   -4.1670   20.3500 C   0  0  0  0  0  0  0  0  0  0  0  0
    5.4350   -4.7870   19.9810 O   0  0  0  0  0  0  0  0  0  0  0  0
    7.0010   -4.3470   21.6490 N   0  0  0  0  0  0  0  0  0  0  0  0
    7.7850   -3.2460   22.2440 C   0  0  0  0  0  0  0  0  0  0  0  0
    6.7270   -2.7140   23.2770 C   0  0  0  0  0  0  0  0  0  0  0  0
    6.4090   -3.9060   24.1490 C   0  0  0  0  0  0  0  0  0  0  0  0
    5.5270   -3.5130   25.4100 C   0  0  0  0  0  0  0  0  0  0  0  0
    4.4860   -4.1510   25.3640 O   0  0  0  0  0  0  0  0  0  0  0  0
    6.0540   -2.6420   26.1780 N   0  0  0  0  0  0  0  0  0  0  0  0
    6.3700   -1.7050   27.1180 C   0  0  0  0  0  0  0  0  0  0  0  0
    6.9800   -1.6440   28.3270 C   0  0  0  0  0  0  0  0  0  0  0  0
    7.1280   -0.4780   29.0860 C   0  0  0  0  0  0  0  0  0  0  0  0
    6.6840    0.8950   28.7770 C   0  0  0  0  0  0  0  0  0  0  0  0
    5.9770    0.9230   27.4010 C   0  0  0  0  0  0  0  0  0  0  0  0
    5.8820   -0.3010   26.7230 C   0  0  0  0  0  0  0  0  0  0  0  0
    5.2230   -0.1750   25.4830 C   0  0  0  0  0  0  0  0  0  0  0  0
    5.0620   -1.3580   24.8430 O   0  0  0  0  0  0  0  0  0  0  0  0
    4.7770    0.9750   24.9510 N   0  0  0  0  0  0  0  0  0  0  0  0
    5.4140    1.6400   23.8380 C   0  0  0  0  0  0  0  0  0  0  0  0
    4.2540    2.2950   23.0070 C   0  0  0  0  0  0  0  0  0  0  0  0
    4.3240    2.2870   21.6800 N   0  0  0  0  0  0  0  0  0  0  0  0
    3.1190    2.1890   20.8810 C   0  0  0  0  0  0  0  0  0  0  0  0
    2.0220    2.8040   21.4260 C   0  0  0  0  0  0  0  0  0  0  0  0
    3.0400    1.5420   19.6860 O   0  0  0  0  0  0  0  0  0  0  0  0
    5.8170   -5.1190   23.4250 C   0  0  0  0  0  0  0  0  0  0  0  0
    6.6940   -5.4960   22.4470 C   0  0  0  0  0  0  0  0  0  0  0  0
  1  2  1  0
  2  3  2  0
  2  4  1  0
  4  5  1  0
  5  6  1  0
  6  7  1  0
  7  8  1  0
  8  9  2  0
  8 10  1  0
 10 11  1  0
 11 12  2  0
 12 13  1  0
 13 14  2  0
 14 15  1  0
 11 16  1  0
 15 16  2  0
 16 17  1  0
 17 18  2  0
 17 19  1  0
 19 20  1  0
 20 21  1  0
 21 22  1  0
 22 23  1  0
 23 24  1  0
 23 25  2  0
  7 26  1  0
  4 27  1  0
 26 27  1  0
M  END
