piperidine-amides-2038-covalent
     RDKit          3D

 23 25  0  0  0  0  0  0  0  0999 V2000
    7.0720   -3.3250   19.3080 C   0  0  0  0  0  0  0  0  0  0  0  0
    6.3960   -4.1930   20.3040 C   0  0  0  0  0  0  0  0  0  0  0  0
    5.3580   -4.7520   19.9530 O   0  0  0  0  0  0  0  0  0  0  0  0
    6.9650   -4.3900   21.5590 N   0  0  0  0  0  0  0  0  0  0  0  0
    7.7100   -3.3440   22.2110 C   0  0  0  0  0  0  0  0  0  0  0  0
    6.8870   -2.8080   23.3360 C   0  0  0  0  0  0  0  0  0  0  0  0
    6.4130   -3.9680   24.2110 C   0  0  0  0  0  0  0  0  0  0  0  0
    5.6700   -3.3920   25.3500 C   0  0  0  0  0  0  0  0  0  0  0  0
    4.4300   -3.4310   25.3560 O   0  0  0  0  0  0  0  0  0  0  0  0
    6.3580   -2.8050   26.4300 N   0  0  0  0  0  0  0  0  0  0  0  0
    6.0320   -1.4580   26.8590 C   0  0  0  0  0  0  0  0  0  0  0  0
    6.3850   -0.5630   25.6830 C   0  0  2  0  0  0  0  0  0  0  0  0
    6.1440    0.7910   25.5660 C   0  0  0  0  0  0  0  0  0  0  0  0
    6.1610    1.0650   24.2350 C   0  0  0  0  0  0  0  0  0  0  0  0
    5.7210   -0.0650   23.6050 C   0  0  0  0  0  0  0  0  0  0  0  0
    5.7540   -1.0300   24.5560 O   0  0  0  0  0  0  0  0  0  0  0  0
    4.7720   -1.2210   27.3560 C   0  0  0  0  0  0  0  0  0  0  0  0
    4.5270    0.1740   27.8070 C   0  0  0  0  0  0  0  0  0  0  0  0
    5.3320    0.5480   28.8180 O   0  0  0  0  0  0  0  0  0  0  0  0
    6.6970    0.2440   28.6130 C   0  0  0  0  0  0  0  0  0  0  0  0
    6.9580   -1.1110   28.0200 C   0  0  0  0  0  0  0  0  0  0  0  0
    5.6360   -5.0120   23.4540 C   0  0  0  0  0  0  0  0  0  0  0  0
    6.5350   -5.5180   22.3430 C   0  0  0  0  0  0  0  0  0  0  0  0
  1  2  1  0
  2  3  2  0
  2  4  1  0
  4  5  1  0
  5  6  1  0
  6  7  1  0
  7  8  1  0
  8  9  2  0
  8 10  1  0
 11 10  1  0
 12 11  1  1
 12 13  1  0
 13 14  1  0
 14 15  1  0
 12 16  1  0
 15 16  1  0
 11 17  1  0
 17 18  1  0
 18 19  1  0
 19 20  1  0
 11 21  1  0
 20 21  1  0
  7 22  1  0
  4 23  1  0
 22 23  1  0
M  END
