piperidine-amides-32990-covalent
     RDKit          3D

 28 31  0  0  0  0  0  0  0  0999 V2000
    7.0470   -3.3780   19.4830 C   0  0  0  0  0  0  0  0  0  0  0  0
    6.3300   -4.2770   20.4270 C   0  0  0  0  0  0  0  0  0  0  0  0
    5.3460   -4.8990   19.9950 O   0  0  0  0  0  0  0  0  0  0  0  0
    6.7870   -4.4570   21.7590 N   0  0  0  0  0  0  0  0  0  0  0  0
    6.6330   -5.7150   22.4420 C   0  0  0  0  0  0  0  0  0  0  0  0
    5.8400   -5.4280   23.7200 C   0  0  0  0  0  0  0  0  0  0  0  0
    6.7180   -4.6120   24.6080 C   0  0  0  0  0  0  0  0  0  0  0  0
    6.0820   -4.3440   25.9530 C   0  0  0  0  0  0  0  0  0  0  0  0
    5.4000   -3.3080   26.0040 O   0  0  0  0  0  0  0  0  0  0  0  0
    6.2300   -5.2400   27.0970 N   0  0  0  0  0  0  0  0  0  0  0  0
    5.3230   -5.5380   28.1320 C   0  0  0  0  0  0  0  0  0  0  0  0
    5.2140   -6.8350   28.7170 C   0  0  0  0  0  0  0  0  0  0  0  0
    6.4990   -7.6340   28.7980 N   0  0  0  0  0  0  0  0  0  0  0  0
    6.6010   -8.8810   29.8200 C   0  0  0  0  0  0  0  0  0  0  0  0
    7.6990  -10.1870   30.0350 C   0  0  0  0  0  0  0  0  0  0  0  0
    7.9730  -11.1860   31.3060 C   0  0  0  0  0  0  0  0  0  0  0  0
    8.8550  -12.2550   31.6150 C   0  0  0  0  0  0  0  0  0  0  0  0
    8.5220  -13.2600   32.5180 O   0  0  0  0  0  0  0  0  0  0  0  0
    9.9160  -12.1820   31.0050 N   0  0  0  0  0  0  0  0  0  0  0  0
   10.2020  -13.4660   30.9290 C   0  0  0  0  0  0  0  0  0  0  0  0
   10.5490  -13.9980   29.7810 C   0  0  0  0  0  0  0  0  0  0  0  0
   10.6110  -12.6850   28.8010 S   0  0  0  0  0  0  0  0  0  0  0  0
    9.5280  -11.6930   29.6430 C   0  0  0  0  0  0  0  0  0  0  0  0
    8.5900  -10.7980   29.2160 N   0  0  0  0  0  0  0  0  0  0  0  0
    7.4950   -6.5160   28.6140 C   0  0  0  0  0  0  0  0  0  0  0  0
    7.5290   -5.8050   27.3980 C   0  0  0  0  0  0  0  0  0  0  0  0
    7.1030   -3.2980   23.9500 C   0  0  0  0  0  0  0  0  0  0  0  0
    7.5330   -3.4200   22.4820 C   0  0  0  0  0  0  0  0  0  0  0  0
  1  2  1  0
  2  3  2  0
  2  4  1  0
  4  5  1  0
  5  6  1  0
  6  7  1  0
  7  8  1  0
  8  9  2  0
  8 10  1  0
 10 11  1  0
 11 12  1  0
 12 13  1  0
 13 14  1  0
 14 15  1  0
 15 16  2  0
 16 17  1  0
 17 18  2  0
 17 19  1  0
 19 20  1  0
 20 21  2  0
 21 22  1  0
 19 23  1  0
 22 23  1  0
 15 24  1  0
 23 24  2  0
 13 25  1  0
 10 26  1  0
 25 26  1  0
  7 27  1  0
  4 28  1  0
 27 28  1  0
M  END
