piperidine-amides-3106-covalent
     RDKit          3D

 23 23  0  0  0  0  0  0  0  0999 V2000
    7.1060   -3.3110   19.3120 C   0  0  0  0  0  0  0  0  0  0  0  0
    6.3420   -4.0850   20.2890 C   0  0  0  0  0  0  0  0  0  0  0  0
    5.3230   -4.6790   19.9370 O   0  0  0  0  0  0  0  0  0  0  0  0
    6.8010   -4.1900   21.6520 N   0  0  0  0  0  0  0  0  0  0  0  0
    7.6660   -3.1590   22.1930 C   0  0  0  0  0  0  0  0  0  0  0  0
    7.3270   -2.8770   23.6280 C   0  0  0  0  0  0  0  0  0  0  0  0
    6.0530   -3.6450   23.9110 C   0  0  0  0  0  0  0  0  0  0  0  0
    5.4660   -3.2640   25.2340 C   0  0  0  0  0  0  0  0  0  0  0  0
    4.3770   -2.6590   25.3040 O   0  0  0  0  0  0  0  0  0  0  0  0
    6.1380   -3.5780   26.4400 N   0  0  0  0  0  0  0  0  0  0  0  0
    5.7820   -4.7880   27.1650 C   0  0  2  0  0  0  0  0  0  0  0  0
    4.3240   -5.0660   27.1650 C   0  0  0  0  0  0  0  0  0  0  0  0
    3.6800   -4.6810   28.3310 O   0  0  0  0  0  0  0  0  0  0  0  0
    3.5590   -5.6530   26.1870 O   0  0  0  0  0  0  0  0  0  0  0  0
    2.8320   -6.8340   26.3690 C   0  0  0  0  0  0  0  0  0  0  0  0
    3.2200   -7.4850   27.5450 C   0  0  0  0  0  0  0  0  0  0  0  0
    3.1250   -7.9340   25.3100 C   0  0  0  0  0  0  0  0  0  0  0  0
    6.1800   -4.5470   28.6070 C   0  0  2  0  0  0  0  0  0  0  0  0
    6.1720   -5.7200   29.3230 C   0  0  0  0  0  0  0  0  0  0  0  0
    5.5350   -3.4550   29.0900 C   0  0  0  0  0  0  0  0  0  0  0  0
    6.3280   -2.3130   29.1930 C   0  0  0  0  0  0  0  0  0  0  0  0
    6.1550   -5.0760   23.7110 C   0  0  0  0  0  0  0  0  0  0  0  0
    6.5910   -5.3920   22.4300 C   0  0  0  0  0  0  0  0  0  0  0  0
  1  2  1  0
  2  3  2  0
  2  4  1  0
  4  5  1  0
  5  6  1  0
  6  7  1  0
  7  8  1  0
  8  9  2  0
  8 10  1  0
 11 10  1  6
 11 12  1  0
 12 13  2  0
 12 14  1  0
 14 15  1  0
 15 16  1  0
 15 17  1  0
 11 18  1  0
 18 19  1  1
 18 20  1  0
 20 21  1  0
  7 22  1  0
  4 23  1  0
 22 23  1  0
M  END
