piperidine-amides-19781-covalent
     RDKit          3D

 22 24  0  0  0  0  0  0  0  0999 V2000
    7.0010   -3.3690   19.3980 C   0  0  0  0  0  0  0  0  0  0  0  0
    6.3700   -4.2650   20.4090 C   0  0  0  0  0  0  0  0  0  0  0  0
    5.4200   -4.9420   20.0060 O   0  0  0  0  0  0  0  0  0  0  0  0
    6.8650   -4.3450   21.7270 N   0  0  0  0  0  0  0  0  0  0  0  0
    6.7210   -5.5510   22.5290 C   0  0  0  0  0  0  0  0  0  0  0  0
    6.0860   -5.2380   23.8690 C   0  0  0  0  0  0  0  0  0  0  0  0
    6.0290   -3.7260   24.0270 C   0  0  0  0  0  0  0  0  0  0  0  0
    5.3840   -3.3170   25.3090 C   0  0  0  0  0  0  0  0  0  0  0  0
    4.5800   -2.3830   25.2490 O   0  0  0  0  0  0  0  0  0  0  0  0
    5.5980   -3.8940   26.5820 N   0  0  0  0  0  0  0  0  0  0  0  0
    6.4780   -3.1950   27.4000 C   0  0  0  0  0  0  0  0  0  0  0  0
    6.8160   -4.2660   28.3760 C   0  0  0  0  0  0  0  0  0  0  0  0
    5.8930   -4.6000   29.2420 C   0  0  0  0  0  0  0  0  0  0  0  0
    4.7560   -5.1310   28.7300 C   0  0  2  0  0  0  0  0  0  0  0  0
    4.6940   -6.4020   28.2450 C   0  0  0  0  0  0  0  0  0  0  0  0
    3.3740   -6.9640   27.7110 C   0  0  0  0  0  0  0  0  0  0  0  0
    3.3040   -6.1080   26.4640 C   0  0  1  0  0  0  0  0  0  0  0  0
    1.8630   -6.2870   26.0760 C   0  0  0  0  0  0  0  0  0  0  0  0
    3.3320   -4.6270   26.7910 C   0  0  0  0  0  0  0  0  0  0  0  0
    4.4980   -4.1260   27.5580 C   0  0  2  0  0  0  0  0  0  0  0  0
    7.2770   -3.0240   23.6730 C   0  0  0  0  0  0  0  0  0  0  0  0
    7.6960   -3.2730   22.2710 C   0  0  0  0  0  0  0  0  0  0  0  0
  1  2  1  0
  2  3  2  0
  2  4  1  0
  4  5  1  0
  5  6  1  0
  6  7  1  0
  7  8  1  0
  8  9  2  0
  8 10  1  0
 10 11  1  0
 11 12  1  0
 12 13  1  0
 14 13  1  6
 14 15  1  0
 15 16  1  0
 16 17  1  0
 17 18  1  1
 17 19  1  0
 10 20  1  0
 14 20  1  0
 20 19  1  6
  7 21  1  0
  4 22  1  0
 21 22  1  0
M  END
