piperidine-amides-12103-covalent
     RDKit          3D

 25 27  0  0  0  0  0  0  0  0999 V2000
    7.2350   -3.2170   19.1380 C   0  0  0  0  0  0  0  0  0  0  0  0
    6.3670   -3.8610   20.1030 C   0  0  0  0  0  0  0  0  0  0  0  0
    5.2610   -4.2900   19.7750 O   0  0  0  0  0  0  0  0  0  0  0  0
    6.8250   -4.0780   21.4330 N   0  0  0  0  0  0  0  0  0  0  0  0
    6.1530   -5.0720   22.1850 C   0  0  0  0  0  0  0  0  0  0  0  0
    5.1800   -4.3760   23.0930 C   0  0  0  0  0  0  0  0  0  0  0  0
    5.9780   -3.4580   24.0170 C   0  0  0  0  0  0  0  0  0  0  0  0
    5.0080   -2.7720   24.9270 C   0  0  0  0  0  0  0  0  0  0  0  0
    3.8380   -2.5560   24.5830 O   0  0  0  0  0  0  0  0  0  0  0  0
    5.3850   -2.3710   26.2260 N   0  0  0  0  0  0  0  0  0  0  0  0
    5.2530   -3.3100   27.3160 C   0  0  1  0  0  0  0  0  0  0  0  0
    4.2800   -4.4210   27.0460 C   0  0  0  0  0  0  0  0  0  0  0  0
    6.4840   -3.9830   27.3370 C   0  0  0  0  0  0  0  0  0  0  0  0
    7.2660   -3.8710   28.4490 C   0  0  0  0  0  0  0  0  0  0  0  0
    8.4370   -4.5260   28.4430 C   0  0  0  0  0  0  0  0  0  0  0  0
    8.7480   -5.2640   27.2850 C   0  0  0  0  0  0  0  0  0  0  0  0
    9.9100   -5.8900   27.3500 F   0  0  0  0  0  0  0  0  0  0  0  0
    8.0250   -5.3730   26.2070 C   0  0  0  0  0  0  0  0  0  0  0  0
    8.3800   -6.0640   25.1270 C   0  0  0  0  0  0  0  0  0  0  0  0
    7.6010   -6.1580   24.0000 C   0  0  0  0  0  0  0  0  0  0  0  0
    6.3420   -5.4920   24.0210 C   0  0  0  0  0  0  0  0  0  0  0  0
    5.9720   -4.7810   25.1280 C   0  0  0  0  0  0  0  0  0  0  0  0
    6.8330   -4.7200   26.2160 C   0  0  0  0  0  0  0  0  0  0  0  0
    6.7280   -2.4360   23.1930 C   0  0  0  0  0  0  0  0  0  0  0  0
    7.6310   -3.1030   22.1370 C   0  0  0  0  0  0  0  0  0  0  0  0
  1  2  1  0
  2  3  2  0
  2  4  1  0
  4  5  1  0
  5  6  1  0
  6  7  1  0
  7  8  1  0
  8  9  2  0
  8 10  1  0
 10 11  1  0
 11 12  1  6
 11 13  1  0
 13 14  2  0
 14 15  1  0
 15 16  2  0
 16 17  1  0
 16 18  1  0
 18 19  1  0
 19 20  2  0
 20 21  1  0
 21 22  2  0
 13 23  1  0
 18 23  2  0
 22 23  1  0
  7 24  1  0
  4 25  1  0
 24 25  1  0
M  END
