piperidine-amides-33269-covalent
     RDKit          3D

 30 32  0  0  0  0  0  0  0  0999 V2000
    7.1070   -3.2960   19.2220 C   0  0  0  0  0  0  0  0  0  0  0  0
    6.3740   -4.0780   20.2330 C   0  0  0  0  0  0  0  0  0  0  0  0
    5.2670   -4.5440   19.8830 O   0  0  0  0  0  0  0  0  0  0  0  0
    6.9180   -4.3540   21.5130 N   0  0  0  0  0  0  0  0  0  0  0  0
    7.5920   -3.3000   22.1770 C   0  0  0  0  0  0  0  0  0  0  0  0
    7.2150   -3.0780   23.5710 C   0  0  0  0  0  0  0  0  0  0  0  0
    6.4750   -4.1470   24.2810 C   0  0  0  0  0  0  0  0  0  0  0  0
    5.6170   -3.6070   25.4010 C   0  0  0  0  0  0  0  0  0  0  0  0
    4.3830   -3.5930   25.2240 O   0  0  0  0  0  0  0  0  0  0  0  0
    6.0840   -3.0990   26.6450 N   0  0  0  0  0  0  0  0  0  0  0  0
    5.7500   -3.7510   27.8730 C   0  0  0  0  0  0  0  0  0  0  0  0
    6.5680   -4.7330   28.5760 C   0  0  0  0  0  0  0  0  0  0  0  0
    5.9230   -1.6570   26.7930 C   0  0  1  0  0  0  0  0  0  0  0  0
    6.4530   -1.0960   27.9390 C   0  0  0  0  0  0  0  0  0  0  0  0
    5.9890    0.3590   28.0080 C   0  0  0  0  0  0  0  0  0  0  0  0
    6.4820    1.1570   29.2400 C   0  0  0  0  0  0  0  0  0  0  0  0
    7.4080    0.5220   30.3610 C   0  0  0  0  0  0  0  0  0  0  0  0
    7.9610    1.1760   31.6060 C   0  0  0  0  0  0  0  0  0  0  0  0
    9.4670    0.9190   31.6020 C   0  0  0  0  0  0  0  0  0  0  0  0
    7.4280    0.6360   32.9130 C   0  0  0  0  0  0  0  0  0  0  0  0
    7.7000   -0.8840   30.0410 C   0  0  0  0  0  0  0  0  0  0  0  0
    7.2630   -1.5560   28.9760 C   0  0  0  0  0  0  0  0  0  0  0  0
    6.0570   -0.9540   25.6220 C   0  0  0  0  0  0  0  0  0  0  0  0
    4.8670   -0.1170   25.2240 C   0  0  0  0  0  0  0  0  0  0  0  0
    4.8930    0.6230   24.0760 C   0  0  0  0  0  0  0  0  0  0  0  0
    6.1270    0.5860   23.2190 C   0  0  0  0  0  0  0  0  0  0  0  0
    7.1680   -0.1730   23.6070 N   0  0  0  0  0  0  0  0  0  0  0  0
    7.1480   -0.9240   24.7660 C   0  0  0  0  0  0  0  0  0  0  0  0
    5.5120   -4.8730   23.3380 C   0  0  0  0  0  0  0  0  0  0  0  0
    6.3750   -5.4800   22.2320 C   0  0  0  0  0  0  0  0  0  0  0  0
  1  2  1  0
  2  3  2  0
  2  4  1  0
  4  5  1  0
  5  6  1  0
  6  7  1  0
  7  8  1  0
  8  9  2  0
  8 10  1  0
 10 11  1  0
 11 12  1  0
 13 10  1  6
 13 14  1  0
 14 15  2  0
 15 16  1  0
 16 17  2  0
 17 18  1  0
 18 19  1  0
 18 20  1  0
 17 21  1  0
 14 22  1  0
 21 22  2  0
 13 23  1  0
 23 24  2  0
 24 25  1  0
 25 26  2  0
 26 27  1  0
 23 28  1  0
 27 28  2  0
  7 29  1  0
  4 30  1  0
 29 30  1  0
M  END
