piperidine-amides-24385-covalent
     RDKit          3D

 23 25  0  0  0  0  0  0  0  0999 V2000
    7.0690   -3.3510   19.3770 C   0  0  0  0  0  0  0  0  0  0  0  0
    6.3770   -4.1910   20.3610 C   0  0  0  0  0  0  0  0  0  0  0  0
    5.4100   -4.9010   19.9990 O   0  0  0  0  0  0  0  0  0  0  0  0
    6.8260   -4.2370   21.6890 N   0  0  0  0  0  0  0  0  0  0  0  0
    7.6490   -3.1730   22.2180 C   0  0  0  0  0  0  0  0  0  0  0  0
    6.8770   -2.5750   23.3930 C   0  0  0  0  0  0  0  0  0  0  0  0
    6.5420   -3.7250   24.3190 C   0  0  0  0  0  0  0  0  0  0  0  0
    5.7720   -3.2460   25.5040 C   0  0  0  0  0  0  0  0  0  0  0  0
    4.5260   -3.2390   25.4030 O   0  0  0  0  0  0  0  0  0  0  0  0
    6.4080   -2.8020   26.7170 N   0  0  0  0  0  0  0  0  0  0  0  0
    6.3710   -3.6350   27.8880 C   0  0  0  0  0  0  0  0  0  0  0  0
    6.6870   -1.3760   26.8810 C   0  0  1  0  0  0  0  0  0  0  0  0
    5.6560   -0.7350   26.2680 C   0  0  0  0  0  0  0  0  0  0  0  0
    5.4860    0.5710   26.6090 C   0  0  0  0  0  0  0  0  0  0  0  0
    5.6550    0.9660   27.9220 C   0  0  0  0  0  0  0  0  0  0  0  0
    6.4890    0.2480   28.7150 C   0  0  0  0  0  0  0  0  0  0  0  0
    6.8090    0.6700   29.9770 N   0  0  0  0  0  0  0  0  0  0  0  0
    7.6400   -0.1730   30.5730 C   0  0  0  0  0  0  0  0  0  0  0  0
    8.0460    0.2240   31.9700 C   0  0  0  0  0  0  0  0  0  0  0  0
    7.9500   -1.4710   29.4330 S   0  0  0  0  0  0  0  0  0  0  0  0
    6.9890   -0.9190   28.1660 C   0  0  0  0  0  0  0  0  0  0  0  0
    5.7230   -4.7820   23.5860 C   0  0  0  0  0  0  0  0  0  0  0  0
    6.5110   -5.3350   22.5640 C   0  0  0  0  0  0  0  0  0  0  0  0
  1  2  1  0
  2  3  2  0
  2  4  1  0
  4  5  1  0
  5  6  1  0
  6  7  1  0
  7  8  1  0
  8  9  2  0
  8 10  1  0
 10 11  1  0
 12 10  1  1
 12 13  1  0
 13 14  1  0
 14 15  1  0
 15 16  1  0
 16 17  1  0
 17 18  2  0
 18 19  1  0
 18 20  1  0
 12 21  1  0
 16 21  2  0
 20 21  1  0
  7 22  1  0
  4 23  1  0
 22 23  1  0
M  END
