piperidine-amides-29642-covalent
     RDKit          3D

 25 27  0  0  0  0  0  0  0  0999 V2000
    7.0440   -3.3270   19.3750 C   0  0  0  0  0  0  0  0  0  0  0  0
    6.3820   -4.1730   20.3630 C   0  0  0  0  0  0  0  0  0  0  0  0
    5.4320   -4.8740   20.0010 O   0  0  0  0  0  0  0  0  0  0  0  0
    6.8590   -4.2270   21.7280 N   0  0  0  0  0  0  0  0  0  0  0  0
    6.6910   -5.4480   22.4800 C   0  0  0  0  0  0  0  0  0  0  0  0
    6.1510   -5.1450   23.8530 C   0  0  0  0  0  0  0  0  0  0  0  0
    6.1650   -3.6350   23.9910 C   0  0  0  0  0  0  0  0  0  0  0  0
    5.5180   -3.1280   25.2600 C   0  0  0  0  0  0  0  0  0  0  0  0
    4.3380   -2.7270   25.2120 O   0  0  0  0  0  0  0  0  0  0  0  0
    6.1410   -3.0660   26.5520 N   0  0  0  0  0  0  0  0  0  0  0  0
    5.8800   -1.8020   27.2460 C   0  0  0  0  0  0  0  0  0  0  0  0
    6.0330   -0.5470   26.4510 C   0  0  0  0  0  0  0  0  0  0  0  0
    6.0280    0.6580   27.1700 C   0  0  0  0  0  0  0  0  0  0  0  0
    6.2170    0.6210   28.5850 C   0  0  0  0  0  0  0  0  0  0  0  0
    6.7610   -0.5120   29.1810 C   0  0  0  0  0  0  0  0  0  0  0  0
    6.9440   -1.6080   28.2730 C   0  0  0  0  0  0  0  0  0  0  0  0
    5.8580   -4.1960   27.4020 C   0  0  1  0  0  0  0  0  0  0  0  0
    4.8790   -4.0350   28.3830 C   0  0  0  0  0  0  0  0  0  0  0  0
    4.3720   -5.1630   29.0380 C   0  0  0  0  0  0  0  0  0  0  0  0
    4.4630   -6.3930   27.7410 S   0  0  0  0  0  0  0  0  0  0  0  0
    3.1210   -6.6880   27.1520 O   0  0  0  0  0  0  0  0  0  0  0  0
    5.1060   -7.6420   28.2250 O   0  0  0  0  0  0  0  0  0  0  0  0
    5.5000   -5.4330   26.6250 C   0  0  0  0  0  0  0  0  0  0  0  0
    7.5250   -3.0630   23.6560 C   0  0  0  0  0  0  0  0  0  0  0  0
    7.6960   -3.1620   22.2650 C   0  0  0  0  0  0  0  0  0  0  0  0
  1  2  1  0
  2  3  2  0
  2  4  1  0
  4  5  1  0
  5  6  1  0
  6  7  1  0
  7  8  1  0
  8  9  2  0
  8 10  1  0
 10 11  1  0
 11 12  1  0
 12 13  1  0
 13 14  1  0
 14 15  1  0
 11 16  1  0
 15 16  1  0
 17 10  1  6
 17 18  1  0
 18 19  1  0
 20 19  1  0
 20 21  2  0
 20 22  2  0
 17 23  1  0
 20 23  1  0
  7 24  1  0
  4 25  1  0
 24 25  1  0
M  END
