piperidine-amides-5480-covalent
     RDKit          3D

 19 19  0  0  0  0  0  0  0  0999 V2000
    7.0700   -3.2910   19.2950 C   0  0  0  0  0  0  0  0  0  0  0  0
    6.3570   -4.0920   20.2930 C   0  0  0  0  0  0  0  0  0  0  0  0
    5.3240   -4.6740   19.9350 O   0  0  0  0  0  0  0  0  0  0  0  0
    6.8200   -4.2730   21.6170 N   0  0  0  0  0  0  0  0  0  0  0  0
    6.6050   -5.5320   22.3000 C   0  0  0  0  0  0  0  0  0  0  0  0
    6.1930   -5.2010   23.7160 C   0  0  0  0  0  0  0  0  0  0  0  0
    6.0370   -3.7220   23.9320 C   0  0  0  0  0  0  0  0  0  0  0  0
    5.5820   -3.3410   25.2980 C   0  0  0  0  0  0  0  0  0  0  0  0
    4.3380   -3.2360   25.5160 O   0  0  0  0  0  0  0  0  0  0  0  0
    6.4200   -3.0660   26.4030 N   0  0  0  0  0  0  0  0  0  0  0  0
    6.8390   -1.6580   26.5980 C   0  0  0  0  0  0  0  0  0  0  0  0
    6.1820   -3.8190   27.6580 C   0  0  0  0  0  0  0  0  0  0  0  0
    5.7670   -5.2290   27.4450 C   0  0  0  0  0  0  0  0  0  0  0  0
    5.7650   -5.8040   28.5510 O   0  0  0  0  0  0  0  0  0  0  0  0
    4.4840   -6.0160   29.0720 C   0  0  0  0  0  0  0  0  0  0  0  0
    4.1910   -7.4820   29.3280 C   0  0  0  0  0  0  0  0  0  0  0  0
    3.9990   -7.7220   30.7540 N   0  0  0  0  0  0  0  0  0  0  0  0
    7.2970   -3.0330   23.5350 C   0  0  0  0  0  0  0  0  0  0  0  0
    7.5840   -3.2040   22.2060 C   0  0  0  0  0  0  0  0  0  0  0  0
  1  2  1  0
  2  3  2  0
  2  4  1  0
  4  5  1  0
  5  6  1  0
  6  7  1  0
  7  8  1  0
  8  9  2  0
  8 10  1  0
 10 11  1  0
 10 12  1  0
 12 13  1  0
 13 14  1  0
 14 15  1  0
 15 16  1  0
 16 17  1  0
  7 18  1  0
  4 19  1  0
 18 19  1  0
M  END
