piperidine-amides-650-covalent
     RDKit          3D

 26 27  0  0  0  0  0  0  0  0999 V2000
    7.2000   -3.2900   19.3270 C   0  0  0  0  0  0  0  0  0  0  0  0
    6.4520   -4.0700   20.2830 C   0  0  0  0  0  0  0  0  0  0  0  0
    5.3560   -4.6040   19.9130 O   0  0  0  0  0  0  0  0  0  0  0  0
    6.9340   -4.2930   21.5880 N   0  0  0  0  0  0  0  0  0  0  0  0
    7.8110   -3.2620   22.1880 C   0  0  0  0  0  0  0  0  0  0  0  0
    6.7680   -2.5890   23.1420 C   0  0  0  0  0  0  0  0  0  0  0  0
    6.3040   -3.6850   24.0740 C   0  0  0  0  0  0  0  0  0  0  0  0
    5.4390   -3.0550   25.2540 C   0  0  0  0  0  0  0  0  0  0  0  0
    4.2610   -2.9860   24.9250 O   0  0  0  0  0  0  0  0  0  0  0  0
    6.1890   -2.7830   26.2420 N   0  0  0  0  0  0  0  0  0  0  0  0
    6.9200   -2.4940   27.3480 C   0  0  2  0  0  0  0  0  0  0  0  0
    7.5790   -3.2050   28.2850 C   0  0  0  0  0  0  0  0  0  0  0  0
    7.8410   -4.4420   27.7280 C   0  0  0  0  0  0  0  0  0  0  0  0
    8.0330   -5.5150   28.6090 O   0  0  0  0  0  0  0  0  0  0  0  0
    7.8870   -4.5120   26.3460 O   0  0  0  0  0  0  0  0  0  0  0  0
    8.8150   -5.3100   25.7480 C   0  0  0  0  0  0  0  0  0  0  0  0
    9.3690   -6.2720   26.7720 C   0  0  0  0  0  0  0  0  0  0  0  0
    6.0800   -1.6030   28.2760 C   0  0  0  0  0  0  0  0  0  0  0  0
    5.2200   -2.3700   29.1410 C   0  0  0  0  0  0  0  0  0  0  0  0
    4.5630   -1.1800   29.8930 C   0  0  0  0  0  0  0  0  0  0  0  0
    4.7830    0.3430   29.7390 C   0  0  0  0  0  0  0  0  0  0  0  0
    5.6670    0.7450   28.8310 C   0  0  0  0  0  0  0  0  0  0  0  0
    5.9960    2.4310   28.5730 Cl  0  0  0  0  0  0  0  0  0  0  0  0
    6.2840   -0.2330   28.1320 C   0  0  0  0  0  0  0  0  0  0  0  0
    5.6520   -4.8870   23.3900 C   0  0  0  0  0  0  0  0  0  0  0  0
    6.4750   -5.3830   22.4030 C   0  0  0  0  0  0  0  0  0  0  0  0
  1  2  1  0
  2  3  2  0
  2  4  1  0
  4  5  1  0
  5  6  1  0
  6  7  1  0
  7  8  1  0
  8  9  2  0
  8 10  1  0
 10 11  1  0
 11 12  1  1
 12 13  1  0
 13 14  2  0
 13 15  1  0
 15 16  1  0
 16 17  1  0
 11 18  1  0
 18 19  2  0
 19 20  1  0
 20 21  2  0
 21 22  1  0
 22 23  1  0
 18 24  1  0
 22 24  2  0
  7 25  1  0
  4 26  1  0
 25 26  1  0
M  END
