piperidine-amides-1377-covalent
     RDKit          3D

 22 23  0  0  0  0  0  0  0  0999 V2000
    7.1350   -3.2910   19.2670 C   0  0  0  0  0  0  0  0  0  0  0  0
    6.3280   -4.0480   20.2600 C   0  0  0  0  0  0  0  0  0  0  0  0
    5.2640   -4.5750   19.8940 O   0  0  0  0  0  0  0  0  0  0  0  0
    6.8150   -4.1840   21.5740 N   0  0  0  0  0  0  0  0  0  0  0  0
    7.6910   -3.2010   22.1680 C   0  0  0  0  0  0  0  0  0  0  0  0
    6.9850   -2.6620   23.4090 C   0  0  0  0  0  0  0  0  0  0  0  0
    6.4980   -3.8470   24.1670 C   0  0  0  0  0  0  0  0  0  0  0  0
    5.7330   -3.4590   25.3760 C   0  0  0  0  0  0  0  0  0  0  0  0
    4.5090   -3.3650   25.2470 O   0  0  0  0  0  0  0  0  0  0  0  0
    6.3970   -3.2100   26.5820 N   0  0  0  0  0  0  0  0  0  0  0  0
    6.2210   -3.8770   27.8300 C   0  0  2  0  0  0  0  0  0  0  0  0
    5.9240   -5.2210   27.9150 C   0  0  0  0  0  0  0  0  0  0  0  0
    6.4000   -5.9400   29.0190 C   0  0  0  0  0  0  0  0  0  0  0  0
    5.4070   -3.2990   28.8230 C   0  0  0  0  0  0  0  0  0  0  0  0
    5.9160   -2.0390   29.4080 C   0  0  0  0  0  0  0  0  0  0  0  0
    5.1570   -1.2850   30.4940 C   0  0  0  0  0  0  0  0  0  0  0  0
    3.8390   -1.9280   30.9300 C   0  0  0  0  0  0  0  0  0  0  0  0
    3.1000   -1.3210   31.8910 F   0  0  0  0  0  0  0  0  0  0  0  0
    3.4280   -3.1140   30.3320 C   0  0  0  0  0  0  0  0  0  0  0  0
    4.2100   -3.8050   29.2750 C   0  0  0  0  0  0  0  0  0  0  0  0
    5.6740   -4.8210   23.3780 C   0  0  0  0  0  0  0  0  0  0  0  0
    6.4710   -5.3220   22.3790 C   0  0  0  0  0  0  0  0  0  0  0  0
  1  2  1  0
  2  3  2  0
  2  4  1  0
  4  5  1  0
  5  6  1  0
  6  7  1  0
  7  8  1  0
  8  9  2  0
  8 10  1  0
 10 11  1  0
 11 12  1  6
 12 13  1  0
 11 14  1  0
 14 15  2  0
 15 16  1  0
 16 17  2  0
 17 18  1  0
 17 19  1  0
 14 20  1  0
 19 20  2  0
  7 21  1  0
  4 22  1  0
 21 22  1  0
M  END
