piperidine-amides-11348-covalent
     RDKit          3D

 24 26  0  0  0  0  0  0  0  0999 V2000
    7.0840   -3.3180   19.2350 C   0  0  0  0  0  0  0  0  0  0  0  0
    6.3710   -4.1110   20.2380 C   0  0  0  0  0  0  0  0  0  0  0  0
    5.3260   -4.7020   19.9310 O   0  0  0  0  0  0  0  0  0  0  0  0
    6.8830   -4.2530   21.5280 N   0  0  0  0  0  0  0  0  0  0  0  0
    7.7660   -3.2630   22.1070 C   0  0  0  0  0  0  0  0  0  0  0  0
    7.0090   -2.6950   23.2540 C   0  0  0  0  0  0  0  0  0  0  0  0
    6.6180   -3.8000   24.1600 C   0  0  0  0  0  0  0  0  0  0  0  0
    5.9670   -3.2910   25.3800 C   0  0  0  0  0  0  0  0  0  0  0  0
    4.7650   -3.5940   25.6510 O   0  0  0  0  0  0  0  0  0  0  0  0
    6.6440   -2.4300   26.2730 N   0  0  0  0  0  0  0  0  0  0  0  0
    5.8810   -1.4200   27.0240 C   0  0  1  0  0  0  0  0  0  0  0  0
    6.5720   -1.1980   28.3380 C   0  0  0  0  0  0  0  0  0  0  0  0
    7.0540   -0.5710   29.4840 C   0  0  0  0  0  0  0  0  0  0  0  0
    7.2350    0.6260   30.3750 C   0  0  0  0  0  0  0  0  0  0  0  0
    7.9460   -0.1560   31.2740 C   0  0  0  0  0  0  0  0  0  0  0  0
    7.2260   -0.3620   29.8880 C   0  0  0  0  0  0  0  0  0  0  0  0
    7.0150    1.4790   30.4190 Br  0  0  0  0  0  0  0  0  0  0  0  0
    6.4330    0.2020   28.7410 C   0  0  0  0  0  0  0  0  0  0  0  0
    5.6830    0.5880   27.5820 C   0  0  0  0  0  0  0  0  0  0  0  0
    5.5870   -0.2810   26.4370 C   0  0  0  0  0  0  0  0  0  0  0  0
    4.2930   -0.2260   26.0160 F   0  0  0  0  0  0  0  0  0  0  0  0
    6.4360   -0.0400   25.3630 F   0  0  0  0  0  0  0  0  0  0  0  0
    5.7680   -4.8650   23.5270 C   0  0  0  0  0  0  0  0  0  0  0  0
    6.5190   -5.4000   22.3350 C   0  0  0  0  0  0  0  0  0  0  0  0
  1  2  1  0
  2  3  2  0
  2  4  1  0
  4  5  1  0
  5  6  1  0
  6  7  1  0
  7  8  1  0
  8  9  2  0
  8 10  1  0
 11 10  1  6
 11 12  1  0
 12 13  2  0
 13 14  1  0
 14 15  2  0
 15 16  1  0
 16 17  1  0
 12 18  1  0
 16 18  2  0
 18 19  1  0
 11 20  1  0
 19 20  1  0
 20 21  1  0
 20 22  1  0
  7 23  1  0
  4 24  1  0
 23 24  1  0
M  END
