piperidine-amides-24268-covalent
     RDKit          3D

 23 24  0  0  0  0  0  0  0  0999 V2000
    7.1220   -3.2900   19.1790 C   0  0  0  0  0  0  0  0  0  0  0  0
    6.3640   -4.0540   20.1770 C   0  0  0  0  0  0  0  0  0  0  0  0
    5.2810   -4.5980   19.8950 O   0  0  0  0  0  0  0  0  0  0  0  0
    6.9030   -4.2300   21.4450 N   0  0  0  0  0  0  0  0  0  0  0  0
    6.5840   -5.4230   22.1890 C   0  0  0  0  0  0  0  0  0  0  0  0
    5.7120   -4.9580   23.3540 C   0  0  0  0  0  0  0  0  0  0  0  0
    6.5990   -4.0360   24.1580 C   0  0  0  0  0  0  0  0  0  0  0  0
    5.9510   -3.6290   25.4090 C   0  0  0  0  0  0  0  0  0  0  0  0
    4.9190   -2.9180   25.3530 O   0  0  0  0  0  0  0  0  0  0  0  0
    6.5050   -4.0580   26.6360 N   0  0  0  0  0  0  0  0  0  0  0  0
    6.0170   -3.5040   27.8880 C   0  0  2  0  0  0  0  0  0  0  0  0
    7.1360   -2.6700   28.4990 C   0  0  0  0  0  0  0  0  0  0  0  0
    5.5210   -4.5450   28.8810 C   0  0  0  0  0  0  0  0  0  0  0  0
    5.3000   -5.6150   29.5220 O   0  0  0  0  0  0  0  0  0  0  0  0
    6.3220   -5.4070   28.1060 N   0  0  0  0  0  0  0  0  0  0  0  0
    7.7040   -5.2590   28.1420 C   0  0  0  0  0  0  0  0  0  0  0  0
    7.8280   -4.3100   27.1800 C   0  0  1  0  0  0  0  0  0  0  0  0
    8.3830   -4.8030   26.0230 C   0  0  0  0  0  0  0  0  0  0  0  0
    7.4530   -5.5020   25.2810 F   0  0  0  0  0  0  0  0  0  0  0  0
    9.4710   -5.5990   26.3210 F   0  0  0  0  0  0  0  0  0  0  0  0
    8.7600   -3.7020   25.2520 F   0  0  0  0  0  0  0  0  0  0  0  0
    6.8740   -2.7900   23.3320 C   0  0  0  0  0  0  0  0  0  0  0  0
    7.6450   -3.1840   22.1150 C   0  0  0  0  0  0  0  0  0  0  0  0
  1  2  1  0
  2  3  2  0
  2  4  1  0
  4  5  1  0
  5  6  1  0
  6  7  1  0
  7  8  1  0
  8  9  2  0
  8 10  1  0
 10 11  1  0
 11 12  1  1
 11 13  1  0
 13 14  2  0
 13 15  1  0
 15 16  1  0
 10 17  1  0
 16 17  1  0
 17 18  1  6
 18 19  1  0
 18 20  1  0
 18 21  1  0
  7 22  1  0
  4 23  1  0
 22 23  1  0
M  END
