piperidine-amides-13105-covalent
     RDKit          3D

 20 20  0  0  0  0  0  0  0  0999 V2000
    7.1140   -3.2890   19.1650 C   0  0  0  0  0  0  0  0  0  0  0  0
    6.3260   -3.9940   20.2000 C   0  0  0  0  0  0  0  0  0  0  0  0
    5.2310   -4.4580   19.8410 O   0  0  0  0  0  0  0  0  0  0  0  0
    6.8240   -4.1790   21.4920 N   0  0  0  0  0  0  0  0  0  0  0  0
    7.5410   -3.1230   22.1240 C   0  0  0  0  0  0  0  0  0  0  0  0
    7.1430   -2.8610   23.5090 C   0  0  0  0  0  0  0  0  0  0  0  0
    6.4860   -3.9930   24.2050 C   0  0  0  0  0  0  0  0  0  0  0  0
    5.7580   -3.4950   25.4100 C   0  0  0  0  0  0  0  0  0  0  0  0
    4.5340   -3.2860   25.3120 O   0  0  0  0  0  0  0  0  0  0  0  0
    6.4320   -3.2420   26.6230 N   0  0  0  0  0  0  0  0  0  0  0  0
    6.2000   -3.9640   27.9150 C   0  0  0  0  0  0  0  0  0  0  0  0
    6.0070   -5.4580   27.8340 C   0  0  2  0  0  0  0  0  0  0  0  0
    6.4050   -6.1530   26.8610 O   0  0  0  0  0  0  0  0  0  0  0  0
    4.6650   -5.9820   28.0950 C   0  0  0  0  0  0  0  0  0  0  0  0
    4.2510   -6.2810   29.3780 C   0  0  0  0  0  0  0  0  0  0  0  0
    3.2980   -7.2350   29.4760 F   0  0  0  0  0  0  0  0  0  0  0  0
    5.2430   -6.6480   30.2430 F   0  0  0  0  0  0  0  0  0  0  0  0
    3.7130   -5.1720   29.9860 F   0  0  0  0  0  0  0  0  0  0  0  0
    5.6150   -4.8350   23.3310 C   0  0  0  0  0  0  0  0  0  0  0  0
    6.2890   -5.2710   22.2350 C   0  0  0  0  0  0  0  0  0  0  0  0
  1  2  1  0
  2  3  2  0
  2  4  1  0
  4  5  1  0
  5  6  1  0
  6  7  1  0
  7  8  1  0
  8  9  2  0
  8 10  1  0
 10 11  1  0
 11 12  1  0
 12 13  1  6
 12 14  1  0
 14 15  1  0
 15 16  1  0
 15 17  1  0
 15 18  1  0
  7 19  1  0
  4 20  1  0
 19 20  1  0
M  END
