piperidine-amides-4675-covalent
     RDKit          3D

 24 26  0  0  0  0  0  0  0  0999 V2000
    7.1350   -3.9910   19.5940 C   0  0  0  0  0  0  0  0  0  0  0  0
    5.9030   -3.8770   20.2560 C   0  0  0  0  0  0  0  0  0  0  0  0
    4.9280   -3.8990   19.5020 O   0  0  0  0  0  0  0  0  0  0  0  0
    5.9290   -3.8720   21.6280 N   0  0  0  0  0  0  0  0  0  0  0  0
    5.7740   -5.1430   22.2600 C   0  0  0  0  0  0  0  0  0  0  0  0
    5.3330   -4.9740   23.6180 C   0  0  0  0  0  0  0  0  0  0  0  0
    5.3340   -3.5460   23.9660 C   0  0  0  0  0  0  0  0  0  0  0  0
    4.9400   -3.3750   25.3780 C   0  0  0  0  0  0  0  0  0  0  0  0
    4.2390   -2.3910   25.6700 O   0  0  0  0  0  0  0  0  0  0  0  0
    5.3270   -4.3000   26.3600 N   0  0  0  0  0  0  0  0  0  0  0  0
    6.7280   -4.6900   26.5220 C   0  0  0  0  0  0  0  0  0  0  0  0
    7.5480   -3.4770   26.6450 C   0  0  1  0  0  0  0  0  0  0  0  0
    8.6790   -3.6330   25.7360 C   0  0  0  0  0  0  0  0  0  0  0  0
    9.2280   -4.7830   25.6450 O   0  0  0  0  0  0  0  0  0  0  0  0
    9.1620   -2.5900   24.9850 O   0  0  0  0  0  0  0  0  0  0  0  0
   10.3480   -2.6720   24.1920 C   0  0  0  0  0  0  0  0  0  0  0  0
    7.0600   -2.2090   26.2240 C   0  0  0  0  0  0  0  0  0  0  0  0
    6.8530   -1.4310   27.3140 C   0  0  1  0  0  0  0  0  0  0  0  0
    5.9600   -1.9690   28.2050 C   0  0  0  0  0  0  0  0  0  0  0  0
    6.4890   -3.1490   28.6160 C   0  0  0  0  0  0  0  0  0  0  0  0
    7.7420   -3.2110   28.0230 C   0  0  2  0  0  0  0  0  0  0  0  0
    8.1450   -1.8310   27.8920 C   0  0  0  0  0  0  0  0  0  0  0  0
    6.6190   -2.8380   23.6700 C   0  0  0  0  0  0  0  0  0  0  0  0
    6.9660   -3.0670   22.2310 C   0  0  0  0  0  0  0  0  0  0  0  0
  1  2  1  0
  2  3  2  0
  2  4  1  0
  4  5  1  0
  5  6  1  0
  6  7  1  0
  7  8  1  0
  8  9  2  0
  8 10  1  0
 10 11  1  0
 12 11  1  1
 12 13  1  0
 13 14  2  0
 13 15  1  0
 15 16  1  0
 12 17  1  0
 18 17  1  6
 18 19  1  0
 19 20  1  0
 12 21  1  0
 21 20  1  1
 18 22  1  0
 21 22  1  0
  7 23  1  0
  4 24  1  0
 23 24  1  0
M  END
