piperidine-amides-9313-covalent
     RDKit          3D

 19 20  0  0  0  0  0  0  0  0999 V2000
    7.0690   -3.2970   19.2680 C   0  0  0  0  0  0  0  0  0  0  0  0
    6.3550   -4.0770   20.2870 C   0  0  0  0  0  0  0  0  0  0  0  0
    5.3430   -4.7110   19.9480 O   0  0  0  0  0  0  0  0  0  0  0  0
    6.8130   -4.1530   21.6180 N   0  0  0  0  0  0  0  0  0  0  0  0
    7.7470   -3.1660   22.1550 C   0  0  0  0  0  0  0  0  0  0  0  0
    7.4020   -2.9210   23.6040 C   0  0  0  0  0  0  0  0  0  0  0  0
    6.1030   -3.5630   23.9650 C   0  0  0  0  0  0  0  0  0  0  0  0
    5.6330   -3.2300   25.3340 C   0  0  0  0  0  0  0  0  0  0  0  0
    4.3880   -3.2080   25.5690 O   0  0  0  0  0  0  0  0  0  0  0  0
    6.4760   -2.9270   26.4310 N   0  0  0  0  0  0  0  0  0  0  0  0
    6.1490   -3.4430   27.7850 C   0  0  0  0  0  0  0  0  0  0  0  0
    6.2790   -2.3410   28.7710 C   0  0  0  0  0  0  0  0  0  0  0  0
    5.0790   -2.0760   29.4740 N   0  0  0  0  0  0  0  0  0  0  0  0
    5.2140   -1.0960   30.3590 N   0  0  0  0  0  0  0  0  0  0  0  0
    6.5450   -0.6130   30.3230 C   0  0  0  0  0  0  0  0  0  0  0  0
    7.0460    0.4950   31.2110 C   0  0  0  0  0  0  0  0  0  0  0  0
    7.6120   -1.3240   29.2320 S   0  0  0  0  0  0  0  0  0  0  0  0
    6.0030   -5.0130   23.6570 C   0  0  0  0  0  0  0  0  0  0  0  0
    6.6720   -5.3660   22.3820 C   0  0  0  0  0  0  0  0  0  0  0  0
  1  2  1  0
  2  3  2  0
  2  4  1  0
  4  5  1  0
  5  6  1  0
  6  7  1  0
  7  8  1  0
  8  9  2  0
  8 10  1  0
 10 11  1  0
 11 12  1  0
 12 13  2  0
 13 14  1  0
 14 15  2  0
 15 16  1  0
 12 17  1  0
 15 17  1  0
  7 18  1  0
  4 19  1  0
 18 19  1  0
M  END
