piperidine-amides-15427-covalent
     RDKit          3D

 18 20  0  0  0  0  0  0  0  0999 V2000
    7.0050   -3.3650   19.4040 C   0  0  0  0  0  0  0  0  0  0  0  0
    6.3440   -4.2430   20.3880 C   0  0  0  0  0  0  0  0  0  0  0  0
    5.4080   -4.9810   20.0080 O   0  0  0  0  0  0  0  0  0  0  0  0
    6.7610   -4.2840   21.7340 N   0  0  0  0  0  0  0  0  0  0  0  0
    6.5890   -5.5080   22.5070 C   0  0  0  0  0  0  0  0  0  0  0  0
    6.0300   -5.1660   23.9120 C   0  0  0  0  0  0  0  0  0  0  0  0
    5.8360   -3.6650   23.9630 C   0  0  0  0  0  0  0  0  0  0  0  0
    5.1270   -3.1350   25.1740 C   0  0  0  0  0  0  0  0  0  0  0  0
    4.4470   -2.1140   25.0020 O   0  0  0  0  0  0  0  0  0  0  0  0
    5.1860   -3.7180   26.4680 N   0  0  0  0  0  0  0  0  0  0  0  0
    4.3270   -3.2870   27.5480 C   0  0  0  0  0  0  0  0  0  0  0  0
    4.6490   -4.0800   28.8270 C   0  0  0  0  0  0  0  0  0  0  0  0
    5.4010   -5.2010   28.6930 C   0  0  2  0  0  0  0  0  0  0  0  0
    6.5150   -5.3510   29.0520 C   0  0  0  0  0  0  0  0  0  0  0  0
    6.3270   -5.0420   27.6560 C   0  0  2  0  0  0  0  0  0  0  0  0
    6.3780   -3.7280   27.2260 C   0  0  0  0  0  0  0  0  0  0  0  0
    7.2160   -3.0320   23.7920 C   0  0  0  0  0  0  0  0  0  0  0  0
    7.5480   -3.2190   22.3360 C   0  0  0  0  0  0  0  0  0  0  0  0
  1  2  1  0
  2  3  2  0
  2  4  1  0
  4  5  1  0
  5  6  1  0
  6  7  1  0
  7  8  1  0
  8  9  2  0
  8 10  1  0
 10 11  1  0
 11 12  1  0
 13 12  1  1
 13 14  1  0
 13 15  1  0
 15 14  1  1
 10 16  1  0
 15 16  1  0
  7 17  1  0
  4 18  1  0
 17 18  1  0
M  END
