piperidine-amides-9154-covalent
     RDKit          3D

 21 22  0  0  0  0  0  0  0  0999 V2000
    7.1610   -3.2630   19.1640 C   0  0  0  0  0  0  0  0  0  0  0  0
    6.3820   -3.9820   20.1700 C   0  0  0  0  0  0  0  0  0  0  0  0
    5.2900   -4.4880   19.8620 O   0  0  0  0  0  0  0  0  0  0  0  0
    6.8840   -4.1600   21.4590 N   0  0  0  0  0  0  0  0  0  0  0  0
    7.7650   -3.1960   22.0760 C   0  0  0  0  0  0  0  0  0  0  0  0
    7.0300   -2.7190   23.2850 C   0  0  0  0  0  0  0  0  0  0  0  0
    6.5390   -3.8700   24.1020 C   0  0  0  0  0  0  0  0  0  0  0  0
    5.7500   -3.4170   25.2460 C   0  0  0  0  0  0  0  0  0  0  0  0
    4.5390   -3.0720   25.1140 O   0  0  0  0  0  0  0  0  0  0  0  0
    6.2980   -3.3570   26.5210 N   0  0  0  0  0  0  0  0  0  0  0  0
    5.7180   -4.1560   27.6010 C   0  0  2  0  0  0  0  0  0  0  0  0
    6.5350   -3.9300   28.7830 C   0  0  0  0  0  0  0  0  0  0  0  0
    5.6730   -5.6760   27.3350 C   0  0  0  0  0  0  0  0  0  0  0  0
    5.1980   -6.1970   28.6630 C   0  0  0  0  0  0  0  0  0  0  0  0
    3.8040   -5.8150   29.0700 C   0  0  0  0  0  0  0  0  0  0  0  0
    3.3830   -6.3460   30.3730 C   0  0  0  0  0  0  0  0  0  0  0  0
    4.3070   -7.1110   31.0400 C   0  0  0  0  0  0  0  0  0  0  0  0
    5.6090   -7.4340   30.5980 C   0  0  0  0  0  0  0  0  0  0  0  0
    6.0880   -6.9990   29.4240 N   0  0  0  0  0  0  0  0  0  0  0  0
    5.6870   -4.8840   23.3260 C   0  0  0  0  0  0  0  0  0  0  0  0
    6.5360   -5.3710   22.1590 C   0  0  0  0  0  0  0  0  0  0  0  0
  1  2  1  0
  2  3  2  0
  2  4  1  0
  4  5  1  0
  5  6  1  0
  6  7  1  0
  7  8  1  0
  8  9  2  0
  8 10  1  0
 10 11  1  0
 11 12  1  1
 11 13  1  0
 13 14  1  0
 14 15  2  0
 15 16  1  0
 16 17  2  0
 17 18  1  0
 14 19  1  0
 18 19  2  0
  7 20  1  0
  4 21  1  0
 20 21  1  0
M  END
