piperidine-amides-1566-covalent
     RDKit          3D

 21 22  0  0  0  0  0  0  0  0999 V2000
    7.1170   -3.2980   19.2790 C   0  0  0  0  0  0  0  0  0  0  0  0
    6.4030   -4.1290   20.2840 C   0  0  0  0  0  0  0  0  0  0  0  0
    5.3490   -4.7020   19.9440 O   0  0  0  0  0  0  0  0  0  0  0  0
    6.9540   -4.2960   21.5790 N   0  0  0  0  0  0  0  0  0  0  0  0
    6.5620   -5.3990   22.3930 C   0  0  0  0  0  0  0  0  0  0  0  0
    5.7010   -4.8030   23.5140 C   0  0  0  0  0  0  0  0  0  0  0  0
    6.3910   -3.6130   24.1430 C   0  0  0  0  0  0  0  0  0  0  0  0
    5.4860   -2.9770   25.1390 C   0  0  0  0  0  0  0  0  0  0  0  0
    4.2880   -2.9850   24.8320 O   0  0  0  0  0  0  0  0  0  0  0  0
    5.9310   -2.4230   26.3440 N   0  0  0  0  0  0  0  0  0  0  0  0
    5.4950   -2.8850   27.6040 C   0  0  1  0  0  0  0  0  0  0  0  0
    4.2930   -3.4790   27.8230 C   0  0  0  0  0  0  0  0  0  0  0  0
    6.3190   -4.0520   27.8420 C   0  0  0  0  0  0  0  0  0  0  0  0
    6.0360   -4.9970   28.7950 C   0  0  0  0  0  0  0  0  0  0  0  0
    7.2030   -6.2740   28.7910 S   0  0  0  0  0  0  0  0  0  0  0  0
    8.1740   -5.5910   27.4730 C   0  0  0  0  0  0  0  0  0  0  0  0
    9.4060   -6.1040   26.8420 C   0  0  0  0  0  0  0  0  0  0  0  0
    9.3720   -5.1620   25.6520 C   0  0  0  0  0  0  0  0  0  0  0  0
    7.5040   -4.4380   27.1590 N   0  0  0  0  0  0  0  0  0  0  0  0
    6.7800   -2.5390   23.1070 C   0  0  0  0  0  0  0  0  0  0  0  0
    7.6830   -3.1950   22.1390 C   0  0  0  0  0  0  0  0  0  0  0  0
  1  2  1  0
  2  3  2  0
  2  4  1  0
  4  5  1  0
  5  6  1  0
  6  7  1  0
  7  8  1  0
  8  9  2  0
  8 10  1  0
 10 11  1  0
 11 12  1  6
 11 13  1  0
 13 14  2  0
 14 15  1  0
 15 16  1  0
 16 17  1  0
 17 18  1  0
 13 19  1  0
 16 19  2  0
  7 20  1  0
  4 21  1  0
 20 21  1  0
M  END
