piperidine-amides-12463-covalent
     RDKit          3D

 23 24  0  0  0  0  0  0  0  0999 V2000
    7.0780   -3.2790   19.2260 C   0  0  0  0  0  0  0  0  0  0  0  0
    6.3170   -4.0410   20.2100 C   0  0  0  0  0  0  0  0  0  0  0  0
    5.2550   -4.5650   19.8830 O   0  0  0  0  0  0  0  0  0  0  0  0
    6.8150   -4.2460   21.5350 N   0  0  0  0  0  0  0  0  0  0  0  0
    7.5740   -3.2160   22.2000 C   0  0  0  0  0  0  0  0  0  0  0  0
    6.7560   -2.6630   23.3260 C   0  0  0  0  0  0  0  0  0  0  0  0
    6.0070   -3.8350   23.9370 C   0  0  0  0  0  0  0  0  0  0  0  0
    5.9140   -3.6540   25.4050 C   0  0  0  0  0  0  0  0  0  0  0  0
    5.1060   -2.8650   25.9380 O   0  0  0  0  0  0  0  0  0  0  0  0
    6.7930   -4.4400   26.1960 N   0  0  0  0  0  0  0  0  0  0  0  0
    6.5270   -4.6630   27.6030 C   0  0  2  0  0  0  0  0  0  0  0  0
    7.6110   -5.5460   28.1730 C   0  0  0  0  0  0  0  0  0  0  0  0
    6.8830   -6.4030   29.0130 F   0  0  0  0  0  0  0  0  0  0  0  0
    5.2790   -5.4290   27.8260 C   0  0  0  0  0  0  0  0  0  0  0  0
    4.7500   -6.2500   26.8130 C   0  0  0  0  0  0  0  0  0  0  0  0
    3.6020   -6.9460   27.0790 C   0  0  0  0  0  0  0  0  0  0  0  0
    2.9780   -6.8120   28.3770 C   0  0  0  0  0  0  0  0  0  0  0  0
    3.3800   -6.0550   29.4420 C   0  0  0  0  0  0  0  0  0  0  0  0
    2.8200   -5.9310   30.6220 O   0  0  0  0  0  0  0  0  0  0  0  0
    2.9880   -5.9970   32.0350 C   0  0  0  0  0  0  0  0  0  0  0  0
    4.6580   -5.3190   29.0600 C   0  0  0  0  0  0  0  0  0  0  0  0
    6.5310   -5.1530   23.6210 C   0  0  0  0  0  0  0  0  0  0  0  0
    6.4740   -5.4330   22.2670 C   0  0  0  0  0  0  0  0  0  0  0  0
  1  2  1  0
  2  3  2  0
  2  4  1  0
  4  5  1  0
  5  6  1  0
  6  7  1  0
  7  8  1  0
  8  9  2  0
  8 10  1  0
 10 11  1  0
 11 12  1  6
 12 13  1  0
 11 14  1  0
 14 15  2  0
 15 16  1  0
 16 17  2  0
 17 18  1  0
 18 19  1  0
 19 20  1  0
 14 21  1  0
 18 21  2  0
  7 22  1  0
  4 23  1  0
 22 23  1  0
M  END
