piperidine-amides-14427-covalent
     RDKit          3D

 22 23  0  0  0  0  0  0  0  0999 V2000
    7.1090   -3.2910   19.2670 C   0  0  0  0  0  0  0  0  0  0  0  0
    6.4130   -4.0880   20.2740 C   0  0  0  0  0  0  0  0  0  0  0  0
    5.3570   -4.6560   19.9330 O   0  0  0  0  0  0  0  0  0  0  0  0
    6.9600   -4.2420   21.5740 N   0  0  0  0  0  0  0  0  0  0  0  0
    7.5940   -3.1120   22.1870 C   0  0  0  0  0  0  0  0  0  0  0  0
    6.6460   -2.5200   23.1920 C   0  0  0  0  0  0  0  0  0  0  0  0
    6.3470   -3.5870   24.2220 C   0  0  0  0  0  0  0  0  0  0  0  0
    5.4280   -3.0400   25.2890 C   0  0  0  0  0  0  0  0  0  0  0  0
    4.2360   -3.0100   25.0010 O   0  0  0  0  0  0  0  0  0  0  0  0
    5.9590   -2.6090   26.5120 N   0  0  0  0  0  0  0  0  0  0  0  0
    6.1790   -3.5050   27.6010 C   0  0  1  0  0  0  0  0  0  0  0  0
    5.1820   -4.4310   27.9120 C   0  0  0  0  0  0  0  0  0  0  0  0
    5.5400   -5.7610   27.9230 C   0  0  0  0  0  0  0  0  0  0  0  0
    4.7070   -6.7370   28.4480 C   0  0  0  0  0  0  0  0  0  0  0  0
    7.2310   -4.3630   27.1500 C   0  0  0  0  0  0  0  0  0  0  0  0
    7.3040   -4.7900   25.6970 C   0  0  0  0  0  0  0  0  0  0  0  0
    8.3530   -5.6510   25.2320 C   0  0  0  0  0  0  0  0  0  0  0  0
    9.3710   -6.1200   26.1990 C   0  0  0  0  0  0  0  0  0  0  0  0
    9.2280   -5.6560   27.6410 C   0  0  0  0  0  0  0  0  0  0  0  0
    8.2570   -4.8510   28.1000 C   0  0  0  0  0  0  0  0  0  0  0  0
    5.6160   -4.7120   23.5180 C   0  0  0  0  0  0  0  0  0  0  0  0
    6.3970   -5.2950   22.3670 C   0  0  0  0  0  0  0  0  0  0  0  0
  1  2  1  0
  2  3  2  0
  2  4  1  0
  4  5  1  0
  5  6  1  0
  6  7  1  0
  7  8  1  0
  8  9  2  0
  8 10  1  0
 10 11  1  0
 11 12  1  6
 12 13  1  0
 13 14  3  0
 11 15  1  0
 15 16  2  0
 16 17  1  0
 17 18  2  0
 18 19  1  0
 15 20  1  0
 19 20  2  0
  7 21  1  0
  4 22  1  0
 21 22  1  0
M  END
