piperidine-amides-23986-covalent
     RDKit          3D

 24 26  0  0  0  0  0  0  0  0999 V2000
    7.0720   -3.3650   19.3370 C   0  0  0  0  0  0  0  0  0  0  0  0
    6.4270   -4.2220   20.3430 C   0  0  0  0  0  0  0  0  0  0  0  0
    5.3940   -4.8430   19.9840 O   0  0  0  0  0  0  0  0  0  0  0  0
    6.9990   -4.3680   21.6330 N   0  0  0  0  0  0  0  0  0  0  0  0
    6.6160   -5.4870   22.4310 C   0  0  0  0  0  0  0  0  0  0  0  0
    6.0960   -5.0780   23.7260 C   0  0  0  0  0  0  0  0  0  0  0  0
    6.2490   -3.6260   23.9090 C   0  0  0  0  0  0  0  0  0  0  0  0
    5.7150   -3.1080   25.2110 C   0  0  0  0  0  0  0  0  0  0  0  0
    5.0860   -2.0400   25.2130 O   0  0  0  0  0  0  0  0  0  0  0  0
    5.8490   -3.7830   26.4210 N   0  0  0  0  0  0  0  0  0  0  0  0
    4.9810   -4.7880   26.8280 C   0  0  0  0  0  0  0  0  0  0  0  0
    5.3820   -5.7070   27.8740 C   0  0  0  0  0  0  0  0  0  0  0  0
    5.7990   -4.9190   29.1040 C   0  0  0  0  0  0  0  0  0  0  0  0
    6.5400   -5.7680   29.8650 F   0  0  0  0  0  0  0  0  0  0  0  0
    4.6830   -4.4130   29.7350 C   0  0  0  0  0  0  0  0  0  0  0  0
    4.2310   -5.7590   30.3450 C   0  0  0  0  0  0  0  0  0  0  0  0
    2.9500   -5.5760   31.1640 C   0  0  0  0  0  0  0  0  0  0  0  0
    2.5020   -4.0980   31.1290 C   0  0  0  0  0  0  0  0  0  0  0  0
    3.1360   -2.9430   30.4410 C   0  0  0  0  0  0  0  0  0  0  0  0
    4.2910   -3.0730   29.6940 N   0  0  0  0  0  0  0  0  0  0  0  0
    6.6120   -3.8380   28.7660 C   0  0  0  0  0  0  0  0  0  0  0  0
    6.3550   -3.0230   27.5020 C   0  0  0  0  0  0  0  0  0  0  0  0
    7.6510   -3.2470   23.6130 C   0  0  0  0  0  0  0  0  0  0  0  0
    7.7620   -3.2620   22.2190 C   0  0  0  0  0  0  0  0  0  0  0  0
  1  2  1  0
  2  3  2  0
  2  4  1  0
  4  5  1  0
  5  6  1  0
  6  7  1  0
  7  8  1  0
  8  9  2  0
  8 10  1  0
 10 11  1  0
 11 12  1  0
 12 13  1  0
 13 14  1  0
 13 15  1  0
 15 16  2  0
 16 17  1  0
 17 18  2  0
 18 19  1  0
 15 20  1  0
 19 20  2  0
 13 21  1  0
 10 22  1  0
 21 22  1  0
  7 23  1  0
  4 24  1  0
 23 24  1  0
M  END
