piperidine-amides-327-covalent
     RDKit          3D

 29 32  0  0  0  0  0  0  0  0999 V2000
    7.1710   -3.3110   19.3530 C   0  0  0  0  0  0  0  0  0  0  0  0
    6.4520   -4.1040   20.3170 C   0  0  0  0  0  0  0  0  0  0  0  0
    5.4010   -4.7290   19.9540 O   0  0  0  0  0  0  0  0  0  0  0  0
    6.9290   -4.2240   21.6300 N   0  0  0  0  0  0  0  0  0  0  0  0
    6.6150   -5.4520   22.3820 C   0  0  0  0  0  0  0  0  0  0  0  0
    5.5500   -4.8300   23.3500 C   0  0  0  0  0  0  0  0  0  0  0  0
    6.3420   -3.9170   24.2550 C   0  0  0  0  0  0  0  0  0  0  0  0
    5.4100   -3.4790   25.4620 C   0  0  0  0  0  0  0  0  0  0  0  0
    4.3280   -4.0330   25.3450 O   0  0  0  0  0  0  0  0  0  0  0  0
    5.9690   -2.6570   26.2650 N   0  0  0  0  0  0  0  0  0  0  0  0
    6.3340   -1.7360   27.2030 C   0  0  0  0  0  0  0  0  0  0  0  0
    7.0480   -1.6370   28.4080 C   0  0  0  0  0  0  0  0  0  0  0  0
    7.1970   -0.4200   29.1420 C   0  0  0  0  0  0  0  0  0  0  0  0
    6.5810    0.7990   28.6410 C   0  0  0  0  0  0  0  0  0  0  0  0
    6.5440    2.0870   29.1090 N   0  0  0  0  0  0  0  0  0  0  0  0
    5.7710    2.8790   28.1750 C   0  0  0  0  0  0  0  0  0  0  0  0
    5.6600    4.2220   28.5490 C   0  0  0  0  0  0  0  0  0  0  0  0
    4.3730    4.6160   28.9590 C   0  0  0  0  0  0  0  0  0  0  0  0
    4.7460    4.0670   30.3080 C   0  0  0  0  0  0  0  0  0  0  0  0
    3.5090    4.2850   31.2440 C   0  0  0  0  0  0  0  0  0  0  0  0
    2.3560    4.8950   30.7470 C   0  0  0  0  0  0  0  0  0  0  0  0
    1.3460    5.0310   31.6570 F   0  0  0  0  0  0  0  0  0  0  0  0
    2.2020    5.3470   29.4330 C   0  0  0  0  0  0  0  0  0  0  0  0
    3.2380    5.1900   28.5620 C   0  0  0  0  0  0  0  0  0  0  0  0
    5.3650    2.0500   27.1690 N   0  0  0  0  0  0  0  0  0  0  0  0
    5.8990    0.7230   27.4970 C   0  0  0  0  0  0  0  0  0  0  0  0
    5.7310   -0.4250   26.7510 C   0  0  0  0  0  0  0  0  0  0  0  0
    7.1700   -2.8490   23.6300 C   0  0  0  0  0  0  0  0  0  0  0  0
    7.7290   -3.2330   22.2950 C   0  0  0  0  0  0  0  0  0  0  0  0
  1  2  1  0
  2  3  2  0
  2  4  1  0
  4  5  1  0
  5  6  1  0
  6  7  1  0
  7  8  1  0
  8  9  2  0
  8 10  1  0
 10 11  1  0
 11 12  2  0
 12 13  1  0
 13 14  2  0
 14 15  1  0
 15 16  1  0
 16 17  1  0
 17 18  1  0
 18 19  2  0
 19 20  1  0
 20 21  2  0
 21 22  1  0
 21 23  1  0
 18 24  1  0
 23 24  2  0
 16 25  2  0
 14 26  1  0
 25 26  1  0
 11 27  1  0
 26 27  2  0
  7 28  1  0
  4 29  1  0
 28 29  1  0
M  END
