piperidine-amides-29584-covalent
     RDKit          3D

 26 27  0  0  0  0  0  0  0  0999 V2000
    7.1000   -3.2850   19.1890 C   0  0  0  0  0  0  0  0  0  0  0  0
    6.3480   -4.0310   20.1910 C   0  0  0  0  0  0  0  0  0  0  0  0
    5.2750   -4.5470   19.8860 O   0  0  0  0  0  0  0  0  0  0  0  0
    6.8800   -4.2270   21.5120 N   0  0  0  0  0  0  0  0  0  0  0  0
    6.4540   -5.3660   22.2740 C   0  0  0  0  0  0  0  0  0  0  0  0
    5.6580   -4.8920   23.4580 C   0  0  0  0  0  0  0  0  0  0  0  0
    6.4900   -3.8630   24.2100 C   0  0  0  0  0  0  0  0  0  0  0  0
    5.7410   -3.3620   25.3980 C   0  0  0  0  0  0  0  0  0  0  0  0
    4.5030   -3.2110   25.3740 O   0  0  0  0  0  0  0  0  0  0  0  0
    6.4410   -3.0280   26.5840 N   0  0  0  0  0  0  0  0  0  0  0  0
    6.6600   -1.6220   26.7920 C   0  0  0  0  0  0  0  0  0  0  0  0
    6.7380   -1.3610   28.2780 C   0  0  0  0  0  0  0  0  0  0  0  0
    6.1770   -3.7660   27.7870 C   0  0  0  0  0  0  0  0  0  0  0  0
    6.2890   -5.1510   27.9300 C   0  0  0  0  0  0  0  0  0  0  0  0
    5.3600   -5.8050   28.6910 C   0  0  0  0  0  0  0  0  0  0  0  0
    5.8320   -6.7390   29.7110 C   0  0  0  0  0  0  0  0  0  0  0  0
    4.9590   -7.4030   30.4920 C   0  0  0  0  0  0  0  0  0  0  0  0
    3.6580   -7.1360   30.2460 C   0  0  0  0  0  0  0  0  0  0  0  0
    2.3270   -7.3850   30.5790 C   0  0  0  0  0  0  0  0  0  0  0  0
    1.5680   -6.3630   31.0480 F   0  0  0  0  0  0  0  0  0  0  0  0
    1.5640   -7.9270   29.6040 F   0  0  0  0  0  0  0  0  0  0  0  0
    2.3390   -8.2250   31.6930 F   0  0  0  0  0  0  0  0  0  0  0  0
    3.1120   -6.2220   29.2460 C   0  0  0  0  0  0  0  0  0  0  0  0
    4.0050   -5.5160   28.4250 C   0  0  0  0  0  0  0  0  0  0  0  0
    6.8230   -2.6920   23.3350 C   0  0  0  0  0  0  0  0  0  0  0  0
    7.5680   -3.1480   22.1300 C   0  0  0  0  0  0  0  0  0  0  0  0
  1  2  1  0
  2  3  2  0
  2  4  1  0
  4  5  1  0
  5  6  1  0
  6  7  1  0
  7  8  1  0
  8  9  2  0
  8 10  1  0
 10 11  1  0
 11 12  1  0
 10 13  1  0
 13 14  1  0
 14 15  1  0
 15 16  2  0
 16 17  1  0
 17 18  2  0
 18 19  1  0
 19 20  1  0
 19 21  1  0
 19 22  1  0
 18 23  1  0
 15 24  1  0
 23 24  2  0
  7 25  1  0
  4 26  1  0
 25 26  1  0
M  END
