piperidine-amides-33220-covalent
     RDKit          3D

 28 29  0  0  0  0  0  0  0  0999 V2000
    7.0680   -3.3660   19.3270 C   0  0  0  0  0  0  0  0  0  0  0  0
    6.4280   -4.2230   20.3360 C   0  0  0  0  0  0  0  0  0  0  0  0
    5.3740   -4.8010   19.9760 O   0  0  0  0  0  0  0  0  0  0  0  0
    7.0070   -4.4410   21.6230 N   0  0  0  0  0  0  0  0  0  0  0  0
    6.5290   -5.5220   22.3980 C   0  0  0  0  0  0  0  0  0  0  0  0
    6.0770   -5.1400   23.7380 C   0  0  0  0  0  0  0  0  0  0  0  0
    6.4100   -3.7750   24.2270 C   0  0  0  0  0  0  0  0  0  0  0  0
    5.2800   -3.2490   25.0840 C   0  0  0  0  0  0  0  0  0  0  0  0
    4.2180   -2.9370   24.5320 O   0  0  0  0  0  0  0  0  0  0  0  0
    5.3650   -3.0850   26.4810 N   0  0  0  0  0  0  0  0  0  0  0  0
    4.5940   -3.7060   27.4900 C   0  0  0  0  0  0  0  0  0  0  0  0
    5.3490   -4.0220   28.6960 C   0  0  1  0  0  0  0  0  0  0  0  0
    5.5660   -5.2880   29.0680 N   0  0  0  0  0  0  0  0  0  0  0  0
    5.1180   -6.3970   28.2650 C   0  0  0  0  0  0  0  0  0  0  0  0
    6.0850   -6.9430   27.4670 O   0  0  0  0  0  0  0  0  0  0  0  0
    3.9140   -6.7270   28.3620 O   0  0  0  0  0  0  0  0  0  0  0  0
    3.0400   -7.0160   27.3850 C   0  0  0  0  0  0  0  0  0  0  0  0
    2.3690   -5.7670   26.8050 C   0  0  0  0  0  0  0  0  0  0  0  0
    1.9660   -8.0410   27.7790 C   0  0  0  0  0  0  0  0  0  0  0  0
    3.6340   -7.3350   26.0550 C   0  0  0  0  0  0  0  0  0  0  0  0
    6.5620   -3.2080   28.3650 C   0  0  2  0  0  0  0  0  0  0  0  0
    6.2770   -1.9620   29.2070 C   0  0  0  0  0  0  0  0  0  0  0  0
    5.8180   -0.9640   28.4000 F   0  0  0  0  0  0  0  0  0  0  0  0
    5.4890   -2.1950   30.2930 F   0  0  0  0  0  0  0  0  0  0  0  0
    7.4230   -1.4080   29.6770 F   0  0  0  0  0  0  0  0  0  0  0  0
    6.6130   -2.6680   26.9550 C   0  0  0  0  0  0  0  0  0  0  0  0
    6.7510   -2.8190   23.1230 C   0  0  0  0  0  0  0  0  0  0  0  0
    7.7320   -3.4140   22.3320 C   0  0  0  0  0  0  0  0  0  0  0  0
  1  2  1  0
  2  3  2  0
  2  4  1  0
  4  5  1  0
  5  6  1  0
  6  7  1  0
  7  8  1  0
  8  9  2  0
  8 10  1  0
 10 11  1  0
 11 12  1  0
 12 13  1  6
 13 14  1  0
 14 15  2  0
 14 16  1  0
 17 16  1  0
 17 18  1  0
 17 19  1  0
 17 20  1  0
 12 21  1  0
 21 22  1  1
 22 23  1  0
 22 24  1  0
 22 25  1  0
 10 26  1  0
 21 26  1  0
  7 27  1  0
  4 28  1  0
 27 28  1  0
M  END
