piperidine-amides-2188-covalent
     RDKit          3D

 28 30  0  0  0  0  0  0  0  0999 V2000
    7.2010   -3.9370   19.6380 C   0  0  0  0  0  0  0  0  0  0  0  0
    5.9610   -3.8750   20.3140 C   0  0  0  0  0  0  0  0  0  0  0  0
    4.9850   -3.9500   19.5820 O   0  0  0  0  0  0  0  0  0  0  0  0
    6.0330   -3.8640   21.6860 N   0  0  0  0  0  0  0  0  0  0  0  0
    5.9230   -5.1520   22.3360 C   0  0  0  0  0  0  0  0  0  0  0  0
    5.4240   -4.9700   23.7260 C   0  0  0  0  0  0  0  0  0  0  0  0
    5.6640   -3.5200   24.1160 C   0  0  0  0  0  0  0  0  0  0  0  0
    5.3460   -3.4050   25.5420 C   0  0  0  0  0  0  0  0  0  0  0  0
    4.1470   -3.3100   25.8740 O   0  0  0  0  0  0  0  0  0  0  0  0
    6.3670   -3.4140   26.5150 N   0  0  0  0  0  0  0  0  0  0  0  0
    6.3590   -4.4790   27.4950 C   0  0  0  0  0  0  0  0  0  0  0  0
    5.2240   -4.1790   28.4490 C   0  0  0  0  0  0  0  0  0  0  0  0
    4.8120   -2.9730   28.8860 C   0  0  0  0  0  0  0  0  0  0  0  0
    5.4300   -1.8300   28.4820 C   0  0  0  0  0  0  0  0  0  0  0  0
    6.7320   -1.9270   28.8860 C   0  0  0  0  0  0  0  0  0  0  0  0
    3.7400   -2.9240   29.7640 N   0  0  0  0  0  0  0  0  0  0  0  0
    3.4570   -4.2140   29.8870 N   0  0  0  0  0  0  0  0  0  0  0  0
    2.3630   -4.7130   30.7310 C   0  0  0  0  0  0  0  0  0  0  0  0
    2.5970   -5.6960   31.8670 C   0  0  0  0  0  0  0  0  0  0  0  0
    1.4740   -6.2250   32.7510 C   0  0  0  0  0  0  0  0  0  0  0  0
    0.0880   -5.7520   32.4920 C   0  0  0  0  0  0  0  0  0  0  0  0
   -0.1270   -4.8020   31.3950 C   0  0  0  0  0  0  0  0  0  0  0  0
    0.9390   -4.2520   30.4950 C   0  0  0  0  0  0  0  0  0  0  0  0
    4.3090   -4.9430   29.1360 C   0  0  0  0  0  0  0  0  0  0  0  0
    3.9980   -6.4170   29.2760 C   0  0  0  0  0  0  0  0  0  0  0  0
    4.8100   -7.3180   28.6230 C   0  0  0  0  0  0  0  0  0  0  0  0
    7.0390   -3.1360   23.7230 C   0  0  0  0  0  0  0  0  0  0  0  0
    7.1400   -3.0470   22.2120 C   0  0  0  0  0  0  0  0  0  0  0  0
  1  2  1  0
  2  3  2  0
  2  4  1  0
  4  5  1  0
  5  6  1  0
  6  7  1  0
  7  8  1  0
  8  9  2  0
  8 10  1  0
 10 11  1  0
 11 12  1  0
 12 13  1  0
 13 14  1  0
 14 15  1  0
 13 16  2  0
 16 17  1  0
 17 18  1  0
 18 19  2  0
 19 20  1  0
 20 21  2  0
 21 22  1  0
 18 23  1  0
 22 23  2  0
 12 24  2  0
 17 24  1  0
 24 25  1  0
 25 26  1  0
  7 27  1  0
  4 28  1  0
 27 28  1  0
M  END
