piperidine-amides-28064-covalent
     RDKit          3D

 24 25  0  0  0  0  0  0  0  0999 V2000
    7.0290   -3.3810   19.4150 C   0  0  0  0  0  0  0  0  0  0  0  0
    6.3830   -4.2910   20.3880 C   0  0  0  0  0  0  0  0  0  0  0  0
    5.3670   -4.8920   19.9880 O   0  0  0  0  0  0  0  0  0  0  0  0
    6.9230   -4.4970   21.6720 N   0  0  0  0  0  0  0  0  0  0  0  0
    6.5220   -5.6370   22.4470 C   0  0  0  0  0  0  0  0  0  0  0  0
    5.8690   -5.2960   23.7260 C   0  0  0  0  0  0  0  0  0  0  0  0
    5.9390   -3.8600   24.0210 C   0  0  0  0  0  0  0  0  0  0  0  0
    5.3520   -3.4490   25.3430 C   0  0  0  0  0  0  0  0  0  0  0  0
    4.6200   -2.4490   25.3040 O   0  0  0  0  0  0  0  0  0  0  0  0
    5.5450   -4.0700   26.6080 N   0  0  0  0  0  0  0  0  0  0  0  0
    6.8970   -4.3940   27.0110 C   0  0  0  0  0  0  0  0  0  0  0  0
    7.1120   -5.7250   27.6290 C   0  0  0  0  0  0  0  0  0  0  0  0
    5.8130   -5.7490   28.8390 S   0  0  0  0  0  0  0  0  0  0  0  0
    6.2410   -6.2970   30.1450 O   0  0  0  0  0  0  0  0  0  0  0  0
    4.6270   -6.3990   28.2390 O   0  0  0  0  0  0  0  0  0  0  0  0
    5.6710   -3.9460   28.8880 C   0  0  0  0  0  0  0  0  0  0  0  0
    4.8370   -3.6090   27.8230 C   0  0  2  0  0  0  0  0  0  0  0  0
    3.5200   -4.0360   27.7650 C   0  0  0  0  0  0  0  0  0  0  0  0
    2.6800   -3.4740   28.6880 C   0  0  0  0  0  0  0  0  0  0  0  0
    3.2250   -2.4020   29.3820 O   0  0  0  0  0  0  0  0  0  0  0  0
    1.3590   -3.9010   28.9540 N   0  0  0  0  0  0  0  0  0  0  0  0
    0.9900   -3.8250   30.3290 C   0  0  0  0  0  0  0  0  0  0  0  0
    7.2530   -3.2950   23.7020 C   0  0  0  0  0  0  0  0  0  0  0  0
    7.5700   -3.3930   22.3460 C   0  0  0  0  0  0  0  0  0  0  0  0
  1  2  1  0
  2  3  2  0
  2  4  1  0
  4  5  1  0
  5  6  1  0
  6  7  1  0
  7  8  1  0
  8  9  2  0
  8 10  1  0
 10 11  1  0
 11 12  1  0
 13 12  1  0
 13 14  2  0
 13 15  2  0
 13 16  1  0
 10 17  1  0
 16 17  1  0
 17 18  1  1
 18 19  1  0
 19 20  2  0
 19 21  1  0
 21 22  1  0
  7 23  1  0
  4 24  1  0
 23 24  1  0
M  END
