piperidine-amides-35351-covalent
     RDKit          3D

 34 37  0  0  0  0  0  0  0  0999 V2000
    7.0150   -3.3680   19.4400 C   0  0  0  0  0  0  0  0  0  0  0  0
    6.3890   -4.2800   20.4330 C   0  0  0  0  0  0  0  0  0  0  0  0
    5.4440   -4.9560   20.0130 O   0  0  0  0  0  0  0  0  0  0  0  0
    6.8840   -4.3780   21.7550 N   0  0  0  0  0  0  0  0  0  0  0  0
    6.5520   -5.5200   22.5900 C   0  0  0  0  0  0  0  0  0  0  0  0
    5.8790   -5.0900   23.8880 C   0  0  0  0  0  0  0  0  0  0  0  0
    5.8430   -3.5620   23.9350 C   0  0  0  0  0  0  0  0  0  0  0  0
    5.0700   -3.0040   25.1050 C   0  0  0  0  0  0  0  0  0  0  0  0
    4.3020   -2.0790   24.8640 O   0  0  0  0  0  0  0  0  0  0  0  0
    5.1200   -3.4280   26.4540 N   0  0  0  0  0  0  0  0  0  0  0  0
    6.2380   -4.1410   26.7790 C   0  0  0  0  0  0  0  0  0  0  0  0
    6.3220   -4.5140   28.2610 C   0  0  0  0  0  0  0  0  0  0  0  0
    5.3190   -4.1680   29.1050 C   0  0  0  0  0  0  0  0  0  0  0  0
    4.2540   -3.8290   28.3810 C   0  0  0  0  0  0  0  0  0  0  0  0
    4.6050   -2.7970   27.5800 C   0  0  0  0  0  0  0  0  0  0  0  0
    4.8020   -5.3370   29.9000 C   0  0  0  0  0  0  0  0  0  0  0  0
    4.0250   -4.7350   30.8460 N   0  0  0  0  0  0  0  0  0  0  0  0
    3.7830   -5.5000   31.9330 C   0  0  0  0  0  0  0  0  0  0  0  0
    2.5670   -5.5550   32.5550 O   0  0  0  0  0  0  0  0  0  0  0  0
    4.8130   -6.2570   32.4390 O   0  0  0  0  0  0  0  0  0  0  0  0
    4.9280   -7.5940   31.9830 C   0  0  0  0  0  0  0  0  0  0  0  0
    3.5830   -8.1580   31.6600 C   0  0  0  0  0  0  0  0  0  0  0  0
    5.5340   -8.4040   33.1120 C   0  0  0  0  0  0  0  0  0  0  0  0
    5.8260   -7.6940   30.7680 C   0  0  0  0  0  0  0  0  0  0  0  0
    2.8270   -4.0270   30.4990 C   0  0  0  0  0  0  0  0  0  0  0  0
    3.1530   -2.5570   30.4760 C   0  0  0  0  0  0  0  0  0  0  0  0
    2.1880   -1.5830   30.7380 C   0  0  0  0  0  0  0  0  0  0  0  0
    2.5270   -0.1180   30.7140 C   0  0  0  0  0  0  0  0  0  0  0  0
    3.9450    0.2840   30.3980 C   0  0  0  0  0  0  0  0  0  0  0  0
    4.9110   -0.8430   30.1280 C   0  0  0  0  0  0  0  0  0  0  0  0
    4.4930   -2.1490   30.1770 C   0  0  0  0  0  0  0  0  0  0  0  0
    5.5740   -3.0580   29.8890 O   0  0  0  0  0  0  0  0  0  0  0  0
    7.1320   -2.9370   23.6810 C   0  0  0  0  0  0  0  0  0  0  0  0
    7.6920   -3.3510   22.3630 C   0  0  0  0  0  0  0  0  0  0  0  0
  1  2  1  0
  2  3  2  0
  2  4  1  0
  4  5  1  0
  5  6  1  0
  6  7  1  0
  7  8  1  0
  8  9  2  0
  8 10  1  0
 10 11  1  0
 11 12  1  0
 12 13  1  0
 13 14  1  0
 10 15  1  0
 14 15  1  0
 13 16  1  0
 16 17  1  0
 17 18  1  0
 18 19  2  0
 18 20  1  0
 21 20  1  0
 21 22  1  0
 21 23  1  0
 21 24  1  0
 17 25  1  0
 25 26  1  0
 26 27  1  0
 27 28  2  0
 28 29  1  0
 29 30  2  0
 26 31  2  0
 30 31  1  0
 13 32  1  0
 31 32  1  0
  7 33  1  0
  4 34  1  0
 33 34  1  0
M  END
