piperidine-amides-24609-covalent
     RDKit          3D

 23 25  0  0  0  0  0  0  0  0999 V2000
    7.1150   -3.3310   19.3640 C   0  0  0  0  0  0  0  0  0  0  0  0
    6.3770   -4.1420   20.3510 C   0  0  0  0  0  0  0  0  0  0  0  0
    5.4090   -4.8500   19.9870 O   0  0  0  0  0  0  0  0  0  0  0  0
    6.7720   -4.1480   21.7000 N   0  0  0  0  0  0  0  0  0  0  0  0
    7.6020   -3.0420   22.1830 C   0  0  0  0  0  0  0  0  0  0  0  0
    7.4710   -2.9260   23.7090 C   0  0  0  0  0  0  0  0  0  0  0  0
    6.1290   -3.5260   24.0090 C   0  0  0  0  0  0  0  0  0  0  0  0
    5.5770   -3.1070   25.3230 C   0  0  0  0  0  0  0  0  0  0  0  0
    4.4440   -2.5880   25.2800 O   0  0  0  0  0  0  0  0  0  0  0  0
    6.2220   -3.2650   26.5860 N   0  0  0  0  0  0  0  0  0  0  0  0
    5.5560   -4.1840   27.4620 C   0  0  0  0  0  0  0  0  0  0  0  0
    6.5130   -4.9690   28.3180 C   0  0  0  0  0  0  0  0  0  0  0  0
    6.7410   -6.3010   28.2100 C   0  0  0  0  0  0  0  0  0  0  0  0
    5.7050   -6.0340   29.0490 C   0  0  0  0  0  0  0  0  0  0  0  0
    6.2940   -2.3440   27.7370 C   0  0  0  0  0  0  0  0  0  0  0  0
    7.0260   -1.2770   27.3740 C   0  0  0  0  0  0  0  0  0  0  0  0
    7.0720   -0.3870   28.5210 C   0  0  0  0  0  0  0  0  0  0  0  0
    6.1390   -1.7690   28.9570 Cl  0  0  0  0  0  0  0  0  0  0  0  0
    6.6610   -0.2730   29.7340 N   0  0  0  0  0  0  0  0  0  0  0  0
    5.8690   -1.4070   30.1530 C   0  0  0  0  0  0  0  0  0  0  0  0
    5.7310   -2.3910   29.1240 N   0  0  0  0  0  0  0  0  0  0  0  0
    6.0940   -4.9810   23.8260 C   0  0  0  0  0  0  0  0  0  0  0  0
    6.5860   -5.3290   22.4930 C   0  0  0  0  0  0  0  0  0  0  0  0
  1  2  1  0
  2  3  2  0
  2  4  1  0
  4  5  1  0
  5  6  1  0
  6  7  1  0
  7  8  1  0
  8  9  2  0
  8 10  1  0
 10 11  1  0
 11 12  1  0
 12 13  1  0
 12 14  1  0
 13 14  1  0
 10 15  1  0
 15 16  2  0
 16 17  1  0
 17 18  1  0
 17 19  2  0
 19 20  1  0
 15 21  1  0
 20 21  2  0
  7 22  1  0
  4 23  1  0
 22 23  1  0
M  END
