piperidine-amides-32973-covalent
     RDKit          3D

 29 31  0  0  0  0  0  0  0  0999 V2000
    7.0350   -3.3800   19.4710 C   0  0  0  0  0  0  0  0  0  0  0  0
    6.3350   -4.2740   20.4320 C   0  0  0  0  0  0  0  0  0  0  0  0
    5.3870   -4.9540   20.0070 O   0  0  0  0  0  0  0  0  0  0  0  0
    6.7830   -4.3630   21.7750 N   0  0  0  0  0  0  0  0  0  0  0  0
    6.6100   -5.5830   22.5450 C   0  0  0  0  0  0  0  0  0  0  0  0
    6.1920   -5.2470   24.0020 C   0  0  0  0  0  0  0  0  0  0  0  0
    6.0780   -3.7650   24.1430 C   0  0  0  0  0  0  0  0  0  0  0  0
    5.5460   -3.1800   25.4320 C   0  0  0  0  0  0  0  0  0  0  0  0
    5.2180   -2.0010   25.3360 O   0  0  0  0  0  0  0  0  0  0  0  0
    5.3720   -3.8660   26.6640 N   0  0  0  0  0  0  0  0  0  0  0  0
    6.3340   -4.2410   27.5720 C   0  0  0  0  0  0  0  0  0  0  0  0
    6.2170   -4.3560   28.9210 C   0  0  0  0  0  0  0  0  0  0  0  0
    4.8480   -4.7580   29.2200 N   0  0  0  0  0  0  0  0  0  0  0  0
    4.4290   -5.3000   30.4350 C   0  0  0  0  0  0  0  0  0  0  0  0
    3.3070   -4.9100   31.1490 O   0  0  0  0  0  0  0  0  0  0  0  0
    5.2740   -6.3000   30.8760 O   0  0  0  0  0  0  0  0  0  0  0  0
    4.9780   -7.1240   32.0070 C   0  0  0  0  0  0  0  0  0  0  0  0
    3.6770   -7.8390   31.9020 C   0  0  0  0  0  0  0  0  0  0  0  0
    2.9410   -8.5360   33.0640 C   0  0  0  0  0  0  0  0  0  0  0  0
    1.6400   -9.1700   32.6070 C   0  0  0  0  0  0  0  0  0  0  0  0
    1.1580   -9.1430   31.3300 C   0  0  0  0  0  0  0  0  0  0  0  0
    1.7500   -8.5190   30.1300 C   0  0  0  0  0  0  0  0  0  0  0  0
    3.0710   -7.8580   30.5240 C   0  0  0  0  0  0  0  0  0  0  0  0
    4.0590   -4.7010   28.1450 C   0  0  2  0  0  0  0  0  0  0  0  0
    3.8650   -5.9360   27.2310 C   0  0  0  0  0  0  0  0  0  0  0  0
    2.8910   -6.1500   26.3910 O   0  0  0  0  0  0  0  0  0  0  0  0
    4.2270   -3.4960   27.4880 C   0  0  0  0  0  0  0  0  0  0  0  0
    7.3840   -3.1040   23.7790 C   0  0  0  0  0  0  0  0  0  0  0  0
    7.6330   -3.2960   22.3260 C   0  0  0  0  0  0  0  0  0  0  0  0
  1  2  1  0
  2  3  2  0
  2  4  1  0
  4  5  1  0
  5  6  1  0
  6  7  1  0
  7  8  1  0
  8  9  2  0
  8 10  1  0
 10 11  1  0
 11 12  1  0
 12 13  1  0
 13 14  1  0
 14 15  2  0
 14 16  1  0
 16 17  1  0
 17 18  1  0
 18 19  2  0
 19 20  1  0
 20 21  2  0
 21 22  1  0
 18 23  1  0
 22 23  2  0
 13 24  1  0
 24 25  1  6
 25 26  1  0
 10 27  1  0
 24 27  1  0
  7 28  1  0
  4 29  1  0
 28 29  1  0
M  END
