piperidine-amides-8165-covalent
     RDKit          3D

 25 26  0  0  0  0  0  0  0  0999 V2000
    7.0230   -3.3520   19.4160 C   0  0  0  0  0  0  0  0  0  0  0  0
    6.3880   -4.2300   20.3990 C   0  0  0  0  0  0  0  0  0  0  0  0
    5.4160   -4.9030   20.0040 O   0  0  0  0  0  0  0  0  0  0  0  0
    6.8900   -4.3440   21.7350 N   0  0  0  0  0  0  0  0  0  0  0  0
    6.5320   -5.5100   22.5040 C   0  0  0  0  0  0  0  0  0  0  0  0
    6.1720   -5.1180   23.9210 C   0  0  0  0  0  0  0  0  0  0  0  0
    5.8240   -3.6450   23.8940 C   0  0  0  0  0  0  0  0  0  0  0  0
    4.9990   -3.1710   25.0790 C   0  0  0  0  0  0  0  0  0  0  0  0
    3.8670   -2.8230   24.7790 O   0  0  0  0  0  0  0  0  0  0  0  0
    5.4590   -3.1310   26.3960 N   0  0  0  0  0  0  0  0  0  0  0  0
    5.9790   -4.3050   27.0800 C   0  0  0  0  0  0  0  0  0  0  0  0
    5.3630   -5.5400   26.8940 C   0  0  0  0  0  0  0  0  0  0  0  0
    4.5870   -5.7430   28.1340 N   0  0  0  0  0  0  0  0  0  0  0  0
    5.6070   -1.7780   27.0470 C   0  0  0  0  0  0  0  0  0  0  0  0
    5.6910   -1.7890   28.4490 C   0  0  0  0  0  0  0  0  0  0  0  0
    5.8890   -0.4640   29.1200 C   0  0  0  0  0  0  0  0  0  0  0  0
    5.9890    0.8880   28.4010 C   0  0  0  0  0  0  0  0  0  0  0  0
    5.8710    0.7820   26.9320 C   0  0  0  0  0  0  0  0  0  0  0  0
    5.9630    2.1180   26.2460 C   0  0  0  0  0  0  0  0  0  0  0  0
    6.7030    3.0200   26.7180 O   0  0  0  0  0  0  0  0  0  0  0  0
    5.3070    2.3680   25.2060 O   0  0  0  0  0  0  0  0  0  0  0  0
    4.1470    1.6550   24.8070 C   0  0  0  0  0  0  0  0  0  0  0  0
    5.6990   -0.4550   26.3130 C   0  0  0  0  0  0  0  0  0  0  0  0
    7.1210   -2.9240   23.7250 C   0  0  0  0  0  0  0  0  0  0  0  0
    7.5810   -3.2000   22.3160 C   0  0  0  0  0  0  0  0  0  0  0  0
  1  2  1  0
  2  3  2  0
  2  4  1  0
  4  5  1  0
  5  6  1  0
  6  7  1  0
  7  8  1  0
  8  9  2  0
  8 10  1  0
 10 11  1  0
 11 12  1  0
 12 13  1  0
 10 14  1  0
 14 15  2  0
 15 16  1  0
 16 17  2  0
 17 18  1  0
 18 19  1  0
 19 20  2  0
 19 21  1  0
 21 22  1  0
 14 23  1  0
 18 23  2  0
  7 24  1  0
  4 25  1  0
 24 25  1  0
M  END
