piperidine-amides-7339-covalent
     RDKit          3D

 20 21  0  0  0  0  0  0  0  0999 V2000
    7.0950   -3.3180   19.2850 C   0  0  0  0  0  0  0  0  0  0  0  0
    6.3480   -4.0890   20.2800 C   0  0  0  0  0  0  0  0  0  0  0  0
    5.2600   -4.5770   19.8920 O   0  0  0  0  0  0  0  0  0  0  0  0
    6.8590   -4.3050   21.5610 N   0  0  0  0  0  0  0  0  0  0  0  0
    6.4060   -5.4120   22.3620 C   0  0  0  0  0  0  0  0  0  0  0  0
    5.5220   -4.8660   23.4610 C   0  0  0  0  0  0  0  0  0  0  0  0
    6.1480   -3.6960   24.1890 C   0  0  0  0  0  0  0  0  0  0  0  0
    5.2040   -3.1280   25.1980 C   0  0  0  0  0  0  0  0  0  0  0  0
    4.1040   -3.7000   25.3380 O   0  0  0  0  0  0  0  0  0  0  0  0
    5.4470   -1.9850   26.0100 N   0  0  0  0  0  0  0  0  0  0  0  0
    6.6750   -1.8350   26.7240 C   0  0  0  0  0  0  0  0  0  0  0  0
    7.6330   -2.7730   26.0970 C   0  0  0  0  0  0  0  0  0  0  0  0
    8.3380   -2.7200   24.9230 C   0  0  0  0  0  0  0  0  0  0  0  0
    9.0690   -3.8500   24.7750 C   0  0  0  0  0  0  0  0  0  0  0  0
    8.8150   -4.5950   25.8870 C   0  0  0  0  0  0  0  0  0  0  0  0
    9.4310   -6.0830   26.3160 S   0  0  0  0  0  0  0  0  0  0  0  0
    8.8920   -5.8600   27.9130 C   0  0  0  0  0  0  0  0  0  0  0  0
    7.9420   -3.8570   26.6090 O   0  0  0  0  0  0  0  0  0  0  0  0
    6.5130   -2.5630   23.2320 C   0  0  0  0  0  0  0  0  0  0  0  0
    7.4570   -3.1410   22.2060 C   0  0  0  0  0  0  0  0  0  0  0  0
  1  2  1  0
  2  3  2  0
  2  4  1  0
  4  5  1  0
  5  6  1  0
  6  7  1  0
  7  8  1  0
  8  9  2  0
  8 10  1  0
 10 11  1  0
 11 12  1  0
 12 13  2  0
 13 14  1  0
 14 15  2  0
 15 16  1  0
 16 17  1  0
 12 18  1  0
 15 18  1  0
  7 19  1  0
  4 20  1  0
 19 20  1  0
M  END
