piperidine-amides-8109-covalent
     RDKit          3D

 26 27  0  0  0  0  0  0  0  0999 V2000
    7.0690   -3.3440   19.3220 C   0  0  0  0  0  0  0  0  0  0  0  0
    6.4100   -4.1890   20.3140 C   0  0  0  0  0  0  0  0  0  0  0  0
    5.3770   -4.7960   19.9700 O   0  0  0  0  0  0  0  0  0  0  0  0
    6.9660   -4.3510   21.6090 N   0  0  0  0  0  0  0  0  0  0  0  0
    7.6870   -3.2490   22.1850 C   0  0  0  0  0  0  0  0  0  0  0  0
    6.8500   -2.6390   23.2600 C   0  0  0  0  0  0  0  0  0  0  0  0
    6.5890   -3.7370   24.2550 C   0  0  0  0  0  0  0  0  0  0  0  0
    5.8050   -3.1900   25.4130 C   0  0  0  0  0  0  0  0  0  0  0  0
    4.6130   -2.9700   25.2060 O   0  0  0  0  0  0  0  0  0  0  0  0
    6.4640   -2.9740   26.6200 N   0  0  0  0  0  0  0  0  0  0  0  0
    6.4340   -1.7170   27.3030 C   0  0  0  0  0  0  0  0  0  0  0  0
    5.8210   -0.6010   26.6870 C   0  0  0  0  0  0  0  0  0  0  0  0
    5.7590    0.6280   27.3010 C   0  0  0  0  0  0  0  0  0  0  0  0
    6.3050    0.7880   28.5530 C   0  0  0  0  0  0  0  0  0  0  0  0
    6.1420    2.1850   29.0720 C   0  0  0  0  0  0  0  0  0  0  0  0
    6.4140    2.2970   30.4120 O   0  0  0  0  0  0  0  0  0  0  0  0
    5.7580    3.2220   28.2940 N   0  0  0  0  0  0  0  0  0  0  0  0
    4.7090    3.9730   28.6280 C   0  0  0  0  0  0  0  0  0  0  0  0
    4.8790    5.2190   29.4140 C   0  0  0  0  0  0  0  0  0  0  0  0
    6.1260    4.9950   30.2220 C   0  0  0  0  0  0  0  0  0  0  0  0
    4.7320    6.4190   28.7600 C   0  0  0  0  0  0  0  0  0  0  0  0
    6.9170   -0.2950   29.1810 C   0  0  0  0  0  0  0  0  0  0  0  0
    7.5960   -0.0450   30.7760 Cl  0  0  0  0  0  0  0  0  0  0  0  0
    6.9750   -1.5240   28.5550 C   0  0  0  0  0  0  0  0  0  0  0  0
    5.8420   -4.8930   23.6660 C   0  0  0  0  0  0  0  0  0  0  0  0
    6.5520   -5.4340   22.4530 C   0  0  0  0  0  0  0  0  0  0  0  0
  1  2  1  0
  2  3  2  0
  2  4  1  0
  4  5  1  0
  5  6  1  0
  6  7  1  0
  7  8  1  0
  8  9  2  0
  8 10  1  0
 10 11  1  0
 11 12  2  0
 12 13  1  0
 13 14  2  0
 14 15  1  0
 15 16  2  0
 15 17  1  0
 17 18  1  0
 18 19  1  0
 19 20  1  0
 19 21  1  0
 14 22  1  0
 22 23  1  0
 11 24  1  0
 22 24  2  0
  7 25  1  0
  4 26  1  0
 25 26  1  0
M  END
