piperidine-amides-1870-covalent
     RDKit          3D

 18 19  0  0  0  0  0  0  0  0999 V2000
    7.1160   -3.2500   19.1450 C   0  0  0  0  0  0  0  0  0  0  0  0
    6.3360   -3.9790   20.1770 C   0  0  0  0  0  0  0  0  0  0  0  0
    5.2580   -4.4610   19.8430 O   0  0  0  0  0  0  0  0  0  0  0  0
    6.8530   -4.1530   21.4610 N   0  0  0  0  0  0  0  0  0  0  0  0
    6.4240   -5.2590   22.2660 C   0  0  0  0  0  0  0  0  0  0  0  0
    5.6320   -4.7170   23.4230 C   0  0  0  0  0  0  0  0  0  0  0  0
    6.5190   -3.7420   24.2010 C   0  0  0  0  0  0  0  0  0  0  0  0
    5.7960   -3.1800   25.3570 C   0  0  0  0  0  0  0  0  0  0  0  0
    4.5590   -3.1050   25.3400 O   0  0  0  0  0  0  0  0  0  0  0  0
    6.5220   -2.7160   26.4660 N   0  0  0  0  0  0  0  0  0  0  0  0
    6.2100   -3.2030   27.7960 C   0  0  0  0  0  0  0  0  0  0  0  0
    5.1740   -4.2980   27.6910 C   0  0  1  0  0  0  0  0  0  0  0  0
    5.2280   -5.3190   26.7700 C   0  0  0  0  0  0  0  0  0  0  0  0
    5.6640   -6.4540   27.3350 C   0  0  0  0  0  0  0  0  0  0  0  0
    5.6590   -6.2530   28.6630 C   0  0  0  0  0  0  0  0  0  0  0  0
    5.2510   -4.9900   28.9000 O   0  0  0  0  0  0  0  0  0  0  0  0
    6.9660   -2.6090   23.3120 C   0  0  0  0  0  0  0  0  0  0  0  0
    7.6040   -3.1050   22.0700 C   0  0  0  0  0  0  0  0  0  0  0  0
  1  2  1  0
  2  3  2  0
  2  4  1  0
  4  5  1  0
  5  6  1  0
  6  7  1  0
  7  8  1  0
  8  9  2  0
  8 10  1  0
 10 11  1  0
 12 11  1  6
 12 13  1  0
 13 14  1  0
 14 15  1  0
 12 16  1  0
 15 16  1  0
  7 17  1  0
  4 18  1  0
 17 18  1  0
M  END
