piperidine-amides-12939-covalent
     RDKit          3D

 21 22  0  0  0  0  0  0  0  0999 V2000
    7.0510   -3.3160   19.2610 C   0  0  0  0  0  0  0  0  0  0  0  0
    6.3700   -4.1190   20.3040 C   0  0  0  0  0  0  0  0  0  0  0  0
    5.3240   -4.6940   19.9410 O   0  0  0  0  0  0  0  0  0  0  0  0
    6.8990   -4.2670   21.6040 N   0  0  0  0  0  0  0  0  0  0  0  0
    6.5600   -5.4060   22.3900 C   0  0  0  0  0  0  0  0  0  0  0  0
    6.0100   -5.0670   23.7090 C   0  0  0  0  0  0  0  0  0  0  0  0
    6.0210   -3.6170   24.0070 C   0  0  0  0  0  0  0  0  0  0  0  0
    5.6170   -3.3490   25.4160 C   0  0  0  0  0  0  0  0  0  0  0  0
    4.4070   -3.1940   25.6480 O   0  0  0  0  0  0  0  0  0  0  0  0
    6.5590   -3.2510   26.4610 N   0  0  0  0  0  0  0  0  0  0  0  0
    6.3270   -3.6720   27.8710 C   0  0  0  0  0  0  0  0  0  0  0  0
    5.7740   -5.0540   28.0540 C   0  0  0  0  0  0  0  0  0  0  0  0
    6.7090   -6.1240   28.3670 C   0  0  0  0  0  0  0  0  0  0  0  0
    5.9110   -6.1880   27.1480 C   0  0  0  0  0  0  0  0  0  0  0  0
    4.8400   -5.3240   29.0920 N   0  0  0  0  0  0  0  0  0  0  0  0
    3.4470   -4.9970   29.0920 C   0  0  0  0  0  0  0  0  0  0  0  0
    3.0840   -5.4670   30.2630 C   0  0  0  0  0  0  0  0  0  0  0  0
    4.1180   -6.0280   30.9330 C   0  0  0  0  0  0  0  0  0  0  0  0
    5.2820   -5.9460   30.1860 N   0  0  0  0  0  0  0  0  0  0  0  0
    7.2490   -2.9180   23.5590 C   0  0  0  0  0  0  0  0  0  0  0  0
    7.6220   -3.1780   22.2340 C   0  0  0  0  0  0  0  0  0  0  0  0
  1  2  1  0
  2  3  2  0
  2  4  1  0
  4  5  1  0
  5  6  1  0
  6  7  1  0
  7  8  1  0
  8  9  2  0
  8 10  1  0
 10 11  1  0
 12 11  1  0
 12 13  1  0
 12 14  1  0
 12 15  1  0
 15 16  1  0
 16 17  2  0
 17 18  1  0
 15 19  1  0
 18 19  2  0
  7 20  1  0
  4 21  1  0
 20 21  1  0
M  END
