piperidine-amides-13861-covalent
     RDKit          3D

 26 28  0  0  0  0  0  0  0  0999 V2000
    7.1080   -3.2730   19.2420 C   0  0  0  0  0  0  0  0  0  0  0  0
    6.3540   -4.0770   20.2410 C   0  0  0  0  0  0  0  0  0  0  0  0
    5.2790   -4.5930   19.9020 O   0  0  0  0  0  0  0  0  0  0  0  0
    6.9040   -4.2870   21.5240 N   0  0  0  0  0  0  0  0  0  0  0  0
    7.5900   -3.2450   22.2420 C   0  0  0  0  0  0  0  0  0  0  0  0
    6.6570   -2.8260   23.3880 C   0  0  0  0  0  0  0  0  0  0  0  0
    6.4550   -3.9990   24.3050 C   0  0  0  0  0  0  0  0  0  0  0  0
    5.7760   -3.6010   25.5680 C   0  0  0  0  0  0  0  0  0  0  0  0
    4.5560   -3.3530   25.5100 O   0  0  0  0  0  0  0  0  0  0  0  0
    6.5020   -3.5170   26.7610 N   0  0  0  0  0  0  0  0  0  0  0  0
    6.7380   -4.5470   27.7260 C   0  0  2  0  0  0  0  0  0  0  0  0
    7.4810   -5.6820   27.4950 C   0  0  0  0  0  0  0  0  0  0  0  0
    5.4000   -5.0490   28.2590 C   0  0  0  0  0  0  0  0  0  0  0  0
    4.4410   -4.4440   29.1590 N   0  0  0  0  0  0  0  0  0  0  0  0
    3.3110   -5.0070   29.5380 N   0  0  0  0  0  0  0  0  0  0  0  0
    3.1680   -6.2010   28.9810 C   0  0  0  0  0  0  0  0  0  0  0  0
    1.9130   -6.8950   29.3650 C   0  0  0  0  0  0  0  0  0  0  0  0
    1.8230   -8.3630   29.7350 C   0  0  0  0  0  0  0  0  0  0  0  0
    0.4500   -8.8560   30.0920 C   0  0  0  0  0  0  0  0  0  0  0  0
   -0.6270   -8.0210   30.0760 C   0  0  0  0  0  0  0  0  0  0  0  0
   -0.7560   -6.5740   29.7480 C   0  0  0  0  0  0  0  0  0  0  0  0
   -1.8950   -5.8420   29.7680 F   0  0  0  0  0  0  0  0  0  0  0  0
    0.6570   -6.0650   29.3810 C   0  0  0  0  0  0  0  0  0  0  0  0
    4.5950   -6.5130   27.9590 S   0  0  0  0  0  0  0  0  0  0  0  0
    5.7540   -5.0510   23.5450 C   0  0  0  0  0  0  0  0  0  0  0  0
    6.5210   -5.4430   22.2710 C   0  0  0  0  0  0  0  0  0  0  0  0
  1  2  1  0
  2  3  2  0
  2  4  1  0
  4  5  1  0
  5  6  1  0
  6  7  1  0
  7  8  1  0
  8  9  2  0
  8 10  1  0
 10 11  1  0
 11 12  1  6
 11 13  1  0
 13 14  2  0
 14 15  1  0
 15 16  2  0
 16 17  1  0
 17 18  2  0
 18 19  1  0
 19 20  2  0
 20 21  1  0
 21 22  1  0
 17 23  1  0
 21 23  2  0
 13 24  1  0
 16 24  1  0
  7 25  1  0
  4 26  1  0
 25 26  1  0
M  END
