piperidine-amides-35268-covalent
     RDKit          3D

 34 37  0  0  0  0  0  0  0  0999 V2000
    7.0740   -3.3630   19.3830 C   0  0  0  0  0  0  0  0  0  0  0  0
    6.3840   -4.2030   20.3930 C   0  0  0  0  0  0  0  0  0  0  0  0
    5.4010   -4.8290   19.9910 O   0  0  0  0  0  0  0  0  0  0  0  0
    6.8740   -4.3100   21.7130 N   0  0  0  0  0  0  0  0  0  0  0  0
    6.7310   -5.5540   22.4360 C   0  0  0  0  0  0  0  0  0  0  0  0
    6.1030   -5.2630   23.7660 C   0  0  0  0  0  0  0  0  0  0  0  0
    6.0390   -3.7480   23.8870 C   0  0  0  0  0  0  0  0  0  0  0  0
    5.1900   -3.3520   25.0490 C   0  0  0  0  0  0  0  0  0  0  0  0
    3.9850   -3.2420   24.8300 O   0  0  0  0  0  0  0  0  0  0  0  0
    5.6090   -3.0940   26.3730 N   0  0  0  0  0  0  0  0  0  0  0  0
    6.2500   -4.0530   27.0660 C   0  0  0  0  0  0  0  0  0  0  0  0
    7.1540   -2.9210   27.2750 C   0  0  0  0  0  0  0  0  0  0  0  0
    8.2610   -3.1040   28.0270 C   0  0  0  0  0  0  0  0  0  0  0  0
    8.5650   -4.3470   28.5990 C   0  0  0  0  0  0  0  0  0  0  0  0
    7.8480   -5.5170   28.5330 C   0  0  0  0  0  0  0  0  0  0  0  0
    7.1870   -4.5070   27.7880 C   0  0  0  0  0  0  0  0  0  0  0  0
    6.2410   -5.4100   27.5890 N   0  0  0  0  0  0  0  0  0  0  0  0
    5.0810   -4.6680   27.8740 C   0  0  0  0  0  0  0  0  0  0  0  0
    4.1140   -5.1440   28.7140 O   0  0  0  0  0  0  0  0  0  0  0  0
    4.6180   -3.2510   27.3800 C   0  0  1  0  0  0  0  0  0  0  0  0
    4.7290   -2.4560   28.6460 C   0  0  0  0  0  0  0  0  0  0  0  0
    3.3870   -2.0250   29.1510 C   0  0  0  0  0  0  0  0  0  0  0  0
    2.7410   -2.6070   30.0520 O   0  0  0  0  0  0  0  0  0  0  0  0
    2.9900   -0.8090   28.4060 N   0  0  0  0  0  0  0  0  0  0  0  0
    1.6800   -0.6750   27.9000 C   0  0  0  0  0  0  0  0  0  0  0  0
    1.2210   -1.5770   26.7790 C   0  0  0  0  0  0  0  0  0  0  0  0
   -0.1880   -1.4550   26.2130 C   0  0  0  0  0  0  0  0  0  0  0  0
   -1.0510   -0.5210   26.7180 C   0  0  0  0  0  0  0  0  0  0  0  0
   -0.6320    0.3880   27.8250 C   0  0  0  0  0  0  0  0  0  0  0  0
    0.7790    0.2490   28.3780 C   0  0  0  0  0  0  0  0  0  0  0  0
    1.0320    1.1520   29.3980 O   0  0  0  0  0  0  0  0  0  0  0  0
    1.6760    0.7760   30.5870 C   0  0  0  0  0  0  0  0  0  0  0  0
    7.3430   -3.0280   23.7250 C   0  0  0  0  0  0  0  0  0  0  0  0
    7.7030   -3.2100   22.2310 C   0  0  0  0  0  0  0  0  0  0  0  0
  1  2  1  0
  2  3  2  0
  2  4  1  0
  4  5  1  0
  5  6  1  0
  6  7  1  0
  7  8  1  0
  8  9  2  0
  8 10  1  0
 10 11  1  0
 11 12  2  0
 12 13  1  0
 13 14  2  0
 14 15  1  0
 11 16  1  0
 15 16  2  0
 16 17  1  0
 17 18  1  0
 18 19  2  0
 10 20  1  0
 18 20  1  0
 20 21  1  1
 21 22  1  0
 22 23  2  0
 22 24  1  0
 24 25  1  0
 25 26  2  0
 26 27  1  0
 27 28  2  0
 28 29  1  0
 25 30  1  0
 29 30  2  0
 30 31  1  0
 31 32  1  0
  7 33  1  0
  4 34  1  0
 33 34  1  0
M  END
