piperidine-amides-3300-covalent
     RDKit          3D

 22 23  0  0  0  0  0  0  0  0999 V2000
    7.1210   -3.2710   19.2530 C   0  0  0  0  0  0  0  0  0  0  0  0
    6.3740   -4.0390   20.2430 C   0  0  0  0  0  0  0  0  0  0  0  0
    5.3300   -4.6090   19.9160 O   0  0  0  0  0  0  0  0  0  0  0  0
    6.8760   -4.1810   21.5840 N   0  0  0  0  0  0  0  0  0  0  0  0
    6.5710   -5.3820   22.3300 C   0  0  0  0  0  0  0  0  0  0  0  0
    6.1650   -5.0650   23.7540 C   0  0  0  0  0  0  0  0  0  0  0  0
    6.1240   -3.5530   23.9230 C   0  0  0  0  0  0  0  0  0  0  0  0
    5.5960   -3.1590   25.2590 C   0  0  0  0  0  0  0  0  0  0  0  0
    4.5250   -2.5390   25.3760 O   0  0  0  0  0  0  0  0  0  0  0  0
    6.3070   -3.4920   26.4280 N   0  0  0  0  0  0  0  0  0  0  0  0
    5.6570   -4.4190   27.3270 C   0  0  1  0  0  0  0  0  0  0  0  0
    5.8640   -5.8400   26.8810 C   0  0  0  0  0  0  0  0  0  0  0  0
    6.1300   -4.3250   28.7140 C   0  0  0  0  0  0  0  0  0  0  0  0
    5.2460   -4.9430   29.6500 N   0  0  0  0  0  0  0  0  0  0  0  0
    4.2680   -4.2740   30.2520 N   0  0  0  0  0  0  0  0  0  0  0  0
    3.4890   -5.0730   31.1550 C   0  0  0  0  0  0  0  0  0  0  0  0
    2.4150   -4.7120   31.9400 C   0  0  0  0  0  0  0  0  0  0  0  0
    4.1260   -6.2630   30.9940 C   0  0  0  0  0  0  0  0  0  0  0  0
    5.1860   -6.3150   30.1240 C   0  0  0  0  0  0  0  0  0  0  0  0
    6.0510   -7.2940   29.7010 C   0  0  0  0  0  0  0  0  0  0  0  0
    7.3620   -2.8580   23.5280 C   0  0  0  0  0  0  0  0  0  0  0  0
    7.6850   -3.1400   22.1370 C   0  0  0  0  0  0  0  0  0  0  0  0
  1  2  1  0
  2  3  2  0
  2  4  1  0
  4  5  1  0
  5  6  1  0
  6  7  1  0
  7  8  1  0
  8  9  2  0
  8 10  1  0
 10 11  1  0
 11 12  1  6
 11 13  1  0
 13 14  1  0
 14 15  1  0
 15 16  2  0
 16 17  1  0
 16 18  1  0
 14 19  1  0
 18 19  2  0
 19 20  1  0
  7 21  1  0
  4 22  1  0
 21 22  1  0
M  END
