piperidine-amides-32365-covalent
     RDKit          3D

 28 29  0  0  0  0  0  0  0  0999 V2000
    7.0640   -3.3350   19.3300 C   0  0  0  0  0  0  0  0  0  0  0  0
    6.3710   -4.2020   20.3210 C   0  0  0  0  0  0  0  0  0  0  0  0
    5.3500   -4.8160   19.9690 O   0  0  0  0  0  0  0  0  0  0  0  0
    6.9060   -4.3500   21.6170 N   0  0  0  0  0  0  0  0  0  0  0  0
    6.7020   -5.5770   22.3600 C   0  0  0  0  0  0  0  0  0  0  0  0
    6.2990   -5.2430   23.8060 C   0  0  0  0  0  0  0  0  0  0  0  0
    6.1820   -3.7620   23.9300 C   0  0  0  0  0  0  0  0  0  0  0  0
    5.6620   -3.2670   25.2220 C   0  0  0  0  0  0  0  0  0  0  0  0
    4.8300   -2.3590   25.1600 O   0  0  0  0  0  0  0  0  0  0  0  0
    6.0670   -3.8190   26.4280 N   0  0  0  0  0  0  0  0  0  0  0  0
    5.5370   -5.0290   26.9100 C   0  0  0  0  0  0  0  0  0  0  0  0
    5.8390   -5.5630   28.1200 C   0  0  0  0  0  0  0  0  0  0  0  0
    5.8780   -4.7020   29.1780 C   0  0  0  0  0  0  0  0  0  0  0  0
    4.6480   -4.3660   29.6930 C   0  0  0  0  0  0  0  0  0  0  0  0
    3.9320   -5.2480   30.6680 C   0  0  0  0  0  0  0  0  0  0  0  0
    4.2390   -6.6230   30.4970 N   0  0  0  0  0  0  0  0  0  0  0  0
    5.6090   -7.0770   30.5160 C   0  0  0  0  0  0  0  0  0  0  0  0
    3.2420   -7.5490   30.9120 C   0  0  0  0  0  0  0  0  0  0  0  0
    2.0810   -7.6650   30.1690 O   0  0  0  0  0  0  0  0  0  0  0  0
    3.3530   -8.3510   32.0350 O   0  0  0  0  0  0  0  0  0  0  0  0
    3.9900   -7.8750   33.1980 C   0  0  0  0  0  0  0  0  0  0  0  0
    3.6030   -8.7740   34.3110 C   0  0  0  0  0  0  0  0  0  0  0  0
    4.0650   -6.5010   33.4600 C   0  0  0  0  0  0  0  0  0  0  0  0
    5.3980   -8.4830   33.2880 C   0  0  0  0  0  0  0  0  0  0  0  0
    6.6410   -3.5730   28.8120 C   0  0  0  0  0  0  0  0  0  0  0  0
    6.3510   -2.8610   27.5090 C   0  0  0  0  0  0  0  0  0  0  0  0
    7.4920   -3.0990   23.6250 C   0  0  0  0  0  0  0  0  0  0  0  0
    7.7360   -3.2730   22.1820 C   0  0  0  0  0  0  0  0  0  0  0  0
  1  2  1  0
  2  3  2  0
  2  4  1  0
  4  5  1  0
  5  6  1  0
  6  7  1  0
  7  8  1  0
  8  9  2  0
  8 10  1  0
 10 11  1  0
 11 12  1  0
 12 13  1  0
 13 14  1  0
 14 15  1  0
 15 16  1  0
 16 17  1  0
 16 18  1  0
 18 19  2  0
 18 20  1  0
 21 20  1  0
 21 22  1  0
 21 23  1  0
 21 24  1  0
 13 25  1  0
 10 26  1  0
 25 26  1  0
  7 27  1  0
  4 28  1  0
 27 28  1  0
M  END
