piperidine-amides-3837-covalent
     RDKit          3D

 19 19  0  0  0  0  0  0  0  0999 V2000
    7.1080   -3.3060   19.2250 C   0  0  0  0  0  0  0  0  0  0  0  0
    6.3290   -4.0190   20.2500 C   0  0  0  0  0  0  0  0  0  0  0  0
    5.2510   -4.5440   19.8810 O   0  0  0  0  0  0  0  0  0  0  0  0
    6.8120   -4.1530   21.5710 N   0  0  0  0  0  0  0  0  0  0  0  0
    6.5260   -5.3400   22.2950 C   0  0  0  0  0  0  0  0  0  0  0  0
    5.9780   -5.0690   23.6160 C   0  0  0  0  0  0  0  0  0  0  0  0
    5.9150   -3.6330   23.9390 C   0  0  0  0  0  0  0  0  0  0  0  0
    5.4200   -3.3580   25.3300 C   0  0  0  0  0  0  0  0  0  0  0  0
    4.2210   -3.0820   25.4950 O   0  0  0  0  0  0  0  0  0  0  0  0
    6.2630   -3.4070   26.4540 N   0  0  0  0  0  0  0  0  0  0  0  0
    6.5670   -4.4960   27.2980 C   0  0  0  0  0  0  0  0  0  0  0  0
    6.1800   -5.8600   26.9970 C   0  0  0  0  0  0  0  0  0  0  0  0
    5.9540   -4.2510   28.6440 C   0  0  0  0  0  0  0  0  0  0  0  0
    8.0180   -4.6050   27.3810 C   0  0  0  0  0  0  0  0  0  0  0  0
    8.7060   -4.5140   26.0090 C   0  0  0  0  0  0  0  0  0  0  0  0
    8.5110   -5.8830   28.0420 C   0  0  0  0  0  0  0  0  0  0  0  0
    8.3770   -3.5570   28.1820 F   0  0  0  0  0  0  0  0  0  0  0  0
    7.2650   -2.9680   23.6650 C   0  0  0  0  0  0  0  0  0  0  0  0
    7.6290   -3.1370   22.2040 C   0  0  0  0  0  0  0  0  0  0  0  0
  1  2  1  0
  2  3  2  0
  2  4  1  0
  4  5  1  0
  5  6  1  0
  6  7  1  0
  7  8  1  0
  8  9  2  0
  8 10  1  0
 11 10  1  0
 11 12  1  0
 11 13  1  0
 11 14  1  0
 14 15  1  0
 14 16  1  0
 14 17  1  0
  7 18  1  0
  4 19  1  0
 18 19  1  0
M  END
