piperidine-amides-1034-covalent
     RDKit          3D

 24 25  0  0  0  0  0  0  0  0999 V2000
    7.2500   -4.0130   19.7200 C   0  0  0  0  0  0  0  0  0  0  0  0
    6.0000   -3.7570   20.3080 C   0  0  0  0  0  0  0  0  0  0  0  0
    5.0140   -3.8810   19.5600 O   0  0  0  0  0  0  0  0  0  0  0  0
    6.0550   -3.5090   21.6680 N   0  0  0  0  0  0  0  0  0  0  0  0
    7.1470   -2.6910   22.1430 C   0  0  0  0  0  0  0  0  0  0  0  0
    7.3300   -3.0540   23.6180 C   0  0  0  0  0  0  0  0  0  0  0  0
    5.9720   -2.9400   24.2210 C   0  0  0  0  0  0  0  0  0  0  0  0
    5.9640   -2.6510   25.6730 C   0  0  0  0  0  0  0  0  0  0  0  0
    4.8650   -2.8020   26.2220 O   0  0  0  0  0  0  0  0  0  0  0  0
    7.1240   -2.2220   26.3590 N   0  0  0  0  0  0  0  0  0  0  0  0
    7.4940   -2.5680   27.6930 C   0  0  0  0  0  0  0  0  0  0  0  0
    7.4550   -3.8620   28.0960 C   0  0  0  0  0  0  0  0  0  0  0  0
    6.8180   -4.6620   27.1890 C   0  0  0  0  0  0  0  0  0  0  0  0
    7.5190   -5.0350   26.0560 C   0  0  0  0  0  0  0  0  0  0  0  0
    6.9660   -5.8700   24.9930 C   0  0  0  0  0  0  0  0  0  0  0  0
    5.5500   -6.3600   25.1370 C   0  0  0  0  0  0  0  0  0  0  0  0
    5.0000   -7.2400   24.0590 C   0  0  0  0  0  0  0  0  0  0  0  0
    3.8320   -7.8890   24.4040 O   0  0  0  0  0  0  0  0  0  0  0  0
    5.6930   -7.4070   22.9000 O   0  0  0  0  0  0  0  0  0  0  0  0
    7.0460   -7.7270   23.0380 C   0  0  0  0  0  0  0  0  0  0  0  0
    4.8090   -5.9450   26.3620 C   0  0  0  0  0  0  0  0  0  0  0  0
    5.4630   -5.0690   27.4230 C   0  0  0  0  0  0  0  0  0  0  0  0
    5.1740   -4.1150   23.8170 C   0  0  0  0  0  0  0  0  0  0  0  0
    5.7560   -4.6380   22.4970 C   0  0  0  0  0  0  0  0  0  0  0  0
  1  2  1  0
  2  3  2  0
  2  4  1  0
  4  5  1  0
  5  6  1  0
  6  7  1  0
  7  8  1  0
  8  9  2  0
  8 10  1  0
 10 11  1  0
 11 12  1  0
 12 13  1  0
 13 14  2  0
 14 15  1  0
 15 16  2  0
 16 17  1  0
 17 18  2  0
 17 19  1  0
 19 20  1  0
 16 21  1  0
 13 22  1  0
 21 22  2  0
  7 23  1  0
  4 24  1  0
 23 24  1  0
M  END
