piperidine-amides-25837-covalent
     RDKit          3D

 24 26  0  0  0  0  0  0  0  0999 V2000
    7.0650   -3.3740   19.3480 C   0  0  0  0  0  0  0  0  0  0  0  0
    6.3740   -4.2260   20.3470 C   0  0  0  0  0  0  0  0  0  0  0  0
    5.3540   -4.7980   19.9690 O   0  0  0  0  0  0  0  0  0  0  0  0
    6.9090   -4.4020   21.6340 N   0  0  0  0  0  0  0  0  0  0  0  0
    6.5160   -5.4910   22.4740 C   0  0  0  0  0  0  0  0  0  0  0  0
    5.6160   -4.9490   23.5530 C   0  0  0  0  0  0  0  0  0  0  0  0
    6.3230   -3.8420   24.3520 C   0  0  0  0  0  0  0  0  0  0  0  0
    5.3130   -3.2220   25.2520 C   0  0  0  0  0  0  0  0  0  0  0  0
    4.4890   -2.4630   24.7430 O   0  0  0  0  0  0  0  0  0  0  0  0
    5.2160   -3.4430   26.6520 N   0  0  0  0  0  0  0  0  0  0  0  0
    6.3710   -3.5330   27.4550 C   0  0  0  0  0  0  0  0  0  0  0  0
    6.3710   -4.9040   28.1650 C   0  0  0  0  0  0  0  0  0  0  0  0
    5.0930   -4.9390   28.9120 N   0  0  0  0  0  0  0  0  0  0  0  0
    4.2630   -3.7800   28.6670 C   0  0  0  0  0  0  0  0  0  0  0  0
    3.2860   -4.3110   29.5670 N   0  0  0  0  0  0  0  0  0  0  0  0
    3.4210   -5.4990   30.2250 N   0  0  0  0  0  0  0  0  0  0  0  0
    4.6570   -5.9180   29.7640 C   0  0  0  0  0  0  0  0  0  0  0  0
    5.1750   -7.0970   30.1840 C   0  0  0  0  0  0  0  0  0  0  0  0
    6.3690   -7.2580   29.5070 F   0  0  0  0  0  0  0  0  0  0  0  0
    4.2940   -8.1010   29.8330 F   0  0  0  0  0  0  0  0  0  0  0  0
    5.3500   -7.1020   31.5430 F   0  0  0  0  0  0  0  0  0  0  0  0
    4.6600   -2.6930   27.7430 C   0  0  0  0  0  0  0  0  0  0  0  0
    7.0130   -2.8160   23.4930 C   0  0  0  0  0  0  0  0  0  0  0  0
    7.6820   -3.3520   22.2590 C   0  0  0  0  0  0  0  0  0  0  0  0
  1  2  1  0
  2  3  2  0
  2  4  1  0
  4  5  1  0
  5  6  1  0
  6  7  1  0
  7  8  1  0
  8  9  2  0
  8 10  1  0
 10 11  1  0
 11 12  1  0
 12 13  1  0
 13 14  1  0
 14 15  2  0
 15 16  1  0
 13 17  1  0
 16 17  2  0
 17 18  1  0
 18 19  1  0
 18 20  1  0
 18 21  1  0
 10 22  1  0
 14 22  1  0
  7 23  1  0
  4 24  1  0
 23 24  1  0
M  END
