piperidine-amides-9-covalent
     RDKit          3D

 25 27  0  0  0  0  0  0  0  0999 V2000
    7.0930   -3.3390   19.2870 C   0  0  0  0  0  0  0  0  0  0  0  0
    6.3240   -4.0170   20.3080 C   0  0  0  0  0  0  0  0  0  0  0  0
    5.2860   -4.6370   19.9240 O   0  0  0  0  0  0  0  0  0  0  0  0
    6.6950   -4.0650   21.6670 N   0  0  0  0  0  0  0  0  0  0  0  0
    7.6330   -2.9980   22.1360 C   0  0  0  0  0  0  0  0  0  0  0  0
    7.4770   -3.0410   23.7140 C   0  0  0  0  0  0  0  0  0  0  0  0
    6.1530   -3.7110   23.9380 C   0  0  0  0  0  0  0  0  0  0  0  0
    5.4460   -3.4030   25.3300 C   0  0  0  0  0  0  0  0  0  0  0  0
    4.4010   -4.0280   25.3810 O   0  0  0  0  0  0  0  0  0  0  0  0
    6.0920   -2.5940   26.0740 N   0  0  0  0  0  0  0  0  0  0  0  0
    6.5810   -1.7140   26.9950 C   0  0  0  0  0  0  0  0  0  0  0  0
    6.2020   -1.0980   28.1630 C   0  0  1  0  0  0  0  0  0  0  0  0
    4.8380   -1.0880   28.5700 C   0  0  0  0  0  0  0  0  0  0  0  0
    4.5910   -2.2760   29.2770 O   0  0  0  0  0  0  0  0  0  0  0  0
    7.1390   -1.2100   29.3520 C   0  0  0  0  0  0  0  0  0  0  0  0
    6.7040    0.2350   29.6800 C   0  0  0  0  0  0  0  0  0  0  0  0
    6.2660    0.4210   28.3440 C   0  0  2  0  0  0  0  0  0  0  0  0
    5.2040    1.3120   28.1130 C   0  0  0  0  0  0  0  0  0  0  0  0
    6.1720    2.3820   28.5100 C   0  0  0  0  0  0  0  0  0  0  0  0
    5.5300    3.7800   28.4560 C   0  0  0  0  0  0  0  0  0  0  0  0
    4.1970    3.8590   28.0640 C   0  0  0  0  0  0  0  0  0  0  0  0
    3.4220    2.7310   27.7190 C   0  0  0  0  0  0  0  0  0  0  0  0
    3.9220    1.4410   27.7410 C   0  0  0  0  0  0  0  0  0  0  0  0
    6.0690   -5.1570   23.5800 C   0  0  0  0  0  0  0  0  0  0  0  0
    6.6790   -5.3340   22.3440 C   0  0  0  0  0  0  0  0  0  0  0  0
  1  2  1  0
  2  3  2  0
  2  4  1  0
  4  5  1  0
  5  6  1  0
  6  7  1  0
  7  8  1  0
  8  9  2  0
  8 10  1  0
 10 11  1  0
 12 11  1  6
 12 13  1  0
 13 14  1  0
 12 15  1  0
 15 16  1  0
 12 17  1  0
 16 17  1  0
 17 18  1  1
 18 19  2  0
 19 20  1  0
 20 21  2  0
 21 22  1  0
 18 23  1  0
 22 23  2  0
  7 24  1  0
  4 25  1  0
 24 25  1  0
M  END
