piperidine-amides-12497-covalent
     RDKit          3D

 23 24  0  0  0  0  0  0  0  0999 V2000
    7.0380   -3.3580   19.3070 C   0  0  0  0  0  0  0  0  0  0  0  0
    6.3930   -4.2020   20.3400 C   0  0  0  0  0  0  0  0  0  0  0  0
    5.3730   -4.8250   19.9790 O   0  0  0  0  0  0  0  0  0  0  0  0
    6.9320   -4.3320   21.6340 N   0  0  0  0  0  0  0  0  0  0  0  0
    7.6800   -3.2670   22.2320 C   0  0  0  0  0  0  0  0  0  0  0  0
    7.2510   -2.9600   23.5890 C   0  0  0  0  0  0  0  0  0  0  0  0
    5.9930   -3.6430   23.9420 C   0  0  0  0  0  0  0  0  0  0  0  0
    5.5200   -3.2510   25.2910 C   0  0  0  0  0  0  0  0  0  0  0  0
    4.2960   -3.3200   25.5130 O   0  0  0  0  0  0  0  0  0  0  0  0
    6.3950   -2.8140   26.2920 N   0  0  0  0  0  0  0  0  0  0  0  0
    6.2960   -1.4840   26.9400 C   0  0  0  0  0  0  0  0  0  0  0  0
    6.2860   -0.2610   26.1300 C   0  0  0  0  0  0  0  0  0  0  0  0
    6.2010    1.0300   26.7830 C   0  0  0  0  0  0  0  0  0  0  0  0
    6.1340    1.0510   28.1580 C   0  0  0  0  0  0  0  0  0  0  0  0
    6.0400    2.6040   28.9530 Cl  0  0  0  0  0  0  0  0  0  0  0  0
    6.1350   -0.1070   28.9150 C   0  0  0  0  0  0  0  0  0  0  0  0
    6.2030   -1.3570   28.3650 C   0  0  0  0  0  0  0  0  0  0  0  0
    6.1660   -2.3690   29.2330 C   0  0  0  0  0  0  0  0  0  0  0  0
    6.5090   -3.6330   28.8430 C   0  0  0  0  0  0  0  0  0  0  0  0
    4.9110   -2.5870   29.7840 C   0  0  0  0  0  0  0  0  0  0  0  0
    6.7410   -1.9390   30.2240 O   0  0  0  0  0  0  0  0  0  0  0  0
    5.9870   -5.1160   23.7520 C   0  0  0  0  0  0  0  0  0  0  0  0
    6.6900   -5.5120   22.4640 C   0  0  0  0  0  0  0  0  0  0  0  0
  1  2  1  0
  2  3  2  0
  2  4  1  0
  4  5  1  0
  5  6  1  0
  6  7  1  0
  7  8  1  0
  8  9  2  0
  8 10  1  0
 10 11  1  0
 11 12  2  0
 12 13  1  0
 13 14  2  0
 14 15  1  0
 14 16  1  0
 11 17  1  0
 16 17  2  0
 17 18  1  0
 18 19  1  0
 18 20  1  0
 18 21  1  0
  7 22  1  0
  4 23  1  0
 22 23  1  0
M  END
