piperidine-amides-8811-covalent
     RDKit          3D

 22 23  0  0  0  0  0  0  0  0999 V2000
    7.1540   -3.2770   19.1800 C   0  0  0  0  0  0  0  0  0  0  0  0
    6.4270   -4.0560   20.1790 C   0  0  0  0  0  0  0  0  0  0  0  0
    5.3130   -4.5200   19.8770 O   0  0  0  0  0  0  0  0  0  0  0  0
    7.0280   -4.3200   21.4320 N   0  0  0  0  0  0  0  0  0  0  0  0
    6.4850   -5.3950   22.1880 C   0  0  0  0  0  0  0  0  0  0  0  0
    5.5060   -4.8020   23.1530 C   0  0  0  0  0  0  0  0  0  0  0  0
    6.2750   -3.8480   24.0480 C   0  0  0  0  0  0  0  0  0  0  0  0
    5.3270   -3.2750   25.0370 C   0  0  0  0  0  0  0  0  0  0  0  0
    4.3060   -2.7660   24.5960 O   0  0  0  0  0  0  0  0  0  0  0  0
    5.6700   -3.3490   26.3600 N   0  0  0  0  0  0  0  0  0  0  0  0
    6.6200   -2.4740   26.9030 C   0  0  0  0  0  0  0  0  0  0  0  0
    7.0480   -2.9030   28.1260 C   0  0  1  0  0  0  0  0  0  0  0  0
    7.6080   -1.9160   28.8990 C   0  0  0  0  0  0  0  0  0  0  0  0
    5.9660   -3.3750   28.9870 C   0  0  0  0  0  0  0  0  0  0  0  0
    5.6520   -4.8190   29.0870 C   0  0  0  0  0  0  0  0  0  0  0  0
    6.1800   -5.5960   27.8750 C   0  0  0  0  0  0  0  0  0  0  0  0
    7.5580   -5.1810   27.4780 C   0  0  0  0  0  0  0  0  0  0  0  0
    7.4760   -5.2730   25.9850 C   0  0  0  0  0  0  0  0  0  0  0  0
    8.5430   -5.9760   27.9570 C   0  0  0  0  0  0  0  0  0  0  0  0
    7.9610   -3.9330   27.9350 C   0  0  0  0  0  0  0  0  0  0  0  0
    6.8270   -2.7260   23.2300 C   0  0  0  0  0  0  0  0  0  0  0  0
    7.6450   -3.1890   22.0710 C   0  0  0  0  0  0  0  0  0  0  0  0
  1  2  1  0
  2  3  2  0
  2  4  1  0
  4  5  1  0
  5  6  1  0
  6  7  1  0
  7  8  1  0
  8  9  2  0
  8 10  1  0
 10 11  1  0
 12 11  1  0
 12 13  1  1
 12 14  1  0
 14 15  1  0
 15 16  1  0
 16 17  1  0
 17 18  1  0
 17 19  1  0
 12 20  1  0
 17 20  1  0
  7 21  1  0
  4 22  1  0
 21 22  1  0
M  END
