piperidine-amides-35187-covalent
     RDKit          3D

 32 34  0  0  0  0  0  0  0  0999 V2000
    7.0920   -3.2580   19.2770 C   0  0  0  0  0  0  0  0  0  0  0  0
    6.3600   -4.0500   20.2970 C   0  0  0  0  0  0  0  0  0  0  0  0
    5.3500   -4.6490   19.9290 O   0  0  0  0  0  0  0  0  0  0  0  0
    6.8470   -4.1350   21.6030 N   0  0  0  0  0  0  0  0  0  0  0  0
    7.7150   -3.1330   22.1760 C   0  0  0  0  0  0  0  0  0  0  0  0
    7.4260   -3.0590   23.6430 C   0  0  0  0  0  0  0  0  0  0  0  0
    5.9960   -3.5580   23.8470 C   0  0  0  0  0  0  0  0  0  0  0  0
    5.4750   -3.1460   25.1850 C   0  0  0  0  0  0  0  0  0  0  0  0
    4.2490   -3.0000   25.3060 O   0  0  0  0  0  0  0  0  0  0  0  0
    6.2860   -2.9000   26.3260 N   0  0  0  0  0  0  0  0  0  0  0  0
    6.0790   -3.7650   27.4810 C   0  0  0  0  0  0  0  0  0  0  0  0
    5.5360   -5.0800   26.9770 C   0  0  0  0  0  0  0  0  0  0  0  0
    4.5230   -5.6890   27.6840 O   0  0  0  0  0  0  0  0  0  0  0  0
    6.1920   -5.5250   25.7560 N   0  0  0  0  0  0  0  0  0  0  0  0
    7.5530   -5.1410   26.0640 C   0  0  0  0  0  0  0  0  0  0  0  0
    8.4830   -5.7970   25.4410 C   0  0  0  0  0  0  0  0  0  0  0  0
    9.7540   -5.4880   25.7310 C   0  0  0  0  0  0  0  0  0  0  0  0
   10.2800   -4.4960   26.5950 C   0  0  0  0  0  0  0  0  0  0  0  0
   11.7410   -4.6450   26.4110 O   0  0  0  0  0  0  0  0  0  0  0  0
   13.0790   -4.2830   26.9400 C   0  0  0  0  0  0  0  0  0  0  0  0
   14.2060   -4.1450   26.2220 C   0  0  0  0  0  0  0  0  0  0  0  0
    9.1420   -3.6950   27.3210 C   0  0  0  0  0  0  0  0  0  0  0  0
    8.8610   -2.4060   28.4430 Cl  0  0  0  0  0  0  0  0  0  0  0  0
    7.8530   -4.1900   26.9180 C   0  0  0  0  0  0  0  0  0  0  0  0
    6.3950   -1.5820   26.9900 C   0  0  0  0  0  0  0  0  0  0  0  0
    6.9790   -1.5150   28.3640 C   0  0  0  0  0  0  0  0  0  0  0  0
    7.1340   -0.2370   29.1250 C   0  0  0  0  0  0  0  0  0  0  0  0
    6.7260    0.9370   28.5590 C   0  0  0  0  0  0  0  0  0  0  0  0
    6.1240    0.9630   27.1800 C   0  0  0  0  0  0  0  0  0  0  0  0
    5.9890   -0.3810   26.4350 C   0  0  0  0  0  0  0  0  0  0  0  0
    5.9490   -5.0600   23.5560 C   0  0  0  0  0  0  0  0  0  0  0  0
    6.6260   -5.3140   22.3980 C   0  0  0  0  0  0  0  0  0  0  0  0
  1  2  1  0
  2  3  2  0
  2  4  1  0
  4  5  1  0
  5  6  1  0
  6  7  1  0
  7  8  1  0
  8  9  2  0
  8 10  1  0
 10 11  1  0
 11 12  1  0
 12 13  2  0
 12 14  1  0
 14 15  1  0
 15 16  2  0
 16 17  1  0
 17 18  2  0
 18 19  1  0
 19 20  1  0
 20 21  1  0
 18 22  1  0
 22 23  1  0
 15 24  1  0
 22 24  2  0
 10 25  1  0
 25 26  2  0
 26 27  1  0
 27 28  2  0
 28 29  1  0
 25 30  1  0
 29 30  2  0
  7 31  1  0
  4 32  1  0
 31 32  1  0
M  END
