piperidine-amides-14688-covalent
     RDKit          3D

 22 23  0  0  0  0  0  0  0  0999 V2000
    7.1150   -3.2770   19.2150 C   0  0  0  0  0  0  0  0  0  0  0  0
    6.3830   -4.0380   20.2290 C   0  0  0  0  0  0  0  0  0  0  0  0
    5.3110   -4.5750   19.8980 O   0  0  0  0  0  0  0  0  0  0  0  0
    6.9260   -4.1890   21.5280 N   0  0  0  0  0  0  0  0  0  0  0  0
    7.7520   -3.1300   22.0620 C   0  0  0  0  0  0  0  0  0  0  0  0
    7.4030   -2.8420   23.4890 C   0  0  0  0  0  0  0  0  0  0  0  0
    6.0000   -3.3490   23.6830 C   0  0  0  0  0  0  0  0  0  0  0  0
    5.5310   -3.0370   25.0620 C   0  0  0  0  0  0  0  0  0  0  0  0
    4.3150   -2.9740   25.2240 O   0  0  0  0  0  0  0  0  0  0  0  0
    6.4780   -2.8420   26.0500 N   0  0  0  0  0  0  0  0  0  0  0  0
    6.4230   -3.6390   27.2150 C   0  0  0  0  0  0  0  0  0  0  0  0
    5.2410   -3.4700   27.9700 C   0  0  0  0  0  0  0  0  0  0  0  0
    5.0110   -4.2920   29.0350 C   0  0  0  0  0  0  0  0  0  0  0  0
    5.9250   -5.3210   28.8740 N   0  0  0  0  0  0  0  0  0  0  0  0
    7.0660   -4.8090   28.3630 C   0  0  0  0  0  0  0  0  0  0  0  0
    7.9930   -5.8650   28.1590 C   0  0  0  0  0  0  0  0  0  0  0  0
    9.3860   -5.6380   27.5720 C   0  0  0  0  0  0  0  0  0  0  0  0
    9.5200   -6.6010   26.7860 O   0  0  0  0  0  0  0  0  0  0  0  0
    7.2340   -6.9080   28.6150 N   0  0  0  0  0  0  0  0  0  0  0  0
    5.9770   -6.6140   29.0590 N   0  0  0  0  0  0  0  0  0  0  0  0
    5.8480   -4.8170   23.4960 C   0  0  0  0  0  0  0  0  0  0  0  0
    6.5090   -5.3360   22.2600 C   0  0  0  0  0  0  0  0  0  0  0  0
  1  2  1  0
  2  3  2  0
  2  4  1  0
  4  5  1  0
  5  6  1  0
  6  7  1  0
  7  8  1  0
  8  9  2  0
  8 10  1  0
 10 11  1  0
 11 12  1  0
 12 13  1  0
 13 14  1  0
 14 15  1  0
 15 16  2  0
 16 17  1  0
 17 18  1  0
 16 19  1  0
 14 20  1  0
 19 20  2  0
  7 21  1  0
  4 22  1  0
 21 22  1  0
M  END
