piperidine-amides-24696-covalent
     RDKit          3D

 24 25  0  0  0  0  0  0  0  0999 V2000
    7.0710   -3.2790   19.3090 C   0  0  0  0  0  0  0  0  0  0  0  0
    6.3610   -4.0990   20.3020 C   0  0  0  0  0  0  0  0  0  0  0  0
    5.3450   -4.7440   19.9560 O   0  0  0  0  0  0  0  0  0  0  0  0
    6.8190   -4.2270   21.6240 N   0  0  0  0  0  0  0  0  0  0  0  0
    6.6040   -5.5050   22.2660 C   0  0  0  0  0  0  0  0  0  0  0  0
    6.3450   -5.2500   23.7570 C   0  0  0  0  0  0  0  0  0  0  0  0
    6.0590   -3.7750   23.9170 C   0  0  0  0  0  0  0  0  0  0  0  0
    5.5540   -3.4670   25.2850 C   0  0  0  0  0  0  0  0  0  0  0  0
    4.3200   -3.5190   25.4460 O   0  0  0  0  0  0  0  0  0  0  0  0
    6.4010   -3.0950   26.3590 N   0  0  0  0  0  0  0  0  0  0  0  0
    6.7520   -1.7000   26.3900 C   0  0  0  0  0  0  0  0  0  0  0  0
    6.7750   -1.2160   27.8290 C   0  0  0  0  0  0  0  0  0  0  0  0
    6.1510   -3.6870   27.6790 C   0  0  0  0  0  0  0  0  0  0  0  0
    5.9580   -5.0450   27.8620 C   0  0  0  0  0  0  0  0  0  0  0  0
    6.9270   -5.8690   28.4070 O   0  0  0  0  0  0  0  0  0  0  0  0
    4.6840   -5.5500   27.5010 N   0  0  0  0  0  0  0  0  0  0  0  0
    4.4660   -6.2690   26.3520 C   0  0  0  0  0  0  0  0  0  0  0  0
    3.1000   -6.2980   26.1710 C   0  0  0  0  0  0  0  0  0  0  0  0
    2.2910   -7.5270   26.5550 C   0  0  0  0  0  0  0  0  0  0  0  0
    2.5670   -6.5820   27.7100 C   0  0  0  0  0  0  0  0  0  0  0  0
    3.5610   -7.0850   28.7220 C   0  0  0  0  0  0  0  0  0  0  0  0
    3.7020   -5.6290   28.5700 C   0  0  0  0  0  0  0  0  0  0  0  0
    7.2980   -3.0120   23.5680 C   0  0  0  0  0  0  0  0  0  0  0  0
    7.5810   -3.1760   22.2390 C   0  0  0  0  0  0  0  0  0  0  0  0
  1  2  1  0
  2  3  2  0
  2  4  1  0
  4  5  1  0
  5  6  1  0
  6  7  1  0
  7  8  1  0
  8  9  2  0
  8 10  1  0
 10 11  1  0
 11 12  1  0
 10 13  1  0
 13 14  1  0
 14 15  2  0
 14 16  1  0
 16 17  1  0
 17 18  1  0
 18 19  1  0
 19 20  1  0
 20 21  1  0
 16 22  1  0
 21 22  1  0
  7 23  1  0
  4 24  1  0
 23 24  1  0
M  END
