piperidine-amides-9252-covalent
     RDKit          3D

 20 21  0  0  0  0  0  0  0  0999 V2000
    7.0830   -3.3290   19.2910 C   0  0  0  0  0  0  0  0  0  0  0  0
    6.3930   -4.1410   20.2900 C   0  0  0  0  0  0  0  0  0  0  0  0
    5.3690   -4.7650   19.9650 O   0  0  0  0  0  0  0  0  0  0  0  0
    6.9050   -4.2700   21.5900 N   0  0  0  0  0  0  0  0  0  0  0  0
    7.7550   -3.2630   22.1840 C   0  0  0  0  0  0  0  0  0  0  0  0
    6.9760   -2.7170   23.3390 C   0  0  0  0  0  0  0  0  0  0  0  0
    6.5000   -3.8230   24.2210 C   0  0  0  0  0  0  0  0  0  0  0  0
    5.7820   -3.3160   25.4120 C   0  0  0  0  0  0  0  0  0  0  0  0
    4.5160   -3.3240   25.4480 O   0  0  0  0  0  0  0  0  0  0  0  0
    6.4690   -2.8120   26.5320 N   0  0  0  0  0  0  0  0  0  0  0  0
    5.9780   -1.6610   27.3310 C   0  0  1  0  0  0  0  0  0  0  0  0
    7.0130   -1.4200   28.3500 C   0  0  0  0  0  0  0  0  0  0  0  0
    6.6630   -0.4170   29.3460 C   0  0  0  0  0  0  0  0  0  0  0  0
    5.7080    0.5990   28.7870 C   0  0  0  0  0  0  0  0  0  0  0  0
    5.8770    0.8650   27.2960 C   0  0  0  0  0  0  0  0  0  0  0  0
    5.8810   -0.4210   26.5210 C   0  0  2  0  0  0  0  0  0  0  0  0
    4.7690   -0.5590   25.7140 C   0  0  0  0  0  0  0  0  0  0  0  0
    3.5520   -0.8670   26.3360 C   0  0  0  0  0  0  0  0  0  0  0  0
    5.6160   -4.8410   23.4910 C   0  0  0  0  0  0  0  0  0  0  0  0
    6.5040   -5.4120   22.3790 C   0  0  0  0  0  0  0  0  0  0  0  0
  1  2  1  0
  2  3  2  0
  2  4  1  0
  4  5  1  0
  5  6  1  0
  6  7  1  0
  7  8  1  0
  8  9  2  0
  8 10  1  0
 11 10  1  6
 11 12  1  0
 12 13  1  0
 13 14  1  0
 14 15  1  0
 11 16  1  0
 15 16  1  0
 16 17  1  1
 17 18  1  0
  7 19  1  0
  4 20  1  0
 19 20  1  0
M  END
