piperidine-amides-25444-covalent
     RDKit          3D

 25 26  0  0  0  0  0  0  0  0999 V2000
    7.0950   -3.3510   19.3250 C   0  0  0  0  0  0  0  0  0  0  0  0
    6.3780   -4.1870   20.3210 C   0  0  0  0  0  0  0  0  0  0  0  0
    5.3470   -4.7450   19.9510 O   0  0  0  0  0  0  0  0  0  0  0  0
    6.9180   -4.3510   21.5970 N   0  0  0  0  0  0  0  0  0  0  0  0
    6.6390   -5.5030   22.4220 C   0  0  0  0  0  0  0  0  0  0  0  0
    5.9530   -5.0780   23.6970 C   0  0  0  0  0  0  0  0  0  0  0  0
    6.6360   -3.8350   24.2810 C   0  0  0  0  0  0  0  0  0  0  0  0
    5.8060   -3.3400   25.3930 C   0  0  0  0  0  0  0  0  0  0  0  0
    4.6130   -3.0810   25.2110 O   0  0  0  0  0  0  0  0  0  0  0  0
    6.3700   -3.1640   26.6610 N   0  0  0  0  0  0  0  0  0  0  0  0
    6.6930   -4.3610   27.4270 C   0  0  0  0  0  0  0  0  0  0  0  0
    5.4830   -5.2520   27.4440 C   0  0  0  0  0  0  0  0  0  0  0  0
    5.4370   -6.6090   27.6020 C   0  0  0  0  0  0  0  0  0  0  0  0
    6.4180   -1.8930   27.3250 C   0  0  0  0  0  0  0  0  0  0  0  0
    6.8900   -1.7850   28.6550 N   0  0  0  0  0  0  0  0  0  0  0  0
    6.9770   -0.5870   29.4120 C   0  0  0  0  0  0  0  0  0  0  0  0
    6.5580    0.7720   28.8740 C   0  0  0  0  0  0  0  0  0  0  0  0
    6.0420    0.7240   27.4500 C   0  0  0  0  0  0  0  0  0  0  0  0
    5.9620   -0.5720   26.6590 C   0  0  0  0  0  0  0  0  0  0  0  0
    5.4110   -0.2550   25.3070 C   0  0  0  0  0  0  0  0  0  0  0  0
    6.3630   -0.3830   24.2860 O   0  0  0  0  0  0  0  0  0  0  0  0
    4.2320    0.1230   25.0970 O   0  0  0  0  0  0  0  0  0  0  0  0
    3.3800   -0.6150   24.2730 C   0  0  0  0  0  0  0  0  0  0  0  0
    6.9280   -2.7720   23.3000 C   0  0  0  0  0  0  0  0  0  0  0  0
    7.7190   -3.2960   22.1780 C   0  0  0  0  0  0  0  0  0  0  0  0
  1  2  1  0
  2  3  2  0
  2  4  1  0
  4  5  1  0
  5  6  1  0
  6  7  1  0
  7  8  1  0
  8  9  2  0
  8 10  1  0
 10 11  1  0
 11 12  1  0
 12 13  3  0
 10 14  1  0
 14 15  2  0
 15 16  1  0
 16 17  2  0
 17 18  1  0
 14 19  1  0
 18 19  2  0
 19 20  1  0
 20 21  2  0
 20 22  1  0
 22 23  1  0
  7 24  1  0
  4 25  1  0
 24 25  1  0
M  END
