piperidine-amides-19235-covalent
     RDKit          3D

 20 21  0  0  0  0  0  0  0  0999 V2000
    7.1480   -3.4120   19.5060 C   0  0  0  0  0  0  0  0  0  0  0  0
    6.4250   -4.2530   20.4270 C   0  0  0  0  0  0  0  0  0  0  0  0
    5.4100   -4.8900   19.9980 O   0  0  0  0  0  0  0  0  0  0  0  0
    6.8620   -4.4030   21.7580 N   0  0  0  0  0  0  0  0  0  0  0  0
    6.6000   -5.6690   22.4720 C   0  0  0  0  0  0  0  0  0  0  0  0
    5.7360   -5.1420   23.6910 C   0  0  0  0  0  0  0  0  0  0  0  0
    6.4170   -3.9090   24.2780 C   0  0  0  0  0  0  0  0  0  0  0  0
    5.4490   -3.1750   25.3130 C   0  0  0  0  0  0  0  0  0  0  0  0
    4.8030   -2.3460   24.7010 O   0  0  0  0  0  0  0  0  0  0  0  0
    5.5340   -3.5500   26.5290 N   0  0  0  0  0  0  0  0  0  0  0  0
    5.1840   -3.5800   27.8490 C   0  0  0  0  0  0  0  0  0  0  0  0
    5.3920   -4.4420   28.8550 C   0  0  0  0  0  0  0  0  0  0  0  0
    6.0130   -5.9060   28.3870 S   0  0  0  0  0  0  0  0  0  0  0  0
    4.8900   -6.8220   28.1130 O   0  0  0  0  0  0  0  0  0  0  0  0
    6.8960   -6.3590   29.4950 O   0  0  0  0  0  0  0  0  0  0  0  0
    6.9090   -5.6290   26.9550 C   0  0  2  0  0  0  0  0  0  0  0  0
    8.3290   -6.0510   27.0010 C   0  0  0  0  0  0  0  0  0  0  0  0
    6.8240   -4.1150   26.8260 C   0  0  0  0  0  0  0  0  0  0  0  0
    6.9440   -2.8580   23.3130 C   0  0  0  0  0  0  0  0  0  0  0  0
    7.7500   -3.4540   22.3610 C   0  0  0  0  0  0  0  0  0  0  0  0
  1  2  1  0
  2  3  2  0
  2  4  1  0
  4  5  1  0
  5  6  1  0
  6  7  1  0
  7  8  1  0
  8  9  2  0
  8 10  1  0
 10 11  1  0
 11 12  1  0
 13 12  1  0
 13 14  2  0
 13 15  2  0
 13 16  1  0
 16 17  1  1
 10 18  1  0
 16 18  1  0
  7 19  1  0
  4 20  1  0
 19 20  1  0
M  END
