piperidine-amides-13408-covalent
     RDKit          3D

 25 27  0  0  0  0  0  0  0  0999 V2000
    7.0720   -3.2370   19.2390 C   0  0  0  0  0  0  0  0  0  0  0  0
    6.3010   -4.0380   20.2370 C   0  0  0  0  0  0  0  0  0  0  0  0
    5.2480   -4.5820   19.8830 O   0  0  0  0  0  0  0  0  0  0  0  0
    6.7930   -4.2030   21.5460 N   0  0  0  0  0  0  0  0  0  0  0  0
    6.5700   -5.4460   22.2530 C   0  0  0  0  0  0  0  0  0  0  0  0
    6.4500   -5.1500   23.7580 C   0  0  0  0  0  0  0  0  0  0  0  0
    6.0470   -3.7210   23.9350 C   0  0  0  0  0  0  0  0  0  0  0  0
    5.5470   -3.4050   25.3010 C   0  0  0  0  0  0  0  0  0  0  0  0
    4.3620   -3.0630   25.3710 O   0  0  0  0  0  0  0  0  0  0  0  0
    6.3710   -3.4930   26.4360 N   0  0  0  0  0  0  0  0  0  0  0  0
    7.2270   -4.5580   26.8110 C   0  0  2  0  0  0  0  0  0  0  0  0
    7.0870   -5.3270   27.9390 C   0  0  0  0  0  0  0  0  0  0  0  0
    8.6130   -3.9570   26.9030 C   0  0  0  0  0  0  0  0  0  0  0  0
    8.9080   -2.9220   26.0400 C   0  0  0  0  0  0  0  0  0  0  0  0
   10.0290   -3.1200   25.1180 C   0  0  2  0  0  0  0  0  0  0  0  0
   11.1810   -3.9650   25.6030 C   0  0  0  0  0  0  0  0  0  0  0  0
   12.3350   -3.3260   25.0930 N   0  0  0  0  0  0  0  0  0  0  0  0
   11.9760   -2.0610   24.6090 C   0  0  0  0  0  0  0  0  0  0  0  0
   12.8580   -1.1570   24.2000 C   0  0  0  0  0  0  0  0  0  0  0  0
   12.4960    0.1490   23.7080 C   0  0  0  0  0  0  0  0  0  0  0  0
   10.9660    0.2760   23.7550 C   0  0  0  0  0  0  0  0  0  0  0  0
    9.8730   -0.5420   24.1430 C   0  0  0  0  0  0  0  0  0  0  0  0
   10.6150   -1.8530   24.6050 C   0  0  0  0  0  0  0  0  0  0  0  0
    7.0660   -2.7380   23.4650 C   0  0  0  0  0  0  0  0  0  0  0  0
    7.6610   -3.2110   22.1470 C   0  0  0  0  0  0  0  0  0  0  0  0
  1  2  1  0
  2  3  2  0
  2  4  1  0
  4  5  1  0
  5  6  1  0
  6  7  1  0
  7  8  1  0
  8  9  2  0
  8 10  1  0
 10 11  1  0
 11 12  1  1
 11 13  1  0
 13 14  1  0
 15 14  1  1
 15 16  1  0
 16 17  1  0
 17 18  1  0
 18 19  1  0
 19 20  2  0
 20 21  1  0
 21 22  2  0
 15 23  1  0
 18 23  2  0
 22 23  1  0
  7 24  1  0
  4 25  1  0
 24 25  1  0
M  END
