piperidine-amides-30063-covalent
     RDKit          3D

 26 28  0  0  0  0  0  0  0  0999 V2000
    7.0860   -3.3460   19.2970 C   0  0  0  0  0  0  0  0  0  0  0  0
    6.3790   -4.1730   20.2620 C   0  0  0  0  0  0  0  0  0  0  0  0
    5.3270   -4.7210   19.9460 O   0  0  0  0  0  0  0  0  0  0  0  0
    6.9440   -4.4100   21.5560 N   0  0  0  0  0  0  0  0  0  0  0  0
    6.5310   -5.5770   22.2720 C   0  0  0  0  0  0  0  0  0  0  0  0
    5.5730   -5.1510   23.3410 C   0  0  0  0  0  0  0  0  0  0  0  0
    6.3010   -4.1920   24.2630 C   0  0  0  0  0  0  0  0  0  0  0  0
    5.3100   -3.5580   25.1740 C   0  0  0  0  0  0  0  0  0  0  0  0
    4.3640   -2.8860   24.7430 O   0  0  0  0  0  0  0  0  0  0  0  0
    5.4480   -3.7090   26.5690 N   0  0  0  0  0  0  0  0  0  0  0  0
    4.2570   -3.7960   27.3700 C   0  0  0  0  0  0  0  0  0  0  0  0
    4.6550   -4.1640   28.7840 C   0  0  0  0  0  0  0  0  0  0  0  0
    5.8690   -3.7570   29.2580 C   0  0  0  0  0  0  0  0  0  0  0  0
    6.1100   -2.3760   29.5300 C   0  0  0  0  0  0  0  0  0  0  0  0
    7.3030   -1.6350   29.1630 N   0  0  0  0  0  0  0  0  0  0  0  0
    7.1920   -0.3840   29.5670 O   0  0  0  0  0  0  0  0  0  0  0  0
    5.9230   -0.3390   30.1920 C   0  0  0  0  0  0  0  0  0  0  0  0
    5.3340    0.8460   30.8100 C   0  0  0  0  0  0  0  0  0  0  0  0
    6.3090    1.6130   31.3790 F   0  0  0  0  0  0  0  0  0  0  0  0
    4.5380    1.5350   29.9160 F   0  0  0  0  0  0  0  0  0  0  0  0
    4.5230    0.3930   31.8420 F   0  0  0  0  0  0  0  0  0  0  0  0
    5.2470   -1.5860   30.1670 N   0  0  0  0  0  0  0  0  0  0  0  0
    6.8020   -3.8520   28.3340 C   0  0  0  0  0  0  0  0  0  0  0  0
    6.5130   -3.0900   27.2190 C   0  0  0  0  0  0  0  0  0  0  0  0
    7.2110   -3.1800   23.6450 C   0  0  0  0  0  0  0  0  0  0  0  0
    7.5720   -3.3360   22.2340 C   0  0  0  0  0  0  0  0  0  0  0  0
  1  2  1  0
  2  3  2  0
  2  4  1  0
  4  5  1  0
  5  6  1  0
  6  7  1  0
  7  8  1  0
  8  9  2  0
  8 10  1  0
 10 11  1  0
 11 12  1  0
 12 13  1  0
 13 14  1  0
 14 15  2  0
 15 16  1  0
 16 17  1  0
 17 18  1  0
 18 19  1  0
 18 20  1  0
 18 21  1  0
 14 22  1  0
 17 22  2  0
 13 23  1  0
 10 24  1  0
 23 24  1  0
  7 25  1  0
  4 26  1  0
 25 26  1  0
M  END
