piperidine-amides-891-covalent
     RDKit          3D

 24 25  0  0  0  0  0  0  0  0999 V2000
    7.1520   -3.3260   19.3810 C   0  0  0  0  0  0  0  0  0  0  0  0
    6.4490   -4.1340   20.3460 C   0  0  0  0  0  0  0  0  0  0  0  0
    5.4190   -4.7840   19.9710 O   0  0  0  0  0  0  0  0  0  0  0  0
    6.9080   -4.2450   21.6730 N   0  0  0  0  0  0  0  0  0  0  0  0
    7.7610   -3.1650   22.2110 C   0  0  0  0  0  0  0  0  0  0  0  0
    6.7760   -2.5960   23.2890 C   0  0  0  0  0  0  0  0  0  0  0  0
    6.5050   -3.7830   24.1700 C   0  0  0  0  0  0  0  0  0  0  0  0
    5.5770   -3.4310   25.4070 C   0  0  0  0  0  0  0  0  0  0  0  0
    4.5290   -4.0470   25.3000 O   0  0  0  0  0  0  0  0  0  0  0  0
    6.0920   -2.5930   26.2130 N   0  0  0  0  0  0  0  0  0  0  0  0
    6.3790   -1.6700   27.1650 C   0  0  0  0  0  0  0  0  0  0  0  0
    6.9980   -1.6430   28.3920 C   0  0  0  0  0  0  0  0  0  0  0  0
    7.1190   -0.4920   29.1860 C   0  0  0  0  0  0  0  0  0  0  0  0
    6.6020    0.8240   28.8080 C   0  0  0  0  0  0  0  0  0  0  0  0
    6.9840    1.7090   30.0060 C   0  0  2  0  0  0  0  0  0  0  0  0
    5.6630    1.6350   30.4770 C   0  0  0  0  0  0  0  0  0  0  0  0
    6.4010    3.0710   30.3570 C   0  0  0  0  0  0  0  0  0  0  0  0
    6.8680    3.7340   31.4540 O   0  0  0  0  0  0  0  0  0  0  0  0
    5.4200    3.6540   29.5740 O   0  0  0  0  0  0  0  0  0  0  0  0
    5.0960    5.0320   29.6460 C   0  0  0  0  0  0  0  0  0  0  0  0
    5.9600    0.7260   27.4780 C   0  0  0  0  0  0  0  0  0  0  0  0
    5.7910   -0.3410   26.6250 C   0  0  0  0  0  0  0  0  0  0  0  0
    5.9440   -5.0360   23.4920 C   0  0  0  0  0  0  0  0  0  0  0  0
    6.7020   -5.4370   22.4410 C   0  0  0  0  0  0  0  0  0  0  0  0
  1  2  1  0
  2  3  2  0
  2  4  1  0
  4  5  1  0
  5  6  1  0
  6  7  1  0
  7  8  1  0
  8  9  2  0
  8 10  1  0
 10 11  1  0
 11 12  2  0
 12 13  1  0
 13 14  2  0
 14 15  1  0
 15 16  1  1
 15 17  1  0
 17 18  2  0
 17 19  1  0
 19 20  1  0
 14 21  1  0
 11 22  1  0
 21 22  2  0
  7 23  1  0
  4 24  1  0
 23 24  1  0
M  END
