piperidine-amides-30748-covalent
     RDKit          3D

 23 25  0  0  0  0  0  0  0  0999 V2000
    7.0830   -3.3290   19.2810 C   0  0  0  0  0  0  0  0  0  0  0  0
    6.3730   -4.1400   20.2710 C   0  0  0  0  0  0  0  0  0  0  0  0
    5.3300   -4.7250   19.9430 O   0  0  0  0  0  0  0  0  0  0  0  0
    6.8740   -4.3180   21.5650 N   0  0  0  0  0  0  0  0  0  0  0  0
    6.6570   -5.5390   22.3040 C   0  0  0  0  0  0  0  0  0  0  0  0
    5.9610   -5.1150   23.5670 C   0  0  0  0  0  0  0  0  0  0  0  0
    6.6930   -4.0060   24.2620 C   0  0  0  0  0  0  0  0  0  0  0  0
    5.9230   -3.4830   25.4070 C   0  0  0  0  0  0  0  0  0  0  0  0
    4.7760   -2.9730   25.2330 O   0  0  0  0  0  0  0  0  0  0  0  0
    6.4110   -3.5370   26.7220 N   0  0  0  0  0  0  0  0  0  0  0  0
    7.5410   -4.4370   26.9990 C   0  0  0  0  0  0  0  0  0  0  0  0
    7.1630   -5.0020   28.2920 C   0  0  0  0  0  0  0  0  0  0  0  0
    5.9510   -4.3080   28.7810 C   0  0  2  0  0  0  0  0  0  0  0  0
    4.8450   -5.2820   29.1110 C   0  0  0  0  0  0  0  0  0  0  0  0
    4.0150   -4.9570   30.3300 C   0  0  0  0  0  0  0  0  0  0  0  0
    2.9640   -5.9590   30.5790 C   0  0  0  0  0  0  0  0  0  0  0  0
    2.7910   -7.0450   29.7690 C   0  0  0  0  0  0  0  0  0  0  0  0
    1.4200   -8.2920   30.1490 Br  0  0  0  0  0  0  0  0  0  0  0  0
    3.6430   -7.2130   28.6610 C   0  0  0  0  0  0  0  0  0  0  0  0
    4.6510   -6.4170   28.2720 N   0  0  0  0  0  0  0  0  0  0  0  0
    5.6390   -3.3010   27.8930 C   0  0  0  0  0  0  0  0  0  0  0  0
    7.0270   -2.8200   23.3970 C   0  0  0  0  0  0  0  0  0  0  0  0
    7.7280   -3.3160   22.1700 C   0  0  0  0  0  0  0  0  0  0  0  0
  1  2  1  0
  2  3  2  0
  2  4  1  0
  4  5  1  0
  5  6  1  0
  6  7  1  0
  7  8  1  0
  8  9  2  0
  8 10  1  0
 10 11  1  0
 11 12  1  0
 12 13  1  0
 13 14  1  6
 14 15  2  0
 15 16  1  0
 16 17  2  0
 17 18  1  0
 17 19  1  0
 14 20  1  0
 19 20  2  0
 10 21  1  0
 13 21  1  0
  7 22  1  0
  4 23  1  0
 22 23  1  0
M  END
