piperidine-amides-23506-covalent
     RDKit          3D

 22 23  0  0  0  0  0  0  0  0999 V2000
    7.1050   -3.3820   19.3480 C   0  0  0  0  0  0  0  0  0  0  0  0
    6.4080   -4.2050   20.3410 C   0  0  0  0  0  0  0  0  0  0  0  0
    5.3450   -4.7560   19.9670 O   0  0  0  0  0  0  0  0  0  0  0  0
    6.9620   -4.4150   21.6320 N   0  0  0  0  0  0  0  0  0  0  0  0
    6.4410   -5.4690   22.4200 C   0  0  0  0  0  0  0  0  0  0  0  0
    5.7580   -5.0280   23.6380 C   0  0  0  0  0  0  0  0  0  0  0  0
    6.1970   -3.7480   24.2670 C   0  0  0  0  0  0  0  0  0  0  0  0
    5.0900   -3.2050   25.1600 C   0  0  0  0  0  0  0  0  0  0  0  0
    4.3120   -2.3490   24.7190 O   0  0  0  0  0  0  0  0  0  0  0  0
    4.9390   -3.6590   26.4900 N   0  0  0  0  0  0  0  0  0  0  0  0
    4.4650   -2.9180   27.5940 C   0  0  0  0  0  0  0  0  0  0  0  0
    5.0500   -3.1440   28.9060 C   0  0  0  0  0  0  0  0  0  0  0  0
    6.3620   -3.8710   28.6660 C   0  0  0  0  0  0  0  0  0  0  0  0
    6.3640   -5.1660   29.1160 C   0  0  0  0  0  0  0  0  0  0  0  0
    5.9740   -5.6040   27.7230 C   0  0  1  0  0  0  0  0  0  0  0  0
    4.3810   -6.1790   27.9580 S   0  0  0  0  0  0  0  0  0  0  0  0
    4.7350   -7.5130   28.9260 C   0  0  0  0  0  0  0  0  0  0  0  0
    3.7360   -6.5600   26.6540 O   0  0  0  0  0  0  0  0  0  0  0  0
    3.5550   -5.1920   28.7030 O   0  0  0  0  0  0  0  0  0  0  0  0
    6.0700   -4.3750   26.7790 C   0  0  0  0  0  0  0  0  0  0  0  0
    6.7210   -2.6970   23.3060 C   0  0  0  0  0  0  0  0  0  0  0  0
    7.6640   -3.3590   22.3200 C   0  0  0  0  0  0  0  0  0  0  0  0
  1  2  1  0
  2  3  2  0
  2  4  1  0
  4  5  1  0
  5  6  1  0
  6  7  1  0
  7  8  1  0
  8  9  2  0
  8 10  1  0
 10 11  1  0
 11 12  1  0
 12 13  1  0
 13 14  1  0
 14 15  1  0
 15 16  1  1
 16 17  1  0
 16 18  2  0
 16 19  2  0
 10 20  1  0
 15 20  1  0
  7 21  1  0
  4 22  1  0
 21 22  1  0
M  END
