piperidine-amides-13875-covalent
     RDKit          3D

 26 27  0  0  0  0  0  0  0  0999 V2000
    7.0740   -3.3320   19.2950 C   0  0  0  0  0  0  0  0  0  0  0  0
    6.3800   -4.1920   20.2930 C   0  0  0  0  0  0  0  0  0  0  0  0
    5.3470   -4.7950   19.9620 O   0  0  0  0  0  0  0  0  0  0  0  0
    6.9410   -4.3400   21.5770 N   0  0  0  0  0  0  0  0  0  0  0  0
    7.6960   -3.2750   22.1950 C   0  0  0  0  0  0  0  0  0  0  0  0
    6.7840   -2.6720   23.2590 C   0  0  0  0  0  0  0  0  0  0  0  0
    6.4620   -3.7720   24.2060 C   0  0  0  0  0  0  0  0  0  0  0  0
    5.7370   -3.2860   25.3980 C   0  0  0  0  0  0  0  0  0  0  0  0
    4.5180   -3.1210   25.2700 O   0  0  0  0  0  0  0  0  0  0  0  0
    6.4210   -3.0350   26.5880 N   0  0  0  0  0  0  0  0  0  0  0  0
    6.4760   -1.8110   27.3070 C   0  0  0  0  0  0  0  0  0  0  0  0
    7.0870   -1.5490   28.5200 C   0  0  0  0  0  0  0  0  0  0  0  0
    7.0880   -0.2980   29.1650 C   0  0  0  0  0  0  0  0  0  0  0  0
    6.4590    0.7960   28.6170 C   0  0  0  0  0  0  0  0  0  0  0  0
    6.4250    2.1480   29.2430 C   0  0  0  0  0  0  0  0  0  0  0  0
    5.7970    0.7170   27.4090 C   0  0  0  0  0  0  0  0  0  0  0  0
    5.1820    1.8580   26.9030 O   0  0  0  0  0  0  0  0  0  0  0  0
    3.8870    1.8250   26.3420 C   0  0  0  0  0  0  0  0  0  0  0  0
    3.0970    2.8610   26.8020 C   0  0  0  0  0  0  0  0  0  0  0  0
    3.6170    4.2320   26.5460 C   0  0  0  0  0  0  0  0  0  0  0  0
    2.2110    4.7570   26.8120 C   0  0  0  0  0  0  0  0  0  0  0  0
    1.3410    4.9080   25.7650 C   0  0  0  0  0  0  0  0  0  0  0  0
    1.6380    5.8350   24.9460 O   0  0  0  0  0  0  0  0  0  0  0  0
    5.7910   -0.5930   26.7240 C   0  0  0  0  0  0  0  0  0  0  0  0
    5.7580   -4.9420   23.5870 C   0  0  0  0  0  0  0  0  0  0  0  0
    6.5770   -5.4630   22.4090 C   0  0  0  0  0  0  0  0  0  0  0  0
  1  2  1  0
  2  3  2  0
  2  4  1  0
  4  5  1  0
  5  6  1  0
  6  7  1  0
  7  8  1  0
  8  9  2  0
  8 10  1  0
 10 11  1  0
 11 12  2  0
 12 13  1  0
 13 14  2  0
 14 15  1  0
 14 16  1  0
 16 17  1  0
 17 18  1  0
 18 19  1  0
 19 20  1  0
 20 21  1  0
 21 22  1  0
 22 23  1  0
 11 24  1  0
 16 24  2  0
  7 25  1  0
  4 26  1  0
 25 26  1  0
M  END
