piperidine-amides-12355-covalent
     RDKit          3D

 24 25  0  0  0  0  0  0  0  0999 V2000
    7.0440   -3.3310   19.3570 C   0  0  0  0  0  0  0  0  0  0  0  0
    6.3480   -4.1630   20.3360 C   0  0  0  0  0  0  0  0  0  0  0  0
    5.3920   -4.8540   19.9820 O   0  0  0  0  0  0  0  0  0  0  0  0
    6.8000   -4.2090   21.6990 N   0  0  0  0  0  0  0  0  0  0  0  0
    7.6890   -3.1780   22.1790 C   0  0  0  0  0  0  0  0  0  0  0  0
    7.4460   -2.9500   23.6310 C   0  0  0  0  0  0  0  0  0  0  0  0
    6.1120   -3.5970   23.9390 C   0  0  0  0  0  0  0  0  0  0  0  0
    5.6420   -3.2440   25.3060 C   0  0  0  0  0  0  0  0  0  0  0  0
    4.4380   -3.2690   25.6190 O   0  0  0  0  0  0  0  0  0  0  0  0
    6.5970   -2.8750   26.2830 N   0  0  0  0  0  0  0  0  0  0  0  0
    6.4750   -1.6180   26.9960 C   0  0  0  0  0  0  0  0  0  0  0  0
    7.0710   -1.7340   28.3720 C   0  0  0  0  0  0  0  0  0  0  0  0
    7.0730   -0.6690   29.2340 C   0  0  0  0  0  0  0  0  0  0  0  0
    6.5060    0.5390   28.8140 C   0  0  0  0  0  0  0  0  0  0  0  0
    6.5220    1.6130   29.7150 O   0  0  0  0  0  0  0  0  0  0  0  0
    6.8130    1.3740   31.0820 C   0  0  0  0  0  0  0  0  0  0  0  0
    5.8620    0.4180   31.6390 C   0  0  0  0  0  0  0  0  0  0  0  0
    6.6840    2.4140   31.9580 C   0  0  0  0  0  0  0  0  0  0  0  0
    5.9650    0.6190   27.5480 C   0  0  0  0  0  0  0  0  0  0  0  0
    5.9350   -0.4280   26.6290 C   0  0  0  0  0  0  0  0  0  0  0  0
    5.3530   -0.1780   25.4050 O   0  0  0  0  0  0  0  0  0  0  0  0
    4.1220   -0.6880   25.0110 C   0  0  0  0  0  0  0  0  0  0  0  0
    6.0960   -5.1040   23.7110 C   0  0  0  0  0  0  0  0  0  0  0  0
    6.6680   -5.4180   22.4720 C   0  0  0  0  0  0  0  0  0  0  0  0
  1  2  1  0
  2  3  2  0
  2  4  1  0
  4  5  1  0
  5  6  1  0
  6  7  1  0
  7  8  1  0
  8  9  2  0
  8 10  1  0
 10 11  1  0
 11 12  2  0
 12 13  1  0
 13 14  2  0
 14 15  1  0
 15 16  1  0
 16 17  1  0
 16 18  1  0
 14 19  1  0
 11 20  1  0
 19 20  2  0
 20 21  1  0
 21 22  1  0
  7 23  1  0
  4 24  1  0
 23 24  1  0
M  END
