piperidine-amides-12068-covalent
     RDKit          3D

 25 27  0  0  0  0  0  0  0  0999 V2000
    7.0920   -3.3440   19.3350 C   0  0  0  0  0  0  0  0  0  0  0  0
    6.3610   -4.1370   20.3140 C   0  0  0  0  0  0  0  0  0  0  0  0
    5.3760   -4.7920   19.9690 O   0  0  0  0  0  0  0  0  0  0  0  0
    6.8200   -4.1910   21.6710 N   0  0  0  0  0  0  0  0  0  0  0  0
    6.6520   -5.4060   22.4310 C   0  0  0  0  0  0  0  0  0  0  0  0
    6.0980   -5.1040   23.7980 C   0  0  0  0  0  0  0  0  0  0  0  0
    6.1480   -3.5960   23.9780 C   0  0  0  0  0  0  0  0  0  0  0  0
    5.7730   -3.2100   25.3620 C   0  0  0  0  0  0  0  0  0  0  0  0
    4.6800   -3.5450   25.8590 O   0  0  0  0  0  0  0  0  0  0  0  0
    6.6640   -2.4230   26.1350 N   0  0  0  0  0  0  0  0  0  0  0  0
    6.0840   -1.6440   27.2030 C   0  0  2  0  0  0  0  0  0  0  0  0
    5.5910   -0.3440   26.6420 C   0  0  0  0  0  0  0  0  0  0  0  0
    5.7650    0.6970   27.5460 C   0  0  2  0  0  0  0  0  0  0  0  0
    6.2540    1.9010   27.0290 C   0  0  0  0  0  0  0  0  0  0  0  0
    6.5940    0.0990   28.5730 N   0  0  0  0  0  0  0  0  0  0  0  0
    6.2000    0.5220   29.8510 C   0  0  0  0  0  0  0  0  0  0  0  0
    5.9500    1.9430   30.0590 C   0  0  0  0  0  0  0  0  0  0  0  0
    6.7900    3.0050   29.7760 C   0  0  0  0  0  0  0  0  0  0  0  0
    6.5260    4.3380   29.9850 C   0  0  0  0  0  0  0  0  0  0  0  0
    5.3060    4.6790   30.5310 C   0  0  0  0  0  0  0  0  0  0  0  0
    4.3740    3.6050   30.8520 C   0  0  0  0  0  0  0  0  0  0  0  0
    4.7150    2.2760   30.6100 C   0  0  0  0  0  0  0  0  0  0  0  0
    6.9140   -1.2600   28.2520 C   0  0  0  0  0  0  0  0  0  0  0  0
    7.5240   -3.0750   23.6770 C   0  0  0  0  0  0  0  0  0  0  0  0
    7.7340   -3.1810   22.1650 C   0  0  0  0  0  0  0  0  0  0  0  0
  1  2  1  0
  2  3  2  0
  2  4  1  0
  4  5  1  0
  5  6  1  0
  6  7  1  0
  7  8  1  0
  8  9  2  0
  8 10  1  0
 11 10  1  6
 11 12  1  0
 12 13  1  0
 13 14  1  6
 13 15  1  0
 15 16  1  0
 16 17  1  0
 17 18  2  0
 18 19  1  0
 19 20  2  0
 20 21  1  0
 17 22  1  0
 21 22  2  0
 11 23  1  0
 15 23  1  0
  7 24  1  0
  4 25  1  0
 24 25  1  0
M  END
