piperidine-amides-13378-covalent
     RDKit          3D

 22 23  0  0  0  0  0  0  0  0999 V2000
    7.1930   -4.0010   19.6480 C   0  0  0  0  0  0  0  0  0  0  0  0
    6.0010   -3.9380   20.3820 C   0  0  0  0  0  0  0  0  0  0  0  0
    4.9920   -4.0950   19.6790 O   0  0  0  0  0  0  0  0  0  0  0  0
    6.0960   -3.8290   21.7530 N   0  0  0  0  0  0  0  0  0  0  0  0
    5.9910   -5.0410   22.5030 C   0  0  0  0  0  0  0  0  0  0  0  0
    5.6980   -4.7460   23.8930 C   0  0  0  0  0  0  0  0  0  0  0  0
    5.5120   -3.2960   24.0660 C   0  0  0  0  0  0  0  0  0  0  0  0
    4.9700   -2.9440   25.4020 C   0  0  0  0  0  0  0  0  0  0  0  0
    3.7960   -2.5550   25.4410 O   0  0  0  0  0  0  0  0  0  0  0  0
    5.6940   -3.0400   26.5910 N   0  0  0  0  0  0  0  0  0  0  0  0
    6.2640   -4.3140   27.0340 C   0  0  0  0  0  0  0  0  0  0  0  0
    7.6810   -4.2390   26.7250 C   0  0  0  0  0  0  0  0  0  0  0  0
    8.0900   -3.4320   25.6340 C   0  0  0  0  0  0  0  0  0  0  0  0
    9.3630   -3.2630   25.2620 C   0  0  0  0  0  0  0  0  0  0  0  0
   10.4020   -3.8660   25.9190 C   0  0  0  0  0  0  0  0  0  0  0  0
   11.6150   -3.5530   25.4070 C   0  0  0  0  0  0  0  0  0  0  0  0
    9.9700   -4.7520   27.0980 C   0  0  0  0  0  0  0  0  0  0  0  0
    8.6570   -4.8880   27.4310 C   0  0  0  0  0  0  0  0  0  0  0  0
    8.3270   -5.6700   28.4860 O   0  0  0  0  0  0  0  0  0  0  0  0
    7.0080   -6.1400   28.6420 C   0  0  0  0  0  0  0  0  0  0  0  0
    6.6400   -2.4390   23.6180 C   0  0  0  0  0  0  0  0  0  0  0  0
    7.1460   -2.9640   22.2960 C   0  0  0  0  0  0  0  0  0  0  0  0
  1  2  1  0
  2  3  2  0
  2  4  1  0
  4  5  1  0
  5  6  1  0
  6  7  1  0
  7  8  1  0
  8  9  2  0
  8 10  1  0
 10 11  1  0
 11 12  1  0
 12 13  2  0
 13 14  1  0
 14 15  2  0
 15 16  1  0
 15 17  1  0
 12 18  1  0
 17 18  2  0
 18 19  1  0
 19 20  1  0
  7 21  1  0
  4 22  1  0
 21 22  1  0
M  END
