piperidine-amides-10845-covalent
     RDKit          3D

 22 23  0  0  0  0  0  0  0  0999 V2000
    7.1090   -3.2670   19.1920 C   0  0  0  0  0  0  0  0  0  0  0  0
    6.3440   -4.0050   20.1990 C   0  0  0  0  0  0  0  0  0  0  0  0
    5.2760   -4.5470   19.8810 O   0  0  0  0  0  0  0  0  0  0  0  0
    6.8170   -4.1590   21.5080 N   0  0  0  0  0  0  0  0  0  0  0  0
    6.5560   -5.3460   22.2840 C   0  0  0  0  0  0  0  0  0  0  0  0
    5.8640   -4.8650   23.5360 C   0  0  0  0  0  0  0  0  0  0  0  0
    6.5970   -3.7220   24.1840 C   0  0  0  0  0  0  0  0  0  0  0  0
    5.8560   -3.1540   25.3370 C   0  0  0  0  0  0  0  0  0  0  0  0
    4.9140   -2.3300   25.1470 O   0  0  0  0  0  0  0  0  0  0  0  0
    6.1320   -3.5040   26.6760 N   0  0  0  0  0  0  0  0  0  0  0  0
    5.5870   -4.7890   27.1500 C   0  0  0  0  0  0  0  0  0  0  0  0
    5.7280   -4.9140   28.6150 C   0  0  2  0  0  0  0  0  0  0  0  0
    6.3670   -6.1620   29.0550 C   0  0  0  0  0  0  0  0  0  0  0  0
    5.6390   -6.8560   30.1770 C   0  0  0  0  0  0  0  0  0  0  0  0
    4.2420   -7.2690   29.7650 C   0  0  0  0  0  0  0  0  0  0  0  0
    3.6090   -6.0700   29.1550 C   0  0  0  0  0  0  0  0  0  0  0  0
    4.4770   -4.9410   29.1200 N   0  0  0  0  0  0  0  0  0  0  0  0
    3.8650   -3.7660   29.3890 C   0  0  0  0  0  0  0  0  0  0  0  0
    3.5720   -3.3760   30.7020 C   0  0  0  0  0  0  0  0  0  0  0  0
    2.2310   -2.7310   30.9720 C   0  0  0  0  0  0  0  0  0  0  0  0
    6.9350   -2.5860   23.2640 C   0  0  0  0  0  0  0  0  0  0  0  0
    7.6800   -3.1630   22.0970 C   0  0  0  0  0  0  0  0  0  0  0  0
  1  2  1  0
  2  3  2  0
  2  4  1  0
  4  5  1  0
  5  6  1  0
  6  7  1  0
  7  8  1  0
  8  9  2  0
  8 10  1  0
 10 11  1  0
 12 11  1  6
 12 13  1  0
 13 14  1  0
 14 15  1  0
 15 16  1  0
 12 17  1  0
 16 17  1  0
 17 18  1  0
 18 19  1  0
 19 20  1  0
  7 21  1  0
  4 22  1  0
 21 22  1  0
M  END
