piperidine-amides-33767-covalent
     RDKit          3D

 30 32  0  0  0  0  0  0  0  0999 V2000
    7.1250   -3.3280   19.2610 C   0  0  0  0  0  0  0  0  0  0  0  0
    6.4380   -4.1470   20.2720 C   0  0  0  0  0  0  0  0  0  0  0  0
    5.3570   -4.6890   19.9370 O   0  0  0  0  0  0  0  0  0  0  0  0
    7.0150   -4.3600   21.5450 N   0  0  0  0  0  0  0  0  0  0  0  0
    7.7130   -3.2530   22.0980 C   0  0  0  0  0  0  0  0  0  0  0  0
    7.1610   -2.8040   23.3520 C   0  0  0  0  0  0  0  0  0  0  0  0
    5.8990   -3.4610   23.7290 C   0  0  0  0  0  0  0  0  0  0  0  0
    5.3820   -2.8860   25.0030 C   0  0  0  0  0  0  0  0  0  0  0  0
    4.1590   -2.6860   25.1280 O   0  0  0  0  0  0  0  0  0  0  0  0
    6.2290   -2.5800   26.0740 N   0  0  0  0  0  0  0  0  0  0  0  0
    6.6490   -3.6590   26.8490 C   0  0  0  0  0  0  0  0  0  0  0  0
    5.9950   -4.2620   27.9560 C   0  0  0  0  0  0  0  0  0  0  0  0
    6.6390   -5.4930   28.6690 C   0  0  0  0  0  0  0  0  0  0  0  0
    7.8930   -6.0290   28.2180 C   0  0  0  0  0  0  0  0  0  0  0  0
    8.6800   -5.4300   27.0170 C   0  0  0  0  0  0  0  0  0  0  0  0
    7.8710   -4.3380   26.5690 C   0  0  0  0  0  0  0  0  0  0  0  0
    8.3120   -3.4800   25.3830 C   0  0  0  0  0  0  0  0  0  0  0  0
    8.7160   -2.1400   25.6160 N   0  0  0  0  0  0  0  0  0  0  0  0
    6.2440   -1.3140   26.7620 C   0  0  0  0  0  0  0  0  0  0  0  0
    5.6160   -0.0970   26.0970 C   0  0  0  0  0  0  0  0  0  0  0  0
    5.6050    1.2560   26.8140 C   0  0  0  0  0  0  0  0  0  0  0  0
    6.2390    1.2100   28.1330 C   0  0  0  0  0  0  0  0  0  0  0  0
    6.7930    0.0920   28.6910 C   0  0  0  0  0  0  0  0  0  0  0  0
    6.8000   -1.1210   28.0370 C   0  0  0  0  0  0  0  0  0  0  0  0
    7.4330   -2.1780   28.8110 C   0  0  0  0  0  0  0  0  0  0  0  0
    6.3970   -2.6890   29.6050 F   0  0  0  0  0  0  0  0  0  0  0  0
    8.3190   -1.5710   29.6730 F   0  0  0  0  0  0  0  0  0  0  0  0
    8.1240   -3.1810   28.2510 F   0  0  0  0  0  0  0  0  0  0  0  0
    6.0380   -4.9620   23.7270 C   0  0  0  0  0  0  0  0  0  0  0  0
    6.5200   -5.4270   22.3590 C   0  0  0  0  0  0  0  0  0  0  0  0
  1  2  1  0
  2  3  2  0
  2  4  1  0
  4  5  1  0
  5  6  1  0
  6  7  1  0
  7  8  1  0
  8  9  2  0
  8 10  1  0
 10 11  1  0
 11 12  2  0
 12 13  1  0
 13 14  2  0
 14 15  1  0
 11 16  1  0
 15 16  2  0
 16 17  1  0
 17 18  3  0
 10 19  1  0
 19 20  2  0
 20 21  1  0
 21 22  2  0
 22 23  1  0
 19 24  1  0
 23 24  2  0
 24 25  1  0
 25 26  1  0
 25 27  1  0
 25 28  1  0
  7 29  1  0
  4 30  1  0
 29 30  1  0
M  END
