piperidine-amides-33076-covalent
     RDKit          3D

 28 31  0  0  0  0  0  0  0  0999 V2000
    6.9480   -3.4130   19.4360 C   0  0  0  0  0  0  0  0  0  0  0  0
    6.3160   -4.3250   20.4170 C   0  0  0  0  0  0  0  0  0  0  0  0
    5.3600   -5.0110   19.9970 O   0  0  0  0  0  0  0  0  0  0  0  0
    6.7900   -4.4450   21.7540 N   0  0  0  0  0  0  0  0  0  0  0  0
    6.3620   -5.5280   22.5810 C   0  0  0  0  0  0  0  0  0  0  0  0
    5.9360   -5.1200   23.9330 C   0  0  0  0  0  0  0  0  0  0  0  0
    5.6470   -3.6710   24.0480 C   0  0  0  0  0  0  0  0  0  0  0  0
    4.8460   -3.2010   25.2850 C   0  0  0  0  0  0  0  0  0  0  0  0
    3.7270   -2.7430   25.0280 O   0  0  0  0  0  0  0  0  0  0  0  0
    5.1620   -3.2070   26.6960 N   0  0  0  0  0  0  0  0  0  0  0  0
    4.2970   -3.5450   27.7510 C   0  0  0  0  0  0  0  0  0  0  0  0
    4.8670   -3.9530   29.0280 C   0  0  0  0  0  0  0  0  0  0  0  0
    6.2450   -4.4980   28.6930 C   0  0  0  0  0  0  0  0  0  0  0  0
    6.8150   -5.6820   29.2950 N   0  0  0  0  0  0  0  0  0  0  0  0
    8.1450   -5.7300   28.5630 C   0  0  0  0  0  0  0  0  0  0  0  0
    8.3180   -4.7010   27.6850 N   0  0  0  0  0  0  0  0  0  0  0  0
    7.1650   -3.9450   27.7460 C   0  0  0  0  0  0  0  0  0  0  0  0
    6.3740   -2.7660   27.2600 C   0  0  1  0  0  0  0  0  0  0  0  0
    7.2730   -2.7270   26.1330 C   0  0  0  0  0  0  0  0  0  0  0  0
    7.3530   -1.6350   25.1180 C   0  0  0  0  0  0  0  0  0  0  0  0
    8.3610   -1.9100   24.0480 C   0  0  0  0  0  0  0  0  0  0  0  0
    9.1850   -3.1940   24.0650 C   0  0  0  0  0  0  0  0  0  0  0  0
   10.0580   -3.2550   23.0070 F   0  0  0  0  0  0  0  0  0  0  0  0
    8.9030   -4.1220   25.2440 C   0  0  0  0  0  0  0  0  0  0  0  0
    9.5860   -5.6690   25.7640 Cl  0  0  0  0  0  0  0  0  0  0  0  0
    7.9980   -3.8310   26.1470 C   0  0  0  0  0  0  0  0  0  0  0  0
    6.7440   -2.7870   23.5600 C   0  0  0  0  0  0  0  0  0  0  0  0
    7.4740   -3.3320   22.3400 C   0  0  0  0  0  0  0  0  0  0  0  0
  1  2  1  0
  2  3  2  0
  2  4  1  0
  4  5  1  0
  5  6  1  0
  6  7  1  0
  7  8  1  0
  8  9  2  0
  8 10  1  0
 10 11  1  0
 11 12  1  0
 12 13  1  0
 13 14  1  0
 14 15  2  0
 15 16  1  0
 13 17  2  0
 16 17  1  0
 10 18  1  0
 17 18  1  0
 18 19  1  6
 19 20  2  0
 20 21  1  0
 21 22  2  0
 22 23  1  0
 22 24  1  0
 24 25  1  0
 19 26  1  0
 24 26  2  0
  7 27  1  0
  4 28  1  0
 27 28  1  0
M  END
