piperidine-amides-8779-covalent
     RDKit          3D

 23 24  0  0  0  0  0  0  0  0999 V2000
    7.0050   -3.3160   19.3440 C   0  0  0  0  0  0  0  0  0  0  0  0
    6.3310   -4.1420   20.3500 C   0  0  0  0  0  0  0  0  0  0  0  0
    5.3570   -4.8160   19.9690 O   0  0  0  0  0  0  0  0  0  0  0  0
    6.7860   -4.2080   21.6970 N   0  0  0  0  0  0  0  0  0  0  0  0
    6.6800   -5.4640   22.3870 C   0  0  0  0  0  0  0  0  0  0  0  0
    6.0460   -5.2320   23.7210 C   0  0  0  0  0  0  0  0  0  0  0  0
    6.0110   -3.7380   23.8900 C   0  0  0  0  0  0  0  0  0  0  0  0
    5.5270   -3.3410   25.2660 C   0  0  0  0  0  0  0  0  0  0  0  0
    4.5630   -2.5840   25.2810 O   0  0  0  0  0  0  0  0  0  0  0  0
    6.1520   -3.8260   26.4230 N   0  0  0  0  0  0  0  0  0  0  0  0
    5.9000   -5.1280   26.9890 C   0  0  2  0  0  0  0  0  0  0  0  0
    4.5880   -5.5190   27.0780 C   0  0  0  0  0  0  0  0  0  0  0  0
    6.3190   -5.0770   28.4070 C   0  0  2  0  0  0  0  0  0  0  0  0
    7.0130   -6.1970   28.8080 O   0  0  0  0  0  0  0  0  0  0  0  0
    5.3540   -4.5520   29.2370 C   0  0  0  0  0  0  0  0  0  0  0  0
    5.4370   -3.0750   29.2820 C   0  0  0  0  0  0  0  0  0  0  0  0
    4.4730   -2.2120   30.1280 C   0  0  0  0  0  0  0  0  0  0  0  0
    3.4340   -2.9610   30.9160 C   0  0  0  0  0  0  0  0  0  0  0  0
    2.6110   -2.1160   31.6480 F   0  0  0  0  0  0  0  0  0  0  0  0
    3.3930   -4.4760   30.8380 C   0  0  0  0  0  0  0  0  0  0  0  0
    4.4050   -5.2480   29.9590 C   0  0  0  0  0  0  0  0  0  0  0  0
    7.4120   -3.2140   23.6630 C   0  0  0  0  0  0  0  0  0  0  0  0
    7.5780   -3.1340   22.2860 C   0  0  0  0  0  0  0  0  0  0  0  0
  1  2  1  0
  2  3  2  0
  2  4  1  0
  4  5  1  0
  5  6  1  0
  6  7  1  0
  7  8  1  0
  8  9  2  0
  8 10  1  0
 10 11  1  0
 11 12  1  1
 11 13  1  0
 13 14  1  1
 13 15  1  0
 15 16  2  0
 16 17  1  0
 17 18  2  0
 18 19  1  0
 18 20  1  0
 15 21  1  0
 20 21  2  0
  7 22  1  0
  4 23  1  0
 22 23  1  0
M  END
