piperidine-amides-23994-covalent
     RDKit          3D

 24 25  0  0  0  0  0  0  0  0999 V2000
    7.1120   -3.3100   19.2600 C   0  0  0  0  0  0  0  0  0  0  0  0
    6.3410   -4.0500   20.2690 C   0  0  0  0  0  0  0  0  0  0  0  0
    5.2610   -4.5590   19.8900 O   0  0  0  0  0  0  0  0  0  0  0  0
    6.8300   -4.2340   21.5870 N   0  0  0  0  0  0  0  0  0  0  0  0
    7.5300   -3.1660   22.2140 C   0  0  0  0  0  0  0  0  0  0  0  0
    7.2400   -2.9690   23.6360 C   0  0  0  0  0  0  0  0  0  0  0  0
    6.3850   -3.9870   24.2900 C   0  0  0  0  0  0  0  0  0  0  0  0
    5.5820   -3.3870   25.4190 C   0  0  0  0  0  0  0  0  0  0  0  0
    4.3580   -3.2350   25.2480 O   0  0  0  0  0  0  0  0  0  0  0  0
    6.1480   -2.9770   26.6560 N   0  0  0  0  0  0  0  0  0  0  0  0
    6.7180   -1.7200   26.9560 C   0  0  0  0  0  0  0  0  0  0  0  0
    6.2640   -3.9760   27.7190 C   0  0  0  0  0  0  0  0  0  0  0  0
    5.2130   -4.0960   28.8330 C   0  0  0  0  0  0  0  0  0  0  0  0
    5.1330   -5.2740   29.5380 C   0  0  0  0  0  0  0  0  0  0  0  0
    6.1920   -6.2240   28.9860 C   0  0  0  0  0  0  0  0  0  0  0  0
    4.1760   -5.5940   30.6650 C   0  0  0  0  0  0  0  0  0  0  0  0
    3.2910   -4.3910   30.9220 C   0  0  0  0  0  0  0  0  0  0  0  0
    2.2320   -4.4010   31.9980 C   0  0  0  0  0  0  0  0  0  0  0  0
    3.4570   -3.2100   30.1320 N   0  0  0  0  0  0  0  0  0  0  0  0
    4.3500   -3.0200   29.1310 C   0  0  0  0  0  0  0  0  0  0  0  0
    4.3910   -1.9290   28.5150 O   0  0  0  0  0  0  0  0  0  0  0  0
    3.3620   -1.6490   27.5910 C   0  0  0  0  0  0  0  0  0  0  0  0
    5.5080   -4.6970   23.3010 C   0  0  0  0  0  0  0  0  0  0  0  0
    6.3800   -5.3250   22.4090 C   0  0  0  0  0  0  0  0  0  0  0  0
  1  2  1  0
  2  3  2  0
  2  4  1  0
  4  5  1  0
  5  6  1  0
  6  7  1  0
  7  8  1  0
  8  9  2  0
  8 10  1  0
 10 11  1  0
 10 12  1  0
 12 13  1  0
 13 14  2  0
 14 15  1  0
 14 16  1  0
 16 17  2  0
 17 18  1  0
 17 19  1  0
 13 20  1  0
 19 20  2  0
 20 21  1  0
 21 22  1  0
  7 23  1  0
  4 24  1  0
 23 24  1  0
M  END
