piperidine-amides-29599-covalent
     RDKit          3D

 26 27  0  0  0  0  0  0  0  0999 V2000
    7.0460   -3.2740   19.2590 C   0  0  0  0  0  0  0  0  0  0  0  0
    6.2860   -4.0520   20.2410 C   0  0  0  0  0  0  0  0  0  0  0  0
    5.2660   -4.6400   19.9010 O   0  0  0  0  0  0  0  0  0  0  0  0
    6.7420   -4.1680   21.5980 N   0  0  0  0  0  0  0  0  0  0  0  0
    7.5870   -3.1540   22.1510 C   0  0  0  0  0  0  0  0  0  0  0  0
    7.3360   -3.0910   23.6230 C   0  0  0  0  0  0  0  0  0  0  0  0
    5.9710   -3.7130   23.8380 C   0  0  0  0  0  0  0  0  0  0  0  0
    5.4710   -3.4820   25.2280 C   0  0  0  0  0  0  0  0  0  0  0  0
    4.2670   -3.2490   25.4520 O   0  0  0  0  0  0  0  0  0  0  0  0
    6.3580   -3.5140   26.3350 N   0  0  0  0  0  0  0  0  0  0  0  0
    6.0110   -4.3890   27.4330 C   0  0  0  0  0  0  0  0  0  0  0  0
    7.1600   -5.3070   27.7680 C   0  0  0  0  0  0  0  0  0  0  0  0
    7.3710   -6.1170   26.6530 F   0  0  0  0  0  0  0  0  0  0  0  0
    6.8580   -6.1200   28.8280 F   0  0  0  0  0  0  0  0  0  0  0  0
    6.8210   -2.2590   26.7960 C   0  0  0  0  0  0  0  0  0  0  0  0
    8.1490   -2.2410   27.1450 C   0  0  1  0  0  0  0  0  0  0  0  0
    8.4890   -3.1260   28.1350 C   0  0  0  0  0  0  0  0  0  0  0  0
    8.9300   -2.5630   26.0230 N   0  0  0  0  0  0  0  0  0  0  0  0
    9.1030   -1.6150   25.0900 N   0  0  0  0  0  0  0  0  0  0  0  0
    9.9400   -2.1010   24.0660 C   0  0  0  0  0  0  0  0  0  0  0  0
   10.4390   -1.5560   22.9070 C   0  0  0  0  0  0  0  0  0  0  0  0
   10.1820   -3.3330   24.4950 C   0  0  0  0  0  0  0  0  0  0  0  0
    9.5830   -3.6870   25.6720 C   0  0  0  0  0  0  0  0  0  0  0  0
    9.7150   -5.0160   26.3020 C   0  0  0  0  0  0  0  0  0  0  0  0
    5.8630   -5.1850   23.4580 C   0  0  0  0  0  0  0  0  0  0  0  0
    6.6260   -5.4180   22.3020 C   0  0  0  0  0  0  0  0  0  0  0  0
  1  2  1  0
  2  3  2  0
  2  4  1  0
  4  5  1  0
  5  6  1  0
  6  7  1  0
  7  8  1  0
  8  9  2  0
  8 10  1  0
 10 11  1  0
 11 12  1  0
 12 13  1  0
 12 14  1  0
 10 15  1  0
 15 16  1  0
 16 17  1  1
 16 18  1  0
 18 19  1  0
 19 20  2  0
 20 21  1  0
 20 22  1  0
 18 23  1  0
 22 23  2  0
 23 24  1  0
  7 25  1  0
  4 26  1  0
 25 26  1  0
M  END
