piperidine-amides-11162-covalent
     RDKit          3D

 20 21  0  0  0  0  0  0  0  0999 V2000
    7.1020   -3.2970   19.2740 C   0  0  0  0  0  0  0  0  0  0  0  0
    6.3780   -4.0860   20.2750 C   0  0  0  0  0  0  0  0  0  0  0  0
    5.3320   -4.6610   19.9320 O   0  0  0  0  0  0  0  0  0  0  0  0
    6.8580   -4.2560   21.5870 N   0  0  0  0  0  0  0  0  0  0  0  0
    6.5380   -5.4070   22.3860 C   0  0  0  0  0  0  0  0  0  0  0  0
    5.8330   -4.8590   23.6020 C   0  0  0  0  0  0  0  0  0  0  0  0
    6.5810   -3.7360   24.2820 C   0  0  0  0  0  0  0  0  0  0  0  0
    5.7910   -3.1060   25.3750 C   0  0  0  0  0  0  0  0  0  0  0  0
    4.5210   -3.1490   25.3450 O   0  0  0  0  0  0  0  0  0  0  0  0
    6.3700   -2.4290   26.4820 N   0  0  0  0  0  0  0  0  0  0  0  0
    6.2100   -2.9700   27.8560 C   0  0  0  0  0  0  0  0  0  0  0  0
    6.8840   -4.2530   27.7930 C   0  0  0  0  0  0  0  0  0  0  0  0
    8.0310   -4.4180   26.9200 C   0  0  0  0  0  0  0  0  0  0  0  0
    8.4650   -5.7890   27.0710 C   0  0  0  0  0  0  0  0  0  0  0  0
    9.6190   -6.2340   26.2690 C   0  0  0  0  0  0  0  0  0  0  0  0
    7.5950   -6.3700   28.0030 N   0  0  0  0  0  0  0  0  0  0  0  0
    6.6930   -5.4940   28.4080 N   0  0  0  0  0  0  0  0  0  0  0  0
    5.8030   -5.9430   29.2860 C   0  0  0  0  0  0  0  0  0  0  0  0
    6.9720   -2.6800   23.2670 C   0  0  0  0  0  0  0  0  0  0  0  0
    7.6690   -3.2210   22.1860 C   0  0  0  0  0  0  0  0  0  0  0  0
  1  2  1  0
  2  3  2  0
  2  4  1  0
  4  5  1  0
  5  6  1  0
  6  7  1  0
  7  8  1  0
  8  9  2  0
  8 10  1  0
 10 11  1  0
 11 12  1  0
 12 13  2  0
 13 14  1  0
 14 15  1  0
 14 16  2  0
 12 17  1  0
 16 17  1  0
 17 18  1  0
  7 19  1  0
  4 20  1  0
 19 20  1  0
M  END
