piperidine-amides-28031-covalent
     RDKit          3D

 26 28  0  0  0  0  0  0  0  0999 V2000
    7.0940   -3.3800   19.3560 C   0  0  0  0  0  0  0  0  0  0  0  0
    6.3980   -4.2040   20.3630 C   0  0  0  0  0  0  0  0  0  0  0  0
    5.3560   -4.7690   19.9680 O   0  0  0  0  0  0  0  0  0  0  0  0
    6.9210   -4.3900   21.6590 N   0  0  0  0  0  0  0  0  0  0  0  0
    6.4530   -5.4530   22.4660 C   0  0  0  0  0  0  0  0  0  0  0  0
    5.8660   -4.9660   23.7160 C   0  0  0  0  0  0  0  0  0  0  0  0
    5.7090   -3.4890   23.8010 C   0  0  0  0  0  0  0  0  0  0  0  0
    5.2860   -3.0320   25.1590 C   0  0  0  0  0  0  0  0  0  0  0  0
    4.1090   -2.6600   25.2690 O   0  0  0  0  0  0  0  0  0  0  0  0
    6.1070   -3.0190   26.3050 N   0  0  0  0  0  0  0  0  0  0  0  0
    6.0900   -4.2410   27.1350 C   0  0  0  0  0  0  0  0  0  0  0  0
    7.2350   -5.0720   26.7570 C   0  0  0  0  0  0  0  0  0  0  0  0
    8.1070   -5.9780   27.5360 C   0  0  0  0  0  0  0  0  0  0  0  0
    9.1610   -6.5880   26.7820 N   0  0  0  0  0  0  0  0  0  0  0  0
    9.0770   -6.1970   25.5950 O   0  0  0  0  0  0  0  0  0  0  0  0
    8.0130   -5.3550   25.5360 C   0  0  0  0  0  0  0  0  0  0  0  0
    6.2350   -1.7420   27.0510 C   0  0  0  0  0  0  0  0  0  0  0  0
    6.8560   -1.7410   28.2820 C   0  0  0  0  0  0  0  0  0  0  0  0
    6.9850   -0.5840   29.0260 C   0  0  0  0  0  0  0  0  0  0  0  0
    6.5020    0.6260   28.5870 C   0  0  0  0  0  0  0  0  0  0  0  0
    6.5770    1.8460   29.2710 C   0  0  0  0  0  0  0  0  0  0  0  0
    5.8810    0.7030   27.3730 C   0  0  0  0  0  0  0  0  0  0  0  0
    5.3870    1.8390   26.8700 F   0  0  0  0  0  0  0  0  0  0  0  0
    5.7400   -0.5440   26.5590 C   0  0  0  0  0  0  0  0  0  0  0  0
    6.8860   -2.6750   23.2280 C   0  0  0  0  0  0  0  0  0  0  0  0
    7.7250   -3.4010   22.3490 C   0  0  0  0  0  0  0  0  0  0  0  0
  1  2  1  0
  2  3  2  0
  2  4  1  0
  4  5  1  0
  5  6  1  0
  6  7  1  0
  7  8  1  0
  8  9  2  0
  8 10  1  0
 10 11  1  0
 11 12  1  0
 12 13  1  0
 13 14  2  0
 14 15  1  0
 12 16  2  0
 15 16  1  0
 10 17  1  0
 17 18  2  0
 18 19  1  0
 19 20  2  0
 20 21  1  0
 20 22  1  0
 22 23  1  0
 17 24  1  0
 22 24  2  0
  7 25  1  0
  4 26  1  0
 25 26  1  0
M  END
