piperidine-amides-10536-covalent
     RDKit          3D

 23 25  0  0  0  0  0  0  0  0999 V2000
    7.0560   -3.3630   19.3600 C   0  0  0  0  0  0  0  0  0  0  0  0
    6.3740   -4.1750   20.3710 C   0  0  0  0  0  0  0  0  0  0  0  0
    5.3650   -4.8190   19.9780 O   0  0  0  0  0  0  0  0  0  0  0  0
    6.8720   -4.2520   21.6790 N   0  0  0  0  0  0  0  0  0  0  0  0
    7.7660   -3.2310   22.2040 C   0  0  0  0  0  0  0  0  0  0  0  0
    7.4290   -3.0430   23.6500 C   0  0  0  0  0  0  0  0  0  0  0  0
    6.0760   -3.6360   23.8980 C   0  0  0  0  0  0  0  0  0  0  0  0
    5.5710   -3.4010   25.2710 C   0  0  0  0  0  0  0  0  0  0  0  0
    4.3460   -3.5390   25.4240 O   0  0  0  0  0  0  0  0  0  0  0  0
    6.3500   -3.0410   26.3900 N   0  0  0  0  0  0  0  0  0  0  0  0
    5.8940   -2.0260   27.3190 C   0  0  0  0  0  0  0  0  0  0  0  0
    4.4830   -2.0640   27.9210 C   0  0  2  0  0  0  0  0  0  0  0  0
    4.4600   -2.5870   29.0660 O   0  0  0  0  0  0  0  0  0  0  0  0
    3.4990   -2.8100   27.3200 C   0  0  0  0  0  0  0  0  0  0  0  0
    2.5420   -2.3810   26.4030 C   0  0  0  0  0  0  0  0  0  0  0  0
    1.5570   -3.1820   25.8190 C   0  0  0  0  0  0  0  0  0  0  0  0
    1.5070   -4.5250   26.1680 C   0  0  0  0  0  0  0  0  0  0  0  0
    2.4160   -5.0270   27.0660 C   0  0  0  0  0  0  0  0  0  0  0  0
    3.4600   -4.1420   27.6740 C   0  0  0  0  0  0  0  0  0  0  0  0
    6.1440   -0.5750   26.9120 C   0  0  0  0  0  0  0  0  0  0  0  0
    6.8950   -0.9800   27.9270 C   0  0  0  0  0  0  0  0  0  0  0  0
    6.0690   -5.1180   23.6430 C   0  0  0  0  0  0  0  0  0  0  0  0
    6.7310   -5.4760   22.4820 C   0  0  0  0  0  0  0  0  0  0  0  0
  1  2  1  0
  2  3  2  0
  2  4  1  0
  4  5  1  0
  5  6  1  0
  6  7  1  0
  7  8  1  0
  8  9  2  0
  8 10  1  0
 11 10  1  0
 11 12  1  0
 12 13  1  1
 12 14  1  0
 14 15  2  0
 15 16  1  0
 16 17  2  0
 17 18  1  0
 14 19  1  0
 18 19  2  0
 11 20  1  0
 11 21  1  0
 20 21  1  0
  7 22  1  0
  4 23  1  0
 22 23  1  0
M  END
