piperidine-amides-32440-covalent
     RDKit          3D

 29 32  0  0  0  0  0  0  0  0999 V2000
    7.0500   -3.3540   19.3950 C   0  0  0  0  0  0  0  0  0  0  0  0
    6.3910   -4.2640   20.3740 C   0  0  0  0  0  0  0  0  0  0  0  0
    5.3870   -4.8940   19.9950 O   0  0  0  0  0  0  0  0  0  0  0  0
    6.9360   -4.4500   21.6730 N   0  0  0  0  0  0  0  0  0  0  0  0
    6.7430   -5.7120   22.3700 C   0  0  0  0  0  0  0  0  0  0  0  0
    6.4190   -5.4220   23.8470 C   0  0  0  0  0  0  0  0  0  0  0  0
    6.1620   -3.9710   23.9110 C   0  0  0  0  0  0  0  0  0  0  0  0
    5.5130   -3.4270   25.1290 C   0  0  0  0  0  0  0  0  0  0  0  0
    4.5270   -2.7320   24.8820 O   0  0  0  0  0  0  0  0  0  0  0  0
    5.8860   -3.6320   26.4660 N   0  0  0  0  0  0  0  0  0  0  0  0
    4.8290   -3.9310   27.4010 C   0  0  0  0  0  0  0  0  0  0  0  0
    4.9180   -4.3510   28.7140 C   0  0  0  0  0  0  0  0  0  0  0  0
    5.6340   -3.3160   29.3790 N   0  0  0  0  0  0  0  0  0  0  0  0
    5.1810   -2.0050   29.5570 C   0  0  0  0  0  0  0  0  0  0  0  0
    4.4710   -1.8620   30.7280 C   0  0  0  0  0  0  0  0  0  0  0  0
    3.5830   -2.9930   30.9240 N   0  0  0  0  0  0  0  0  0  0  0  0
    2.9960   -2.6130   32.1350 C   0  0  0  0  0  0  0  0  0  0  0  0
    3.5640   -1.3000   32.5710 C   0  0  0  0  0  0  0  0  0  0  0  0
    3.0820   -0.6520   33.8720 C   0  0  0  0  0  0  0  0  0  0  0  0
    2.3280   -1.3580   34.7190 C   0  0  0  0  0  0  0  0  0  0  0  0
    1.7810   -0.9160   35.9890 C   0  0  0  0  0  0  0  0  0  0  0  0
    2.2260    0.5390   36.2020 C   0  0  0  0  0  0  0  0  0  0  0  0
    2.9920    1.4920   35.5060 C   0  0  0  0  0  0  0  0  0  0  0  0
    3.3670    0.6300   34.2510 C   0  0  0  0  0  0  0  0  0  0  0  0
    4.5020   -0.8570   31.6530 O   0  0  0  0  0  0  0  0  0  0  0  0
    6.8650   -3.2410   28.7010 C   0  0  0  0  0  0  0  0  0  0  0  0
    6.3870   -2.6440   27.3790 C   0  0  0  0  0  0  0  0  0  0  0  0
    7.3780   -3.1450   23.6010 C   0  0  0  0  0  0  0  0  0  0  0  0
    7.6670   -3.3530   22.2640 C   0  0  0  0  0  0  0  0  0  0  0  0
  1  2  1  0
  2  3  2  0
  2  4  1  0
  4  5  1  0
  5  6  1  0
  6  7  1  0
  7  8  1  0
  8  9  2  0
  8 10  1  0
 10 11  1  0
 11 12  1  0
 12 13  1  0
 13 14  1  0
 14 15  1  0
 15 16  2  0
 16 17  1  0
 17 18  2  0
 18 19  1  0
 19 20  2  0
 20 21  1  0
 21 22  2  0
 22 23  1  0
 19 24  1  0
 23 24  2  0
 15 25  1  0
 18 25  1  0
 13 26  1  0
 10 27  1  0
 26 27  1  0
  7 28  1  0
  4 29  1  0
 28 29  1  0
M  END
