piperidine-amides-4476-covalent
     RDKit          3D

 25 27  0  0  0  0  0  0  0  0999 V2000
    7.0900   -3.3000   19.2200 C   0  0  0  0  0  0  0  0  0  0  0  0
    6.3810   -4.0740   20.2670 C   0  0  0  0  0  0  0  0  0  0  0  0
    5.3110   -4.6100   19.9140 O   0  0  0  0  0  0  0  0  0  0  0  0
    6.9250   -4.2330   21.5540 N   0  0  0  0  0  0  0  0  0  0  0  0
    6.6380   -5.3810   22.3410 C   0  0  0  0  0  0  0  0  0  0  0  0
    6.4300   -5.0430   23.7500 C   0  0  0  0  0  0  0  0  0  0  0  0
    5.9640   -3.6520   23.9720 C   0  0  0  0  0  0  0  0  0  0  0  0
    5.7680   -3.3230   25.4110 C   0  0  0  0  0  0  0  0  0  0  0  0
    4.8000   -2.5880   25.6890 O   0  0  0  0  0  0  0  0  0  0  0  0
    6.6080   -3.7820   26.4560 N   0  0  0  0  0  0  0  0  0  0  0  0
    6.8300   -5.2150   26.7940 C   0  0  0  0  0  0  0  0  0  0  0  0
    5.6560   -5.8650   27.4640 C   0  0  0  0  0  0  0  0  0  0  0  0
    4.5540   -6.3540   26.6150 C   0  0  0  0  0  0  0  0  0  0  0  0
    4.1110   -5.3970   25.6590 N   0  0  0  0  0  0  0  0  0  0  0  0
    3.1570   -5.9850   25.0040 N   0  0  0  0  0  0  0  0  0  0  0  0
    2.9670   -7.2530   25.4790 C   0  0  0  0  0  0  0  0  0  0  0  0
    2.0310   -8.1450   24.9910 C   0  0  0  0  0  0  0  0  0  0  0  0
    1.6340   -9.1950   25.7780 C   0  0  0  0  0  0  0  0  0  0  0  0
    0.6990  -10.1110   25.3320 C   0  0  0  0  0  0  0  0  0  0  0  0
    0.1210  -10.0200   24.0890 C   0  0  0  0  0  0  0  0  0  0  0  0
    0.5070   -8.9690   23.2750 C   0  0  0  0  0  0  0  0  0  0  0  0
    1.4960   -7.9980   23.7390 C   0  0  0  0  0  0  0  0  0  0  0  0
    3.8380   -7.4710   26.4890 N   0  0  0  0  0  0  0  0  0  0  0  0
    6.7960   -2.6030   23.3060 C   0  0  0  0  0  0  0  0  0  0  0  0
    7.6600   -3.1750   22.2180 C   0  0  0  0  0  0  0  0  0  0  0  0
  1  2  1  0
  2  3  2  0
  2  4  1  0
  4  5  1  0
  5  6  1  0
  6  7  1  0
  7  8  1  0
  8  9  2  0
  8 10  1  0
 10 11  1  0
 11 12  1  0
 12 13  1  0
 13 14  2  0
 14 15  1  0
 15 16  2  0
 16 17  1  0
 17 18  2  0
 18 19  1  0
 19 20  2  0
 20 21  1  0
 17 22  1  0
 21 22  2  0
 13 23  1  0
 16 23  1  0
  7 24  1  0
  4 25  1  0
 24 25  1  0
M  END
