piperidine-amides-1763-covalent
     RDKit          3D

 19 19  0  0  0  0  0  0  0  0999 V2000
    7.1260   -3.2760   19.2320 C   0  0  0  0  0  0  0  0  0  0  0  0
    6.3650   -4.0740   20.2340 C   0  0  0  0  0  0  0  0  0  0  0  0
    5.2900   -4.5930   19.8950 O   0  0  0  0  0  0  0  0  0  0  0  0
    6.8990   -4.2750   21.5300 N   0  0  0  0  0  0  0  0  0  0  0  0
    6.4810   -5.3980   22.3140 C   0  0  0  0  0  0  0  0  0  0  0  0
    5.6440   -4.8120   23.4580 C   0  0  0  0  0  0  0  0  0  0  0  0
    6.4620   -3.7590   24.1470 C   0  0  0  0  0  0  0  0  0  0  0  0
    5.7880   -3.2230   25.3520 C   0  0  0  0  0  0  0  0  0  0  0  0
    4.5920   -2.9440   25.2350 O   0  0  0  0  0  0  0  0  0  0  0  0
    6.5020   -3.0670   26.5450 N   0  0  0  0  0  0  0  0  0  0  0  0
    7.0910   -4.1130   27.2870 C   0  0  0  0  0  0  0  0  0  0  0  0
    6.4720   -4.6850   28.3660 C   0  0  0  0  0  0  0  0  0  0  0  0
    8.3330   -3.4740   27.9180 C   0  0  0  0  0  0  0  0  0  0  0  0
    7.3830   -5.3080   26.6100 C   0  0  0  0  0  0  0  0  0  0  0  0
    8.5780   -5.2390   25.7690 C   0  0  0  0  0  0  0  0  0  0  0  0
    9.8340   -5.7740   26.3880 C   0  0  0  0  0  0  0  0  0  0  0  0
    9.7320   -5.1920   27.7940 C   0  0  0  0  0  0  0  0  0  0  0  0
    6.7690   -2.6030   23.1880 C   0  0  0  0  0  0  0  0  0  0  0  0
    7.6190   -3.1730   22.1180 C   0  0  0  0  0  0  0  0  0  0  0  0
  1  2  1  0
  2  3  2  0
  2  4  1  0
  4  5  1  0
  5  6  1  0
  6  7  1  0
  7  8  1  0
  8  9  2  0
  8 10  1  0
 11 10  1  0
 11 12  1  0
 11 13  1  0
 11 14  1  0
 14 15  1  0
 15 16  1  0
 16 17  1  0
  7 18  1  0
  4 19  1  0
 18 19  1  0
M  END
