piperidine-amides-12390-covalent
     RDKit          3D

 24 25  0  0  0  0  0  0  0  0999 V2000
    7.0490   -3.3300   19.3750 C   0  0  0  0  0  0  0  0  0  0  0  0
    6.3560   -4.1670   20.3440 C   0  0  0  0  0  0  0  0  0  0  0  0
    5.3940   -4.8480   19.9860 O   0  0  0  0  0  0  0  0  0  0  0  0
    6.8230   -4.2360   21.7130 N   0  0  0  0  0  0  0  0  0  0  0  0
    7.6910   -3.1950   22.2210 C   0  0  0  0  0  0  0  0  0  0  0  0
    7.4550   -2.9810   23.6890 C   0  0  0  0  0  0  0  0  0  0  0  0
    6.1500   -3.6730   24.0100 C   0  0  0  0  0  0  0  0  0  0  0  0
    5.6670   -3.3160   25.3800 C   0  0  0  0  0  0  0  0  0  0  0  0
    4.4680   -3.4380   25.6930 O   0  0  0  0  0  0  0  0  0  0  0  0
    6.5690   -2.8160   26.3590 N   0  0  0  0  0  0  0  0  0  0  0  0
    6.3780   -1.4610   26.8400 C   0  0  0  0  0  0  0  0  0  0  0  0
    6.9600   -1.2780   28.2240 C   0  0  0  0  0  0  0  0  0  0  0  0
    6.9090   -0.0690   28.9120 C   0  0  0  0  0  0  0  0  0  0  0  0
    7.3620    0.1630   30.0380 O   0  0  0  0  0  0  0  0  0  0  0  0
    8.3300   -0.6650   30.5530 C   0  0  0  0  0  0  0  0  0  0  0  0
    6.2000    1.0370   28.1100 C   0  0  0  0  0  0  0  0  0  0  0  0
    6.0710    2.2920   28.6610 O   0  0  0  0  0  0  0  0  0  0  0  0
    5.9980    3.3650   27.8420 C   0  0  0  0  0  0  0  0  0  0  0  0
    5.7010    0.8060   26.8740 C   0  0  0  0  0  0  0  0  0  0  0  0
    5.7730   -0.4000   26.2300 C   0  0  0  0  0  0  0  0  0  0  0  0
    5.1970   -0.4060   24.9780 O   0  0  0  0  0  0  0  0  0  0  0  0
    3.8190   -0.1830   24.8480 C   0  0  0  0  0  0  0  0  0  0  0  0
    6.1330   -5.1070   23.7570 C   0  0  0  0  0  0  0  0  0  0  0  0
    6.6550   -5.4320   22.5070 C   0  0  0  0  0  0  0  0  0  0  0  0
  1  2  1  0
  2  3  2  0
  2  4  1  0
  4  5  1  0
  5  6  1  0
  6  7  1  0
  7  8  1  0
  8  9  2  0
  8 10  1  0
 10 11  1  0
 11 12  2  0
 12 13  1  0
 13 14  1  0
 14 15  1  0
 13 16  2  0
 16 17  1  0
 17 18  1  0
 16 19  1  0
 11 20  1  0
 19 20  2  0
 20 21  1  0
 21 22  1  0
  7 23  1  0
  4 24  1  0
 23 24  1  0
M  END
