piperidine-amides-29468-covalent
     RDKit          3D

 27 30  0  0  0  0  0  0  0  0999 V2000
    6.5700   -3.7680   19.6420 C   0  0  0  0  0  0  0  0  0  0  0  0
    6.0510   -5.0140   20.2310 C   0  0  0  0  0  0  0  0  0  0  0  0
    5.7740   -6.0460   19.6010 O   0  0  0  0  0  0  0  0  0  0  0  0
    5.7960   -5.1630   21.5500 N   0  0  0  0  0  0  0  0  0  0  0  0
    5.3470   -6.4600   21.6540 C   0  0  0  0  0  0  0  0  0  0  0  0
    4.2860   -6.4050   22.6330 C   0  0  0  0  0  0  0  0  0  0  0  0
    5.2100   -6.7100   23.7240 C   0  0  0  0  0  0  0  0  0  0  0  0
    4.6760   -6.1210   24.9290 C   0  0  0  0  0  0  0  0  0  0  0  0
    4.2170   -6.8520   25.8110 O   0  0  0  0  0  0  0  0  0  0  0  0
    4.7510   -4.7670   24.9030 N   0  0  0  0  0  0  0  0  0  0  0  0
    4.5990   -4.1010   26.0650 C   0  0  0  0  0  0  0  0  0  0  0  0
    5.7890   -3.5020   25.8450 C   0  0  0  0  0  0  0  0  0  0  0  0
    5.8400   -2.2590   25.4230 C   0  0  0  0  0  0  0  0  0  0  0  0
    4.7360   -1.8640   24.7260 O   0  0  0  0  0  0  0  0  0  0  0  0
    6.9790   -1.5440   25.7540 N   0  0  0  0  0  0  0  0  0  0  0  0
    6.6980   -0.7770   26.8710 C   0  0  0  0  0  0  0  0  0  0  0  0
    7.0660   -1.3150   28.2480 C   0  0  0  0  0  0  0  0  0  0  0  0
    6.7530   -0.4230   29.4680 C   0  0  0  0  0  0  0  0  0  0  0  0
    6.1190    0.8530   29.1400 C   0  0  0  0  0  0  0  0  0  0  0  0
    5.8220    1.6920   30.2880 N   0  0  0  0  0  0  0  0  0  0  0  0
    5.2720    2.7510   29.7820 N   0  0  0  0  0  0  0  0  0  0  0  0
    5.2360    2.5580   28.3470 C   0  0  0  0  0  0  0  0  0  0  0  0
    5.8430    1.1930   27.8580 C   0  0  0  0  0  0  0  0  0  0  0  0
    6.0840    0.4800   26.7340 C   0  0  0  0  0  0  0  0  0  0  0  0
    6.0230   -4.1640   24.4900 C   0  0  0  0  0  0  0  0  0  0  0  0
    6.6350   -6.1700   23.4700 C   0  0  0  0  0  0  0  0  0  0  0  0
    6.7300   -4.9530   22.5690 C   0  0  0  0  0  0  0  0  0  0  0  0
  1  2  1  0
  2  3  2  0
  2  4  1  0
  4  5  1  0
  5  6  1  0
  6  7  1  0
  7  8  1  0
  8  9  2  0
  8 10  1  0
 10 11  1  0
 11 12  1  0
 12 13  1  0
 13 14  2  0
 13 15  1  0
 15 16  1  0
 16 17  2  0
 17 18  1  0
 18 19  2  0
 19 20  1  0
 20 21  1  0
 21 22  2  0
 19 23  1  0
 22 23  1  0
 16 24  1  0
 23 24  2  0
 10 25  1  0
 12 25  1  0
  7 26  1  0
  4 27  1  0
 26 27  1  0
M  END
