piperidine-amides-5145-covalent
     RDKit          3D

 22 23  0  0  0  0  0  0  0  0999 V2000
    7.0590   -3.2890   19.1540 C   0  0  0  0  0  0  0  0  0  0  0  0
    6.2830   -4.0590   20.1540 C   0  0  0  0  0  0  0  0  0  0  0  0
    5.1630   -4.4640   19.8150 O   0  0  0  0  0  0  0  0  0  0  0  0
    6.8210   -4.3540   21.3970 N   0  0  0  0  0  0  0  0  0  0  0  0
    6.2990   -5.4460   22.1480 C   0  0  0  0  0  0  0  0  0  0  0  0
    5.4270   -5.0580   23.2690 C   0  0  0  0  0  0  0  0  0  0  0  0
    5.7360   -3.7520   23.8930 C   0  0  0  0  0  0  0  0  0  0  0  0
    4.5980   -3.2510   24.7160 C   0  0  0  0  0  0  0  0  0  0  0  0
    3.5900   -2.8190   24.1530 O   0  0  0  0  0  0  0  0  0  0  0  0
    4.6670   -3.2780   26.1090 N   0  0  0  0  0  0  0  0  0  0  0  0
    5.8630   -3.8830   26.6320 C   0  0  0  0  0  0  0  0  0  0  0  0
    5.6580   -5.3770   26.5620 C   0  0  0  0  0  0  0  0  0  0  0  0
    6.1020   -3.4320   28.0280 C   0  0  0  0  0  0  0  0  0  0  0  0
    6.7860   -3.2810   25.6650 C   0  0  0  0  0  0  0  0  0  0  0  0
    7.6380   -4.0290   24.8440 C   0  0  0  0  0  0  0  0  0  0  0  0
    8.4830   -3.4240   23.9680 C   0  0  0  0  0  0  0  0  0  0  0  0
    8.5140   -2.0750   23.8540 C   0  0  0  0  0  0  0  0  0  0  0  0
    7.6970   -1.3050   24.6170 C   0  0  0  0  0  0  0  0  0  0  0  0
    6.8360   -1.9100   25.5310 C   0  0  0  0  0  0  0  0  0  0  0  0
    5.7130   -0.7960   26.6010 Br  0  0  0  0  0  0  0  0  0  0  0  0
    6.2270   -2.7100   22.9620 C   0  0  0  0  0  0  0  0  0  0  0  0
    7.3770   -3.2820   22.1800 C   0  0  0  0  0  0  0  0  0  0  0  0
  1  2  1  0
  2  3  2  0
  2  4  1  0
  4  5  1  0
  5  6  1  0
  6  7  1  0
  7  8  1  0
  8  9  2  0
  8 10  1  0
 11 10  1  0
 11 12  1  0
 11 13  1  0
 11 14  1  0
 14 15  2  0
 15 16  1  0
 16 17  2  0
 17 18  1  0
 14 19  1  0
 18 19  2  0
 19 20  1  0
  7 21  1  0
  4 22  1  0
 21 22  1  0
M  END
