piperidine-amides-11376-covalent
     RDKit          3D

 24 26  0  0  0  0  0  0  0  0999 V2000
    7.1600   -3.2730   19.1680 C   0  0  0  0  0  0  0  0  0  0  0  0
    6.3390   -3.9630   20.1650 C   0  0  0  0  0  0  0  0  0  0  0  0
    5.2480   -4.4470   19.8350 O   0  0  0  0  0  0  0  0  0  0  0  0
    6.7890   -4.1390   21.4740 N   0  0  0  0  0  0  0  0  0  0  0  0
    6.5320   -5.3550   22.2100 C   0  0  0  0  0  0  0  0  0  0  0  0
    5.9420   -4.9120   23.5230 C   0  0  0  0  0  0  0  0  0  0  0  0
    6.7810   -3.8430   24.1640 C   0  0  0  0  0  0  0  0  0  0  0  0
    6.1620   -3.2740   25.3680 C   0  0  0  0  0  0  0  0  0  0  0  0
    4.9500   -2.8910   25.3580 O   0  0  0  0  0  0  0  0  0  0  0  0
    6.9020   -3.1310   26.5580 N   0  0  0  0  0  0  0  0  0  0  0  0
    6.9880   -4.2770   27.4820 C   0  0  0  0  0  0  0  0  0  0  0  0
    5.6180   -4.4410   28.0260 C   0  0  0  0  0  0  0  0  0  0  0  0
    4.8120   -3.2010   28.0790 C   0  0  0  0  0  0  0  0  0  0  0  0
    5.5400   -2.4230   28.7310 O   0  0  0  0  0  0  0  0  0  0  0  0
    5.6470   -4.8770   29.4450 C   0  0  0  0  0  0  0  0  0  0  0  0
    4.7480   -5.9150   29.1160 C   0  0  0  0  0  0  0  0  0  0  0  0
    5.2340   -7.1350   29.7110 C   0  0  0  0  0  0  0  0  0  0  0  0
    4.0830   -7.0580   30.4120 C   0  0  0  0  0  0  0  0  0  0  0  0
    3.2230   -8.1110   30.4190 F   0  0  0  0  0  0  0  0  0  0  0  0
    4.4420   -6.9470   31.7340 F   0  0  0  0  0  0  0  0  0  0  0  0
    3.5160   -5.8970   29.7760 C   0  0  0  0  0  0  0  0  0  0  0  0
    4.8280   -5.6690   27.7670 C   0  0  0  0  0  0  0  0  0  0  0  0
    7.0980   -2.6730   23.2870 C   0  0  0  0  0  0  0  0  0  0  0  0
    7.7320   -3.1980   22.0410 C   0  0  0  0  0  0  0  0  0  0  0  0
  1  2  1  0
  2  3  2  0
  2  4  1  0
  4  5  1  0
  5  6  1  0
  6  7  1  0
  7  8  1  0
  8  9  2  0
  8 10  1  0
 10 11  1  0
 12 11  1  0
 12 13  1  0
 13 14  1  0
 12 15  1  0
 16 15  1  0
 16 17  1  0
 17 18  1  0
 18 19  1  0
 18 20  1  0
 16 21  1  0
 18 21  1  0
 12 22  1  0
 16 22  1  0
  7 23  1  0
  4 24  1  0
 23 24  1  0
M  END
