piperidine-amides-34117-covalent
     RDKit          3D

 30 32  0  0  0  0  0  0  0  0999 V2000
    7.1110   -3.3030   19.2800 C   0  0  0  0  0  0  0  0  0  0  0  0
    6.3630   -4.1510   20.2130 C   0  0  0  0  0  0  0  0  0  0  0  0
    5.2490   -4.6040   19.8950 O   0  0  0  0  0  0  0  0  0  0  0  0
    6.9240   -4.5150   21.4350 N   0  0  0  0  0  0  0  0  0  0  0  0
    7.5490   -3.4990   22.2260 C   0  0  0  0  0  0  0  0  0  0  0  0
    6.4030   -2.9560   23.0760 C   0  0  0  0  0  0  0  0  0  0  0  0
    5.7330   -4.1550   23.7350 C   0  0  0  0  0  0  0  0  0  0  0  0
    5.8790   -4.0100   25.1840 C   0  0  0  0  0  0  0  0  0  0  0  0
    4.9140   -4.2690   25.9320 O   0  0  0  0  0  0  0  0  0  0  0  0
    7.1100   -3.5220   25.6400 N   0  0  0  0  0  0  0  0  0  0  0  0
    7.3660   -3.6040   27.0600 C   0  0  0  0  0  0  0  0  0  0  0  0
    7.7340   -5.0290   27.4550 C   0  0  0  0  0  0  0  0  0  0  0  0
    7.2350   -2.2230   25.0470 C   0  0  0  0  0  0  0  0  0  0  0  0
    8.3560   -1.7330   24.4230 C   0  0  0  0  0  0  0  0  0  0  0  0
    9.6460   -2.3360   24.2170 C   0  0  0  0  0  0  0  0  0  0  0  0
   10.3620   -1.3430   23.6400 C   0  0  0  0  0  0  0  0  0  0  0  0
    9.3390   -0.2860   23.5850 C   0  0  0  0  0  0  0  0  0  0  0  0
   10.2140    0.8260   23.0950 C   0  0  0  0  0  0  0  0  0  0  0  0
    9.3220    2.0360   22.8250 C   0  0  0  0  0  0  0  0  0  0  0  0
   10.2860    3.1260   22.4950 C   0  0  0  0  0  0  0  0  0  0  0  0
   11.6850    3.0900   22.4300 C   0  0  0  0  0  0  0  0  0  0  0  0
   12.2970    4.2750   22.1320 C   0  0  0  0  0  0  0  0  0  0  0  0
   13.5770    4.4930   22.5340 F   0  0  0  0  0  0  0  0  0  0  0  0
   11.4710    5.2320   22.6900 F   0  0  0  0  0  0  0  0  0  0  0  0
   12.2970    4.4560   20.7980 F   0  0  0  0  0  0  0  0  0  0  0  0
   12.3790    1.9420   22.6590 C   0  0  0  0  0  0  0  0  0  0  0  0
   11.5650    0.7680   23.0000 C   0  0  0  0  0  0  0  0  0  0  0  0
    8.1890   -0.4060   23.9440 O   0  0  0  0  0  0  0  0  0  0  0  0
    6.2340   -5.5230   23.3900 C   0  0  0  0  0  0  0  0  0  0  0  0
    6.4340   -5.7120   22.0480 C   0  0  0  0  0  0  0  0  0  0  0  0
  1  2  1  0
  2  3  2  0
  2  4  1  0
  4  5  1  0
  5  6  1  0
  6  7  1  0
  7  8  1  0
  8  9  2  0
  8 10  1  0
 10 11  1  0
 11 12  1  0
 10 13  1  0
 13 14  1  0
 14 15  2  0
 15 16  1  0
 16 17  2  0
 17 18  1  0
 18 19  2  0
 19 20  1  0
 20 21  2  0
 21 22  1  0
 22 23  1  0
 22 24  1  0
 22 25  1  0
 21 26  1  0
 18 27  1  0
 26 27  2  0
 14 28  1  0
 17 28  1  0
  7 29  1  0
  4 30  1  0
 29 30  1  0
M  END
