piperidine-amides-23840-covalent
     RDKit          3D

 24 26  0  0  0  0  0  0  0  0999 V2000
    7.0840   -3.3720   19.3960 C   0  0  0  0  0  0  0  0  0  0  0  0
    6.3830   -4.2030   20.3820 C   0  0  0  0  0  0  0  0  0  0  0  0
    5.3610   -4.8120   19.9780 O   0  0  0  0  0  0  0  0  0  0  0  0
    6.8820   -4.3510   21.7080 N   0  0  0  0  0  0  0  0  0  0  0  0
    6.4320   -5.4310   22.5010 C   0  0  0  0  0  0  0  0  0  0  0  0
    6.3540   -5.1490   23.9420 C   0  0  0  0  0  0  0  0  0  0  0  0
    6.5430   -3.7420   24.4140 C   0  0  0  0  0  0  0  0  0  0  0  0
    5.4400   -3.3370   25.3780 C   0  0  0  0  0  0  0  0  0  0  0  0
    4.3580   -2.9830   24.8870 O   0  0  0  0  0  0  0  0  0  0  0  0
    5.5370   -3.3320   26.8020 N   0  0  0  0  0  0  0  0  0  0  0  0
    4.8910   -2.4730   27.6930 C   0  0  0  0  0  0  0  0  0  0  0  0
    4.5890   -3.0230   28.9990 C   0  0  0  0  0  0  0  0  0  0  0  0
    4.8970   -4.2740   29.3410 N   0  0  0  0  0  0  0  0  0  0  0  0
    4.2570   -4.8920   30.6390 N   0  0  0  0  0  0  0  0  0  0  0  0
    4.9410   -5.8700   30.3120 C   0  0  0  0  0  0  0  0  0  0  0  0
    5.2600   -7.1380   30.6900 C   0  0  0  0  0  0  0  0  0  0  0  0
    3.8150   -7.6280   30.5680 C   0  0  0  0  0  0  0  0  0  0  0  0
    6.1570   -7.8880   29.7270 C   0  0  0  0  0  0  0  0  0  0  0  0
    5.3760   -7.5880   32.1010 C   0  0  0  0  0  0  0  0  0  0  0  0
    5.0180   -4.8180   29.5160 C   0  0  0  0  0  0  0  0  0  0  0  0
    5.8130   -5.2040   28.6080 C   0  0  0  0  0  0  0  0  0  0  0  0
    6.2610   -4.3880   27.4120 C   0  0  0  0  0  0  0  0  0  0  0  0
    6.6800   -2.7840   23.2650 C   0  0  0  0  0  0  0  0  0  0  0  0
    7.6210   -3.3130   22.3820 C   0  0  0  0  0  0  0  0  0  0  0  0
  1  2  1  0
  2  3  2  0
  2  4  1  0
  4  5  1  0
  5  6  1  0
  6  7  1  0
  7  8  1  0
  8  9  2  0
  8 10  1  0
 10 11  1  0
 11 12  1  0
 12 13  1  0
 13 14  1  0
 14 15  2  0
 15 16  1  0
 16 17  1  0
 16 18  1  0
 16 19  1  0
 15 20  1  0
 13 21  1  0
 20 21  2  0
 10 22  1  0
 21 22  1  0
  7 23  1  0
  4 24  1  0
 23 24  1  0
M  END
