piperidine-amides-6469-covalent
     RDKit          3D

 25 27  0  0  0  0  0  0  0  0999 V2000
    7.0770   -3.2810   19.2290 C   0  0  0  0  0  0  0  0  0  0  0  0
    6.3600   -4.0600   20.2550 C   0  0  0  0  0  0  0  0  0  0  0  0
    5.3350   -4.7040   19.9420 O   0  0  0  0  0  0  0  0  0  0  0  0
    6.8250   -4.1330   21.5790 N   0  0  0  0  0  0  0  0  0  0  0  0
    7.6730   -3.0600   22.0860 C   0  0  0  0  0  0  0  0  0  0  0  0
    7.5690   -3.0530   23.6150 C   0  0  0  0  0  0  0  0  0  0  0  0
    6.2030   -3.5980   23.9470 C   0  0  0  0  0  0  0  0  0  0  0  0
    5.8090   -3.3270   25.3460 C   0  0  0  0  0  0  0  0  0  0  0  0
    4.8290   -3.9540   25.7960 O   0  0  0  0  0  0  0  0  0  0  0  0
    6.4880   -2.3710   26.1430 N   0  0  0  0  0  0  0  0  0  0  0  0
    5.6740   -1.3200   26.6870 C   0  0  2  0  0  0  0  0  0  0  0  0
    5.9300   -0.0360   25.9270 C   0  0  0  0  0  0  0  0  0  0  0  0
    6.1170    0.1090   24.5510 C   0  0  0  0  0  0  0  0  0  0  0  0
    6.3460    1.3330   23.9310 C   0  0  0  0  0  0  0  0  0  0  0  0
    6.4070    2.5180   24.6460 C   0  0  0  0  0  0  0  0  0  0  0  0
    6.2410    2.5050   25.9820 C   0  0  0  0  0  0  0  0  0  0  0  0
    5.9890    1.2480   26.7490 C   0  0  0  0  0  0  0  0  0  0  0  0
    5.9030   -1.0970   28.1490 C   0  0  0  0  0  0  0  0  0  0  0  0
    7.3180   -1.0750   28.7030 C   0  0  0  0  0  0  0  0  0  0  0  0
    7.0280   -0.8150   30.1610 C   0  0  0  0  0  0  0  0  0  0  0  0
    5.7810   -0.6450   30.8020 C   0  0  0  0  0  0  0  0  0  0  0  0
    4.6300   -0.6990   30.1520 C   0  0  0  0  0  0  0  0  0  0  0  0
    4.6300   -0.9160   28.8580 N   0  0  0  0  0  0  0  0  0  0  0  0
    6.1470   -5.0910   23.6990 C   0  0  0  0  0  0  0  0  0  0  0  0
    6.6550   -5.3670   22.3030 C   0  0  0  0  0  0  0  0  0  0  0  0
  1  2  1  0
  2  3  2  0
  2  4  1  0
  4  5  1  0
  5  6  1  0
  6  7  1  0
  7  8  1  0
  8  9  2  0
  8 10  1  0
 11 10  1  6
 11 12  1  0
 12 13  2  0
 13 14  1  0
 14 15  2  0
 15 16  1  0
 12 17  1  0
 16 17  2  0
 11 18  1  0
 18 19  2  0
 19 20  1  0
 20 21  2  0
 21 22  1  0
 18 23  1  0
 22 23  2  0
  7 24  1  0
  4 25  1  0
 24 25  1  0
M  END
