piperidine-amides-15269-covalent
     RDKit          3D

 19 20  0  0  0  0  0  0  0  0999 V2000
    7.0910   -3.3150   19.3180 C   0  0  0  0  0  0  0  0  0  0  0  0
    6.3240   -4.0770   20.3120 C   0  0  0  0  0  0  0  0  0  0  0  0
    5.3310   -4.7480   19.9520 O   0  0  0  0  0  0  0  0  0  0  0  0
    6.7130   -4.0970   21.6600 N   0  0  0  0  0  0  0  0  0  0  0  0
    7.6690   -3.1040   22.1410 C   0  0  0  0  0  0  0  0  0  0  0  0
    7.4400   -2.9280   23.6440 C   0  0  0  0  0  0  0  0  0  0  0  0
    6.0890   -3.5370   23.9000 C   0  0  0  0  0  0  0  0  0  0  0  0
    5.6160   -3.2880   25.2780 C   0  0  0  0  0  0  0  0  0  0  0  0
    4.3830   -3.3180   25.4800 O   0  0  0  0  0  0  0  0  0  0  0  0
    6.5200   -3.0300   26.3320 N   0  0  0  0  0  0  0  0  0  0  0  0
    6.2500   -3.5680   27.6390 C   0  0  0  0  0  0  0  0  0  0  0  0
    6.1600   -2.4220   28.6280 C   0  0  0  0  0  0  0  0  0  0  0  0
    4.9940   -2.0700   29.2560 C   0  0  0  0  0  0  0  0  0  0  0  0
    5.0980   -0.9840   30.1450 N   0  0  0  0  0  0  0  0  0  0  0  0
    6.3520   -0.3880   30.2900 C   0  0  0  0  0  0  0  0  0  0  0  0
    6.8540    0.9570   31.2910 Cl  0  0  0  0  0  0  0  0  0  0  0  0
    7.3480   -1.3520   29.1900 S   0  0  0  0  0  0  0  0  0  0  0  0
    6.0570   -5.0090   23.6210 C   0  0  0  0  0  0  0  0  0  0  0  0
    6.6340   -5.3350   22.4110 C   0  0  0  0  0  0  0  0  0  0  0  0
  1  2  1  0
  2  3  2  0
  2  4  1  0
  4  5  1  0
  5  6  1  0
  6  7  1  0
  7  8  1  0
  8  9  2  0
  8 10  1  0
 10 11  1  0
 11 12  1  0
 12 13  2  0
 13 14  1  0
 14 15  2  0
 15 16  1  0
 12 17  1  0
 15 17  1  0
  7 18  1  0
  4 19  1  0
 18 19  1  0
M  END
