piperidine-amides-27981-covalent
     RDKit          3D

 26 28  0  0  0  0  0  0  0  0999 V2000
    7.0000   -3.3700   19.3730 C   0  0  0  0  0  0  0  0  0  0  0  0
    6.3870   -4.2340   20.4080 C   0  0  0  0  0  0  0  0  0  0  0  0
    5.4260   -4.9290   20.0090 O   0  0  0  0  0  0  0  0  0  0  0  0
    6.8830   -4.2990   21.7350 N   0  0  0  0  0  0  0  0  0  0  0  0
    6.5810   -5.4160   22.5730 C   0  0  0  0  0  0  0  0  0  0  0  0
    5.9490   -5.0300   23.8470 C   0  0  0  0  0  0  0  0  0  0  0  0
    5.8720   -3.5650   24.0330 C   0  0  0  0  0  0  0  0  0  0  0  0
    4.9940   -3.1810   25.2140 C   0  0  0  0  0  0  0  0  0  0  0  0
    3.7770   -3.2410   25.0150 O   0  0  0  0  0  0  0  0  0  0  0  0
    5.4250   -2.7790   26.5040 N   0  0  0  0  0  0  0  0  0  0  0  0
    4.5250   -2.6840   27.6470 C   0  0  0  0  0  0  0  0  0  0  0  0
    4.7720   -3.7390   28.7080 C   0  0  0  0  0  0  0  0  0  0  0  0
    5.9270   -4.6590   28.8060 C   0  0  0  0  0  0  0  0  0  0  0  0
    5.6590   -5.9000   29.3570 C   0  0  0  0  0  0  0  0  0  0  0  0
    4.3570   -6.3010   29.6730 C   0  0  0  0  0  0  0  0  0  0  0  0
    3.9800   -7.5560   29.2650 C   0  0  0  0  0  0  0  0  0  0  0  0
    2.7230   -8.0410   29.5270 C   0  0  0  0  0  0  0  0  0  0  0  0
    1.7960   -7.3170   30.1980 C   0  0  0  0  0  0  0  0  0  0  0  0
    2.0960   -6.0490   30.6410 C   0  0  0  0  0  0  0  0  0  0  0  0
    3.4390   -5.5120   30.3670 C   0  0  0  0  0  0  0  0  0  0  0  0
    3.7230   -4.2340   30.8180 O   0  0  0  0  0  0  0  0  0  0  0  0
    2.6740   -3.3630   31.1200 C   0  0  0  0  0  0  0  0  0  0  0  0
    6.0280   -4.6750   27.4330 C   0  0  0  0  0  0  0  0  0  0  0  0
    6.5180   -3.4370   26.9250 C   0  0  0  0  0  0  0  0  0  0  0  0
    7.1510   -2.9130   23.7430 C   0  0  0  0  0  0  0  0  0  0  0  0
    7.6620   -3.2110   22.3580 C   0  0  0  0  0  0  0  0  0  0  0  0
  1  2  1  0
  2  3  2  0
  2  4  1  0
  4  5  1  0
  5  6  1  0
  6  7  1  0
  7  8  1  0
  8  9  2  0
  8 10  1  0
 10 11  1  0
 11 12  1  0
 12 13  1  0
 13 14  1  0
 14 15  1  0
 15 16  2  0
 16 17  1  0
 17 18  2  0
 18 19  1  0
 15 20  1  0
 19 20  2  0
 20 21  1  0
 21 22  1  0
 13 23  1  0
 10 24  1  0
 23 24  1  0
  7 25  1  0
  4 26  1  0
 25 26  1  0
M  END
