piperidine-amides-2609-covalent
     RDKit          3D

 25 26  0  0  0  0  0  0  0  0999 V2000
    7.1010   -3.3290   19.3110 C   0  0  0  0  0  0  0  0  0  0  0  0
    6.3900   -4.2000   20.2910 C   0  0  0  0  0  0  0  0  0  0  0  0
    5.3310   -4.6990   19.9310 O   0  0  0  0  0  0  0  0  0  0  0  0
    6.9450   -4.4680   21.5430 N   0  0  0  0  0  0  0  0  0  0  0  0
    6.3990   -5.5260   22.3580 C   0  0  0  0  0  0  0  0  0  0  0  0
    5.6850   -4.9290   23.5480 C   0  0  0  0  0  0  0  0  0  0  0  0
    6.5830   -3.8440   24.1340 C   0  0  0  0  0  0  0  0  0  0  0  0
    6.0020   -3.1640   25.2770 C   0  0  0  0  0  0  0  0  0  0  0  0
    4.8840   -3.4360   25.7450 O   0  0  0  0  0  0  0  0  0  0  0  0
    6.8320   -2.1560   25.7650 N   0  0  0  0  0  0  0  0  0  0  0  0
    6.5330   -1.3830   26.9140 C   0  0  0  0  0  0  0  0  0  0  0  0
    6.2760    0.0810   26.6650 C   0  0  0  0  0  0  0  0  0  0  0  0
    5.9950    1.0150   27.5900 C   0  0  0  0  0  0  0  0  0  0  0  0
    5.9750    0.4550   28.8010 C   0  0  0  0  0  0  0  0  0  0  0  0
    5.7700    0.8010   30.1150 C   0  0  0  0  0  0  0  0  0  0  0  0
    4.6980    0.0400   30.5750 F   0  0  0  0  0  0  0  0  0  0  0  0
    6.8960    0.5380   30.8770 F   0  0  0  0  0  0  0  0  0  0  0  0
    5.4900    2.1400   30.1970 F   0  0  0  0  0  0  0  0  0  0  0  0
    6.1770   -0.8870   29.3000 C   0  0  0  0  0  0  0  0  0  0  0  0
    6.4830   -1.9760   28.2940 C   0  0  0  0  0  0  0  0  0  0  0  0
    6.7090   -3.5890   28.7700 S   0  0  0  0  0  0  0  0  0  0  0  0
    8.2810   -4.1680   28.1110 C   0  0  0  0  0  0  0  0  0  0  0  0
    8.1920   -5.6480   27.9800 C   0  0  0  0  0  0  0  0  0  0  0  0
    6.9460   -2.7940   23.1400 C   0  0  0  0  0  0  0  0  0  0  0  0
    7.8190   -3.4910   22.1560 C   0  0  0  0  0  0  0  0  0  0  0  0
  1  2  1  0
  2  3  2  0
  2  4  1  0
  4  5  1  0
  5  6  1  0
  6  7  1  0
  7  8  1  0
  8  9  2  0
  8 10  1  0
 10 11  1  0
 11 12  2  0
 12 13  1  0
 13 14  2  0
 14 15  1  0
 15 16  1  0
 15 17  1  0
 15 18  1  0
 14 19  1  0
 11 20  1  0
 19 20  2  0
 20 21  1  0
 21 22  1  0
 22 23  1  0
  7 24  1  0
  4 25  1  0
 24 25  1  0
M  END
