piperidine-amides-2774-covalent
     RDKit          3D

 24 25  0  0  0  0  0  0  0  0999 V2000
    7.0820   -3.3350   19.3250 C   0  0  0  0  0  0  0  0  0  0  0  0
    6.3800   -4.1660   20.2960 C   0  0  0  0  0  0  0  0  0  0  0  0
    5.3660   -4.7850   19.9670 O   0  0  0  0  0  0  0  0  0  0  0  0
    6.9090   -4.3020   21.6210 N   0  0  0  0  0  0  0  0  0  0  0  0
    7.7140   -3.2450   22.1800 C   0  0  0  0  0  0  0  0  0  0  0  0
    7.0430   -2.6730   23.3880 C   0  0  0  0  0  0  0  0  0  0  0  0
    6.5300   -3.8320   24.2200 C   0  0  0  0  0  0  0  0  0  0  0  0
    5.7640   -3.3040   25.3810 C   0  0  0  0  0  0  0  0  0  0  0  0
    4.5370   -3.0960   25.3260 O   0  0  0  0  0  0  0  0  0  0  0  0
    6.4500   -3.0440   26.5890 N   0  0  0  0  0  0  0  0  0  0  0  0
    6.3920   -1.7140   27.1630 C   0  0  0  0  0  0  0  0  0  0  0  0
    7.0230   -1.6360   28.5080 C   0  0  0  0  0  0  0  0  0  0  0  0
    7.0410   -0.4480   29.1820 C   0  0  0  0  0  0  0  0  0  0  0  0
    6.4590    0.6850   28.5870 C   0  0  0  0  0  0  0  0  0  0  0  0
    5.8600    0.6510   27.3280 C   0  0  0  0  0  0  0  0  0  0  0  0
    5.2800    1.8740   26.7860 C   0  0  0  0  0  0  0  0  0  0  0  0
    3.9280    1.9070   26.5250 C   0  0  0  0  0  0  0  0  0  0  0  0
    3.0990    2.8300   27.1330 C   0  0  0  0  0  0  0  0  0  0  0  0
    3.3700    4.1100   26.6770 O   0  0  0  0  0  0  0  0  0  0  0  0
    2.2130    2.5670   27.9810 O   0  0  0  0  0  0  0  0  0  0  0  0
    1.0330    3.1740   27.6290 C   0  0  0  0  0  0  0  0  0  0  0  0
    5.8290   -0.5510   26.6160 C   0  0  0  0  0  0  0  0  0  0  0  0
    5.6950   -4.8290   23.4320 C   0  0  0  0  0  0  0  0  0  0  0  0
    6.5190   -5.3950   22.4650 C   0  0  0  0  0  0  0  0  0  0  0  0
  1  2  1  0
  2  3  2  0
  2  4  1  0
  4  5  1  0
  5  6  1  0
  6  7  1  0
  7  8  1  0
  8  9  2  0
  8 10  1  0
 10 11  1  0
 11 12  2  0
 12 13  1  0
 13 14  2  0
 14 15  1  0
 15 16  1  0
 16 17  1  0
 17 18  1  0
 18 19  2  0
 18 20  1  0
 20 21  1  0
 11 22  1  0
 15 22  2  0
  7 23  1  0
  4 24  1  0
 23 24  1  0
M  END
