piperidine-amides-8789-covalent
     RDKit          3D

 22 23  0  0  0  0  0  0  0  0999 V2000
    7.1840   -3.2950   19.2060 C   0  0  0  0  0  0  0  0  0  0  0  0
    6.4060   -4.0300   20.1890 C   0  0  0  0  0  0  0  0  0  0  0  0
    5.2900   -4.4730   19.8640 O   0  0  0  0  0  0  0  0  0  0  0  0
    6.9830   -4.2700   21.4550 N   0  0  0  0  0  0  0  0  0  0  0  0
    6.5240   -5.3890   22.2030 C   0  0  0  0  0  0  0  0  0  0  0  0
    5.6350   -4.8520   23.2720 C   0  0  0  0  0  0  0  0  0  0  0  0
    6.4910   -4.0060   24.1870 C   0  0  0  0  0  0  0  0  0  0  0  0
    5.6090   -3.4730   25.2480 C   0  0  0  0  0  0  0  0  0  0  0  0
    4.4180   -3.3900   24.9650 O   0  0  0  0  0  0  0  0  0  0  0  0
    6.1450   -3.1080   26.4590 N   0  0  0  0  0  0  0  0  0  0  0  0
    5.2410   -2.8270   27.5050 C   0  0  0  0  0  0  0  0  0  0  0  0
    5.5680   -1.7180   28.2810 C   0  0  0  0  0  0  0  0  0  0  0  0
    6.6640   -1.8180   29.0690 C   0  0  0  0  0  0  0  0  0  0  0  0
    7.2680   -3.0100   28.9660 F   0  0  0  0  0  0  0  0  0  0  0  0
    7.2040   -0.8480   29.9410 C   0  0  0  0  0  0  0  0  0  0  0  0
    6.4490    0.4610   29.9920 C   0  0  0  0  0  0  0  0  0  0  0  0
    7.0790    1.8600   31.1450 Br  0  0  0  0  0  0  0  0  0  0  0  0
    5.2070    0.5710   29.0980 C   0  0  0  0  0  0  0  0  0  0  0  0
    4.8370   -0.5710   28.2720 C   0  0  0  0  0  0  0  0  0  0  0  0
    3.7380   -0.4980   27.4680 F   0  0  0  0  0  0  0  0  0  0  0  0
    7.2090   -2.8960   23.5010 C   0  0  0  0  0  0  0  0  0  0  0  0
    7.6850   -3.1780   22.0690 C   0  0  0  0  0  0  0  0  0  0  0  0
  1  2  1  0
  2  3  2  0
  2  4  1  0
  4  5  1  0
  5  6  1  0
  6  7  1  0
  7  8  1  0
  8  9  2  0
  8 10  1  0
 10 11  1  0
 11 12  1  0
 12 13  2  0
 13 14  1  0
 13 15  1  0
 15 16  2  0
 16 17  1  0
 16 18  1  0
 12 19  1  0
 18 19  2  0
 19 20  1  0
  7 21  1  0
  4 22  1  0
 21 22  1  0
M  END
