piperidine-amides-14446-covalent
     RDKit          3D

 23 24  0  0  0  0  0  0  0  0999 V2000
    7.1370   -3.2610   19.1770 C   0  0  0  0  0  0  0  0  0  0  0  0
    6.3940   -4.0220   20.1820 C   0  0  0  0  0  0  0  0  0  0  0  0
    5.2940   -4.5070   19.8670 O   0  0  0  0  0  0  0  0  0  0  0  0
    6.9640   -4.2400   21.4520 N   0  0  0  0  0  0  0  0  0  0  0  0
    7.6480   -3.1450   22.0800 C   0  0  0  0  0  0  0  0  0  0  0  0
    7.3710   -3.1580   23.5490 C   0  0  0  0  0  0  0  0  0  0  0  0
    5.9400   -3.6150   23.7320 C   0  0  0  0  0  0  0  0  0  0  0  0
    5.5490   -3.4180   25.1420 C   0  0  0  0  0  0  0  0  0  0  0  0
    4.5230   -2.7820   25.3770 O   0  0  0  0  0  0  0  0  0  0  0  0
    6.4010   -3.9860   26.0560 N   0  0  0  0  0  0  0  0  0  0  0  0
    6.1280   -5.2160   26.6900 C   0  0  0  0  0  0  0  0  0  0  0  0
    5.8910   -5.1400   28.0690 C   0  0  2  0  0  0  0  0  0  0  0  0
    5.1830   -4.0650   28.5500 C   0  0  0  0  0  0  0  0  0  0  0  0
    6.8470   -5.2280   28.8340 O   0  0  0  0  0  0  0  0  0  0  0  0
    7.5990   -6.2380   28.4430 C   0  0  0  0  0  0  0  0  0  0  0  0
    5.0320   -6.3850   28.3580 C   0  0  0  0  0  0  0  0  0  0  0  0
    5.2180   -6.9440   29.7900 C   0  0  0  0  0  0  0  0  0  0  0  0
    3.9600   -7.4710   30.3620 C   0  0  0  0  0  0  0  0  0  0  0  0
    3.1010   -6.2400   30.3800 C   0  0  0  0  0  0  0  0  0  0  0  0
    2.8010   -5.9020   28.8990 C   0  0  0  0  0  0  0  0  0  0  0  0
    3.5810   -6.4560   27.9050 C   0  0  0  0  0  0  0  0  0  0  0  0
    5.9040   -5.0840   23.4460 C   0  0  0  0  0  0  0  0  0  0  0  0
    6.5520   -5.4300   22.1450 C   0  0  0  0  0  0  0  0  0  0  0  0
  1  2  1  0
  2  3  2  0
  2  4  1  0
  4  5  1  0
  5  6  1  0
  6  7  1  0
  7  8  1  0
  8  9  2  0
  8 10  1  0
 10 11  1  0
 11 12  1  0
 12 13  1  6
 12 14  1  0
 14 15  1  0
 12 16  1  0
 16 17  1  0
 17 18  1  0
 18 19  1  0
 19 20  1  0
 16 21  1  0
 20 21  1  0
  7 22  1  0
  4 23  1  0
 22 23  1  0
M  END
