piperidine-amides-993-covalent
     RDKit          3D

 24 26  0  0  0  0  0  0  0  0999 V2000
    7.0810   -3.3230   19.3000 C   0  0  0  0  0  0  0  0  0  0  0  0
    6.3710   -4.1620   20.3050 C   0  0  0  0  0  0  0  0  0  0  0  0
    5.3440   -4.7710   19.9630 O   0  0  0  0  0  0  0  0  0  0  0  0
    6.9110   -4.2830   21.6000 N   0  0  0  0  0  0  0  0  0  0  0  0
    7.7600   -3.2610   22.1740 C   0  0  0  0  0  0  0  0  0  0  0  0
    6.9670   -2.6340   23.3070 C   0  0  0  0  0  0  0  0  0  0  0  0
    6.5270   -3.7650   24.1630 C   0  0  0  0  0  0  0  0  0  0  0  0
    5.7800   -3.2940   25.3470 C   0  0  0  0  0  0  0  0  0  0  0  0
    4.5420   -3.3620   25.3000 O   0  0  0  0  0  0  0  0  0  0  0  0
    6.4900   -2.7990   26.4400 N   0  0  0  0  0  0  0  0  0  0  0  0
    6.1860   -1.7040   27.2840 C   0  0  1  0  0  0  0  0  0  0  0  0
    6.9990   -1.4170   28.3880 C   0  0  0  0  0  0  0  0  0  0  0  0
    6.7300   -0.3400   29.2880 C   0  0  0  0  0  0  0  0  0  0  0  0
    6.3040    0.8700   28.7550 C   0  0  0  0  0  0  0  0  0  0  0  0
    5.8860    0.7570   27.3600 C   0  0  0  0  0  0  0  0  0  0  0  0
    5.8290   -0.5200   26.6340 C   0  0  0  0  0  0  0  0  0  0  0  0
    5.3450    0.0250   25.3140 C   0  0  0  0  0  0  0  0  0  0  0  0
    5.1670    1.3740   25.3020 N   0  0  0  0  0  0  0  0  0  0  0  0
    5.5050    1.7740   26.5550 N   0  0  0  0  0  0  0  0  0  0  0  0
    5.4620    3.0520   26.9290 C   0  0  0  0  0  0  0  0  0  0  0  0
    6.6710    3.9120   26.8990 C   0  0  0  0  0  0  0  0  0  0  0  0
    6.3180    5.0690   27.2030 O   0  0  0  0  0  0  0  0  0  0  0  0
    5.7560   -4.8460   23.4680 C   0  0  0  0  0  0  0  0  0  0  0  0
    6.5300   -5.3660   22.4610 C   0  0  0  0  0  0  0  0  0  0  0  0
  1  2  1  0
  2  3  2  0
  2  4  1  0
  4  5  1  0
  5  6  1  0
  6  7  1  0
  7  8  1  0
  8  9  2  0
  8 10  1  0
 11 10  1  6
 11 12  1  0
 12 13  1  0
 13 14  1  0
 14 15  1  0
 11 16  1  0
 15 16  2  0
 16 17  1  0
 17 18  2  0
 15 19  1  0
 18 19  1  0
 19 20  1  0
 20 21  1  0
 21 22  1  0
  7 23  1  0
  4 24  1  0
 23 24  1  0
M  END
