piperidine-amides-2447-covalent
     RDKit          3D

 26 28  0  0  0  0  0  0  0  0999 V2000
    7.0820   -3.3580   19.2980 C   0  0  0  0  0  0  0  0  0  0  0  0
    6.3630   -4.1640   20.3100 C   0  0  0  0  0  0  0  0  0  0  0  0
    5.3300   -4.7230   19.9470 O   0  0  0  0  0  0  0  0  0  0  0  0
    6.9040   -4.2990   21.5900 N   0  0  0  0  0  0  0  0  0  0  0  0
    7.6020   -3.2080   22.2030 C   0  0  0  0  0  0  0  0  0  0  0  0
    6.7550   -2.6960   23.3290 C   0  0  0  0  0  0  0  0  0  0  0  0
    6.4940   -3.8320   24.3200 C   0  0  0  0  0  0  0  0  0  0  0  0
    5.6360   -3.3060   25.4100 C   0  0  0  0  0  0  0  0  0  0  0  0
    4.4340   -3.1280   25.1850 O   0  0  0  0  0  0  0  0  0  0  0  0
    6.1420   -3.0060   26.6980 N   0  0  0  0  0  0  0  0  0  0  0  0
    6.5490   -1.6400   26.9540 C   0  0  2  0  0  0  0  0  0  0  0  0
    7.0750   -1.5030   28.3780 C   0  0  0  0  0  0  0  0  0  0  0  0
    6.6590   -0.5280   29.2160 C   0  0  0  0  0  0  0  0  0  0  0  0
    5.6390    0.3960   28.9370 N   0  0  0  0  0  0  0  0  0  0  0  0
    4.4600    0.4760   29.7640 C   0  0  0  0  0  0  0  0  0  0  0  0
    4.7320    0.1870   31.0790 C   0  0  0  0  0  0  0  0  0  0  0  0
    5.8140    0.6610   32.0380 C   0  0  0  0  0  0  0  0  0  0  0  0
    5.6690    0.0300   33.3970 C   0  0  0  0  0  0  0  0  0  0  0  0
    4.5620   -0.9430   33.6950 C   0  0  0  0  0  0  0  0  0  0  0  0
    3.5910   -1.2890   32.6210 C   0  0  0  0  0  0  0  0  0  0  0  0
    3.5830   -0.7630   31.2310 C   0  0  0  0  0  0  0  0  0  0  0  0
    5.3270    0.5990   27.5650 C   0  0  1  0  0  0  0  0  0  0  0  0
    6.2130    1.6840   27.0660 C   0  0  0  0  0  0  0  0  0  0  0  0
    5.3680   -0.6030   26.8340 C   0  0  0  0  0  0  0  0  0  0  0  0
    5.7810   -4.9660   23.6150 C   0  0  0  0  0  0  0  0  0  0  0  0
    6.4920   -5.4280   22.3670 C   0  0  0  0  0  0  0  0  0  0  0  0
  1  2  1  0
  2  3  2  0
  2  4  1  0
  4  5  1  0
  5  6  1  0
  6  7  1  0
  7  8  1  0
  8  9  2  0
  8 10  1  0
 11 10  1  1
 11 12  1  0
 12 13  1  0
 13 14  1  0
 14 15  1  0
 15 16  1  0
 16 17  2  0
 17 18  1  0
 18 19  2  0
 19 20  1  0
 16 21  1  0
 20 21  2  0
 14 22  1  0
 22 23  1  6
 11 24  1  0
 22 24  1  0
  7 25  1  0
  4 26  1  0
 25 26  1  0
M  END
