piperidine-amides-29174-covalent
     RDKit          3D

 22 23  0  0  0  0  0  0  0  0999 V2000
    6.9950   -3.2940   19.2810 C   0  0  0  0  0  0  0  0  0  0  0  0
    6.2750   -4.0870   20.2890 C   0  0  0  0  0  0  0  0  0  0  0  0
    5.2770   -4.7230   19.9210 O   0  0  0  0  0  0  0  0  0  0  0  0
    6.7040   -4.1600   21.6370 N   0  0  0  0  0  0  0  0  0  0  0  0
    7.5540   -3.1410   22.1570 C   0  0  0  0  0  0  0  0  0  0  0  0
    7.3430   -3.1310   23.6220 C   0  0  0  0  0  0  0  0  0  0  0  0
    5.9580   -3.6530   23.8370 C   0  0  0  0  0  0  0  0  0  0  0  0
    5.5270   -3.4570   25.2660 C   0  0  0  0  0  0  0  0  0  0  0  0
    4.3120   -3.4690   25.4510 O   0  0  0  0  0  0  0  0  0  0  0  0
    6.4760   -3.2700   26.2810 N   0  0  0  0  0  0  0  0  0  0  0  0
    6.5920   -4.2200   27.3520 C   0  0  0  0  0  0  0  0  0  0  0  0
    7.2820   -5.4190   27.0880 C   0  0  0  0  0  0  0  0  0  0  0  0
    6.7630   -1.8770   26.6610 C   0  0  0  0  0  0  0  0  0  0  0  0
    5.6400   -1.0830   26.7750 C   0  0  0  0  0  0  0  0  0  0  0  0
    5.0520   -0.8310   25.4520 C   0  0  0  0  0  0  0  0  0  0  0  0
    3.7910    0.0250   25.2580 C   0  0  0  0  0  0  0  0  0  0  0  0
    3.1690    0.6050   26.4920 C   0  0  0  0  0  0  0  0  0  0  0  0
    3.8210    0.3130   27.8370 C   0  0  0  0  0  0  0  0  0  0  0  0
    5.0980   -0.5660   27.9320 C   0  0  0  0  0  0  0  0  0  0  0  0
    5.8990   -0.9120   29.6410 Br  0  0  0  0  0  0  0  0  0  0  0  0
    5.9010   -5.1420   23.5430 C   0  0  0  0  0  0  0  0  0  0  0  0
    6.6100   -5.4040   22.3710 C   0  0  0  0  0  0  0  0  0  0  0  0
  1  2  1  0
  2  3  2  0
  2  4  1  0
  4  5  1  0
  5  6  1  0
  6  7  1  0
  7  8  1  0
  8  9  2  0
  8 10  1  0
 10 11  1  0
 11 12  1  0
 10 13  1  0
 13 14  1  0
 14 15  2  0
 15 16  1  0
 16 17  2  0
 17 18  1  0
 14 19  1  0
 18 19  2  0
 19 20  1  0
  7 21  1  0
  4 22  1  0
 21 22  1  0
M  END
