piperidine-amides-5576-covalent
     RDKit          3D

 19 20  0  0  0  0  0  0  0  0999 V2000
    7.1290   -3.2880   19.2190 C   0  0  0  0  0  0  0  0  0  0  0  0
    6.3890   -4.0470   20.2260 C   0  0  0  0  0  0  0  0  0  0  0  0
    5.3210   -4.5960   19.9080 O   0  0  0  0  0  0  0  0  0  0  0  0
    6.8940   -4.2070   21.5240 N   0  0  0  0  0  0  0  0  0  0  0  0
    7.7620   -3.2370   22.1450 C   0  0  0  0  0  0  0  0  0  0  0  0
    6.9880   -2.7090   23.3150 C   0  0  0  0  0  0  0  0  0  0  0  0
    6.4280   -3.7990   24.1870 C   0  0  0  0  0  0  0  0  0  0  0  0
    5.5060   -3.2440   25.2060 C   0  0  0  0  0  0  0  0  0  0  0  0
    4.3280   -3.6890   25.3260 O   0  0  0  0  0  0  0  0  0  0  0  0
    5.8740   -2.1990   26.0690 N   0  0  0  0  0  0  0  0  0  0  0  0
    6.3950   -2.5190   27.4030 C   0  0  0  0  0  0  0  0  0  0  0  0
    7.8150   -2.7680   27.2060 C   0  0  0  0  0  0  0  0  0  0  0  0
    8.0030   -4.0540   27.3540 N   0  0  0  0  0  0  0  0  0  0  0  0
    7.4290   -4.8340   28.3890 C   0  0  0  0  0  0  0  0  0  0  0  0
    7.8620   -6.2200   28.2490 C   0  0  0  0  0  0  0  0  0  0  0  0
    8.7490   -6.2730   27.0680 C   0  0  0  0  0  0  0  0  0  0  0  0
    8.8320   -4.9340   26.4980 C   0  0  0  0  0  0  0  0  0  0  0  0
    5.6990   -4.8430   23.3520 C   0  0  0  0  0  0  0  0  0  0  0  0
    6.4750   -5.3400   22.2990 C   0  0  0  0  0  0  0  0  0  0  0  0
  1  2  1  0
  2  3  2  0
  2  4  1  0
  4  5  1  0
  5  6  1  0
  6  7  1  0
  7  8  1  0
  8  9  2  0
  8 10  1  0
 10 11  1  0
 11 12  1  0
 12 13  1  0
 13 14  1  0
 14 15  2  0
 15 16  1  0
 13 17  1  0
 16 17  2  0
  7 18  1  0
  4 19  1  0
 18 19  1  0
M  END
