piperidine-amides-2661-covalent
     RDKit          3D

 25 27  0  0  0  0  0  0  0  0999 V2000
    7.0570   -3.3530   19.3310 C   0  0  0  0  0  0  0  0  0  0  0  0
    6.3390   -4.1620   20.3470 C   0  0  0  0  0  0  0  0  0  0  0  0
    5.3480   -4.7820   19.9650 O   0  0  0  0  0  0  0  0  0  0  0  0
    6.8250   -4.2340   21.6540 N   0  0  0  0  0  0  0  0  0  0  0  0
    6.6380   -5.3990   22.4790 C   0  0  0  0  0  0  0  0  0  0  0  0
    5.9950   -4.9970   23.7830 C   0  0  0  0  0  0  0  0  0  0  0  0
    6.0260   -3.4690   23.9380 C   0  0  0  0  0  0  0  0  0  0  0  0
    5.6150   -3.1000   25.3050 C   0  0  0  0  0  0  0  0  0  0  0  0
    4.4150   -2.9940   25.5870 O   0  0  0  0  0  0  0  0  0  0  0  0
    6.6010   -2.8750   26.2700 N   0  0  0  0  0  0  0  0  0  0  0  0
    6.5570   -1.7230   27.1480 C   0  0  0  0  0  0  0  0  0  0  0  0
    5.9650   -0.4180   26.6030 C   0  0  0  0  0  0  0  0  0  0  0  0
    5.8190    0.8130   27.2510 C   0  0  0  0  0  0  0  0  0  0  0  0
    6.2660    0.8510   28.5420 C   0  0  0  0  0  0  0  0  0  0  0  0
    6.7600   -0.2770   28.9650 C   0  0  0  0  0  0  0  0  0  0  0  0
    6.9890   -1.6420   28.4370 C   0  0  0  0  0  0  0  0  0  0  0  0
    7.3320   -0.7280   30.2000 C   0  0  0  0  0  0  0  0  0  0  0  0
    6.7370    0.2400   31.2410 C   0  0  0  0  0  0  0  0  0  0  0  0
    6.8760    1.6690   30.7180 C   0  0  0  0  0  0  0  0  0  0  0  0
    7.5810    2.5800   31.5140 O   0  0  0  0  0  0  0  0  0  0  0  0
    6.2670    1.9130   29.4640 N   0  0  0  0  0  0  0  0  0  0  0  0
    5.2160    2.8510   29.3160 C   0  0  0  0  0  0  0  0  0  0  0  0
    5.6330    3.9130   28.3120 C   0  0  0  0  0  0  0  0  0  0  0  0
    7.4210   -2.9760   23.6510 C   0  0  0  0  0  0  0  0  0  0  0  0
    7.6730   -3.1800   22.1890 C   0  0  0  0  0  0  0  0  0  0  0  0
  1  2  1  0
  2  3  2  0
  2  4  1  0
  4  5  1  0
  5  6  1  0
  6  7  1  0
  7  8  1  0
  8  9  2  0
  8 10  1  0
 10 11  1  0
 11 12  2  0
 12 13  1  0
 13 14  2  0
 14 15  1  0
 11 16  1  0
 15 16  2  0
 15 17  1  0
 17 18  1  0
 18 19  1  0
 19 20  2  0
 14 21  1  0
 19 21  1  0
 21 22  1  0
 22 23  1  0
  7 24  1  0
  4 25  1  0
 24 25  1  0
M  END
