piperidine-amides-28750-covalent
     RDKit          3D

 26 28  0  0  0  0  0  0  0  0999 V2000
    7.0390   -3.3760   19.4140 C   0  0  0  0  0  0  0  0  0  0  0  0
    6.4150   -4.2750   20.3810 C   0  0  0  0  0  0  0  0  0  0  0  0
    5.4080   -4.9020   20.0010 O   0  0  0  0  0  0  0  0  0  0  0  0
    6.9850   -4.4600   21.6750 N   0  0  0  0  0  0  0  0  0  0  0  0
    6.5210   -5.5410   22.4750 C   0  0  0  0  0  0  0  0  0  0  0  0
    5.5770   -4.9910   23.5100 C   0  0  0  0  0  0  0  0  0  0  0  0
    6.2900   -3.9460   24.3620 C   0  0  0  0  0  0  0  0  0  0  0  0
    5.3100   -3.3570   25.3590 C   0  0  0  0  0  0  0  0  0  0  0  0
    4.5380   -2.5340   24.8850 O   0  0  0  0  0  0  0  0  0  0  0  0
    5.2940   -3.7360   26.7090 N   0  0  0  0  0  0  0  0  0  0  0  0
    4.1190   -3.7630   27.4990 C   0  0  0  0  0  0  0  0  0  0  0  0
    4.3080   -3.9220   28.8970 C   0  0  0  0  0  0  0  0  0  0  0  0
    5.5770   -4.1360   29.3640 C   0  0  0  0  0  0  0  0  0  0  0  0
    6.5430   -4.3210   28.4600 C   0  0  1  0  0  0  0  0  0  0  0  0
    6.2850   -5.7950   28.1760 C   0  0  0  0  0  0  0  0  0  0  0  0
    5.1580   -6.5070   28.9650 C   0  0  0  0  0  0  0  0  0  0  0  0
    3.8800   -6.7450   28.2300 C   0  0  0  0  0  0  0  0  0  0  0  0
    2.7950   -7.4430   29.0310 C   0  0  0  0  0  0  0  0  0  0  0  0
    1.5570   -7.7280   28.4890 F   0  0  0  0  0  0  0  0  0  0  0  0
    3.2070   -7.7920   30.4860 C   0  0  0  0  0  0  0  0  0  0  0  0
    4.4290   -7.5120   31.0260 C   0  0  0  0  0  0  0  0  0  0  0  0
    4.6030   -7.9040   32.3340 F   0  0  0  0  0  0  0  0  0  0  0  0
    5.3780   -6.8850   30.2780 C   0  0  0  0  0  0  0  0  0  0  0  0
    6.3760   -3.3550   27.4900 C   0  0  0  0  0  0  0  0  0  0  0  0
    6.8680   -2.8220   23.4680 C   0  0  0  0  0  0  0  0  0  0  0  0
    7.6940   -3.4260   22.3500 C   0  0  0  0  0  0  0  0  0  0  0  0
  1  2  1  0
  2  3  2  0
  2  4  1  0
  4  5  1  0
  5  6  1  0
  6  7  1  0
  7  8  1  0
  8  9  2  0
  8 10  1  0
 10 11  1  0
 11 12  1  0
 12 13  1  0
 13 14  1  0
 14 15  1  6
 15 16  1  0
 16 17  2  0
 17 18  1  0
 18 19  1  0
 18 20  2  0
 20 21  1  0
 21 22  1  0
 16 23  1  0
 21 23  2  0
 10 24  1  0
 14 24  1  0
  7 25  1  0
  4 26  1  0
 25 26  1  0
M  END
