piperidine-amides-29743-covalent
     RDKit          3D

 24 26  0  0  0  0  0  0  0  0999 V2000
    7.0860   -3.3530   19.3920 C   0  0  0  0  0  0  0  0  0  0  0  0
    6.4030   -4.2400   20.3240 C   0  0  0  0  0  0  0  0  0  0  0  0
    5.3650   -4.7990   19.9720 O   0  0  0  0  0  0  0  0  0  0  0  0
    6.9630   -4.5200   21.6200 N   0  0  0  0  0  0  0  0  0  0  0  0
    6.4640   -5.6490   22.3290 C   0  0  0  0  0  0  0  0  0  0  0  0
    5.5550   -5.1460   23.4110 C   0  0  0  0  0  0  0  0  0  0  0  0
    6.2830   -4.0820   24.2250 C   0  0  0  0  0  0  0  0  0  0  0  0
    5.3680   -3.5510   25.2890 C   0  0  0  0  0  0  0  0  0  0  0  0
    4.4690   -2.7330   25.0280 O   0  0  0  0  0  0  0  0  0  0  0  0
    5.5230   -3.9680   26.6360 N   0  0  0  0  0  0  0  0  0  0  0  0
    4.3950   -4.4910   27.3840 C   0  0  0  0  0  0  0  0  0  0  0  0
    4.5670   -4.1180   28.8360 C   0  0  0  0  0  0  0  0  0  0  0  0
    5.2820   -2.9860   29.0350 C   0  0  0  0  0  0  0  0  0  0  0  0
    4.9510   -1.7580   30.2770 S   0  0  0  0  0  0  0  0  0  0  0  0
    6.2480   -0.6860   29.9040 C   0  0  0  0  0  0  0  0  0  0  0  0
    6.6400    0.7750   30.6770 S   0  0  0  0  0  0  0  0  0  0  0  0
    6.8130    0.5420   32.3620 N   0  0  0  0  0  0  0  0  0  0  0  0
    7.8550    1.3770   30.0340 O   0  0  0  0  0  0  0  0  0  0  0  0
    5.4650    1.6970   30.4540 O   0  0  0  0  0  0  0  0  0  0  0  0
    6.8860   -1.2970   28.8210 C   0  0  0  0  0  0  0  0  0  0  0  0
    6.4340   -2.5860   28.2330 C   0  0  0  0  0  0  0  0  0  0  0  0
    6.6480   -3.4950   27.2910 C   0  0  0  0  0  0  0  0  0  0  0  0
    6.7110   -2.9320   23.3090 C   0  0  0  0  0  0  0  0  0  0  0  0
    7.5840   -3.4200   22.3340 C   0  0  0  0  0  0  0  0  0  0  0  0
  1  2  1  0
  2  3  2  0
  2  4  1  0
  4  5  1  0
  5  6  1  0
  6  7  1  0
  7  8  1  0
  8  9  2  0
  8 10  1  0
 10 11  1  0
 11 12  1  0
 12 13  1  0
 13 14  1  0
 14 15  1  0
 15 16  1  0
 16 17  1  0
 16 18  2  0
 16 19  2  0
 15 20  2  0
 13 21  2  0
 20 21  1  0
 10 22  1  0
 21 22  1  0
  7 23  1  0
  4 24  1  0
 23 24  1  0
M  END
