piperidine-amides-5549-covalent
     RDKit          3D

 19 19  0  0  0  0  0  0  0  0999 V2000
    7.1210   -3.2580   19.1900 C   0  0  0  0  0  0  0  0  0  0  0  0
    6.3510   -4.0060   20.1870 C   0  0  0  0  0  0  0  0  0  0  0  0
    5.2650   -4.5070   19.8610 O   0  0  0  0  0  0  0  0  0  0  0  0
    6.8360   -4.2210   21.4840 N   0  0  0  0  0  0  0  0  0  0  0  0
    6.5300   -5.4020   22.2460 C   0  0  0  0  0  0  0  0  0  0  0  0
    5.7400   -4.9180   23.4320 C   0  0  0  0  0  0  0  0  0  0  0  0
    6.4850   -3.8700   24.2110 C   0  0  0  0  0  0  0  0  0  0  0  0
    5.6930   -3.3540   25.3540 C   0  0  0  0  0  0  0  0  0  0  0  0
    4.5720   -2.7930   25.1640 O   0  0  0  0  0  0  0  0  0  0  0  0
    6.1320   -3.4650   26.6930 N   0  0  0  0  0  0  0  0  0  0  0  0
    5.8710   -4.7190   27.4320 C   0  0  1  0  0  0  0  0  0  0  0  0
    5.7050   -5.8220   26.4860 C   0  0  0  0  0  0  0  0  0  0  0  0
    7.0380   -5.1930   28.2750 C   0  0  0  0  0  0  0  0  0  0  0  0
    8.2200   -4.6070   27.5960 C   0  0  0  0  0  0  0  0  0  0  0  0
    8.1270   -3.9620   26.2310 C   0  0  0  0  0  0  0  0  0  0  0  0
    9.3040   -5.6700   27.6060 C   0  0  0  0  0  0  0  0  0  0  0  0
    8.5120   -3.2890   28.2800 C   0  0  0  0  0  0  0  0  0  0  0  0
    6.8960   -2.7080   23.3400 C   0  0  0  0  0  0  0  0  0  0  0  0
    7.6530   -3.2100   22.1350 C   0  0  0  0  0  0  0  0  0  0  0  0
  1  2  1  0
  2  3  2  0
  2  4  1  0
  4  5  1  0
  5  6  1  0
  6  7  1  0
  7  8  1  0
  8  9  2  0
  8 10  1  0
 10 11  1  0
 11 12  1  6
 11 13  1  0
 14 13  1  0
 14 15  1  0
 14 16  1  0
 14 17  1  0
  7 18  1  0
  4 19  1  0
 18 19  1  0
M  END
