piperidine-amides-31174-covalent
     RDKit          3D

 26 28  0  0  0  0  0  0  0  0999 V2000
    7.0020   -3.3690   19.4250 C   0  0  0  0  0  0  0  0  0  0  0  0
    6.3600   -4.2420   20.4170 C   0  0  0  0  0  0  0  0  0  0  0  0
    5.4310   -4.9690   20.0150 O   0  0  0  0  0  0  0  0  0  0  0  0
    6.7680   -4.3140   21.7780 N   0  0  0  0  0  0  0  0  0  0  0  0
    6.6080   -5.5250   22.5650 C   0  0  0  0  0  0  0  0  0  0  0  0
    6.0070   -5.1270   23.9050 C   0  0  0  0  0  0  0  0  0  0  0  0
    5.8500   -3.6410   24.0260 C   0  0  0  0  0  0  0  0  0  0  0  0
    5.1060   -3.0740   25.2320 C   0  0  0  0  0  0  0  0  0  0  0  0
    4.3210   -2.1120   25.0380 O   0  0  0  0  0  0  0  0  0  0  0  0
    5.1700   -3.5040   26.5970 N   0  0  0  0  0  0  0  0  0  0  0  0
    4.5000   -2.7520   27.6670 C   0  0  0  0  0  0  0  0  0  0  0  0
    4.1700   -3.6940   28.7730 C   0  0  0  0  0  0  0  0  0  0  0  0
    5.2480   -4.4080   29.0930 N   0  0  0  0  0  0  0  0  0  0  0  0
    5.0650   -5.9680   29.2790 S   0  0  0  0  0  0  0  0  0  0  0  0
    6.3750   -6.5090   29.6910 O   0  0  0  0  0  0  0  0  0  0  0  0
    4.1020   -6.1240   30.4370 O   0  0  0  0  0  0  0  0  0  0  0  0
    4.4260   -6.6360   27.7460 C   0  0  0  0  0  0  0  0  0  0  0  0
    4.8480   -6.3590   26.3940 C   0  0  0  0  0  0  0  0  0  0  0  0
    4.0860   -7.0990   25.4680 N   0  0  0  0  0  0  0  0  0  0  0  0
    3.1910   -7.8380   26.1940 N   0  0  0  0  0  0  0  0  0  0  0  0
    2.2150   -8.7500   25.6330 C   0  0  0  0  0  0  0  0  0  0  0  0
    3.2970   -7.6440   27.5710 C   0  0  0  0  0  0  0  0  0  0  0  0
    6.3720   -4.1860   28.4110 C   0  0  0  0  0  0  0  0  0  0  0  0
    6.3100   -4.0660   27.0220 C   0  0  0  0  0  0  0  0  0  0  0  0
    7.1920   -2.9340   23.7890 C   0  0  0  0  0  0  0  0  0  0  0  0
    7.5800   -3.2320   22.3230 C   0  0  0  0  0  0  0  0  0  0  0  0
  1  2  1  0
  2  3  2  0
  2  4  1  0
  4  5  1  0
  5  6  1  0
  6  7  1  0
  7  8  1  0
  8  9  2  0
  8 10  1  0
 10 11  1  0
 11 12  1  0
 12 13  1  0
 13 14  1  0
 14 15  2  0
 14 16  2  0
 14 17  1  0
 17 18  1  0
 18 19  2  0
 19 20  1  0
 20 21  1  0
 17 22  2  0
 20 22  1  0
 13 23  1  0
 10 24  1  0
 23 24  1  0
  7 25  1  0
  4 26  1  0
 25 26  1  0
M  END
