piperidine-amides-32470-covalent
     RDKit          3D

 24 25  0  0  0  0  0  0  0  0999 V2000
    7.1230   -3.2520   19.2080 C   0  0  0  0  0  0  0  0  0  0  0  0
    6.3460   -3.9970   20.2380 C   0  0  0  0  0  0  0  0  0  0  0  0
    5.3100   -4.5940   19.9020 O   0  0  0  0  0  0  0  0  0  0  0  0
    6.8320   -4.0400   21.5600 N   0  0  0  0  0  0  0  0  0  0  0  0
    7.7630   -3.0470   22.0780 C   0  0  0  0  0  0  0  0  0  0  0  0
    7.6030   -2.9720   23.5980 C   0  0  0  0  0  0  0  0  0  0  0  0
    6.2160   -3.4060   23.8990 C   0  0  0  0  0  0  0  0  0  0  0  0
    5.7540   -3.0650   25.2670 C   0  0  0  0  0  0  0  0  0  0  0  0
    4.5590   -2.7640   25.3670 O   0  0  0  0  0  0  0  0  0  0  0  0
    6.6210   -3.0920   26.3730 N   0  0  0  0  0  0  0  0  0  0  0  0
    7.6610   -2.1420   26.6110 C   0  0  0  0  0  0  0  0  0  0  0  0
    6.2150   -3.8640   27.4960 C   0  0  0  0  0  0  0  0  0  0  0  0
    5.7150   -5.1570   27.2520 C   0  0  0  0  0  0  0  0  0  0  0  0
    4.3890   -5.5600   27.3260 O   0  0  0  0  0  0  0  0  0  0  0  0
    6.7360   -6.0970   26.9000 N   0  0  0  0  0  0  0  0  0  0  0  0
    7.9790   -5.6990   27.0330 C   0  0  0  0  0  0  0  0  0  0  0  0
    8.4760   -4.9810   28.1780 C   0  0  0  0  0  0  0  0  0  0  0  0
    9.8840   -4.5380   28.3200 C   0  0  0  0  0  0  0  0  0  0  0  0
   10.8080   -4.9020   27.1610 C   0  0  0  0  0  0  0  0  0  0  0  0
   13.0410   -4.4430   26.9950 Br  0  0  0  0  0  0  0  0  0  0  0  0
   10.1550   -5.5720   26.1620 C   0  0  0  0  0  0  0  0  0  0  0  0
    8.8970   -5.9770   26.0010 N   0  0  0  0  0  0  0  0  0  0  0  0
    5.9720   -4.8540   23.6320 C   0  0  0  0  0  0  0  0  0  0  0  0
    6.6140   -5.2530   22.3160 C   0  0  0  0  0  0  0  0  0  0  0  0
  1  2  1  0
  2  3  2  0
  2  4  1  0
  4  5  1  0
  5  6  1  0
  6  7  1  0
  7  8  1  0
  8  9  2  0
  8 10  1  0
 10 11  1  0
 10 12  1  0
 12 13  1  0
 13 14  2  0
 13 15  1  0
 15 16  1  0
 16 17  2  0
 17 18  1  0
 18 19  2  0
 19 20  1  0
 19 21  1  0
 16 22  1  0
 21 22  2  0
  7 23  1  0
  4 24  1  0
 23 24  1  0
M  END
