piperidine-amides-2570-covalent
     RDKit          3D

 25 27  0  0  0  0  0  0  0  0999 V2000
    7.0460   -3.3400   19.3300 C   0  0  0  0  0  0  0  0  0  0  0  0
    6.3820   -4.1820   20.3610 C   0  0  0  0  0  0  0  0  0  0  0  0
    5.4170   -4.8490   19.9880 O   0  0  0  0  0  0  0  0  0  0  0  0
    6.8840   -4.2280   21.6760 N   0  0  0  0  0  0  0  0  0  0  0  0
    6.6770   -5.3750   22.5300 C   0  0  0  0  0  0  0  0  0  0  0  0
    6.0080   -4.9380   23.8100 C   0  0  0  0  0  0  0  0  0  0  0  0
    6.1150   -3.4150   23.9120 C   0  0  0  0  0  0  0  0  0  0  0  0
    5.5800   -2.9570   25.2140 C   0  0  0  0  0  0  0  0  0  0  0  0
    4.4870   -2.3800   25.2180 O   0  0  0  0  0  0  0  0  0  0  0  0
    6.2330   -3.1660   26.4390 N   0  0  0  0  0  0  0  0  0  0  0  0
    6.4350   -1.9930   27.2900 C   0  0  0  0  0  0  0  0  0  0  0  0
    5.8690   -0.6760   26.7770 C   0  0  0  0  0  0  0  0  0  0  0  0
    5.9690    0.5290   27.4690 C   0  0  0  0  0  0  0  0  0  0  0  0
    6.6140    0.5370   28.6820 C   0  0  0  0  0  0  0  0  0  0  0  0
    7.1460   -0.6120   29.1930 C   0  0  0  0  0  0  0  0  0  0  0  0
    7.7360   -0.4320   30.3740 N   0  0  0  0  0  0  0  0  0  0  0  0
    7.0680   -1.9300   28.4970 C   0  0  0  0  0  0  0  0  0  0  0  0
    5.8810   -4.3990   27.0430 C   0  0  0  0  0  0  0  0  0  0  0  0
    4.9640   -5.4480   26.5210 C   0  0  0  0  0  0  0  0  0  0  0  0
    4.8740   -6.4940   27.3770 N   0  0  0  0  0  0  0  0  0  0  0  0
    5.6790   -6.1630   28.3970 N   0  0  0  0  0  0  0  0  0  0  0  0
    5.9800   -6.8370   29.5360 C   0  0  0  0  0  0  0  0  0  0  0  0
    6.3360   -4.8530   28.2370 C   0  0  0  0  0  0  0  0  0  0  0  0
    7.4210   -2.8480   23.5440 C   0  0  0  0  0  0  0  0  0  0  0  0
    7.8010   -3.1980   22.1530 C   0  0  0  0  0  0  0  0  0  0  0  0
  1  2  1  0
  2  3  2  0
  2  4  1  0
  4  5  1  0
  5  6  1  0
  6  7  1  0
  7  8  1  0
  8  9  2  0
  8 10  1  0
 10 11  1  0
 11 12  2  0
 12 13  1  0
 13 14  2  0
 14 15  1  0
 15 16  1  0
 11 17  1  0
 15 17  2  0
 10 18  1  0
 18 19  1  0
 19 20  2  0
 20 21  1  0
 21 22  1  0
 18 23  2  0
 21 23  1  0
  7 24  1  0
  4 25  1  0
 24 25  1  0
M  END
