piperidine-amides-14252-covalent
     RDKit          3D

 24 26  0  0  0  0  0  0  0  0999 V2000
    7.1180   -3.2880   19.2560 C   0  0  0  0  0  0  0  0  0  0  0  0
    6.2870   -4.0620   20.2110 C   0  0  0  0  0  0  0  0  0  0  0  0
    5.1920   -4.5010   19.8470 O   0  0  0  0  0  0  0  0  0  0  0  0
    6.7920   -4.3340   21.4910 N   0  0  0  0  0  0  0  0  0  0  0  0
    6.4460   -5.5580   22.1680 C   0  0  0  0  0  0  0  0  0  0  0  0
    5.4790   -5.1800   23.2960 C   0  0  0  0  0  0  0  0  0  0  0  0
    6.1240   -4.0610   24.0360 C   0  0  0  0  0  0  0  0  0  0  0  0
    5.3470   -3.6250   25.2290 C   0  0  0  0  0  0  0  0  0  0  0  0
    4.4430   -2.8010   25.0500 O   0  0  0  0  0  0  0  0  0  0  0  0
    5.6730   -4.1550   26.4830 N   0  0  0  0  0  0  0  0  0  0  0  0
    6.9940   -4.4020   26.8720 C   0  0  0  0  0  0  0  0  0  0  0  0
    7.9650   -3.7600   26.1900 C   0  0  0  0  0  0  0  0  0  0  0  0
    7.5980   -2.6820   25.2700 N   0  0  0  0  0  0  0  0  0  0  0  0
    8.7840   -2.2770   24.7930 N   0  0  0  0  0  0  0  0  0  0  0  0
    9.6710   -3.1540   25.4920 C   0  0  0  0  0  0  0  0  0  0  0  0
   10.9720   -2.9790   25.3060 C   0  0  0  0  0  0  0  0  0  0  0  0
   11.9070   -3.8710   25.9630 C   0  0  0  0  0  0  0  0  0  0  0  0
   13.3890   -3.6650   25.8600 C   0  0  0  0  0  0  0  0  0  0  0  0
   13.7810   -2.5000   25.0140 C   0  0  0  0  0  0  0  0  0  0  0  0
   12.8780   -1.6930   24.3780 C   0  0  0  0  0  0  0  0  0  0  0  0
   11.4430   -1.9600   24.5460 C   0  0  0  0  0  0  0  0  0  0  0  0
    9.3190   -4.1200   26.3670 O   0  0  0  0  0  0  0  0  0  0  0  0
    6.4600   -2.8790   23.1710 C   0  0  0  0  0  0  0  0  0  0  0  0
    7.3970   -3.2940   22.2670 C   0  0  0  0  0  0  0  0  0  0  0  0
  1  2  1  0
  2  3  2  0
  2  4  1  0
  4  5  1  0
  5  6  1  0
  6  7  1  0
  7  8  1  0
  8  9  2  0
  8 10  1  0
 10 11  1  0
 11 12  1  0
 12 13  2  0
 13 14  1  0
 14 15  2  0
 15 16  1  0
 16 17  2  0
 17 18  1  0
 18 19  2  0
 19 20  1  0
 16 21  1  0
 20 21  2  0
 12 22  1  0
 15 22  1  0
  7 23  1  0
  4 24  1  0
 23 24  1  0
M  END
