piperidine-amides-12289-covalent
     RDKit          3D

 24 26  0  0  0  0  0  0  0  0999 V2000
    7.1250   -3.3540   19.3260 C   0  0  0  0  0  0  0  0  0  0  0  0
    6.3820   -4.1550   20.2820 C   0  0  0  0  0  0  0  0  0  0  0  0
    5.3390   -4.7200   19.9490 O   0  0  0  0  0  0  0  0  0  0  0  0
    6.9160   -4.3320   21.5960 N   0  0  0  0  0  0  0  0  0  0  0  0
    7.6850   -3.2720   22.1910 C   0  0  0  0  0  0  0  0  0  0  0  0
    6.9190   -2.6880   23.3340 C   0  0  0  0  0  0  0  0  0  0  0  0
    6.5450   -3.8250   24.2640 C   0  0  0  0  0  0  0  0  0  0  0  0
    5.7870   -3.2860   25.4240 C   0  0  0  0  0  0  0  0  0  0  0  0
    4.5410   -3.2520   25.4450 O   0  0  0  0  0  0  0  0  0  0  0  0
    6.5120   -2.8000   26.5370 N   0  0  0  0  0  0  0  0  0  0  0  0
    6.0230   -1.6400   27.2500 C   0  0  1  0  0  0  0  0  0  0  0  0
    7.0360   -1.3850   28.3270 C   0  0  0  0  0  0  0  0  0  0  0  0
    6.7750   -0.3610   29.1900 C   0  0  0  0  0  0  0  0  0  0  0  0
    6.0860    0.7390   28.6810 C   0  0  0  0  0  0  0  0  0  0  0  0
    5.3610    0.4810   27.4920 N   0  0  0  0  0  0  0  0  0  0  0  0
    4.0460    0.9290   27.2850 C   0  0  0  0  0  0  0  0  0  0  0  0
    3.6330    1.3010   25.9280 C   0  0  0  0  0  0  0  0  0  0  0  0
    2.3590    1.7550   25.6120 C   0  0  0  0  0  0  0  0  0  0  0  0
    1.4420    1.8570   26.6370 C   0  0  0  0  0  0  0  0  0  0  0  0
    1.7430    1.5280   27.9470 C   0  0  0  0  0  0  0  0  0  0  0  0
    3.0860    1.0500   28.2720 C   0  0  0  0  0  0  0  0  0  0  0  0
    5.7380   -0.4750   26.5010 C   0  0  0  0  0  0  0  0  0  0  0  0
    5.7010   -4.8620   23.5670 C   0  0  0  0  0  0  0  0  0  0  0  0
    6.4240   -5.4010   22.3780 C   0  0  0  0  0  0  0  0  0  0  0  0
  1  2  1  0
  2  3  2  0
  2  4  1  0
  4  5  1  0
  5  6  1  0
  6  7  1  0
  7  8  1  0
  8  9  2  0
  8 10  1  0
 11 10  1  6
 11 12  1  0
 12 13  1  0
 13 14  1  0
 14 15  1  0
 15 16  1  0
 16 17  2  0
 17 18  1  0
 18 19  2  0
 19 20  1  0
 16 21  1  0
 20 21  2  0
 11 22  1  0
 15 22  1  0
  7 23  1  0
  4 24  1  0
 23 24  1  0
M  END
