piperidine-amides-3826-covalent
     RDKit          3D

 23 24  0  0  0  0  0  0  0  0999 V2000
    7.1390   -3.3330   19.2890 C   0  0  0  0  0  0  0  0  0  0  0  0
    6.4100   -4.1230   20.2880 C   0  0  0  0  0  0  0  0  0  0  0  0
    5.3230   -4.6310   19.9220 O   0  0  0  0  0  0  0  0  0  0  0  0
    6.9590   -4.3530   21.5730 N   0  0  0  0  0  0  0  0  0  0  0  0
    7.6240   -3.2660   22.2110 C   0  0  0  0  0  0  0  0  0  0  0  0
    7.1570   -2.9430   23.5550 C   0  0  0  0  0  0  0  0  0  0  0  0
    6.4310   -4.0010   24.2880 C   0  0  0  0  0  0  0  0  0  0  0  0
    5.6930   -3.4380   25.4660 C   0  0  0  0  0  0  0  0  0  0  0  0
    4.4460   -3.4580   25.4660 O   0  0  0  0  0  0  0  0  0  0  0  0
    6.3640   -2.8640   26.5700 N   0  0  0  0  0  0  0  0  0  0  0  0
    6.4320   -1.4910   26.9240 C   0  0  0  0  0  0  0  0  0  0  0  0
    5.6310   -0.5300   26.1300 C   0  0  0  0  0  0  0  0  0  0  0  0
    5.7220    0.9240   26.5640 C   0  0  0  0  0  0  0  0  0  0  0  0
    6.0400    0.9680   27.8670 C   0  0  0  0  0  0  0  0  0  0  0  0
    6.2070   -0.2890   28.4450 N   0  0  0  0  0  0  0  0  0  0  0  0
    5.4480   -0.6690   29.5720 C   0  0  0  0  0  0  0  0  0  0  0  0
    4.2600    0.2120   29.7840 C   0  0  0  0  0  0  0  0  0  0  0  0
    6.3380   -0.4550   30.8210 C   0  0  0  0  0  0  0  0  0  0  0  0
    5.0330   -2.0980   29.4970 C   0  0  0  0  0  0  0  0  0  0  0  0
    7.2380   -1.0070   27.9760 C   0  0  0  0  0  0  0  0  0  0  0  0
    7.6260   -0.3860   28.9980 O   0  0  0  0  0  0  0  0  0  0  0  0
    5.4770   -4.7980   23.3880 C   0  0  0  0  0  0  0  0  0  0  0  0
    6.3360   -5.4220   22.3540 C   0  0  0  0  0  0  0  0  0  0  0  0
  1  2  1  0
  2  3  2  0
  2  4  1  0
  4  5  1  0
  5  6  1  0
  6  7  1  0
  7  8  1  0
  8  9  2  0
  8 10  1  0
 10 11  1  0
 11 12  2  0
 12 13  1  0
 13 14  2  0
 14 15  1  0
 15 16  1  0
 16 17  1  0
 16 18  1  0
 16 19  1  0
 11 20  1  0
 15 20  1  0
 20 21  2  0
  7 22  1  0
  4 23  1  0
 22 23  1  0
M  END
