piperidine-amides-15027-covalent
     RDKit          3D

 21 22  0  0  0  0  0  0  0  0999 V2000
    6.9990   -3.3310   19.3680 C   0  0  0  0  0  0  0  0  0  0  0  0
    6.3380   -4.1760   20.3630 C   0  0  0  0  0  0  0  0  0  0  0  0
    5.3880   -4.8830   19.9850 O   0  0  0  0  0  0  0  0  0  0  0  0
    6.7900   -4.2090   21.7070 N   0  0  0  0  0  0  0  0  0  0  0  0
    6.6600   -5.4340   22.4500 C   0  0  0  0  0  0  0  0  0  0  0  0
    5.9960   -5.1360   23.7580 C   0  0  0  0  0  0  0  0  0  0  0  0
    6.0430   -3.6320   23.9000 C   0  0  0  0  0  0  0  0  0  0  0  0
    5.6670   -3.2280   25.2970 C   0  0  0  0  0  0  0  0  0  0  0  0
    4.4720   -3.2940   25.6000 O   0  0  0  0  0  0  0  0  0  0  0  0
    6.6910   -2.8020   26.1300 N   0  0  0  0  0  0  0  0  0  0  0  0
    6.5980   -1.6760   27.0040 C   0  0  0  0  0  0  0  0  0  0  0  0
    7.0190   -1.6020   28.3390 C   0  0  0  0  0  0  0  0  0  0  0  0
    6.9120   -0.4830   29.1470 C   0  0  0  0  0  0  0  0  0  0  0  0
    6.3700    0.7480   28.7710 C   0  0  0  0  0  0  0  0  0  0  0  0
    5.8880    0.7720   27.3530 C   0  0  0  0  0  0  0  0  0  0  0  0
    5.2500    2.0040   26.6770 C   0  0  0  0  0  0  0  0  0  0  0  0
    5.6930    3.0390   27.2370 O   0  0  0  0  0  0  0  0  0  0  0  0
    7.0270    3.2650   27.0120 C   0  0  0  0  0  0  0  0  0  0  0  0
    5.9920   -0.4000   26.4790 C   0  0  0  0  0  0  0  0  0  0  0  0
    7.3230   -2.9900   23.5760 C   0  0  0  0  0  0  0  0  0  0  0  0
    7.6590   -3.1730   22.2510 C   0  0  0  0  0  0  0  0  0  0  0  0
  1  2  1  0
  2  3  2  0
  2  4  1  0
  4  5  1  0
  5  6  1  0
  6  7  1  0
  7  8  1  0
  8  9  2  0
  8 10  1  0
 10 11  1  0
 11 12  2  0
 12 13  1  0
 13 14  2  0
 14 15  1  0
 15 16  1  0
 16 17  1  0
 17 18  1  0
 11 19  1  0
 15 19  2  0
  7 20  1  0
  4 21  1  0
 20 21  1  0
M  END
