piperidine-amides-9003-covalent
     RDKit          3D

 21 22  0  0  0  0  0  0  0  0999 V2000
    7.0930   -3.2940   19.2420 C   0  0  0  0  0  0  0  0  0  0  0  0
    6.3660   -4.0530   20.2620 C   0  0  0  0  0  0  0  0  0  0  0  0
    5.3320   -4.6640   19.9360 O   0  0  0  0  0  0  0  0  0  0  0  0
    6.8460   -4.1410   21.5830 N   0  0  0  0  0  0  0  0  0  0  0  0
    7.7030   -3.1050   22.1270 C   0  0  0  0  0  0  0  0  0  0  0  0
    7.3910   -3.0390   23.5950 C   0  0  0  0  0  0  0  0  0  0  0  0
    6.0580   -3.6580   23.8830 C   0  0  0  0  0  0  0  0  0  0  0  0
    5.5580   -3.4380   25.2610 C   0  0  0  0  0  0  0  0  0  0  0  0
    4.3700   -3.7450   25.5550 O   0  0  0  0  0  0  0  0  0  0  0  0
    6.3360   -2.8740   26.2900 N   0  0  0  0  0  0  0  0  0  0  0  0
    6.3370   -1.4100   26.4620 C   0  0  0  0  0  0  0  0  0  0  0  0
    5.6350   -1.0790   27.7160 C   0  0  2  0  0  0  0  0  0  0  0  0
    4.6280    0.0220   27.6820 C   0  0  0  0  0  0  0  0  0  0  0  0
    4.7190    0.9730   28.8570 C   0  0  0  0  0  0  0  0  0  0  0  0
    6.2800    0.5190   29.6060 S   0  0  0  0  0  0  0  0  0  0  0  0
    7.3180    1.5590   29.5580 O   0  0  0  0  0  0  0  0  0  0  0  0
    6.0740   -0.0160   31.0070 O   0  0  0  0  0  0  0  0  0  0  0  0
    6.6250   -0.6840   28.5210 N   0  0  0  0  0  0  0  0  0  0  0  0
    7.2690   -1.8000   29.1750 C   0  0  0  0  0  0  0  0  0  0  0  0
    6.1190   -5.1150   23.5820 C   0  0  0  0  0  0  0  0  0  0  0  0
    6.5390   -5.3430   22.2980 C   0  0  0  0  0  0  0  0  0  0  0  0
  1  2  1  0
  2  3  2  0
  2  4  1  0
  4  5  1  0
  5  6  1  0
  6  7  1  0
  7  8  1  0
  8  9  2  0
  8 10  1  0
 10 11  1  0
 12 11  1  6
 12 13  1  0
 13 14  1  0
 14 15  1  0
 15 16  2  0
 15 17  2  0
 12 18  1  0
 15 18  1  0
 18 19  1  0
  7 20  1  0
  4 21  1  0
 20 21  1  0
M  END
