piperidine-amides-6808-covalent
     RDKit          3D

 23 24  0  0  0  0  0  0  0  0999 V2000
    7.1130   -3.3480   19.3290 C   0  0  0  0  0  0  0  0  0  0  0  0
    6.3960   -4.1640   20.3130 C   0  0  0  0  0  0  0  0  0  0  0  0
    5.3600   -4.7820   19.9730 O   0  0  0  0  0  0  0  0  0  0  0  0
    6.9050   -4.3000   21.6120 N   0  0  0  0  0  0  0  0  0  0  0  0
    7.7450   -3.2650   22.1730 C   0  0  0  0  0  0  0  0  0  0  0  0
    6.9290   -2.6410   23.2950 C   0  0  0  0  0  0  0  0  0  0  0  0
    6.5190   -3.7870   24.1840 C   0  0  0  0  0  0  0  0  0  0  0  0
    5.7690   -3.2570   25.3340 C   0  0  0  0  0  0  0  0  0  0  0  0
    4.5580   -2.9800   25.1880 O   0  0  0  0  0  0  0  0  0  0  0  0
    6.4380   -3.0860   26.5620 N   0  0  0  0  0  0  0  0  0  0  0  0
    6.4310   -1.8220   27.2500 C   0  0  0  0  0  0  0  0  0  0  0  0
    5.8730   -0.5780   26.5950 C   0  0  0  0  0  0  0  0  0  0  0  0
    5.8320    0.6410   27.1980 C   0  0  0  0  0  0  0  0  0  0  0  0
    6.3070    0.8120   28.4650 C   0  0  0  0  0  0  0  0  0  0  0  0
    6.2480    2.0670   29.0700 C   0  0  0  0  0  0  0  0  0  0  0  0
    4.9540    2.2620   29.3750 N   0  0  0  0  0  0  0  0  0  0  0  0
    4.0100    1.1980   29.4850 C   0  0  0  0  0  0  0  0  0  0  0  0
    4.4940    3.3130   30.0730 C   0  0  0  0  0  0  0  0  0  0  0  0
    6.8410   -0.2380   29.1620 C   0  0  0  0  0  0  0  0  0  0  0  0
    7.4180    0.1130   30.7970 Cl  0  0  0  0  0  0  0  0  0  0  0  0
    6.9640   -1.6390   28.6450 C   0  0  0  0  0  0  0  0  0  0  0  0
    5.6790   -4.8110   23.4480 C   0  0  0  0  0  0  0  0  0  0  0  0
    6.4990   -5.3880   22.4680 C   0  0  0  0  0  0  0  0  0  0  0  0
  1  2  1  0
  2  3  2  0
  2  4  1  0
  4  5  1  0
  5  6  1  0
  6  7  1  0
  7  8  1  0
  8  9  2  0
  8 10  1  0
 10 11  1  0
 11 12  2  0
 12 13  1  0
 13 14  2  0
 14 15  1  0
 15 16  1  0
 16 17  1  0
 16 18  1  0
 14 19  1  0
 19 20  1  0
 11 21  1  0
 19 21  2  0
  7 22  1  0
  4 23  1  0
 22 23  1  0
M  END
