piperidine-amides-14987-covalent
     RDKit          3D

 21 22  0  0  0  0  0  0  0  0999 V2000
    7.0550   -3.3640   19.3460 C   0  0  0  0  0  0  0  0  0  0  0  0
    6.3770   -4.1780   20.3530 C   0  0  0  0  0  0  0  0  0  0  0  0
    5.3800   -4.8260   19.9820 O   0  0  0  0  0  0  0  0  0  0  0  0
    6.8670   -4.2600   21.6840 N   0  0  0  0  0  0  0  0  0  0  0  0
    6.5980   -5.4490   22.4550 C   0  0  0  0  0  0  0  0  0  0  0  0
    6.0240   -5.1090   23.8100 C   0  0  0  0  0  0  0  0  0  0  0  0
    6.0100   -3.6010   23.9550 C   0  0  0  0  0  0  0  0  0  0  0  0
    5.6770   -3.1870   25.3570 C   0  0  0  0  0  0  0  0  0  0  0  0
    4.5070   -3.3270   25.6980 O   0  0  0  0  0  0  0  0  0  0  0  0
    6.6900   -2.6690   26.1560 N   0  0  0  0  0  0  0  0  0  0  0  0
    6.5060   -1.5030   26.9660 C   0  0  0  0  0  0  0  0  0  0  0  0
    5.9770   -0.2850   26.4500 C   0  0  0  0  0  0  0  0  0  0  0  0
    6.1730    0.2120   27.9060 N   0  0  0  0  0  0  0  0  0  0  0  0
    6.6710   -0.5810   28.8550 N   0  0  0  0  0  0  0  0  0  0  0  0
    6.9800   -0.4710   30.2560 C   0  0  0  0  0  0  0  0  0  0  0  0
    6.8970    0.8280   30.7270 C   0  0  0  0  0  0  0  0  0  0  0  0
    6.1590    1.6330   29.8680 O   0  0  0  0  0  0  0  0  0  0  0  0
    6.9050    2.6090   29.2500 C   0  0  0  0  0  0  0  0  0  0  0  0
    6.9050   -1.7080   28.3020 C   0  0  0  0  0  0  0  0  0  0  0  0
    7.2840   -2.9390   23.5950 C   0  0  0  0  0  0  0  0  0  0  0  0
    7.6510   -3.1670   22.1710 C   0  0  0  0  0  0  0  0  0  0  0  0
  1  2  1  0
  2  3  2  0
  2  4  1  0
  4  5  1  0
  5  6  1  0
  6  7  1  0
  7  8  1  0
  8  9  2  0
  8 10  1  0
 10 11  1  0
 11 12  1  0
 12 13  2  0
 13 14  1  0
 14 15  1  0
 15 16  1  0
 16 17  1  0
 17 18  1  0
 11 19  2  0
 14 19  1  0
  7 20  1  0
  4 21  1  0
 20 21  1  0
M  END
