piperidine-amides-33909-covalent
     RDKit          3D

 31 34  0  0  0  0  0  0  0  0999 V2000
    7.0880   -3.3410   19.3560 C   0  0  0  0  0  0  0  0  0  0  0  0
    6.4430   -4.1860   20.3730 C   0  0  0  0  0  0  0  0  0  0  0  0
    5.4270   -4.8280   19.9920 O   0  0  0  0  0  0  0  0  0  0  0  0
    6.9670   -4.3180   21.7000 N   0  0  0  0  0  0  0  0  0  0  0  0
    7.7240   -3.2310   22.2480 C   0  0  0  0  0  0  0  0  0  0  0  0
    7.1950   -2.7710   23.5250 C   0  0  0  0  0  0  0  0  0  0  0  0
    5.8580   -3.3230   23.7660 C   0  0  0  0  0  0  0  0  0  0  0  0
    5.0680   -2.7040   24.9050 C   0  0  0  0  0  0  0  0  0  0  0  0
    3.9580   -2.2320   24.6370 O   0  0  0  0  0  0  0  0  0  0  0  0
    5.4600   -2.6330   26.2500 N   0  0  0  0  0  0  0  0  0  0  0  0
    5.2430   -3.6780   27.1220 C   0  0  0  0  0  0  0  0  0  0  0  0
    6.4100   -4.3730   27.3690 C   0  0  0  0  0  0  0  0  0  0  0  0
    7.2750   -3.5250   28.1890 C   0  0  0  0  0  0  0  0  0  0  0  0
    8.4550   -3.9220   28.5510 C   0  0  0  0  0  0  0  0  0  0  0  0
    8.9520   -5.2900   28.1080 C   0  0  0  0  0  0  0  0  0  0  0  0
    8.0700   -6.1370   27.2710 C   0  0  0  0  0  0  0  0  0  0  0  0
    6.6610   -5.6600   26.8630 C   0  0  0  0  0  0  0  0  0  0  0  0
    5.6660   -6.2680   26.1070 O   0  0  0  0  0  0  0  0  0  0  0  0
    4.5610   -6.9050   26.7510 C   0  0  0  0  0  0  0  0  0  0  0  0
    5.7120   -1.4040   26.9330 C   0  0  0  0  0  0  0  0  0  0  0  0
    6.2110   -0.1500   26.1940 C   0  0  0  0  0  0  0  0  0  0  0  0
    6.4380    1.0820   26.9770 C   0  0  0  0  0  0  0  0  0  0  0  0
    6.2330    1.1590   28.3150 C   0  0  0  0  0  0  0  0  0  0  0  0
    5.7880    0.1060   29.0210 C   0  0  0  0  0  0  0  0  0  0  0  0
    5.5610    0.2940   30.5200 C   0  0  0  0  0  0  0  0  0  0  0  0
    5.1000   -0.6000   31.4170 N   0  0  0  0  0  0  0  0  0  0  0  0
    4.8070   -1.8380   30.8870 C   0  0  0  0  0  0  0  0  0  0  0  0
    5.0050   -2.1460   29.4300 C   0  0  0  0  0  0  0  0  0  0  0  0
    5.5180   -1.1300   28.4320 C   0  0  0  0  0  0  0  0  0  0  0  0
    5.9580   -4.8480   23.9110 C   0  0  0  0  0  0  0  0  0  0  0  0
    6.4380   -5.3860   22.5370 C   0  0  0  0  0  0  0  0  0  0  0  0
  1  2  1  0
  2  3  2  0
  2  4  1  0
  4  5  1  0
  5  6  1  0
  6  7  1  0
  7  8  1  0
  8  9  2  0
  8 10  1  0
 10 11  1  0
 11 12  1  0
 12 13  2  0
 13 14  1  0
 14 15  2  0
 15 16  1  0
 12 17  1  0
 16 17  2  0
 17 18  1  0
 18 19  1  0
 10 20  1  0
 20 21  2  0
 21 22  1  0
 22 23  2  0
 23 24  1  0
 24 25  1  0
 25 26  2  0
 26 27  1  0
 27 28  2  0
 20 29  1  0
 24 29  2  0
 28 29  1  0
  7 30  1  0
  4 31  1  0
 30 31  1  0
M  END
