piperidine-amides-24263-covalent
     RDKit          3D

 23 25  0  0  0  0  0  0  0  0999 V2000
    7.0260   -3.3470   19.4210 C   0  0  0  0  0  0  0  0  0  0  0  0
    6.3750   -4.2500   20.3840 C   0  0  0  0  0  0  0  0  0  0  0  0
    5.3980   -4.9350   20.0040 O   0  0  0  0  0  0  0  0  0  0  0  0
    6.8490   -4.3950   21.7060 N   0  0  0  0  0  0  0  0  0  0  0  0
    6.5880   -5.6440   22.3940 C   0  0  0  0  0  0  0  0  0  0  0  0
    6.1110   -5.2990   23.8170 C   0  0  0  0  0  0  0  0  0  0  0  0
    5.8290   -3.8160   23.8100 C   0  0  0  0  0  0  0  0  0  0  0  0
    5.0630   -3.3670   25.0150 C   0  0  0  0  0  0  0  0  0  0  0  0
    4.0310   -2.7090   24.8140 O   0  0  0  0  0  0  0  0  0  0  0  0
    5.4510   -3.6570   26.3370 N   0  0  0  0  0  0  0  0  0  0  0  0
    4.5210   -3.7400   27.4590 C   0  0  0  0  0  0  0  0  0  0  0  0
    5.3290   -4.3630   28.5480 C   0  0  0  0  0  0  0  0  0  0  0  0
    6.5770   -4.2250   28.1540 C   0  0  0  0  0  0  0  0  0  0  0  0
    6.5110   -3.2430   27.1800 C   0  0  2  0  0  0  0  0  0  0  0  0
    6.2330   -1.9090   27.4770 C   0  0  0  0  0  0  0  0  0  0  0  0
    5.7540   -1.0520   26.5860 C   0  0  0  0  0  0  0  0  0  0  0  0
    5.4220    0.3930   26.7720 C   0  0  0  0  0  0  0  0  0  0  0  0
    5.8040    0.5530   28.2710 C   0  0  0  0  0  0  0  0  0  0  0  0
    6.3590   -0.2880   29.4450 C   0  0  0  0  0  0  0  0  0  0  0  0
    6.7140    0.1660   31.1180 Cl  0  0  0  0  0  0  0  0  0  0  0  0
    6.5010   -1.5630   28.7510 C   0  0  0  0  0  0  0  0  0  0  0  0
    7.1270   -3.0850   23.6270 C   0  0  0  0  0  0  0  0  0  0  0  0
    7.5520   -3.3130   22.3430 C   0  0  0  0  0  0  0  0  0  0  0  0
  1  2  1  0
  2  3  2  0
  2  4  1  0
  4  5  1  0
  5  6  1  0
  6  7  1  0
  7  8  1  0
  8  9  2  0
  8 10  1  0
 10 11  1  0
 11 12  1  0
 12 13  1  0
 10 14  1  0
 13 14  1  0
 14 15  1  1
 15 16  2  0
 16 17  1  0
 17 18  2  0
 18 19  1  0
 19 20  1  0
 15 21  1  0
 19 21  2  0
  7 22  1  0
  4 23  1  0
 22 23  1  0
M  END
