piperidine-amides-13087-covalent
     RDKit          3D

 20 21  0  0  0  0  0  0  0  0999 V2000
    7.0540   -3.3780   19.3460 C   0  0  0  0  0  0  0  0  0  0  0  0
    6.3700   -4.1950   20.3720 C   0  0  0  0  0  0  0  0  0  0  0  0
    5.3690   -4.8270   19.9800 O   0  0  0  0  0  0  0  0  0  0  0  0
    6.8550   -4.2920   21.6950 N   0  0  0  0  0  0  0  0  0  0  0  0
    7.6560   -3.2480   22.2530 C   0  0  0  0  0  0  0  0  0  0  0  0
    7.3160   -2.9650   23.6430 C   0  0  0  0  0  0  0  0  0  0  0  0
    6.0370   -3.5910   24.0350 C   0  0  0  0  0  0  0  0  0  0  0  0
    5.5510   -3.2000   25.3910 C   0  0  0  0  0  0  0  0  0  0  0  0
    4.3190   -3.1170   25.5340 O   0  0  0  0  0  0  0  0  0  0  0  0
    6.3930   -2.9280   26.4920 N   0  0  0  0  0  0  0  0  0  0  0  0
    6.7090   -1.5580   26.9780 C   0  0  1  0  0  0  0  0  0  0  0  0
    5.6840   -0.5680   26.5840 C   0  0  0  0  0  0  0  0  0  0  0  0
    5.7260    0.7120   27.2700 C   0  0  0  0  0  0  0  0  0  0  0  0
    5.9780    0.7300   28.6270 C   0  0  2  0  0  0  0  0  0  0  0  0
    6.7470    1.7600   29.1300 C   0  0  0  0  0  0  0  0  0  0  0  0
    6.5570   -0.5330   29.1870 C   0  0  1  0  0  0  0  0  0  0  0  0
    5.7390   -1.1410   30.0950 C   0  0  0  0  0  0  0  0  0  0  0  0
    7.1790   -1.4040   28.3030 C   0  0  0  0  0  0  0  0  0  0  0  0
    6.0730   -5.0900   23.8340 C   0  0  0  0  0  0  0  0  0  0  0  0
    6.6590   -5.4730   22.5140 C   0  0  0  0  0  0  0  0  0  0  0  0
  1  2  1  0
  2  3  2  0
  2  4  1  0
  4  5  1  0
  5  6  1  0
  6  7  1  0
  7  8  1  0
  8  9  2  0
  8 10  1  0
 11 10  1  1
 11 12  1  0
 12 13  1  0
 13 14  1  0
 14 15  1  6
 14 16  1  0
 16 17  1  6
 11 18  1  0
 16 18  1  0
  7 19  1  0
  4 20  1  0
 19 20  1  0
M  END
