piperidine-amides-8418-covalent
     RDKit          3D

 24 26  0  0  0  0  0  0  0  0999 V2000
    7.0560   -3.3020   19.3250 C   0  0  0  0  0  0  0  0  0  0  0  0
    6.3610   -4.1130   20.3230 C   0  0  0  0  0  0  0  0  0  0  0  0
    5.3470   -4.7320   19.9550 O   0  0  0  0  0  0  0  0  0  0  0  0
    6.8530   -4.2290   21.6560 N   0  0  0  0  0  0  0  0  0  0  0  0
    7.6530   -3.1550   22.2050 C   0  0  0  0  0  0  0  0  0  0  0  0
    7.4290   -3.0140   23.6920 C   0  0  0  0  0  0  0  0  0  0  0  0
    6.0750   -3.6140   23.9780 C   0  0  0  0  0  0  0  0  0  0  0  0
    5.5610   -3.2900   25.3570 C   0  0  0  0  0  0  0  0  0  0  0  0
    4.3530   -3.0810   25.4290 O   0  0  0  0  0  0  0  0  0  0  0  0
    6.4340   -3.2420   26.4400 N   0  0  0  0  0  0  0  0  0  0  0  0
    6.0050   -3.5090   27.7840 C   0  0  0  0  0  0  0  0  0  0  0  0
    6.4510   -4.7160   28.3450 C   0  0  0  0  0  0  0  0  0  0  0  0
    5.7110   -5.4620   29.2220 C   0  0  0  0  0  0  0  0  0  0  0  0
    5.9340   -6.7870   29.4770 C   0  0  0  0  0  0  0  0  0  0  0  0
    5.0810   -7.3700   30.3910 N   0  0  0  0  0  0  0  0  0  0  0  0
    4.2560   -6.2090   30.7050 C   0  0  0  0  0  0  0  0  0  0  0  0
    3.0860   -6.2240   31.7030 C   0  0  0  0  0  0  0  0  0  0  0  0
    2.3770   -4.9150   31.8740 C   0  0  0  0  0  0  0  0  0  0  0  0
    2.9470   -3.7940   31.0170 C   0  0  0  0  0  0  0  0  0  0  0  0
    2.2900   -2.3940   31.1170 C   0  0  0  0  0  0  0  0  0  0  0  0
    4.0090   -3.8810   30.1410 C   0  0  0  0  0  0  0  0  0  0  0  0
    4.6340   -5.0840   30.0080 C   0  0  0  0  0  0  0  0  0  0  0  0
    6.0810   -5.0870   23.7680 C   0  0  0  0  0  0  0  0  0  0  0  0
    6.6280   -5.4320   22.4130 C   0  0  0  0  0  0  0  0  0  0  0  0
  1  2  1  0
  2  3  2  0
  2  4  1  0
  4  5  1  0
  5  6  1  0
  6  7  1  0
  7  8  1  0
  8  9  2  0
  8 10  1  0
 10 11  1  0
 11 12  1  0
 12 13  1  0
 13 14  2  0
 14 15  1  0
 15 16  1  0
 16 17  1  0
 17 18  2  0
 18 19  1  0
 19 20  1  0
 19 21  2  0
 13 22  1  0
 16 22  2  0
 21 22  1  0
  7 23  1  0
  4 24  1  0
 23 24  1  0
M  END
