piperidine-amides-1550-covalent
     RDKit          3D

 22 23  0  0  0  0  0  0  0  0999 V2000
    7.1400   -3.2910   19.2660 C   0  0  0  0  0  0  0  0  0  0  0  0
    6.3310   -4.0540   20.2520 C   0  0  0  0  0  0  0  0  0  0  0  0
    5.2560   -4.5530   19.8840 O   0  0  0  0  0  0  0  0  0  0  0  0
    6.8270   -4.2450   21.5590 N   0  0  0  0  0  0  0  0  0  0  0  0
    6.6550   -5.4900   22.2700 C   0  0  0  0  0  0  0  0  0  0  0  0
    6.0630   -5.1570   23.6430 C   0  0  0  0  0  0  0  0  0  0  0  0
    5.9050   -3.6790   23.7020 C   0  0  0  0  0  0  0  0  0  0  0  0
    5.1940   -3.2180   24.9090 C   0  0  0  0  0  0  0  0  0  0  0  0
    4.3110   -3.9600   25.3480 O   0  0  0  0  0  0  0  0  0  0  0  0
    5.5060   -2.0050   25.5020 N   0  0  0  0  0  0  0  0  0  0  0  0
    5.7020   -1.8180   26.8760 C   0  0  0  0  0  0  0  0  0  0  0  0
    6.7370   -2.4000   27.4760 C   0  0  0  0  0  0  0  0  0  0  0  0
    6.9570   -3.7820   27.3400 C   0  0  0  0  0  0  0  0  0  0  0  0
    8.0130   -4.4220   27.9240 C   0  0  0  0  0  0  0  0  0  0  0  0
    8.3850   -5.6650   27.9290 O   0  0  0  0  0  0  0  0  0  0  0  0
    8.3170   -6.1380   26.7440 C   0  0  0  0  0  0  0  0  0  0  0  0
    8.8370   -3.6390   28.6320 C   0  0  0  0  0  0  0  0  0  0  0  0
    8.6590   -2.1540   28.8320 C   0  0  0  0  0  0  0  0  0  0  0  0
    7.5940   -1.6520   28.2240 C   0  0  0  0  0  0  0  0  0  0  0  0
    7.2040   -0.3270   28.2590 O   0  0  0  0  0  0  0  0  0  0  0  0
    7.1780   -2.9290   23.5420 C   0  0  0  0  0  0  0  0  0  0  0  0
    7.6800   -3.2250   22.1460 C   0  0  0  0  0  0  0  0  0  0  0  0
  1  2  1  0
  2  3  2  0
  2  4  1  0
  4  5  1  0
  5  6  1  0
  6  7  1  0
  7  8  1  0
  8  9  2  0
  8 10  1  0
 10 11  1  0
 11 12  1  0
 12 13  2  0
 13 14  1  0
 14 15  1  0
 15 16  1  0
 14 17  2  0
 17 18  1  0
 12 19  1  0
 18 19  2  0
 19 20  1  0
  7 21  1  0
  4 22  1  0
 21 22  1  0
M  END
