piperidine-amides-17218-covalent
     RDKit          3D

 20 21  0  0  0  0  0  0  0  0999 V2000
    7.0730   -3.3440   19.3380 C   0  0  0  0  0  0  0  0  0  0  0  0
    6.4060   -4.1910   20.3440 C   0  0  0  0  0  0  0  0  0  0  0  0
    5.3760   -4.8050   19.9730 O   0  0  0  0  0  0  0  0  0  0  0  0
    6.9410   -4.3500   21.6530 N   0  0  0  0  0  0  0  0  0  0  0  0
    6.4540   -5.4060   22.4630 C   0  0  0  0  0  0  0  0  0  0  0  0
    5.9660   -5.0020   23.7900 C   0  0  0  0  0  0  0  0  0  0  0  0
    6.5830   -3.7920   24.3990 C   0  0  0  0  0  0  0  0  0  0  0  0
    5.7590   -3.2820   25.5570 C   0  0  0  0  0  0  0  0  0  0  0  0
    4.5140   -3.1890   25.4520 O   0  0  0  0  0  0  0  0  0  0  0  0
    6.3470   -2.9280   26.7970 N   0  0  0  0  0  0  0  0  0  0  0  0
    6.5920   -3.8340   27.8620 C   0  0  0  0  0  0  0  0  0  0  0  0
    6.6250   -1.4980   27.0930 C   0  0  2  0  0  0  0  0  0  0  0  0
    7.1410   -1.2080   28.5450 C   0  0  0  0  0  0  0  0  0  0  0  0
    6.6990   -0.1000   29.2550 C   0  0  0  0  0  0  0  0  0  0  0  0
    5.3340   -0.1520   28.6190 C   0  0  0  0  0  0  0  0  0  0  0  0
    5.9620    0.5400   27.4690 C   0  0  0  0  0  0  0  0  0  0  0  0
    5.4810   -0.6520   26.6410 C   0  0  1  0  0  0  0  0  0  0  0  0
    5.3550   -0.5000   25.2610 O   0  0  0  0  0  0  0  0  0  0  0  0
    6.8490   -2.6950   23.3960 C   0  0  0  0  0  0  0  0  0  0  0  0
    7.6930   -3.2850   22.2880 C   0  0  0  0  0  0  0  0  0  0  0  0
  1  2  1  0
  2  3  2  0
  2  4  1  0
  4  5  1  0
  5  6  1  0
  6  7  1  0
  7  8  1  0
  8  9  2  0
  8 10  1  0
 10 11  1  0
 12 10  1  1
 12 13  1  0
 13 14  1  0
 14 15  1  0
 15 16  1  0
 12 17  1  0
 16 17  1  0
 17 18  1  6
  7 19  1  0
  4 20  1  0
 19 20  1  0
M  END
