piperidine-amides-27343-covalent
     RDKit          3D

 25 26  0  0  0  0  0  0  0  0999 V2000
    7.1000   -3.3460   19.3040 C   0  0  0  0  0  0  0  0  0  0  0  0
    6.4520   -4.2110   20.2910 C   0  0  0  0  0  0  0  0  0  0  0  0
    5.3520   -4.7180   19.9470 O   0  0  0  0  0  0  0  0  0  0  0  0
    7.0800   -4.5060   21.5080 N   0  0  0  0  0  0  0  0  0  0  0  0
    6.7470   -5.6860   22.2470 C   0  0  0  0  0  0  0  0  0  0  0  0
    5.8760   -5.2420   23.3770 C   0  0  0  0  0  0  0  0  0  0  0  0
    6.4270   -4.0430   24.1000 C   0  0  0  0  0  0  0  0  0  0  0  0
    5.4190   -3.6030   25.0730 C   0  0  0  0  0  0  0  0  0  0  0  0
    4.3650   -3.1060   24.6470 O   0  0  0  0  0  0  0  0  0  0  0  0
    5.5940   -3.6700   26.4410 N   0  0  0  0  0  0  0  0  0  0  0  0
    6.4170   -2.6270   26.9230 C   0  0  0  0  0  0  0  0  0  0  0  0
    6.6020   -2.9160   28.3700 C   0  0  1  0  0  0  0  0  0  0  0  0
    5.7780   -2.1650   29.1500 C   0  0  0  0  0  0  0  0  0  0  0  0
    4.4740   -1.7770   28.7420 O   0  0  0  0  0  0  0  0  0  0  0  0
    6.3330   -1.8290   30.3210 O   0  0  0  0  0  0  0  0  0  0  0  0
    7.3860   -0.8930   30.3480 C   0  0  0  0  0  0  0  0  0  0  0  0
    6.3250   -4.1970   28.7400 C   0  0  0  0  0  0  0  0  0  0  0  0
    5.0810   -4.6340   28.4550 C   0  0  0  0  0  0  0  0  0  0  0  0
    4.5160   -4.0860   27.3200 C   0  0  2  0  0  0  0  0  0  0  0  0
    3.5350   -5.0220   26.6420 C   0  0  0  0  0  0  0  0  0  0  0  0
    2.5250   -5.6320   27.3600 O   0  0  0  0  0  0  0  0  0  0  0  0
    3.6020   -5.3020   25.2860 O   0  0  0  0  0  0  0  0  0  0  0  0
    2.6090   -4.8710   24.3680 C   0  0  0  0  0  0  0  0  0  0  0  0
    6.7990   -2.8750   23.1750 C   0  0  0  0  0  0  0  0  0  0  0  0
    7.8050   -3.4700   22.2280 C   0  0  0  0  0  0  0  0  0  0  0  0
  1  2  1  0
  2  3  2  0
  2  4  1  0
  4  5  1  0
  5  6  1  0
  6  7  1  0
  7  8  1  0
  8  9  2  0
  8 10  1  0
 10 11  1  0
 11 12  1  0
 12 13  1  1
 13 14  2  0
 13 15  1  0
 15 16  1  0
 12 17  1  0
 17 18  1  0
 10 19  1  0
 18 19  1  0
 19 20  1  6
 20 21  2  0
 20 22  1  0
 22 23  1  0
  7 24  1  0
  4 25  1  0
 24 25  1  0
M  END
