piperidine-amides-3492-covalent
     RDKit          3D

 20 22  0  0  0  0  0  0  0  0999 V2000
    7.0720   -3.3450   19.2600 C   0  0  0  0  0  0  0  0  0  0  0  0
    6.3730   -4.1560   20.2490 C   0  0  0  0  0  0  0  0  0  0  0  0
    5.3280   -4.7270   19.9480 O   0  0  0  0  0  0  0  0  0  0  0  0
    6.9320   -4.3460   21.5520 N   0  0  0  0  0  0  0  0  0  0  0  0
    7.6840   -3.2760   22.1630 C   0  0  0  0  0  0  0  0  0  0  0  0
    6.9090   -2.7000   23.3060 C   0  0  0  0  0  0  0  0  0  0  0  0
    6.5150   -3.8520   24.2100 C   0  0  0  0  0  0  0  0  0  0  0  0
    5.7910   -3.3160   25.3880 C   0  0  0  0  0  0  0  0  0  0  0  0
    4.5480   -3.3520   25.4930 O   0  0  0  0  0  0  0  0  0  0  0  0
    6.5570   -2.7390   26.4200 N   0  0  0  0  0  0  0  0  0  0  0  0
    5.9130   -1.8220   27.3220 C   0  0  1  0  0  0  0  0  0  0  0  0
    6.7690   -1.0100   27.9550 C   0  0  0  0  0  0  0  0  0  0  0  0
    5.9930   -0.2880   26.9800 C   0  0  2  0  0  0  0  0  0  0  0  0
    4.9670    0.6110   27.3160 C   0  0  0  0  0  0  0  0  0  0  0  0
    5.4760    1.8930   27.5040 C   0  0  0  0  0  0  0  0  0  0  0  0
    5.0820    2.2600   28.8260 C   0  0  0  0  0  0  0  0  0  0  0  0
    4.3960    1.2430   29.3780 C   0  0  0  0  0  0  0  0  0  0  0  0
    4.2870    0.1830   28.4810 C   0  0  0  0  0  0  0  0  0  0  0  0
    5.8160   -4.9940   23.5680 C   0  0  0  0  0  0  0  0  0  0  0  0
    6.4530   -5.4320   22.3290 C   0  0  0  0  0  0  0  0  0  0  0  0
  1  2  1  0
  2  3  2  0
  2  4  1  0
  4  5  1  0
  5  6  1  0
  6  7  1  0
  7  8  1  0
  8  9  2  0
  8 10  1  0
 11 10  1  6
 11 12  1  0
 11 13  1  0
 12 13  1  0
 13 14  1  1
 14 15  1  0
 15 16  1  0
 16 17  1  0
 14 18  1  0
 17 18  1  0
  7 19  1  0
  4 20  1  0
 19 20  1  0
M  END
