piperidine-amides-12902-covalent
     RDKit          3D

 21 22  0  0  0  0  0  0  0  0999 V2000
    7.0710   -3.3790   19.3230 C   0  0  0  0  0  0  0  0  0  0  0  0
    6.3720   -4.1880   20.3420 C   0  0  0  0  0  0  0  0  0  0  0  0
    5.3410   -4.7790   19.9660 O   0  0  0  0  0  0  0  0  0  0  0  0
    6.8910   -4.3180   21.6410 N   0  0  0  0  0  0  0  0  0  0  0  0
    6.5420   -5.4390   22.4530 C   0  0  0  0  0  0  0  0  0  0  0  0
    5.9730   -5.0290   23.7320 C   0  0  0  0  0  0  0  0  0  0  0  0
    6.0880   -3.5740   23.9590 C   0  0  0  0  0  0  0  0  0  0  0  0
    5.6520   -3.2040   25.3250 C   0  0  0  0  0  0  0  0  0  0  0  0
    4.4300   -3.2130   25.5740 O   0  0  0  0  0  0  0  0  0  0  0  0
    6.5790   -2.8540   26.3150 N   0  0  0  0  0  0  0  0  0  0  0  0
    6.4880   -1.6230   27.1360 C   0  0  0  0  0  0  0  0  0  0  0  0
    6.9950   -1.7490   28.5530 C   0  0  0  0  0  0  0  0  0  0  0  0
    6.9580   -0.6370   29.4560 C   0  0  0  0  0  0  0  0  0  0  0  0
    6.6580    0.6410   29.7090 C   0  0  0  0  0  0  0  0  0  0  0  0
    6.8330    1.2390   30.7850 O   0  0  0  0  0  0  0  0  0  0  0  0
    6.1370    1.1040   28.5400 C   0  0  0  0  0  0  0  0  0  0  0  0
    6.4070   -0.2060   28.1810 O   0  0  0  0  0  0  0  0  0  0  0  0
    5.7710    0.9060   27.2390 C   0  0  0  0  0  0  0  0  0  0  0  0
    5.9140   -0.3240   26.5650 C   0  0  0  0  0  0  0  0  0  0  0  0
    7.4000   -3.0000   23.5740 C   0  0  0  0  0  0  0  0  0  0  0  0
    7.6700   -3.2370   22.2210 C   0  0  0  0  0  0  0  0  0  0  0  0
  1  2  1  0
  2  3  2  0
  2  4  1  0
  4  5  1  0
  5  6  1  0
  6  7  1  0
  7  8  1  0
  8  9  2  0
  8 10  1  0
 10 11  1  0
 11 12  2  0
 12 13  1  0
 13 14  2  0
 14 15  1  0
 14 16  1  0
 16 17  2  0
 16 18  1  0
 11 19  1  0
 18 19  2  0
  7 20  1  0
  4 21  1  0
 20 21  1  0
M  END
