piperidine-amides-28026-covalent
     RDKit          3D

 26 27  0  0  0  0  0  0  0  0999 V2000
    7.0340   -3.3550   19.3470 C   0  0  0  0  0  0  0  0  0  0  0  0
    6.3670   -4.2310   20.3380 C   0  0  0  0  0  0  0  0  0  0  0  0
    5.3390   -4.8230   19.9650 O   0  0  0  0  0  0  0  0  0  0  0  0
    6.9110   -4.4110   21.6190 N   0  0  0  0  0  0  0  0  0  0  0  0
    6.4650   -5.4970   22.4400 C   0  0  0  0  0  0  0  0  0  0  0  0
    5.6800   -5.0920   23.6220 C   0  0  0  0  0  0  0  0  0  0  0  0
    5.8860   -3.6780   23.9990 C   0  0  0  0  0  0  0  0  0  0  0  0
    5.4410   -3.3540   25.3910 C   0  0  0  0  0  0  0  0  0  0  0  0
    4.2160   -3.2180   25.5510 O   0  0  0  0  0  0  0  0  0  0  0  0
    6.2940   -3.2100   26.5210 N   0  0  0  0  0  0  0  0  0  0  0  0
    6.3900   -1.8810   27.2450 C   0  0  0  0  0  0  0  0  0  0  0  0
    6.8900   -1.7850   28.4640 N   0  0  0  0  0  0  0  0  0  0  0  0
    6.9990   -0.6420   29.1640 C   0  0  0  0  0  0  0  0  0  0  0  0
    6.5440    0.6280   28.6010 C   0  0  0  0  0  0  0  0  0  0  0  0
    6.0030    0.6480   27.3410 C   0  0  0  0  0  0  0  0  0  0  0  0
    5.5230    1.7400   26.6440 C   0  0  0  0  0  0  0  0  0  0  0  0
    5.1640    2.9560   27.3020 N   0  0  0  0  0  0  0  0  0  0  0  0
    5.9120   -0.6440   26.6130 C   0  0  0  0  0  0  0  0  0  0  0  0
    5.3540   -0.4310   25.4020 N   0  0  0  0  0  0  0  0  0  0  0  0
    4.1050   -0.1590   25.5540 O   0  0  0  0  0  0  0  0  0  0  0  0
    6.0650    0.2490   24.4630 O   0  0  0  0  0  0  0  0  0  0  0  0
    6.3950   -4.4280   27.3430 C   0  0  0  0  0  0  0  0  0  0  0  0
    6.9270   -4.2640   28.5870 C   0  0  0  0  0  0  0  0  0  0  0  0
    7.0430   -5.4860   26.7370 C   0  0  0  0  0  0  0  0  0  0  0  0
    7.2470   -3.2420   23.7230 C   0  0  0  0  0  0  0  0  0  0  0  0
    7.6440   -3.3360   22.2800 C   0  0  0  0  0  0  0  0  0  0  0  0
  1  2  1  0
  2  3  2  0
  2  4  1  0
  4  5  1  0
  5  6  1  0
  6  7  1  0
  7  8  1  0
  8  9  2  0
  8 10  1  0
 10 11  1  0
 11 12  2  0
 12 13  1  0
 13 14  2  0
 14 15  1  0
 15 16  1  0
 16 17  3  0
 11 18  1  0
 15 18  2  0
 18 19  1  0
 19 20  2  0
 19 21  1  0
 10 22  1  0
 22 23  1  0
 22 24  1  0
  7 25  1  0
  4 26  1  0
 25 26  1  0
M  CHG  2  19   1  21  -1
M  END
