piperidine-amides-24502-covalent
     RDKit          3D

 23 25  0  0  0  0  0  0  0  0999 V2000
    7.0970   -3.2680   19.2370 C   0  0  0  0  0  0  0  0  0  0  0  0
    6.3520   -4.0590   20.2310 C   0  0  0  0  0  0  0  0  0  0  0  0
    5.2850   -4.6180   19.9090 O   0  0  0  0  0  0  0  0  0  0  0  0
    6.8470   -4.2510   21.5260 N   0  0  0  0  0  0  0  0  0  0  0  0
    6.4890   -5.4580   22.2280 C   0  0  0  0  0  0  0  0  0  0  0  0
    5.5490   -5.0130   23.3480 C   0  0  0  0  0  0  0  0  0  0  0  0
    6.3300   -3.9910   24.1360 C   0  0  0  0  0  0  0  0  0  0  0  0
    5.5540   -3.5970   25.3310 C   0  0  0  0  0  0  0  0  0  0  0  0
    5.1190   -2.4280   25.3870 O   0  0  0  0  0  0  0  0  0  0  0  0
    5.2850   -4.5330   26.3710 N   0  0  0  0  0  0  0  0  0  0  0  0
    4.0550   -4.4490   27.0430 C   0  0  0  0  0  0  0  0  0  0  0  0
    4.8710   -4.4830   28.2870 C   0  0  0  0  0  0  0  0  0  0  0  0
    5.0120   -3.3840   29.0920 C   0  0  0  0  0  0  0  0  0  0  0  0
    6.1310   -2.8790   29.4020 O   0  0  0  0  0  0  0  0  0  0  0  0
    3.7970   -2.8480   29.5590 N   0  0  0  0  0  0  0  0  0  0  0  0
    3.6400   -2.6200   30.9330 C   0  0  0  0  0  0  0  0  0  0  0  0
    3.8480   -1.5580   31.7430 N   0  0  0  0  0  0  0  0  0  0  0  0
    3.5420   -1.7940   33.1350 C   0  0  0  0  0  0  0  0  0  0  0  0
    3.0990   -3.0530   33.3520 C   0  0  0  0  0  0  0  0  0  0  0  0
    3.0300   -4.0230   31.8760 S   0  0  0  0  0  0  0  0  0  0  0  0
    6.2140   -4.6060   27.5390 C   0  0  0  0  0  0  0  0  0  0  0  0
    6.7470   -2.8080   23.3210 C   0  0  0  0  0  0  0  0  0  0  0  0
    7.6530   -3.2610   22.2250 C   0  0  0  0  0  0  0  0  0  0  0  0
  1  2  1  0
  2  3  2  0
  2  4  1  0
  4  5  1  0
  5  6  1  0
  6  7  1  0
  7  8  1  0
  8  9  2  0
  8 10  1  0
 10 11  1  0
 11 12  1  0
 12 13  1  0
 13 14  2  0
 13 15  1  0
 15 16  1  0
 16 17  2  0
 17 18  1  0
 18 19  2  0
 16 20  1  0
 19 20  1  0
 10 21  1  0
 12 21  1  0
  7 22  1  0
  4 23  1  0
 22 23  1  0
M  END
