piperidine-amides-11430-covalent
     RDKit          3D

 24 26  0  0  0  0  0  0  0  0999 V2000
    7.0430   -3.2340   19.1860 C   0  0  0  0  0  0  0  0  0  0  0  0
    6.2690   -3.9770   20.1870 C   0  0  0  0  0  0  0  0  0  0  0  0
    5.2110   -4.5220   19.8530 O   0  0  0  0  0  0  0  0  0  0  0  0
    6.7090   -4.1360   21.5020 N   0  0  0  0  0  0  0  0  0  0  0  0
    7.6540   -3.2140   22.1030 C   0  0  0  0  0  0  0  0  0  0  0  0
    7.0140   -2.7470   23.3810 C   0  0  0  0  0  0  0  0  0  0  0  0
    6.6330   -3.9200   24.2290 C   0  0  0  0  0  0  0  0  0  0  0  0
    5.9290   -3.4950   25.4640 C   0  0  0  0  0  0  0  0  0  0  0  0
    4.6770   -3.2800   25.4580 O   0  0  0  0  0  0  0  0  0  0  0  0
    6.6160   -3.3120   26.6940 N   0  0  0  0  0  0  0  0  0  0  0  0
    7.1110   -4.4720   27.4740 C   0  0  0  0  0  0  0  0  0  0  0  0
    7.8990   -5.3360   26.5690 C   0  0  0  0  0  0  0  0  0  0  0  0
    8.8310   -4.6870   25.6290 C   0  0  2  0  0  0  0  0  0  0  0  0
    9.7860   -4.0340   26.3220 C   0  0  0  0  0  0  0  0  0  0  0  0
    8.9590   -3.1440   25.3300 C   0  0  1  0  0  0  0  0  0  0  0  0
    9.8940   -3.0040   24.1880 C   0  0  0  0  0  0  0  0  0  0  0  0
   11.1860   -2.8260   24.5910 C   0  0  0  0  0  0  0  0  0  0  0  0
   11.7790   -3.7740   25.4920 C   0  0  0  0  0  0  0  0  0  0  0  0
   13.2110   -3.7510   26.0420 C   0  0  0  0  0  0  0  0  0  0  0  0
   13.9930   -2.6010   25.5620 C   0  0  0  0  0  0  0  0  0  0  0  0
   13.0830   -1.8660   24.6860 C   0  0  0  0  0  0  0  0  0  0  0  0
   12.0270   -1.7730   24.1970 C   0  0  0  0  0  0  0  0  0  0  0  0
    5.8400   -4.9530   23.5270 C   0  0  0  0  0  0  0  0  0  0  0  0
    6.3260   -5.2730   22.2760 C   0  0  0  0  0  0  0  0  0  0  0  0
  1  2  1  0
  2  3  2  0
  2  4  1  0
  4  5  1  0
  5  6  1  0
  6  7  1  0
  7  8  1  0
  8  9  2  0
  8 10  1  0
 10 11  1  0
 11 12  1  0
 13 12  1  1
 13 14  1  0
 13 15  1  0
 14 15  1  0
 15 16  1  6
 16 17  1  0
 17 18  2  0
 18 19  1  0
 19 20  2  0
 20 21  1  0
 17 22  1  0
 21 22  2  0
  7 23  1  0
  4 24  1  0
 23 24  1  0
M  END
