piperidine-amides-24641-covalent
     RDKit          3D

 24 26  0  0  0  0  0  0  0  0999 V2000
    7.1500   -3.2900   19.2050 C   0  0  0  0  0  0  0  0  0  0  0  0
    6.4370   -4.0900   20.2080 C   0  0  0  0  0  0  0  0  0  0  0  0
    5.3420   -4.6230   19.9230 O   0  0  0  0  0  0  0  0  0  0  0  0
    7.0110   -4.3270   21.4610 N   0  0  0  0  0  0  0  0  0  0  0  0
    7.7830   -3.2930   22.1080 C   0  0  0  0  0  0  0  0  0  0  0  0
    6.8650   -2.6980   23.1610 C   0  0  0  0  0  0  0  0  0  0  0  0
    6.3570   -3.8500   24.0020 C   0  0  0  0  0  0  0  0  0  0  0  0
    5.3500   -3.3320   24.9180 C   0  0  0  0  0  0  0  0  0  0  0  0
    4.3640   -2.7330   24.4460 O   0  0  0  0  0  0  0  0  0  0  0  0
    5.5170   -3.5070   26.2840 N   0  0  0  0  0  0  0  0  0  0  0  0
    6.3630   -2.6040   26.9530 C   0  0  0  0  0  0  0  0  0  0  0  0
    6.4780   -3.0520   28.3830 C   0  0  1  0  0  0  0  0  0  0  0  0
    6.2110   -2.0440   29.2780 C   0  0  0  0  0  0  0  0  0  0  0  0
    5.0330   -1.8280   29.6880 O   0  0  0  0  0  0  0  0  0  0  0  0
    4.2990   -2.9010   30.1000 C   0  0  0  0  0  0  0  0  0  0  0  0
    4.7460   -4.1270   29.6020 C   0  0  0  0  0  0  0  0  0  0  0  0
    5.4200   -4.0780   28.4430 C   0  0  2  0  0  0  0  0  0  0  0  0
    5.6160   -5.4630   27.8550 C   0  0  0  0  0  0  0  0  0  0  0  0
    6.0230   -5.5240   26.5660 O   0  0  0  0  0  0  0  0  0  0  0  0
    5.3340   -6.4900   28.6550 N   0  0  0  0  0  0  0  0  0  0  0  0
    6.2450   -7.0680   29.5550 C   0  0  0  0  0  0  0  0  0  0  0  0
    4.6890   -3.5330   27.4610 C   0  0  0  0  0  0  0  0  0  0  0  0
    5.6910   -4.9390   23.1870 C   0  0  0  0  0  0  0  0  0  0  0  0
    6.5950   -5.4440   22.2550 C   0  0  0  0  0  0  0  0  0  0  0  0
  1  2  1  0
  2  3  2  0
  2  4  1  0
  4  5  1  0
  5  6  1  0
  6  7  1  0
  7  8  1  0
  8  9  2  0
  8 10  1  0
 10 11  1  0
 12 11  1  6
 12 13  1  0
 13 14  1  0
 14 15  1  0
 15 16  1  0
 12 17  1  0
 16 17  1  0
 17 18  1  6
 18 19  2  0
 18 20  1  0
 20 21  1  0
 10 22  1  0
 17 22  1  0
  7 23  1  0
  4 24  1  0
 23 24  1  0
M  END
