piperidine-amides-28169-covalent
     RDKit          3D

 26 28  0  0  0  0  0  0  0  0999 V2000
    7.1490   -3.3260   19.2890 C   0  0  0  0  0  0  0  0  0  0  0  0
    6.3990   -4.1110   20.2850 C   0  0  0  0  0  0  0  0  0  0  0  0
    5.3170   -4.6090   19.9130 O   0  0  0  0  0  0  0  0  0  0  0  0
    6.9380   -4.3200   21.5580 N   0  0  0  0  0  0  0  0  0  0  0  0
    6.5680   -5.4680   22.3070 C   0  0  0  0  0  0  0  0  0  0  0  0
    6.1230   -5.1510   23.6670 C   0  0  0  0  0  0  0  0  0  0  0  0
    6.8020   -4.0090   24.3210 C   0  0  0  0  0  0  0  0  0  0  0  0
    5.9790   -3.5360   25.4520 C   0  0  0  0  0  0  0  0  0  0  0  0
    4.9860   -2.8480   25.1510 O   0  0  0  0  0  0  0  0  0  0  0  0
    6.2890   -3.8670   26.8010 N   0  0  0  0  0  0  0  0  0  0  0  0
    7.0610   -5.1260   27.0350 C   0  0  0  0  0  0  0  0  0  0  0  0
    6.1870   -6.1020   27.6540 C   0  0  0  0  0  0  0  0  0  0  0  0
    5.4550   -5.5940   28.4980 O   0  0  0  0  0  0  0  0  0  0  0  0
    6.0620   -4.4930   28.8170 C   0  0  0  0  0  0  0  0  0  0  0  0
    5.2590   -3.8670   27.7890 C   0  0  0  0  0  0  0  0  0  0  0  0
    5.1720   -2.5040   27.2990 C   0  0  0  0  0  0  0  0  0  0  0  0
    5.9400   -1.5180   27.8110 C   0  0  0  0  0  0  0  0  0  0  0  0
    6.7100   -1.9610   28.7530 C   0  0  0  0  0  0  0  0  0  0  0  0
    6.5640   -3.2640   28.9860 C   0  0  0  0  0  0  0  0  0  0  0  0
    5.6120   -3.1890   27.9420 C   0  0  2  0  0  0  0  0  0  0  0  0
    4.1750   -3.6230   28.2420 C   0  0  0  0  0  0  0  0  0  0  0  0
    3.9460   -4.3870   29.2240 O   0  0  0  0  0  0  0  0  0  0  0  0
    3.0570   -3.2030   27.5210 O   0  0  0  0  0  0  0  0  0  0  0  0
    2.8070   -3.6130   26.1600 C   0  0  0  0  0  0  0  0  0  0  0  0
    7.0330   -2.8690   23.3220 C   0  0  0  0  0  0  0  0  0  0  0  0
    7.7590   -3.3290   22.2180 C   0  0  0  0  0  0  0  0  0  0  0  0
  1  2  1  0
  2  3  2  0
  2  4  1  0
  4  5  1  0
  5  6  1  0
  6  7  1  0
  7  8  1  0
  8  9  2  0
  8 10  1  0
 10 11  1  0
 11 12  1  0
 12 13  1  0
 13 14  1  0
 14 15  1  0
 15 16  2  0
 16 17  1  0
 17 18  2  0
 14 19  2  0
 18 19  1  0
 10 20  1  0
 19 20  1  0
 20 21  1  1
 21 22  2  0
 21 23  1  0
 23 24  1  0
  7 25  1  0
  4 26  1  0
 25 26  1  0
M  END
