piperidine-amides-25150-covalent
     RDKit          3D

 25 28  0  0  0  0  0  0  0  0999 V2000
    7.0280   -3.3690   19.4400 C   0  0  0  0  0  0  0  0  0  0  0  0
    6.3930   -4.2870   20.4210 C   0  0  0  0  0  0  0  0  0  0  0  0
    5.4290   -4.9380   20.0080 O   0  0  0  0  0  0  0  0  0  0  0  0
    6.9030   -4.4260   21.7290 N   0  0  0  0  0  0  0  0  0  0  0  0
    6.5600   -5.5720   22.5370 C   0  0  0  0  0  0  0  0  0  0  0  0
    5.9690   -5.1210   23.8590 C   0  0  0  0  0  0  0  0  0  0  0  0
    5.7500   -3.6020   23.8210 C   0  0  0  0  0  0  0  0  0  0  0  0
    4.9370   -3.0850   24.9740 C   0  0  0  0  0  0  0  0  0  0  0  0
    3.9780   -2.3620   24.7110 O   0  0  0  0  0  0  0  0  0  0  0  0
    5.1670   -3.3520   26.3340 N   0  0  0  0  0  0  0  0  0  0  0  0
    6.4440   -3.4070   26.7310 C   0  0  0  0  0  0  0  0  0  0  0  0
    6.2650   -4.4530   27.8090 C   0  0  1  0  0  0  0  0  0  0  0  0
    6.6730   -4.0760   28.9950 C   0  0  0  0  0  0  0  0  0  0  0  0
    5.9940   -2.9620   29.0900 C   0  0  0  0  0  0  0  0  0  0  0  0
    4.8350   -3.4660   28.6980 C   0  0  2  0  0  0  0  0  0  0  0  0
    4.7810   -4.8020   27.9540 C   0  0  0  0  0  0  0  0  0  0  0  0
    4.1890   -3.2850   27.3640 C   0  0  2  0  0  0  0  0  0  0  0  0
    2.9370   -4.1370   27.4820 C   0  0  0  0  0  0  0  0  0  0  0  0
    2.7040   -5.0440   26.3050 C   0  0  0  0  0  0  0  0  0  0  0  0
    1.4870   -5.9020   26.3750 C   0  0  0  0  0  0  0  0  0  0  0  0
    0.5930   -5.8030   27.5910 C   0  0  0  0  0  0  0  0  0  0  0  0
    0.9210   -4.8680   28.6970 C   0  0  0  0  0  0  0  0  0  0  0  0
    2.1570   -4.0030   28.6170 C   0  0  0  0  0  0  0  0  0  0  0  0
    7.1080   -2.9640   23.6660 C   0  0  0  0  0  0  0  0  0  0  0  0
    7.6330   -3.3110   22.2950 C   0  0  0  0  0  0  0  0  0  0  0  0
  1  2  1  0
  2  3  2  0
  2  4  1  0
  4  5  1  0
  5  6  1  0
  6  7  1  0
  7  8  1  0
  8  9  2  0
  8 10  1  0
 10 11  1  0
 12 11  1  6
 12 13  1  0
 13 14  1  0
 15 14  1  6
 12 16  1  0
 15 16  1  0
 10 17  1  0
 15 17  1  0
 17 18  1  6
 18 19  2  0
 19 20  1  0
 20 21  2  0
 21 22  1  0
 18 23  1  0
 22 23  2  0
  7 24  1  0
  4 25  1  0
 24 25  1  0
M  END
