piperidine-amides-25108-covalent
     RDKit          3D

 25 27  0  0  0  0  0  0  0  0999 V2000
    7.1220   -3.3320   19.3150 C   0  0  0  0  0  0  0  0  0  0  0  0
    6.4350   -4.2020   20.2980 C   0  0  0  0  0  0  0  0  0  0  0  0
    5.3740   -4.7250   19.9520 O   0  0  0  0  0  0  0  0  0  0  0  0
    7.0360   -4.4410   21.5320 N   0  0  0  0  0  0  0  0  0  0  0  0
    6.6210   -5.5330   22.3610 C   0  0  0  0  0  0  0  0  0  0  0  0
    5.7510   -4.9780   23.4500 C   0  0  0  0  0  0  0  0  0  0  0  0
    6.4570   -3.8160   24.1680 C   0  0  0  0  0  0  0  0  0  0  0  0
    5.5270   -3.2620   25.1600 C   0  0  0  0  0  0  0  0  0  0  0  0
    4.7150   -2.3970   24.8170 O   0  0  0  0  0  0  0  0  0  0  0  0
    5.5220   -3.6910   26.4810 N   0  0  0  0  0  0  0  0  0  0  0  0
    4.3030   -3.5520   27.2110 C   0  0  0  0  0  0  0  0  0  0  0  0
    4.2790   -4.7090   28.1610 C   0  0  0  0  0  0  0  0  0  0  0  0
    5.2970   -4.4290   29.1510 N   0  0  0  0  0  0  0  0  0  0  0  0
    5.1160   -5.4740   30.1390 C   0  0  0  0  0  0  0  0  0  0  0  0
    3.9820   -5.2430   30.9080 C   0  0  0  0  0  0  0  0  0  0  0  0
    3.7370   -6.1400   31.8670 C   0  0  0  0  0  0  0  0  0  0  0  0
    4.6200   -7.2780   32.0710 C   0  0  0  0  0  0  0  0  0  0  0  0
    4.4800   -8.3550   33.1040 C   0  0  0  0  0  0  0  0  0  0  0  0
    5.5250   -8.2030   33.9430 N   0  0  0  0  0  0  0  0  0  0  0  0
    5.8420   -7.7960   31.4600 C   0  0  0  0  0  0  0  0  0  0  0  0
    6.0140   -6.7240   30.4030 C   0  0  0  0  0  0  0  0  0  0  0  0
    6.5390   -4.4750   28.4390 C   0  0  0  0  0  0  0  0  0  0  0  0
    6.4440   -3.2860   27.5020 C   0  0  0  0  0  0  0  0  0  0  0  0
    6.8720   -2.7350   23.2080 C   0  0  0  0  0  0  0  0  0  0  0  0
    7.7590   -3.3850   22.2030 C   0  0  0  0  0  0  0  0  0  0  0  0
  1  2  1  0
  2  3  2  0
  2  4  1  0
  4  5  1  0
  5  6  1  0
  6  7  1  0
  7  8  1  0
  8  9  2  0
  8 10  1  0
 10 11  1  0
 11 12  1  0
 12 13  1  0
 13 14  1  0
 14 15  2  0
 15 16  1  0
 16 17  2  0
 17 18  1  0
 18 19  3  0
 17 20  1  0
 14 21  1  0
 20 21  2  0
 13 22  1  0
 10 23  1  0
 22 23  1  0
  7 24  1  0
  4 25  1  0
 24 25  1  0
M  END
