piperidine-amides-6460-covalent
     RDKit          3D

 25 27  0  0  0  0  0  0  0  0999 V2000
    7.0490   -3.2970   19.2980 C   0  0  0  0  0  0  0  0  0  0  0  0
    6.4040   -4.1770   20.2870 C   0  0  0  0  0  0  0  0  0  0  0  0
    5.3740   -4.8120   19.9700 O   0  0  0  0  0  0  0  0  0  0  0  0
    6.9560   -4.3570   21.5630 N   0  0  0  0  0  0  0  0  0  0  0  0
    6.5130   -5.4680   22.3620 C   0  0  0  0  0  0  0  0  0  0  0  0
    5.7320   -4.8530   23.5280 C   0  0  0  0  0  0  0  0  0  0  0  0
    6.6890   -3.9270   24.2590 C   0  0  0  0  0  0  0  0  0  0  0  0
    6.0210   -3.3330   25.4320 C   0  0  0  0  0  0  0  0  0  0  0  0
    4.7830   -3.1580   25.4050 O   0  0  0  0  0  0  0  0  0  0  0  0
    6.8260   -2.9910   26.5440 N   0  0  0  0  0  0  0  0  0  0  0  0
    6.6650   -1.7500   27.2680 C   0  0  0  0  0  0  0  0  0  0  0  0
    7.4170   -1.6270   28.5660 C   0  0  0  0  0  0  0  0  0  0  0  0
    7.3280   -0.5030   29.3320 C   0  0  0  0  0  0  0  0  0  0  0  0
    6.5390    0.5360   28.8980 C   0  0  0  0  0  0  0  0  0  0  0  0
    5.8240    0.4760   27.7030 C   0  0  0  0  0  0  0  0  0  0  0  0
    5.8080   -0.5900   26.8310 C   0  0  0  0  0  0  0  0  0  0  0  0
    5.0930   -0.6220   25.6980 O   0  0  0  0  0  0  0  0  0  0  0  0
    3.7370   -0.5990   25.6160 C   0  0  0  0  0  0  0  0  0  0  0  0
    3.1240   -1.3100   26.8100 C   0  0  0  0  0  0  0  0  0  0  0  0
    1.6470   -1.0300   26.9110 C   0  0  0  0  0  0  0  0  0  0  0  0
    2.4180    0.0670   27.5160 C   0  0  0  0  0  0  0  0  0  0  0  0
    2.5720    1.1030   26.5820 C   0  0  0  0  0  0  0  0  0  0  0  0
    3.3450    0.7020   25.5360 C   0  0  0  0  0  0  0  0  0  0  0  0
    7.1590   -2.7810   23.3860 C   0  0  0  0  0  0  0  0  0  0  0  0
    7.7940   -3.3370   22.1440 C   0  0  0  0  0  0  0  0  0  0  0  0
  1  2  1  0
  2  3  2  0
  2  4  1  0
  4  5  1  0
  5  6  1  0
  6  7  1  0
  7  8  1  0
  8  9  2  0
  8 10  1  0
 10 11  1  0
 11 12  2  0
 12 13  1  0
 13 14  2  0
 14 15  1  0
 11 16  1  0
 15 16  2  0
 16 17  1  0
 17 18  1  0
 18 19  1  0
 19 20  1  0
 20 21  1  0
 21 22  1  0
 18 23  1  0
 22 23  1  0
  7 24  1  0
  4 25  1  0
 24 25  1  0
M  END
