piperidine-amides-9038-covalent
     RDKit          3D

 21 22  0  0  0  0  0  0  0  0999 V2000
    7.0820   -3.2710   19.2400 C   0  0  0  0  0  0  0  0  0  0  0  0
    6.3330   -4.0170   20.2580 C   0  0  0  0  0  0  0  0  0  0  0  0
    5.3030   -4.6150   19.9130 O   0  0  0  0  0  0  0  0  0  0  0  0
    6.7700   -4.1150   21.5960 N   0  0  0  0  0  0  0  0  0  0  0  0
    6.6020   -5.3270   22.3580 C   0  0  0  0  0  0  0  0  0  0  0  0
    5.7600   -4.9330   23.5480 C   0  0  0  0  0  0  0  0  0  0  0  0
    5.8560   -3.4610   23.8540 C   0  0  0  0  0  0  0  0  0  0  0  0
    5.2990   -3.0920   25.2010 C   0  0  0  0  0  0  0  0  0  0  0  0
    4.0700   -3.2940   25.4230 O   0  0  0  0  0  0  0  0  0  0  0  0
    6.0120   -2.5180   26.2870 N   0  0  0  0  0  0  0  0  0  0  0  0
    6.4720   -3.3760   27.3980 C   0  0  1  0  0  0  0  0  0  0  0  0
    5.3990   -4.2070   27.9870 C   0  0  0  0  0  0  0  0  0  0  0  0
    5.7840   -5.5890   28.3580 C   0  0  0  0  0  0  0  0  0  0  0  0
    7.3890   -4.3390   26.8400 C   0  0  0  0  0  0  0  0  0  0  0  0
    8.2540   -4.6990   27.9750 C   0  0  0  0  0  0  0  0  0  0  0  0
    9.2540   -5.6700   27.6400 C   0  0  0  0  0  0  0  0  0  0  0  0
    9.2490   -6.1040   26.3570 C   0  0  0  0  0  0  0  0  0  0  0  0
    8.3700   -5.7000   25.3370 C   0  0  0  0  0  0  0  0  0  0  0  0
    7.4310   -4.8190   25.5360 N   0  0  0  0  0  0  0  0  0  0  0  0
    7.2650   -2.8860   23.6270 C   0  0  0  0  0  0  0  0  0  0  0  0
    7.6050   -3.0530   22.1320 C   0  0  0  0  0  0  0  0  0  0  0  0
  1  2  1  0
  2  3  2  0
  2  4  1  0
  4  5  1  0
  5  6  1  0
  6  7  1  0
  7  8  1  0
  8  9  2  0
  8 10  1  0
 10 11  1  0
 11 12  1  6
 12 13  1  0
 11 14  1  0
 14 15  2  0
 15 16  1  0
 16 17  2  0
 17 18  1  0
 14 19  1  0
 18 19  2  0
  7 20  1  0
  4 21  1  0
 20 21  1  0
M  END
