piperidine-amides-6422-covalent
     RDKit          3D

 20 21  0  0  0  0  0  0  0  0999 V2000
    7.1270   -3.3300   19.3190 C   0  0  0  0  0  0  0  0  0  0  0  0
    6.3810   -4.1470   20.2750 C   0  0  0  0  0  0  0  0  0  0  0  0
    5.3170   -4.7120   19.9410 O   0  0  0  0  0  0  0  0  0  0  0  0
    6.8960   -4.3540   21.5500 N   0  0  0  0  0  0  0  0  0  0  0  0
    7.6750   -3.3160   22.1930 C   0  0  0  0  0  0  0  0  0  0  0  0
    6.7650   -2.7230   23.2600 C   0  0  0  0  0  0  0  0  0  0  0  0
    6.5560   -3.8430   24.2440 C   0  0  0  0  0  0  0  0  0  0  0  0
    5.7900   -3.3740   25.4080 C   0  0  0  0  0  0  0  0  0  0  0  0
    4.5430   -3.3940   25.3480 O   0  0  0  0  0  0  0  0  0  0  0  0
    6.4780   -2.9000   26.5500 N   0  0  0  0  0  0  0  0  0  0  0  0
    6.2620   -1.5580   26.9920 C   0  0  0  0  0  0  0  0  0  0  0  0
    5.2820   -0.7670   26.1850 C   0  0  0  0  0  0  0  0  0  0  0  0
    5.5210    0.3870   27.1160 N   0  0  0  0  0  0  0  0  0  0  0  0
    6.1200    1.1330   28.2750 C   0  0  0  0  0  0  0  0  0  0  0  0
    6.8890    0.0800   28.6590 C   0  0  0  0  0  0  0  0  0  0  0  0
    7.6840    0.3190   29.7490 O   0  0  0  0  0  0  0  0  0  0  0  0
    7.8880   -0.7540   30.6160 C   0  0  0  0  0  0  0  0  0  0  0  0
    7.0030   -1.1320   28.1500 C   0  0  0  0  0  0  0  0  0  0  0  0
    5.7640   -4.9530   23.5450 C   0  0  0  0  0  0  0  0  0  0  0  0
    6.5240   -5.4850   22.3610 C   0  0  0  0  0  0  0  0  0  0  0  0
  1  2  1  0
  2  3  2  0
  2  4  1  0
  4  5  1  0
  5  6  1  0
  6  7  1  0
  7  8  1  0
  8  9  2  0
  8 10  1  0
 10 11  1  0
 11 12  2  0
 12 13  1  0
 13 14  2  0
 14 15  1  0
 15 16  1  0
 16 17  1  0
 11 18  1  0
 15 18  2  0
  7 19  1  0
  4 20  1  0
 19 20  1  0
M  END
