piperidine-amides-27851-covalent
     RDKit          3D

 26 28  0  0  0  0  0  0  0  0999 V2000
    7.1190   -3.3240   19.2160 C   0  0  0  0  0  0  0  0  0  0  0  0
    6.4170   -4.1210   20.2440 C   0  0  0  0  0  0  0  0  0  0  0  0
    5.3270   -4.6300   19.9150 O   0  0  0  0  0  0  0  0  0  0  0  0
    7.0020   -4.3280   21.4930 N   0  0  0  0  0  0  0  0  0  0  0  0
    6.6030   -5.4460   22.2780 C   0  0  0  0  0  0  0  0  0  0  0  0
    6.0160   -5.0690   23.5610 C   0  0  0  0  0  0  0  0  0  0  0  0
    6.5430   -3.8180   24.1560 C   0  0  0  0  0  0  0  0  0  0  0  0
    5.5480   -3.2670   25.0870 C   0  0  0  0  0  0  0  0  0  0  0  0
    4.5050   -2.7690   24.6390 O   0  0  0  0  0  0  0  0  0  0  0  0
    5.7830   -3.3300   26.4400 N   0  0  0  0  0  0  0  0  0  0  0  0
    4.7350   -3.7680   27.3210 C   0  0  0  0  0  0  0  0  0  0  0  0
    5.5460   -4.7660   28.0040 C   0  0  0  0  0  0  0  0  0  0  0  0
    6.9620   -4.3900   28.0080 C   0  0  2  0  0  0  0  0  0  0  0  0
    7.8700   -5.3200   28.3670 C   0  0  0  0  0  0  0  0  0  0  0  0
    7.5150   -6.2230   29.1270 O   0  0  0  0  0  0  0  0  0  0  0  0
    9.1290   -5.2610   27.8610 O   0  0  0  0  0  0  0  0  0  0  0  0
    9.4380   -5.8370   26.5890 C   0  0  0  0  0  0  0  0  0  0  0  0
    7.1160   -3.1240   28.7220 C   0  0  0  0  0  0  0  0  0  0  0  0
    6.0600   -2.5270   29.3800 C   0  0  0  0  0  0  0  0  0  0  0  0
    6.1340   -1.3530   30.0760 C   0  0  0  0  0  0  0  0  0  0  0  0
    7.3600   -0.7230   30.1310 C   0  0  0  0  0  0  0  0  0  0  0  0
    8.5480   -1.2750   29.4660 C   0  0  0  0  0  0  0  0  0  0  0  0
    8.3410   -2.5580   28.7180 C   0  0  0  0  0  0  0  0  0  0  0  0
    7.0180   -4.0170   26.6700 C   0  0  0  0  0  0  0  0  0  0  0  0
    7.0060   -2.7700   23.2450 C   0  0  0  0  0  0  0  0  0  0  0  0
    7.8220   -3.3110   22.1190 C   0  0  0  0  0  0  0  0  0  0  0  0
  1  2  1  0
  2  3  2  0
  2  4  1  0
  4  5  1  0
  5  6  1  0
  6  7  1  0
  7  8  1  0
  8  9  2  0
  8 10  1  0
 10 11  1  0
 11 12  1  0
 12 13  1  0
 13 14  1  1
 14 15  2  0
 14 16  1  0
 16 17  1  0
 13 18  1  0
 18 19  2  0
 19 20  1  0
 20 21  2  0
 21 22  1  0
 18 23  1  0
 22 23  2  0
 10 24  1  0
 13 24  1  0
  7 25  1  0
  4 26  1  0
 25 26  1  0
M  END
