piperidine-amides-8225-covalent
     RDKit          3D

 25 26  0  0  0  0  0  0  0  0999 V2000
    7.0990   -3.3020   19.2780 C   0  0  0  0  0  0  0  0  0  0  0  0
    6.3520   -4.0630   20.2800 C   0  0  0  0  0  0  0  0  0  0  0  0
    5.2990   -4.6190   19.9130 O   0  0  0  0  0  0  0  0  0  0  0  0
    6.8450   -4.2020   21.6090 N   0  0  0  0  0  0  0  0  0  0  0  0
    6.5220   -5.4010   22.3310 C   0  0  0  0  0  0  0  0  0  0  0  0
    6.2780   -5.0940   23.7930 C   0  0  0  0  0  0  0  0  0  0  0  0
    6.0780   -3.5950   23.9310 C   0  0  0  0  0  0  0  0  0  0  0  0
    5.5740   -3.1870   25.2930 C   0  0  0  0  0  0  0  0  0  0  0  0
    4.5350   -2.5340   25.2880 O   0  0  0  0  0  0  0  0  0  0  0  0
    6.2630   -3.5390   26.4540 N   0  0  0  0  0  0  0  0  0  0  0  0
    5.9770   -4.7330   27.2010 C   0  0  1  0  0  0  0  0  0  0  0  0
    6.3690   -4.7590   28.5420 C   0  0  0  0  0  0  0  0  0  0  0  0
    6.6120   -6.0090   29.0600 C   0  0  0  0  0  0  0  0  0  0  0  0
    4.5010   -4.9110   27.1710 C   0  0  1  0  0  0  0  0  0  0  0  0
    4.2140   -5.6260   26.0150 O   0  0  0  0  0  0  0  0  0  0  0  0
    3.8480   -5.3880   28.4430 C   0  0  0  0  0  0  0  0  0  0  0  0
    2.9720   -4.4020   29.2730 C   0  0  0  0  0  0  0  0  0  0  0  0
    2.8510   -3.1230   28.7720 F   0  0  0  0  0  0  0  0  0  0  0  0
    2.3010   -4.8140   30.5340 C   0  0  0  0  0  0  0  0  0  0  0  0
    2.5220   -6.2410   30.9530 C   0  0  0  0  0  0  0  0  0  0  0  0
    3.4050   -7.1590   30.0750 C   0  0  0  0  0  0  0  0  0  0  0  0
    4.0390   -6.8130   28.9100 C   0  0  0  0  0  0  0  0  0  0  0  0
    4.7640   -7.7980   28.3140 F   0  0  0  0  0  0  0  0  0  0  0  0
    7.3980   -2.9650   23.6370 C   0  0  0  0  0  0  0  0  0  0  0  0
    7.6450   -3.1230   22.1630 C   0  0  0  0  0  0  0  0  0  0  0  0
  1  2  1  0
  2  3  2  0
  2  4  1  0
  4  5  1  0
  5  6  1  0
  6  7  1  0
  7  8  1  0
  8  9  2  0
  8 10  1  0
 10 11  1  0
 11 12  1  1
 12 13  1  0
 11 14  1  0
 14 15  1  6
 14 16  1  0
 16 17  2  0
 17 18  1  0
 17 19  1  0
 19 20  2  0
 20 21  1  0
 16 22  1  0
 21 22  2  0
 22 23  1  0
  7 24  1  0
  4 25  1  0
 24 25  1  0
M  END
