piperidine-amides-29373-covalent
     RDKit          3D

 27 30  0  0  0  0  0  0  0  0999 V2000
    7.0910   -3.3520   19.3230 C   0  0  0  0  0  0  0  0  0  0  0  0
    6.4370   -4.2080   20.3030 C   0  0  0  0  0  0  0  0  0  0  0  0
    5.3820   -4.7800   19.9720 O   0  0  0  0  0  0  0  0  0  0  0  0
    7.0480   -4.4200   21.5660 N   0  0  0  0  0  0  0  0  0  0  0  0
    7.7090   -3.3210   22.1980 C   0  0  0  0  0  0  0  0  0  0  0  0
    6.8360   -2.8510   23.3080 C   0  0  0  0  0  0  0  0  0  0  0  0
    6.6400   -4.0210   24.2480 C   0  0  0  0  0  0  0  0  0  0  0  0
    5.8950   -3.5270   25.4420 C   0  0  0  0  0  0  0  0  0  0  0  0
    5.0090   -2.7040   25.2240 O   0  0  0  0  0  0  0  0  0  0  0  0
    6.2420   -4.0270   26.6850 N   0  0  0  0  0  0  0  0  0  0  0  0
    7.0260   -5.1790   26.8770 C   0  0  0  0  0  0  0  0  0  0  0  0
    7.1180   -5.2720   28.2560 C   0  0  0  0  0  0  0  0  0  0  0  0
    6.3490   -4.2500   28.7910 C   0  0  0  0  0  0  0  0  0  0  0  0
    5.6110   -3.4950   27.8840 C   0  0  2  0  0  0  0  0  0  0  0  0
    4.2100   -3.9600   28.1570 C   0  0  0  0  0  0  0  0  0  0  0  0
    3.7020   -5.2290   28.2620 N   0  0  0  0  0  0  0  0  0  0  0  0
    2.3850   -5.0860   28.5200 C   0  0  0  0  0  0  0  0  0  0  0  0
    1.3130   -6.0930   28.7350 C   0  0  0  0  0  0  0  0  0  0  0  0
   -0.0600   -5.5130   29.0010 C   0  0  0  0  0  0  0  0  0  0  0  0
   -0.2080   -3.9670   29.0230 C   0  0  0  0  0  0  0  0  0  0  0  0
    0.8910   -3.1770   28.8040 C   0  0  0  0  0  0  0  0  0  0  0  0
    2.1140   -3.7430   28.5670 C   0  0  0  0  0  0  0  0  0  0  0  0
    3.2420   -3.0500   28.3430 N   0  0  0  0  0  0  0  0  0  0  0  0
    3.4860   -1.7270   28.2870 C   0  0  0  0  0  0  0  0  0  0  0  0
    3.7600   -1.0580   26.9690 C   0  0  0  0  0  0  0  0  0  0  0  0
    5.8360   -5.1030   23.5280 C   0  0  0  0  0  0  0  0  0  0  0  0
    6.6420   -5.5780   22.3170 C   0  0  0  0  0  0  0  0  0  0  0  0
  1  2  1  0
  2  3  2  0
  2  4  1  0
  4  5  1  0
  5  6  1  0
  6  7  1  0
  7  8  1  0
  8  9  2  0
  8 10  1  0
 10 11  1  0
 11 12  1  0
 12 13  1  0
 10 14  1  0
 13 14  1  0
 14 15  1  6
 15 16  2  0
 16 17  1  0
 17 18  2  0
 18 19  1  0
 19 20  2  0
 20 21  1  0
 17 22  1  0
 21 22  2  0
 15 23  1  0
 22 23  1  0
 23 24  1  0
 24 25  1  0
  7 26  1  0
  4 27  1  0
 26 27  1  0
M  END
