piperidine-amides-14374-covalent
     RDKit          3D

 24 26  0  0  0  0  0  0  0  0999 V2000
    7.0820   -3.3090   19.3440 C   0  0  0  0  0  0  0  0  0  0  0  0
    6.3380   -4.0840   20.3330 C   0  0  0  0  0  0  0  0  0  0  0  0
    5.3270   -4.6950   19.9390 O   0  0  0  0  0  0  0  0  0  0  0  0
    6.7910   -4.1670   21.6790 N   0  0  0  0  0  0  0  0  0  0  0  0
    6.6210   -5.4080   22.3900 C   0  0  0  0  0  0  0  0  0  0  0  0
    6.0690   -5.1320   23.7610 C   0  0  0  0  0  0  0  0  0  0  0  0
    6.0390   -3.6330   23.8880 C   0  0  0  0  0  0  0  0  0  0  0  0
    5.5690   -3.2180   25.2550 C   0  0  0  0  0  0  0  0  0  0  0  0
    4.3660   -2.9920   25.3410 O   0  0  0  0  0  0  0  0  0  0  0  0
    6.4670   -3.1130   26.3110 N   0  0  0  0  0  0  0  0  0  0  0  0
    6.1920   -3.6870   27.5960 C   0  0  0  0  0  0  0  0  0  0  0  0
    5.3520   -2.9270   28.4160 C   0  0  0  0  0  0  0  0  0  0  0  0
    4.0220   -3.2210   28.5630 C   0  0  0  0  0  0  0  0  0  0  0  0
    3.2310   -2.4500   29.3790 C   0  0  0  0  0  0  0  0  0  0  0  0
    3.6860   -1.3430   30.1030 N   0  0  0  0  0  0  0  0  0  0  0  0
    5.0950   -0.9600   30.0040 C   0  0  0  0  0  0  0  0  0  0  0  0
    5.5910    0.0920   30.6750 N   0  0  0  0  0  0  0  0  0  0  0  0
    5.6940    0.2950   31.9770 C   0  0  0  0  0  0  0  0  0  0  0  0
    6.2520    1.4840   32.3850 N   0  0  0  0  0  0  0  0  0  0  0  0
    6.5580    2.1510   31.1450 C   0  0  0  0  0  0  0  0  0  0  0  0
    6.1250    1.2350   30.1800 N   0  0  0  0  0  0  0  0  0  0  0  0
    5.8950   -1.8370   29.1050 C   0  0  0  0  0  0  0  0  0  0  0  0
    7.2910   -2.9460   23.5630 C   0  0  0  0  0  0  0  0  0  0  0  0
    7.6900   -3.1790   22.2630 C   0  0  0  0  0  0  0  0  0  0  0  0
  1  2  1  0
  2  3  2  0
  2  4  1  0
  4  5  1  0
  5  6  1  0
  6  7  1  0
  7  8  1  0
  8  9  2  0
  8 10  1  0
 10 11  1  0
 11 12  1  0
 12 13  2  0
 13 14  1  0
 14 15  2  0
 15 16  1  0
 16 17  1  0
 17 18  1  0
 18 19  2  0
 19 20  1  0
 17 21  1  0
 20 21  2  0
 12 22  1  0
 16 22  2  0
  7 23  1  0
  4 24  1  0
 23 24  1  0
M  END
