piperidine-amides-31378-covalent
     RDKit          3D

 27 29  0  0  0  0  0  0  0  0999 V2000
    7.0860   -3.3450   19.4500 C   0  0  0  0  0  0  0  0  0  0  0  0
    6.3900   -4.1850   20.4030 C   0  0  0  0  0  0  0  0  0  0  0  0
    5.4210   -4.8980   19.9910 O   0  0  0  0  0  0  0  0  0  0  0  0
    6.7780   -4.2530   21.7610 N   0  0  0  0  0  0  0  0  0  0  0  0
    7.6910   -3.1590   22.2100 C   0  0  0  0  0  0  0  0  0  0  0  0
    7.6590   -3.3360   23.7660 C   0  0  0  0  0  0  0  0  0  0  0  0
    6.2690   -3.8330   24.0140 C   0  0  0  0  0  0  0  0  0  0  0  0
    5.5670   -3.1810   25.2880 C   0  0  0  0  0  0  0  0  0  0  0  0
    4.9480   -2.1850   24.9500 O   0  0  0  0  0  0  0  0  0  0  0  0
    5.8020   -3.8590   26.3400 N   0  0  0  0  0  0  0  0  0  0  0  0
    6.1080   -4.9360   27.2410 C   0  0  0  0  0  0  0  0  0  0  0  0
    5.6230   -5.9290   28.1560 C   0  0  0  0  0  0  0  0  0  0  0  0
    4.7090   -5.2270   29.0660 N   0  0  0  0  0  0  0  0  0  0  0  0
    3.3610   -5.3230   28.9470 C   0  0  0  0  0  0  0  0  0  0  0  0
    2.4210   -4.5300   28.2630 O   0  0  0  0  0  0  0  0  0  0  0  0
    2.7370   -6.4710   29.6540 C   0  0  0  0  0  0  0  0  0  0  0  0
    1.4330   -6.0920   29.9720 F   0  0  0  0  0  0  0  0  0  0  0  0
    2.7410   -7.5250   28.7490 F   0  0  0  0  0  0  0  0  0  0  0  0
    3.4600   -6.9630   30.7260 F   0  0  0  0  0  0  0  0  0  0  0  0
    5.1290   -4.2780   28.1530 C   0  0  0  0  0  0  0  0  0  0  0  0
    4.7900   -3.7040   29.3580 C   0  0  0  0  0  0  0  0  0  0  0  0
    4.7890   -2.4430   29.8150 N   0  0  0  0  0  0  0  0  0  0  0  0
    5.1920   -1.3150   29.0280 C   0  0  0  0  0  0  0  0  0  0  0  0
    5.5670   -1.6680   27.7770 N   0  0  0  0  0  0  0  0  0  0  0  0
    5.4980   -3.0910   27.4800 C   0  0  0  0  0  0  0  0  0  0  0  0
    6.1600   -5.2860   23.7190 C   0  0  0  0  0  0  0  0  0  0  0  0
    6.7060   -5.5140   22.4670 C   0  0  0  0  0  0  0  0  0  0  0  0
  1  2  1  0
  2  3  2  0
  2  4  1  0
  4  5  1  0
  5  6  1  0
  6  7  1  0
  7  8  1  0
  8  9  2  0
  8 10  1  0
 10 11  1  0
 11 12  1  0
 12 13  1  0
 13 14  1  0
 14 15  2  0
 14 16  1  0
 16 17  1  0
 16 18  1  0
 16 19  1  0
 13 20  1  0
 20 21  2  0
 21 22  1  0
 22 23  2  0
 23 24  1  0
 10 25  1  0
 20 25  1  0
 24 25  2  0
  7 26  1  0
  4 27  1  0
 26 27  1  0
M  END
