piperidine-amides-24232-covalent
     RDKit          3D

 24 26  0  0  0  0  0  0  0  0999 V2000
    7.0870   -3.3470   19.3040 C   0  0  0  0  0  0  0  0  0  0  0  0
    6.4300   -4.2180   20.2890 C   0  0  0  0  0  0  0  0  0  0  0  0
    5.3810   -4.8250   19.9790 O   0  0  0  0  0  0  0  0  0  0  0  0
    7.0110   -4.4240   21.5480 N   0  0  0  0  0  0  0  0  0  0  0  0
    6.6400   -5.5970   22.2910 C   0  0  0  0  0  0  0  0  0  0  0  0
    5.6590   -5.1060   23.3560 C   0  0  0  0  0  0  0  0  0  0  0  0
    6.3570   -4.0390   24.1790 C   0  0  0  0  0  0  0  0  0  0  0  0
    5.3970   -3.5480   25.1860 C   0  0  0  0  0  0  0  0  0  0  0  0
    4.5260   -2.7350   24.8320 O   0  0  0  0  0  0  0  0  0  0  0  0
    5.5090   -4.0240   26.5010 N   0  0  0  0  0  0  0  0  0  0  0  0
    6.8270   -4.2660   26.8600 C   0  0  0  0  0  0  0  0  0  0  0  0
    7.0260   -5.5990   27.5170 C   0  0  0  0  0  0  0  0  0  0  0  0
    6.9710   -5.5680   28.8550 C   0  0  0  0  0  0  0  0  0  0  0  0
    5.9540   -4.8230   29.3630 C   0  0  0  0  0  0  0  0  0  0  0  0
    4.8940   -4.4330   28.5640 C   0  0  0  0  0  0  0  0  0  0  0  0
    5.0520   -3.3340   27.7440 C   0  0  2  0  0  0  0  0  0  0  0  0
    3.9020   -2.3500   27.5620 C   0  0  0  0  0  0  0  0  0  0  0  0
    5.1200   -1.7810   28.2730 C   0  0  0  0  0  0  0  0  0  0  0  0
    5.1710   -1.8740   29.7870 C   0  0  0  0  0  0  0  0  0  0  0  0
    4.1990   -0.8100   29.4610 C   0  0  0  0  0  0  0  0  0  0  0  0
    2.8830   -1.2670   29.2580 C   0  0  0  0  0  0  0  0  0  0  0  0
    2.7410   -2.0980   28.2050 C   0  0  0  0  0  0  0  0  0  0  0  0
    6.8090   -2.8490   23.3430 C   0  0  0  0  0  0  0  0  0  0  0  0
    7.6740   -3.3420   22.2170 C   0  0  0  0  0  0  0  0  0  0  0  0
  1  2  1  0
  2  3  2  0
  2  4  1  0
  4  5  1  0
  5  6  1  0
  6  7  1  0
  7  8  1  0
  8  9  2  0
  8 10  1  0
 10 11  1  0
 11 12  1  0
 12 13  1  0
 13 14  1  0
 14 15  1  0
 10 16  1  0
 15 16  1  0
 16 17  1  6
 17 18  1  0
 18 19  1  0
 19 20  1  0
 20 21  1  0
 17 22  1  0
 21 22  1  0
  7 23  1  0
  4 24  1  0
 23 24  1  0
M  END
