piperidine-amides-27417-covalent
     RDKit          3D

 24 25  0  0  0  0  0  0  0  0999 V2000
    7.0740   -3.2940   19.2830 C   0  0  0  0  0  0  0  0  0  0  0  0
    6.3710   -4.0660   20.3180 C   0  0  0  0  0  0  0  0  0  0  0  0
    5.3450   -4.6910   19.9410 O   0  0  0  0  0  0  0  0  0  0  0  0
    6.8640   -4.1200   21.6320 N   0  0  0  0  0  0  0  0  0  0  0  0
    7.7330   -3.1000   22.1850 C   0  0  0  0  0  0  0  0  0  0  0  0
    7.4010   -2.9180   23.6400 C   0  0  0  0  0  0  0  0  0  0  0  0
    6.0580   -3.5220   23.9590 C   0  0  0  0  0  0  0  0  0  0  0  0
    5.6320   -3.1600   25.3350 C   0  0  0  0  0  0  0  0  0  0  0  0
    4.7560   -2.2750   25.4410 O   0  0  0  0  0  0  0  0  0  0  0  0
    6.1100   -3.7490   26.5250 N   0  0  0  0  0  0  0  0  0  0  0  0
    6.3790   -2.8880   27.6550 C   0  0  0  0  0  0  0  0  0  0  0  0
    5.7790   -5.1600   26.6670 C   0  0  0  0  0  0  0  0  0  0  0  0
    5.4730   -5.5840   27.9380 C   0  0  0  0  0  0  0  0  0  0  0  0
    4.2480   -5.8990   28.3190 N   0  0  0  0  0  0  0  0  0  0  0  0
    4.3740   -6.2790   29.5870 C   0  0  0  0  0  0  0  0  0  0  0  0
    3.4310   -6.7260   30.5040 C   0  0  2  0  0  0  0  0  0  0  0  0
    2.3700   -5.8450   30.5450 C   0  0  0  0  0  0  0  0  0  0  0  0
    4.1500   -7.1330   32.0040 S   0  0  0  0  0  0  0  0  0  0  0  0
    3.4270   -5.8120   33.0560 C   0  0  0  0  0  0  0  0  0  0  0  0
    2.0580   -5.9450   33.6820 C   0  0  0  0  0  0  0  0  0  0  0  0
    5.6790   -6.2030   30.0040 N   0  0  0  0  0  0  0  0  0  0  0  0
    6.4130   -5.7520   28.9760 O   0  0  0  0  0  0  0  0  0  0  0  0
    6.0780   -5.0020   23.7650 C   0  0  0  0  0  0  0  0  0  0  0  0
    6.5680   -5.3510   22.3770 C   0  0  0  0  0  0  0  0  0  0  0  0
  1  2  1  0
  2  3  2  0
  2  4  1  0
  4  5  1  0
  5  6  1  0
  6  7  1  0
  7  8  1  0
  8  9  2  0
  8 10  1  0
 10 11  1  0
 10 12  1  0
 12 13  1  0
 13 14  2  0
 14 15  1  0
 15 16  1  0
 16 17  1  1
 16 18  1  0
 18 19  1  0
 19 20  1  0
 15 21  2  0
 13 22  1  0
 21 22  1  0
  7 23  1  0
  4 24  1  0
 23 24  1  0
M  END
