piperidine-amides-27750-covalent
     RDKit          3D

 24 26  0  0  0  0  0  0  0  0999 V2000
    7.1430   -3.2980   19.2290 C   0  0  0  0  0  0  0  0  0  0  0  0
    6.4140   -4.1110   20.2200 C   0  0  0  0  0  0  0  0  0  0  0  0
    5.3010   -4.5630   19.8860 O   0  0  0  0  0  0  0  0  0  0  0  0
    7.0020   -4.4020   21.4480 N   0  0  0  0  0  0  0  0  0  0  0  0
    6.5690   -5.5540   22.1470 C   0  0  0  0  0  0  0  0  0  0  0  0
    5.8830   -5.2280   23.3880 C   0  0  0  0  0  0  0  0  0  0  0  0
    6.4760   -4.1060   24.1360 C   0  0  0  0  0  0  0  0  0  0  0  0
    5.5730   -3.6800   25.2070 C   0  0  0  0  0  0  0  0  0  0  0  0
    4.4320   -3.2900   24.9060 O   0  0  0  0  0  0  0  0  0  0  0  0
    5.9690   -3.6990   26.5300 N   0  0  0  0  0  0  0  0  0  0  0  0
    5.2490   -4.5510   27.5200 C   0  0  0  0  0  0  0  0  0  0  0  0
    5.4690   -4.1970   28.9480 C   0  0  0  0  0  0  0  0  0  0  0  0
    5.9350   -2.8550   29.1950 C   0  0  0  0  0  0  0  0  0  0  0  0
    4.7370   -2.0470   29.0880 N   0  0  0  0  0  0  0  0  0  0  0  0
    4.6760   -1.0470   30.4720 S   0  0  0  0  0  0  0  0  0  0  0  0
    3.8000    0.1120   30.1860 O   0  0  0  0  0  0  0  0  0  0  0  0
    4.3190   -1.8070   31.7000 O   0  0  0  0  0  0  0  0  0  0  0  0
    6.3220   -0.4370   30.5020 C   0  0  0  0  0  0  0  0  0  0  0  0
    6.8570    0.1620   31.4580 C   0  0  0  0  0  0  0  0  0  0  0  0
    6.1590    1.0980   30.6750 C   0  0  0  0  0  0  0  0  0  0  0  0
    6.8390   -2.6340   28.2880 C   0  0  0  0  0  0  0  0  0  0  0  0
    6.4650   -2.4140   27.0260 C   0  0  0  0  0  0  0  0  0  0  0  0
    6.8540   -2.9460   23.2670 C   0  0  0  0  0  0  0  0  0  0  0  0
    7.7380   -3.4030   22.1910 C   0  0  0  0  0  0  0  0  0  0  0  0
  1  2  1  0
  2  3  2  0
  2  4  1  0
  4  5  1  0
  5  6  1  0
  6  7  1  0
  7  8  1  0
  8  9  2  0
  8 10  1  0
 10 11  1  0
 11 12  1  0
 12 13  1  0
 13 14  1  0
 15 14  1  0
 15 16  2  0
 15 17  2  0
 15 18  1  0
 18 19  1  0
 18 20  1  0
 19 20  1  0
 13 21  1  0
 10 22  1  0
 21 22  1  0
  7 23  1  0
  4 24  1  0
 23 24  1  0
M  END
