piperidine-amides-441-covalent
     RDKit          3D

 27 28  0  0  0  0  0  0  0  0999 V2000
    7.0230   -3.3770   19.2960 C   0  0  0  0  0  0  0  0  0  0  0  0
    6.3550   -4.1160   20.3510 C   0  0  0  0  0  0  0  0  0  0  0  0
    5.3780   -4.8450   19.9900 O   0  0  0  0  0  0  0  0  0  0  0  0
    6.7510   -4.1090   21.7180 N   0  0  0  0  0  0  0  0  0  0  0  0
    6.6720   -5.4290   22.4110 C   0  0  0  0  0  0  0  0  0  0  0  0
    6.0850   -5.1020   23.8550 C   0  0  0  0  0  0  0  0  0  0  0  0
    6.3380   -3.6370   24.0920 C   0  0  0  0  0  0  0  0  0  0  0  0
    5.7890   -3.0160   25.4650 C   0  0  0  0  0  0  0  0  0  0  0  0
    5.2570   -1.9480   25.2070 O   0  0  0  0  0  0  0  0  0  0  0  0
    5.9940   -3.7540   26.5050 N   0  0  0  0  0  0  0  0  0  0  0  0
    6.0360   -4.4590   27.6950 C   0  0  2  0  0  0  0  0  0  0  0  0
    6.8940   -4.9680   28.6270 C   0  0  0  0  0  0  0  0  0  0  0  0
    5.2650   -5.6980   27.3880 C   0  0  0  0  0  0  0  0  0  0  0  0
    5.4130   -6.2730   26.1270 O   0  0  0  0  0  0  0  0  0  0  0  0
    4.3670   -6.3020   28.2670 O   0  0  0  0  0  0  0  0  0  0  0  0
    4.6790   -6.8100   29.5250 C   0  0  0  0  0  0  0  0  0  0  0  0
    3.6290   -7.6230   30.2990 C   0  0  0  0  0  0  0  0  0  0  0  0
    4.1120   -6.1020   30.7730 C   0  0  0  0  0  0  0  0  0  0  0  0
    6.0390   -7.4140   29.6890 C   0  0  0  0  0  0  0  0  0  0  0  0
    5.2440   -3.6440   28.6300 C   0  0  0  0  0  0  0  0  0  0  0  0
    6.2590   -2.5470   29.0120 C   0  0  0  0  0  0  0  0  0  0  0  0
    5.8380   -1.6090   29.8880 C   0  0  0  0  0  0  0  0  0  0  0  0
    4.5690   -1.6360   30.4070 C   0  0  0  0  0  0  0  0  0  0  0  0
    3.6560   -2.6090   30.0720 C   0  0  0  0  0  0  0  0  0  0  0  0
    3.9780   -3.6290   29.1770 C   0  0  0  0  0  0  0  0  0  0  0  0
    7.6330   -3.0760   23.6510 C   0  0  0  0  0  0  0  0  0  0  0  0
    7.7060   -3.1010   22.1630 C   0  0  0  0  0  0  0  0  0  0  0  0
  1  2  1  0
  2  3  2  0
  2  4  1  0
  4  5  1  0
  5  6  1  0
  6  7  1  0
  7  8  1  0
  8  9  2  0
  8 10  1  0
 10 11  1  0
 11 12  1  1
 11 13  1  0
 13 14  2  0
 13 15  1  0
 16 15  1  0
 16 17  1  0
 16 18  1  0
 16 19  1  0
 11 20  1  0
 20 21  2  0
 21 22  1  0
 22 23  2  0
 23 24  1  0
 20 25  1  0
 24 25  2  0
  7 26  1  0
  4 27  1  0
 26 27  1  0
M  END
