piperidine-amides-32452-covalent
     RDKit          3D

 27 28  0  0  0  0  0  0  0  0999 V2000
    7.0780   -3.2560   19.2020 C   0  0  0  0  0  0  0  0  0  0  0  0
    6.2730   -4.0290   20.1970 C   0  0  0  0  0  0  0  0  0  0  0  0
    5.2060   -4.5480   19.8550 O   0  0  0  0  0  0  0  0  0  0  0  0
    6.7610   -4.1930   21.5000 N   0  0  0  0  0  0  0  0  0  0  0  0
    6.5510   -5.4250   22.2210 C   0  0  0  0  0  0  0  0  0  0  0  0
    6.0250   -5.1060   23.6370 C   0  0  0  0  0  0  0  0  0  0  0  0
    5.9950   -3.6220   23.8440 C   0  0  0  0  0  0  0  0  0  0  0  0
    5.4550   -3.2360   25.1660 C   0  0  0  0  0  0  0  0  0  0  0  0
    4.2490   -2.9790   25.2130 O   0  0  0  0  0  0  0  0  0  0  0  0
    6.2920   -3.1710   26.2810 N   0  0  0  0  0  0  0  0  0  0  0  0
    6.5870   -1.9640   26.9800 C   0  0  0  0  0  0  0  0  0  0  0  0
    6.6980   -4.3880   26.9030 C   0  0  0  0  0  0  0  0  0  0  0  0
    5.7560   -5.4040   27.0220 C   0  0  0  0  0  0  0  0  0  0  0  0
    5.6970   -5.8120   28.4000 N   0  0  0  0  0  0  0  0  0  0  0  0
    6.7820   -6.0270   29.1520 C   0  0  0  0  0  0  0  0  0  0  0  0
    4.4980   -6.1960   28.8560 C   0  0  0  0  0  0  0  0  0  0  0  0
    4.1040   -7.6320   29.1920 C   0  0  0  0  0  0  0  0  0  0  0  0
    2.6920   -7.8440   29.6920 C   0  0  0  0  0  0  0  0  0  0  0  0
    1.8010   -6.8200   29.8440 C   0  0  0  0  0  0  0  0  0  0  0  0
    0.3500   -7.5050   30.4220 S   0  0  0  0  0  0  0  0  0  0  0  0
   -0.3560   -6.3480   31.4860 N   0  0  0  0  0  0  0  0  0  0  0  0
    0.5270   -8.8330   31.1360 O   0  0  0  0  0  0  0  0  0  0  0  0
   -0.5630   -7.7030   29.2540 O   0  0  0  0  0  0  0  0  0  0  0  0
    2.0400   -5.3800   29.5620 C   0  0  0  0  0  0  0  0  0  0  0  0
    3.4650   -5.1290   29.0510 C   0  0  0  0  0  0  0  0  0  0  0  0
    7.3350   -3.1350   23.5880 C   0  0  0  0  0  0  0  0  0  0  0  0
    7.5620   -3.1580   22.0810 C   0  0  0  0  0  0  0  0  0  0  0  0
  1  2  1  0
  2  3  2  0
  2  4  1  0
  4  5  1  0
  5  6  1  0
  6  7  1  0
  7  8  1  0
  8  9  2  0
  8 10  1  0
 10 11  1  0
 10 12  1  0
 12 13  1  0
 13 14  1  0
 14 15  1  0
 14 16  1  0
 16 17  2  0
 17 18  1  0
 18 19  2  0
 19 20  1  0
 20 21  1  0
 20 22  2  0
 20 23  2  0
 19 24  1  0
 16 25  1  0
 24 25  2  0
  7 26  1  0
  4 27  1  0
 26 27  1  0
M  END
