piperidine-amides-6892-covalent
     RDKit          3D

 22 23  0  0  0  0  0  0  0  0999 V2000
    7.0940   -3.3610   19.3440 C   0  0  0  0  0  0  0  0  0  0  0  0
    6.3850   -4.1860   20.3280 C   0  0  0  0  0  0  0  0  0  0  0  0
    5.3640   -4.8210   19.9830 O   0  0  0  0  0  0  0  0  0  0  0  0
    6.8770   -4.3100   21.6380 N   0  0  0  0  0  0  0  0  0  0  0  0
    7.7300   -3.2900   22.1950 C   0  0  0  0  0  0  0  0  0  0  0  0
    6.9850   -2.7210   23.3950 C   0  0  0  0  0  0  0  0  0  0  0  0
    6.5680   -3.8890   24.2690 C   0  0  0  0  0  0  0  0  0  0  0  0
    5.7570   -3.3720   25.3880 C   0  0  0  0  0  0  0  0  0  0  0  0
    4.5360   -3.1850   25.1980 O   0  0  0  0  0  0  0  0  0  0  0  0
    6.3640   -3.0980   26.6370 N   0  0  0  0  0  0  0  0  0  0  0  0
    6.9230   -1.8020   26.9170 C   0  0  1  0  0  0  0  0  0  0  0  0
    5.8510   -0.7120   26.7980 C   0  0  0  0  0  0  0  0  0  0  0  0
    5.9700    0.4570   27.5020 C   0  0  0  0  0  0  0  0  0  0  0  0
    6.2390    0.3100   28.8240 C   0  0  2  0  0  0  0  0  0  0  0  0
    7.3070    1.0190   29.3550 O   0  0  0  0  0  0  0  0  0  0  0  0
    7.0060    2.0640   30.2630 C   0  0  0  0  0  0  0  0  0  0  0  0
    7.7320    1.8140   31.4050 C   0  0  0  0  0  0  0  0  0  0  0  0
    7.3760    0.7190   32.3930 C   0  0  0  0  0  0  0  0  0  0  0  0
    6.4590   -0.9970   29.1380 C   0  0  0  0  0  0  0  0  0  0  0  0
    7.5060   -1.6880   28.3160 C   0  0  0  0  0  0  0  0  0  0  0  0
    5.7330   -4.9060   23.5020 C   0  0  0  0  0  0  0  0  0  0  0  0
    6.5360   -5.4280   22.4780 C   0  0  0  0  0  0  0  0  0  0  0  0
  1  2  1  0
  2  3  2  0
  2  4  1  0
  4  5  1  0
  5  6  1  0
  6  7  1  0
  7  8  1  0
  8  9  2  0
  8 10  1  0
 11 10  1  1
 11 12  1  0
 12 13  1  0
 13 14  1  0
 14 15  1  6
 15 16  1  0
 16 17  1  0
 17 18  3  0
 14 19  1  0
 11 20  1  0
 19 20  1  0
  7 21  1  0
  4 22  1  0
 21 22  1  0
M  END
