piperidine-amides-34304-covalent
     RDKit          3D

 23 25  0  0  0  0  0  0  0  0999 V2000
    7.0020   -3.3740   19.4380 C   0  0  0  0  0  0  0  0  0  0  0  0
    6.3620   -4.3070   20.3790 C   0  0  0  0  0  0  0  0  0  0  0  0
    5.3770   -4.9740   20.0010 O   0  0  0  0  0  0  0  0  0  0  0  0
    6.8640   -4.4890   21.6820 N   0  0  0  0  0  0  0  0  0  0  0  0
    6.4870   -5.6680   22.4170 C   0  0  0  0  0  0  0  0  0  0  0  0
    5.6130   -5.2020   23.6060 C   0  0  0  0  0  0  0  0  0  0  0  0
    6.3320   -4.0860   24.3590 C   0  0  0  0  0  0  0  0  0  0  0  0
    5.4280   -3.5470   25.4320 C   0  0  0  0  0  0  0  0  0  0  0  0
    4.2580   -3.2900   25.0860 O   0  0  0  0  0  0  0  0  0  0  0  0
    5.8210   -3.3090   26.7980 N   0  0  0  0  0  0  0  0  0  0  0  0
    4.8240   -3.3880   27.8470 C   0  0  0  0  0  0  0  0  0  0  0  0
    5.2010   -4.6060   28.6120 C   0  0  0  0  0  0  0  0  0  0  0  0
    6.5060   -4.7330   28.4630 C   0  0  0  0  0  0  0  0  0  0  0  0
    6.9110   -3.6690   27.7090 C   0  0  1  0  0  0  0  0  0  0  0  0
    7.7690   -3.8800   26.7420 C   0  0  0  0  0  0  0  0  0  0  0  0
    8.3950   -5.0110   26.7030 C   0  0  0  0  0  0  0  0  0  0  0  0
    9.3510   -5.4250   25.7120 C   0  0  0  0  0  0  0  0  0  0  0  0
    9.3050   -4.1210   24.8410 C   0  0  0  0  0  0  0  0  0  0  0  0
    8.6630   -2.7300   24.7250 C   0  0  0  0  0  0  0  0  0  0  0  0
    8.9970   -1.2510   23.2400 I   0  0  0  0  0  0  0  0  0  0  0  0
    7.8590   -2.8490   25.8990 C   0  0  0  0  0  0  0  0  0  0  0  0
    6.5760   -2.9640   23.3800 C   0  0  0  0  0  0  0  0  0  0  0  0
    7.4040   -3.3760   22.3680 C   0  0  0  0  0  0  0  0  0  0  0  0
  1  2  1  0
  2  3  2  0
  2  4  1  0
  4  5  1  0
  5  6  1  0
  6  7  1  0
  7  8  1  0
  8  9  2  0
  8 10  1  0
 10 11  1  0
 11 12  1  0
 12 13  1  0
 10 14  1  0
 13 14  1  0
 14 15  1  6
 15 16  2  0
 16 17  1  0
 17 18  2  0
 18 19  1  0
 19 20  1  0
 15 21  1  0
 19 21  2  0
  7 22  1  0
  4 23  1  0
 22 23  1  0
M  END
