piperidine-amides-10906-covalent
     RDKit          3D

 21 22  0  0  0  0  0  0  0  0999 V2000
    7.0880   -3.3500   19.3630 C   0  0  0  0  0  0  0  0  0  0  0  0
    6.3530   -4.1460   20.3430 C   0  0  0  0  0  0  0  0  0  0  0  0
    5.3350   -4.7490   19.9640 O   0  0  0  0  0  0  0  0  0  0  0  0
    6.7930   -4.2930   21.6750 N   0  0  0  0  0  0  0  0  0  0  0  0
    6.5940   -5.5370   22.3830 C   0  0  0  0  0  0  0  0  0  0  0  0
    6.1360   -5.1570   23.7690 C   0  0  0  0  0  0  0  0  0  0  0  0
    6.0800   -3.6670   23.9510 C   0  0  0  0  0  0  0  0  0  0  0  0
    5.6680   -3.2470   25.3220 C   0  0  0  0  0  0  0  0  0  0  0  0
    4.4350   -3.1820   25.6190 O   0  0  0  0  0  0  0  0  0  0  0  0
    6.5830   -2.9080   26.3420 N   0  0  0  0  0  0  0  0  0  0  0  0
    6.4780   -1.6530   27.1260 C   0  0  0  0  0  0  0  0  0  0  0  0
    5.8630   -0.4890   26.4630 C   0  0  0  0  0  0  0  0  0  0  0  0
    5.8110    0.6780   27.3250 C   0  0  0  0  0  0  0  0  0  0  0  0
    5.2180    1.9850   26.8520 C   0  0  0  0  0  0  0  0  0  0  0  0
    5.0160    2.8320   27.9390 F   0  0  0  0  0  0  0  0  0  0  0  0
    6.0970    2.6520   26.0240 F   0  0  0  0  0  0  0  0  0  0  0  0
    4.0180    1.8300   26.2360 F   0  0  0  0  0  0  0  0  0  0  0  0
    6.3440    0.6250   28.7090 C   0  0  0  0  0  0  0  0  0  0  0  0
    6.9040   -1.1230   28.7280 S   0  0  0  0  0  0  0  0  0  0  0  0
    7.3970   -3.0780   23.5750 C   0  0  0  0  0  0  0  0  0  0  0  0
    7.5820   -3.2200   22.2240 C   0  0  0  0  0  0  0  0  0  0  0  0
  1  2  1  0
  2  3  2  0
  2  4  1  0
  4  5  1  0
  5  6  1  0
  6  7  1  0
  7  8  1  0
  8  9  2  0
  8 10  1  0
 10 11  1  0
 11 12  2  0
 12 13  1  0
 13 14  1  0
 14 15  1  0
 14 16  1  0
 14 17  1  0
 13 18  2  0
 11 19  1  0
 18 19  1  0
  7 20  1  0
  4 21  1  0
 20 21  1  0
M  END
