piperidine-amides-12199-covalent
     RDKit          3D

 25 26  0  0  0  0  0  0  0  0999 V2000
    7.1010   -3.3490   19.3360 C   0  0  0  0  0  0  0  0  0  0  0  0
    6.3770   -4.1620   20.3040 C   0  0  0  0  0  0  0  0  0  0  0  0
    5.3530   -4.7550   19.9630 O   0  0  0  0  0  0  0  0  0  0  0  0
    6.8980   -4.3150   21.6370 N   0  0  0  0  0  0  0  0  0  0  0  0
    6.5130   -5.4480   22.4330 C   0  0  0  0  0  0  0  0  0  0  0  0
    5.8210   -4.9740   23.6840 C   0  0  0  0  0  0  0  0  0  0  0  0
    6.5580   -3.7580   24.2310 C   0  0  0  0  0  0  0  0  0  0  0  0
    5.7910   -3.1590   25.3580 C   0  0  0  0  0  0  0  0  0  0  0  0
    4.6110   -2.7780   25.2360 O   0  0  0  0  0  0  0  0  0  0  0  0
    6.4280   -3.0400   26.6080 N   0  0  0  0  0  0  0  0  0  0  0  0
    6.4310   -1.7780   27.3150 C   0  0  0  0  0  0  0  0  0  0  0  0
    5.7830   -0.5990   26.6440 C   0  0  0  0  0  0  0  0  0  0  0  0
    5.7530    0.6330   27.2860 C   0  0  0  0  0  0  0  0  0  0  0  0
    6.3290    0.7870   28.5660 C   0  0  0  0  0  0  0  0  0  0  0  0
    6.3010    2.0080   29.2130 C   0  0  0  0  0  0  0  0  0  0  0  0
    6.1300    2.0330   30.4440 O   0  0  0  0  0  0  0  0  0  0  0  0
    6.4620    3.2210   28.4780 N   0  0  0  0  0  0  0  0  0  0  0  0
    5.3510    4.0760   28.1700 C   0  0  0  0  0  0  0  0  0  0  0  0
    4.4470    3.8760   29.1890 C   0  0  0  0  0  0  0  0  0  0  0  0
    4.7850    4.1010   30.5090 C   0  0  0  0  0  0  0  0  0  0  0  0
    6.9420   -0.2680   29.2240 C   0  0  0  0  0  0  0  0  0  0  0  0
    7.6400   -0.0330   30.8140 Cl  0  0  0  0  0  0  0  0  0  0  0  0
    6.9900   -1.5800   28.5740 C   0  0  0  0  0  0  0  0  0  0  0  0
    6.8520   -2.7010   23.1900 C   0  0  0  0  0  0  0  0  0  0  0  0
    7.6890   -3.2860   22.2550 C   0  0  0  0  0  0  0  0  0  0  0  0
  1  2  1  0
  2  3  2  0
  2  4  1  0
  4  5  1  0
  5  6  1  0
  6  7  1  0
  7  8  1  0
  8  9  2  0
  8 10  1  0
 10 11  1  0
 11 12  2  0
 12 13  1  0
 13 14  2  0
 14 15  1  0
 15 16  2  0
 15 17  1  0
 17 18  1  0
 18 19  1  0
 19 20  1  0
 14 21  1  0
 21 22  1  0
 11 23  1  0
 21 23  2  0
  7 24  1  0
  4 25  1  0
 24 25  1  0
M  END
