piperidine-amides-3134-covalent
     RDKit          3D

 23 24  0  0  0  0  0  0  0  0999 V2000
    7.1040   -3.2650   19.2120 C   0  0  0  0  0  0  0  0  0  0  0  0
    6.3390   -4.0290   20.1970 C   0  0  0  0  0  0  0  0  0  0  0  0
    5.2800   -4.5650   19.8800 O   0  0  0  0  0  0  0  0  0  0  0  0
    6.8440   -4.2010   21.5220 N   0  0  0  0  0  0  0  0  0  0  0  0
    7.6810   -3.1800   22.1030 C   0  0  0  0  0  0  0  0  0  0  0  0
    7.0620   -2.6530   23.3580 C   0  0  0  0  0  0  0  0  0  0  0  0
    6.5580   -3.8350   24.1560 C   0  0  0  0  0  0  0  0  0  0  0  0
    5.8340   -3.3020   25.3370 C   0  0  0  0  0  0  0  0  0  0  0  0
    4.5900   -3.2710   25.4120 O   0  0  0  0  0  0  0  0  0  0  0  0
    6.6120   -2.7950   26.4040 N   0  0  0  0  0  0  0  0  0  0  0  0
    6.2510   -3.1000   27.7690 C   0  0  0  0  0  0  0  0  0  0  0  0
    6.1220   -4.5900   27.9480 C   0  0  0  0  0  0  0  0  0  0  0  0
    4.9380   -5.0900   28.4610 C   0  0  0  0  0  0  0  0  0  0  0  0
    5.0050   -6.5040   28.6720 N   0  0  0  0  0  0  0  0  0  0  0  0
    6.2030   -6.9150   29.3390 C   0  0  0  0  0  0  0  0  0  0  0  0
    3.7540   -7.0520   28.9650 C   0  0  0  0  0  0  0  0  0  0  0  0
    3.3260   -7.7560   30.1430 C   0  0  0  0  0  0  0  0  0  0  0  0
    2.1120   -8.2810   30.4050 C   0  0  0  0  0  0  0  0  0  0  0  0
    1.1380   -8.1430   29.4370 C   0  0  0  0  0  0  0  0  0  0  0  0
    1.4470   -7.4660   28.2320 C   0  0  0  0  0  0  0  0  0  0  0  0
    2.6750   -6.9480   27.9970 N   0  0  0  0  0  0  0  0  0  0  0  0
    5.7760   -4.8180   23.4240 C   0  0  0  0  0  0  0  0  0  0  0  0
    6.4650   -5.3190   22.3350 C   0  0  0  0  0  0  0  0  0  0  0  0
  1  2  1  0
  2  3  2  0
  2  4  1  0
  4  5  1  0
  5  6  1  0
  6  7  1  0
  7  8  1  0
  8  9  2  0
  8 10  1  0
 10 11  1  0
 11 12  1  0
 12 13  1  0
 13 14  1  0
 14 15  1  0
 14 16  1  0
 16 17  2  0
 17 18  1  0
 18 19  2  0
 19 20  1  0
 16 21  1  0
 20 21  2  0
  7 22  1  0
  4 23  1  0
 22 23  1  0
M  END
