piperidine-amides-29723-covalent
     RDKit          3D

 27 29  0  0  0  0  0  0  0  0999 V2000
    7.0400   -3.3480   19.3880 C   0  0  0  0  0  0  0  0  0  0  0  0
    6.3860   -4.2200   20.3610 C   0  0  0  0  0  0  0  0  0  0  0  0
    5.4240   -4.9050   20.0010 O   0  0  0  0  0  0  0  0  0  0  0  0
    6.8850   -4.3120   21.7140 N   0  0  0  0  0  0  0  0  0  0  0  0
    7.7720   -3.2750   22.2210 C   0  0  0  0  0  0  0  0  0  0  0  0
    7.5520   -3.0340   23.6910 C   0  0  0  0  0  0  0  0  0  0  0  0
    6.1970   -3.6140   24.0110 C   0  0  0  0  0  0  0  0  0  0  0  0
    5.6810   -3.1930   25.3600 C   0  0  0  0  0  0  0  0  0  0  0  0
    4.9660   -2.1810   25.4730 O   0  0  0  0  0  0  0  0  0  0  0  0
    5.9350   -3.9200   26.5470 N   0  0  0  0  0  0  0  0  0  0  0  0
    4.9740   -4.9350   26.7920 C   0  0  0  0  0  0  0  0  0  0  0  0
    5.6090   -5.8990   27.7420 C   0  0  0  0  0  0  0  0  0  0  0  0
    6.3490   -5.5240   28.7740 N   0  0  0  0  0  0  0  0  0  0  0  0
    5.8280   -6.0990   29.8800 C   0  0  0  0  0  0  0  0  0  0  0  0
    6.4090   -6.9350   30.6000 O   0  0  0  0  0  0  0  0  0  0  0  0
    4.5350   -5.8770   30.3700 C   0  0  0  0  0  0  0  0  0  0  0  0
    4.1570   -6.8190   31.3190 C   0  0  0  0  0  0  0  0  0  0  0  0
    2.9210   -7.5760   31.1370 C   0  0  0  0  0  0  0  0  0  0  0  0
    2.5020   -8.5040   32.0280 C   0  0  0  0  0  0  0  0  0  0  0  0
    3.3210   -8.6630   33.0870 C   0  0  0  0  0  0  0  0  0  0  0  0
    3.5800   -9.3240   34.2880 C   0  0  0  0  0  0  0  0  0  0  0  0
    4.5700   -7.9570   33.3510 C   0  0  0  0  0  0  0  0  0  0  0  0
    5.0140   -6.9900   32.4300 C   0  0  0  0  0  0  0  0  0  0  0  0
    6.6690   -4.1260   28.7430 C   0  0  0  0  0  0  0  0  0  0  0  0
    6.3690   -3.1340   27.6500 C   0  0  0  0  0  0  0  0  0  0  0  0
    6.1320   -5.0960   23.8520 C   0  0  0  0  0  0  0  0  0  0  0  0
    6.6680   -5.5090   22.4890 C   0  0  0  0  0  0  0  0  0  0  0  0
  1  2  1  0
  2  3  2  0
  2  4  1  0
  4  5  1  0
  5  6  1  0
  6  7  1  0
  7  8  1  0
  8  9  2  0
  8 10  1  0
 10 11  1  0
 11 12  1  0
 12 13  1  0
 13 14  1  0
 14 15  2  0
 14 16  1  0
 16 17  1  0
 17 18  2  0
 18 19  1  0
 19 20  2  0
 20 21  1  0
 20 22  1  0
 17 23  1  0
 22 23  2  0
 13 24  1  0
 10 25  1  0
 24 25  1  0
  7 26  1  0
  4 27  1  0
 26 27  1  0
M  END
