piperidine-amides-1575-covalent
     RDKit          3D

 21 22  0  0  0  0  0  0  0  0999 V2000
    7.1160   -3.2820   19.2850 C   0  0  0  0  0  0  0  0  0  0  0  0
    6.3020   -4.0420   20.2780 C   0  0  0  0  0  0  0  0  0  0  0  0
    5.2510   -4.5820   19.8940 O   0  0  0  0  0  0  0  0  0  0  0  0
    6.7570   -4.1780   21.6110 N   0  0  0  0  0  0  0  0  0  0  0  0
    6.6300   -5.4240   22.3350 C   0  0  0  0  0  0  0  0  0  0  0  0
    6.1180   -5.1200   23.7530 C   0  0  0  0  0  0  0  0  0  0  0  0
    6.0570   -3.6390   23.9080 C   0  0  0  0  0  0  0  0  0  0  0  0
    5.5100   -3.1690   25.2050 C   0  0  0  0  0  0  0  0  0  0  0  0
    4.5690   -2.3770   25.1350 O   0  0  0  0  0  0  0  0  0  0  0  0
    6.0250   -3.6070   26.4280 N   0  0  0  0  0  0  0  0  0  0  0  0
    5.9700   -4.9190   26.9660 C   0  0  0  0  0  0  0  0  0  0  0  0
    4.8860   -5.5820   27.4100 C   0  0  1  0  0  0  0  0  0  0  0  0
    3.6130   -5.2880   26.9090 C   0  0  0  0  0  0  0  0  0  0  0  0
    5.0840   -6.9350   26.9000 O   0  0  0  0  0  0  0  0  0  0  0  0
    4.9030   -5.7510   28.8920 C   0  0  0  0  0  0  0  0  0  0  0  0
    3.6330   -6.3960   29.2800 C   0  0  0  0  0  0  0  0  0  0  0  0
    3.9480   -7.4860   30.2800 C   0  0  0  0  0  0  0  0  0  0  0  0
    5.4720   -7.3190   30.2960 C   0  0  0  0  0  0  0  0  0  0  0  0
    5.9870   -6.3500   29.4430 C   0  0  0  0  0  0  0  0  0  0  0  0
    7.3470   -2.9650   23.6220 C   0  0  0  0  0  0  0  0  0  0  0  0
    7.6440   -3.1570   22.1510 C   0  0  0  0  0  0  0  0  0  0  0  0
  1  2  1  0
  2  3  2  0
  2  4  1  0
  4  5  1  0
  5  6  1  0
  6  7  1  0
  7  8  1  0
  8  9  2  0
  8 10  1  0
 10 11  1  0
 11 12  1  0
 12 13  1  6
 12 14  1  0
 12 15  1  0
 15 16  1  0
 16 17  1  0
 17 18  1  0
 15 19  1  0
 18 19  1  0
  7 20  1  0
  4 21  1  0
 20 21  1  0
M  END
