piperidine-amides-6293-covalent
     RDKit          3D

 25 27  0  0  0  0  0  0  0  0999 V2000
    7.0900   -3.2890   19.2770 C   0  0  0  0  0  0  0  0  0  0  0  0
    6.3100   -4.0390   20.2730 C   0  0  0  0  0  0  0  0  0  0  0  0
    5.2780   -4.6480   19.9190 O   0  0  0  0  0  0  0  0  0  0  0  0
    6.7310   -4.1250   21.6110 N   0  0  0  0  0  0  0  0  0  0  0  0
    6.5860   -5.3950   22.2990 C   0  0  0  0  0  0  0  0  0  0  0  0
    6.2360   -5.1210   23.7740 C   0  0  0  0  0  0  0  0  0  0  0  0
    6.0430   -3.6290   23.9320 C   0  0  0  0  0  0  0  0  0  0  0  0
    5.6050   -3.2640   25.3000 C   0  0  0  0  0  0  0  0  0  0  0  0
    4.3770   -3.2070   25.5030 O   0  0  0  0  0  0  0  0  0  0  0  0
    6.5390   -2.9850   26.3270 N   0  0  0  0  0  0  0  0  0  0  0  0
    6.3280   -3.4850   27.6720 C   0  0  2  0  0  0  0  0  0  0  0  0
    5.6240   -4.8230   27.6130 C   0  0  0  0  0  0  0  0  0  0  0  0
    5.3100   -5.4640   28.7770 C   0  0  0  0  0  0  0  0  0  0  0  0
    4.3930   -5.0670   29.6720 C   0  0  0  0  0  0  0  0  0  0  0  0
    4.2650   -5.8810   30.7460 C   0  0  0  0  0  0  0  0  0  0  0  0
    4.9700   -7.0260   30.9700 C   0  0  0  0  0  0  0  0  0  0  0  0
    6.0550   -7.6680   30.0930 C   0  0  0  0  0  0  0  0  0  0  0  0
    6.0310   -6.6040   28.9760 C   0  0  0  0  0  0  0  0  0  0  0  0
    5.4180   -2.6830   28.5620 C   0  0  0  0  0  0  0  0  0  0  0  0
    4.1630   -2.2660   28.3390 N   0  0  0  0  0  0  0  0  0  0  0  0
    3.7280   -1.5350   29.4880 C   0  0  0  0  0  0  0  0  0  0  0  0
    4.8400   -1.6160   30.2890 C   0  0  0  0  0  0  0  0  0  0  0  0
    5.7790   -2.2540   29.7730 O   0  0  0  0  0  0  0  0  0  0  0  0
    7.3680   -2.9530   23.6270 C   0  0  0  0  0  0  0  0  0  0  0  0
    7.6390   -3.1340   22.1610 C   0  0  0  0  0  0  0  0  0  0  0  0
  1  2  1  0
  2  3  2  0
  2  4  1  0
  4  5  1  0
  5  6  1  0
  6  7  1  0
  7  8  1  0
  8  9  2  0
  8 10  1  0
 10 11  1  0
 11 12  1  6
 12 13  1  0
 13 14  2  0
 14 15  1  0
 15 16  2  0
 16 17  1  0
 13 18  1  0
 17 18  2  0
 11 19  1  0
 19 20  2  0
 20 21  1  0
 21 22  2  0
 19 23  1  0
 22 23  1  0
  7 24  1  0
  4 25  1  0
 24 25  1  0
M  END
