piperidine-amides-30532-covalent
     RDKit          3D

 26 28  0  0  0  0  0  0  0  0999 V2000
    7.0450   -3.3530   19.3810 C   0  0  0  0  0  0  0  0  0  0  0  0
    6.3990   -4.1970   20.3880 C   0  0  0  0  0  0  0  0  0  0  0  0
    5.4460   -4.9120   20.0140 O   0  0  0  0  0  0  0  0  0  0  0  0
    6.8560   -4.2490   21.7330 N   0  0  0  0  0  0  0  0  0  0  0  0
    7.7380   -3.2130   22.2880 C   0  0  0  0  0  0  0  0  0  0  0  0
    7.3440   -2.9170   23.7290 C   0  0  0  0  0  0  0  0  0  0  0  0
    6.0840   -3.6270   24.0960 C   0  0  0  0  0  0  0  0  0  0  0  0
    5.4830   -3.3350   25.4460 C   0  0  0  0  0  0  0  0  0  0  0  0
    4.2310   -3.1610   25.4790 O   0  0  0  0  0  0  0  0  0  0  0  0
    6.1150   -3.2050   26.7280 N   0  0  0  0  0  0  0  0  0  0  0  0
    6.2820   -1.8170   27.2340 C   0  0  0  0  0  0  0  0  0  0  0  0
    6.9660   -1.6820   28.5250 C   0  0  0  0  0  0  0  0  0  0  0  0
    7.1430   -0.3770   29.1340 C   0  0  0  0  0  0  0  0  0  0  0  0
    6.6200    0.8350   28.4180 C   0  0  0  0  0  0  0  0  0  0  0  0
    6.7760    2.2240   29.0050 C   0  0  0  0  0  0  0  0  0  0  0  0
    5.9140    0.6800   27.0570 C   0  0  0  0  0  0  0  0  0  0  0  0
    5.2900    2.0730   26.1770 Cl  0  0  0  0  0  0  0  0  0  0  0  0
    5.7430   -0.5710   26.4740 C   0  0  0  0  0  0  0  0  0  0  0  0
    5.5840   -3.9160   27.8720 C   0  0  1  0  0  0  0  0  0  0  0  0
    4.1780   -4.3710   27.9160 C   0  0  0  0  0  0  0  0  0  0  0  0
    4.2380   -5.4150   29.0270 C   0  0  0  0  0  0  0  0  0  0  0  0
    5.4620   -5.5380   29.4640 O   0  0  0  0  0  0  0  0  0  0  0  0
    6.3200   -5.0870   28.4200 C   0  0  1  0  0  0  0  0  0  0  0  0
    6.5310   -6.0260   27.7200 C   0  0  0  0  0  0  0  0  0  0  0  0
    6.1110   -5.0700   23.8100 C   0  0  0  0  0  0  0  0  0  0  0  0
    6.5960   -5.3930   22.5620 C   0  0  0  0  0  0  0  0  0  0  0  0
  1  2  1  0
  2  3  2  0
  2  4  1  0
  4  5  1  0
  5  6  1  0
  6  7  1  0
  7  8  1  0
  8  9  2  0
  8 10  1  0
 10 11  1  0
 11 12  2  0
 12 13  1  0
 13 14  2  0
 14 15  1  0
 14 16  1  0
 16 17  1  0
 11 18  1  0
 16 18  2  0
 19 10  1  6
 19 20  1  0
 20 21  1  0
 21 22  1  0
 19 23  1  0
 22 23  1  0
 23 24  1  6
  7 25  1  0
  4 26  1  0
 25 26  1  0
M  END
