piperidine-amides-2395-covalent
     RDKit          3D

 27 28  0  0  0  0  0  0  0  0999 V2000
    7.0590   -3.2830   19.2830 C   0  0  0  0  0  0  0  0  0  0  0  0
    6.3490   -4.0980   20.3080 C   0  0  0  0  0  0  0  0  0  0  0  0
    5.3410   -4.6990   19.9370 O   0  0  0  0  0  0  0  0  0  0  0  0
    6.8460   -4.1920   21.6150 N   0  0  0  0  0  0  0  0  0  0  0  0
    7.7130   -3.1800   22.1760 C   0  0  0  0  0  0  0  0  0  0  0  0
    7.4160   -3.0010   23.6350 C   0  0  0  0  0  0  0  0  0  0  0  0
    6.0560   -3.6290   23.9310 C   0  0  0  0  0  0  0  0  0  0  0  0
    5.5920   -3.2550   25.2830 C   0  0  0  0  0  0  0  0  0  0  0  0
    4.4250   -2.8570   25.4070 O   0  0  0  0  0  0  0  0  0  0  0  0
    6.4070   -3.3430   26.4290 N   0  0  0  0  0  0  0  0  0  0  0  0
    5.7540   -3.7130   27.6640 C   0  0  1  0  0  0  0  0  0  0  0  0
    6.6000   -4.7230   28.4120 C   0  0  0  0  0  0  0  0  0  0  0  0
    5.8220   -5.3740   29.4850 N   0  0  0  0  0  0  0  0  0  0  0  0
    6.1750   -6.7830   29.3280 C   0  0  0  0  0  0  0  0  0  0  0  0
    4.4410   -4.9790   29.5900 C   0  0  0  0  0  0  0  0  0  0  0  0
    5.5450   -2.5970   28.6400 C   0  0  0  0  0  0  0  0  0  0  0  0
    4.0450   -2.5600   28.8440 C   0  0  0  0  0  0  0  0  0  0  0  0
    3.5620   -1.4880   29.8090 C   0  0  0  0  0  0  0  0  0  0  0  0
    4.5450   -0.5440   30.4960 C   0  0  0  0  0  0  0  0  0  0  0  0
    6.0160   -0.6250   30.2560 C   0  0  0  0  0  0  0  0  0  0  0  0
    6.9630    0.3110   30.9330 C   0  0  0  0  0  0  0  0  0  0  0  0
    8.2740    0.0050   30.8340 F   0  0  0  0  0  0  0  0  0  0  0  0
    6.7490    1.5460   30.3910 F   0  0  0  0  0  0  0  0  0  0  0  0
    6.5980    0.2510   32.2540 F   0  0  0  0  0  0  0  0  0  0  0  0
    6.4850   -1.6710   29.3160 C   0  0  0  0  0  0  0  0  0  0  0  0
    6.1430   -5.1300   23.7640 C   0  0  0  0  0  0  0  0  0  0  0  0
    6.6750   -5.4170   22.3780 C   0  0  0  0  0  0  0  0  0  0  0  0
  1  2  1  0
  2  3  2  0
  2  4  1  0
  4  5  1  0
  5  6  1  0
  6  7  1  0
  7  8  1  0
  8  9  2  0
  8 10  1  0
 10 11  1  0
 11 12  1  1
 12 13  1  0
 13 14  1  0
 13 15  1  0
 11 16  1  0
 16 17  2  0
 17 18  1  0
 18 19  2  0
 19 20  1  0
 20 21  1  0
 21 22  1  0
 21 23  1  0
 21 24  1  0
 16 25  1  0
 20 25  2  0
  7 26  1  0
  4 27  1  0
 26 27  1  0
M  END
