piperidine-amides-2432-covalent
     RDKit          3D

 26 28  0  0  0  0  0  0  0  0999 V2000
    7.0660   -3.3190   19.2370 C   0  0  0  0  0  0  0  0  0  0  0  0
    6.3700   -4.1370   20.2650 C   0  0  0  0  0  0  0  0  0  0  0  0
    5.3290   -4.6920   19.9320 O   0  0  0  0  0  0  0  0  0  0  0  0
    6.9270   -4.2940   21.5320 N   0  0  0  0  0  0  0  0  0  0  0  0
    7.7450   -3.2710   22.1410 C   0  0  0  0  0  0  0  0  0  0  0  0
    7.0040   -2.6640   23.2820 C   0  0  0  0  0  0  0  0  0  0  0  0
    6.5360   -3.7970   24.1730 C   0  0  0  0  0  0  0  0  0  0  0  0
    5.7990   -3.1760   25.2810 C   0  0  0  0  0  0  0  0  0  0  0  0
    4.5750   -2.9950   25.2070 O   0  0  0  0  0  0  0  0  0  0  0  0
    6.5130   -2.7970   26.4170 N   0  0  0  0  0  0  0  0  0  0  0  0
    6.3830   -1.4840   26.9940 C   0  0  0  0  0  0  0  0  0  0  0  0
    5.9570   -0.2420   26.2710 C   0  0  0  0  0  0  0  0  0  0  0  0
    5.8130    1.0250   26.7650 C   0  0  0  0  0  0  0  0  0  0  0  0
    6.0850    1.2240   28.0890 C   0  0  0  0  0  0  0  0  0  0  0  0
    5.9410    2.5140   28.6080 F   0  0  0  0  0  0  0  0  0  0  0  0
    6.4890    0.2180   28.9230 C   0  0  0  0  0  0  0  0  0  0  0  0
    6.6810    0.6540   30.1580 N   0  0  0  0  0  0  0  0  0  0  0  0
    7.7340   -0.0390   30.9660 C   0  0  0  0  0  0  0  0  0  0  0  0
    7.7610    0.6510   32.3010 C   0  0  0  0  0  0  0  0  0  0  0  0
    6.4420    0.7130   32.4710 N   0  0  0  0  0  0  0  0  0  0  0  0
    5.7630    0.5030   31.2620 C   0  0  0  0  0  0  0  0  0  0  0  0
    4.4280    0.1910   31.0830 O   0  0  0  0  0  0  0  0  0  0  0  0
    6.6530   -1.1800   28.3950 C   0  0  0  0  0  0  0  0  0  0  0  0
    7.0730   -2.2580   29.2510 C   0  0  0  0  0  0  0  0  0  0  0  0
    5.8280   -4.9180   23.5130 C   0  0  0  0  0  0  0  0  0  0  0  0
    6.5680   -5.4430   22.3350 C   0  0  0  0  0  0  0  0  0  0  0  0
  1  2  1  0
  2  3  2  0
  2  4  1  0
  4  5  1  0
  5  6  1  0
  6  7  1  0
  7  8  1  0
  8  9  2  0
  8 10  1  0
 10 11  1  0
 11 12  2  0
 12 13  1  0
 13 14  2  0
 14 15  1  0
 14 16  1  0
 16 17  1  0
 17 18  1  0
 18 19  1  0
 19 20  1  0
 17 21  1  0
 20 21  1  0
 21 22  2  0
 11 23  1  0
 16 23  2  0
 23 24  1  0
  7 25  1  0
  4 26  1  0
 25 26  1  0
M  END
