piperidine-amides-14324-covalent
     RDKit          3D

 24 25  0  0  0  0  0  0  0  0999 V2000
    7.1200   -3.2900   19.2400 C   0  0  0  0  0  0  0  0  0  0  0  0
    6.3950   -4.0790   20.2330 C   0  0  0  0  0  0  0  0  0  0  0  0
    5.3100   -4.5850   19.9000 O   0  0  0  0  0  0  0  0  0  0  0  0
    6.9610   -4.3030   21.5100 N   0  0  0  0  0  0  0  0  0  0  0  0
    6.4090   -5.3640   22.2920 C   0  0  0  0  0  0  0  0  0  0  0  0
    5.4390   -4.7640   23.2700 C   0  0  0  0  0  0  0  0  0  0  0  0
    6.1810   -3.7000   24.0560 C   0  0  0  0  0  0  0  0  0  0  0  0
    5.2390   -3.0020   24.9900 C   0  0  0  0  0  0  0  0  0  0  0  0
    4.0680   -3.3660   24.9660 O   0  0  0  0  0  0  0  0  0  0  0  0
    5.7380   -1.9940   25.8050 N   0  0  0  0  0  0  0  0  0  0  0  0
    6.7240   -2.2860   26.7610 C   0  0  0  0  0  0  0  0  0  0  0  0
    7.5030   -3.3400   26.3660 C   0  0  0  0  0  0  0  0  0  0  0  0
    8.5570   -3.1780   25.5080 C   0  0  0  0  0  0  0  0  0  0  0  0
    9.3810   -4.2170   25.0980 C   0  0  0  0  0  0  0  0  0  0  0  0
    9.0840   -5.5770   25.6460 C   0  0  0  0  0  0  0  0  0  0  0  0
    7.9160   -5.7600   26.5730 C   0  0  0  0  0  0  0  0  0  0  0  0
    7.1770   -4.5520   26.8700 C   0  0  0  0  0  0  0  0  0  0  0  0
    6.0790   -4.6440   27.7450 N   0  0  0  0  0  0  0  0  0  0  0  0
    4.9520   -5.2830   27.1040 C   0  0  0  0  0  0  0  0  0  0  0  0
    6.6810   -5.1620   28.8800 C   0  0  0  0  0  0  0  0  0  0  0  0
    8.0100   -5.3680   28.5620 C   0  0  0  0  0  0  0  0  0  0  0  0
    6.0970   -6.3100   29.3440 C   0  0  0  0  0  0  0  0  0  0  0  0
    6.8080   -2.6560   23.1910 C   0  0  0  0  0  0  0  0  0  0  0  0
    7.7050   -3.2730   22.1680 C   0  0  0  0  0  0  0  0  0  0  0  0
  1  2  1  0
  2  3  2  0
  2  4  1  0
  4  5  1  0
  5  6  1  0
  6  7  1  0
  7  8  1  0
  8  9  2  0
  8 10  1  0
 10 11  1  0
 11 12  1  0
 12 13  2  0
 13 14  1  0
 14 15  2  0
 15 16  1  0
 12 17  1  0
 16 17  2  0
 17 18  1  0
 18 19  1  0
 18 20  1  0
 20 21  1  0
 20 22  1  0
  7 23  1  0
  4 24  1  0
 23 24  1  0
M  END
