piperidine-amides-30603-covalent
     RDKit          3D

 27 29  0  0  0  0  0  0  0  0999 V2000
    7.0160   -3.3650   19.4250 C   0  0  0  0  0  0  0  0  0  0  0  0
    6.3640   -4.2250   20.4130 C   0  0  0  0  0  0  0  0  0  0  0  0
    5.4390   -4.9590   20.0160 O   0  0  0  0  0  0  0  0  0  0  0  0
    6.7850   -4.2670   21.7690 N   0  0  0  0  0  0  0  0  0  0  0  0
    7.6090   -3.2190   22.3480 C   0  0  0  0  0  0  0  0  0  0  0  0
    7.1440   -3.0100   23.7760 C   0  0  0  0  0  0  0  0  0  0  0  0
    5.7960   -3.6410   24.0280 C   0  0  0  0  0  0  0  0  0  0  0  0
    5.0280   -3.1080   25.2290 C   0  0  0  0  0  0  0  0  0  0  0  0
    4.2440   -2.1440   25.0560 O   0  0  0  0  0  0  0  0  0  0  0  0
    5.0860   -3.5880   26.5720 N   0  0  0  0  0  0  0  0  0  0  0  0
    4.4890   -2.8640   27.7110 C   0  0  0  0  0  0  0  0  0  0  0  0
    4.2280   -3.7950   28.8610 C   0  0  0  0  0  0  0  0  0  0  0  0
    5.1480   -4.7680   28.9280 N   0  0  0  0  0  0  0  0  0  0  0  0
    4.8290   -6.1480   28.9520 C   0  0  0  0  0  0  0  0  0  0  0  0
    4.7480   -6.9050   27.9680 O   0  0  0  0  0  0  0  0  0  0  0  0
    4.5980   -6.5430   30.3890 C   0  0  0  0  0  0  0  0  0  0  0  0
    5.6420   -7.4810   30.9580 C   0  0  0  0  0  0  0  0  0  0  0  0
    5.3870   -7.8490   32.3790 C   0  0  0  0  0  0  0  0  0  0  0  0
    4.3300   -7.4120   33.1330 C   0  0  0  0  0  0  0  0  0  0  0  0
    4.1590   -7.7940   34.4320 F   0  0  0  0  0  0  0  0  0  0  0  0
    3.3740   -6.5470   32.5900 C   0  0  0  0  0  0  0  0  0  0  0  0
    2.3240   -6.1210   33.3600 F   0  0  0  0  0  0  0  0  0  0  0  0
    3.5490   -6.1150   31.1530 C   0  0  0  0  0  0  0  0  0  0  0  0
    6.3660   -4.6880   28.1920 C   0  0  0  0  0  0  0  0  0  0  0  0
    6.3120   -4.1180   26.8110 C   0  0  0  0  0  0  0  0  0  0  0  0
    5.9560   -5.1240   23.8940 C   0  0  0  0  0  0  0  0  0  0  0  0
    6.4310   -5.4460   22.5120 C   0  0  0  0  0  0  0  0  0  0  0  0
  1  2  1  0
  2  3  2  0
  2  4  1  0
  4  5  1  0
  5  6  1  0
  6  7  1  0
  7  8  1  0
  8  9  2  0
  8 10  1  0
 10 11  1  0
 11 12  1  0
 12 13  1  0
 13 14  1  0
 14 15  2  0
 14 16  1  0
 16 17  2  0
 17 18  1  0
 18 19  2  0
 19 20  1  0
 19 21  1  0
 21 22  1  0
 16 23  1  0
 21 23  2  0
 13 24  1  0
 10 25  1  0
 24 25  1  0
  7 26  1  0
  4 27  1  0
 26 27  1  0
M  END
