piperidine-amides-8201-covalent
     RDKit          3D

 25 27  0  0  0  0  0  0  0  0999 V2000
    7.1650   -3.3010   19.2460 C   0  0  0  0  0  0  0  0  0  0  0  0
    6.3920   -4.0510   20.2290 C   0  0  0  0  0  0  0  0  0  0  0  0
    5.2960   -4.5270   19.8820 O   0  0  0  0  0  0  0  0  0  0  0  0
    6.9360   -4.2720   21.5140 N   0  0  0  0  0  0  0  0  0  0  0  0
    7.7070   -3.2290   22.1230 C   0  0  0  0  0  0  0  0  0  0  0  0
    6.9100   -2.6460   23.2390 C   0  0  0  0  0  0  0  0  0  0  0  0
    6.5540   -3.7870   24.1580 C   0  0  0  0  0  0  0  0  0  0  0  0
    5.6750   -3.2740   25.2450 C   0  0  0  0  0  0  0  0  0  0  0  0
    4.4720   -3.2600   25.0010 O   0  0  0  0  0  0  0  0  0  0  0  0
    6.2380   -2.8550   26.4360 N   0  0  0  0  0  0  0  0  0  0  0  0
    5.4010   -2.7630   27.5760 C   0  0  0  0  0  0  0  0  0  0  0  0
    5.6250   -1.6730   28.4070 C   0  0  2  0  0  0  0  0  0  0  0  0
    4.9820   -1.6320   29.6610 C   0  0  0  0  0  0  0  0  0  0  0  0
    5.0780   -0.4620   30.4580 C   0  0  0  0  0  0  0  0  0  0  0  0
    6.3670    0.1280   30.0170 C   0  0  2  0  0  0  0  0  0  0  0  0
    6.9870    1.2900   30.7950 C   0  0  0  0  0  0  0  0  0  0  0  0
    6.1190    1.8600   31.5020 O   0  0  0  0  0  0  0  0  0  0  0  0
    8.2640    1.5600   30.6610 O   0  0  0  0  0  0  0  0  0  0  0  0
    9.0130    0.7520   31.5190 C   0  0  0  0  0  0  0  0  0  0  0  0
    6.1610    0.6340   28.6630 C   0  0  0  0  0  0  0  0  0  0  0  0
    5.6850   -0.4700   27.7240 C   0  0  0  0  0  0  0  0  0  0  0  0
    7.3680   -0.9580   29.8960 C   0  0  0  0  0  0  0  0  0  0  0  0
    7.0510   -1.8040   28.8970 C   0  0  0  0  0  0  0  0  0  0  0  0
    5.8220   -4.9130   23.4930 C   0  0  0  0  0  0  0  0  0  0  0  0
    6.5640   -5.4140   22.2920 C   0  0  0  0  0  0  0  0  0  0  0  0
  1  2  1  0
  2  3  2  0
  2  4  1  0
  4  5  1  0
  5  6  1  0
  6  7  1  0
  7  8  1  0
  8  9  2  0
  8 10  1  0
 10 11  1  0
 12 11  1  6
 12 13  1  0
 13 14  1  0
 14 15  1  0
 15 16  1  1
 16 17  2  0
 16 18  1  0
 18 19  1  0
 15 20  1  0
 12 21  1  0
 20 21  1  0
 15 22  1  0
 12 23  1  0
 22 23  1  0
  7 24  1  0
  4 25  1  0
 24 25  1  0
M  END
