piperidine-amides-2400-covalent
     RDKit          3D

 27 29  0  0  0  0  0  0  0  0999 V2000
    7.0790   -3.3210   19.2880 C   0  0  0  0  0  0  0  0  0  0  0  0
    6.3950   -4.1640   20.2980 C   0  0  0  0  0  0  0  0  0  0  0  0
    5.3650   -4.7440   19.9500 O   0  0  0  0  0  0  0  0  0  0  0  0
    6.9510   -4.3090   21.5650 N   0  0  0  0  0  0  0  0  0  0  0  0
    7.6710   -3.2170   22.1610 C   0  0  0  0  0  0  0  0  0  0  0  0
    6.8410   -2.6850   23.2830 C   0  0  0  0  0  0  0  0  0  0  0  0
    6.5580   -3.8230   24.2540 C   0  0  0  0  0  0  0  0  0  0  0  0
    5.7950   -3.2620   25.3860 C   0  0  0  0  0  0  0  0  0  0  0  0
    4.6130   -2.9310   25.2210 O   0  0  0  0  0  0  0  0  0  0  0  0
    6.3940   -3.1110   26.6470 N   0  0  0  0  0  0  0  0  0  0  0  0
    6.4170   -1.8130   27.2860 C   0  0  0  0  0  0  0  0  0  0  0  0
    5.7670   -0.5700   26.7390 C   0  0  0  0  0  0  0  0  0  0  0  0
    5.7330    0.6960   27.2710 C   0  0  0  0  0  0  0  0  0  0  0  0
    6.3650    0.9140   28.4660 C   0  0  0  0  0  0  0  0  0  0  0  0
    6.3010    2.2030   28.9590 O   0  0  0  0  0  0  0  0  0  0  0  0
    5.0150    2.6950   28.9990 C   0  0  0  0  0  0  0  0  0  0  0  0
    4.6590    2.9500   30.4500 C   0  0  0  0  0  0  0  0  0  0  0  0
    5.4220    1.9170   31.2470 C   0  0  0  0  0  0  0  0  0  0  0  0
    5.2050    1.9960   32.7530 C   0  0  0  0  0  0  0  0  0  0  0  0
    4.2920    3.0430   33.3110 C   0  0  0  0  0  0  0  0  0  0  0  0
    3.5910    4.0090   32.4350 C   0  0  0  0  0  0  0  0  0  0  0  0
    3.7310    4.0240   30.9400 C   0  0  0  0  0  0  0  0  0  0  0  0
    3.0860    4.9170   30.1240 F   0  0  0  0  0  0  0  0  0  0  0  0
    7.0930   -0.1720   29.2170 C   0  0  0  0  0  0  0  0  0  0  0  0
    7.1310   -1.5560   28.6400 C   0  0  0  0  0  0  0  0  0  0  0  0
    5.7430   -4.8940   23.5570 C   0  0  0  0  0  0  0  0  0  0  0  0
    6.4990   -5.4110   22.3600 C   0  0  0  0  0  0  0  0  0  0  0  0
  1  2  1  0
  2  3  2  0
  2  4  1  0
  4  5  1  0
  5  6  1  0
  6  7  1  0
  7  8  1  0
  8  9  2  0
  8 10  1  0
 10 11  1  0
 11 12  2  0
 12 13  1  0
 13 14  2  0
 14 15  1  0
 15 16  1  0
 16 17  1  0
 17 18  2  0
 18 19  1  0
 19 20  2  0
 20 21  1  0
 17 22  1  0
 21 22  2  0
 22 23  1  0
 14 24  1  0
 11 25  1  0
 24 25  2  0
  7 26  1  0
  4 27  1  0
 26 27  1  0
M  END
