piperidine-amides-24689-covalent
     RDKit          3D

 24 26  0  0  0  0  0  0  0  0999 V2000
    7.0880   -3.3470   19.3090 C   0  0  0  0  0  0  0  0  0  0  0  0
    6.4240   -4.2140   20.2890 C   0  0  0  0  0  0  0  0  0  0  0  0
    5.3750   -4.8150   19.9760 O   0  0  0  0  0  0  0  0  0  0  0  0
    6.9950   -4.4310   21.5500 N   0  0  0  0  0  0  0  0  0  0  0  0
    6.5670   -5.5780   22.2910 C   0  0  0  0  0  0  0  0  0  0  0  0
    5.6220   -5.0090   23.3450 C   0  0  0  0  0  0  0  0  0  0  0  0
    6.4120   -4.0020   24.1600 C   0  0  0  0  0  0  0  0  0  0  0  0
    5.4810   -3.3580   25.1010 C   0  0  0  0  0  0  0  0  0  0  0  0
    4.6320   -2.5770   24.6410 O   0  0  0  0  0  0  0  0  0  0  0  0
    5.5260   -3.6120   26.4760 N   0  0  0  0  0  0  0  0  0  0  0  0
    4.2880   -3.6800   27.1640 C   0  0  0  0  0  0  0  0  0  0  0  0
    4.4660   -4.6170   28.3270 C   0  0  0  0  0  0  0  0  0  0  0  0
    5.5180   -4.4160   29.1370 C   0  0  0  0  0  0  0  0  0  0  0  0
    5.3070   -3.2000   29.7430 C   0  0  0  0  0  0  0  0  0  0  0  0
    5.4740   -5.5180   30.0210 N   0  0  0  0  0  0  0  0  0  0  0  0
    6.0660   -6.6960   29.5590 C   0  0  0  0  0  0  0  0  0  0  0  0
    5.1400   -7.3440   28.7720 C   0  0  0  0  0  0  0  0  0  0  0  0
    3.8290   -7.1880   29.0010 O   0  0  0  0  0  0  0  0  0  0  0  0
    3.2760   -6.5490   30.0480 C   0  0  0  0  0  0  0  0  0  0  0  0
    4.3360   -5.8300   30.8510 C   0  0  0  0  0  0  0  0  0  0  0  0
    6.5890   -4.2730   28.3520 C   0  0  0  0  0  0  0  0  0  0  0  0
    6.4290   -3.1300   27.4410 C   0  0  0  0  0  0  0  0  0  0  0  0
    6.9920   -2.9070   23.3090 C   0  0  0  0  0  0  0  0  0  0  0  0
    7.6530   -3.3530   22.2080 C   0  0  0  0  0  0  0  0  0  0  0  0
  1  2  1  0
  2  3  2  0
  2  4  1  0
  4  5  1  0
  5  6  1  0
  6  7  1  0
  7  8  1  0
  8  9  2  0
  8 10  1  0
 10 11  1  0
 11 12  1  0
 12 13  1  0
 13 14  1  0
 13 15  1  0
 15 16  1  0
 16 17  1  0
 17 18  1  0
 18 19  1  0
 15 20  1  0
 19 20  1  0
 13 21  1  0
 10 22  1  0
 21 22  1  0
  7 23  1  0
  4 24  1  0
 23 24  1  0
M  END
