piperidine-amides-602-covalent
     RDKit          3D

 26 27  0  0  0  0  0  0  0  0999 V2000
    7.1630   -3.3240   19.3910 C   0  0  0  0  0  0  0  0  0  0  0  0
    6.4450   -4.1330   20.3450 C   0  0  0  0  0  0  0  0  0  0  0  0
    5.4130   -4.7750   19.9660 O   0  0  0  0  0  0  0  0  0  0  0  0
    6.8970   -4.2550   21.6730 N   0  0  0  0  0  0  0  0  0  0  0  0
    7.7530   -3.1730   22.2110 C   0  0  0  0  0  0  0  0  0  0  0  0
    6.7770   -2.6280   23.3110 C   0  0  0  0  0  0  0  0  0  0  0  0
    6.5170   -3.8300   24.1730 C   0  0  0  0  0  0  0  0  0  0  0  0
    5.6070   -3.5050   25.4290 C   0  0  0  0  0  0  0  0  0  0  0  0
    4.5760   -4.1480   25.3470 O   0  0  0  0  0  0  0  0  0  0  0  0
    6.1200   -2.6560   26.2240 N   0  0  0  0  0  0  0  0  0  0  0  0
    6.3910   -1.7180   27.1640 C   0  0  0  0  0  0  0  0  0  0  0  0
    6.9520   -1.6000   28.4460 C   0  0  0  0  0  0  0  0  0  0  0  0
    7.0130   -0.3400   29.1410 C   0  0  0  0  0  0  0  0  0  0  0  0
    7.5480   -0.0330   30.4910 C   0  0  0  0  0  0  0  0  0  0  0  0
    8.9300    0.1060   30.5680 O   0  0  0  0  0  0  0  0  0  0  0  0
    6.8650    0.1570   31.7100 N   0  0  0  0  0  0  0  0  0  0  0  0
    7.4890    0.2710   33.0310 C   0  0  0  0  0  0  0  0  0  0  0  0
    6.5400    0.9780   28.6630 C   0  0  0  0  0  0  0  0  0  0  0  0
    6.0050    0.8470   27.4130 C   0  0  0  0  0  0  0  0  0  0  0  0
    5.6840    2.3440   27.3480 C   0  0  0  0  0  0  0  0  0  0  0  0
    6.5500    3.2150   26.7240 O   0  0  0  0  0  0  0  0  0  0  0  0
    4.4880    2.8480   27.9210 N   0  0  0  0  0  0  0  0  0  0  0  0
    3.2410    2.4540   27.3180 C   0  0  0  0  0  0  0  0  0  0  0  0
    5.8890   -0.3630   26.6310 C   0  0  0  0  0  0  0  0  0  0  0  0
    5.9380   -5.0640   23.4790 C   0  0  0  0  0  0  0  0  0  0  0  0
    6.6990   -5.4530   22.4290 C   0  0  0  0  0  0  0  0  0  0  0  0
  1  2  1  0
  2  3  2  0
  2  4  1  0
  4  5  1  0
  5  6  1  0
  6  7  1  0
  7  8  1  0
  8  9  2  0
  8 10  1  0
 10 11  1  0
 11 12  2  0
 12 13  1  0
 13 14  1  0
 14 15  2  0
 14 16  1  0
 16 17  1  0
 13 18  2  0
 18 19  1  0
 19 20  1  0
 20 21  2  0
 20 22  1  0
 22 23  1  0
 11 24  1  0
 19 24  2  0
  7 25  1  0
  4 26  1  0
 25 26  1  0
M  END
