piperidine-amides-30915-covalent
     RDKit          3D

 27 28  0  0  0  0  0  0  0  0999 V2000
    7.0680   -3.3060   19.3090 C   0  0  0  0  0  0  0  0  0  0  0  0
    6.3270   -4.1090   20.2850 C   0  0  0  0  0  0  0  0  0  0  0  0
    5.2880   -4.6780   19.9210 O   0  0  0  0  0  0  0  0  0  0  0  0
    6.7710   -4.3050   21.6000 N   0  0  0  0  0  0  0  0  0  0  0  0
    7.7010   -3.3980   22.2570 C   0  0  0  0  0  0  0  0  0  0  0  0
    7.0130   -2.8440   23.4770 C   0  0  0  0  0  0  0  0  0  0  0  0
    6.3300   -3.9240   24.2610 C   0  0  0  0  0  0  0  0  0  0  0  0
    5.6030   -3.4050   25.4470 C   0  0  0  0  0  0  0  0  0  0  0  0
    4.3490   -3.2420   25.4000 O   0  0  0  0  0  0  0  0  0  0  0  0
    6.2500   -3.0620   26.6720 N   0  0  0  0  0  0  0  0  0  0  0  0
    6.5190   -4.1480   27.6510 C   0  0  0  0  0  0  0  0  0  0  0  0
    5.9730   -1.7150   27.2650 C   0  0  1  0  0  0  0  0  0  0  0  0
    6.9610   -1.4940   28.3580 C   0  0  0  0  0  0  0  0  0  0  0  0
    6.7140   -0.3050   29.2630 C   0  0  0  0  0  0  0  0  0  0  0  0
    5.6010    0.5050   28.8830 N   0  0  0  0  0  0  0  0  0  0  0  0
    5.7570    1.7550   29.6340 C   0  0  0  0  0  0  0  0  0  0  0  0
    6.2690    1.5490   30.9360 O   0  0  0  0  0  0  0  0  0  0  0  0
    5.4530    2.9200   29.1750 O   0  0  0  0  0  0  0  0  0  0  0  0
    6.4710    3.8270   28.8570 C   0  0  0  0  0  0  0  0  0  0  0  0
    6.6640    4.8280   27.9410 C   0  0  0  0  0  0  0  0  0  0  0  0
    6.6760    5.1860   29.4970 C   0  0  0  0  0  0  0  0  0  0  0  0
    7.8450    3.2530   28.5260 C   0  0  0  0  0  0  0  0  0  0  0  0
    5.6360    0.6400   27.4500 C   0  0  0  0  0  0  0  0  0  0  0  0
    5.9150   -0.4570   26.4560 C   0  0  1  0  0  0  0  0  0  0  0  0
    6.4260   -1.0580   25.5490 C   0  0  0  0  0  0  0  0  0  0  0  0
    5.4960   -4.8370   23.4750 C   0  0  0  0  0  0  0  0  0  0  0  0
    6.1840   -5.3330   22.3940 C   0  0  0  0  0  0  0  0  0  0  0  0
  1  2  1  0
  2  3  2  0
  2  4  1  0
  4  5  1  0
  5  6  1  0
  6  7  1  0
  7  8  1  0
  8  9  2  0
  8 10  1  0
 10 11  1  0
 12 10  1  6
 12 13  1  0
 13 14  1  0
 14 15  1  0
 15 16  1  0
 16 17  2  0
 16 18  1  0
 19 18  1  0
 19 20  1  0
 19 21  1  0
 19 22  1  0
 15 23  1  0
 12 24  1  0
 23 24  1  0
 24 25  1  1
  7 26  1  0
  4 27  1  0
 26 27  1  0
M  END
