piperidine-amides-13804-covalent
     RDKit          3D

 26 29  0  0  0  0  0  0  0  0999 V2000
    7.0630   -3.3170   19.3230 C   0  0  0  0  0  0  0  0  0  0  0  0
    6.3670   -4.1630   20.3270 C   0  0  0  0  0  0  0  0  0  0  0  0
    5.3740   -4.8210   19.9760 O   0  0  0  0  0  0  0  0  0  0  0  0
    6.8820   -4.2260   21.6380 N   0  0  0  0  0  0  0  0  0  0  0  0
    7.7140   -3.1610   22.1730 C   0  0  0  0  0  0  0  0  0  0  0  0
    7.6350   -3.1670   23.7050 C   0  0  0  0  0  0  0  0  0  0  0  0
    6.2690   -3.6290   24.0630 C   0  0  0  0  0  0  0  0  0  0  0  0
    5.8410   -3.3620   25.4570 C   0  0  0  0  0  0  0  0  0  0  0  0
    4.8120   -3.9420   25.8120 O   0  0  0  0  0  0  0  0  0  0  0  0
    6.5460   -2.4800   26.2960 N   0  0  0  0  0  0  0  0  0  0  0  0
    5.9560   -1.3330   26.9020 C   0  0  2  0  0  0  0  0  0  0  0  0
    5.5710   -0.2530   26.1200 C   0  0  0  0  0  0  0  0  0  0  0  0
    4.9300   -0.3640   24.8600 C   0  0  0  0  0  0  0  0  0  0  0  0
    4.5610    0.7370   24.1030 C   0  0  0  0  0  0  0  0  0  0  0  0
    4.8320    2.1000   24.6100 C   0  0  0  0  0  0  0  0  0  0  0  0
    5.5130    2.3010   25.9480 C   0  0  0  0  0  0  0  0  0  0  0  0
    5.8450    0.9820   26.6280 C   0  0  0  0  0  0  0  0  0  0  0  0
    6.4620    0.8950   27.8290 C   0  0  0  0  0  0  0  0  0  0  0  0
    6.6590   -0.5690   27.9580 C   0  0  0  0  0  0  0  0  0  0  0  0
    5.1370   -0.7000   28.0850 C   0  0  0  0  0  0  0  0  0  0  0  0
    4.5600   -0.3290   29.2960 C   0  0  0  0  0  0  0  0  0  0  0  0
    5.2930   -0.6640   30.3320 O   0  0  0  0  0  0  0  0  0  0  0  0
    6.6490   -0.4420   30.2630 C   0  0  0  0  0  0  0  0  0  0  0  0
    7.2060   -1.1150   29.0500 C   0  0  0  0  0  0  0  0  0  0  0  0
    6.1310   -5.1080   23.7860 C   0  0  0  0  0  0  0  0  0  0  0  0
    6.6330   -5.4310   22.4270 C   0  0  0  0  0  0  0  0  0  0  0  0
  1  2  1  0
  2  3  2  0
  2  4  1  0
  4  5  1  0
  5  6  1  0
  6  7  1  0
  7  8  1  0
  8  9  2  0
  8 10  1  0
 11 10  1  6
 11 12  1  0
 12 13  2  0
 13 14  1  0
 14 15  2  0
 15 16  1  0
 12 17  1  0
 16 17  2  0
 17 18  1  0
 11 19  1  0
 19 18  1  0
 19 20  1  0
 20 21  1  0
 21 22  1  0
 22 23  1  0
 19 24  1  0
 23 24  1  0
  7 25  1  0
  4 26  1  0
 25 26  1  0
M  END
