piperidine-amides-6726-covalent
     RDKit          3D

 23 25  0  0  0  0  0  0  0  0999 V2000
    7.1310   -3.2900   19.2640 C   0  0  0  0  0  0  0  0  0  0  0  0
    6.4140   -4.1220   20.2420 C   0  0  0  0  0  0  0  0  0  0  0  0
    5.3430   -4.6870   19.9330 O   0  0  0  0  0  0  0  0  0  0  0  0
    6.9530   -4.3360   21.5120 N   0  0  0  0  0  0  0  0  0  0  0  0
    7.6450   -3.2410   22.1430 C   0  0  0  0  0  0  0  0  0  0  0  0
    6.6280   -2.6560   23.1160 C   0  0  0  0  0  0  0  0  0  0  0  0
    6.2760   -3.7610   24.0930 C   0  0  0  0  0  0  0  0  0  0  0  0
    5.2710   -3.2470   25.0440 C   0  0  0  0  0  0  0  0  0  0  0  0
    4.5210   -4.0490   25.6310 O   0  0  0  0  0  0  0  0  0  0  0  0
    5.1660   -1.8540   25.2670 N   0  0  0  0  0  0  0  0  0  0  0  0
    6.1620   -1.1840   26.0160 C   0  0  0  0  0  0  0  0  0  0  0  0
    7.3350   -2.0720   25.9560 C   0  0  0  0  0  0  0  0  0  0  0  0
    8.5090   -2.0290   25.2220 C   0  0  0  0  0  0  0  0  0  0  0  0
    9.4680   -2.9960   25.3570 C   0  0  0  0  0  0  0  0  0  0  0  0
    9.2600   -4.0340   26.2440 C   0  0  0  0  0  0  0  0  0  0  0  0
    8.1280   -4.1300   26.9870 C   0  0  0  0  0  0  0  0  0  0  0  0
    7.2100   -3.2000   26.8520 N   0  0  0  0  0  0  0  0  0  0  0  0
    7.8260   -5.2480   27.9840 C   0  0  0  0  0  0  0  0  0  0  0  0
    9.2370   -5.2490   27.4840 C   0  0  0  0  0  0  0  0  0  0  0  0
    9.4620   -6.1720   26.3320 C   0  0  0  0  0  0  0  0  0  0  0  0
   10.2120   -4.9560   26.3420 C   0  0  0  0  0  0  0  0  0  0  0  0
    5.6530   -4.9260   23.3570 C   0  0  0  0  0  0  0  0  0  0  0  0
    6.3910   -5.3710   22.2990 C   0  0  0  0  0  0  0  0  0  0  0  0
  1  2  1  0
  2  3  2  0
  2  4  1  0
  4  5  1  0
  5  6  1  0
  6  7  1  0
  7  8  1  0
  8  9  2  0
  8 10  1  0
 10 11  1  0
 11 12  1  0
 12 13  2  0
 13 14  1  0
 14 15  2  0
 15 16  1  0
 12 17  1  0
 16 17  2  0
 16 18  1  0
 18 19  1  0
 19 20  1  0
 15 21  1  0
 20 21  1  0
  7 22  1  0
  4 23  1  0
 22 23  1  0
M  END
