piperidine-amides-25776-covalent
     RDKit          3D

 25 27  0  0  0  0  0  0  0  0999 V2000
    7.0880   -3.3370   19.2790 C   0  0  0  0  0  0  0  0  0  0  0  0
    6.3280   -4.1310   20.2710 C   0  0  0  0  0  0  0  0  0  0  0  0
    5.2710   -4.6260   19.9050 O   0  0  0  0  0  0  0  0  0  0  0  0
    6.8570   -4.3330   21.5470 N   0  0  0  0  0  0  0  0  0  0  0  0
    6.5560   -5.5230   22.2950 C   0  0  0  0  0  0  0  0  0  0  0  0
    5.8170   -5.1130   23.5330 C   0  0  0  0  0  0  0  0  0  0  0  0
    6.5930   -3.9860   24.2080 C   0  0  0  0  0  0  0  0  0  0  0  0
    5.8230   -3.5060   25.3790 C   0  0  0  0  0  0  0  0  0  0  0  0
    4.7890   -2.8510   25.1820 O   0  0  0  0  0  0  0  0  0  0  0  0
    6.2090   -3.7710   26.7100 N   0  0  0  0  0  0  0  0  0  0  0  0
    6.2390   -5.1560   27.1220 C   0  0  0  0  0  0  0  0  0  0  0  0
    5.0730   -5.4140   27.9320 C   0  0  0  0  0  0  0  0  0  0  0  0
    5.1200   -5.1230   29.2410 C   0  0  0  0  0  0  0  0  0  0  0  0
    4.0620   -5.5330   29.9830 C   0  0  0  0  0  0  0  0  0  0  0  0
    2.9680   -4.9250   30.5280 C   0  0  0  0  0  0  0  0  0  0  0  0
    1.8280   -5.5210   31.3600 C   0  0  0  0  0  0  0  0  0  0  0  0
    2.0750   -7.0060   31.5280 C   0  0  0  0  0  0  0  0  0  0  0  0
    1.0860   -7.8200   32.3160 C   0  0  0  0  0  0  0  0  0  0  0  0
    0.1020   -8.0420   31.3700 O   0  0  0  0  0  0  0  0  0  0  0  0
    3.2660   -7.7250   30.9470 C   0  0  0  0  0  0  0  0  0  0  0  0
    4.2980   -7.0290   30.1600 C   0  0  0  0  0  0  0  0  0  0  0  0
    5.0200   -3.6540   28.9190 C   0  0  0  0  0  0  0  0  0  0  0  0
    5.9700   -3.0840   27.9320 C   0  0  0  0  0  0  0  0  0  0  0  0
    6.8410   -2.8270   23.2660 C   0  0  0  0  0  0  0  0  0  0  0  0
    7.6050   -3.2880   22.2220 C   0  0  0  0  0  0  0  0  0  0  0  0
  1  2  1  0
  2  3  2  0
  2  4  1  0
  4  5  1  0
  5  6  1  0
  6  7  1  0
  7  8  1  0
  8  9  2  0
  8 10  1  0
 10 11  1  0
 11 12  1  0
 12 13  1  0
 13 14  1  0
 14 15  2  0
 15 16  1  0
 16 17  2  0
 17 18  1  0
 18 19  1  0
 17 20  1  0
 14 21  1  0
 20 21  2  0
 13 22  1  0
 10 23  1  0
 22 23  1  0
  7 24  1  0
  4 25  1  0
 24 25  1  0
M  END
