piperidine-amides-10253-covalent
     RDKit          3D

 25 26  0  0  0  0  0  0  0  0999 V2000
    7.1310   -3.2810   19.2100 C   0  0  0  0  0  0  0  0  0  0  0  0
    6.3580   -3.9940   20.2270 C   0  0  0  0  0  0  0  0  0  0  0  0
    5.2630   -4.4880   19.8620 O   0  0  0  0  0  0  0  0  0  0  0  0
    6.8690   -4.1480   21.5120 N   0  0  0  0  0  0  0  0  0  0  0  0
    7.6930   -3.1380   22.1290 C   0  0  0  0  0  0  0  0  0  0  0  0
    7.3300   -3.0340   23.5830 C   0  0  0  0  0  0  0  0  0  0  0  0
    5.9450   -3.5570   23.8780 C   0  0  0  0  0  0  0  0  0  0  0  0
    5.7200   -3.4710   25.3250 C   0  0  0  0  0  0  0  0  0  0  0  0
    4.8260   -2.7030   25.7470 O   0  0  0  0  0  0  0  0  0  0  0  0
    6.5000   -4.2230   26.2150 N   0  0  0  0  0  0  0  0  0  0  0  0
    6.0130   -4.7740   27.4620 C   0  0  1  0  0  0  0  0  0  0  0  0
    4.6010   -4.2680   27.7370 C   0  0  0  0  0  0  0  0  0  0  0  0
    4.3680   -3.3490   28.7310 C   0  0  0  0  0  0  0  0  0  0  0  0
    3.1030   -2.9020   28.9790 C   0  0  0  0  0  0  0  0  0  0  0  0
    1.9980   -3.3170   28.2810 C   0  0  0  0  0  0  0  0  0  0  0  0
    0.7670   -2.8360   28.5740 F   0  0  0  0  0  0  0  0  0  0  0  0
    2.2170   -4.2410   27.2790 C   0  0  0  0  0  0  0  0  0  0  0  0
    3.4980   -4.7090   27.0110 C   0  0  0  0  0  0  0  0  0  0  0  0
    3.6820   -5.6130   26.0260 F   0  0  0  0  0  0  0  0  0  0  0  0
    6.3010   -6.1250   27.7070 C   0  0  0  0  0  0  0  0  0  0  0  0
    6.9190   -5.5590   26.4380 C   0  0  0  0  0  0  0  0  0  0  0  0
    6.9680   -6.1640   28.8960 C   0  0  0  0  0  0  0  0  0  0  0  0
    5.1300   -6.8620   27.7770 C   0  0  0  0  0  0  0  0  0  0  0  0
    5.7260   -4.9620   23.4400 C   0  0  0  0  0  0  0  0  0  0  0  0
    6.5610   -5.3370   22.2400 C   0  0  0  0  0  0  0  0  0  0  0  0
  1  2  1  0
  2  3  2  0
  2  4  1  0
  4  5  1  0
  5  6  1  0
  6  7  1  0
  7  8  1  0
  8  9  2  0
  8 10  1  0
 11 10  1  6
 11 12  1  0
 12 13  2  0
 13 14  1  0
 14 15  2  0
 15 16  1  0
 15 17  1  0
 12 18  1  0
 17 18  2  0
 18 19  1  0
 11 20  1  0
 20 21  1  0
 20 22  1  0
 20 23  1  0
  7 24  1  0
  4 25  1  0
 24 25  1  0
M  END
