piperidine-amides-33008-covalent
     RDKit          3D

 28 31  0  0  0  0  0  0  0  0999 V2000
    7.1550   -3.3250   19.2790 C   0  0  0  0  0  0  0  0  0  0  0  0
    6.4400   -4.1820   20.2570 C   0  0  0  0  0  0  0  0  0  0  0  0
    5.3530   -4.6940   19.9410 O   0  0  0  0  0  0  0  0  0  0  0  0
    7.0550   -4.4490   21.4910 N   0  0  0  0  0  0  0  0  0  0  0  0
    6.6690   -5.5910   22.2660 C   0  0  0  0  0  0  0  0  0  0  0  0
    5.7650   -5.0350   23.3590 C   0  0  0  0  0  0  0  0  0  0  0  0
    6.5360   -3.9830   24.0930 C   0  0  0  0  0  0  0  0  0  0  0  0
    5.7560   -3.4270   25.1930 C   0  0  0  0  0  0  0  0  0  0  0  0
    4.8480   -2.6470   24.8970 O   0  0  0  0  0  0  0  0  0  0  0  0
    6.0450   -3.8000   26.4800 N   0  0  0  0  0  0  0  0  0  0  0  0
    5.4850   -4.9240   27.1180 C   0  0  0  0  0  0  0  0  0  0  0  0
    5.1470   -4.9940   28.4330 C   0  0  0  0  0  0  0  0  0  0  0  0
    5.5950   -4.0240   29.3020 C   0  0  0  0  0  0  0  0  0  0  0  0
    4.6200   -3.1760   29.8400 C   0  0  1  0  0  0  0  0  0  0  0  0
    4.2330   -1.8920   29.1230 C   0  0  0  0  0  0  0  0  0  0  0  0
    5.1760   -0.9820   28.8860 O   0  0  0  0  0  0  0  0  0  0  0  0
    2.8280   -1.9060   28.8560 N   0  0  0  0  0  0  0  0  0  0  0  0
    2.2900   -3.0560   29.4880 C   0  0  0  0  0  0  0  0  0  0  0  0
    0.8640   -3.5110   29.5960 C   0  0  0  0  0  0  0  0  0  0  0  0
    0.5560   -4.6800   30.2700 C   0  0  0  0  0  0  0  0  0  0  0  0
   -1.1330   -5.1350   30.3470 Cl  0  0  0  0  0  0  0  0  0  0  0  0
    1.5880   -5.5740   30.9350 C   0  0  0  0  0  0  0  0  0  0  0  0
    3.0100   -4.9880   30.7480 C   0  0  0  0  0  0  0  0  0  0  0  0
    3.3020   -3.8350   30.0820 C   0  0  0  0  0  0  0  0  0  0  0  0
    6.6720   -3.3250   28.7370 C   0  0  0  0  0  0  0  0  0  0  0  0
    6.4310   -2.7280   27.3850 C   0  0  0  0  0  0  0  0  0  0  0  0
    6.9390   -2.8040   23.2430 C   0  0  0  0  0  0  0  0  0  0  0  0
    7.7690   -3.3640   22.1680 C   0  0  0  0  0  0  0  0  0  0  0  0
  1  2  1  0
  2  3  2  0
  2  4  1  0
  4  5  1  0
  5  6  1  0
  6  7  1  0
  7  8  1  0
  8  9  2  0
  8 10  1  0
 10 11  1  0
 11 12  1  0
 12 13  1  0
 14 13  1  6
 14 15  1  0
 15 16  2  0
 15 17  1  0
 17 18  1  0
 18 19  1  0
 19 20  2  0
 20 21  1  0
 20 22  1  0
 22 23  2  0
 14 24  1  0
 18 24  2  0
 23 24  1  0
 13 25  1  0
 10 26  1  0
 25 26  1  0
  7 27  1  0
  4 28  1  0
 27 28  1  0
M  END
