piperidine-amides-5187-covalent
     RDKit          3D

 22 22  0  0  0  0  0  0  0  0999 V2000
    7.0890   -3.2700   19.2580 C   0  0  0  0  0  0  0  0  0  0  0  0
    6.3570   -4.0590   20.2810 C   0  0  0  0  0  0  0  0  0  0  0  0
    5.3040   -4.6070   19.9050 O   0  0  0  0  0  0  0  0  0  0  0  0
    6.8540   -4.2140   21.5880 N   0  0  0  0  0  0  0  0  0  0  0  0
    7.6420   -3.1860   22.1800 C   0  0  0  0  0  0  0  0  0  0  0  0
    7.2830   -2.9240   23.5700 C   0  0  0  0  0  0  0  0  0  0  0  0
    6.0100   -3.5660   23.9570 C   0  0  0  0  0  0  0  0  0  0  0  0
    5.6070   -3.2320   25.3530 C   0  0  0  0  0  0  0  0  0  0  0  0
    4.3980   -3.0410   25.5680 O   0  0  0  0  0  0  0  0  0  0  0  0
    6.5390   -3.1170   26.3990 N   0  0  0  0  0  0  0  0  0  0  0  0
    6.2590   -3.5230   27.8060 C   0  0  0  0  0  0  0  0  0  0  0  0
    6.1090   -4.9980   28.0260 C   0  0  0  0  0  0  0  0  0  0  0  0
    5.2240   -5.4190   28.8290 O   0  0  0  0  0  0  0  0  0  0  0  0
    4.7730   -6.6290   28.6440 C   0  0  0  0  0  0  0  0  0  0  0  0
    3.8220   -6.9710   27.7080 C   0  0  0  0  0  0  0  0  0  0  0  0
    2.5240   -6.6630   27.9680 O   0  0  0  0  0  0  0  0  0  0  0  0
    1.4730   -7.6100   27.8010 C   0  0  0  0  0  0  0  0  0  0  0  0
    1.1170   -7.7270   26.4900 C   0  0  0  0  0  0  0  0  0  0  0  0
    1.8580   -8.5560   25.6960 C   0  0  0  0  0  0  0  0  0  0  0  0
    1.5880   -9.8950   25.6890 C   0  0  0  0  0  0  0  0  0  0  0  0
    6.0430   -5.0530   23.7010 C   0  0  0  0  0  0  0  0  0  0  0  0
    6.6190   -5.4130   22.3720 C   0  0  0  0  0  0  0  0  0  0  0  0
  1  2  1  0
  2  3  2  0
  2  4  1  0
  4  5  1  0
  5  6  1  0
  6  7  1  0
  7  8  1  0
  8  9  2  0
  8 10  1  0
 10 11  1  0
 11 12  1  0
 12 13  1  0
 13 14  1  0
 14 15  1  0
 15 16  1  0
 16 17  1  0
 17 18  1  0
 18 19  1  0
 19 20  1  0
  7 21  1  0
  4 22  1  0
 21 22  1  0
M  END
