piperidine-amides-12133-covalent
     RDKit          3D

 25 27  0  0  0  0  0  0  0  0999 V2000
    7.0190   -3.3480   19.3120 C   0  0  0  0  0  0  0  0  0  0  0  0
    6.3450   -4.1730   20.3130 C   0  0  0  0  0  0  0  0  0  0  0  0
    5.3700   -4.8460   19.9820 O   0  0  0  0  0  0  0  0  0  0  0  0
    6.8380   -4.2390   21.6660 N   0  0  0  0  0  0  0  0  0  0  0  0
    6.6200   -5.4430   22.4410 C   0  0  0  0  0  0  0  0  0  0  0  0
    5.9580   -5.0920   23.7450 C   0  0  0  0  0  0  0  0  0  0  0  0
    6.1020   -3.5960   23.9200 C   0  0  0  0  0  0  0  0  0  0  0  0
    5.7050   -3.1550   25.2830 C   0  0  0  0  0  0  0  0  0  0  0  0
    4.5240   -3.1620   25.6750 O   0  0  0  0  0  0  0  0  0  0  0  0
    6.7270   -2.7120   26.1480 N   0  0  0  0  0  0  0  0  0  0  0  0
    6.5220   -1.5160   26.9310 C   0  0  0  0  0  0  0  0  0  0  0  0
    6.0730   -0.2010   26.3620 C   0  0  0  0  0  0  0  0  0  0  0  0
    5.8990    0.8940   27.1770 C   0  0  0  0  0  0  0  0  0  0  0  0
    6.1420    0.7740   28.5520 C   0  0  0  0  0  0  0  0  0  0  0  0
    6.5540   -0.3600   29.2130 C   0  0  0  0  0  0  0  0  0  0  0  0
    6.7700   -1.5680   28.4230 C   0  0  0  0  0  0  0  0  0  0  0  0
    6.7120   -0.2090   30.6100 N   0  0  0  0  0  0  0  0  0  0  0  0
    5.5360   -0.5660   31.3710 C   0  0  0  0  0  0  0  0  0  0  0  0
    5.4810    0.0970   32.5790 C   0  0  0  0  0  0  0  0  0  0  0  0
    4.6900   -1.4310   30.8740 O   0  0  0  0  0  0  0  0  0  0  0  0
    7.6350    0.6750   31.0300 C   0  0  0  0  0  0  0  0  0  0  0  0
    7.4590    2.0720   30.6020 C   0  0  0  0  0  0  0  0  0  0  0  0
    5.9550    2.0770   29.7710 S   0  0  0  0  0  0  0  0  0  0  0  0
    7.4970   -3.1280   23.5760 C   0  0  0  0  0  0  0  0  0  0  0  0
    7.6530   -3.1700   22.1960 C   0  0  0  0  0  0  0  0  0  0  0  0
  1  2  1  0
  2  3  2  0
  2  4  1  0
  4  5  1  0
  5  6  1  0
  6  7  1  0
  7  8  1  0
  8  9  2  0
  8 10  1  0
 10 11  1  0
 11 12  2  0
 12 13  1  0
 13 14  2  0
 14 15  1  0
 11 16  1  0
 15 16  2  0
 15 17  1  0
 17 18  1  0
 18 19  1  0
 18 20  2  0
 17 21  1  0
 21 22  1  0
 14 23  1  0
 22 23  1  0
  7 24  1  0
  4 25  1  0
 24 25  1  0
M  END
