piperidine-amides-24058-covalent
     RDKit          3D

 24 26  0  0  0  0  0  0  0  0999 V2000
    7.0710   -3.3940   19.4070 C   0  0  0  0  0  0  0  0  0  0  0  0
    6.4030   -4.2250   20.4170 C   0  0  0  0  0  0  0  0  0  0  0  0
    5.4120   -4.8840   20.0060 O   0  0  0  0  0  0  0  0  0  0  0  0
    6.8880   -4.3240   21.7610 N   0  0  0  0  0  0  0  0  0  0  0  0
    6.5720   -5.4950   22.5030 C   0  0  0  0  0  0  0  0  0  0  0  0
    6.1250   -5.1900   23.8580 C   0  0  0  0  0  0  0  0  0  0  0  0
    5.9540   -3.7410   24.1010 C   0  0  0  0  0  0  0  0  0  0  0  0
    5.0680   -3.4190   25.3060 C   0  0  0  0  0  0  0  0  0  0  0  0
    3.8610   -3.6420   25.1450 O   0  0  0  0  0  0  0  0  0  0  0  0
    5.4090   -2.8950   26.5870 N   0  0  0  0  0  0  0  0  0  0  0  0
    4.7420   -3.0940   27.7630 C   0  0  0  0  0  0  0  0  0  0  0  0
    5.1040   -4.3330   28.4010 C   0  0  0  0  0  0  0  0  0  0  0  0
    6.4800   -4.2520   27.9640 C   0  0  0  0  0  0  0  0  0  0  0  0
    5.2090   -4.6660   28.5690 C   0  0  0  0  0  0  0  0  0  0  0  0
    5.0060   -5.7360   29.2550 N   0  0  0  0  0  0  0  0  0  0  0  0
    6.0770   -5.4910   28.7980 N   0  0  0  0  0  0  0  0  0  0  0  0
    6.5460   -6.7160   29.3730 C   0  0  0  0  0  0  0  0  0  0  0  0
    6.6270   -2.9580   27.1630 C   0  0  2  0  0  0  0  0  0  0  0  0
    6.7450   -1.6910   28.0310 C   0  0  0  0  0  0  0  0  0  0  0  0
    7.6660   -1.5030   29.0640 O   0  0  0  0  0  0  0  0  0  0  0  0
    5.9760   -0.7250   27.8620 O   0  0  0  0  0  0  0  0  0  0  0  0
    6.2580    0.5780   28.3930 C   0  0  0  0  0  0  0  0  0  0  0  0
    7.2700   -3.0300   23.8650 C   0  0  0  0  0  0  0  0  0  0  0  0
    7.6010   -3.2020   22.3540 C   0  0  0  0  0  0  0  0  0  0  0  0
  1  2  1  0
  2  3  2  0
  2  4  1  0
  4  5  1  0
  5  6  1  0
  6  7  1  0
  7  8  1  0
  8  9  2  0
  8 10  1  0
 10 11  1  0
 11 12  1  0
 12 13  2  0
 13 14  1  0
 14 15  2  0
 12 16  1  0
 15 16  1  0
 16 17  1  0
 10 18  1  0
 13 18  1  0
 18 19  1  1
 19 20  2  0
 19 21  1  0
 21 22  1  0
  7 23  1  0
  4 24  1  0
 23 24  1  0
M  END
