piperidine-amides-13933-covalent
     RDKit          3D

 26 29  0  0  0  0  0  0  0  0999 V2000
    7.0440   -3.3300   19.3430 C   0  0  0  0  0  0  0  0  0  0  0  0
    6.3600   -4.1790   20.3580 C   0  0  0  0  0  0  0  0  0  0  0  0
    5.3980   -4.8780   19.9920 O   0  0  0  0  0  0  0  0  0  0  0  0
    6.8440   -4.1960   21.6900 N   0  0  0  0  0  0  0  0  0  0  0  0
    7.7080   -3.1480   22.2230 C   0  0  0  0  0  0  0  0  0  0  0  0
    7.5540   -3.0550   23.7500 C   0  0  0  0  0  0  0  0  0  0  0  0
    6.2110   -3.5880   24.0930 C   0  0  0  0  0  0  0  0  0  0  0  0
    5.7340   -3.3070   25.4740 C   0  0  0  0  0  0  0  0  0  0  0  0
    4.5320   -3.5190   25.6690 O   0  0  0  0  0  0  0  0  0  0  0  0
    6.5890   -2.8120   26.4820 N   0  0  0  0  0  0  0  0  0  0  0  0
    6.4850   -1.5290   27.0950 C   0  0  0  0  0  0  0  0  0  0  0  0
    6.0910   -0.4130   26.3940 C   0  0  0  0  0  0  0  0  0  0  0  0
    5.9760    0.8440   26.9830 C   0  0  0  0  0  0  0  0  0  0  0  0
    6.2550    0.9970   28.3050 C   0  0  0  0  0  0  0  0  0  0  0  0
    6.6790   -0.1760   29.0910 C   0  0  0  0  0  0  0  0  0  0  0  0
    6.9540    0.0890   30.5890 C   0  0  0  0  0  0  0  0  0  0  0  0
    6.0410    1.0020   31.2230 N   0  0  0  0  0  0  0  0  0  0  0  0
    6.4830    1.0500   32.4400 N   0  0  0  0  0  0  0  0  0  0  0  0
    7.5450    0.3180   32.7270 C   0  0  0  0  0  0  0  0  0  0  0  0
    8.1500    0.2430   33.9660 C   0  0  0  0  0  0  0  0  0  0  0  0
    7.4390    0.1500   35.1130 C   0  0  0  0  0  0  0  0  0  0  0  0
    8.3300    1.4380   34.6760 C   0  0  0  0  0  0  0  0  0  0  0  0
    7.8630   -0.3040   31.5630 N   0  0  0  0  0  0  0  0  0  0  0  0
    6.7930   -1.4210   28.4780 C   0  0  0  0  0  0  0  0  0  0  0  0
    6.0780   -5.0510   23.8270 C   0  0  0  0  0  0  0  0  0  0  0  0
    6.6860   -5.4060   22.4900 C   0  0  0  0  0  0  0  0  0  0  0  0
  1  2  1  0
  2  3  2  0
  2  4  1  0
  4  5  1  0
  5  6  1  0
  6  7  1  0
  7  8  1  0
  8  9  2  0
  8 10  1  0
 10 11  1  0
 11 12  2  0
 12 13  1  0
 13 14  2  0
 14 15  1  0
 15 16  1  0
 16 17  2  0
 17 18  1  0
 18 19  2  0
 19 20  1  0
 20 21  1  0
 20 22  1  0
 21 22  1  0
 16 23  1  0
 19 23  1  0
 11 24  1  0
 15 24  2  0
  7 25  1  0
  4 26  1  0
 25 26  1  0
M  END
