piperidine-amides-15169-covalent
     RDKit          3D

 19 19  0  0  0  0  0  0  0  0999 V2000
    7.0700   -3.2920   19.2500 C   0  0  0  0  0  0  0  0  0  0  0  0
    6.3350   -4.0770   20.2430 C   0  0  0  0  0  0  0  0  0  0  0  0
    5.2760   -4.6230   19.8990 O   0  0  0  0  0  0  0  0  0  0  0  0
    6.8640   -4.2320   21.5360 N   0  0  0  0  0  0  0  0  0  0  0  0
    7.5450   -3.1100   22.1120 C   0  0  0  0  0  0  0  0  0  0  0  0
    7.2600   -3.0290   23.5720 C   0  0  0  0  0  0  0  0  0  0  0  0
    5.8590   -3.5030   23.8160 C   0  0  0  0  0  0  0  0  0  0  0  0
    5.5220   -3.3370   25.2710 C   0  0  0  0  0  0  0  0  0  0  0  0
    4.3390   -3.1370   25.5290 O   0  0  0  0  0  0  0  0  0  0  0  0
    6.5530   -3.4060   26.2070 N   0  0  0  0  0  0  0  0  0  0  0  0
    6.3580   -3.8720   27.5480 C   0  0  0  0  0  0  0  0  0  0  0  0
    7.0060   -5.0760   27.8730 C   0  0  2  0  0  0  0  0  0  0  0  0
    7.4150   -5.9390   26.8880 C   0  0  0  0  0  0  0  0  0  0  0  0
    7.9080   -5.5130   25.6580 C   0  0  0  0  0  0  0  0  0  0  0  0
    6.0630   -5.8450   28.8080 C   0  0  0  0  0  0  0  0  0  0  0  0
    4.8710   -6.5710   28.1330 C   0  0  0  0  0  0  0  0  0  0  0  0
    3.8810   -6.3430   28.8790 O   0  0  0  0  0  0  0  0  0  0  0  0
    5.6200   -4.9300   23.4640 C   0  0  0  0  0  0  0  0  0  0  0  0
    6.4180   -5.3630   22.2710 C   0  0  0  0  0  0  0  0  0  0  0  0
  1  2  1  0
  2  3  2  0
  2  4  1  0
  4  5  1  0
  5  6  1  0
  6  7  1  0
  7  8  1  0
  8  9  2  0
  8 10  1  0
 10 11  1  0
 12 11  1  6
 12 13  1  0
 13 14  1  0
 12 15  1  0
 15 16  1  0
 16 17  1  0
  7 18  1  0
  4 19  1  0
 18 19  1  0
M  END
