piperidine-amides-941-covalent
     RDKit          3D

 24 25  0  0  0  0  0  0  0  0999 V2000
    7.1290   -3.2480   19.2130 C   0  0  0  0  0  0  0  0  0  0  0  0
    6.3360   -4.0090   20.2200 C   0  0  0  0  0  0  0  0  0  0  0  0
    5.2700   -4.5450   19.8770 O   0  0  0  0  0  0  0  0  0  0  0  0
    6.8420   -4.1360   21.5250 N   0  0  0  0  0  0  0  0  0  0  0  0
    7.6920   -3.1110   22.0880 C   0  0  0  0  0  0  0  0  0  0  0  0
    7.5480   -3.1920   23.6020 C   0  0  0  0  0  0  0  0  0  0  0  0
    6.1580   -3.6540   23.8590 C   0  0  0  0  0  0  0  0  0  0  0  0
    5.6500   -3.1480   25.1400 C   0  0  0  0  0  0  0  0  0  0  0  0
    4.6990   -2.3630   25.1020 O   0  0  0  0  0  0  0  0  0  0  0  0
    6.2450   -3.5780   26.3110 N   0  0  0  0  0  0  0  0  0  0  0  0
    5.8860   -4.7320   27.0400 C   0  0  0  0  0  0  0  0  0  0  0  0
    6.0130   -4.8010   28.3820 C   0  0  0  0  0  0  0  0  0  0  0  0
    6.8540   -5.7640   28.9310 C   0  0  0  0  0  0  0  0  0  0  0  0
    6.3500   -3.4370   28.9160 C   0  0  0  0  0  0  0  0  0  0  0  0
    4.3660   -5.1930   29.0460 S   0  0  0  0  0  0  0  0  0  0  0  0
    3.9010   -3.9650   30.2740 C   0  0  0  0  0  0  0  0  0  0  0  0
    3.3180   -4.3900   31.6080 C   0  0  0  0  0  0  0  0  0  0  0  0
    2.9690   -3.2760   32.5650 C   0  0  0  0  0  0  0  0  0  0  0  0
    3.1540   -1.9430   32.2800 C   0  0  0  0  0  0  0  0  0  0  0  0
    2.6370   -0.7160   33.6510 Br  0  0  0  0  0  0  0  0  0  0  0  0
    3.7110   -1.3500   31.0240 C   0  0  0  0  0  0  0  0  0  0  0  0
    4.0600   -2.4950   30.0620 C   0  0  0  0  0  0  0  0  0  0  0  0
    6.1570   -5.1100   23.6900 C   0  0  0  0  0  0  0  0  0  0  0  0
    6.6310   -5.3690   22.2450 C   0  0  0  0  0  0  0  0  0  0  0  0
  1  2  1  0
  2  3  2  0
  2  4  1  0
  4  5  1  0
  5  6  1  0
  6  7  1  0
  7  8  1  0
  8  9  2  0
  8 10  1  0
 10 11  1  0
 11 12  1  0
 12 13  1  0
 12 14  1  0
 12 15  1  0
 15 16  1  0
 16 17  2  0
 17 18  1  0
 18 19  2  0
 19 20  1  0
 19 21  1  0
 16 22  1  0
 21 22  2  0
  7 23  1  0
  4 24  1  0
 23 24  1  0
M  END
