piperidine-amides-34923-covalent
     RDKit          3D

 32 35  0  0  0  0  0  0  0  0999 V2000
    7.0480   -3.3590   19.3400 C   0  0  0  0  0  0  0  0  0  0  0  0
    6.4100   -4.2470   20.3420 C   0  0  0  0  0  0  0  0  0  0  0  0
    5.3910   -4.8380   19.9830 O   0  0  0  0  0  0  0  0  0  0  0  0
    6.9860   -4.4310   21.6080 N   0  0  0  0  0  0  0  0  0  0  0  0
    6.5910   -5.5240   22.4350 C   0  0  0  0  0  0  0  0  0  0  0  0
    5.7030   -4.9800   23.5190 C   0  0  0  0  0  0  0  0  0  0  0  0
    6.2900   -3.7270   24.2070 C   0  0  0  0  0  0  0  0  0  0  0  0
    5.1980   -3.1520   25.0470 C   0  0  0  0  0  0  0  0  0  0  0  0
    4.0890   -2.9930   24.5400 O   0  0  0  0  0  0  0  0  0  0  0  0
    5.3700   -2.7830   26.4010 N   0  0  0  0  0  0  0  0  0  0  0  0
    6.6240   -2.9780   26.8630 C   0  0  0  0  0  0  0  0  0  0  0  0
    6.2620   -4.1720   27.7510 C   0  0  0  0  0  0  0  0  0  0  0  0
    5.1570   -4.9290   27.0440 N   0  0  0  0  0  0  0  0  0  0  0  0
    5.4970   -6.2800   26.7180 C   0  0  0  0  0  0  0  0  0  0  0  0
    4.4800   -6.7350   26.1280 C   0  0  0  0  0  0  0  0  0  0  0  0
    3.5930   -5.7670   26.0950 C   0  0  0  0  0  0  0  0  0  0  0  0
    3.7300   -4.3350   26.6660 C   0  0  0  0  0  0  0  0  0  0  0  0
    4.6160   -3.4290   27.3800 C   0  0  1  0  0  0  0  0  0  0  0  0
    5.2220   -4.4890   28.2820 C   0  0  0  0  0  0  0  0  0  0  0  0
    6.1140   -3.6620   29.1680 C   0  0  0  0  0  0  0  0  0  0  0  0
    5.4020   -2.4630   29.7280 C   0  0  0  0  0  0  0  0  0  0  0  0
    4.0040   -2.8010   29.5010 N   0  0  0  0  0  0  0  0  0  0  0  0
    3.4660   -3.9390   30.1850 C   0  0  0  0  0  0  0  0  0  0  0  0
    2.0880   -4.1360   30.2660 O   0  0  0  0  0  0  0  0  0  0  0  0
    4.2990   -4.8200   30.7660 O   0  0  0  0  0  0  0  0  0  0  0  0
    4.5220   -6.2040   30.4190 C   0  0  0  0  0  0  0  0  0  0  0  0
    5.7970   -6.5470   29.6670 C   0  0  0  0  0  0  0  0  0  0  0  0
    3.3330   -6.7760   29.7310 C   0  0  0  0  0  0  0  0  0  0  0  0
    4.6110   -7.0040   31.6990 C   0  0  0  0  0  0  0  0  0  0  0  0
    3.7780   -2.5610   28.0860 C   0  0  0  0  0  0  0  0  0  0  0  0
    6.8010   -2.7420   23.1540 C   0  0  0  0  0  0  0  0  0  0  0  0
    7.6690   -3.3850   22.3270 C   0  0  0  0  0  0  0  0  0  0  0  0
  1  2  1  0
  2  3  2  0
  2  4  1  0
  4  5  1  0
  5  6  1  0
  6  7  1  0
  7  8  1  0
  8  9  2  0
  8 10  1  0
 10 11  1  0
 11 12  1  0
 12 13  1  0
 13 14  1  0
 14 15  2  0
 15 16  1  0
 13 17  1  0
 16 17  2  0
 18 10  1  0
 17 18  1  0
 18 19  1  1
 19 20  1  0
 20 21  1  0
 21 22  1  0
 22 23  1  0
 23 24  2  0
 23 25  1  0
 26 25  1  0
 26 27  1  0
 26 28  1  0
 26 29  1  0
 18 30  1  0
 22 30  1  0
  7 31  1  0
  4 32  1  0
 31 32  1  0
M  END
