piperidine-amides-2048-covalent
     RDKit          3D

 21 22  0  0  0  0  0  0  0  0999 V2000
    7.0870   -3.2750   19.1800 C   0  0  0  0  0  0  0  0  0  0  0  0
    6.3440   -4.0390   20.2160 C   0  0  0  0  0  0  0  0  0  0  0  0
    5.2790   -4.5480   19.8790 O   0  0  0  0  0  0  0  0  0  0  0  0
    6.8980   -4.1900   21.4870 N   0  0  0  0  0  0  0  0  0  0  0  0
    7.6080   -3.1240   22.1380 C   0  0  0  0  0  0  0  0  0  0  0  0
    6.7740   -2.6220   23.2740 C   0  0  0  0  0  0  0  0  0  0  0  0
    6.5150   -3.7750   24.2360 C   0  0  0  0  0  0  0  0  0  0  0  0
    5.6860   -3.2630   25.3480 C   0  0  0  0  0  0  0  0  0  0  0  0
    4.4560   -3.2470   25.2070 O   0  0  0  0  0  0  0  0  0  0  0  0
    6.2510   -2.8180   26.5660 N   0  0  0  0  0  0  0  0  0  0  0  0
    6.7790   -1.4740   26.6540 C   0  0  0  0  0  0  0  0  0  0  0  0
    5.6400   -0.4600   26.6260 C   0  0  2  0  0  0  0  0  0  0  0  0
    5.7020    0.7270   27.3190 C   0  0  0  0  0  0  0  0  0  0  0  0
    4.7870    1.6690   26.9870 C   0  0  0  0  0  0  0  0  0  0  0  0
    3.5650    1.1410   26.7190 C   0  0  0  0  0  0  0  0  0  0  0  0
    2.7750    1.5560   27.7850 F   0  0  0  0  0  0  0  0  0  0  0  0
    3.0750    1.7800   25.5890 F   0  0  0  0  0  0  0  0  0  0  0  0
    3.3750   -0.3530   26.6520 C   0  0  0  0  0  0  0  0  0  0  0  0
    4.4750   -1.0760   27.0690 O   0  0  0  0  0  0  0  0  0  0  0  0
    5.9000   -4.9710   23.5720 C   0  0  0  0  0  0  0  0  0  0  0  0
    6.5500   -5.3500   22.2770 C   0  0  0  0  0  0  0  0  0  0  0  0
  1  2  1  0
  2  3  2  0
  2  4  1  0
  4  5  1  0
  5  6  1  0
  6  7  1  0
  7  8  1  0
  8  9  2  0
  8 10  1  0
 10 11  1  0
 12 11  1  1
 12 13  1  0
 13 14  1  0
 14 15  1  0
 15 16  1  0
 15 17  1  0
 15 18  1  0
 12 19  1  0
 18 19  1  0
  7 20  1  0
  4 21  1  0
 20 21  1  0
M  END
