piperidine-amides-14450-covalent
     RDKit          3D

 23 24  0  0  0  0  0  0  0  0999 V2000
    7.1030   -3.3270   19.3010 C   0  0  0  0  0  0  0  0  0  0  0  0
    6.3840   -4.1100   20.3020 C   0  0  0  0  0  0  0  0  0  0  0  0
    5.3400   -4.6870   19.9420 O   0  0  0  0  0  0  0  0  0  0  0  0
    6.9080   -4.2330   21.6150 N   0  0  0  0  0  0  0  0  0  0  0  0
    7.6570   -3.1330   22.1730 C   0  0  0  0  0  0  0  0  0  0  0  0
    7.4710   -3.0710   23.6630 C   0  0  0  0  0  0  0  0  0  0  0  0
    6.0540   -3.5250   23.9310 C   0  0  0  0  0  0  0  0  0  0  0  0
    5.5810   -3.1260   25.2970 C   0  0  0  0  0  0  0  0  0  0  0  0
    4.6580   -2.3180   25.3240 O   0  0  0  0  0  0  0  0  0  0  0  0
    6.1720   -3.6770   26.4280 N   0  0  0  0  0  0  0  0  0  0  0  0
    5.7370   -4.9340   26.9370 C   0  0  0  0  0  0  0  0  0  0  0  0
    5.7630   -5.0880   28.3270 C   0  0  1  0  0  0  0  0  0  0  0  0
    6.6980   -5.9340   28.8580 C   0  0  0  0  0  0  0  0  0  0  0  0
    5.8280   -4.0570   29.0320 O   0  0  0  0  0  0  0  0  0  0  0  0
    4.5280   -5.7260   28.8220 C   0  0  0  0  0  0  0  0  0  0  0  0
    4.2840   -6.0060   30.2700 C   0  0  0  0  0  0  0  0  0  0  0  0
    4.1880   -7.5180   30.5880 C   0  0  0  0  0  0  0  0  0  0  0  0
    3.5300   -7.8130   31.8860 C   0  0  0  0  0  0  0  0  0  0  0  0
    4.0110   -6.6850   32.7540 C   0  0  0  0  0  0  0  0  0  0  0  0
    3.2770   -5.4180   32.2590 C   0  0  0  0  0  0  0  0  0  0  0  0
    3.1330   -5.2440   30.9020 C   0  0  0  0  0  0  0  0  0  0  0  0
    6.0610   -5.0100   23.7560 C   0  0  0  0  0  0  0  0  0  0  0  0
    6.5140   -5.3990   22.3780 C   0  0  0  0  0  0  0  0  0  0  0  0
  1  2  1  0
  2  3  2  0
  2  4  1  0
  4  5  1  0
  5  6  1  0
  6  7  1  0
  7  8  1  0
  8  9  2  0
  8 10  1  0
 10 11  1  0
 11 12  1  0
 12 13  1  6
 12 14  1  0
 12 15  1  0
 15 16  1  0
 16 17  1  0
 17 18  1  0
 18 19  1  0
 19 20  1  0
 16 21  1  0
 20 21  1  0
  7 22  1  0
  4 23  1  0
 22 23  1  0
M  END
