piperidine-amides-14830-covalent
     RDKit          3D

 22 23  0  0  0  0  0  0  0  0999 V2000
    7.1040   -3.2720   19.2460 C   0  0  0  0  0  0  0  0  0  0  0  0
    6.3700   -4.0530   20.2370 C   0  0  0  0  0  0  0  0  0  0  0  0
    5.3010   -4.5820   19.8950 O   0  0  0  0  0  0  0  0  0  0  0  0
    6.9080   -4.2370   21.5300 N   0  0  0  0  0  0  0  0  0  0  0  0
    6.5190   -5.3840   22.2870 C   0  0  0  0  0  0  0  0  0  0  0  0
    5.7510   -4.9120   23.4810 C   0  0  0  0  0  0  0  0  0  0  0  0
    6.5840   -3.8240   24.1290 C   0  0  0  0  0  0  0  0  0  0  0  0
    5.8340   -3.2010   25.2630 C   0  0  0  0  0  0  0  0  0  0  0  0
    4.8610   -2.5160   24.9560 O   0  0  0  0  0  0  0  0  0  0  0  0
    6.2680   -3.4420   26.5580 N   0  0  0  0  0  0  0  0  0  0  0  0
    5.7380   -4.5170   27.3170 C   0  0  1  0  0  0  0  0  0  0  0  0
    5.9140   -5.8310   26.8690 C   0  0  0  0  0  0  0  0  0  0  0  0
    6.2900   -4.4990   28.6680 C   0  0  0  0  0  0  0  0  0  0  0  0
    6.1410   -5.5850   29.5630 N   0  0  0  0  0  0  0  0  0  0  0  0
    4.2570   -4.2420   27.4550 C   0  0  0  0  0  0  0  0  0  0  0  0
    3.7590   -3.9360   28.8360 C   0  0  0  0  0  0  0  0  0  0  0  0
    2.2630   -3.6420   29.0620 C   0  0  0  0  0  0  0  0  0  0  0  0
    1.3090   -3.6570   27.9410 C   0  0  0  0  0  0  0  0  0  0  0  0
    1.8060   -3.9630   26.5540 C   0  0  0  0  0  0  0  0  0  0  0  0
    3.3330   -4.2520   26.3940 C   0  0  0  0  0  0  0  0  0  0  0  0
    6.8100   -2.7070   23.1420 C   0  0  0  0  0  0  0  0  0  0  0  0
    7.6620   -3.2000   22.1870 C   0  0  0  0  0  0  0  0  0  0  0  0
  1  2  1  0
  2  3  2  0
  2  4  1  0
  4  5  1  0
  5  6  1  0
  6  7  1  0
  7  8  1  0
  8  9  2  0
  8 10  1  0
 11 10  1  0
 11 12  1  6
 11 13  1  0
 13 14  1  0
 11 15  1  0
 15 16  2  0
 16 17  1  0
 17 18  2  0
 18 19  1  0
 15 20  1  0
 19 20  2  0
  7 21  1  0
  4 22  1  0
 21 22  1  0
M  END
