piperidine-amides-28683-covalent
     RDKit          3D

 26 28  0  0  0  0  0  0  0  0999 V2000
    7.0270   -3.3430   19.3310 C   0  0  0  0  0  0  0  0  0  0  0  0
    6.3760   -4.1900   20.3310 C   0  0  0  0  0  0  0  0  0  0  0  0
    5.3810   -4.8490   19.9780 O   0  0  0  0  0  0  0  0  0  0  0  0
    6.8940   -4.2860   21.6500 N   0  0  0  0  0  0  0  0  0  0  0  0
    6.6800   -5.5120   22.3750 C   0  0  0  0  0  0  0  0  0  0  0  0
    6.2810   -5.2410   23.8030 C   0  0  0  0  0  0  0  0  0  0  0  0
    6.1900   -3.7410   23.9690 C   0  0  0  0  0  0  0  0  0  0  0  0
    5.5910   -3.3200   25.2790 C   0  0  0  0  0  0  0  0  0  0  0  0
    4.6600   -2.5290   25.1990 O   0  0  0  0  0  0  0  0  0  0  0  0
    6.0760   -3.8220   26.4740 N   0  0  0  0  0  0  0  0  0  0  0  0
    5.5610   -5.0460   26.9710 C   0  0  0  0  0  0  0  0  0  0  0  0
    5.1980   -5.1220   28.3200 C   0  0  0  0  0  0  0  0  0  0  0  0
    5.6620   -4.1760   29.1720 C   0  0  0  0  0  0  0  0  0  0  0  0
    4.7030   -3.3020   29.6690 C   0  0  0  0  0  0  0  0  0  0  0  0
    3.7350   -4.1090   30.4830 C   0  0  0  0  0  0  0  0  0  0  0  0
    4.1150   -5.4180   30.6600 O   0  0  0  0  0  0  0  0  0  0  0  0
    2.5930   -3.5770   30.9850 N   0  0  0  0  0  0  0  0  0  0  0  0
    2.3370   -3.5500   32.2930 C   0  0  0  0  0  0  0  0  0  0  0  0
    0.9680   -2.9730   32.5480 C   0  0  0  0  0  0  0  0  0  0  0  0
    1.1760   -1.7200   33.3490 C   0  0  0  0  0  0  0  0  0  0  0  0
    2.6900   -1.6970   33.5580 C   0  0  0  0  0  0  0  0  0  0  0  0
    3.2850   -2.7710   32.9710 C   0  0  0  0  0  0  0  0  0  0  0  0
    6.7610   -3.5200   28.7590 C   0  0  0  0  0  0  0  0  0  0  0  0
    6.4200   -2.8460   27.4570 C   0  0  0  0  0  0  0  0  0  0  0  0
    7.5690   -3.1540   23.7000 C   0  0  0  0  0  0  0  0  0  0  0  0
    7.7230   -3.2460   22.2040 C   0  0  0  0  0  0  0  0  0  0  0  0
  1  2  1  0
  2  3  2  0
  2  4  1  0
  4  5  1  0
  5  6  1  0
  6  7  1  0
  7  8  1  0
  8  9  2  0
  8 10  1  0
 10 11  1  0
 11 12  1  0
 12 13  1  0
 13 14  1  0
 14 15  1  0
 15 16  2  0
 15 17  1  0
 17 18  1  0
 18 19  1  0
 19 20  1  0
 20 21  1  0
 18 22  1  0
 21 22  1  0
 13 23  1  0
 10 24  1  0
 23 24  1  0
  7 25  1  0
  4 26  1  0
 25 26  1  0
M  END
