piperidine-amides-4443-covalent
     RDKit          3D

 25 27  0  0  0  0  0  0  0  0999 V2000
    7.0930   -3.3290   19.2530 C   0  0  0  0  0  0  0  0  0  0  0  0
    6.3970   -4.1330   20.2720 C   0  0  0  0  0  0  0  0  0  0  0  0
    5.3160   -4.6630   19.9270 O   0  0  0  0  0  0  0  0  0  0  0  0
    6.9580   -4.3500   21.5530 N   0  0  0  0  0  0  0  0  0  0  0  0
    6.4650   -5.4360   22.3270 C   0  0  0  0  0  0  0  0  0  0  0  0
    5.9890   -5.0410   23.6460 C   0  0  0  0  0  0  0  0  0  0  0  0
    6.6160   -3.8200   24.1940 C   0  0  0  0  0  0  0  0  0  0  0  0
    5.8550   -3.2940   25.3650 C   0  0  0  0  0  0  0  0  0  0  0  0
    4.6090   -3.2460   25.3290 O   0  0  0  0  0  0  0  0  0  0  0  0
    6.5270   -2.8450   26.5110 N   0  0  0  0  0  0  0  0  0  0  0  0
    6.4280   -1.5920   27.1440 C   0  0  0  0  0  0  0  0  0  0  0  0
    5.8550   -0.3640   26.5840 C   0  0  0  0  0  0  0  0  0  0  0  0
    5.8250    0.9150   27.4560 C   0  0  0  0  0  0  0  0  0  0  0  0
    6.3380    0.8740   28.7380 C   0  0  0  0  0  0  0  0  0  0  0  0
    6.3210    2.0150   29.5710 N   0  0  0  0  0  0  0  0  0  0  0  0
    5.7660    1.9860   30.8720 C   0  0  0  0  0  0  0  0  0  0  0  0
    6.1530    3.2440   31.6520 C   0  0  0  0  0  0  0  0  0  0  0  0
    7.2370    3.6790   30.6310 C   0  0  0  0  0  0  0  0  0  0  0  0
    7.2320    3.0050   29.3030 C   0  0  0  0  0  0  0  0  0  0  0  0
    7.9770    3.3620   28.1650 O   0  0  0  0  0  0  0  0  0  0  0  0
    6.8950   -0.2130   29.3440 C   0  0  0  0  0  0  0  0  0  0  0  0
    7.4010   -0.2450   30.6100 F   0  0  0  0  0  0  0  0  0  0  0  0
    6.9590   -1.5050   28.5470 C   0  0  0  0  0  0  0  0  0  0  0  0
    6.8180   -2.7840   23.1430 C   0  0  0  0  0  0  0  0  0  0  0  0
    7.7130   -3.3140   22.2260 C   0  0  0  0  0  0  0  0  0  0  0  0
  1  2  1  0
  2  3  2  0
  2  4  1  0
  4  5  1  0
  5  6  1  0
  6  7  1  0
  7  8  1  0
  8  9  2  0
  8 10  1  0
 10 11  1  0
 11 12  2  0
 12 13  1  0
 13 14  2  0
 14 15  1  0
 15 16  1  0
 16 17  1  0
 17 18  1  0
 15 19  1  0
 18 19  1  0
 19 20  2  0
 14 21  1  0
 21 22  1  0
 11 23  1  0
 21 23  2  0
  7 24  1  0
  4 25  1  0
 24 25  1  0
M  END
