piperidine-amides-28164-covalent
     RDKit          3D

 26 28  0  0  0  0  0  0  0  0999 V2000
    7.0720   -3.2870   19.2040 C   0  0  0  0  0  0  0  0  0  0  0  0
    6.3440   -4.0470   20.2490 C   0  0  0  0  0  0  0  0  0  0  0  0
    5.2760   -4.5760   19.8920 O   0  0  0  0  0  0  0  0  0  0  0  0
    6.8520   -4.2050   21.5520 N   0  0  0  0  0  0  0  0  0  0  0  0
    6.4700   -5.3310   22.3270 C   0  0  0  0  0  0  0  0  0  0  0  0
    5.9990   -4.9930   23.6780 C   0  0  0  0  0  0  0  0  0  0  0  0
    6.6600   -3.8340   24.3370 C   0  0  0  0  0  0  0  0  0  0  0  0
    5.8240   -3.3170   25.4560 C   0  0  0  0  0  0  0  0  0  0  0  0
    4.6040   -3.1580   25.2470 O   0  0  0  0  0  0  0  0  0  0  0  0
    6.3710   -3.0080   26.7270 N   0  0  0  0  0  0  0  0  0  0  0  0
    5.7580   -2.0650   27.6320 C   0  0  0  0  0  0  0  0  0  0  0  0
    7.1170   -1.6730   28.0170 C   0  0  0  0  0  0  0  0  0  0  0  0
    7.5480   -0.5290   27.6790 O   0  0  0  0  0  0  0  0  0  0  0  0
    8.2090    0.1670   28.5710 C   0  0  0  0  0  0  0  0  0  0  0  0
    8.8800   -0.3050   29.6870 C   0  0  0  0  0  0  0  0  0  0  0  0
    9.5700    0.4980   30.5990 C   0  0  0  0  0  0  0  0  0  0  0  0
    9.6070    1.8480   30.4130 C   0  0  0  0  0  0  0  0  0  0  0  0
   10.2600    2.6800   31.2740 C   0  0  0  0  0  0  0  0  0  0  0  0
   11.0040    2.2720   32.4210 O   0  0  0  0  0  0  0  0  0  0  0  0
   10.1190    4.0080   30.9220 O   0  0  0  0  0  0  0  0  0  0  0  0
   11.2180    4.3960   30.1720 C   0  0  0  0  0  0  0  0  0  0  0  0
    8.9630    2.3650   29.3320 C   0  0  0  0  0  0  0  0  0  0  0  0
    8.2450    1.5120   28.3840 C   0  0  0  0  0  0  0  0  0  0  0  0
    7.7330   -2.7730   27.0440 C   0  0  0  0  0  0  0  0  0  0  0  0
    6.9660   -2.7190   23.3170 C   0  0  0  0  0  0  0  0  0  0  0  0
    7.6760   -3.2080   22.2030 C   0  0  0  0  0  0  0  0  0  0  0  0
  1  2  1  0
  2  3  2  0
  2  4  1  0
  4  5  1  0
  5  6  1  0
  6  7  1  0
  7  8  1  0
  8  9  2  0
  8 10  1  0
 10 11  1  0
 11 12  1  0
 12 13  1  0
 13 14  1  0
 14 15  2  0
 15 16  1  0
 16 17  2  0
 17 18  1  0
 18 19  2  0
 18 20  1  0
 20 21  1  0
 17 22  1  0
 14 23  1  0
 22 23  2  0
 10 24  1  0
 12 24  1  0
  7 25  1  0
  4 26  1  0
 25 26  1  0
M  END
