piperidine-amides-24413-covalent
     RDKit          3D

 23 25  0  0  0  0  0  0  0  0999 V2000
    7.0240   -3.3520   19.3600 C   0  0  0  0  0  0  0  0  0  0  0  0
    6.3780   -4.2320   20.3450 C   0  0  0  0  0  0  0  0  0  0  0  0
    5.3780   -4.8980   19.9970 O   0  0  0  0  0  0  0  0  0  0  0  0
    6.8870   -4.3810   21.6510 N   0  0  0  0  0  0  0  0  0  0  0  0
    6.6260   -5.6030   22.3680 C   0  0  0  0  0  0  0  0  0  0  0  0
    5.8010   -5.1990   23.5930 C   0  0  0  0  0  0  0  0  0  0  0  0
    6.5410   -4.0720   24.2900 C   0  0  0  0  0  0  0  0  0  0  0  0
    5.7470   -3.6170   25.4780 C   0  0  0  0  0  0  0  0  0  0  0  0
    4.6890   -3.0050   25.2230 O   0  0  0  0  0  0  0  0  0  0  0  0
    6.1260   -3.8410   26.8520 N   0  0  0  0  0  0  0  0  0  0  0  0
    6.3090   -2.7440   27.7810 C   0  0  0  0  0  0  0  0  0  0  0  0
    4.9050   -2.3210   28.0250 C   0  0  0  0  0  0  0  0  0  0  0  0
    4.3410   -3.5390   27.5990 N   0  0  0  0  0  0  0  0  0  0  0  0
    2.9240   -3.8600   27.6120 C   0  0  0  0  0  0  0  0  0  0  0  0
    5.2610   -4.4600   28.0750 C   0  0  0  0  0  0  0  0  0  0  0  0
    4.9300   -5.1190   29.0230 C   0  0  0  0  0  0  0  0  0  0  0  0
    4.5040   -5.7220   29.9630 C   0  0  0  0  0  0  0  0  0  0  0  0
    5.5630   -6.5880   30.3510 C   0  0  0  0  0  0  0  0  0  0  0  0
    5.7750   -7.7520   31.6100 Cl  0  0  0  0  0  0  0  0  0  0  0  0
    6.4750   -5.9760   29.0920 C   0  0  0  0  0  0  0  0  0  0  0  0
    6.4750   -4.8840   27.8370 C   0  0  0  0  0  0  0  0  0  0  0  0
    6.7370   -2.9070   23.3340 C   0  0  0  0  0  0  0  0  0  0  0  0
    7.6270   -3.3420   22.3380 C   0  0  0  0  0  0  0  0  0  0  0  0
  1  2  1  0
  2  3  2  0
  2  4  1  0
  4  5  1  0
  5  6  1  0
  6  7  1  0
  7  8  1  0
  8  9  2  0
  8 10  1  0
 10 11  1  0
 11 12  1  0
 12 13  1  0
 13 14  1  0
 13 15  1  0
 15 16  2  0
 16 17  1  0
 17 18  2  0
 18 19  1  0
 18 20  1  0
 10 21  1  0
 15 21  1  0
 20 21  2  0
  7 22  1  0
  4 23  1  0
 22 23  1  0
M  END
