piperidine-amides-31110-covalent
     RDKit          3D

 23 25  0  0  0  0  0  0  0  0999 V2000
    7.0400   -3.3740   19.3490 C   0  0  0  0  0  0  0  0  0  0  0  0
    6.3690   -4.2210   20.3450 C   0  0  0  0  0  0  0  0  0  0  0  0
    5.3870   -4.8980   19.9890 O   0  0  0  0  0  0  0  0  0  0  0  0
    6.8300   -4.3150   21.6700 N   0  0  0  0  0  0  0  0  0  0  0  0
    6.7440   -5.5560   22.4370 C   0  0  0  0  0  0  0  0  0  0  0  0
    6.2220   -5.2210   23.8220 C   0  0  0  0  0  0  0  0  0  0  0  0
    6.4460   -3.7810   24.1250 C   0  0  0  0  0  0  0  0  0  0  0  0
    6.3910   -3.3210   25.5310 C   0  0  0  0  0  0  0  0  0  0  0  0
    6.8990   -2.2100   25.7750 O   0  0  0  0  0  0  0  0  0  0  0  0
    5.7530   -3.8760   26.6550 N   0  0  0  0  0  0  0  0  0  0  0  0
    4.8210   -2.8200   27.0960 C   0  0  0  0  0  0  0  0  0  0  0  0
    5.0900   -2.5470   28.4870 C   0  0  0  0  0  0  0  0  0  0  0  0
    4.6750   -3.6940   29.1770 C   0  0  0  0  0  0  0  0  0  0  0  0
    3.5880   -3.4950   30.2020 C   0  0  0  0  0  0  0  0  0  0  0  0
    3.1220   -4.7150   30.9430 C   0  0  0  0  0  0  0  0  0  0  0  0
    2.0890   -4.6370   31.9380 F   0  0  0  0  0  0  0  0  0  0  0  0
    3.8330   -5.9410   30.5380 C   0  0  0  0  0  0  0  0  0  0  0  0
    4.8200   -6.0000   29.5770 C   0  0  0  0  0  0  0  0  0  0  0  0
    5.5140   -7.6880   29.3020 Br  0  0  0  0  0  0  0  0  0  0  0  0
    5.2510   -4.8580   28.8650 C   0  0  0  0  0  0  0  0  0  0  0  0
    6.2870   -4.6940   27.7530 C   0  0  0  0  0  0  0  0  0  0  0  0
    7.7530   -3.2690   23.6230 C   0  0  0  0  0  0  0  0  0  0  0  0
    7.7380   -3.2720   22.1340 C   0  0  0  0  0  0  0  0  0  0  0  0
  1  2  1  0
  2  3  2  0
  2  4  1  0
  4  5  1  0
  5  6  1  0
  6  7  1  0
  7  8  1  0
  8  9  2  0
  8 10  1  0
 10 11  1  0
 11 12  1  0
 12 13  1  0
 13 14  2  0
 14 15  1  0
 15 16  1  0
 15 17  2  0
 17 18  1  0
 18 19  1  0
 13 20  1  0
 18 20  2  0
 10 21  1  0
 20 21  1  0
  7 22  1  0
  4 23  1  0
 22 23  1  0
M  END
