piperidine-amides-7275-covalent
     RDKit          3D

 21 22  0  0  0  0  0  0  0  0999 V2000
    7.1050   -3.3400   19.3040 C   0  0  0  0  0  0  0  0  0  0  0  0
    6.4320   -4.1800   20.2970 C   0  0  0  0  0  0  0  0  0  0  0  0
    5.3470   -4.7070   19.9450 O   0  0  0  0  0  0  0  0  0  0  0  0
    7.0230   -4.4160   21.5410 N   0  0  0  0  0  0  0  0  0  0  0  0
    6.6120   -5.5150   22.3730 C   0  0  0  0  0  0  0  0  0  0  0  0
    5.8560   -4.9370   23.5340 C   0  0  0  0  0  0  0  0  0  0  0  0
    6.5530   -3.7360   24.1330 C   0  0  0  0  0  0  0  0  0  0  0  0
    5.7380   -3.1570   25.2020 C   0  0  0  0  0  0  0  0  0  0  0  0
    4.5470   -2.8600   24.9660 O   0  0  0  0  0  0  0  0  0  0  0  0
    6.2520   -2.9360   26.4710 N   0  0  0  0  0  0  0  0  0  0  0  0
    6.2930   -1.6310   27.0710 C   0  0  0  0  0  0  0  0  0  0  0  0
    6.1220   -0.3600   26.2650 C   0  0  0  0  0  0  0  0  0  0  0  0
    6.1710    0.8520   26.9090 C   0  0  0  0  0  0  0  0  0  0  0  0
    6.3810    0.8640   28.2730 C   0  0  0  0  0  0  0  0  0  0  0  0
    6.5420   -0.2720   29.0490 C   0  0  0  0  0  0  0  0  0  0  0  0
    6.4860   -1.5020   28.4170 C   0  0  0  0  0  0  0  0  0  0  0  0
    6.6060   -2.6640   29.0830 C   0  0  0  0  0  0  0  0  0  0  0  0
    5.5350   -3.7050   28.8010 C   0  0  0  0  0  0  0  0  0  0  0  0
    6.3330   -5.0140   28.8500 C   0  0  0  0  0  0  0  0  0  0  0  0
    6.8850   -2.6650   23.1010 C   0  0  0  0  0  0  0  0  0  0  0  0
    7.8250   -3.3770   22.1720 C   0  0  0  0  0  0  0  0  0  0  0  0
  1  2  1  0
  2  3  2  0
  2  4  1  0
  4  5  1  0
  5  6  1  0
  6  7  1  0
  7  8  1  0
  8  9  2  0
  8 10  1  0
 10 11  1  0
 11 12  2  0
 12 13  1  0
 13 14  2  0
 14 15  1  0
 11 16  1  0
 15 16  2  0
 16 17  1  0
 17 18  1  0
 18 19  1  0
  7 20  1  0
  4 21  1  0
 20 21  1  0
M  END
