piperidine-amides-2837-covalent
     RDKit          3D

 24 26  0  0  0  0  0  0  0  0999 V2000
    7.1540   -3.2680   19.2100 C   0  0  0  0  0  0  0  0  0  0  0  0
    6.3300   -3.9620   20.1900 C   0  0  0  0  0  0  0  0  0  0  0  0
    5.2690   -4.4890   19.8610 O   0  0  0  0  0  0  0  0  0  0  0  0
    6.7940   -4.0750   21.5350 N   0  0  0  0  0  0  0  0  0  0  0  0
    7.6540   -3.0480   22.0740 C   0  0  0  0  0  0  0  0  0  0  0  0
    7.0330   -2.4410   23.2960 C   0  0  0  0  0  0  0  0  0  0  0  0
    6.5370   -3.5990   24.1280 C   0  0  0  0  0  0  0  0  0  0  0  0
    5.9560   -3.1350   25.4220 C   0  0  0  0  0  0  0  0  0  0  0  0
    4.8120   -2.6400   25.5140 O   0  0  0  0  0  0  0  0  0  0  0  0
    6.7710   -3.2870   26.5800 N   0  0  0  0  0  0  0  0  0  0  0  0
    6.3710   -2.7080   27.8440 C   0  0  0  0  0  0  0  0  0  0  0  0
    5.3950   -3.6380   28.5470 C   0  0  0  0  0  0  0  0  0  0  0  0
    5.6140   -4.9810   28.4440 C   0  0  0  0  0  0  0  0  0  0  0  0
    6.0330   -5.8430   29.4350 C   0  0  0  0  0  0  0  0  0  0  0  0
    7.3720   -6.1280   29.1460 O   0  0  0  0  0  0  0  0  0  0  0  0
    7.6660   -5.9060   27.7720 C   0  0  0  0  0  0  0  0  0  0  0  0
    9.0470   -5.8830   27.3420 C   0  0  0  0  0  0  0  0  0  0  0  0
    9.3860   -5.6680   26.0270 C   0  0  0  0  0  0  0  0  0  0  0  0
    8.3490   -5.4720   25.1360 C   0  0  0  0  0  0  0  0  0  0  0  0
    7.0310   -5.4880   25.4880 C   0  0  0  0  0  0  0  0  0  0  0  0
    6.6600   -5.7080   26.8550 C   0  0  0  0  0  0  0  0  0  0  0  0
    5.3990   -5.7130   27.3340 O   0  0  0  0  0  0  0  0  0  0  0  0
    5.5770   -4.4960   23.3580 C   0  0  0  0  0  0  0  0  0  0  0  0
    6.3300   -5.1360   22.3780 C   0  0  0  0  0  0  0  0  0  0  0  0
  1  2  1  0
  2  3  2  0
  2  4  1  0
  4  5  1  0
  5  6  1  0
  6  7  1  0
  7  8  1  0
  8  9  2  0
  8 10  1  0
 10 11  1  0
 11 12  1  0
 12 13  1  0
 13 14  1  0
 14 15  1  0
 15 16  1  0
 16 17  2  0
 17 18  1  0
 18 19  2  0
 19 20  1  0
 16 21  1  0
 20 21  2  0
 13 22  1  0
 21 22  1  0
  7 23  1  0
  4 24  1  0
 23 24  1  0
M  END
