piperidine-amides-10572-covalent
     RDKit          3D

 23 24  0  0  0  0  0  0  0  0999 V2000
    7.1330   -3.2860   19.2420 C   0  0  0  0  0  0  0  0  0  0  0  0
    6.3500   -3.9900   20.2630 C   0  0  0  0  0  0  0  0  0  0  0  0
    5.2850   -4.5430   19.8820 O   0  0  0  0  0  0  0  0  0  0  0  0
    6.8170   -4.0650   21.5750 N   0  0  0  0  0  0  0  0  0  0  0  0
    7.7810   -3.1210   22.0870 C   0  0  0  0  0  0  0  0  0  0  0  0
    7.5020   -2.9900   23.5430 C   0  0  0  0  0  0  0  0  0  0  0  0
    6.1160   -3.4840   23.8210 C   0  0  0  0  0  0  0  0  0  0  0  0
    5.6760   -3.0350   25.1530 C   0  0  0  0  0  0  0  0  0  0  0  0
    4.7530   -2.2010   25.2260 O   0  0  0  0  0  0  0  0  0  0  0  0
    6.2350   -3.5160   26.3360 N   0  0  0  0  0  0  0  0  0  0  0  0
    5.7140   -4.7350   26.8820 C   0  0  0  0  0  0  0  0  0  0  0  0
    5.4330   -4.6370   28.3580 C   0  0  2  0  0  0  0  0  0  0  0  0
    6.0390   -5.4440   29.2600 C   0  0  0  0  0  0  0  0  0  0  0  0
    6.4250   -6.7060   28.9640 C   0  0  0  0  0  0  0  0  0  0  0  0
    5.7810   -7.0570   27.8910 O   0  0  0  0  0  0  0  0  0  0  0  0
    4.1370   -4.7070   28.8150 C   0  0  0  0  0  0  0  0  0  0  0  0
    3.3940   -3.6620   29.3330 C   0  0  0  0  0  0  0  0  0  0  0  0
    2.0820   -3.7030   29.8050 C   0  0  0  0  0  0  0  0  0  0  0  0
    1.3410   -4.8490   29.8080 N   0  0  0  0  0  0  0  0  0  0  0  0
    1.9420   -5.9510   29.3290 C   0  0  0  0  0  0  0  0  0  0  0  0
    3.3600   -5.9620   28.8050 C   0  0  0  0  0  0  0  0  0  0  0  0
    6.0050   -5.0110   23.6580 C   0  0  0  0  0  0  0  0  0  0  0  0
    6.6570   -5.3160   22.3120 C   0  0  0  0  0  0  0  0  0  0  0  0
  1  2  1  0
  2  3  2  0
  2  4  1  0
  4  5  1  0
  5  6  1  0
  6  7  1  0
  7  8  1  0
  8  9  2  0
  8 10  1  0
 10 11  1  0
 12 11  1  6
 12 13  1  0
 13 14  1  0
 14 15  1  0
 12 16  1  0
 16 17  2  0
 17 18  1  0
 18 19  2  0
 19 20  1  0
 16 21  1  0
 20 21  2  0
  7 22  1  0
  4 23  1  0
 22 23  1  0
M  END
