piperidine-amides-12616-covalent
     RDKit          3D

 23 24  0  0  0  0  0  0  0  0999 V2000
    7.0450   -3.3330   19.3360 C   0  0  0  0  0  0  0  0  0  0  0  0
    6.3780   -4.1800   20.3500 C   0  0  0  0  0  0  0  0  0  0  0  0
    5.3720   -4.8110   19.9720 O   0  0  0  0  0  0  0  0  0  0  0  0
    6.8870   -4.2970   21.6590 N   0  0  0  0  0  0  0  0  0  0  0  0
    7.6720   -3.2520   22.2420 C   0  0  0  0  0  0  0  0  0  0  0  0
    7.2960   -2.9580   23.6200 C   0  0  0  0  0  0  0  0  0  0  0  0
    6.0430   -3.6260   24.0130 C   0  0  0  0  0  0  0  0  0  0  0  0
    5.6300   -3.2520   25.3920 C   0  0  0  0  0  0  0  0  0  0  0  0
    4.4120   -3.2570   25.6400 O   0  0  0  0  0  0  0  0  0  0  0  0
    6.5490   -2.8970   26.3920 N   0  0  0  0  0  0  0  0  0  0  0  0
    6.4790   -1.6000   27.1070 C   0  0  0  0  0  0  0  0  0  0  0  0
    5.9170   -0.4040   26.4680 C   0  0  0  0  0  0  0  0  0  0  0  0
    5.8590    0.8500   27.1940 C   0  0  0  0  0  0  0  0  0  0  0  0
    6.3390    0.8960   28.4930 C   0  0  0  0  0  0  0  0  0  0  0  0
    6.3050    1.9580   29.1490 O   0  0  0  0  0  0  0  0  0  0  0  0
    5.1010    2.2960   29.5160 C   0  0  0  0  0  0  0  0  0  0  0  0
    4.3620    1.2620   30.0030 C   0  0  0  0  0  0  0  0  0  0  0  0
    5.1380    3.6040   30.2410 C   0  0  0  0  0  0  0  0  0  0  0  0
    6.8850   -0.2360   29.1320 C   0  0  0  0  0  0  0  0  0  0  0  0
    7.5040   -0.0150   30.9290 Br  0  0  0  0  0  0  0  0  0  0  0  0
    6.9730   -1.4820   28.4850 C   0  0  0  0  0  0  0  0  0  0  0  0
    5.9970   -5.0950   23.7890 C   0  0  0  0  0  0  0  0  0  0  0  0
    6.6700   -5.4840   22.4840 C   0  0  0  0  0  0  0  0  0  0  0  0
  1  2  1  0
  2  3  2  0
  2  4  1  0
  4  5  1  0
  5  6  1  0
  6  7  1  0
  7  8  1  0
  8  9  2  0
  8 10  1  0
 10 11  1  0
 11 12  2  0
 12 13  1  0
 13 14  2  0
 14 15  1  0
 15 16  1  0
 16 17  1  0
 16 18  1  0
 14 19  1  0
 19 20  1  0
 11 21  1  0
 19 21  2  0
  7 22  1  0
  4 23  1  0
 22 23  1  0
M  END
