piperidine-amides-17157-covalent
     RDKit          3D

 20 21  0  0  0  0  0  0  0  0999 V2000
    7.0820   -3.3610   19.3260 C   0  0  0  0  0  0  0  0  0  0  0  0
    6.4270   -4.2110   20.3290 C   0  0  0  0  0  0  0  0  0  0  0  0
    5.3700   -4.7840   19.9720 O   0  0  0  0  0  0  0  0  0  0  0  0
    7.0010   -4.4320   21.6140 N   0  0  0  0  0  0  0  0  0  0  0  0
    6.5110   -5.4990   22.3920 C   0  0  0  0  0  0  0  0  0  0  0  0
    6.1740   -5.0950   23.7540 C   0  0  0  0  0  0  0  0  0  0  0  0
    5.9550   -3.6400   23.9660 C   0  0  0  0  0  0  0  0  0  0  0  0
    5.6310   -3.2450   25.3890 C   0  0  0  0  0  0  0  0  0  0  0  0
    4.6010   -2.5670   25.5480 O   0  0  0  0  0  0  0  0  0  0  0  0
    6.3520   -3.5720   26.5710 N   0  0  0  0  0  0  0  0  0  0  0  0
    5.8020   -3.4140   27.8460 C   0  0  0  0  0  0  0  0  0  0  0  0
    5.3160   -4.6680   28.4040 C   0  0  2  0  0  0  0  0  0  0  0  0
    6.4880   -5.4280   29.0400 C   0  0  0  0  0  0  0  0  0  0  0  0
    6.0790   -6.5740   29.6870 C   0  0  0  0  0  0  0  0  0  0  0  0
    4.9580   -5.5310   27.5510 O   0  0  0  0  0  0  0  0  0  0  0  0
    6.0550   -5.9160   26.7750 C   0  0  0  0  0  0  0  0  0  0  0  0
    7.0310   -4.8060   26.7630 C   0  0  1  0  0  0  0  0  0  0  0  0
    7.6970   -5.3690   25.5040 C   0  0  0  0  0  0  0  0  0  0  0  0
    6.9340   -2.6880   23.3050 C   0  0  0  0  0  0  0  0  0  0  0  0
    7.7880   -3.4230   22.2900 C   0  0  0  0  0  0  0  0  0  0  0  0
  1  2  1  0
  2  3  2  0
  2  4  1  0
  4  5  1  0
  5  6  1  0
  6  7  1  0
  7  8  1  0
  8  9  2  0
  8 10  1  0
 10 11  1  0
 11 12  1  0
 12 13  1  6
 13 14  1  0
 12 15  1  0
 15 16  1  0
 10 17  1  0
 16 17  1  0
 17 18  1  6
  7 19  1  0
  4 20  1  0
 19 20  1  0
M  END
