piperidine-amides-24536-covalent
     RDKit          3D

 24 26  0  0  0  0  0  0  0  0999 V2000
    7.0400   -3.3520   19.3680 C   0  0  0  0  0  0  0  0  0  0  0  0
    6.3900   -4.2420   20.3390 C   0  0  0  0  0  0  0  0  0  0  0  0
    5.3750   -4.8870   19.9930 O   0  0  0  0  0  0  0  0  0  0  0  0
    6.9190   -4.4260   21.6300 N   0  0  0  0  0  0  0  0  0  0  0  0
    6.5550   -5.6190   22.3420 C   0  0  0  0  0  0  0  0  0  0  0  0
    5.5230   -5.1720   23.3840 C   0  0  0  0  0  0  0  0  0  0  0  0
    6.1640   -4.1140   24.2720 C   0  0  0  0  0  0  0  0  0  0  0  0
    5.1180   -3.5970   25.2100 C   0  0  0  0  0  0  0  0  0  0  0  0
    3.9520   -3.4700   24.8020 O   0  0  0  0  0  0  0  0  0  0  0  0
    5.4820   -3.2570   26.5290 N   0  0  0  0  0  0  0  0  0  0  0  0
    6.7910   -3.3950   26.7910 C   0  0  0  0  0  0  0  0  0  0  0  0
    6.8990   -4.7210   27.4510 C   0  0  0  0  0  0  0  0  0  0  0  0
    6.9010   -5.9040   26.9490 C   0  0  0  0  0  0  0  0  0  0  0  0
    7.2830   -6.2180   28.1610 C   0  0  0  0  0  0  0  0  0  0  0  0
    7.2870   -4.9660   28.8570 C   0  0  0  0  0  0  0  0  0  0  0  0
    5.9960   -4.5220   28.5970 C   0  0  0  0  0  0  0  0  0  0  0  0
    4.5140   -4.7630   28.3830 C   0  0  0  0  0  0  0  0  0  0  0  0
    4.7730   -3.3550   27.8040 C   0  0  1  0  0  0  0  0  0  0  0  0
    5.2460   -2.2630   28.7360 C   0  0  0  0  0  0  0  0  0  0  0  0
    4.7450   -2.2770   29.9480 O   0  0  0  0  0  0  0  0  0  0  0  0
    6.1660   -1.2690   28.3760 O   0  0  0  0  0  0  0  0  0  0  0  0
    6.1760   -0.7790   27.0480 C   0  0  0  0  0  0  0  0  0  0  0  0
    6.6830   -2.9720   23.4250 C   0  0  0  0  0  0  0  0  0  0  0  0
    7.4520   -3.3140   22.3420 C   0  0  0  0  0  0  0  0  0  0  0  0
  1  2  1  0
  2  3  2  0
  2  4  1  0
  4  5  1  0
  5  6  1  0
  6  7  1  0
  7  8  1  0
  8  9  2  0
  8 10  1  0
 10 11  1  0
 12 11  1  0
 12 13  1  0
 13 14  1  0
 12 15  1  0
 14 15  1  0
 12 16  1  0
 16 17  1  0
 10 18  1  0
 17 18  1  0
 18 19  1  1
 19 20  2  0
 19 21  1  0
 21 22  1  0
  7 23  1  0
  4 24  1  0
 23 24  1  0
M  END
