piperidine-amides-29409-covalent
     RDKit          3D

 25 26  0  0  0  0  0  0  0  0999 V2000
    7.0570   -3.3890   19.4470 C   0  0  0  0  0  0  0  0  0  0  0  0
    6.3830   -4.2600   20.4030 C   0  0  0  0  0  0  0  0  0  0  0  0
    5.3870   -4.8890   19.9970 O   0  0  0  0  0  0  0  0  0  0  0  0
    6.8870   -4.4190   21.7290 N   0  0  0  0  0  0  0  0  0  0  0  0
    6.4160   -5.5270   22.4920 C   0  0  0  0  0  0  0  0  0  0  0  0
    5.4140   -5.0100   23.4870 C   0  0  0  0  0  0  0  0  0  0  0  0
    6.1120   -4.0130   24.3950 C   0  0  0  0  0  0  0  0  0  0  0  0
    5.1060   -3.3820   25.3500 C   0  0  0  0  0  0  0  0  0  0  0  0
    4.0520   -3.0410   24.8390 O   0  0  0  0  0  0  0  0  0  0  0  0
    5.4030   -3.2120   26.7190 N   0  0  0  0  0  0  0  0  0  0  0  0
    6.7010   -3.2360   27.1020 C   0  0  0  0  0  0  0  0  0  0  0  0
    6.7620   -4.2200   28.0980 C   0  0  0  0  0  0  0  0  0  0  0  0
    5.4900   -4.3700   28.5620 C   0  0  0  0  0  0  0  0  0  0  0  0
    4.5190   -3.7740   27.7380 C   0  0  1  0  0  0  0  0  0  0  0  0
    3.8740   -2.7360   28.6130 C   0  0  0  0  0  0  0  0  0  0  0  0
    3.6500   -3.2180   29.8800 O   0  0  0  0  0  0  0  0  0  0  0  0
    2.9400   -2.0360   30.8680 Si  0  0  0  0  0  4  0  0  0  0  0  0
    3.1090   -0.3230   30.1050 C   0  0  0  0  0  0  0  0  0  0  0  0
    3.7120   -1.9320   32.5630 C   0  0  0  0  0  0  0  0  0  0  0  0
    1.1270   -2.3860   31.0980 C   0  0  0  0  0  0  0  0  0  0  0  0
    0.3060   -1.2350   30.4700 C   0  0  0  0  0  0  0  0  0  0  0  0
    0.7890   -2.4810   32.4300 C   0  0  0  0  0  0  0  0  0  0  0  0
    0.7230   -3.6570   30.3600 C   0  0  0  0  0  0  0  0  0  0  0  0
    6.8370   -2.9230   23.6400 C   0  0  0  0  0  0  0  0  0  0  0  0
    7.6060   -3.3850   22.4190 C   0  0  0  0  0  0  0  0  0  0  0  0
  1  2  1  0
  2  3  2  0
  2  4  1  0
  4  5  1  0
  5  6  1  0
  6  7  1  0
  7  8  1  0
  8  9  2  0
  8 10  1  0
 10 11  1  0
 11 12  1  0
 12 13  1  0
 10 14  1  0
 13 14  1  0
 14 15  1  1
 15 16  1  0
 17 16  1  0
 17 18  1  0
 17 19  1  0
 17 20  1  0
 20 21  1  0
 20 22  1  0
 20 23  1  0
  7 24  1  0
  4 25  1  0
 24 25  1  0
M  END
