piperidine-amides-19481-covalent
     RDKit          3D

 22 24  0  0  0  0  0  0  0  0999 V2000
    7.0300   -3.4370   19.3940 C   0  0  0  0  0  0  0  0  0  0  0  0
    6.3680   -4.2210   20.4140 C   0  0  0  0  0  0  0  0  0  0  0  0
    5.4050   -4.9500   20.0160 O   0  0  0  0  0  0  0  0  0  0  0  0
    6.7690   -4.2530   21.7770 N   0  0  0  0  0  0  0  0  0  0  0  0
    6.7050   -5.5910   22.4330 C   0  0  0  0  0  0  0  0  0  0  0  0
    6.2180   -5.2600   23.9090 C   0  0  0  0  0  0  0  0  0  0  0  0
    6.2710   -3.7630   24.0390 C   0  0  0  0  0  0  0  0  0  0  0  0
    5.3510   -3.1240   25.1920 C   0  0  0  0  0  0  0  0  0  0  0  0
    4.4330   -2.5460   24.6460 O   0  0  0  0  0  0  0  0  0  0  0  0
    5.7380   -3.3420   26.3890 N   0  0  0  0  0  0  0  0  0  0  0  0
    6.3830   -3.4810   27.5320 C   0  0  0  0  0  0  0  0  0  0  0  0
    6.5760   -4.5270   28.3610 C   0  0  0  0  0  0  0  0  0  0  0  0
    5.3460   -4.7770   28.9500 C   0  0  0  0  0  0  0  0  0  0  0  0
    5.2920   -5.9200   29.8480 C   0  0  0  0  0  0  0  0  0  0  0  0
    6.3980   -6.8750   29.5390 C   0  0  0  0  0  0  0  0  0  0  0  0
    6.0210   -7.7260   30.5490 C   0  0  0  0  0  0  0  0  0  0  0  0
    4.8960   -7.3870   31.3360 N   0  0  0  0  0  0  0  0  0  0  0  0
    4.4580   -6.2140   30.8450 N   0  0  0  0  0  0  0  0  0  0  0  0
    4.7670   -5.0180   27.5880 C   0  0  0  0  0  0  0  0  0  0  0  0
    4.6140   -3.5210   27.2610 C   0  0  0  0  0  0  0  0  0  0  0  0
    7.6000   -3.2150   23.6660 C   0  0  0  0  0  0  0  0  0  0  0  0
    7.6690   -3.2370   22.2920 C   0  0  0  0  0  0  0  0  0  0  0  0
  1  2  1  0
  2  3  2  0
  2  4  1  0
  4  5  1  0
  5  6  1  0
  6  7  1  0
  7  8  1  0
  8  9  2  0
  8 10  1  0
 10 11  1  0
 11 12  1  0
 12 13  1  0
 13 14  1  0
 14 15  2  0
 15 16  1  0
 16 17  2  0
 14 18  1  0
 17 18  1  0
 13 19  1  0
 10 20  1  0
 19 20  1  0
  7 21  1  0
  4 22  1  0
 21 22  1  0
M  END
