piperidine-amides-13974-covalent
     RDKit          3D

 25 27  0  0  0  0  0  0  0  0999 V2000
    7.0300   -3.3240   19.3460 C   0  0  0  0  0  0  0  0  0  0  0  0
    6.3390   -4.1910   20.3440 C   0  0  0  0  0  0  0  0  0  0  0  0
    5.3560   -4.8500   19.9790 O   0  0  0  0  0  0  0  0  0  0  0  0
    6.8390   -4.2750   21.6670 N   0  0  0  0  0  0  0  0  0  0  0  0
    6.7030   -5.4700   22.4730 C   0  0  0  0  0  0  0  0  0  0  0  0
    6.0100   -5.1140   23.8050 C   0  0  0  0  0  0  0  0  0  0  0  0
    6.0100   -3.6320   23.9720 C   0  0  0  0  0  0  0  0  0  0  0  0
    5.5870   -3.1630   25.3110 C   0  0  0  0  0  0  0  0  0  0  0  0
    4.3700   -3.1540   25.5240 O   0  0  0  0  0  0  0  0  0  0  0  0
    6.5320   -2.7630   26.2540 N   0  0  0  0  0  0  0  0  0  0  0  0
    6.4910   -1.6290   27.1150 C   0  0  0  0  0  0  0  0  0  0  0  0
    7.0220   -1.6090   28.3780 C   0  0  0  0  0  0  0  0  0  0  0  0
    6.9530   -0.4700   29.1750 C   0  0  0  0  0  0  0  0  0  0  0  0
    6.3430    0.6660   28.7070 C   0  0  0  0  0  0  0  0  0  0  0  0
    6.2630    1.7850   29.4590 N   0  0  0  0  0  0  0  0  0  0  0  0
    5.1380    2.4980   29.3420 C   0  0  0  0  0  0  0  0  0  0  0  0
    4.3540    3.2790   30.4030 C   0  0  0  0  0  0  0  0  0  0  0  0
    5.3210    4.3400   30.9320 C   0  0  0  0  0  0  0  0  0  0  0  0
    4.4920    2.5890   28.0080 C   0  0  0  0  0  0  0  0  0  0  0  0
    5.1000    1.8980   26.8450 C   0  0  0  0  0  0  0  0  0  0  0  0
    5.0030    2.3260   25.6770 O   0  0  0  0  0  0  0  0  0  0  0  0
    5.7930    0.6640   27.4270 C   0  0  0  0  0  0  0  0  0  0  0  0
    5.8700   -0.4710   26.6410 C   0  0  0  0  0  0  0  0  0  0  0  0
    7.3110   -2.9810   23.6580 C   0  0  0  0  0  0  0  0  0  0  0  0
    7.6550   -3.1900   22.2100 C   0  0  0  0  0  0  0  0  0  0  0  0
  1  2  1  0
  2  3  2  0
  2  4  1  0
  4  5  1  0
  5  6  1  0
  6  7  1  0
  7  8  1  0
  8  9  2  0
  8 10  1  0
 10 11  1  0
 11 12  2  0
 12 13  1  0
 13 14  2  0
 14 15  1  0
 15 16  1  0
 16 17  1  0
 17 18  1  0
 16 19  2  0
 19 20  1  0
 20 21  2  0
 14 22  1  0
 20 22  1  0
 11 23  1  0
 22 23  2  0
  7 24  1  0
  4 25  1  0
 24 25  1  0
M  END
