piperidine-amides-8464-covalent
     RDKit          3D

 24 25  0  0  0  0  0  0  0  0999 V2000
    7.0580   -3.3200   19.3120 C   0  0  0  0  0  0  0  0  0  0  0  0
    6.3880   -4.1500   20.3190 C   0  0  0  0  0  0  0  0  0  0  0  0
    5.3790   -4.7870   19.9640 O   0  0  0  0  0  0  0  0  0  0  0  0
    6.8980   -4.2490   21.6470 N   0  0  0  0  0  0  0  0  0  0  0  0
    6.6300   -5.4570   22.4020 C   0  0  0  0  0  0  0  0  0  0  0  0
    6.1490   -5.1330   23.8000 C   0  0  0  0  0  0  0  0  0  0  0  0
    6.0900   -3.6330   23.8990 C   0  0  0  0  0  0  0  0  0  0  0  0
    5.4840   -3.1130   25.1790 C   0  0  0  0  0  0  0  0  0  0  0  0
    4.6260   -2.2630   25.0100 O   0  0  0  0  0  0  0  0  0  0  0  0
    5.8760   -3.5560   26.4380 N   0  0  0  0  0  0  0  0  0  0  0  0
    6.5180   -2.6610   27.3410 C   0  0  0  0  0  0  0  0  0  0  0  0
    5.7690   -1.8080   28.1840 C   0  0  0  0  0  0  0  0  0  0  0  0
    6.2480   -1.6310   29.4660 C   0  0  0  0  0  0  0  0  0  0  0  0
    5.6680   -0.8290   30.4440 C   0  0  0  0  0  0  0  0  0  0  0  0
    4.4250   -0.1150   30.0350 C   0  0  0  0  0  0  0  0  0  0  0  0
    3.7770    0.7850   31.1160 C   0  0  0  0  0  0  0  0  0  0  0  0
    3.9220   -0.2670   28.7720 C   0  0  0  0  0  0  0  0  0  0  0  0
    4.6000   -1.1470   27.7630 C   0  0  0  0  0  0  0  0  0  0  0  0
    4.0330   -1.1760   26.6460 O   0  0  0  0  0  0  0  0  0  0  0  0
    3.6270   -0.0850   25.8910 C   0  0  0  0  0  0  0  0  0  0  0  0
    4.3490    0.9880   26.3750 C   0  0  0  0  0  0  0  0  0  0  0  0
    4.7720    1.8830   25.4260 C   0  0  0  0  0  0  0  0  0  0  0  0
    7.4110   -3.0090   23.6300 C   0  0  0  0  0  0  0  0  0  0  0  0
    7.7490   -3.2140   22.1920 C   0  0  0  0  0  0  0  0  0  0  0  0
  1  2  1  0
  2  3  2  0
  2  4  1  0
  4  5  1  0
  5  6  1  0
  6  7  1  0
  7  8  1  0
  8  9  2  0
  8 10  1  0
 10 11  1  0
 11 12  1  0
 12 13  2  0
 13 14  1  0
 14 15  2  0
 15 16  1  0
 15 17  1  0
 12 18  1  0
 17 18  2  0
 18 19  1  0
 19 20  1  0
 20 21  1  0
 21 22  1  0
  7 23  1  0
  4 24  1  0
 23 24  1  0
M  END
