piperidine-amides-3901-covalent
     RDKit          3D

 21 23  0  0  0  0  0  0  0  0999 V2000
    7.1060   -3.3400   19.3140 C   0  0  0  0  0  0  0  0  0  0  0  0
    6.4330   -4.1830   20.3130 C   0  0  0  0  0  0  0  0  0  0  0  0
    5.3690   -4.7490   19.9590 O   0  0  0  0  0  0  0  0  0  0  0  0
    7.0030   -4.3890   21.5960 N   0  0  0  0  0  0  0  0  0  0  0  0
    6.4640   -5.4300   22.3850 C   0  0  0  0  0  0  0  0  0  0  0  0
    5.8890   -4.9750   23.6540 C   0  0  0  0  0  0  0  0  0  0  0  0
    6.4880   -3.7630   24.2770 C   0  0  0  0  0  0  0  0  0  0  0  0
    5.6400   -3.2780   25.4160 C   0  0  0  0  0  0  0  0  0  0  0  0
    4.4020   -3.3320   25.3100 O   0  0  0  0  0  0  0  0  0  0  0  0
    6.1970   -2.7520   26.5960 N   0  0  0  0  0  0  0  0  0  0  0  0
    6.6440   -1.4280   26.8280 C   0  0  1  0  0  0  0  0  0  0  0  0
    6.0280   -0.2250   26.3230 C   0  0  0  0  0  0  0  0  0  0  0  0
    6.0450    0.3370   27.7160 C   0  0  2  0  0  0  0  0  0  0  0  0
    7.0370    1.3050   27.7410 O   0  0  0  0  0  0  0  0  0  0  0  0
    6.6230    2.4080   26.9920 C   0  0  0  0  0  0  0  0  0  0  0  0
    6.4190   -1.0460   28.3330 C   0  0  0  0  0  0  0  0  0  0  0  0
    5.4780    0.0390   28.7860 C   0  0  0  0  0  0  0  0  0  0  0  0
    6.6500    0.1070   29.7450 C   0  0  0  0  0  0  0  0  0  0  0  0
    7.4420   -1.1080   29.4180 C   0  0  0  0  0  0  0  0  0  0  0  0
    6.7740   -2.6800   23.2710 C   0  0  0  0  0  0  0  0  0  0  0  0
    7.6890   -3.2910   22.2090 C   0  0  0  0  0  0  0  0  0  0  0  0
  1  2  1  0
  2  3  2  0
  2  4  1  0
  4  5  1  0
  5  6  1  0
  6  7  1  0
  7  8  1  0
  8  9  2  0
  8 10  1  0
 11 10  1  6
 11 12  1  0
 12 13  1  0
 13 14  1  6
 14 15  1  0
 11 16  1  0
 13 16  1  0
 16 17  1  0
 17 18  1  0
 16 19  1  0
 18 19  1  0
  7 20  1  0
  4 21  1  0
 20 21  1  0
M  END
