piperidine-amides-13903-covalent
     RDKit          3D

 26 28  0  0  0  0  0  0  0  0999 V2000
    7.0390   -3.3340   19.3430 C   0  0  0  0  0  0  0  0  0  0  0  0
    6.3500   -4.1910   20.3470 C   0  0  0  0  0  0  0  0  0  0  0  0
    5.3720   -4.8640   19.9840 O   0  0  0  0  0  0  0  0  0  0  0  0
    6.8490   -4.2460   21.6670 N   0  0  0  0  0  0  0  0  0  0  0  0
    7.6860   -3.1790   22.1880 C   0  0  0  0  0  0  0  0  0  0  0  0
    7.4980   -3.0750   23.7090 C   0  0  0  0  0  0  0  0  0  0  0  0
    6.1490   -3.6250   24.0180 C   0  0  0  0  0  0  0  0  0  0  0  0
    5.5850   -3.2140   25.3330 C   0  0  0  0  0  0  0  0  0  0  0  0
    4.3520   -3.2020   25.3960 O   0  0  0  0  0  0  0  0  0  0  0  0
    6.3980   -2.8750   26.4220 N   0  0  0  0  0  0  0  0  0  0  0  0
    6.6630   -1.5740   26.9530 C   0  0  2  0  0  0  0  0  0  0  0  0
    7.0790   -1.3960   28.2560 C   0  0  0  0  0  0  0  0  0  0  0  0
    6.5200   -0.4200   29.0790 C   0  0  0  0  0  0  0  0  0  0  0  0
    6.0880    0.7380   28.4850 C   0  0  0  0  0  0  0  0  0  0  0  0
    5.6450    0.7460   27.2060 N   0  0  0  0  0  0  0  0  0  0  0  0
    6.1670    1.5900   26.2800 C   0  0  0  0  0  0  0  0  0  0  0  0
    6.9640    2.8720   26.5980 C   0  0  0  0  0  0  0  0  0  0  0  0
    7.4430    3.6410   25.3640 C   0  0  0  0  0  0  0  0  0  0  0  0
    7.1860    3.2300   24.0780 C   0  0  0  0  0  0  0  0  0  0  0  0
    6.4210    2.0040   23.7820 C   0  0  0  0  0  0  0  0  0  0  0  0
    6.2640    1.7560   22.5670 O   0  0  0  0  0  0  0  0  0  0  0  0
    5.3500    0.7590   22.3460 C   0  0  0  0  0  0  0  0  0  0  0  0
    5.9320    1.2160   24.9700 C   0  0  0  0  0  0  0  0  0  0  0  0
    5.5190   -0.6020   26.7230 C   0  0  0  0  0  0  0  0  0  0  0  0
    6.0560   -5.0970   23.8090 C   0  0  0  0  0  0  0  0  0  0  0  0
    6.6840   -5.4510   22.4600 C   0  0  0  0  0  0  0  0  0  0  0  0
  1  2  1  0
  2  3  2  0
  2  4  1  0
  4  5  1  0
  5  6  1  0
  6  7  1  0
  7  8  1  0
  8  9  2  0
  8 10  1  0
 11 10  1  1
 11 12  1  0
 12 13  1  0
 13 14  1  0
 14 15  1  0
 15 16  1  0
 16 17  2  0
 17 18  1  0
 18 19  2  0
 19 20  1  0
 20 21  1  0
 21 22  1  0
 16 23  1  0
 20 23  2  0
 11 24  1  0
 15 24  1  0
  7 25  1  0
  4 26  1  0
 25 26  1  0
M  END
