piperidine-amides-30873-covalent
     RDKit          3D

 28 31  0  0  0  0  0  0  0  0999 V2000
    7.1320   -3.3340   19.2480 C   0  0  0  0  0  0  0  0  0  0  0  0
    6.4380   -4.1410   20.2520 C   0  0  0  0  0  0  0  0  0  0  0  0
    5.3810   -4.7150   19.9490 O   0  0  0  0  0  0  0  0  0  0  0  0
    6.9830   -4.3230   21.5320 N   0  0  0  0  0  0  0  0  0  0  0  0
    6.6920   -5.5000   22.3170 C   0  0  0  0  0  0  0  0  0  0  0  0
    5.9730   -4.9860   23.5350 C   0  0  0  0  0  0  0  0  0  0  0  0
    6.6690   -3.8030   24.1500 C   0  0  0  0  0  0  0  0  0  0  0  0
    5.9430   -3.2700   25.3160 C   0  0  0  0  0  0  0  0  0  0  0  0
    5.1030   -2.3350   25.1900 O   0  0  0  0  0  0  0  0  0  0  0  0
    6.1150   -3.8020   26.5910 N   0  0  0  0  0  0  0  0  0  0  0  0
    5.5710   -5.1650   26.7550 C   0  0  0  0  0  0  0  0  0  0  0  0
    5.4770   -5.4860   28.1700 C   0  0  0  0  0  0  0  0  0  0  0  0
    5.0560   -4.3230   28.8860 C   0  0  0  0  0  0  0  0  0  0  0  0
    4.4130   -3.6670   28.0510 O   0  0  0  0  0  0  0  0  0  0  0  0
    4.4050   -4.6550   30.1920 C   0  0  0  0  0  0  0  0  0  0  0  0
    3.3650   -3.6940   30.7210 C   0  0  0  0  0  0  0  0  0  0  0  0
    2.7550   -4.0880   32.0270 C   0  0  0  0  0  0  0  0  0  0  0  0
    3.0640   -5.2220   32.7520 C   0  0  0  0  0  0  0  0  0  0  0  0
    4.0260   -6.1310   32.2840 C   0  0  0  0  0  0  0  0  0  0  0  0
    4.5350   -7.4720   32.9460 C   0  0  0  0  0  0  0  0  0  0  0  0
    5.4810   -8.3310   32.4500 N   0  0  0  0  0  0  0  0  0  0  0  0
    5.9640   -7.8440   31.2290 C   0  0  0  0  0  0  0  0  0  0  0  0
    5.4010   -6.6220   30.7740 C   0  0  0  0  0  0  0  0  0  0  0  0
    4.6780   -5.7560   30.9300 C   0  0  0  0  0  0  0  0  0  0  0  0
    6.3040   -3.5460   28.8970 C   0  0  0  0  0  0  0  0  0  0  0  0
    6.3710   -2.9100   27.6810 C   0  0  0  0  0  0  0  0  0  0  0  0
    6.9410   -2.6930   23.1940 C   0  0  0  0  0  0  0  0  0  0  0  0
    7.8180   -3.3030   22.1340 C   0  0  0  0  0  0  0  0  0  0  0  0
  1  2  1  0
  2  3  2  0
  2  4  1  0
  4  5  1  0
  5  6  1  0
  6  7  1  0
  7  8  1  0
  8  9  2  0
  8 10  1  0
 10 11  1  0
 11 12  1  0
 12 13  1  0
 13 14  1  0
 13 15  1  0
 15 16  2  0
 16 17  1  0
 17 18  2  0
 18 19  1  0
 19 20  1  0
 20 21  2  0
 21 22  1  0
 22 23  2  0
 15 24  1  0
 19 24  2  0
 23 24  1  0
 13 25  1  0
 10 26  1  0
 25 26  1  0
  7 27  1  0
  4 28  1  0
 27 28  1  0
M  END
