piperidine-amides-8083-covalent
     RDKit          3D

 26 28  0  0  0  0  0  0  0  0999 V2000
    7.0700   -3.3320   19.3260 C   0  0  0  0  0  0  0  0  0  0  0  0
    6.4090   -4.1870   20.3090 C   0  0  0  0  0  0  0  0  0  0  0  0
    5.3640   -4.7700   19.9630 O   0  0  0  0  0  0  0  0  0  0  0  0
    6.9790   -4.3880   21.5890 N   0  0  0  0  0  0  0  0  0  0  0  0
    7.6740   -3.3000   22.2180 C   0  0  0  0  0  0  0  0  0  0  0  0
    6.7970   -2.7200   23.2780 C   0  0  0  0  0  0  0  0  0  0  0  0
    6.4860   -3.8340   24.2450 C   0  0  0  0  0  0  0  0  0  0  0  0
    5.7430   -3.2840   25.4190 C   0  0  0  0  0  0  0  0  0  0  0  0
    4.5290   -3.1510   25.2770 O   0  0  0  0  0  0  0  0  0  0  0  0
    6.4590   -2.9630   26.5650 N   0  0  0  0  0  0  0  0  0  0  0  0
    6.4150   -1.6640   27.1470 C   0  0  0  0  0  0  0  0  0  0  0  0
    5.8280   -0.5160   26.5990 C   0  0  0  0  0  0  0  0  0  0  0  0
    5.8130    0.7150   27.2170 C   0  0  0  0  0  0  0  0  0  0  0  0
    6.3750    0.9810   28.4590 C   0  0  0  0  0  0  0  0  0  0  0  0
    7.0130   -0.2240   29.0780 C   0  0  0  0  0  0  0  0  0  0  0  0
    7.5710    0.0570   30.3040 O   0  0  0  0  0  0  0  0  0  0  0  0
    6.9780    1.1970   30.8670 C   0  0  0  0  0  0  0  0  0  0  0  0
    5.5210    1.1410   31.1750 C   0  0  0  0  0  0  0  0  0  0  0  0
    5.3080   -0.1950   31.8370 C   0  0  0  0  0  0  0  0  0  0  0  0
    4.6630    0.0190   33.2310 C   0  0  0  0  0  0  0  0  0  0  0  0
    5.0440    1.2010   33.7770 O   0  0  0  0  0  0  0  0  0  0  0  0
    5.5090    2.2880   33.0580 C   0  0  0  0  0  0  0  0  0  0  0  0
    4.9350    2.2460   31.8030 C   0  0  0  0  0  0  0  0  0  0  0  0
    7.0400   -1.4660   28.4780 C   0  0  0  0  0  0  0  0  0  0  0  0
    5.6820   -4.9240   23.5150 C   0  0  0  0  0  0  0  0  0  0  0  0
    6.5610   -5.4740   22.4130 C   0  0  0  0  0  0  0  0  0  0  0  0
  1  2  1  0
  2  3  2  0
  2  4  1  0
  4  5  1  0
  5  6  1  0
  6  7  1  0
  7  8  1  0
  8  9  2  0
  8 10  1  0
 10 11  1  0
 11 12  2  0
 12 13  1  0
 13 14  2  0
 14 15  1  0
 15 16  1  0
 16 17  1  0
 17 18  1  0
 18 19  1  0
 19 20  1  0
 20 21  1  0
 21 22  1  0
 18 23  1  0
 22 23  1  0
 11 24  1  0
 15 24  2  0
  7 25  1  0
  4 26  1  0
 25 26  1  0
M  END
