piperidine-amides-2120-covalent
     RDKit          3D

 23 25  0  0  0  0  0  0  0  0999 V2000
    7.0590   -3.3050   19.2300 C   0  0  0  0  0  0  0  0  0  0  0  0
    6.3150   -4.1240   20.2240 C   0  0  0  0  0  0  0  0  0  0  0  0
    5.2390   -4.5860   19.8780 O   0  0  0  0  0  0  0  0  0  0  0  0
    6.8700   -4.3840   21.4720 N   0  0  0  0  0  0  0  0  0  0  0  0
    7.5860   -3.3500   22.1460 C   0  0  0  0  0  0  0  0  0  0  0  0
    6.6690   -2.8250   23.1930 C   0  0  0  0  0  0  0  0  0  0  0  0
    6.3930   -3.9580   24.1680 C   0  0  0  0  0  0  0  0  0  0  0  0
    5.7210   -3.3640   25.3410 C   0  0  0  0  0  0  0  0  0  0  0  0
    4.4980   -3.5210   25.4940 O   0  0  0  0  0  0  0  0  0  0  0  0
    6.4570   -2.6100   26.2830 N   0  0  0  0  0  0  0  0  0  0  0  0
    7.8900   -2.7770   26.3340 C   0  0  0  0  0  0  0  0  0  0  0  0
    8.5230   -1.6640   25.4810 C   0  0  1  0  0  0  0  0  0  0  0  0
    8.4880   -0.3210   25.6860 C   0  0  0  0  0  0  0  0  0  0  0  0
    7.8200   -0.8410   24.6520 C   0  0  0  0  0  0  0  0  0  0  0  0
    8.4450   -1.8030   23.9160 C   0  0  1  0  0  0  0  0  0  0  0  0
    9.6440   -2.5050   24.4840 C   0  0  0  0  0  0  0  0  0  0  0  0
    9.1400   -3.6160   25.3650 C   0  0  0  0  0  0  0  0  0  0  0  0
   10.1570   -4.4790   26.0760 C   0  0  0  0  0  0  0  0  0  0  0  0
   11.5770   -4.1370   25.8250 C   0  0  0  0  0  0  0  0  0  0  0  0
   12.0230   -3.0350   24.9360 C   0  0  0  0  0  0  0  0  0  0  0  0
   11.0710   -2.1510   24.2140 C   0  0  0  0  0  0  0  0  0  0  0  0
    5.5520   -4.9870   23.4490 C   0  0  0  0  0  0  0  0  0  0  0  0
    6.3840   -5.4900   22.2850 C   0  0  0  0  0  0  0  0  0  0  0  0
  1  2  1  0
  2  3  2  0
  2  4  1  0
  4  5  1  0
  5  6  1  0
  6  7  1  0
  7  8  1  0
  8  9  2  0
  8 10  1  0
 10 11  1  0
 12 11  1  0
 12 13  1  1
 12 14  1  0
 12 15  1  0
 14 15  1  0
 15 16  1  6
 16 17  2  0
 17 18  1  0
 18 19  2  0
 19 20  1  0
 16 21  1  0
 20 21  2  0
  7 22  1  0
  4 23  1  0
 22 23  1  0
M  END
