piperidine-amides-14726-covalent
     RDKit          3D

 22 23  0  0  0  0  0  0  0  0999 V2000
    7.1060   -3.2630   19.2410 C   0  0  0  0  0  0  0  0  0  0  0  0
    6.3770   -4.0470   20.2370 C   0  0  0  0  0  0  0  0  0  0  0  0
    5.2990   -4.5620   19.8930 O   0  0  0  0  0  0  0  0  0  0  0  0
    6.9160   -4.2600   21.5320 N   0  0  0  0  0  0  0  0  0  0  0  0
    6.5670   -5.4650   22.2250 C   0  0  0  0  0  0  0  0  0  0  0  0
    5.8590   -5.0960   23.4880 C   0  0  0  0  0  0  0  0  0  0  0  0
    6.7080   -4.0360   24.1460 C   0  0  0  0  0  0  0  0  0  0  0  0
    6.0430   -3.5580   25.3870 C   0  0  0  0  0  0  0  0  0  0  0  0
    4.9350   -3.0340   25.2560 O   0  0  0  0  0  0  0  0  0  0  0  0
    6.7250   -3.7400   26.5800 N   0  0  0  0  0  0  0  0  0  0  0  0
    6.3110   -4.7080   27.5300 C   0  0  0  0  0  0  0  0  0  0  0  0
    5.6640   -5.8380   27.0490 C   0  0  0  0  0  0  0  0  0  0  0  0
    7.4270   -5.2210   28.3460 C   0  0  0  0  0  0  0  0  0  0  0  0
    5.4470   -3.9170   28.4630 C   0  0  0  0  0  0  0  0  0  0  0  0
    4.2040   -4.5610   28.9370 C   0  0  0  0  0  0  0  0  0  0  0  0
    3.2050   -3.8840   29.8890 C   0  0  0  0  0  0  0  0  0  0  0  0
    3.5260   -2.4950   30.3510 C   0  0  0  0  0  0  0  0  0  0  0  0
    4.8070   -1.8290   29.8650 C   0  0  0  0  0  0  0  0  0  0  0  0
    5.1190   -0.5480   30.2790 F   0  0  0  0  0  0  0  0  0  0  0  0
    5.7260   -2.6340   28.9030 C   0  0  0  0  0  0  0  0  0  0  0  0
    6.8090   -2.8380   23.2320 C   0  0  0  0  0  0  0  0  0  0  0  0
    7.6580   -3.2370   22.2340 C   0  0  0  0  0  0  0  0  0  0  0  0
  1  2  1  0
  2  3  2  0
  2  4  1  0
  4  5  1  0
  5  6  1  0
  6  7  1  0
  7  8  1  0
  8  9  2  0
  8 10  1  0
 11 10  1  0
 11 12  1  0
 11 13  1  0
 11 14  1  0
 14 15  2  0
 15 16  1  0
 16 17  2  0
 17 18  1  0
 18 19  1  0
 14 20  1  0
 18 20  2  0
  7 21  1  0
  4 22  1  0
 21 22  1  0
M  END
