piperidine-amides-11238-covalent
     RDKit          3D

 19 20  0  0  0  0  0  0  0  0999 V2000
    7.1410   -3.2740   19.1780 C   0  0  0  0  0  0  0  0  0  0  0  0
    6.3770   -4.0040   20.1880 C   0  0  0  0  0  0  0  0  0  0  0  0
    5.2980   -4.5320   19.8800 O   0  0  0  0  0  0  0  0  0  0  0  0
    6.8760   -4.1600   21.4870 N   0  0  0  0  0  0  0  0  0  0  0  0
    7.7460   -3.1830   22.0970 C   0  0  0  0  0  0  0  0  0  0  0  0
    6.9960   -2.6880   23.2930 C   0  0  0  0  0  0  0  0  0  0  0  0
    6.5500   -3.8250   24.1590 C   0  0  0  0  0  0  0  0  0  0  0  0
    5.8030   -3.3560   25.3390 C   0  0  0  0  0  0  0  0  0  0  0  0
    4.5680   -3.0840   25.2620 O   0  0  0  0  0  0  0  0  0  0  0  0
    6.4280   -3.1830   26.5870 N   0  0  0  0  0  0  0  0  0  0  0  0
    5.8490   -3.7260   27.8290 C   0  0  0  0  0  0  0  0  0  0  0  0
    5.9290   -5.2100   27.8690 C   0  0  1  0  0  0  0  0  0  0  0  0
    6.5630   -5.7310   29.0820 C   0  0  0  0  0  0  0  0  0  0  0  0
    6.9150   -6.9100   28.9640 O   0  0  0  0  0  0  0  0  0  0  0  0
    4.5760   -5.8810   27.9090 C   0  0  0  0  0  0  0  0  0  0  0  0
    3.6070   -5.3190   28.7240 C   0  0  0  0  0  0  0  0  0  0  0  0
    3.3770   -5.1460   27.1930 C   0  0  0  0  0  0  0  0  0  0  0  0
    5.7400   -4.8190   23.3520 C   0  0  0  0  0  0  0  0  0  0  0  0
    6.4590   -5.3030   22.2540 C   0  0  0  0  0  0  0  0  0  0  0  0
  1  2  1  0
  2  3  2  0
  2  4  1  0
  4  5  1  0
  5  6  1  0
  6  7  1  0
  7  8  1  0
  8  9  2  0
  8 10  1  0
 10 11  1  0
 12 11  1  1
 12 13  1  0
 13 14  1  0
 12 15  1  0
 15 16  1  0
 15 17  1  0
 16 17  1  0
  7 18  1  0
  4 19  1  0
 18 19  1  0
M  END
