piperidine-amides-27051-covalent
     RDKit          3D

 25 27  0  0  0  0  0  0  0  0999 V2000
    7.0570   -3.3330   19.3180 C   0  0  0  0  0  0  0  0  0  0  0  0
    6.3920   -4.1720   20.3190 C   0  0  0  0  0  0  0  0  0  0  0  0
    5.3420   -4.7590   19.9550 O   0  0  0  0  0  0  0  0  0  0  0  0
    6.9420   -4.3450   21.5890 N   0  0  0  0  0  0  0  0  0  0  0  0
    6.6980   -5.5640   22.3290 C   0  0  0  0  0  0  0  0  0  0  0  0
    6.0420   -5.2010   23.6300 C   0  0  0  0  0  0  0  0  0  0  0  0
    6.7730   -4.0860   24.3290 C   0  0  0  0  0  0  0  0  0  0  0  0
    5.9540   -3.6040   25.4570 C   0  0  0  0  0  0  0  0  0  0  0  0
    4.8860   -3.0140   25.1800 O   0  0  0  0  0  0  0  0  0  0  0  0
    6.2830   -3.7780   26.8180 N   0  0  0  0  0  0  0  0  0  0  0  0
    7.0570   -4.9230   27.2270 C   0  0  0  0  0  0  0  0  0  0  0  0
    6.1760   -5.9580   27.8360 C   0  0  0  0  0  0  0  0  0  0  0  0
    5.2720   -5.5090   28.5630 O   0  0  0  0  0  0  0  0  0  0  0  0
    5.5400   -4.1850   28.8410 C   0  0  0  0  0  0  0  0  0  0  0  0
    5.3780   -3.2680   27.8150 C   0  0  1  0  0  0  0  0  0  0  0  0
    5.5870   -1.9190   28.0800 C   0  0  0  0  0  0  0  0  0  0  0  0
    5.6600   -0.9740   27.0590 C   0  0  0  0  0  0  0  0  0  0  0  0
    5.8580    0.3860   27.2990 C   0  0  0  0  0  0  0  0  0  0  0  0
    5.9140    1.2560   26.2850 F   0  0  0  0  0  0  0  0  0  0  0  0
    6.0180    0.9770   28.6900 C   0  0  0  0  0  0  0  0  0  0  0  0
    5.9340   -0.0930   29.7620 C   0  0  0  0  0  0  0  0  0  0  0  0
    6.0750    0.4280   31.0530 F   0  0  0  0  0  0  0  0  0  0  0  0
    5.7160   -1.5210   29.3840 C   0  0  0  0  0  0  0  0  0  0  0  0
    6.9570   -2.9370   23.3790 C   0  0  0  0  0  0  0  0  0  0  0  0
    7.6940   -3.2880   22.2790 C   0  0  0  0  0  0  0  0  0  0  0  0
  1  2  1  0
  2  3  2  0
  2  4  1  0
  4  5  1  0
  5  6  1  0
  6  7  1  0
  7  8  1  0
  8  9  2  0
  8 10  1  0
 10 11  1  0
 11 12  1  0
 12 13  1  0
 13 14  1  0
 10 15  1  0
 14 15  1  0
 15 16  1  1
 16 17  2  0
 17 18  1  0
 18 19  1  0
 18 20  2  0
 20 21  1  0
 21 22  1  0
 16 23  1  0
 21 23  2  0
  7 24  1  0
  4 25  1  0
 24 25  1  0
M  END
