piperidine-amides-19209-covalent
     RDKit          3D

 22 24  0  0  0  0  0  0  0  0999 V2000
    7.0450   -3.4060   19.3510 C   0  0  0  0  0  0  0  0  0  0  0  0
    6.3970   -4.2120   20.3610 C   0  0  0  0  0  0  0  0  0  0  0  0
    5.3710   -4.8620   19.9920 O   0  0  0  0  0  0  0  0  0  0  0  0
    6.8740   -4.3610   21.6860 N   0  0  0  0  0  0  0  0  0  0  0  0
    6.4180   -5.5410   22.4460 C   0  0  0  0  0  0  0  0  0  0  0  0
    5.4110   -4.8150   23.4180 C   0  0  0  0  0  0  0  0  0  0  0  0
    6.2690   -3.8960   24.2550 C   0  0  0  0  0  0  0  0  0  0  0  0
    5.4730   -3.2120   25.4710 C   0  0  0  0  0  0  0  0  0  0  0  0
    4.7250   -2.3420   25.0570 O   0  0  0  0  0  0  0  0  0  0  0  0
    5.8180   -3.7630   26.5650 N   0  0  0  0  0  0  0  0  0  0  0  0
    6.4120   -4.5400   27.4480 C   0  0  0  0  0  0  0  0  0  0  0  0
    5.9650   -5.0840   28.5130 C   0  0  0  0  0  0  0  0  0  0  0  0
    6.4330   -6.3610   29.3820 C   0  0  0  0  0  0  0  0  0  0  0  0
    5.7300   -6.9630   30.7360 C   0  0  0  0  0  0  0  0  0  0  0  0
    4.9790   -5.8860   30.3620 C   0  0  0  0  0  0  0  0  0  0  0  0
    3.8320   -5.1720   30.7550 C   0  0  0  0  0  0  0  0  0  0  0  0
    3.1200   -5.7500   31.6050 O   0  0  0  0  0  0  0  0  0  0  0  0
    5.6220   -5.4230   29.2460 C   0  0  0  0  0  0  0  0  0  0  0  0
    4.7370   -4.3770   29.0410 C   0  0  0  0  0  0  0  0  0  0  0  0
    5.0070   -3.4580   27.7490 C   0  0  0  0  0  0  0  0  0  0  0  0
    6.9750   -2.8370   23.3820 C   0  0  0  0  0  0  0  0  0  0  0  0
    7.7220   -3.3970   22.3740 C   0  0  0  0  0  0  0  0  0  0  0  0
  1  2  1  0
  2  3  2  0
  2  4  1  0
  4  5  1  0
  5  6  1  0
  6  7  1  0
  7  8  1  0
  8  9  2  0
  8 10  1  0
 10 11  1  0
 11 12  1  0
 12 13  1  0
 13 14  2  0
 14 15  1  0
 15 16  1  0
 16 17  1  0
 15 18  2  0
 12 19  2  0
 18 19  1  0
 10 20  1  0
 19 20  1  0
  7 21  1  0
  4 22  1  0
 21 22  1  0
M  END
