piperidine-amides-11901-covalent
     RDKit          3D

 26 28  0  0  0  0  0  0  0  0999 V2000
    7.0750   -3.2720   19.1820 C   0  0  0  0  0  0  0  0  0  0  0  0
    6.3170   -4.0040   20.1940 C   0  0  0  0  0  0  0  0  0  0  0  0
    5.2690   -4.5660   19.8880 O   0  0  0  0  0  0  0  0  0  0  0  0
    6.8070   -4.1120   21.5370 N   0  0  0  0  0  0  0  0  0  0  0  0
    6.6520   -5.3590   22.2480 C   0  0  0  0  0  0  0  0  0  0  0  0
    5.9860   -5.1250   23.5750 C   0  0  0  0  0  0  0  0  0  0  0  0
    6.1350   -3.6550   23.9260 C   0  0  0  0  0  0  0  0  0  0  0  0
    5.9120   -3.4540   25.3770 C   0  0  0  0  0  0  0  0  0  0  0  0
    4.7760   -3.5370   25.8850 O   0  0  0  0  0  0  0  0  0  0  0  0
    7.0360   -3.1500   26.1900 N   0  0  0  0  0  0  0  0  0  0  0  0
    6.8140   -2.9450   27.6010 C   0  0  0  0  0  0  0  0  0  0  0  0
    7.1010   -1.4900   27.9550 C   0  0  0  0  0  0  0  0  0  0  0  0
    6.8120   -0.5470   26.9670 C   0  0  0  0  0  0  0  0  0  0  0  0
    5.9990   -0.8790   25.8450 C   0  0  0  0  0  0  0  0  0  0  0  0
    5.7200    0.0650   24.8670 C   0  0  0  0  0  0  0  0  0  0  0  0
    6.2650    1.3860   25.0060 C   0  0  0  0  0  0  0  0  0  0  0  0
    5.9400    2.2470   23.9970 F   0  0  0  0  0  0  0  0  0  0  0  0
    7.0330    1.7280   26.0590 C   0  0  0  0  0  0  0  0  0  0  0  0
    7.2890    0.7700   27.0080 C   0  0  0  0  0  0  0  0  0  0  0  0
    8.0770    1.2140   28.0430 F   0  0  0  0  0  0  0  0  0  0  0  0
    8.4410   -1.3330   28.3500 C   0  0  0  0  0  0  0  0  0  0  0  0
    8.4300   -0.5040   29.5420 C   0  0  0  0  0  0  0  0  0  0  0  0
    7.1870   -0.3450   30.0210 C   0  0  0  0  0  0  0  0  0  0  0  0
    6.4340   -1.0980   29.1370 C   0  0  0  0  0  0  0  0  0  0  0  0
    7.5140   -3.1520   23.5960 C   0  0  0  0  0  0  0  0  0  0  0  0
    7.6810   -3.1000   22.0820 C   0  0  0  0  0  0  0  0  0  0  0  0
  1  2  1  0
  2  3  2  0
  2  4  1  0
  4  5  1  0
  5  6  1  0
  6  7  1  0
  7  8  1  0
  8  9  2  0
  8 10  1  0
 10 11  1  0
 12 11  1  0
 12 13  1  0
 13 14  2  0
 14 15  1  0
 15 16  2  0
 16 17  1  0
 16 18  1  0
 13 19  1  0
 18 19  2  0
 19 20  1  0
 12 21  1  0
 21 22  1  0
 22 23  1  0
 12 24  1  0
 23 24  1  0
  7 25  1  0
  4 26  1  0
 25 26  1  0
M  END
