piperidine-amides-4295-covalent
     RDKit          3D

 26 27  0  0  0  0  0  0  0  0999 V2000
    7.1540   -3.2680   19.1830 C   0  0  0  0  0  0  0  0  0  0  0  0
    6.4100   -4.0130   20.2070 C   0  0  0  0  0  0  0  0  0  0  0  0
    5.3050   -4.5100   19.8750 O   0  0  0  0  0  0  0  0  0  0  0  0
    6.9660   -4.2060   21.4920 N   0  0  0  0  0  0  0  0  0  0  0  0
    6.5570   -5.3510   22.2300 C   0  0  0  0  0  0  0  0  0  0  0  0
    5.9150   -4.9690   23.4660 C   0  0  0  0  0  0  0  0  0  0  0  0
    6.1250   -3.5440   23.7440 C   0  0  0  0  0  0  0  0  0  0  0  0
    5.6470   -3.1710   25.0990 C   0  0  0  0  0  0  0  0  0  0  0  0
    4.6840   -2.3910   25.2210 O   0  0  0  0  0  0  0  0  0  0  0  0
    6.2480   -3.6980   26.2350 N   0  0  0  0  0  0  0  0  0  0  0  0
    5.5830   -4.2480   27.3350 C   0  0  2  0  0  0  0  0  0  0  0  0
    5.5760   -3.5630   28.5760 C   0  0  0  0  0  0  0  0  0  0  0  0
    6.6190   -3.5730   29.2640 O   0  0  0  0  0  0  0  0  0  0  0  0
    4.4820   -2.8790   29.0740 O   0  0  0  0  0  0  0  0  0  0  0  0
    3.1860   -3.4610   29.1160 C   0  0  0  0  0  0  0  0  0  0  0  0
    2.2390   -2.9340   28.2610 C   0  0  0  0  0  0  0  0  0  0  0  0
    6.1550   -5.5880   27.8030 C   0  0  2  0  0  0  0  0  0  0  0  0
    6.5410   -6.4500   26.8330 O   0  0  0  0  0  0  0  0  0  0  0  0
    5.0920   -6.3790   28.4930 C   0  0  0  0  0  0  0  0  0  0  0  0
    5.4680   -6.7600   29.8990 C   0  0  0  0  0  0  0  0  0  0  0  0
    4.5360   -7.5380   30.7390 C   0  0  0  0  0  0  0  0  0  0  0  0
    3.2750   -7.9490   30.2590 N   0  0  0  0  0  0  0  0  0  0  0  0
    2.9330   -7.6120   28.9850 C   0  0  0  0  0  0  0  0  0  0  0  0
    3.7310   -6.8010   27.9000 C   0  0  0  0  0  0  0  0  0  0  0  0
    7.5600   -3.2030   23.5160 C   0  0  0  0  0  0  0  0  0  0  0  0
    7.7230   -3.1350   22.1290 C   0  0  0  0  0  0  0  0  0  0  0  0
  1  2  1  0
  2  3  2  0
  2  4  1  0
  4  5  1  0
  5  6  1  0
  6  7  1  0
  7  8  1  0
  8  9  2  0
  8 10  1  0
 11 10  1  6
 11 12  1  0
 12 13  2  0
 12 14  1  0
 14 15  1  0
 15 16  1  0
 11 17  1  0
 17 18  1  6
 17 19  1  0
 19 20  2  0
 20 21  1  0
 21 22  2  0
 22 23  1  0
 19 24  1  0
 23 24  2  0
  7 25  1  0
  4 26  1  0
 25 26  1  0
M  END
