piperidine-amides-30527-covalent
     RDKit          3D

 26 28  0  0  0  0  0  0  0  0999 V2000
    7.1520   -3.3600   19.2850 C   0  0  0  0  0  0  0  0  0  0  0  0
    6.4220   -4.1370   20.2750 C   0  0  0  0  0  0  0  0  0  0  0  0
    5.3630   -4.7030   19.9540 O   0  0  0  0  0  0  0  0  0  0  0  0
    6.9610   -4.2930   21.5580 N   0  0  0  0  0  0  0  0  0  0  0  0
    7.7700   -3.2650   22.1460 C   0  0  0  0  0  0  0  0  0  0  0  0
    6.9080   -2.7430   23.2420 C   0  0  0  0  0  0  0  0  0  0  0  0
    6.5580   -3.8230   24.2240 C   0  0  0  0  0  0  0  0  0  0  0  0
    5.7980   -3.2370   25.3370 C   0  0  0  0  0  0  0  0  0  0  0  0
    4.6500   -2.7400   25.1340 O   0  0  0  0  0  0  0  0  0  0  0  0
    6.2740   -3.2060   26.6530 N   0  0  0  0  0  0  0  0  0  0  0  0
    6.3610   -1.8700   27.3050 C   0  0  0  0  0  0  0  0  0  0  0  0
    6.9760   -1.7540   28.6220 C   0  0  0  0  0  0  0  0  0  0  0  0
    7.0580   -0.4600   29.2860 C   0  0  0  0  0  0  0  0  0  0  0  0
    6.5160    0.7980   28.6460 C   0  0  0  0  0  0  0  0  0  0  0  0
    6.6820    2.3020   29.5800 Cl  0  0  0  0  0  0  0  0  0  0  0  0
    5.8720    0.6970   27.2620 C   0  0  0  0  0  0  0  0  0  0  0  0
    5.8250   -0.6620   26.6420 C   0  0  0  0  0  0  0  0  0  0  0  0
    5.9180   -4.3610   27.4310 C   0  0  0  0  0  0  0  0  0  0  0  0
    6.8350   -5.3450   27.8320 C   0  0  0  0  0  0  0  0  0  0  0  0
    7.6930   -5.8040   26.8320 O   0  0  0  0  0  0  0  0  0  0  0  0
    6.8190   -5.8010   29.1500 O   0  0  0  0  0  0  0  0  0  0  0  0
    5.9800   -6.8730   29.5020 C   0  0  0  0  0  0  0  0  0  0  0  0
    4.3730   -4.7000   27.6420 C   0  0  0  0  0  0  0  0  0  0  0  0
    5.0730   -4.0510   28.6070 C   0  0  0  0  0  0  0  0  0  0  0  0
    5.8020   -4.9390   23.5500 C   0  0  0  0  0  0  0  0  0  0  0  0
    6.5060   -5.4020   22.3260 C   0  0  0  0  0  0  0  0  0  0  0  0
  1  2  1  0
  2  3  2  0
  2  4  1  0
  4  5  1  0
  5  6  1  0
  6  7  1  0
  7  8  1  0
  8  9  2  0
  8 10  1  0
 10 11  1  0
 11 12  2  0
 12 13  1  0
 13 14  2  0
 14 15  1  0
 14 16  1  0
 11 17  1  0
 16 17  2  0
 10 18  1  0
 18 19  1  0
 19 20  2  0
 19 21  1  0
 21 22  1  0
 18 23  1  0
 18 24  1  0
 23 24  1  0
  7 25  1  0
  4 26  1  0
 25 26  1  0
M  END
