piperidine-amides-30204-covalent
     RDKit          3D

 27 29  0  0  0  0  0  0  0  0999 V2000
    7.0130   -3.3640   19.3740 C   0  0  0  0  0  0  0  0  0  0  0  0
    6.3430   -4.2180   20.3550 C   0  0  0  0  0  0  0  0  0  0  0  0
    5.3800   -4.8940   19.9920 O   0  0  0  0  0  0  0  0  0  0  0  0
    6.8130   -4.3170   21.7170 N   0  0  0  0  0  0  0  0  0  0  0  0
    7.6900   -3.2930   22.2620 C   0  0  0  0  0  0  0  0  0  0  0  0
    7.4310   -3.0740   23.7270 C   0  0  0  0  0  0  0  0  0  0  0  0
    6.1240   -3.7670   24.0480 C   0  0  0  0  0  0  0  0  0  0  0  0
    5.5690   -3.4000   25.4020 C   0  0  0  0  0  0  0  0  0  0  0  0
    4.5960   -2.6290   25.4740 O   0  0  0  0  0  0  0  0  0  0  0  0
    6.0810   -3.8890   26.6440 N   0  0  0  0  0  0  0  0  0  0  0  0
    5.9160   -3.0300   27.8000 C   0  0  0  0  0  0  0  0  0  0  0  0
    5.3060   -3.8900   28.8740 C   0  0  0  0  0  0  0  0  0  0  0  0
    4.5380   -4.9420   28.5590 N   0  0  0  0  0  0  0  0  0  0  0  0
    4.3390   -5.7160   29.6320 C   0  0  0  0  0  0  0  0  0  0  0  0
    5.2980   -6.1330   30.5560 C   0  0  0  0  0  0  0  0  0  0  0  0
    5.0290   -6.9230   31.6540 C   0  0  0  0  0  0  0  0  0  0  0  0
    5.9420   -7.2320   32.4390 O   0  0  0  0  0  0  0  0  0  0  0  0
    5.8400   -8.0320   33.5610 C   0  0  0  0  0  0  0  0  0  0  0  0
    3.7590   -7.3660   31.8940 C   0  0  0  0  0  0  0  0  0  0  0  0
    2.7450   -7.0230   31.0440 C   0  0  0  0  0  0  0  0  0  0  0  0
    1.5670   -7.4140   31.2340 O   0  0  0  0  0  0  0  0  0  0  0  0
    1.4350   -8.6800   30.7200 C   0  0  0  0  0  0  0  0  0  0  0  0
    3.0790   -6.1790   29.9050 C   0  0  0  0  0  0  0  0  0  0  0  0
    5.0790   -5.7340   27.5410 C   0  0  0  0  0  0  0  0  0  0  0  0
    6.2480   -5.2830   27.0310 C   0  0  0  0  0  0  0  0  0  0  0  0
    6.2510   -5.2600   23.8750 C   0  0  0  0  0  0  0  0  0  0  0  0
    6.6910   -5.5700   22.4310 C   0  0  0  0  0  0  0  0  0  0  0  0
  1  2  1  0
  2  3  2  0
  2  4  1  0
  4  5  1  0
  5  6  1  0
  6  7  1  0
  7  8  1  0
  8  9  2  0
  8 10  1  0
 10 11  1  0
 11 12  1  0
 12 13  1  0
 13 14  1  0
 14 15  2  0
 15 16  1  0
 16 17  1  0
 17 18  1  0
 16 19  2  0
 19 20  1  0
 20 21  1  0
 21 22  1  0
 14 23  1  0
 20 23  2  0
 13 24  1  0
 10 25  1  0
 24 25  1  0
  7 26  1  0
  4 27  1  0
 26 27  1  0
M  END
