piperidine-amides-11551-covalent
     RDKit          3D

 23 24  0  0  0  0  0  0  0  0999 V2000
    7.1510   -3.2560   19.1950 C   0  0  0  0  0  0  0  0  0  0  0  0
    6.3650   -3.9940   20.1880 C   0  0  0  0  0  0  0  0  0  0  0  0
    5.2700   -4.4700   19.8550 O   0  0  0  0  0  0  0  0  0  0  0  0
    6.8400   -4.2430   21.4870 N   0  0  0  0  0  0  0  0  0  0  0  0
    6.5110   -5.4270   22.2180 C   0  0  0  0  0  0  0  0  0  0  0  0
    6.4840   -4.8780   23.6100 C   0  0  0  0  0  0  0  0  0  0  0  0
    6.0330   -3.4440   23.5880 C   0  0  0  0  0  0  0  0  0  0  0  0
    5.7080   -2.9060   24.9230 C   0  0  0  0  0  0  0  0  0  0  0  0
    4.6520   -2.2360   25.1070 O   0  0  0  0  0  0  0  0  0  0  0  0
    6.5110   -3.1240   26.0390 N   0  0  0  0  0  0  0  0  0  0  0  0
    6.0350   -4.1670   26.9400 C   0  0  1  0  0  0  0  0  0  0  0  0
    6.8490   -5.3760   26.7460 C   0  0  0  0  0  0  0  0  0  0  0  0
    7.4010   -5.5380   25.6310 O   0  0  0  0  0  0  0  0  0  0  0  0
    6.1180   -3.7380   28.3970 C   0  0  0  0  0  0  0  0  0  0  0  0
    5.5840   -4.9940   28.9950 C   0  0  0  0  0  0  0  0  0  0  0  0
    4.1740   -4.9970   29.5560 C   0  0  0  0  0  0  0  0  0  0  0  0
    3.6500   -6.2590   30.1510 C   0  0  0  0  0  0  0  0  0  0  0  0
    4.4820   -7.3560   30.1570 C   0  0  0  0  0  0  0  0  0  0  0  0
    5.7770   -7.3530   29.6390 C   0  0  0  0  0  0  0  0  0  0  0  0
    6.3360   -6.0940   29.0290 C   0  0  0  0  0  0  0  0  0  0  0  0
    7.7440   -6.0390   28.4410 C   0  0  0  0  0  0  0  0  0  0  0  0
    7.0490   -2.5580   22.8380 C   0  0  0  0  0  0  0  0  0  0  0  0
    7.7180   -3.2580   22.1210 C   0  0  0  0  0  0  0  0  0  0  0  0
  1  2  1  0
  2  3  2  0
  2  4  1  0
  4  5  1  0
  5  6  1  0
  6  7  1  0
  7  8  1  0
  8  9  2  0
  8 10  1  0
 10 11  1  0
 11 12  1  1
 12 13  1  0
 11 14  1  0
 14 15  1  0
 15 16  2  0
 16 17  1  0
 17 18  2  0
 18 19  1  0
 15 20  1  0
 19 20  2  0
 20 21  1  0
  7 22  1  0
  4 23  1  0
 22 23  1  0
M  END
