piperidine-amides-12169-covalent
     RDKit          3D

 25 27  0  0  0  0  0  0  0  0999 V2000
    7.0580   -3.3310   19.3600 C   0  0  0  0  0  0  0  0  0  0  0  0
    6.3670   -4.1690   20.3330 C   0  0  0  0  0  0  0  0  0  0  0  0
    5.3930   -4.8390   19.9830 O   0  0  0  0  0  0  0  0  0  0  0  0
    6.8470   -4.2500   21.6910 N   0  0  0  0  0  0  0  0  0  0  0  0
    6.6380   -5.4570   22.4480 C   0  0  0  0  0  0  0  0  0  0  0  0
    5.9930   -5.1210   23.7630 C   0  0  0  0  0  0  0  0  0  0  0  0
    6.0900   -3.6150   23.9250 C   0  0  0  0  0  0  0  0  0  0  0  0
    5.6280   -3.1830   25.2740 C   0  0  0  0  0  0  0  0  0  0  0  0
    4.4200   -3.1330   25.5740 O   0  0  0  0  0  0  0  0  0  0  0  0
    6.5920   -2.8250   26.2420 N   0  0  0  0  0  0  0  0  0  0  0  0
    6.4760   -1.5810   26.9780 C   0  0  0  0  0  0  0  0  0  0  0  0
    7.0130   -1.6430   28.3730 C   0  0  0  0  0  0  0  0  0  0  0  0
    6.9740   -0.5340   29.1950 C   0  0  0  0  0  0  0  0  0  0  0  0
    6.4260    0.6870   28.7430 C   0  0  0  0  0  0  0  0  0  0  0  0
    6.4020    1.7790   29.5870 C   0  0  0  0  0  0  0  0  0  0  0  0
    5.9240    0.7600   27.4520 C   0  0  0  0  0  0  0  0  0  0  0  0
    5.4480    1.9910   27.1910 N   0  0  0  0  0  0  0  0  0  0  0  0
    6.0310    3.0060   26.3840 C   0  0  0  0  0  0  0  0  0  0  0  0
    4.9400    3.6190   25.7500 C   0  0  0  0  0  0  0  0  0  0  0  0
    3.7520    2.9820   26.1830 O   0  0  0  0  0  0  0  0  0  0  0  0
    4.1330    1.9820   27.0780 C   0  0  0  0  0  0  0  0  0  0  0  0
    3.2320    1.1460   27.7140 O   0  0  0  0  0  0  0  0  0  0  0  0
    5.9440   -0.3590   26.5660 C   0  0  0  0  0  0  0  0  0  0  0  0
    7.4780   -3.1070   23.6010 C   0  0  0  0  0  0  0  0  0  0  0  0
    7.6910   -3.2030   22.2240 C   0  0  0  0  0  0  0  0  0  0  0  0
  1  2  1  0
  2  3  2  0
  2  4  1  0
  4  5  1  0
  5  6  1  0
  6  7  1  0
  7  8  1  0
  8  9  2  0
  8 10  1  0
 10 11  1  0
 11 12  2  0
 12 13  1  0
 13 14  2  0
 14 15  1  0
 14 16  1  0
 16 17  1  0
 17 18  1  0
 18 19  1  0
 19 20  1  0
 17 21  1  0
 20 21  1  0
 21 22  2  0
 11 23  1  0
 16 23  2  0
  7 24  1  0
  4 25  1  0
 24 25  1  0
M  END
