piperidine-amides-24932-covalent
     RDKit          3D

 20 21  0  0  0  0  0  0  0  0999 V2000
    7.0770   -3.3050   19.2920 C   0  0  0  0  0  0  0  0  0  0  0  0
    6.3870   -4.1430   20.2840 C   0  0  0  0  0  0  0  0  0  0  0  0
    5.3700   -4.7950   19.9650 O   0  0  0  0  0  0  0  0  0  0  0  0
    6.8860   -4.2520   21.5850 N   0  0  0  0  0  0  0  0  0  0  0  0
    6.5790   -5.4300   22.3600 C   0  0  0  0  0  0  0  0  0  0  0  0
    5.8010   -4.9350   23.5850 C   0  0  0  0  0  0  0  0  0  0  0  0
    6.6790   -3.8860   24.2360 C   0  0  0  0  0  0  0  0  0  0  0  0
    6.0450   -3.3770   25.4560 C   0  0  0  0  0  0  0  0  0  0  0  0
    4.8000   -3.2340   25.4850 O   0  0  0  0  0  0  0  0  0  0  0  0
    6.8840   -3.0630   26.5460 N   0  0  0  0  0  0  0  0  0  0  0  0
    7.6850   -4.0930   27.1570 C   0  0  0  0  0  0  0  0  0  0  0  0
    6.7130   -1.8060   27.2510 C   0  0  0  0  0  0  0  0  0  0  0  0
    5.9760   -0.7690   26.6810 C   0  0  0  0  0  0  0  0  0  0  0  0
    5.7800    0.4540   27.3270 C   0  0  0  0  0  0  0  0  0  0  0  0
    6.3060    0.7290   28.5910 C   0  0  0  0  0  0  0  0  0  0  0  0
    5.9810    2.4280   29.3950 Br  0  0  0  0  0  0  0  0  0  0  0  0
    7.0370   -0.2370   29.2020 C   0  0  0  0  0  0  0  0  0  0  0  0
    7.3140   -1.5740   28.6080 C   0  0  0  0  0  0  0  0  0  0  0  0
    7.0170   -2.7580   23.3280 C   0  0  0  0  0  0  0  0  0  0  0  0
    7.7760   -3.2570   22.1580 C   0  0  0  0  0  0  0  0  0  0  0  0
  1  2  1  0
  2  3  2  0
  2  4  1  0
  4  5  1  0
  5  6  1  0
  6  7  1  0
  7  8  1  0
  8  9  2  0
  8 10  1  0
 10 11  1  0
 10 12  1  0
 12 13  2  0
 13 14  1  0
 14 15  2  0
 15 16  1  0
 15 17  1  0
 12 18  1  0
 17 18  2  0
  7 19  1  0
  4 20  1  0
 19 20  1  0
M  END
