piperidine-amides-8304-covalent
     RDKit          3D

 24 26  0  0  0  0  0  0  0  0999 V2000
    7.0490   -3.3670   19.3730 C   0  0  0  0  0  0  0  0  0  0  0  0
    6.3450   -4.1740   20.3670 C   0  0  0  0  0  0  0  0  0  0  0  0
    5.3800   -4.8560   19.9810 O   0  0  0  0  0  0  0  0  0  0  0  0
    6.7840   -4.2000   21.7160 N   0  0  0  0  0  0  0  0  0  0  0  0
    7.7090   -3.1990   22.1670 C   0  0  0  0  0  0  0  0  0  0  0  0
    7.5650   -3.0640   23.6420 C   0  0  0  0  0  0  0  0  0  0  0  0
    6.1670   -3.5610   23.9140 C   0  0  0  0  0  0  0  0  0  0  0  0
    5.7360   -3.2420   25.3110 C   0  0  0  0  0  0  0  0  0  0  0  0
    4.6010   -3.6030   25.6230 O   0  0  0  0  0  0  0  0  0  0  0  0
    6.6150   -2.5560   26.1460 N   0  0  0  0  0  0  0  0  0  0  0  0
    6.1540   -1.7080   27.1980 C   0  0  0  0  0  0  0  0  0  0  0  0
    7.0720   -1.4720   28.2200 C   0  0  0  0  0  0  0  0  0  0  0  0
    6.6900   -0.6870   29.2800 C   0  0  0  0  0  0  0  0  0  0  0  0
    6.2510    0.6620   29.0300 N   0  0  0  0  0  0  0  0  0  0  0  0
    5.4220    1.1120   30.0780 C   0  0  0  0  0  0  0  0  0  0  0  0
    5.2180    0.5070   31.3600 C   0  0  0  0  0  0  0  0  0  0  0  0
    4.2440    1.4800   31.9590 C   0  0  0  0  0  0  0  0  0  0  0  0
    3.7070    1.2920   33.3290 C   0  0  0  0  0  0  0  0  0  0  0  0
    3.9930    2.4720   31.0530 N   0  0  0  0  0  0  0  0  0  0  0  0
    4.7200    2.2470   29.8890 N   0  0  0  0  0  0  0  0  0  0  0  0
    5.9050    0.8140   27.6250 C   0  0  0  0  0  0  0  0  0  0  0  0
    5.8070   -0.3840   26.6590 C   0  0  0  0  0  0  0  0  0  0  0  0
    6.1150   -5.0650   23.7370 C   0  0  0  0  0  0  0  0  0  0  0  0
    6.6430   -5.4080   22.5000 C   0  0  0  0  0  0  0  0  0  0  0  0
  1  2  1  0
  2  3  2  0
  2  4  1  0
  4  5  1  0
  5  6  1  0
  6  7  1  0
  7  8  1  0
  8  9  2  0
  8 10  1  0
 10 11  1  0
 11 12  1  0
 12 13  1  0
 13 14  1  0
 14 15  1  0
 15 16  2  0
 16 17  1  0
 17 18  1  0
 17 19  2  0
 15 20  1  0
 19 20  1  0
 14 21  1  0
 11 22  1  0
 21 22  1  0
  7 23  1  0
  4 24  1  0
 23 24  1  0
M  END
