piperidine-amides-8798-covalent
     RDKit          3D

 22 23  0  0  0  0  0  0  0  0999 V2000
    7.0890   -3.3070   19.3350 C   0  0  0  0  0  0  0  0  0  0  0  0
    6.3370   -4.0750   20.3270 C   0  0  0  0  0  0  0  0  0  0  0  0
    5.3240   -4.6830   19.9360 O   0  0  0  0  0  0  0  0  0  0  0  0
    6.7750   -4.1540   21.6780 N   0  0  0  0  0  0  0  0  0  0  0  0
    7.6830   -3.1550   22.1960 C   0  0  0  0  0  0  0  0  0  0  0  0
    7.3640   -2.8830   23.6350 C   0  0  0  0  0  0  0  0  0  0  0  0
    6.0450   -3.5800   23.8630 C   0  0  0  0  0  0  0  0  0  0  0  0
    5.5060   -3.3130   25.2410 C   0  0  0  0  0  0  0  0  0  0  0  0
    4.3170   -3.0080   25.2970 O   0  0  0  0  0  0  0  0  0  0  0  0
    6.3430   -3.4130   26.3430 N   0  0  0  0  0  0  0  0  0  0  0  0
    5.9980   -4.1400   27.5330 C   0  0  0  0  0  0  0  0  0  0  0  0
    5.6740   -5.5070   27.3560 C   0  0  2  0  0  0  0  0  0  0  0  0
    4.8000   -5.7650   26.5090 O   0  0  0  0  0  0  0  0  0  0  0  0
    5.1830   -6.1500   28.4630 C   0  0  0  0  0  0  0  0  0  0  0  0
    5.8080   -5.9580   29.6910 C   0  0  0  0  0  0  0  0  0  0  0  0
    5.2620   -6.6610   30.9000 C   0  0  0  0  0  0  0  0  0  0  0  0
    4.0420   -7.5850   30.8490 C   0  0  0  0  0  0  0  0  0  0  0  0
    3.6100   -8.1820   32.0110 F   0  0  0  0  0  0  0  0  0  0  0  0
    3.4390   -7.7440   29.5200 C   0  0  0  0  0  0  0  0  0  0  0  0
    4.0770   -6.9880   28.3930 C   0  0  0  0  0  0  0  0  0  0  0  0
    6.0480   -5.0310   23.6360 C   0  0  0  0  0  0  0  0  0  0  0  0
    6.6350   -5.3840   22.4340 C   0  0  0  0  0  0  0  0  0  0  0  0
  1  2  1  0
  2  3  2  0
  2  4  1  0
  4  5  1  0
  5  6  1  0
  6  7  1  0
  7  8  1  0
  8  9  2  0
  8 10  1  0
 10 11  1  0
 11 12  1  0
 12 13  1  6
 12 14  1  0
 14 15  2  0
 15 16  1  0
 16 17  2  0
 17 18  1  0
 17 19  1  0
 14 20  1  0
 19 20  2  0
  7 21  1  0
  4 22  1  0
 21 22  1  0
M  END
