piperidine-amides-3516-covalent
     RDKit          3D

 20 21  0  0  0  0  0  0  0  0999 V2000
    7.0610   -3.2850   19.1910 C   0  0  0  0  0  0  0  0  0  0  0  0
    6.2890   -4.0410   20.1830 C   0  0  0  0  0  0  0  0  0  0  0  0
    5.2300   -4.5670   19.8710 O   0  0  0  0  0  0  0  0  0  0  0  0
    6.7740   -4.2230   21.5140 N   0  0  0  0  0  0  0  0  0  0  0  0
    7.6030   -3.2210   22.1020 C   0  0  0  0  0  0  0  0  0  0  0  0
    7.3370   -3.2550   23.5570 C   0  0  0  0  0  0  0  0  0  0  0  0
    5.9550   -3.8170   23.7370 C   0  0  0  0  0  0  0  0  0  0  0  0
    5.4810   -3.5430   25.1130 C   0  0  0  0  0  0  0  0  0  0  0  0
    4.2960   -3.2370   25.3540 O   0  0  0  0  0  0  0  0  0  0  0  0
    6.4020   -3.6140   26.1820 N   0  0  0  0  0  0  0  0  0  0  0  0
    6.4480   -2.4570   27.0280 C   0  0  0  0  0  0  0  0  0  0  0  0
    6.5090   -2.8660   28.4730 C   0  0  1  0  0  0  0  0  0  0  0  0
    5.7090   -2.2000   29.3730 C   0  0  0  0  0  0  0  0  0  0  0  0
    6.0790   -4.3460   28.5470 C   0  0  0  0  0  0  0  0  0  0  0  0
    4.7480   -4.6530   28.5730 C   0  0  0  0  0  0  0  0  0  0  0  0
    4.5170   -6.0660   28.6530 C   0  0  0  0  0  0  0  0  0  0  0  0
    5.5570   -6.9520   28.6960 C   0  0  0  0  0  0  0  0  0  0  0  0
    6.9230   -5.9220   28.6230 S   0  0  0  0  0  0  0  0  0  0  0  0
    6.0580   -5.3110   23.4900 C   0  0  0  0  0  0  0  0  0  0  0  0
    6.4470   -5.4990   22.1510 C   0  0  0  0  0  0  0  0  0  0  0  0
  1  2  1  0
  2  3  2  0
  2  4  1  0
  4  5  1  0
  5  6  1  0
  6  7  1  0
  7  8  1  0
  8  9  2  0
  8 10  1  0
 10 11  1  0
 11 12  1  0
 12 13  1  1
 12 14  1  0
 14 15  2  0
 15 16  1  0
 16 17  2  0
 14 18  1  0
 17 18  1  0
  7 19  1  0
  4 20  1  0
 19 20  1  0
M  END
