piperidine-amides-4232-covalent
     RDKit          3D

 26 28  0  0  0  0  0  0  0  0999 V2000
    7.0390   -3.3400   19.3240 C   0  0  0  0  0  0  0  0  0  0  0  0
    6.3710   -4.1610   20.3490 C   0  0  0  0  0  0  0  0  0  0  0  0
    5.3590   -4.7970   19.9710 O   0  0  0  0  0  0  0  0  0  0  0  0
    6.8610   -4.2830   21.6820 N   0  0  0  0  0  0  0  0  0  0  0  0
    7.6710   -3.2500   22.2340 C   0  0  0  0  0  0  0  0  0  0  0  0
    7.2990   -3.0020   23.6030 C   0  0  0  0  0  0  0  0  0  0  0  0
    6.0680   -3.7380   23.9070 C   0  0  0  0  0  0  0  0  0  0  0  0
    5.5290   -3.4160   25.2690 C   0  0  0  0  0  0  0  0  0  0  0  0
    4.3260   -3.6260   25.5020 O   0  0  0  0  0  0  0  0  0  0  0  0
    6.3240   -2.8690   26.2840 N   0  0  0  0  0  0  0  0  0  0  0  0
    6.2670   -1.5500   26.7750 C   0  0  0  0  0  0  0  0  0  0  0  0
    6.4810   -0.2720   26.1630 C   0  0  0  0  0  0  0  0  0  0  0  0
    6.3380    1.0310   27.0460 C   0  0  0  0  0  0  0  0  0  0  0  0
    6.0050    1.1250   28.4250 C   0  0  0  0  0  0  0  0  0  0  0  0
    5.7370   -0.2140   29.1070 C   0  0  0  0  0  0  0  0  0  0  0  0
    5.9330   -1.2370   28.1230 C   0  0  0  0  0  0  0  0  0  0  0  0
    5.6340   -2.5070   28.8790 C   0  0  0  0  0  0  0  0  0  0  0  0
    5.2670   -2.1030   30.2830 C   0  0  0  0  0  0  0  0  0  0  0  0
    5.3550   -0.6860   30.3960 N   0  0  0  0  0  0  0  0  0  0  0  0
    5.0990   -0.0170   31.5260 C   0  0  0  0  0  0  0  0  0  0  0  0
    3.8610   -0.5750   32.2490 C   0  0  0  0  0  0  0  0  0  0  0  0
    2.9760    0.1800   32.7810 O   0  0  0  0  0  0  0  0  0  0  0  0
    3.7590   -1.8280   32.2960 O   0  0  0  0  0  0  0  0  0  0  0  0
    2.8760   -2.5520   31.4680 C   0  0  0  0  0  0  0  0  0  0  0  0
    6.1620   -5.2210   23.7020 C   0  0  0  0  0  0  0  0  0  0  0  0
    6.6510   -5.5060   22.4170 C   0  0  0  0  0  0  0  0  0  0  0  0
  1  2  1  0
  2  3  2  0
  2  4  1  0
  4  5  1  0
  5  6  1  0
  6  7  1  0
  7  8  1  0
  8  9  2  0
  8 10  1  0
 10 11  1  0
 11 12  2  0
 12 13  1  0
 13 14  2  0
 14 15  1  0
 11 16  1  0
 15 16  2  0
 16 17  1  0
 17 18  2  0
 15 19  1  0
 18 19  1  0
 19 20  1  0
 20 21  1  0
 21 22  2  0
 21 23  1  0
 23 24  1  0
  7 25  1  0
  4 26  1  0
 25 26  1  0
M  END
