piperidine-amides-23383-covalent
     RDKit          3D

 24 26  0  0  0  0  0  0  0  0999 V2000
    7.1510   -3.3160   19.2490 C   0  0  0  0  0  0  0  0  0  0  0  0
    6.4420   -4.1270   20.2520 C   0  0  0  0  0  0  0  0  0  0  0  0
    5.3420   -4.6260   19.9180 O   0  0  0  0  0  0  0  0  0  0  0  0
    7.0270   -4.3870   21.5140 N   0  0  0  0  0  0  0  0  0  0  0  0
    6.5030   -5.4650   22.2760 C   0  0  0  0  0  0  0  0  0  0  0  0
    6.0730   -5.0670   23.6070 C   0  0  0  0  0  0  0  0  0  0  0  0
    6.7570   -3.8670   24.1310 C   0  0  0  0  0  0  0  0  0  0  0  0
    5.9430   -3.2080   25.1720 C   0  0  0  0  0  0  0  0  0  0  0  0
    4.9670   -2.5160   24.8390 O   0  0  0  0  0  0  0  0  0  0  0  0
    6.2580   -3.3680   26.5130 N   0  0  0  0  0  0  0  0  0  0  0  0
    7.5770   -3.7290   26.9870 C   0  0  0  0  0  0  0  0  0  0  0  0
    7.8210   -5.0030   27.7250 C   0  0  0  0  0  0  0  0  0  0  0  0
    6.8410   -5.0110   28.9100 C   0  0  1  0  0  0  0  0  0  0  0  0
    6.0750   -3.8490   29.0310 C   0  0  0  0  0  0  0  0  0  0  0  0
    5.5260   -4.6490   28.3170 C   0  0  0  0  0  0  0  0  0  0  0  0
    4.9090   -5.4480   29.4010 C   0  0  0  0  0  0  0  0  0  0  0  0
    3.4150   -5.2360   29.0540 C   0  0  0  0  0  0  0  0  0  0  0  0
    2.8050   -4.4200   27.9130 C   0  0  0  0  0  0  0  0  0  0  0  0
    3.7420   -3.6990   26.9480 C   0  0  0  0  0  0  0  0  0  0  0  0
    3.3480   -3.0020   25.9880 O   0  0  0  0  0  0  0  0  0  0  0  0
    3.4100   -1.5920   26.1350 C   0  0  0  0  0  0  0  0  0  0  0  0
    5.1860   -3.9130   27.2740 C   0  0  0  0  0  0  0  0  0  0  0  0
    7.0890   -2.8440   23.1020 C   0  0  0  0  0  0  0  0  0  0  0  0
    7.8760   -3.4050   22.1410 C   0  0  0  0  0  0  0  0  0  0  0  0
  1  2  1  0
  2  3  2  0
  2  4  1  0
  4  5  1  0
  5  6  1  0
  6  7  1  0
  7  8  1  0
  8  9  2  0
  8 10  1  0
 10 11  1  0
 11 12  1  0
 12 13  1  0
 13 14  1  1
 13 15  1  0
 15 16  2  0
 16 17  1  0
 17 18  2  0
 18 19  1  0
 19 20  1  0
 20 21  1  0
 10 22  1  0
 15 22  1  0
 19 22  2  0
  7 23  1  0
  4 24  1  0
 23 24  1  0
M  END
