piperidine-amides-4745-covalent
     RDKit          3D

 24 26  0  0  0  0  0  0  0  0999 V2000
    7.1020   -3.2870   19.2230 C   0  0  0  0  0  0  0  0  0  0  0  0
    6.3730   -4.0780   20.2390 C   0  0  0  0  0  0  0  0  0  0  0  0
    5.2910   -4.5870   19.8920 O   0  0  0  0  0  0  0  0  0  0  0  0
    6.9170   -4.2800   21.5070 N   0  0  0  0  0  0  0  0  0  0  0  0
    7.6260   -3.2140   22.1410 C   0  0  0  0  0  0  0  0  0  0  0  0
    7.0740   -2.7980   23.4250 C   0  0  0  0  0  0  0  0  0  0  0  0
    6.4860   -3.8960   24.2090 C   0  0  0  0  0  0  0  0  0  0  0  0
    5.7410   -3.3510   25.3660 C   0  0  0  0  0  0  0  0  0  0  0  0
    4.5260   -3.1130   25.2330 O   0  0  0  0  0  0  0  0  0  0  0  0
    6.3870   -3.1130   26.5860 N   0  0  0  0  0  0  0  0  0  0  0  0
    6.4120   -1.7900   27.2450 C   0  0  0  0  0  0  0  0  0  0  0  0
    7.0080   -1.5600   28.5830 C   0  0  0  0  0  0  0  0  0  0  0  0
    7.0350   -0.2630   29.2540 C   0  0  0  0  0  0  0  0  0  0  0  0
    6.4830    0.8530   28.6410 C   0  0  0  0  0  0  0  0  0  0  0  0
    6.4880    2.0980   29.2400 C   0  0  0  0  0  0  0  0  0  0  0  0
    6.0010    3.2550   28.7560 C   0  0  0  0  0  0  0  0  0  0  0  0
    6.1330    4.3890   29.5650 N   0  0  0  0  0  0  0  0  0  0  0  0
    6.7350    3.7950   30.5620 N   0  0  0  0  0  0  0  0  0  0  0  0
    7.1200    4.5730   31.7390 C   0  0  0  0  0  0  0  0  0  0  0  0
    6.9860    2.4590   30.4690 C   0  0  0  0  0  0  0  0  0  0  0  0
    5.9070    0.7470   27.3920 C   0  0  0  0  0  0  0  0  0  0  0  0
    5.8380   -0.5200   26.6480 C   0  0  0  0  0  0  0  0  0  0  0  0
    5.6460   -4.8450   23.4330 C   0  0  0  0  0  0  0  0  0  0  0  0
    6.4780   -5.3900   22.3140 C   0  0  0  0  0  0  0  0  0  0  0  0
  1  2  1  0
  2  3  2  0
  2  4  1  0
  4  5  1  0
  5  6  1  0
  6  7  1  0
  7  8  1  0
  8  9  2  0
  8 10  1  0
 10 11  1  0
 11 12  2  0
 12 13  1  0
 13 14  2  0
 14 15  1  0
 15 16  1  0
 16 17  2  0
 17 18  1  0
 18 19  1  0
 15 20  2  0
 18 20  1  0
 14 21  1  0
 11 22  1  0
 21 22  2  0
  7 23  1  0
  4 24  1  0
 23 24  1  0
M  END
