piperidine-amides-4350-covalent
     RDKit          3D

 26 28  0  0  0  0  0  0  0  0999 V2000
    7.0820   -3.2930   19.2820 C   0  0  0  0  0  0  0  0  0  0  0  0
    6.3190   -4.0540   20.2890 C   0  0  0  0  0  0  0  0  0  0  0  0
    5.2700   -4.6110   19.9020 O   0  0  0  0  0  0  0  0  0  0  0  0
    6.7780   -4.1840   21.6220 N   0  0  0  0  0  0  0  0  0  0  0  0
    6.5370   -5.3970   22.3240 C   0  0  0  0  0  0  0  0  0  0  0  0
    6.1070   -5.1580   23.6910 C   0  0  0  0  0  0  0  0  0  0  0  0
    6.1230   -3.7210   24.0140 C   0  0  0  0  0  0  0  0  0  0  0  0
    5.7730   -3.4290   25.4550 C   0  0  0  0  0  0  0  0  0  0  0  0
    4.7330   -2.7710   25.6750 O   0  0  0  0  0  0  0  0  0  0  0  0
    6.5340   -3.8620   26.5810 N   0  0  0  0  0  0  0  0  0  0  0  0
    7.9390   -3.9500   26.7640 C   0  0  0  0  0  0  0  0  0  0  0  0
    8.8570   -3.0710   26.0640 C   0  0  0  0  0  0  0  0  0  0  0  0
    8.4130   -1.6530   25.7570 C   0  0  0  0  0  0  0  0  0  0  0  0
    9.2020   -0.7330   25.0910 C   0  0  0  0  0  0  0  0  0  0  0  0
   10.5620   -1.3990   24.7350 C   0  0  0  0  0  0  0  0  0  0  0  0
   11.4830   -0.5910   24.0280 N   0  0  0  0  0  0  0  0  0  0  0  0
   11.0720    0.6920   23.8840 N   0  0  0  0  0  0  0  0  0  0  0  0
   12.0880    1.1890   23.2040 C   0  0  0  0  0  0  0  0  0  0  0  0
   12.3800    2.5840   22.6540 C   0  0  0  0  0  0  0  0  0  0  0  0
   13.1700    0.4290   22.8410 C   0  0  0  0  0  0  0  0  0  0  0  0
   12.6990   -0.8640   23.4580 C   0  0  0  0  0  0  0  0  0  0  0  0
   13.4290   -2.2210   23.4480 C   0  0  0  0  0  0  0  0  0  0  0  0
   11.1130   -2.6350   24.9390 N   0  0  0  0  0  0  0  0  0  0  0  0
   10.2440   -3.5030   25.6210 C   0  0  0  0  0  0  0  0  0  0  0  0
    7.3720   -3.0300   23.5670 C   0  0  0  0  0  0  0  0  0  0  0  0
    7.5950   -3.1430   22.1990 C   0  0  0  0  0  0  0  0  0  0  0  0
  1  2  1  0
  2  3  2  0
  2  4  1  0
  4  5  1  0
  5  6  1  0
  6  7  1  0
  7  8  1  0
  8  9  2  0
  8 10  1  0
 10 11  1  0
 11 12  1  0
 12 13  2  0
 13 14  1  0
 14 15  2  0
 15 16  1  0
 16 17  1  0
 17 18  2  0
 18 19  1  0
 18 20  1  0
 16 21  1  0
 20 21  2  0
 21 22  1  0
 15 23  1  0
 12 24  1  0
 23 24  2  0
  7 25  1  0
  4 26  1  0
 25 26  1  0
M  END
