piperidine-amides-27023-covalent
     RDKit          3D

 24 25  0  0  0  0  0  0  0  0999 V2000
    7.0870   -3.3070   19.3080 C   0  0  0  0  0  0  0  0  0  0  0  0
    6.3000   -4.0320   20.3130 C   0  0  0  0  0  0  0  0  0  0  0  0
    5.2600   -4.5980   19.8970 O   0  0  0  0  0  0  0  0  0  0  0  0
    6.7250   -4.1150   21.6440 N   0  0  0  0  0  0  0  0  0  0  0  0
    7.6600   -3.1540   22.1970 C   0  0  0  0  0  0  0  0  0  0  0  0
    7.2820   -2.8790   23.6190 C   0  0  0  0  0  0  0  0  0  0  0  0
    6.0680   -3.6750   23.9960 C   0  0  0  0  0  0  0  0  0  0  0  0
    5.5920   -3.3390   25.3640 C   0  0  0  0  0  0  0  0  0  0  0  0
    4.3660   -3.4480   25.5800 O   0  0  0  0  0  0  0  0  0  0  0  0
    6.4160   -2.8720   26.4140 N   0  0  0  0  0  0  0  0  0  0  0  0
    6.9900   -1.5610   26.2380 C   0  0  0  0  0  0  0  0  0  0  0  0
    6.0600   -3.2320   27.7820 C   0  0  0  0  0  0  0  0  0  0  0  0
    6.1590   -4.5720   28.1020 C   0  0  0  0  0  0  0  0  0  0  0  0
    7.0940   -4.8920   29.1060 O   0  0  0  0  0  0  0  0  0  0  0  0
    5.3580   -5.5040   27.5250 N   0  0  0  0  0  0  0  0  0  0  0  0
    4.5660   -6.2000   28.3580 C   0  0  0  0  0  0  0  0  0  0  0  0
    3.2340   -6.4130   28.0310 C   0  0  0  0  0  0  0  0  0  0  0  0
    2.3690   -7.1090   28.8610 C   0  0  0  0  0  0  0  0  0  0  0  0
    2.7980   -7.6290   30.0620 C   0  0  0  0  0  0  0  0  0  0  0  0
    1.6860   -8.5000   31.1010 Cl  0  0  0  0  0  0  0  0  0  0  0  0
    4.2260   -7.4710   30.5340 C   0  0  0  0  0  0  0  0  0  0  0  0
    5.0880   -6.6900   29.5410 C   0  0  0  0  0  0  0  0  0  0  0  0
    6.3290   -5.1740   23.8110 C   0  0  0  0  0  0  0  0  0  0  0  0
    6.5770   -5.4060   22.3220 C   0  0  0  0  0  0  0  0  0  0  0  0
  1  2  1  0
  2  3  2  0
  2  4  1  0
  4  5  1  0
  5  6  1  0
  6  7  1  0
  7  8  1  0
  8  9  2  0
  8 10  1  0
 10 11  1  0
 10 12  1  0
 12 13  1  0
 13 14  2  0
 13 15  1  0
 15 16  1  0
 16 17  2  0
 17 18  1  0
 18 19  2  0
 19 20  1  0
 19 21  1  0
 16 22  1  0
 21 22  2  0
  7 23  1  0
  4 24  1  0
 23 24  1  0
M  END
