piperidine-amides-12381-covalent
     RDKit          3D

 24 26  0  0  0  0  0  0  0  0999 V2000
    7.1720   -3.3120   19.1960 C   0  0  0  0  0  0  0  0  0  0  0  0
    6.3840   -4.0190   20.1900 C   0  0  0  0  0  0  0  0  0  0  0  0
    5.2990   -4.5170   19.8840 O   0  0  0  0  0  0  0  0  0  0  0  0
    6.9210   -4.1940   21.5040 N   0  0  0  0  0  0  0  0  0  0  0  0
    7.7750   -3.1890   22.0720 C   0  0  0  0  0  0  0  0  0  0  0  0
    7.0990   -2.5670   23.2470 C   0  0  0  0  0  0  0  0  0  0  0  0
    6.5910   -3.6520   24.1870 C   0  0  0  0  0  0  0  0  0  0  0  0
    5.7090   -2.9860   25.1690 C   0  0  0  0  0  0  0  0  0  0  0  0
    4.4670   -3.0790   25.1190 O   0  0  0  0  0  0  0  0  0  0  0  0
    6.2910   -2.2060   26.1900 N   0  0  0  0  0  0  0  0  0  0  0  0
    5.3840   -1.7970   27.2320 C   0  0  0  0  0  0  0  0  0  0  0  0
    4.6700   -3.0460   27.6600 C   0  0  0  0  0  0  0  0  0  0  0  0
    5.2820   -4.1590   27.2540 C   0  0  0  0  0  0  0  0  0  0  0  0
    4.8110   -5.2280   26.4640 C   0  0  0  0  0  0  0  0  0  0  0  0
    5.8410   -6.1530   26.2920 N   0  0  0  0  0  0  0  0  0  0  0  0
    6.9070   -5.6220   26.9850 C   0  0  0  0  0  0  0  0  0  0  0  0
    8.2010   -6.1460   27.1330 C   0  0  0  0  0  0  0  0  0  0  0  0
    9.0550   -5.4500   27.8760 C   0  0  0  0  0  0  0  0  0  0  0  0
    8.6580   -4.2460   28.4530 C   0  0  0  0  0  0  0  0  0  0  0  0
    7.4430   -3.5700   28.3950 C   0  0  0  0  0  0  0  0  0  0  0  0
    6.9710   -2.3050   28.9640 C   0  0  0  0  0  0  0  0  0  0  0  0
    6.5690   -4.4680   27.5450 C   0  0  0  0  0  0  0  0  0  0  0  0
    5.7690   -4.7200   23.4910 C   0  0  0  0  0  0  0  0  0  0  0  0
    6.4540   -5.2660   22.2890 C   0  0  0  0  0  0  0  0  0  0  0  0
  1  2  1  0
  2  3  2  0
  2  4  1  0
  4  5  1  0
  5  6  1  0
  6  7  1  0
  7  8  1  0
  8  9  2  0
  8 10  1  0
 10 11  1  0
 11 12  1  0
 12 13  1  0
 13 14  2  0
 14 15  1  0
 15 16  1  0
 16 17  1  0
 17 18  2  0
 18 19  1  0
 19 20  2  0
 20 21  1  0
 13 22  1  0
 16 22  2  0
 20 22  1  0
  7 23  1  0
  4 24  1  0
 23 24  1  0
M  END
