piperidine-amides-10119-covalent
     RDKit          3D

 25 27  0  0  0  0  0  0  0  0999 V2000
    7.0890   -3.3270   19.3100 C   0  0  0  0  0  0  0  0  0  0  0  0
    6.4020   -4.1560   20.3040 C   0  0  0  0  0  0  0  0  0  0  0  0
    5.3210   -4.6930   19.9370 O   0  0  0  0  0  0  0  0  0  0  0  0
    6.9640   -4.3780   21.5590 N   0  0  0  0  0  0  0  0  0  0  0  0
    6.5760   -5.4980   22.3780 C   0  0  0  0  0  0  0  0  0  0  0  0
    5.8300   -4.9570   23.5660 C   0  0  0  0  0  0  0  0  0  0  0  0
    6.5640   -3.8030   24.2080 C   0  0  0  0  0  0  0  0  0  0  0  0
    5.8230   -3.2830   25.3680 C   0  0  0  0  0  0  0  0  0  0  0  0
    4.5780   -3.1910   25.2950 O   0  0  0  0  0  0  0  0  0  0  0  0
    6.4750   -2.8820   26.5420 N   0  0  0  0  0  0  0  0  0  0  0  0
    5.9910   -1.7960   27.3510 C   0  0  1  0  0  0  0  0  0  0  0  0
    6.9850   -1.4680   28.4430 C   0  0  0  0  0  0  0  0  0  0  0  0
    6.7830   -0.4550   29.3330 C   0  0  0  0  0  0  0  0  0  0  0  0
    6.0700    0.6890   29.0000 C   0  0  2  0  0  0  0  0  0  0  0  0
    4.8580    0.7890   29.6040 N   0  0  0  0  0  0  0  0  0  0  0  0
    4.2410   -0.2460   30.1880 C   0  0  0  0  0  0  0  0  0  0  0  0
    4.1760   -0.0790   31.5630 C   0  0  0  0  0  0  0  0  0  0  0  0
    4.1240    1.2060   32.0470 C   0  0  0  0  0  0  0  0  0  0  0  0
    4.4460    2.0780   30.6040 S   0  0  0  0  0  0  0  0  0  0  0  0
    3.2280    2.7620   30.0980 O   0  0  0  0  0  0  0  0  0  0  0  0
    5.6490    2.9330   30.7860 O   0  0  0  0  0  0  0  0  0  0  0  0
    5.8650    0.8700   27.5120 C   0  0  0  0  0  0  0  0  0  0  0  0
    5.8180   -0.4700   26.7690 C   0  0  0  0  0  0  0  0  0  0  0  0
    6.8310   -2.6870   23.2060 C   0  0  0  0  0  0  0  0  0  0  0  0
    7.7510   -3.3260   22.1990 C   0  0  0  0  0  0  0  0  0  0  0  0
  1  2  1  0
  2  3  2  0
  2  4  1  0
  4  5  1  0
  5  6  1  0
  6  7  1  0
  7  8  1  0
  8  9  2  0
  8 10  1  0
 11 10  1  6
 11 12  1  0
 12 13  1  0
 13 14  1  0
 14 15  1  1
 15 16  1  0
 16 17  1  0
 17 18  1  0
 19 15  1  0
 18 19  1  0
 19 20  2  0
 19 21  2  0
 14 22  1  0
 11 23  1  0
 22 23  1  0
  7 24  1  0
  4 25  1  0
 24 25  1  0
M  END
