piperidine-amides-6516-covalent
     RDKit          3D

 24 26  0  0  0  0  0  0  0  0999 V2000
    7.1780   -3.2460   19.1390 C   0  0  0  0  0  0  0  0  0  0  0  0
    6.3850   -3.9110   20.1800 C   0  0  0  0  0  0  0  0  0  0  0  0
    5.3280   -4.5180   19.8830 O   0  0  0  0  0  0  0  0  0  0  0  0
    6.8320   -3.9110   21.5050 N   0  0  0  0  0  0  0  0  0  0  0  0
    7.7240   -2.8700   21.9730 C   0  0  0  0  0  0  0  0  0  0  0  0
    7.7030   -2.9660   23.5000 C   0  0  0  0  0  0  0  0  0  0  0  0
    6.2460   -3.0740   23.8810 C   0  0  0  0  0  0  0  0  0  0  0  0
    6.0750   -2.9190   25.3440 C   0  0  0  0  0  0  0  0  0  0  0  0
    4.9090   -2.7930   25.7860 O   0  0  0  0  0  0  0  0  0  0  0  0
    7.2160   -2.8940   26.1970 N   0  0  0  0  0  0  0  0  0  0  0  0
    7.0730   -3.1310   27.6150 C   0  0  0  0  0  0  0  0  0  0  0  0
    7.2530   -4.6070   27.8680 C   0  0  0  0  0  0  0  0  0  0  0  0
    7.7410   -5.3530   26.8650 C   0  0  0  0  0  0  0  0  0  0  0  0
    9.0570   -5.6670   26.7830 C   0  0  0  0  0  0  0  0  0  0  0  0
    9.1990   -6.4160   25.6540 N   0  0  0  0  0  0  0  0  0  0  0  0
    7.9890   -6.5630   25.0510 C   0  0  0  0  0  0  0  0  0  0  0  0
    7.8960   -7.2540   23.9420 C   0  0  0  0  0  0  0  0  0  0  0  0
    6.6720   -7.5120   23.1830 C   0  0  0  0  0  0  0  0  0  0  0  0
    5.6520   -6.7620   24.0920 C   0  0  0  0  0  0  0  0  0  0  0  0
    5.6020   -5.9190   25.4050 C   0  0  0  0  0  0  0  0  0  0  0  0
    4.1120   -5.1150   26.2980 Br  0  0  0  0  0  0  0  0  0  0  0  0
    7.0320   -5.9390   25.7550 C   0  0  0  0  0  0  0  0  0  0  0  0
    5.6850   -4.4000   23.4360 C   0  0  0  0  0  0  0  0  0  0  0  0
    6.3770   -4.9220   22.3760 C   0  0  0  0  0  0  0  0  0  0  0  0
  1  2  1  0
  2  3  2  0
  2  4  1  0
  4  5  1  0
  5  6  1  0
  6  7  1  0
  7  8  1  0
  8  9  2  0
  8 10  1  0
 10 11  1  0
 11 12  1  0
 12 13  1  0
 13 14  2  0
 14 15  1  0
 15 16  1  0
 16 17  1  0
 17 18  2  0
 18 19  1  0
 19 20  2  0
 20 21  1  0
 13 22  1  0
 16 22  2  0
 20 22  1  0
  7 23  1  0
  4 24  1  0
 23 24  1  0
M  END
