piperidine-amides-24781-covalent
     RDKit          3D

 24 26  0  0  0  0  0  0  0  0999 V2000
    7.1350   -3.3470   19.2730 C   0  0  0  0  0  0  0  0  0  0  0  0
    6.4300   -4.1680   20.2610 C   0  0  0  0  0  0  0  0  0  0  0  0
    5.3640   -4.7480   19.9610 O   0  0  0  0  0  0  0  0  0  0  0  0
    7.0000   -4.3620   21.5180 N   0  0  0  0  0  0  0  0  0  0  0  0
    6.6600   -5.5370   22.2710 C   0  0  0  0  0  0  0  0  0  0  0  0
    5.8430   -5.0210   23.4480 C   0  0  0  0  0  0  0  0  0  0  0  0
    6.6540   -3.8960   24.0660 C   0  0  0  0  0  0  0  0  0  0  0  0
    5.9380   -3.3860   25.2270 C   0  0  0  0  0  0  0  0  0  0  0  0
    5.1870   -2.3910   25.1230 O   0  0  0  0  0  0  0  0  0  0  0  0
    6.1090   -4.0690   26.4220 N   0  0  0  0  0  0  0  0  0  0  0  0
    6.0710   -3.3890   27.6740 C   0  0  0  0  0  0  0  0  0  0  0  0
    5.0300   -4.0640   28.4520 C   0  0  2  0  0  0  0  0  0  0  0  0
    5.0490   -4.0820   29.7610 C   0  0  0  0  0  0  0  0  0  0  0  0
    3.9240   -4.7100   30.2770 C   0  0  0  0  0  0  0  0  0  0  0  0
    3.3620   -5.7430   29.5020 C   0  0  0  0  0  0  0  0  0  0  0  0
    4.1030   -6.1040   28.4240 O   0  0  0  0  0  0  0  0  0  0  0  0
    5.2640   -5.4520   28.1550 C   0  0  2  0  0  0  0  0  0  0  0  0
    6.2960   -6.1170   29.0230 C   0  0  0  0  0  0  0  0  0  0  0  0
    7.4590   -5.4960   29.2470 O   0  0  0  0  0  0  0  0  0  0  0  0
    5.9310   -7.3400   29.5850 O   0  0  0  0  0  0  0  0  0  0  0  0
    5.5920   -7.4940   30.9640 C   0  0  0  0  0  0  0  0  0  0  0  0
    5.7900   -5.4080   26.9230 C   0  0  0  0  0  0  0  0  0  0  0  0
    6.9170   -2.7710   23.1090 C   0  0  0  0  0  0  0  0  0  0  0  0
    7.7680   -3.3210   22.1580 C   0  0  0  0  0  0  0  0  0  0  0  0
  1  2  1  0
  2  3  2  0
  2  4  1  0
  4  5  1  0
  5  6  1  0
  6  7  1  0
  7  8  1  0
  8  9  2  0
  8 10  1  0
 10 11  1  0
 12 11  1  6
 12 13  1  0
 13 14  1  0
 14 15  1  0
 15 16  1  0
 12 17  1  0
 16 17  1  0
 17 18  1  1
 18 19  2  0
 18 20  1  0
 20 21  1  0
 10 22  1  0
 17 22  1  0
  7 23  1  0
  4 24  1  0
 23 24  1  0
M  END
