piperidine-amides-445-covalent
     RDKit          3D

 27 28  0  0  0  0  0  0  0  0999 V2000
    7.1990   -3.2810   19.3210 C   0  0  0  0  0  0  0  0  0  0  0  0
    6.4220   -4.0420   20.2770 C   0  0  0  0  0  0  0  0  0  0  0  0
    5.3290   -4.5650   19.8920 O   0  0  0  0  0  0  0  0  0  0  0  0
    6.8480   -4.2650   21.5990 N   0  0  0  0  0  0  0  0  0  0  0  0
    7.9270   -3.4200   22.1640 C   0  0  0  0  0  0  0  0  0  0  0  0
    7.1310   -2.5300   23.1780 C   0  0  0  0  0  0  0  0  0  0  0  0
    6.2230   -3.4640   23.9370 C   0  0  0  0  0  0  0  0  0  0  0  0
    5.9810   -2.8790   25.3860 C   0  0  0  0  0  0  0  0  0  0  0  0
    6.0850   -1.6680   25.3930 O   0  0  0  0  0  0  0  0  0  0  0  0
    5.7190   -3.8370   26.1480 N   0  0  0  0  0  0  0  0  0  0  0  0
    5.3230   -4.8790   26.9000 C   0  0  1  0  0  0  0  0  0  0  0  0
    5.7750   -5.8820   27.7010 C   0  0  0  0  0  0  0  0  0  0  0  0
    5.9230   -5.5460   29.0630 C   0  0  0  0  0  0  0  0  0  0  0  0
    4.7440   -5.2380   29.8920 C   0  0  0  0  0  0  0  0  0  0  0  0
    6.4630   -6.8450   29.4940 C   0  0  0  0  0  0  0  0  0  0  0  0
    4.0700   -4.4720   27.6770 C   0  0  0  0  0  0  0  0  0  0  0  0
    2.9740   -5.3990   27.4470 C   0  0  0  0  0  0  0  0  0  0  0  0
    1.8490   -4.7750   28.3270 C   0  0  0  0  0  0  0  0  0  0  0  0
    1.9800   -3.4970   29.1810 C   0  0  0  0  0  0  0  0  0  0  0  0
    3.1280   -2.8570   29.1870 C   0  0  0  0  0  0  0  0  0  0  0  0
    4.1590   -3.3090   28.4640 C   0  0  0  0  0  0  0  0  0  0  0  0
    5.1890   -2.6170   28.5550 O   0  0  0  0  0  0  0  0  0  0  0  0
    5.1510   -1.2630   28.9590 C   0  0  0  0  0  0  0  0  0  0  0  0
    6.2850   -0.8560   29.6250 C   0  0  0  0  0  0  0  0  0  0  0  0
    7.4630   -1.4710   29.2190 C   0  0  0  0  0  0  0  0  0  0  0  0
    6.4230   -4.9420   23.8170 C   0  0  0  0  0  0  0  0  0  0  0  0
    6.4790   -5.3930   22.3920 C   0  0  0  0  0  0  0  0  0  0  0  0
  1  2  1  0
  2  3  2  0
  2  4  1  0
  4  5  1  0
  5  6  1  0
  6  7  1  0
  7  8  1  0
  8  9  2  0
  8 10  1  0
 10 11  1  0
 11 12  1  1
 12 13  1  0
 13 14  1  0
 13 15  1  0
 11 16  1  0
 16 17  2  0
 17 18  1  0
 18 19  2  0
 19 20  1  0
 16 21  1  0
 20 21  2  0
 21 22  1  0
 22 23  1  0
 23 24  1  0
 24 25  1  0
  7 26  1  0
  4 27  1  0
 26 27  1  0
M  END
