piperidine-amides-12534-covalent
     RDKit          3D

 23 24  0  0  0  0  0  0  0  0999 V2000
    7.1620   -3.2480   19.1600 C   0  0  0  0  0  0  0  0  0  0  0  0
    6.4110   -3.9770   20.2100 C   0  0  0  0  0  0  0  0  0  0  0  0
    5.3290   -4.5000   19.8730 O   0  0  0  0  0  0  0  0  0  0  0  0
    6.9370   -4.1040   21.5010 N   0  0  0  0  0  0  0  0  0  0  0  0
    7.7570   -3.0730   22.0350 C   0  0  0  0  0  0  0  0  0  0  0  0
    7.4610   -2.7800   23.4310 C   0  0  0  0  0  0  0  0  0  0  0  0
    6.0440   -2.9520   23.8120 C   0  0  0  0  0  0  0  0  0  0  0  0
    5.9150   -2.8830   25.2880 C   0  0  0  0  0  0  0  0  0  0  0  0
    4.7980   -3.1250   25.7960 O   0  0  0  0  0  0  0  0  0  0  0  0
    7.0260   -2.5180   26.0850 N   0  0  0  0  0  0  0  0  0  0  0  0
    7.3170   -3.1040   27.4100 C   0  0  0  0  0  0  0  0  0  0  0  0
    7.6440   -4.5420   27.3240 C   0  0  0  0  0  0  0  0  0  0  0  0
    7.2100   -5.3280   28.4700 C   0  0  0  0  0  0  0  0  0  0  0  0
    8.6110   -5.1860   28.1970 C   0  0  0  0  0  0  0  0  0  0  0  0
    7.3500   -5.3360   26.2530 C   0  0  0  0  0  0  0  0  0  0  0  0
    6.0640   -5.4670   25.7590 C   0  0  0  0  0  0  0  0  0  0  0  0
    5.8220   -6.2990   24.6850 C   0  0  0  0  0  0  0  0  0  0  0  0
    6.9300   -6.9200   24.2180 C   0  0  0  0  0  0  0  0  0  0  0  0
    7.1110   -7.8140   23.1890 C   0  0  0  0  0  0  0  0  0  0  0  0
    8.0130   -6.5710   24.9220 C   0  0  0  0  0  0  0  0  0  0  0  0
    8.5160   -5.9980   25.7410 N   0  0  0  0  0  0  0  0  0  0  0  0
    5.3430   -4.1680   23.2650 C   0  0  0  0  0  0  0  0  0  0  0  0
    6.3340   -4.9780   22.4640 C   0  0  0  0  0  0  0  0  0  0  0  0
  1  2  1  0
  2  3  2  0
  2  4  1  0
  4  5  1  0
  5  6  1  0
  6  7  1  0
  7  8  1  0
  8  9  2  0
  8 10  1  0
 10 11  1  0
 12 11  1  0
 12 13  1  0
 12 14  1  0
 12 15  1  0
 15 16  2  0
 16 17  1  0
 17 18  2  0
 18 19  1  0
 18 20  1  0
 15 21  1  0
 20 21  2  0
  7 22  1  0
  4 23  1  0
 22 23  1  0
M  END
