piperidine-amides-13842-covalent
     RDKit          3D

 27 29  0  0  0  0  0  0  0  0999 V2000
    7.1110   -3.3300   19.3110 C   0  0  0  0  0  0  0  0  0  0  0  0
    6.4060   -4.1820   20.3020 C   0  0  0  0  0  0  0  0  0  0  0  0
    5.3700   -4.7790   19.9660 O   0  0  0  0  0  0  0  0  0  0  0  0
    6.9720   -4.3300   21.5820 N   0  0  0  0  0  0  0  0  0  0  0  0
    7.7230   -3.2710   22.2040 C   0  0  0  0  0  0  0  0  0  0  0  0
    6.8100   -2.6870   23.2760 C   0  0  0  0  0  0  0  0  0  0  0  0
    6.5550   -3.7810   24.2510 C   0  0  0  0  0  0  0  0  0  0  0  0
    5.7800   -3.3160   25.4230 C   0  0  0  0  0  0  0  0  0  0  0  0
    4.5510   -3.3030   25.3000 O   0  0  0  0  0  0  0  0  0  0  0  0
    6.4280   -2.9110   26.5880 N   0  0  0  0  0  0  0  0  0  0  0  0
    6.3510   -1.6180   27.1660 C   0  0  0  0  0  0  0  0  0  0  0  0
    5.8000   -0.4260   26.7330 C   0  0  0  0  0  0  0  0  0  0  0  0
    5.8350    0.7730   27.4880 C   0  0  0  0  0  0  0  0  0  0  0  0
    6.4300    0.8540   28.7380 C   0  0  0  0  0  0  0  0  0  0  0  0
    6.4510    2.1260   29.5180 C   0  0  0  0  0  0  0  0  0  0  0  0
    7.6230    2.5780   29.9580 O   0  0  0  0  0  0  0  0  0  0  0  0
    5.1510    2.6580   29.6630 N   0  0  0  0  0  0  0  0  0  0  0  0
    4.6240    2.8070   30.9940 C   0  0  0  0  0  0  0  0  0  0  0  0
    3.2400    2.1680   31.0980 C   0  0  0  0  0  0  0  0  0  0  0  0
    2.4830    2.6820   32.1340 C   0  0  0  0  0  0  0  0  0  0  0  0
    3.1040    3.5040   33.2050 C   0  0  0  0  0  0  0  0  0  0  0  0
    3.6100    4.5270   32.1980 C   0  0  0  0  0  0  0  0  0  0  0  0
    4.7410    4.1900   31.4980 C   0  0  0  0  0  0  0  0  0  0  0  0
    6.9940   -0.2720   29.2340 C   0  0  0  0  0  0  0  0  0  0  0  0
    7.0030   -1.5780   28.5070 C   0  0  0  0  0  0  0  0  0  0  0  0
    5.8090   -4.9400   23.6180 C   0  0  0  0  0  0  0  0  0  0  0  0
    6.5250   -5.4440   22.4130 C   0  0  0  0  0  0  0  0  0  0  0  0
  1  2  1  0
  2  3  2  0
  2  4  1  0
  4  5  1  0
  5  6  1  0
  6  7  1  0
  7  8  1  0
  8  9  2  0
  8 10  1  0
 10 11  1  0
 11 12  2  0
 12 13  1  0
 13 14  2  0
 14 15  1  0
 15 16  2  0
 15 17  1  0
 17 18  1  0
 18 19  1  0
 19 20  1  0
 20 21  1  0
 21 22  1  0
 18 23  1  0
 22 23  1  0
 14 24  1  0
 11 25  1  0
 24 25  2  0
  7 26  1  0
  4 27  1  0
 26 27  1  0
M  END
