piperidine-amides-6285-covalent
     RDKit          3D

 26 27  0  0  0  0  0  0  0  0999 V2000
    7.0750   -3.2850   19.2920 C   0  0  0  0  0  0  0  0  0  0  0  0
    6.3680   -4.0990   20.2960 C   0  0  0  0  0  0  0  0  0  0  0  0
    5.3530   -4.7470   19.9590 O   0  0  0  0  0  0  0  0  0  0  0  0
    6.8300   -4.2050   21.6200 N   0  0  0  0  0  0  0  0  0  0  0  0
    6.5840   -5.4530   22.3170 C   0  0  0  0  0  0  0  0  0  0  0  0
    6.2110   -5.1240   23.7720 C   0  0  0  0  0  0  0  0  0  0  0  0
    6.0650   -3.6240   23.8700 C   0  0  0  0  0  0  0  0  0  0  0  0
    5.6180   -3.2130   25.2190 C   0  0  0  0  0  0  0  0  0  0  0  0
    4.3930   -3.0910   25.4070 O   0  0  0  0  0  0  0  0  0  0  0  0
    6.5530   -2.9560   26.2500 N   0  0  0  0  0  0  0  0  0  0  0  0
    6.2560   -3.2760   27.6270 C   0  0  0  0  0  0  0  0  0  0  0  0
    4.7870   -3.6120   27.7800 C   0  0  0  0  0  0  0  0  0  0  0  0
    3.8980   -2.6900   28.2560 C   0  0  0  0  0  0  0  0  0  0  0  0
    2.5550   -2.9450   28.4220 C   0  0  0  0  0  0  0  0  0  0  0  0
    1.9220   -4.1620   28.1320 C   0  0  0  0  0  0  0  0  0  0  0  0
    0.5910   -4.3120   28.3330 O   0  0  0  0  0  0  0  0  0  0  0  0
    0.0160   -4.9610   29.3990 C   0  0  0  0  0  0  0  0  0  0  0  0
   -1.3170   -5.2630   29.1900 F   0  0  0  0  0  0  0  0  0  0  0  0
    0.1690   -4.1280   30.4960 F   0  0  0  0  0  0  0  0  0  0  0  0
    2.9160   -5.2020   27.5940 C   0  0  0  0  0  0  0  0  0  0  0  0
    2.4570   -6.4460   27.2620 O   0  0  0  0  0  0  0  0  0  0  0  0
    3.4480   -7.3410   26.9310 C   0  0  0  0  0  0  0  0  0  0  0  0
    3.9730   -6.9950   25.5760 C   0  0  0  0  0  0  0  0  0  0  0  0
    4.2970   -4.8560   27.4530 C   0  0  0  0  0  0  0  0  0  0  0  0
    7.3720   -2.9970   23.5270 C   0  0  0  0  0  0  0  0  0  0  0  0
    7.6120   -3.1440   22.1920 C   0  0  0  0  0  0  0  0  0  0  0  0
  1  2  1  0
  2  3  2  0
  2  4  1  0
  4  5  1  0
  5  6  1  0
  6  7  1  0
  7  8  1  0
  8  9  2  0
  8 10  1  0
 10 11  1  0
 11 12  1  0
 12 13  2  0
 13 14  1  0
 14 15  2  0
 15 16  1  0
 16 17  1  0
 17 18  1  0
 17 19  1  0
 15 20  1  0
 20 21  1  0
 21 22  1  0
 22 23  1  0
 12 24  1  0
 20 24  2  0
  7 25  1  0
  4 26  1  0
 25 26  1  0
M  END
