piperidine-amides-31221-covalent
     RDKit          3D

 28 30  0  0  0  0  0  0  0  0999 V2000
    7.0690   -3.2780   19.2220 C   0  0  0  0  0  0  0  0  0  0  0  0
    6.3070   -4.0320   20.2230 C   0  0  0  0  0  0  0  0  0  0  0  0
    5.2520   -4.5900   19.8860 O   0  0  0  0  0  0  0  0  0  0  0  0
    6.7620   -4.1790   21.5370 N   0  0  0  0  0  0  0  0  0  0  0  0
    7.6080   -3.1780   22.1480 C   0  0  0  0  0  0  0  0  0  0  0  0
    7.2200   -3.1390   23.5930 C   0  0  0  0  0  0  0  0  0  0  0  0
    5.8590   -3.6830   23.8310 C   0  0  0  0  0  0  0  0  0  0  0  0
    5.3680   -3.4250   25.2070 C   0  0  0  0  0  0  0  0  0  0  0  0
    4.1240   -3.3980   25.4260 O   0  0  0  0  0  0  0  0  0  0  0  0
    6.2040   -3.1910   26.3210 N   0  0  0  0  0  0  0  0  0  0  0  0
    6.7340   -4.3520   27.0960 C   0  0  0  0  0  0  0  0  0  0  0  0
    5.6990   -5.3760   27.3270 C   0  0  0  0  0  0  0  0  0  0  0  0
    5.7640   -6.0510   28.6390 C   0  0  0  0  0  0  0  0  0  0  0  0
    4.8380   -7.2380   28.7390 C   0  0  0  0  0  0  0  0  0  0  0  0
    3.5850   -6.6980   28.9010 O   0  0  0  0  0  0  0  0  0  0  0  0
    6.4070   -1.8710   26.9020 C   0  0  0  0  0  0  0  0  0  0  0  0
    5.5660   -1.5770   28.0880 C   0  0  0  0  0  0  0  0  0  0  0  0
    4.8760   -2.5400   28.8020 C   0  0  0  0  0  0  0  0  0  0  0  0
    4.0930   -2.2280   29.9120 C   0  0  0  0  0  0  0  0  0  0  0  0
    3.9560   -0.8200   30.4000 C   0  0  0  0  0  0  0  0  0  0  0  0
    4.7020    0.2590   29.6390 C   0  0  0  0  0  0  0  0  0  0  0  0
    4.6520    1.7320   30.0230 C   0  0  0  0  0  0  0  0  0  0  0  0
    5.3420    2.7180   29.3130 N   0  0  0  0  0  0  0  0  0  0  0  0
    6.0970    2.2870   28.2150 C   0  0  0  0  0  0  0  0  0  0  0  0
    6.1020    0.8460   27.8970 C   0  0  0  0  0  0  0  0  0  0  0  0
    5.4410   -0.1190   28.5710 C   0  0  0  0  0  0  0  0  0  0  0  0
    5.7550   -5.1350   23.4770 C   0  0  0  0  0  0  0  0  0  0  0  0
    6.5840   -5.4400   22.2350 C   0  0  0  0  0  0  0  0  0  0  0  0
  1  2  1  0
  2  3  2  0
  2  4  1  0
  4  5  1  0
  5  6  1  0
  6  7  1  0
  7  8  1  0
  8  9  2  0
  8 10  1  0
 10 11  1  0
 11 12  1  0
 12 13  1  0
 13 14  1  0
 14 15  1  0
 10 16  1  0
 16 17  1  0
 17 18  2  0
 18 19  1  0
 19 20  2  0
 20 21  1  0
 21 22  1  0
 22 23  2  0
 23 24  1  0
 24 25  2  0
 17 26  1  0
 21 26  2  0
 25 26  1  0
  7 27  1  0
  4 28  1  0
 27 28  1  0
M  END
