piperidine-amides-21610-covalent
     RDKit          3D

 23 25  0  0  0  0  0  0  0  0999 V2000
    7.0810   -3.3520   19.3240 C   0  0  0  0  0  0  0  0  0  0  0  0
    6.4180   -4.2010   20.3170 C   0  0  0  0  0  0  0  0  0  0  0  0
    5.3490   -4.7590   19.9560 O   0  0  0  0  0  0  0  0  0  0  0  0
    7.0000   -4.4110   21.5700 N   0  0  0  0  0  0  0  0  0  0  0  0
    6.6830   -5.5560   22.3790 C   0  0  0  0  0  0  0  0  0  0  0  0
    5.9410   -5.0640   23.5900 C   0  0  0  0  0  0  0  0  0  0  0  0
    6.5690   -3.8350   24.2100 C   0  0  0  0  0  0  0  0  0  0  0  0
    5.7330   -3.3720   25.3380 C   0  0  0  0  0  0  0  0  0  0  0  0
    4.7430   -2.6630   25.0690 O   0  0  0  0  0  0  0  0  0  0  0  0
    5.9670   -3.6950   26.6800 N   0  0  0  0  0  0  0  0  0  0  0  0
    5.4650   -4.9180   27.2420 C   0  0  0  0  0  0  0  0  0  0  0  0
    6.0400   -4.8250   28.6030 C   0  0  0  0  0  0  0  0  0  0  0  0
    6.6490   -3.6390   28.7370 C   0  0  0  0  0  0  0  0  0  0  0  0
    6.4290   -2.7480   27.6890 C   0  0  2  0  0  0  0  0  0  0  0  0
    5.5260   -1.7280   27.9370 C   0  0  0  0  0  0  0  0  0  0  0  0
    5.7620   -0.8920   29.0220 C   0  0  0  0  0  0  0  0  0  0  0  0
    4.4890   -0.3060   29.0860 N   0  0  0  0  0  0  0  0  0  0  0  0
    4.3220    0.6000   30.0580 C   0  0  0  0  0  0  0  0  0  0  0  0
    5.6310    0.5810   30.6670 C   0  0  0  0  0  0  0  0  0  0  0  0
    6.3710   -0.3630   29.9280 N   0  0  0  0  0  0  0  0  0  0  0  0
    7.6510   -0.5650   30.3080 C   0  0  0  0  0  0  0  0  0  0  0  0
    6.7770   -2.7160   23.1890 C   0  0  0  0  0  0  0  0  0  0  0  0
    7.7480   -3.3400   22.2160 C   0  0  0  0  0  0  0  0  0  0  0  0
  1  2  1  0
  2  3  2  0
  2  4  1  0
  4  5  1  0
  5  6  1  0
  6  7  1  0
  7  8  1  0
  8  9  2  0
  8 10  1  0
 10 11  1  0
 11 12  1  0
 12 13  1  0
 10 14  1  0
 13 14  1  0
 14 15  1  1
 15 16  1  0
 16 17  2  0
 17 18  1  0
 18 19  2  0
 16 20  1  0
 19 20  1  0
 20 21  1  0
  7 22  1  0
  4 23  1  0
 22 23  1  0
M  END
