piperidine-amides-31881-covalent
     RDKit          3D

 26 27  0  0  0  0  0  0  0  0999 V2000
    7.2120   -3.2970   19.3320 C   0  0  0  0  0  0  0  0  0  0  0  0
    6.4020   -4.0300   20.2700 C   0  0  0  0  0  0  0  0  0  0  0  0
    5.2970   -4.5200   19.8770 O   0  0  0  0  0  0  0  0  0  0  0  0
    6.8350   -4.2590   21.5840 N   0  0  0  0  0  0  0  0  0  0  0  0
    7.7130   -3.2340   22.2190 C   0  0  0  0  0  0  0  0  0  0  0  0
    6.8960   -2.8700   23.5240 C   0  0  0  0  0  0  0  0  0  0  0  0
    5.6500   -3.7090   23.4220 C   0  0  0  0  0  0  0  0  0  0  0  0
    4.4460   -3.2850   24.3640 C   0  0  0  0  0  0  0  0  0  0  0  0
    3.4060   -3.7850   23.9980 O   0  0  0  0  0  0  0  0  0  0  0  0
    4.8740   -2.5420   25.2580 N   0  0  0  0  0  0  0  0  0  0  0  0
    5.5270   -1.4890   25.8530 C   0  0  0  0  0  0  0  0  0  0  0  0
    4.4760   -3.2150   26.4150 C   0  0  1  0  0  0  0  0  0  0  0  0
    4.1460   -4.6030   26.3780 C   0  0  0  0  0  0  0  0  0  0  0  0
    5.7720   -3.3310   26.9730 C   0  0  0  0  0  0  0  0  0  0  0  0
    6.0570   -4.6820   26.3420 C   0  0  0  0  0  0  0  0  0  0  0  0
    7.3120   -4.9910   26.7340 C   0  0  0  0  0  0  0  0  0  0  0  0
    8.1600   -4.2530   27.5330 C   0  0  0  0  0  0  0  0  0  0  0  0
    9.0500   -5.4310   27.2670 C   0  0  0  0  0  0  0  0  0  0  0  0
    8.4110   -6.5630   27.0380 F   0  0  0  0  0  0  0  0  0  0  0  0
    9.7400   -5.7540   28.3960 F   0  0  0  0  0  0  0  0  0  0  0  0
    9.8150   -5.2060   26.1440 F   0  0  0  0  0  0  0  0  0  0  0  0
    7.7730   -2.8660   28.1410 C   0  0  0  0  0  0  0  0  0  0  0  0
    8.6030   -1.7440   29.1380 Cl  0  0  0  0  0  0  0  0  0  0  0  0
    6.5880   -2.4680   27.8350 C   0  0  0  0  0  0  0  0  0  0  0  0
    5.9000   -5.2020   23.3920 C   0  0  0  0  0  0  0  0  0  0  0  0
    6.5460   -5.4980   22.2540 C   0  0  0  0  0  0  0  0  0  0  0  0
  1  2  1  0
  2  3  2  0
  2  4  1  0
  4  5  1  0
  5  6  1  0
  6  7  1  0
  7  8  1  0
  8  9  2  0
  8 10  1  0
 10 11  1  0
 10 12  1  0
 12 13  1  6
 12 14  1  0
 14 15  2  0
 15 16  1  0
 16 17  2  0
 17 18  1  0
 18 19  1  0
 18 20  1  0
 18 21  1  0
 17 22  1  0
 22 23  1  0
 14 24  1  0
 22 24  2  0
  7 25  1  0
  4 26  1  0
 25 26  1  0
M  END
