piperidine-amides-13910-covalent
     RDKit          3D

 26 28  0  0  0  0  0  0  0  0999 V2000
    7.0450   -3.3270   19.3110 C   0  0  0  0  0  0  0  0  0  0  0  0
    6.3540   -4.1790   20.3190 C   0  0  0  0  0  0  0  0  0  0  0  0
    5.3500   -4.8220   19.9700 O   0  0  0  0  0  0  0  0  0  0  0  0
    6.8810   -4.2690   21.6260 N   0  0  0  0  0  0  0  0  0  0  0  0
    7.6540   -3.1820   22.1900 C   0  0  0  0  0  0  0  0  0  0  0  0
    7.5120   -3.2200   23.7130 C   0  0  0  0  0  0  0  0  0  0  0  0
    6.1120   -3.6390   24.0160 C   0  0  0  0  0  0  0  0  0  0  0  0
    5.6200   -3.1290   25.3160 C   0  0  0  0  0  0  0  0  0  0  0  0
    4.3950   -3.0830   25.4570 O   0  0  0  0  0  0  0  0  0  0  0  0
    6.5230   -2.7400   26.3020 N   0  0  0  0  0  0  0  0  0  0  0  0
    6.4780   -1.6080   27.1600 C   0  0  0  0  0  0  0  0  0  0  0  0
    5.8700   -0.4440   26.6990 C   0  0  0  0  0  0  0  0  0  0  0  0
    5.7450    0.7380   27.3880 C   0  0  0  0  0  0  0  0  0  0  0  0
    6.2560    0.7690   28.6120 C   0  0  0  0  0  0  0  0  0  0  0  0
    6.2650    1.8070   29.4850 N   0  0  0  0  0  0  0  0  0  0  0  0
    6.6210    1.8740   30.7800 C   0  0  0  0  0  0  0  0  0  0  0  0
    6.4550    3.2570   31.3010 C   0  0  0  0  0  0  0  0  0  0  0  0
    5.9430    3.9300   30.0570 C   0  0  0  0  0  0  0  0  0  0  0  0
    5.6290    5.2730   30.0310 C   0  0  0  0  0  0  0  0  0  0  0  0
    4.9740    6.0720   30.8850 N   0  0  0  0  0  0  0  0  0  0  0  0
    6.1220    5.8330   28.8720 O   0  0  0  0  0  0  0  0  0  0  0  0
    5.8560    3.0240   29.0330 N   0  0  0  0  0  0  0  0  0  0  0  0
    6.8600   -0.3270   29.1230 C   0  0  0  0  0  0  0  0  0  0  0  0
    7.1070   -1.7270   28.5470 C   0  0  0  0  0  0  0  0  0  0  0  0
    6.0740   -5.0920   23.8150 C   0  0  0  0  0  0  0  0  0  0  0  0
    6.6270   -5.4420   22.4230 C   0  0  0  0  0  0  0  0  0  0  0  0
  1  2  1  0
  2  3  2  0
  2  4  1  0
  4  5  1  0
  5  6  1  0
  6  7  1  0
  7  8  1  0
  8  9  2  0
  8 10  1  0
 10 11  1  0
 11 12  2  0
 12 13  1  0
 13 14  2  0
 14 15  1  0
 15 16  1  0
 16 17  2  0
 17 18  1  0
 18 19  1  0
 19 20  1  0
 19 21  2  0
 15 22  1  0
 18 22  2  0
 14 23  1  0
 11 24  1  0
 23 24  2  0
  7 25  1  0
  4 26  1  0
 25 26  1  0
M  END
