piperidine-amides-28988-covalent
     RDKit          3D

 26 28  0  0  0  0  0  0  0  0999 V2000
    7.0620   -3.3550   19.3930 C   0  0  0  0  0  0  0  0  0  0  0  0
    6.3820   -4.1820   20.3840 C   0  0  0  0  0  0  0  0  0  0  0  0
    5.4130   -4.8640   19.9970 O   0  0  0  0  0  0  0  0  0  0  0  0
    6.8580   -4.2310   21.7260 N   0  0  0  0  0  0  0  0  0  0  0  0
    6.7330   -5.4890   22.4220 C   0  0  0  0  0  0  0  0  0  0  0  0
    6.3970   -5.2820   23.8780 C   0  0  0  0  0  0  0  0  0  0  0  0
    6.3010   -3.7970   24.1220 C   0  0  0  0  0  0  0  0  0  0  0  0
    5.7120   -3.3830   25.4640 C   0  0  0  0  0  0  0  0  0  0  0  0
    4.5920   -2.8920   25.3340 O   0  0  0  0  0  0  0  0  0  0  0  0
    6.3050   -3.5030   26.7510 N   0  0  0  0  0  0  0  0  0  0  0  0
    6.3770   -4.6870   27.4590 C   0  0  1  0  0  0  0  0  0  0  0  0
    6.7690   -4.4820   28.7490 C   0  0  0  0  0  0  0  0  0  0  0  0
    6.0750   -3.3200   28.9480 C   0  0  0  0  0  0  0  0  0  0  0  0
    5.3940   -3.0090   27.7410 C   0  0  2  0  0  0  0  0  0  0  0  0
    4.2460   -4.0220   27.7080 C   0  0  0  0  0  0  0  0  0  0  0  0
    4.5190   -5.3240   27.2490 N   0  0  0  0  0  0  0  0  0  0  0  0
    3.5670   -6.2670   27.2710 C   0  0  0  0  0  0  0  0  0  0  0  0
    3.6260   -7.1730   28.1380 O   0  0  0  0  0  0  0  0  0  0  0  0
    2.6480   -6.0900   26.3360 O   0  0  0  0  0  0  0  0  0  0  0  0
    2.8530   -6.9100   25.2280 C   0  0  0  0  0  0  0  0  0  0  0  0
    2.1600   -6.3880   23.9980 C   0  0  0  0  0  0  0  0  0  0  0  0
    4.1880   -7.0870   25.0150 C   0  0  0  0  0  0  0  0  0  0  0  0
    2.4180   -8.1720   25.6070 C   0  0  0  0  0  0  0  0  0  0  0  0
    5.8830   -5.8240   27.0930 C   0  0  0  0  0  0  0  0  0  0  0  0
    7.5480   -3.0840   23.7450 C   0  0  0  0  0  0  0  0  0  0  0  0
    7.7260   -3.1930   22.2580 C   0  0  0  0  0  0  0  0  0  0  0  0
  1  2  1  0
  2  3  2  0
  2  4  1  0
  4  5  1  0
  5  6  1  0
  6  7  1  0
  7  8  1  0
  8  9  2  0
  8 10  1  0
 10 11  1  0
 11 12  1  1
 12 13  1  0
 10 14  1  0
 14 13  1  1
 14 15  1  0
 15 16  1  0
 16 17  1  0
 17 18  2  0
 17 19  1  0
 20 19  1  0
 20 21  1  0
 20 22  1  0
 20 23  1  0
 11 24  1  0
 16 24  1  0
  7 25  1  0
  4 26  1  0
 25 26  1  0
M  END
