piperidine-amides-30650-covalent
     RDKit          3D

 27 29  0  0  0  0  0  0  0  0999 V2000
    7.0960   -3.3780   19.3660 C   0  0  0  0  0  0  0  0  0  0  0  0
    6.3880   -4.1850   20.3580 C   0  0  0  0  0  0  0  0  0  0  0  0
    5.3990   -4.8450   19.9910 O   0  0  0  0  0  0  0  0  0  0  0  0
    6.8490   -4.2560   21.6870 N   0  0  0  0  0  0  0  0  0  0  0  0
    7.7560   -3.2360   22.2100 C   0  0  0  0  0  0  0  0  0  0  0  0
    7.3840   -2.9490   23.6430 C   0  0  0  0  0  0  0  0  0  0  0  0
    6.1250   -3.6500   24.0160 C   0  0  0  0  0  0  0  0  0  0  0  0
    5.6610   -3.3410   25.3980 C   0  0  0  0  0  0  0  0  0  0  0  0
    4.7180   -2.5180   25.5560 O   0  0  0  0  0  0  0  0  0  0  0  0
    6.1810   -3.9150   26.5800 N   0  0  0  0  0  0  0  0  0  0  0  0
    5.8940   -5.3100   26.8350 C   0  0  0  0  0  0  0  0  0  0  0  0
    6.1630   -5.4850   28.2730 C   0  0  0  0  0  0  0  0  0  0  0  0
    5.4280   -4.5990   29.1950 C   0  0  0  0  0  0  0  0  0  0  0  0
    4.1000   -5.0850   29.7460 C   0  0  1  0  0  0  0  0  0  0  0  0
    3.6990   -6.3700   29.0320 C   0  0  0  0  0  0  0  0  0  0  0  0
    3.0970   -7.0790   30.1770 C   0  0  0  0  0  0  0  0  0  0  0  0
    3.5420   -6.3970   31.2720 C   0  0  1  0  0  0  0  0  0  0  0  0
    4.1670   -7.2130   32.2130 C   0  0  0  0  0  0  0  0  0  0  0  0
    3.2870   -7.5670   33.2390 O   0  0  0  0  0  0  0  0  0  0  0  0
    5.4360   -7.5630   32.0680 N   0  0  0  0  0  0  0  0  0  0  0  0
    5.9560   -7.6780   30.8270 C   0  0  0  0  0  0  0  0  0  0  0  0
    5.7090   -8.4610   33.1750 C   0  0  0  0  0  0  0  0  0  0  0  0
    4.2640   -5.4030   31.0620 O   0  0  0  0  0  0  0  0  0  0  0  0
    5.2100   -3.3840   28.3560 C   0  0  0  0  0  0  0  0  0  0  0  0
    6.2050   -3.1050   27.7600 C   0  0  0  0  0  0  0  0  0  0  0  0
    6.1390   -5.1030   23.7530 C   0  0  0  0  0  0  0  0  0  0  0  0
    6.6210   -5.4160   22.5000 C   0  0  0  0  0  0  0  0  0  0  0  0
  1  2  1  0
  2  3  2  0
  2  4  1  0
  4  5  1  0
  5  6  1  0
  6  7  1  0
  7  8  1  0
  8  9  2  0
  8 10  1  0
 10 11  1  0
 11 12  1  0
 12 13  1  0
 14 13  1  6
 14 15  1  0
 15 16  1  0
 16 17  1  0
 17 18  1  1
 18 19  2  0
 18 20  1  0
 20 21  1  0
 20 22  1  0
 14 23  1  0
 17 23  1  0
 13 24  1  0
 10 25  1  0
 24 25  1  0
  7 26  1  0
  4 27  1  0
 26 27  1  0
M  END
