piperidine-amides-21627-covalent
     RDKit          3D

 23 25  0  0  0  0  0  0  0  0999 V2000
    6.9980   -3.3750   19.4070 C   0  0  0  0  0  0  0  0  0  0  0  0
    6.3660   -4.2500   20.4050 C   0  0  0  0  0  0  0  0  0  0  0  0
    5.3890   -4.9300   19.9950 O   0  0  0  0  0  0  0  0  0  0  0  0
    6.8570   -4.3450   21.7200 N   0  0  0  0  0  0  0  0  0  0  0  0
    6.7380   -5.5700   22.4900 C   0  0  0  0  0  0  0  0  0  0  0  0
    6.1320   -5.2220   23.8210 C   0  0  0  0  0  0  0  0  0  0  0  0
    6.0210   -3.7300   23.9430 C   0  0  0  0  0  0  0  0  0  0  0  0
    5.2650   -3.2510   25.1440 C   0  0  0  0  0  0  0  0  0  0  0  0
    4.4380   -2.3470   24.9280 O   0  0  0  0  0  0  0  0  0  0  0  0
    5.3430   -3.6960   26.4910 N   0  0  0  0  0  0  0  0  0  0  0  0
    4.1610   -4.1420   27.1740 C   0  0  0  0  0  0  0  0  0  0  0  0
    4.5360   -4.7460   28.5230 C   0  0  0  0  0  0  0  0  0  0  0  0
    5.7470   -4.5060   29.0540 C   0  0  0  0  0  0  0  0  0  0  0  0
    6.7390   -4.2930   28.2050 C   0  0  0  0  0  0  0  0  0  0  0  0
    6.4470   -3.2990   27.2650 C   0  0  2  0  0  0  0  0  0  0  0  0
    6.3530   -2.0080   27.7810 C   0  0  0  0  0  0  0  0  0  0  0  0
    5.4470   -1.4790   26.8560 N   0  0  0  0  0  0  0  0  0  0  0  0
    5.1060   -0.1970   27.0420 C   0  0  0  0  0  0  0  0  0  0  0  0
    5.8850    0.1110   28.2160 C   0  0  0  0  0  0  0  0  0  0  0  0
    6.5730   -1.0770   28.5300 N   0  0  0  0  0  0  0  0  0  0  0  0
    7.3840   -1.0540   29.6050 C   0  0  0  0  0  0  0  0  0  0  0  0
    7.3920   -3.0690   23.7360 C   0  0  0  0  0  0  0  0  0  0  0  0
    7.6940   -3.2610   22.2560 C   0  0  0  0  0  0  0  0  0  0  0  0
  1  2  1  0
  2  3  2  0
  2  4  1  0
  4  5  1  0
  5  6  1  0
  6  7  1  0
  7  8  1  0
  8  9  2  0
  8 10  1  0
 10 11  1  0
 11 12  1  0
 12 13  1  0
 13 14  1  0
 10 15  1  0
 14 15  1  0
 15 16  1  1
 16 17  2  0
 17 18  1  0
 18 19  2  0
 16 20  1  0
 19 20  1  0
 20 21  1  0
  7 22  1  0
  4 23  1  0
 22 23  1  0
M  END
