piperidine-amides-33271-covalent
     RDKit          3D

 29 31  0  0  0  0  0  0  0  0999 V2000
    7.0990   -3.2920   19.1510 C   0  0  0  0  0  0  0  0  0  0  0  0
    6.3830   -4.1100   20.1420 C   0  0  0  0  0  0  0  0  0  0  0  0
    5.2270   -4.4780   19.8470 O   0  0  0  0  0  0  0  0  0  0  0  0
    7.0040   -4.5280   21.3380 N   0  0  0  0  0  0  0  0  0  0  0  0
    7.6920   -3.5270   22.0410 C   0  0  0  0  0  0  0  0  0  0  0  0
    6.9510   -3.0690   23.1890 C   0  0  0  0  0  0  0  0  0  0  0  0
    5.7290   -3.8300   23.5230 C   0  0  0  0  0  0  0  0  0  0  0  0
    5.3470   -3.3990   24.8750 C   0  0  0  0  0  0  0  0  0  0  0  0
    4.2510   -3.7090   25.3770 O   0  0  0  0  0  0  0  0  0  0  0  0
    6.2570   -2.6190   25.5700 N   0  0  0  0  0  0  0  0  0  0  0  0
    6.5990   -1.2830   25.2600 C   0  0  0  0  0  0  0  0  0  0  0  0
    6.5370   -3.0710   26.8900 C   0  0  0  0  0  0  0  0  0  0  0  0
    5.7470   -2.3500   27.9780 C   0  0  1  0  0  0  0  0  0  0  0  0
    6.3620   -2.5410   29.1900 C   0  0  0  0  0  0  0  0  0  0  0  0
    7.6690   -1.7580   28.8750 C   0  0  2  0  0  0  0  0  0  0  0  0
    7.2590   -0.8790   30.0640 C   0  0  0  0  0  0  0  0  0  0  0  0
    6.6660    0.1720   29.0920 C   0  0  0  0  0  0  0  0  0  0  0  0
    6.6120   -0.2930   27.6840 C   0  0  2  0  0  0  0  0  0  0  0  0
    5.3100   -1.0300   27.6620 C   0  0  0  0  0  0  0  0  0  0  0  0
    7.6930   -1.1120   27.6090 N   0  0  0  0  0  0  0  0  0  0  0  0
    8.5730   -1.0450   26.4740 C   0  0  0  0  0  0  0  0  0  0  0  0
    8.7760   -0.0120   25.7500 O   0  0  0  0  0  0  0  0  0  0  0  0
    9.3090   -1.9800   25.9730 O   0  0  0  0  0  0  0  0  0  0  0  0
   10.0930   -1.9280   24.7610 C   0  0  0  0  0  0  0  0  0  0  0  0
   11.1650   -2.7990   24.9360 C   0  0  0  0  0  0  0  0  0  0  0  0
    9.2630   -2.2020   23.7070 C   0  0  0  0  0  0  0  0  0  0  0  0
   10.6810   -0.5480   24.4450 C   0  0  0  0  0  0  0  0  0  0  0  0
    5.9200   -5.3120   23.3980 C   0  0  0  0  0  0  0  0  0  0  0  0
    6.4710   -5.6550   22.0290 C   0  0  0  0  0  0  0  0  0  0  0  0
  1  2  1  0
  2  3  2  0
  2  4  1  0
  4  5  1  0
  5  6  1  0
  6  7  1  0
  7  8  1  0
  8  9  2  0
  8 10  1  0
 10 11  1  0
 10 12  1  0
 13 12  1  6
 13 14  1  0
 15 14  1  6
 15 16  1  0
 16 17  1  0
 18 17  1  1
 13 19  1  0
 18 19  1  0
 15 20  1  0
 18 20  1  0
 20 21  1  0
 21 22  2  0
 21 23  1  0
 24 23  1  0
 24 25  1  0
 24 26  1  0
 24 27  1  0
  7 28  1  0
  4 29  1  0
 28 29  1  0
M  END
