piperidine-amides-3353-covalent
     RDKit          3D

 21 21  0  0  0  0  0  0  0  0999 V2000
    7.1690   -3.2760   19.2100 C   0  0  0  0  0  0  0  0  0  0  0  0
    6.4150   -4.0480   20.1900 C   0  0  0  0  0  0  0  0  0  0  0  0
    5.3300   -4.5460   19.8900 O   0  0  0  0  0  0  0  0  0  0  0  0
    6.9800   -4.2730   21.4840 N   0  0  0  0  0  0  0  0  0  0  0  0
    7.7250   -3.2170   22.1030 C   0  0  0  0  0  0  0  0  0  0  0  0
    6.9530   -2.7030   23.2690 C   0  0  0  0  0  0  0  0  0  0  0  0
    6.5120   -3.8950   24.1000 C   0  0  0  0  0  0  0  0  0  0  0  0
    5.7230   -3.4070   25.2480 C   0  0  0  0  0  0  0  0  0  0  0  0
    4.5560   -2.9810   25.1440 O   0  0  0  0  0  0  0  0  0  0  0  0
    6.3460   -3.4310   26.5020 N   0  0  0  0  0  0  0  0  0  0  0  0
    5.6810   -4.0890   27.5890 C   0  0  2  0  0  0  0  0  0  0  0  0
    6.4720   -3.7780   28.8030 C   0  0  0  0  0  0  0  0  0  0  0  0
    6.1790   -2.1130   29.3480 S   0  0  0  0  0  0  0  0  0  0  0  0
    7.6150   -1.1260   29.2320 C   0  0  0  0  0  0  0  0  0  0  0  0
    5.1320   -1.4600   28.5100 O   0  0  0  0  0  0  0  0  0  0  0  0
    5.5150   -5.5630   27.5140 C   0  0  0  0  0  0  0  0  0  0  0  0
    6.5350   -6.2060   28.1770 C   0  0  0  0  0  0  0  0  0  0  0  0
    5.3920   -5.8560   26.1790 C   0  0  0  0  0  0  0  0  0  0  0  0
    4.3420   -6.1230   27.9090 C   0  0  0  0  0  0  0  0  0  0  0  0
    5.6450   -4.8210   23.2510 C   0  0  0  0  0  0  0  0  0  0  0  0
    6.4220   -5.3720   22.2410 C   0  0  0  0  0  0  0  0  0  0  0  0
  1  2  1  0
  2  3  2  0
  2  4  1  0
  4  5  1  0
  5  6  1  0
  6  7  1  0
  7  8  1  0
  8  9  2  0
  8 10  1  0
 10 11  1  0
 11 12  1  1
 13 12  1  0
 13 14  1  6
 13 15  2  0
 11 16  1  0
 16 17  1  0
 16 18  1  0
 16 19  1  0
  7 20  1  0
  4 21  1  0
 20 21  1  0
M  END
