piperidine-amides-17248-covalent
     RDKit          3D

 20 21  0  0  0  0  0  0  0  0999 V2000
    7.1110   -3.3150   19.2170 C   0  0  0  0  0  0  0  0  0  0  0  0
    6.3350   -4.0350   20.2400 C   0  0  0  0  0  0  0  0  0  0  0  0
    5.2520   -4.5480   19.8810 O   0  0  0  0  0  0  0  0  0  0  0  0
    6.8310   -4.1870   21.5510 N   0  0  0  0  0  0  0  0  0  0  0  0
    6.5390   -5.3800   22.2690 C   0  0  0  0  0  0  0  0  0  0  0  0
    6.1020   -5.1150   23.6270 C   0  0  0  0  0  0  0  0  0  0  0  0
    6.0740   -3.6760   23.9480 C   0  0  0  0  0  0  0  0  0  0  0  0
    5.6380   -3.4270   25.3540 C   0  0  0  0  0  0  0  0  0  0  0  0
    4.5250   -3.8420   25.7230 O   0  0  0  0  0  0  0  0  0  0  0  0
    6.4480   -2.7170   26.2560 N   0  0  0  0  0  0  0  0  0  0  0  0
    7.1000   -1.5110   25.9780 C   0  0  0  0  0  0  0  0  0  0  0  0
    6.1170   -2.8210   27.6600 C   0  0  0  0  0  0  0  0  0  0  0  0
    5.6630   -1.5110   28.3560 C   0  0  0  0  0  0  0  0  0  0  0  0
    6.7590   -0.6710   28.3590 O   0  0  0  0  0  0  0  0  0  0  0  0
    4.5460   -0.8670   27.9040 C   0  0  0  0  0  0  0  0  0  0  0  0
    4.2130   -0.5190   29.3710 C   0  0  0  0  0  0  0  0  0  0  0  0
    3.9130   -1.9600   29.7110 C   0  0  0  0  0  0  0  0  0  0  0  0
    5.4200   -2.2180   29.5850 C   0  0  0  0  0  0  0  0  0  0  0  0
    7.3560   -2.9550   23.6070 C   0  0  0  0  0  0  0  0  0  0  0  0
    7.6770   -3.1660   22.1420 C   0  0  0  0  0  0  0  0  0  0  0  0
  1  2  1  0
  2  3  2  0
  2  4  1  0
  4  5  1  0
  5  6  1  0
  6  7  1  0
  7  8  1  0
  8  9  2  0
  8 10  1  0
 10 11  1  0
 10 12  1  0
 12 13  1  0
 13 14  1  0
 13 15  1  0
 15 16  1  0
 16 17  1  0
 13 18  1  0
 17 18  1  0
  7 19  1  0
  4 20  1  0
 19 20  1  0
M  END
