piperidine-amides-25784-covalent
     RDKit          3D

 25 27  0  0  0  0  0  0  0  0999 V2000
    7.0540   -3.3380   19.3090 C   0  0  0  0  0  0  0  0  0  0  0  0
    6.3840   -4.2130   20.3050 C   0  0  0  0  0  0  0  0  0  0  0  0
    5.3370   -4.7500   19.9520 O   0  0  0  0  0  0  0  0  0  0  0  0
    6.9620   -4.4570   21.5530 N   0  0  0  0  0  0  0  0  0  0  0  0
    6.6230   -5.6320   22.2950 C   0  0  0  0  0  0  0  0  0  0  0  0
    5.6760   -5.2240   23.3810 C   0  0  0  0  0  0  0  0  0  0  0  0
    6.2540   -4.0320   24.1410 C   0  0  0  0  0  0  0  0  0  0  0  0
    5.2030   -3.4950   25.0290 C   0  0  0  0  0  0  0  0  0  0  0  0
    4.1380   -3.0820   24.5670 O   0  0  0  0  0  0  0  0  0  0  0  0
    5.4220   -3.4450   26.4010 N   0  0  0  0  0  0  0  0  0  0  0  0
    4.3890   -2.8980   27.2540 C   0  0  0  0  0  0  0  0  0  0  0  0
    4.7010   -3.1970   28.7130 C   0  0  0  0  0  0  0  0  0  0  0  0
    5.9580   -3.1550   29.1930 C   0  0  2  0  0  0  0  0  0  0  0  0
    6.5000   -1.9100   29.3040 C   0  0  0  0  0  0  0  0  0  0  0  0
    6.0380   -1.2850   30.4460 O   0  0  0  0  0  0  0  0  0  0  0  0
    6.6590   -3.9380   28.1550 C   0  0  1  0  0  0  0  0  0  0  0  0
    5.8590   -5.2080   28.0530 C   0  0  0  0  0  0  0  0  0  0  0  0
    5.9110   -5.7220   29.4480 C   0  0  0  0  0  0  0  0  0  0  0  0
    5.1870   -6.9880   29.7970 C   0  0  0  0  0  0  0  0  0  0  0  0
    4.4580   -7.6350   28.6810 C   0  0  0  0  0  0  0  0  0  0  0  0
    4.4390   -7.1000   27.2980 C   0  0  0  0  0  0  0  0  0  0  0  0
    5.1500   -5.8410   26.8970 C   0  0  0  0  0  0  0  0  0  0  0  0
    6.6050   -3.1480   27.0230 C   0  0  0  0  0  0  0  0  0  0  0  0
    6.7460   -2.9100   23.2270 C   0  0  0  0  0  0  0  0  0  0  0  0
    7.6330   -3.4060   22.3010 C   0  0  0  0  0  0  0  0  0  0  0  0
  1  2  1  0
  2  3  2  0
  2  4  1  0
  4  5  1  0
  5  6  1  0
  6  7  1  0
  7  8  1  0
  8  9  2  0
  8 10  1  0
 10 11  1  0
 11 12  1  0
 12 13  1  0
 13 14  1  6
 14 15  1  0
 13 16  1  0
 16 17  1  6
 17 18  2  0
 18 19  1  0
 19 20  2  0
 20 21  1  0
 17 22  1  0
 21 22  2  0
 10 23  1  0
 16 23  1  0
  7 24  1  0
  4 25  1  0
 24 25  1  0
M  END
