piperidine-amides-2982-covalent
     RDKit          3D

 23 24  0  0  0  0  0  0  0  0999 V2000
    7.1370   -3.2880   19.1740 C   0  0  0  0  0  0  0  0  0  0  0  0
    6.3880   -4.0340   20.1770 C   0  0  0  0  0  0  0  0  0  0  0  0
    5.3000   -4.5290   19.8830 O   0  0  0  0  0  0  0  0  0  0  0  0
    6.9450   -4.2530   21.4770 N   0  0  0  0  0  0  0  0  0  0  0  0
    7.7500   -3.2250   22.0900 C   0  0  0  0  0  0  0  0  0  0  0  0
    7.0210   -2.6100   23.2410 C   0  0  0  0  0  0  0  0  0  0  0  0
    6.5330   -3.7050   24.1770 C   0  0  0  0  0  0  0  0  0  0  0  0
    5.6730   -3.0650   25.1970 C   0  0  0  0  0  0  0  0  0  0  0  0
    4.4340   -2.9880   25.0860 O   0  0  0  0  0  0  0  0  0  0  0  0
    6.3030   -2.5240   26.3390 N   0  0  0  0  0  0  0  0  0  0  0  0
    7.1610   -3.3930   27.0880 C   0  0  0  0  0  0  0  0  0  0  0  0
    6.2950   -4.2400   27.9860 C   0  0  0  0  0  0  0  0  0  0  0  0
    7.1670   -5.1020   28.5870 O   0  0  0  0  0  0  0  0  0  0  0  0
    8.1010   -5.8130   27.9000 C   0  0  0  0  0  0  0  0  0  0  0  0
    9.2250   -5.0100   27.7070 C   0  0  0  0  0  0  0  0  0  0  0  0
    9.3100   -4.0610   28.6580 O   0  0  0  0  0  0  0  0  0  0  0  0
    5.4380   -5.1090   26.9840 C   0  0  0  0  0  0  0  0  0  0  0  0
    4.6980   -5.9720   27.9040 C   0  0  0  0  0  0  0  0  0  0  0  0
    3.8600   -5.2080   28.5690 O   0  0  0  0  0  0  0  0  0  0  0  0
    4.0870   -3.8600   28.8920 C   0  0  0  0  0  0  0  0  0  0  0  0
    5.4490   -3.6850   29.0360 C   0  0  0  0  0  0  0  0  0  0  0  0
    5.8780   -4.8930   23.5520 C   0  0  0  0  0  0  0  0  0  0  0  0
    6.4130   -5.2990   22.2590 C   0  0  0  0  0  0  0  0  0  0  0  0
  1  2  1  0
  2  3  2  0
  2  4  1  0
  4  5  1  0
  5  6  1  0
  6  7  1  0
  7  8  1  0
  8  9  2  0
  8 10  1  0
 10 11  1  0
 11 12  1  0
 12 13  1  0
 13 14  1  0
 14 15  1  0
 15 16  1  0
 12 17  1  0
 17 18  1  0
 18 19  1  0
 19 20  1  0
 12 21  1  0
 20 21  1  0
  7 22  1  0
  4 23  1  0
 22 23  1  0
M  END
