piperidine-amides-1351-covalent
     RDKit          3D

 22 23  0  0  0  0  0  0  0  0999 V2000
    7.1510   -3.2770   19.2230 C   0  0  0  0  0  0  0  0  0  0  0  0
    6.3510   -4.0130   20.2440 C   0  0  0  0  0  0  0  0  0  0  0  0
    5.2950   -4.5690   19.8950 O   0  0  0  0  0  0  0  0  0  0  0  0
    6.8310   -4.0990   21.5690 N   0  0  0  0  0  0  0  0  0  0  0  0
    7.6030   -3.0300   22.1740 C   0  0  0  0  0  0  0  0  0  0  0  0
    6.7420   -2.4350   23.2890 C   0  0  0  0  0  0  0  0  0  0  0  0
    6.0270   -3.5770   23.9100 C   0  0  0  0  0  0  0  0  0  0  0  0
    5.7140   -3.3610   25.3420 C   0  0  0  0  0  0  0  0  0  0  0  0
    4.6090   -2.8570   25.5780 O   0  0  0  0  0  0  0  0  0  0  0  0
    6.6310   -3.6960   26.3420 N   0  0  0  0  0  0  0  0  0  0  0  0
    6.7590   -4.9320   27.0390 C   0  0  0  0  0  0  0  0  0  0  0  0
    5.7290   -5.5700   27.6820 C   0  0  2  0  0  0  0  0  0  0  0  0
    6.0510   -6.4150   28.7540 C   0  0  0  0  0  0  0  0  0  0  0  0
    5.4480   -6.1960   29.9840 O   0  0  0  0  0  0  0  0  0  0  0  0
    4.8000   -6.2980   26.7340 C   0  0  0  0  0  0  0  0  0  0  0  0
    3.8250   -7.2030   27.4060 C   0  0  0  0  0  0  0  0  0  0  0  0
    2.8040   -8.0280   26.6060 C   0  0  0  0  0  0  0  0  0  0  0  0
    2.9160   -7.8120   25.1030 C   0  0  0  0  0  0  0  0  0  0  0  0
    3.8370   -6.9630   24.5490 C   0  0  0  0  0  0  0  0  0  0  0  0
    4.8050   -6.1800   25.3580 C   0  0  0  0  0  0  0  0  0  0  0  0
    6.6950   -4.8990   23.6940 C   0  0  0  0  0  0  0  0  0  0  0  0
    6.5560   -5.2550   22.3780 C   0  0  0  0  0  0  0  0  0  0  0  0
  1  2  1  0
  2  3  2  0
  2  4  1  0
  4  5  1  0
  5  6  1  0
  6  7  1  0
  7  8  1  0
  8  9  2  0
  8 10  1  0
 10 11  1  0
 12 11  1  6
 12 13  1  0
 13 14  1  0
 12 15  1  0
 15 16  2  0
 16 17  1  0
 17 18  2  0
 18 19  1  0
 15 20  1  0
 19 20  2  0
  7 21  1  0
  4 22  1  0
 21 22  1  0
M  END
