piperidine-amides-30403-covalent
     RDKit          3D

 28 31  0  0  0  0  0  0  0  0999 V2000
    7.2490   -4.0810   19.7170 C   0  0  0  0  0  0  0  0  0  0  0  0
    6.0840   -3.9770   20.4320 C   0  0  0  0  0  0  0  0  0  0  0  0
    5.0540   -4.1220   19.7470 O   0  0  0  0  0  0  0  0  0  0  0  0
    6.1910   -3.8780   21.8130 N   0  0  0  0  0  0  0  0  0  0  0  0
    6.0200   -5.1130   22.5360 C   0  0  0  0  0  0  0  0  0  0  0  0
    5.2210   -4.7130   23.7270 C   0  0  0  0  0  0  0  0  0  0  0  0
    5.4840   -3.2720   24.0640 C   0  0  0  0  0  0  0  0  0  0  0  0
    4.9070   -2.9480   25.4040 C   0  0  0  0  0  0  0  0  0  0  0  0
    3.7650   -3.4240   25.6340 O   0  0  0  0  0  0  0  0  0  0  0  0
    5.4050   -2.1560   26.4790 N   0  0  0  0  0  0  0  0  0  0  0  0
    4.5590   -2.1650   27.7160 C   0  0  0  0  0  0  0  0  0  0  0  0
    4.4170   -3.5680   28.0370 C   0  0  0  0  0  0  0  0  0  0  0  0
    3.3250   -4.2570   28.7520 C   0  0  0  0  0  0  0  0  0  0  0  0
    3.4390   -5.7660   28.9430 C   0  0  0  0  0  0  0  0  0  0  0  0
    4.6610   -6.5120   28.4010 C   0  0  0  0  0  0  0  0  0  0  0  0
    5.5730   -5.5540   27.7430 C   0  0  0  0  0  0  0  0  0  0  0  0
    6.7260   -5.7460   27.1550 C   0  0  0  0  0  0  0  0  0  0  0  0
    7.8090   -5.9680   27.9560 C   0  0  0  0  0  0  0  0  0  0  0  0
    9.1440   -6.1410   27.4170 C   0  0  0  0  0  0  0  0  0  0  0  0
    9.4150   -6.0960   25.9660 C   0  0  0  0  0  0  0  0  0  0  0  0
    8.2850   -5.8640   25.1520 N   0  0  0  0  0  0  0  0  0  0  0  0
    7.0160   -5.7010   25.7890 C   0  0  0  0  0  0  0  0  0  0  0  0
    5.4170   -4.2710   27.6110 C   0  0  0  0  0  0  0  0  0  0  0  0
    6.1580   -0.9710   26.4150 C   0  0  0  0  0  0  0  0  0  0  0  0
    6.2940   -0.1490   27.4080 C   0  0  0  0  0  0  0  0  0  0  0  0
    5.5320    0.5590   26.4530 C   0  0  0  0  0  0  0  0  0  0  0  0
    6.8930   -2.8500   23.8650 C   0  0  0  0  0  0  0  0  0  0  0  0
    7.2570   -3.0730   22.4050 C   0  0  0  0  0  0  0  0  0  0  0  0
  1  2  1  0
  2  3  2  0
  2  4  1  0
  4  5  1  0
  5  6  1  0
  6  7  1  0
  7  8  1  0
  8  9  2  0
  8 10  1  0
 10 11  1  0
 11 12  1  0
 12 13  2  0
 13 14  1  0
 14 15  2  0
 15 16  1  0
 16 17  1  0
 17 18  2  0
 18 19  1  0
 19 20  2  0
 20 21  1  0
 17 22  1  0
 21 22  2  0
 12 23  1  0
 16 23  2  0
 10 24  1  0
 24 25  1  0
 24 26  1  0
 25 26  1  0
  7 27  1  0
  4 28  1  0
 27 28  1  0
M  END
