piperidine-amides-10199-covalent
     RDKit          3D

 25 27  0  0  0  0  0  0  0  0999 V2000
    6.9660   -3.3690   19.3770 C   0  0  0  0  0  0  0  0  0  0  0  0
    6.3200   -4.2420   20.3670 C   0  0  0  0  0  0  0  0  0  0  0  0
    5.3190   -4.8850   19.9710 O   0  0  0  0  0  0  0  0  0  0  0  0
    6.8190   -4.3720   21.6640 N   0  0  0  0  0  0  0  0  0  0  0  0
    6.6290   -5.5960   22.4200 C   0  0  0  0  0  0  0  0  0  0  0  0
    5.9020   -5.2820   23.7080 C   0  0  0  0  0  0  0  0  0  0  0  0
    5.8630   -3.8100   23.9820 C   0  0  0  0  0  0  0  0  0  0  0  0
    5.3590   -3.4830   25.3530 C   0  0  0  0  0  0  0  0  0  0  0  0
    4.1200   -3.4960   25.5010 O   0  0  0  0  0  0  0  0  0  0  0  0
    6.1450   -3.1560   26.4920 N   0  0  0  0  0  0  0  0  0  0  0  0
    6.3220   -1.7710   26.8930 C   0  0  0  0  0  0  0  0  0  0  0  0
    7.1350   -1.4310   25.6640 C   0  0  0  0  0  0  0  0  0  0  0  0
    6.8400   -0.4810   24.6920 C   0  0  0  0  0  0  0  0  0  0  0  0
    7.6960   -0.3020   23.6230 C   0  0  0  0  0  0  0  0  0  0  0  0
    8.8580   -1.0350   23.4560 C   0  0  0  0  0  0  0  0  0  0  0  0
   10.0410   -0.8040   22.0110 Br  0  0  0  0  0  0  0  0  0  0  0  0
    9.1290   -1.9690   24.4120 C   0  0  0  0  0  0  0  0  0  0  0  0
    8.2970   -2.1610   25.4800 C   0  0  0  0  0  0  0  0  0  0  0  0
    5.0150   -1.1690   27.0810 C   0  0  0  0  0  0  0  0  0  0  0  0
    5.9100    0.0740   26.9860 C   0  0  0  0  0  0  0  0  0  0  0  0
    6.3740    0.5240   28.3210 C   0  0  0  0  0  0  0  0  0  0  0  0
    6.8980   -0.6630   29.0260 C   0  0  0  0  0  0  0  0  0  0  0  0
    7.0410   -1.7220   28.1460 C   0  0  0  0  0  0  0  0  0  0  0  0
    7.2580   -3.2940   23.7550 C   0  0  0  0  0  0  0  0  0  0  0  0
    7.6250   -3.3420   22.2830 C   0  0  0  0  0  0  0  0  0  0  0  0
  1  2  1  0
  2  3  2  0
  2  4  1  0
  4  5  1  0
  5  6  1  0
  6  7  1  0
  7  8  1  0
  8  9  2  0
  8 10  1  0
 11 10  1  0
 11 12  1  0
 12 13  2  0
 13 14  1  0
 14 15  2  0
 15 16  1  0
 15 17  1  0
 12 18  1  0
 17 18  2  0
 11 19  1  0
 19 20  1  0
 20 21  1  0
 21 22  1  0
 11 23  1  0
 22 23  1  0
  7 24  1  0
  4 25  1  0
 24 25  1  0
M  END
