piperidine-amides-9075-covalent
     RDKit          3D

 21 22  0  0  0  0  0  0  0  0999 V2000
    7.0680   -3.3280   19.3500 C   0  0  0  0  0  0  0  0  0  0  0  0
    6.3630   -4.1670   20.3240 C   0  0  0  0  0  0  0  0  0  0  0  0
    5.3410   -4.7700   19.9590 O   0  0  0  0  0  0  0  0  0  0  0  0
    6.8220   -4.3700   21.6410 N   0  0  0  0  0  0  0  0  0  0  0  0
    6.5040   -5.5630   22.3810 C   0  0  0  0  0  0  0  0  0  0  0  0
    6.3260   -5.1080   23.8060 C   0  0  0  0  0  0  0  0  0  0  0  0
    5.9390   -3.6560   23.9190 C   0  0  0  0  0  0  0  0  0  0  0  0
    5.7390   -3.1830   25.3040 C   0  0  0  0  0  0  0  0  0  0  0  0
    4.6170   -3.2820   25.8830 O   0  0  0  0  0  0  0  0  0  0  0  0
    6.8090   -2.5890   25.9990 N   0  0  0  0  0  0  0  0  0  0  0  0
    6.5920   -1.4820   26.9460 C   0  0  0  0  0  0  0  0  0  0  0  0
    7.0290   -1.6400   28.3560 C   0  0  0  0  0  0  0  0  0  0  0  0
    6.8430   -0.5450   29.3230 C   0  0  0  0  0  0  0  0  0  0  0  0
    6.2000    0.7380   28.8680 C   0  0  0  0  0  0  0  0  0  0  0  0
    6.1100    1.6400   29.9000 O   0  0  0  0  0  0  0  0  0  0  0  0
    4.8090    2.0460   30.0400 C   0  0  0  0  0  0  0  0  0  0  0  0
    4.3560    3.0250   29.0220 C   0  0  0  0  0  0  0  0  0  0  0  0
    5.7810    0.8110   27.4160 C   0  0  0  0  0  0  0  0  0  0  0  0
    5.9500   -0.2130   26.4860 C   0  0  0  0  0  0  0  0  0  0  0  0
    6.9490   -2.6780   23.3020 C   0  0  0  0  0  0  0  0  0  0  0  0
    7.7430   -3.4220   22.2340 C   0  0  0  0  0  0  0  0  0  0  0  0
  1  2  1  0
  2  3  2  0
  2  4  1  0
  4  5  1  0
  5  6  1  0
  6  7  1  0
  7  8  1  0
  8  9  2  0
  8 10  1  0
 10 11  1  0
 11 12  2  0
 12 13  1  0
 13 14  2  0
 14 15  1  0
 15 16  1  0
 16 17  2  3
 14 18  1  0
 11 19  1  0
 18 19  2  0
  7 20  1  0
  4 21  1  0
 20 21  1  0
M  END
