piperidine-amides-10841-covalent
     RDKit          3D

 22 23  0  0  0  0  0  0  0  0999 V2000
    7.0820   -3.2770   19.2350 C   0  0  0  0  0  0  0  0  0  0  0  0
    6.3390   -4.0330   20.2470 C   0  0  0  0  0  0  0  0  0  0  0  0
    5.2940   -4.6130   19.9100 O   0  0  0  0  0  0  0  0  0  0  0  0
    6.8020   -4.1590   21.5690 N   0  0  0  0  0  0  0  0  0  0  0  0
    7.6680   -3.1820   22.1930 C   0  0  0  0  0  0  0  0  0  0  0  0
    6.9830   -2.7390   23.4590 C   0  0  0  0  0  0  0  0  0  0  0  0
    6.4910   -3.9020   24.2700 C   0  0  0  0  0  0  0  0  0  0  0  0
    5.7370   -3.4950   25.4890 C   0  0  0  0  0  0  0  0  0  0  0  0
    4.4810   -3.3710   25.4260 O   0  0  0  0  0  0  0  0  0  0  0  0
    6.3440   -3.2090   26.7460 N   0  0  0  0  0  0  0  0  0  0  0  0
    6.2700   -4.1440   27.9120 C   0  0  2  0  0  0  0  0  0  0  0  0
    5.9150   -5.5100   27.4510 C   0  0  0  0  0  0  0  0  0  0  0  0
    5.2320   -3.6910   28.9500 C   0  0  0  0  0  0  0  0  0  0  0  0
    4.4570   -4.8970   29.4030 C   0  0  0  0  0  0  0  0  0  0  0  0
    3.3830   -4.6240   30.4450 C   0  0  0  0  0  0  0  0  0  0  0  0
    3.2590   -3.1920   30.8600 C   0  0  0  0  0  0  0  0  0  0  0  0
    2.2640   -2.9770   31.8130 F   0  0  0  0  0  0  0  0  0  0  0  0
    4.0410   -2.1810   30.3600 C   0  0  0  0  0  0  0  0  0  0  0  0
    5.0290   -2.4240   29.4080 C   0  0  0  0  0  0  0  0  0  0  0  0
    6.0220   -1.0970   28.7930 Cl  0  0  0  0  0  0  0  0  0  0  0  0
    5.6040   -4.8600   23.4590 C   0  0  0  0  0  0  0  0  0  0  0  0
    6.4680   -5.3620   22.2960 C   0  0  0  0  0  0  0  0  0  0  0  0
  1  2  1  0
  2  3  2  0
  2  4  1  0
  4  5  1  0
  5  6  1  0
  6  7  1  0
  7  8  1  0
  8  9  2  0
  8 10  1  0
 10 11  1  0
 11 12  1  6
 11 13  1  0
 13 14  2  0
 14 15  1  0
 15 16  2  0
 16 17  1  0
 16 18  1  0
 13 19  1  0
 18 19  2  0
 19 20  1  0
  7 21  1  0
  4 22  1  0
 21 22  1  0
M  END
