piperidine-amides-23930-covalent
     RDKit          3D

 23 25  0  0  0  0  0  0  0  0999 V2000
    7.0770   -3.3630   19.3400 C   0  0  0  0  0  0  0  0  0  0  0  0
    6.4290   -4.2340   20.3310 C   0  0  0  0  0  0  0  0  0  0  0  0
    5.3730   -4.8120   19.9750 O   0  0  0  0  0  0  0  0  0  0  0  0
    7.0150   -4.4540   21.6060 N   0  0  0  0  0  0  0  0  0  0  0  0
    6.5310   -5.5140   22.4050 C   0  0  0  0  0  0  0  0  0  0  0  0
    6.1360   -5.1150   23.7620 C   0  0  0  0  0  0  0  0  0  0  0  0
    6.5830   -3.7850   24.2560 C   0  0  0  0  0  0  0  0  0  0  0  0
    5.5890   -3.2410   25.2470 C   0  0  0  0  0  0  0  0  0  0  0  0
    4.7790   -2.3920   24.8500 O   0  0  0  0  0  0  0  0  0  0  0  0
    5.4880   -3.6400   26.6000 N   0  0  0  0  0  0  0  0  0  0  0  0
    4.2540   -4.0540   27.1570 C   0  0  0  0  0  0  0  0  0  0  0  0
    4.1420   -4.6820   28.4680 C   0  0  0  0  0  0  0  0  0  0  0  0
    5.4330   -4.0820   29.5000 S   0  0  0  0  0  0  0  0  0  0  0  0
    6.7880   -4.0620   28.4300 C   0  0  0  0  0  0  0  0  0  0  0  0
    6.4560   -3.0940   27.4850 C   0  0  2  0  0  0  0  0  0  0  0  0
    5.9020   -2.1820   28.6050 C   0  0  0  0  0  0  0  0  0  0  0  0
    7.1140   -1.6170   29.2760 C   0  0  0  0  0  0  0  0  0  0  0  0
    6.5950   -0.6920   30.4060 C   0  0  0  0  0  0  0  0  0  0  0  0
    5.1870   -0.3300   30.8650 C   0  0  0  0  0  0  0  0  0  0  0  0
    4.0760   -0.9900   30.0710 C   0  0  0  0  0  0  0  0  0  0  0  0
    4.4620   -1.9220   28.9330 C   0  0  0  0  0  0  0  0  0  0  0  0
    6.8250   -2.8050   23.1540 C   0  0  0  0  0  0  0  0  0  0  0  0
    7.7320   -3.4080   22.2940 C   0  0  0  0  0  0  0  0  0  0  0  0
  1  2  1  0
  2  3  2  0
  2  4  1  0
  4  5  1  0
  5  6  1  0
  6  7  1  0
  7  8  1  0
  8  9  2  0
  8 10  1  0
 10 11  1  0
 11 12  1  0
 12 13  1  0
 13 14  1  0
 10 15  1  0
 14 15  1  0
 15 16  1  1
 16 17  2  0
 17 18  1  0
 18 19  2  0
 19 20  1  0
 16 21  1  0
 20 21  2  0
  7 22  1  0
  4 23  1  0
 22 23  1  0
M  END
