piperidine-amides-31149-covalent
     RDKit          3D

 28 30  0  0  0  0  0  0  0  0999 V2000
    7.0300   -3.3510   19.3130 C   0  0  0  0  0  0  0  0  0  0  0  0
    6.3390   -4.1900   20.2980 C   0  0  0  0  0  0  0  0  0  0  0  0
    5.3260   -4.8170   19.9590 O   0  0  0  0  0  0  0  0  0  0  0  0
    6.8190   -4.3390   21.6030 N   0  0  0  0  0  0  0  0  0  0  0  0
    6.5930   -5.5410   22.3790 C   0  0  0  0  0  0  0  0  0  0  0  0
    5.7310   -5.1270   23.5480 C   0  0  0  0  0  0  0  0  0  0  0  0
    5.9390   -3.6830   23.8900 C   0  0  0  0  0  0  0  0  0  0  0  0
    5.4870   -3.3240   25.2570 C   0  0  0  0  0  0  0  0  0  0  0  0
    4.2500   -3.2760   25.5190 O   0  0  0  0  0  0  0  0  0  0  0  0
    6.3640   -3.0530   26.3310 N   0  0  0  0  0  0  0  0  0  0  0  0
    6.6020   -4.2220   27.2260 C   0  0  0  0  0  0  0  0  0  0  0  0
    6.4000   -1.7040   27.0060 C   0  0  0  0  0  0  0  0  0  0  0  0
    6.8810   -1.8110   28.4010 C   0  0  0  0  0  0  0  0  0  0  0  0
    6.9690   -0.5540   29.2240 C   0  0  0  0  0  0  0  0  0  0  0  0
    6.5590    0.7530   28.5840 C   0  0  0  0  0  0  0  0  0  0  0  0
    6.1070    0.6730   27.1790 C   0  0  0  0  0  0  0  0  0  0  0  0
    6.0340   -0.4790   26.4360 C   0  0  0  0  0  0  0  0  0  0  0  0
    5.5960   -0.4890   25.0960 C   0  0  0  0  0  0  0  0  0  0  0  0
    4.5340   -1.3680   24.9120 O   0  0  0  0  0  0  0  0  0  0  0  0
    6.1370    0.3240   24.1690 N   0  0  0  0  0  0  0  0  0  0  0  0
    7.3020    0.0900   23.5150 C   0  0  0  0  0  0  0  0  0  0  0  0
    8.1900    1.2820   23.1160 C   0  0  0  0  0  0  0  0  0  0  0  0
    8.5270    2.4950   23.8380 C   0  0  0  0  0  0  0  0  0  0  0  0
    9.1480    3.3910   23.6380 C   0  0  0  0  0  0  0  0  0  0  0  0
    9.5480    2.9160   22.3070 C   0  0  0  0  0  0  0  0  0  0  0  0
    8.9730    1.6150   21.9450 O   0  0  0  0  0  0  0  0  0  0  0  0
    7.3580   -3.2960   23.6340 C   0  0  0  0  0  0  0  0  0  0  0  0
    7.6250   -3.2820   22.1450 C   0  0  0  0  0  0  0  0  0  0  0  0
  1  2  1  0
  2  3  2  0
  2  4  1  0
  4  5  1  0
  5  6  1  0
  6  7  1  0
  7  8  1  0
  8  9  2  0
  8 10  1  0
 10 11  1  0
 10 12  1  0
 12 13  2  0
 13 14  1  0
 14 15  2  0
 15 16  1  0
 12 17  1  0
 16 17  2  0
 17 18  1  0
 18 19  2  0
 18 20  1  0
 20 21  1  0
 21 22  1  0
 22 23  2  0
 23 24  1  0
 24 25  2  0
 22 26  1  0
 25 26  1  0
  7 27  1  0
  4 28  1  0
 27 28  1  0
M  END
