piperidine-amides-23636-covalent
     RDKit          3D

 24 26  0  0  0  0  0  0  0  0999 V2000
    7.0570   -3.3730   19.3450 C   0  0  0  0  0  0  0  0  0  0  0  0
    6.4160   -4.2360   20.3480 C   0  0  0  0  0  0  0  0  0  0  0  0
    5.3740   -4.8350   19.9830 O   0  0  0  0  0  0  0  0  0  0  0  0
    6.9840   -4.4350   21.6380 N   0  0  0  0  0  0  0  0  0  0  0  0
    6.5220   -5.5160   22.4200 C   0  0  0  0  0  0  0  0  0  0  0  0
    6.0600   -5.1370   23.7570 C   0  0  0  0  0  0  0  0  0  0  0  0
    6.3800   -3.7710   24.2580 C   0  0  0  0  0  0  0  0  0  0  0  0
    5.2770   -3.2930   25.1660 C   0  0  0  0  0  0  0  0  0  0  0  0
    4.2230   -2.8960   24.6570 O   0  0  0  0  0  0  0  0  0  0  0  0
    5.3830   -3.2780   26.5730 N   0  0  0  0  0  0  0  0  0  0  0  0
    6.5120   -3.0990   27.2260 C   0  0  0  0  0  0  0  0  0  0  0  0
    6.6050   -4.1920   28.1720 C   0  0  0  0  0  0  0  0  0  0  0  0
    5.1620   -4.3160   28.7320 C   0  0  1  0  0  0  0  0  0  0  0  0
    4.6420   -4.9930   29.8210 C   0  0  0  0  0  0  0  0  0  0  0  0
    5.5740   -5.8600   30.3600 O   0  0  0  0  0  0  0  0  0  0  0  0
    4.6740   -3.1710   29.6480 C   0  0  0  0  0  0  0  0  0  0  0  0
    3.3760   -3.8640   29.4400 C   0  0  0  0  0  0  0  0  0  0  0  0
    2.4210   -2.9890   30.2710 C   0  0  0  0  0  0  0  0  0  0  0  0
    2.7270   -1.7450   31.0880 C   0  0  0  0  0  0  0  0  0  0  0  0
    4.1860   -1.3010   31.0800 C   0  0  0  0  0  0  0  0  0  0  0  0
    5.0760   -2.0160   30.3720 N   0  0  0  0  0  0  0  0  0  0  0  0
    4.6720   -4.3040   27.2700 C   0  0  0  0  0  0  0  0  0  0  0  0
    6.6720   -2.7940   23.1550 C   0  0  0  0  0  0  0  0  0  0  0  0
    7.6510   -3.3770   22.3570 C   0  0  0  0  0  0  0  0  0  0  0  0
  1  2  1  0
  2  3  2  0
  2  4  1  0
  4  5  1  0
  5  6  1  0
  6  7  1  0
  7  8  1  0
  8  9  2  0
  8 10  1  0
 10 11  1  0
 11 12  1  0
 12 13  1  0
 13 14  1  1
 14 15  1  0
 13 16  1  0
 16 17  2  0
 17 18  1  0
 18 19  2  0
 19 20  1  0
 16 21  1  0
 20 21  2  0
 10 22  1  0
 13 22  1  0
  7 23  1  0
  4 24  1  0
 23 24  1  0
M  END
