piperidine-amides-35238-covalent
     RDKit          3D

 32 35  0  0  0  0  0  0  0  0999 V2000
    7.0230   -3.3860   19.3790 C   0  0  0  0  0  0  0  0  0  0  0  0
    6.3530   -4.2480   20.3850 C   0  0  0  0  0  0  0  0  0  0  0  0
    5.3810   -4.8880   19.9920 O   0  0  0  0  0  0  0  0  0  0  0  0
    6.8550   -4.3440   21.6940 N   0  0  0  0  0  0  0  0  0  0  0  0
    6.6830   -5.5650   22.4500 C   0  0  0  0  0  0  0  0  0  0  0  0
    6.2900   -5.2390   23.8680 C   0  0  0  0  0  0  0  0  0  0  0  0
    6.2270   -3.7260   24.0110 C   0  0  0  0  0  0  0  0  0  0  0  0
    5.6670   -3.2950   25.3250 C   0  0  0  0  0  0  0  0  0  0  0  0
    4.7790   -2.4380   25.2900 O   0  0  0  0  0  0  0  0  0  0  0  0
    6.0370   -3.7860   26.6070 N   0  0  0  0  0  0  0  0  0  0  0  0
    5.7880   -5.1940   26.8200 C   0  0  0  0  0  0  0  0  0  0  0  0
    6.0650   -5.6420   28.2530 C   0  0  0  0  0  0  0  0  0  0  0  0
    5.4250   -4.7230   29.2050 N   0  0  0  0  0  0  0  0  0  0  0  0
    3.7220   -4.5800   28.9840 S   0  0  0  0  0  0  0  0  0  0  0  0
    3.4900   -4.4520   27.5200 O   0  0  0  0  0  0  0  0  0  0  0  0
    3.2860   -3.2950   29.6290 O   0  0  0  0  0  0  0  0  0  0  0  0
    2.8560   -6.0370   29.6960 C   0  0  0  0  0  0  0  0  0  0  0  0
    2.3530   -5.7840   30.9650 C   0  0  0  0  0  0  0  0  0  0  0  0
    1.6850   -6.8180   31.5710 C   0  0  0  0  0  0  0  0  0  0  0  0
    1.4710   -8.1640   30.9620 C   0  0  0  0  0  0  0  0  0  0  0  0
    0.7050   -9.0870   31.8580 C   0  0  0  0  0  0  0  0  0  0  0  0
    1.7450   -9.1720   32.9520 C   0  0  0  0  0  0  0  0  0  0  0  0
    0.9290   -9.8170   34.0200 C   0  0  0  0  0  0  0  0  0  0  0  0
    0.4820  -11.1710   33.6120 C   0  0  0  0  0  0  0  0  0  0  0  0
    0.2570  -11.4340   32.1370 C   0  0  0  0  0  0  0  0  0  0  0  0
    0.1920  -10.2290   31.2600 C   0  0  0  0  0  0  0  0  0  0  0  0
    2.0450   -8.3290   29.6120 C   0  0  0  0  0  0  0  0  0  0  0  0
    2.7080   -7.2720   29.0390 C   0  0  0  0  0  0  0  0  0  0  0  0
    6.1680   -3.6580   29.0050 C   0  0  0  0  0  0  0  0  0  0  0  0
    5.7480   -2.9270   27.7270 C   0  0  0  0  0  0  0  0  0  0  0  0
    7.5960   -3.2030   23.6450 C   0  0  0  0  0  0  0  0  0  0  0  0
    7.6840   -3.2930   22.2840 C   0  0  0  0  0  0  0  0  0  0  0  0
  1  2  1  0
  2  3  2  0
  2  4  1  0
  4  5  1  0
  5  6  1  0
  6  7  1  0
  7  8  1  0
  8  9  2  0
  8 10  1  0
 10 11  1  0
 11 12  1  0
 12 13  1  0
 13 14  1  0
 14 15  2  0
 14 16  2  0
 14 17  1  0
 17 18  2  0
 18 19  1  0
 19 20  2  0
 20 21  1  0
 21 22  1  0
 22 23  1  0
 23 24  1  0
 24 25  1  0
 21 26  1  0
 25 26  1  0
 20 27  1  0
 17 28  1  0
 27 28  2  0
 13 29  1  0
 10 30  1  0
 29 30  1  0
  7 31  1  0
  4 32  1  0
 31 32  1  0
M  END
