piperidine-amides-29784-covalent
     RDKit          3D

 27 29  0  0  0  0  0  0  0  0999 V2000
    7.0290   -3.3490   19.3050 C   0  0  0  0  0  0  0  0  0  0  0  0
    6.3430   -4.1600   20.3070 C   0  0  0  0  0  0  0  0  0  0  0  0
    5.3660   -4.8300   19.9770 O   0  0  0  0  0  0  0  0  0  0  0  0
    6.8210   -4.2190   21.6630 N   0  0  0  0  0  0  0  0  0  0  0  0
    7.6840   -3.1740   22.1750 C   0  0  0  0  0  0  0  0  0  0  0  0
    7.5720   -3.0450   23.6680 C   0  0  0  0  0  0  0  0  0  0  0  0
    6.2100   -3.5710   24.0690 C   0  0  0  0  0  0  0  0  0  0  0  0
    5.8690   -3.2070   25.4760 C   0  0  0  0  0  0  0  0  0  0  0  0
    4.6830   -3.0690   25.8380 O   0  0  0  0  0  0  0  0  0  0  0  0
    6.9140   -3.0170   26.4260 N   0  0  0  0  0  0  0  0  0  0  0  0
    7.7370   -4.1640   26.7660 C   0  0  0  0  0  0  0  0  0  0  0  0
    7.2380   -1.6720   26.8870 C   0  0  2  0  0  0  0  0  0  0  0  0
    7.7270   -1.6130   28.1650 C   0  0  0  0  0  0  0  0  0  0  0  0
    7.1150   -0.7500   29.0580 C   0  0  0  0  0  0  0  0  0  0  0  0
    6.7450    0.4910   28.5090 N   0  0  0  0  0  0  0  0  0  0  0  0
    7.0930    1.6820   29.1550 C   0  0  0  0  0  0  0  0  0  0  0  0
    8.4630    1.8380   29.6420 C   0  0  0  0  0  0  0  0  0  0  0  0
    9.3230    0.8610   30.1290 C   0  0  0  0  0  0  0  0  0  0  0  0
   10.6060    1.0530   30.5810 C   0  0  0  0  0  0  0  0  0  0  0  0
   11.1120    2.3310   30.5580 C   0  0  0  0  0  0  0  0  0  0  0  0
   10.2610    3.4030   30.0560 C   0  0  0  0  0  0  0  0  0  0  0  0
    8.9720    3.1300   29.6150 C   0  0  0  0  0  0  0  0  0  0  0  0
    6.3770    0.4740   27.1140 C   0  0  1  0  0  0  0  0  0  0  0  0
    7.1420    1.2090   26.0620 C   0  0  0  0  0  0  0  0  0  0  0  0
    6.1350   -0.8440   26.7260 C   0  0  0  0  0  0  0  0  0  0  0  0
    6.0940   -5.0330   23.7760 C   0  0  0  0  0  0  0  0  0  0  0  0
    6.6250   -5.4260   22.4350 C   0  0  0  0  0  0  0  0  0  0  0  0
  1  2  1  0
  2  3  2  0
  2  4  1  0
  4  5  1  0
  5  6  1  0
  6  7  1  0
  7  8  1  0
  8  9  2  0
  8 10  1  0
 10 11  1  0
 12 10  1  1
 12 13  1  0
 13 14  1  0
 14 15  1  0
 15 16  1  0
 16 17  1  0
 17 18  2  0
 18 19  1  0
 19 20  2  0
 20 21  1  0
 17 22  1  0
 21 22  2  0
 15 23  1  0
 23 24  1  6
 12 25  1  0
 23 25  1  0
  7 26  1  0
  4 27  1  0
 26 27  1  0
M  END
