piperidine-amides-24537-covalent
     RDKit          3D

 24 26  0  0  0  0  0  0  0  0999 V2000
    7.0820   -3.3510   19.3550 C   0  0  0  0  0  0  0  0  0  0  0  0
    6.3620   -4.1750   20.3320 C   0  0  0  0  0  0  0  0  0  0  0  0
    5.3510   -4.8190   19.9760 O   0  0  0  0  0  0  0  0  0  0  0  0
    6.8290   -4.2960   21.6500 N   0  0  0  0  0  0  0  0  0  0  0  0
    6.6170   -5.5610   22.3240 C   0  0  0  0  0  0  0  0  0  0  0  0
    6.2800   -5.2820   23.8020 C   0  0  0  0  0  0  0  0  0  0  0  0
    6.2080   -3.7810   23.9870 C   0  0  0  0  0  0  0  0  0  0  0  0
    5.8440   -3.4060   25.3760 C   0  0  0  0  0  0  0  0  0  0  0  0
    4.6950   -2.9330   25.5240 O   0  0  0  0  0  0  0  0  0  0  0  0
    6.7030   -3.5600   26.5060 N   0  0  0  0  0  0  0  0  0  0  0  0
    6.1700   -3.0320   27.7280 C   0  0  0  0  0  0  0  0  0  0  0  0
    5.3460   -4.1400   28.3040 C   0  0  2  0  0  0  0  0  0  0  0  0
    4.4240   -3.8570   29.2740 C   0  0  0  0  0  0  0  0  0  0  0  0
    4.1180   -2.7040   29.7050 O   0  0  0  0  0  0  0  0  0  0  0  0
    3.7910   -4.9050   29.7950 O   0  0  0  0  0  0  0  0  0  0  0  0
    3.0920   -5.4030   30.7970 C   0  0  0  0  0  0  0  0  0  0  0  0
    6.2750   -5.1260   28.7710 C   0  0  0  0  0  0  0  0  0  0  0  0
    7.0070   -5.6640   27.7390 C   0  0  0  0  0  0  0  0  0  0  0  0
    7.4970   -4.8100   26.5720 C   0  0  0  0  0  0  0  0  0  0  0  0
    8.2330   -5.0090   27.7180 C   0  0  0  0  0  0  0  0  0  0  0  0
    9.1850   -5.8230   26.9360 C   0  0  0  0  0  0  0  0  0  0  0  0
    8.6770   -4.8790   25.7700 C   0  0  0  0  0  0  0  0  0  0  0  0
    7.4930   -3.1590   23.5460 C   0  0  0  0  0  0  0  0  0  0  0  0
    7.6480   -3.2570   22.2010 C   0  0  0  0  0  0  0  0  0  0  0  0
  1  2  1  0
  2  3  2  0
  2  4  1  0
  4  5  1  0
  5  6  1  0
  6  7  1  0
  7  8  1  0
  8  9  2  0
  8 10  1  0
 10 11  1  0
 11 12  1  0
 12 13  1  1
 13 14  2  0
 13 15  1  0
 15 16  1  0
 12 17  1  0
 17 18  1  0
 19 10  1  0
 18 19  1  0
 19 20  1  0
 20 21  1  0
 19 22  1  0
 21 22  1  0
  7 23  1  0
  4 24  1  0
 23 24  1  0
M  END
