piperidine-amides-24681-covalent
     RDKit          3D

 24 26  0  0  0  0  0  0  0  0999 V2000
    7.0450   -3.3600   19.3920 C   0  0  0  0  0  0  0  0  0  0  0  0
    6.4010   -4.2560   20.3670 C   0  0  0  0  0  0  0  0  0  0  0  0
    5.4020   -4.9200   20.0040 O   0  0  0  0  0  0  0  0  0  0  0  0
    6.9100   -4.4360   21.6700 N   0  0  0  0  0  0  0  0  0  0  0  0
    6.4370   -5.5470   22.4360 C   0  0  0  0  0  0  0  0  0  0  0  0
    5.4740   -4.9340   23.4640 C   0  0  0  0  0  0  0  0  0  0  0  0
    6.2610   -3.9500   24.3190 C   0  0  0  0  0  0  0  0  0  0  0  0
    5.3150   -3.2490   25.2490 C   0  0  0  0  0  0  0  0  0  0  0  0
    4.5740   -2.3880   24.7530 O   0  0  0  0  0  0  0  0  0  0  0  0
    5.2320   -3.5450   26.6460 N   0  0  0  0  0  0  0  0  0  0  0  0
    6.2310   -4.2780   27.2550 C   0  0  0  0  0  0  0  0  0  0  0  0
    5.7800   -4.6390   28.5940 C   0  0  0  0  0  0  0  0  0  0  0  0
    4.5650   -4.0930   28.7450 C   0  0  2  0  0  0  0  0  0  0  0  0
    3.5450   -5.0570   28.9450 N   0  0  0  0  0  0  0  0  0  0  0  0
    2.4300   -4.7390   29.7260 C   0  0  0  0  0  0  0  0  0  0  0  0
    1.3720   -5.4830   29.2040 C   0  0  0  0  0  0  0  0  0  0  0  0
    1.5580   -6.8530   29.1500 C   0  0  0  0  0  0  0  0  0  0  0  0
    1.1870   -7.4970   28.0200 O   0  0  0  0  0  0  0  0  0  0  0  0
    1.1630   -8.8200   27.6970 C   0  0  0  0  0  0  0  0  0  0  0  0
    2.9220   -7.2510   29.5970 C   0  0  0  0  0  0  0  0  0  0  0  0
    4.0760   -6.4180   29.1330 C   0  0  0  0  0  0  0  0  0  0  0  0
    4.3310   -3.1410   27.7220 C   0  0  0  0  0  0  0  0  0  0  0  0
    6.9230   -2.8960   23.4530 C   0  0  0  0  0  0  0  0  0  0  0  0
    7.5790   -3.3660   22.3390 C   0  0  0  0  0  0  0  0  0  0  0  0
  1  2  1  0
  2  3  2  0
  2  4  1  0
  4  5  1  0
  5  6  1  0
  6  7  1  0
  7  8  1  0
  8  9  2  0
  8 10  1  0
 10 11  1  0
 11 12  1  0
 12 13  1  0
 13 14  1  6
 14 15  1  0
 15 16  1  0
 16 17  1  0
 17 18  1  0
 18 19  1  0
 17 20  1  0
 14 21  1  0
 20 21  1  0
 10 22  1  0
 13 22  1  0
  7 23  1  0
  4 24  1  0
 23 24  1  0
M  END
