piperidine-amides-13329-covalent
     RDKit          3D

 23 24  0  0  0  0  0  0  0  0999 V2000
    7.1220   -3.2430   19.1540 C   0  0  0  0  0  0  0  0  0  0  0  0
    6.3300   -3.9820   20.1630 C   0  0  0  0  0  0  0  0  0  0  0  0
    5.2200   -4.4220   19.8160 O   0  0  0  0  0  0  0  0  0  0  0  0
    6.8440   -4.2100   21.4320 N   0  0  0  0  0  0  0  0  0  0  0  0
    7.5110   -3.1340   22.0830 C   0  0  0  0  0  0  0  0  0  0  0  0
    6.8450   -2.6970   23.3020 C   0  0  0  0  0  0  0  0  0  0  0  0
    6.3960   -3.8140   24.1580 C   0  0  0  0  0  0  0  0  0  0  0  0
    5.6600   -3.3280   25.3460 C   0  0  0  0  0  0  0  0  0  0  0  0
    4.5310   -2.8140   25.2070 O   0  0  0  0  0  0  0  0  0  0  0  0
    6.2480   -3.4690   26.6060 N   0  0  0  0  0  0  0  0  0  0  0  0
    7.2370   -4.5430   26.7920 C   0  0  0  0  0  0  0  0  0  0  0  0
    8.6090   -4.1260   26.3930 C   0  0  2  0  0  0  0  0  0  0  0  0
    9.4410   -4.1410   27.2970 O   0  0  0  0  0  0  0  0  0  0  0  0
    9.4380   -5.2200   27.9980 C   0  0  0  0  0  0  0  0  0  0  0  0
    8.9200   -2.9590   25.5200 C   0  0  0  0  0  0  0  0  0  0  0  0
    9.7430   -3.6900   24.7660 C   0  0  1  0  0  0  0  0  0  0  0  0
   11.0910   -3.5340   24.9690 C   0  0  0  0  0  0  0  0  0  0  0  0
   11.6650   -4.2540   26.0210 O   0  0  0  0  0  0  0  0  0  0  0  0
   11.7490   -2.6620   24.1090 O   0  0  0  0  0  0  0  0  0  0  0  0
   13.0700   -2.4800   24.5760 C   0  0  0  0  0  0  0  0  0  0  0  0
    9.3180   -4.8220   25.4030 C   0  0  0  0  0  0  0  0  0  0  0  0
    5.6190   -4.8330   23.3630 C   0  0  0  0  0  0  0  0  0  0  0  0
    6.4300   -5.3370   22.2320 C   0  0  0  0  0  0  0  0  0  0  0  0
  1  2  1  0
  2  3  2  0
  2  4  1  0
  4  5  1  0
  5  6  1  0
  6  7  1  0
  7  8  1  0
  8  9  2  0
  8 10  1  0
 10 11  1  0
 12 11  1  1
 12 13  1  0
 13 14  1  0
 12 15  1  0
 15 16  1  0
 16 17  1  1
 17 18  2  0
 17 19  1  0
 19 20  1  0
 12 21  1  0
 16 21  1  0
  7 22  1  0
  4 23  1  0
 22 23  1  0
M  END
