piperidine-amides-523-covalent
     RDKit          3D

 27 30  0  0  0  0  0  0  0  0999 V2000
    7.0980   -3.3710   19.3090 C   0  0  0  0  0  0  0  0  0  0  0  0
    6.3590   -4.0750   20.3260 C   0  0  0  0  0  0  0  0  0  0  0  0
    5.3220   -4.7060   19.9500 O   0  0  0  0  0  0  0  0  0  0  0  0
    6.7640   -4.1390   21.6770 N   0  0  0  0  0  0  0  0  0  0  0  0
    7.6310   -3.0370   22.1930 C   0  0  0  0  0  0  0  0  0  0  0  0
    7.5840   -3.2300   23.7660 C   0  0  0  0  0  0  0  0  0  0  0  0
    6.2190   -3.7920   24.0740 C   0  0  0  0  0  0  0  0  0  0  0  0
    5.8180   -3.7310   25.6070 C   0  0  0  0  0  0  0  0  0  0  0  0
    5.3200   -4.7890   25.9340 O   0  0  0  0  0  0  0  0  0  0  0  0
    6.0690   -2.6080   26.1340 N   0  0  0  0  0  0  0  0  0  0  0  0
    6.1500   -1.4160   26.7760 C   0  0  0  0  0  0  0  0  0  0  0  0
    5.8290   -0.0480   26.6600 C   0  0  0  0  0  0  0  0  0  0  0  0
    6.0820    0.9730   27.6310 C   0  0  0  0  0  0  0  0  0  0  0  0
    6.7310    0.6210   28.8740 C   0  0  0  0  0  0  0  0  0  0  0  0
    6.8260    1.9590   29.6300 C   0  0  0  0  0  0  0  0  0  0  0  0
    6.2880    3.1760   29.0470 N   0  0  0  0  0  0  0  0  0  0  0  0
    6.5280    4.1690   29.9380 N   0  0  0  0  0  0  0  0  0  0  0  0
    7.1620    3.6530   31.0060 C   0  0  0  0  0  0  0  0  0  0  0  0
    7.3460    2.2500   30.8000 N   0  0  0  0  0  0  0  0  0  0  0  0
    7.9510    1.4230   31.6730 C   0  0  0  0  0  0  0  0  0  0  0  0
    8.4600    2.0990   32.9470 C   0  0  0  0  0  0  0  0  0  0  0  0
    8.7220    3.6170   32.6540 C   0  0  0  0  0  0  0  0  0  0  0  0
    7.6390    4.3650   32.2580 C   0  0  0  0  0  0  0  0  0  0  0  0
    7.0910   -0.6310   29.1170 C   0  0  0  0  0  0  0  0  0  0  0  0
    6.8360   -1.5610   28.1840 C   0  0  0  0  0  0  0  0  0  0  0  0
    5.9250   -5.1430   23.5110 C   0  0  0  0  0  0  0  0  0  0  0  0
    6.7010   -5.3770   22.3930 C   0  0  0  0  0  0  0  0  0  0  0  0
  1  2  1  0
  2  3  2  0
  2  4  1  0
  4  5  1  0
  5  6  1  0
  6  7  1  0
  7  8  1  0
  8  9  2  0
  8 10  1  0
 10 11  1  0
 11 12  2  0
 12 13  1  0
 13 14  2  0
 14 15  1  0
 15 16  2  0
 16 17  1  0
 17 18  2  0
 15 19  1  0
 18 19  1  0
 19 20  1  0
 20 21  1  0
 21 22  1  0
 18 23  1  0
 22 23  1  0
 14 24  1  0
 11 25  1  0
 24 25  2  0
  7 26  1  0
  4 27  1  0
 26 27  1  0
M  END
