piperidine-amides-16096-covalent
     RDKit          3D

 19 20  0  0  0  0  0  0  0  0999 V2000
    7.0920   -3.3030   19.2550 C   0  0  0  0  0  0  0  0  0  0  0  0
    6.3900   -4.1390   20.2610 C   0  0  0  0  0  0  0  0  0  0  0  0
    5.3350   -4.6710   19.9250 O   0  0  0  0  0  0  0  0  0  0  0  0
    6.9630   -4.3370   21.5120 N   0  0  0  0  0  0  0  0  0  0  0  0
    7.6890   -3.2870   22.1860 C   0  0  0  0  0  0  0  0  0  0  0  0
    6.8330   -2.7400   23.2830 C   0  0  0  0  0  0  0  0  0  0  0  0
    6.4350   -3.8970   24.1940 C   0  0  0  0  0  0  0  0  0  0  0  0
    5.6670   -3.3220   25.3080 C   0  0  0  0  0  0  0  0  0  0  0  0
    4.4520   -3.1260   25.1840 O   0  0  0  0  0  0  0  0  0  0  0  0
    6.3050   -2.9930   26.5120 N   0  0  0  0  0  0  0  0  0  0  0  0
    6.2070   -3.9040   27.6270 C   0  0  0  0  0  0  0  0  0  0  0  0
    5.8130   -5.2400   27.0390 C   0  0  0  0  0  0  0  0  0  0  0  0
    6.2100   -6.2950   27.8200 O   0  0  0  0  0  0  0  0  0  0  0  0
    6.7040   -6.2310   29.0470 C   0  0  0  0  0  0  0  0  0  0  0  0
    6.7410   -1.6730   26.7470 C   0  0  0  0  0  0  0  0  0  0  0  0
    6.0100   -0.7670   27.2120 C   0  0  0  0  0  0  0  0  0  0  0  0
    6.7940   -1.1150   28.2880 C   0  0  0  0  0  0  0  0  0  0  0  0
    5.7250   -4.9950   23.4710 C   0  0  0  0  0  0  0  0  0  0  0  0
    6.5200   -5.4660   22.2940 C   0  0  0  0  0  0  0  0  0  0  0  0
  1  2  1  0
  2  3  2  0
  2  4  1  0
  4  5  1  0
  5  6  1  0
  6  7  1  0
  7  8  1  0
  8  9  2  0
  8 10  1  0
 10 11  1  0
 11 12  1  0
 12 13  1  0
 13 14  1  0
 10 15  1  0
 15 16  1  0
 15 17  1  0
 16 17  1  0
  7 18  1  0
  4 19  1  0
 18 19  1  0
M  END
