piperidine-amides-1477-covalent
     RDKit          3D

 21 22  0  0  0  0  0  0  0  0999 V2000
    7.1100   -3.2670   19.2590 C   0  0  0  0  0  0  0  0  0  0  0  0
    6.3480   -4.0650   20.2670 C   0  0  0  0  0  0  0  0  0  0  0  0
    5.2900   -4.6080   19.9090 O   0  0  0  0  0  0  0  0  0  0  0  0
    6.8490   -4.2430   21.5820 N   0  0  0  0  0  0  0  0  0  0  0  0
    6.5850   -5.4400   22.3220 C   0  0  0  0  0  0  0  0  0  0  0  0
    6.7210   -5.0150   23.7840 C   0  0  0  0  0  0  0  0  0  0  0  0
    6.0200   -3.7030   23.9090 C   0  0  0  0  0  0  0  0  0  0  0  0
    5.7240   -3.3130   25.3090 C   0  0  0  0  0  0  0  0  0  0  0  0
    4.6310   -2.7640   25.4950 O   0  0  0  0  0  0  0  0  0  0  0  0
    6.6350   -3.5640   26.3380 N   0  0  0  0  0  0  0  0  0  0  0  0
    6.7070   -4.7130   27.1790 C   0  0  0  0  0  0  0  0  0  0  0  0
    5.8460   -5.7690   27.0820 C   0  0  0  0  0  0  0  0  0  0  0  0
    5.2990   -6.4170   28.1990 C   0  0  0  0  0  0  0  0  0  0  0  0
    5.9950   -6.4690   29.3850 C   0  0  0  0  0  0  0  0  0  0  0  0
    5.5450   -7.1210   30.6460 C   0  0  0  0  0  0  0  0  0  0  0  0
    4.2900   -7.7470   30.6430 N   0  0  0  0  0  0  0  0  0  0  0  0
    3.5120   -7.7310   29.4370 C   0  0  0  0  0  0  0  0  0  0  0  0
    4.0510   -7.0380   28.1870 C   0  0  0  0  0  0  0  0  0  0  0  0
    2.9750   -7.0460   26.6050 Br  0  0  0  0  0  0  0  0  0  0  0  0
    6.7770   -2.5620   23.2030 C   0  0  0  0  0  0  0  0  0  0  0  0
    7.6390   -3.1800   22.1660 C   0  0  0  0  0  0  0  0  0  0  0  0
  1  2  1  0
  2  3  2  0
  2  4  1  0
  4  5  1  0
  5  6  1  0
  6  7  1  0
  7  8  1  0
  8  9  2  0
  8 10  1  0
 10 11  1  0
 11 12  1  0
 12 13  1  0
 13 14  2  0
 14 15  1  0
 15 16  2  0
 16 17  1  0
 13 18  1  0
 17 18  2  0
 18 19  1  0
  7 20  1  0
  4 21  1  0
 20 21  1  0
M  END
