piperidine-amides-17885-covalent
     RDKit          3D

 21 23  0  0  0  0  0  0  0  0999 V2000
    7.0530   -3.3500   19.4400 C   0  0  0  0  0  0  0  0  0  0  0  0
    6.3420   -4.1960   20.3750 C   0  0  0  0  0  0  0  0  0  0  0  0
    5.3600   -4.8810   19.9670 O   0  0  0  0  0  0  0  0  0  0  0  0
    6.7290   -4.3020   21.7200 N   0  0  0  0  0  0  0  0  0  0  0  0
    6.6590   -5.6570   22.3260 C   0  0  0  0  0  0  0  0  0  0  0  0
    5.8690   -5.3810   23.6690 C   0  0  0  0  0  0  0  0  0  0  0  0
    5.9860   -3.9040   23.9150 C   0  0  0  0  0  0  0  0  0  0  0  0
    5.2600   -3.4260   25.2590 C   0  0  0  0  0  0  0  0  0  0  0  0
    4.2820   -2.7510   24.9960 O   0  0  0  0  0  0  0  0  0  0  0  0
    5.8870   -3.8730   26.2700 N   0  0  0  0  0  0  0  0  0  0  0  0
    6.8280   -4.3530   27.0630 C   0  0  0  0  0  0  0  0  0  0  0  0
    6.8080   -5.1750   28.0960 C   0  0  0  0  0  0  0  0  0  0  0  0
    5.5880   -4.7340   28.5660 C   0  0  0  0  0  0  0  0  0  0  0  0
    4.9950   -3.8280   27.5200 C   0  0  1  0  0  0  0  0  0  0  0  0
    5.2690   -2.5510   28.3530 C   0  0  0  0  0  0  0  0  0  0  0  0
    6.6280   -2.3090   28.7880 N   0  0  0  0  0  0  0  0  0  0  0  0
    6.6070   -1.1720   29.4780 N   0  0  0  0  0  0  0  0  0  0  0  0
    5.3460   -0.7040   29.4930 N   0  0  0  0  0  0  0  0  0  0  0  0
    4.5310   -1.5190   28.8240 N   0  0  0  0  0  0  0  0  0  0  0  0
    7.3260   -3.2910   23.6630 C   0  0  0  0  0  0  0  0  0  0  0  0
    7.5670   -3.2870   22.2940 C   0  0  0  0  0  0  0  0  0  0  0  0
  1  2  1  0
  2  3  2  0
  2  4  1  0
  4  5  1  0
  5  6  1  0
  6  7  1  0
  7  8  1  0
  8  9  2  0
  8 10  1  0
 10 11  1  0
 11 12  1  0
 12 13  1  0
 10 14  1  0
 13 14  1  0
 14 15  1  1
 15 16  2  0
 16 17  1  0
 17 18  2  0
 15 19  1  0
 18 19  1  0
  7 20  1  0
  4 21  1  0
 20 21  1  0
M  END
