piperidine-amides-15135-covalent
     RDKit          3D

 19 20  0  0  0  0  0  0  0  0999 V2000
    7.1160   -3.2810   19.2370 C   0  0  0  0  0  0  0  0  0  0  0  0
    6.3910   -4.0580   20.2420 C   0  0  0  0  0  0  0  0  0  0  0  0
    5.3220   -4.6000   19.9050 O   0  0  0  0  0  0  0  0  0  0  0  0
    6.9320   -4.2250   21.5410 N   0  0  0  0  0  0  0  0  0  0  0  0
    7.6880   -3.1480   22.1220 C   0  0  0  0  0  0  0  0  0  0  0  0
    6.9260   -2.5770   23.2750 C   0  0  0  0  0  0  0  0  0  0  0  0
    6.6370   -3.7370   24.1930 C   0  0  0  0  0  0  0  0  0  0  0  0
    5.8080   -3.2620   25.3480 C   0  0  0  0  0  0  0  0  0  0  0  0
    4.6140   -3.0740   25.1190 O   0  0  0  0  0  0  0  0  0  0  0  0
    6.4320   -3.0670   26.5800 N   0  0  0  0  0  0  0  0  0  0  0  0
    6.1030   -3.8200   27.7490 C   0  0  0  0  0  0  0  0  0  0  0  0
    5.2770   -4.9370   27.5150 C   0  0  1  0  0  0  0  0  0  0  0  0
    5.7280   -6.2140   27.7330 C   0  0  0  0  0  0  0  0  0  0  0  0
    5.0070   -6.9800   28.6480 C   0  0  0  0  0  0  0  0  0  0  0  0
    3.9720   -5.9700   29.0790 C   0  0  0  0  0  0  0  0  0  0  0  0
    4.1420   -4.8030   28.4290 N   0  0  0  0  0  0  0  0  0  0  0  0
    3.8250   -3.6390   29.0040 C   0  0  0  0  0  0  0  0  0  0  0  0
    5.8740   -4.8640   23.5830 C   0  0  0  0  0  0  0  0  0  0  0  0
    6.4640   -5.3380   22.2870 C   0  0  0  0  0  0  0  0  0  0  0  0
  1  2  1  0
  2  3  2  0
  2  4  1  0
  4  5  1  0
  5  6  1  0
  6  7  1  0
  7  8  1  0
  8  9  2  0
  8 10  1  0
 10 11  1  0
 12 11  1  1
 12 13  1  0
 13 14  1  0
 14 15  1  0
 12 16  1  0
 15 16  1  0
 16 17  1  0
  7 18  1  0
  4 19  1  0
 18 19  1  0
M  END
