piperidine-amides-11079-covalent
     RDKit          3D

 20 20  0  0  0  0  0  0  0  0999 V2000
    7.1610   -3.2610   19.1760 C   0  0  0  0  0  0  0  0  0  0  0  0
    6.3350   -3.9580   20.1610 C   0  0  0  0  0  0  0  0  0  0  0  0
    5.2340   -4.4180   19.8240 O   0  0  0  0  0  0  0  0  0  0  0  0
    6.7870   -4.1780   21.4580 N   0  0  0  0  0  0  0  0  0  0  0  0
    6.6060   -5.4400   22.1290 C   0  0  0  0  0  0  0  0  0  0  0  0
    5.8540   -5.0910   23.3740 C   0  0  0  0  0  0  0  0  0  0  0  0
    6.6100   -4.0890   24.1860 C   0  0  0  0  0  0  0  0  0  0  0  0
    5.8910   -3.8390   25.4550 C   0  0  0  0  0  0  0  0  0  0  0  0
    5.4200   -2.6990   25.7440 O   0  0  0  0  0  0  0  0  0  0  0  0
    5.6870   -4.9110   26.3540 N   0  0  0  0  0  0  0  0  0  0  0  0
    5.8730   -4.8100   27.8200 C   0  0  2  0  0  0  0  0  0  0  0  0
    6.5410   -6.0310   28.3150 C   0  0  0  0  0  0  0  0  0  0  0  0
    4.5210   -4.9610   28.4740 C   0  0  0  0  0  0  0  0  0  0  0  0
    4.7070   -5.4940   29.5860 O   0  0  0  0  0  0  0  0  0  0  0  0
    6.5860   -3.5560   28.2540 C   0  0  0  0  0  0  0  0  0  0  0  0
    5.5660   -2.7250   28.9980 C   0  0  0  0  0  0  0  0  0  0  0  0
    6.0720   -1.3320   28.9970 C   0  0  0  0  0  0  0  0  0  0  0  0
    7.2550   -1.1100   29.6490 C   0  0  0  0  0  0  0  0  0  0  0  0
    6.8600   -2.8170   23.4250 C   0  0  0  0  0  0  0  0  0  0  0  0
    7.5750   -3.1650   22.1410 C   0  0  0  0  0  0  0  0  0  0  0  0
  1  2  1  0
  2  3  2  0
  2  4  1  0
  4  5  1  0
  5  6  1  0
  6  7  1  0
  7  8  1  0
  8  9  2  0
  8 10  1  0
 11 10  1  0
 11 12  1  1
 11 13  1  0
 13 14  1  0
 11 15  1  0
 15 16  1  0
 16 17  1  0
 17 18  1  0
  7 19  1  0
  4 20  1  0
 19 20  1  0
M  END
