piperidine-amides-8074-covalent
     RDKit          3D

 26 28  0  0  0  0  0  0  0  0999 V2000
    7.0520   -3.3300   19.3250 C   0  0  0  0  0  0  0  0  0  0  0  0
    6.3790   -4.1710   20.3120 C   0  0  0  0  0  0  0  0  0  0  0  0
    5.3550   -4.7870   19.9650 O   0  0  0  0  0  0  0  0  0  0  0  0
    6.9280   -4.3080   21.6090 N   0  0  0  0  0  0  0  0  0  0  0  0
    7.6660   -3.1950   22.1550 C   0  0  0  0  0  0  0  0  0  0  0  0
    7.4910   -3.1530   23.6370 C   0  0  0  0  0  0  0  0  0  0  0  0
    6.0890   -3.6330   23.9050 C   0  0  0  0  0  0  0  0  0  0  0  0
    5.6830   -3.2560   25.2850 C   0  0  0  0  0  0  0  0  0  0  0  0
    4.4990   -3.3930   25.5780 O   0  0  0  0  0  0  0  0  0  0  0  0
    6.6780   -2.7740   26.1120 N   0  0  0  0  0  0  0  0  0  0  0  0
    6.4920   -1.5950   26.8780 C   0  0  0  0  0  0  0  0  0  0  0  0
    6.1090   -0.2920   26.4960 C   0  0  0  0  0  0  0  0  0  0  0  0
    5.9390    0.8230   27.3000 C   0  0  0  0  0  0  0  0  0  0  0  0
    6.1100    0.8880   28.6710 C   0  0  0  0  0  0  0  0  0  0  0  0
    6.5170   -0.4080   29.2650 C   0  0  0  0  0  0  0  0  0  0  0  0
    6.6950   -0.4440   30.6010 N   0  0  0  0  0  0  0  0  0  0  0  0
    5.6720   -0.5440   31.4130 C   0  0  0  0  0  0  0  0  0  0  0  0
    4.8180   -1.4600   31.2620 O   0  0  0  0  0  0  0  0  0  0  0  0
    5.5920    0.4560   32.5030 C   0  0  0  0  0  0  0  0  0  0  0  0
    6.8520    1.2140   32.2160 N   0  0  0  0  0  0  0  0  0  0  0  0
    7.1070    2.6000   32.5500 C   0  0  0  0  0  0  0  0  0  0  0  0
    7.3440    0.7190   31.0520 C   0  0  0  0  0  0  0  0  0  0  0  0
    8.3690    1.3420   30.4110 O   0  0  0  0  0  0  0  0  0  0  0  0
    6.6980   -1.5900   28.3640 C   0  0  0  0  0  0  0  0  0  0  0  0
    6.1130   -5.1210   23.7460 C   0  0  0  0  0  0  0  0  0  0  0  0
    6.5690   -5.4890   22.3610 C   0  0  0  0  0  0  0  0  0  0  0  0
  1  2  1  0
  2  3  2  0
  2  4  1  0
  4  5  1  0
  5  6  1  0
  6  7  1  0
  7  8  1  0
  8  9  2  0
  8 10  1  0
 10 11  1  0
 11 12  2  0
 12 13  1  0
 13 14  2  0
 14 15  1  0
 15 16  1  0
 16 17  1  0
 17 18  2  0
 17 19  1  0
 19 20  1  0
 20 21  1  0
 16 22  1  0
 20 22  1  0
 22 23  2  0
 11 24  1  0
 15 24  2  0
  7 25  1  0
  4 26  1  0
 25 26  1  0
M  END
