piperidine-amides-12522-covalent
     RDKit          3D

 23 24  0  0  0  0  0  0  0  0999 V2000
    7.0960   -3.2890   19.1860 C   0  0  0  0  0  0  0  0  0  0  0  0
    6.3650   -4.0460   20.2290 C   0  0  0  0  0  0  0  0  0  0  0  0
    5.2780   -4.5450   19.8830 O   0  0  0  0  0  0  0  0  0  0  0  0
    6.9060   -4.2380   21.5100 N   0  0  0  0  0  0  0  0  0  0  0  0
    7.6670   -3.2110   22.1370 C   0  0  0  0  0  0  0  0  0  0  0  0
    7.1890   -2.9350   23.4760 C   0  0  0  0  0  0  0  0  0  0  0  0
    5.9140   -3.6190   23.7700 C   0  0  0  0  0  0  0  0  0  0  0  0
    5.5440   -3.3560   25.1680 C   0  0  0  0  0  0  0  0  0  0  0  0
    4.3380   -3.2870   25.4670 O   0  0  0  0  0  0  0  0  0  0  0  0
    6.5400   -3.1820   26.1190 N   0  0  0  0  0  0  0  0  0  0  0  0
    6.4420   -2.1430   27.1360 C   0  0  0  0  0  0  0  0  0  0  0  0
    6.1870   -2.6770   28.4900 C   0  0  1  0  0  0  0  0  0  0  0  0
    4.8000   -3.0960   28.6260 C   0  0  0  0  0  0  0  0  0  0  0  0
    6.8780   -3.6500   28.8870 O   0  0  0  0  0  0  0  0  0  0  0  0
    6.4790   -4.9910   28.9790 C   0  0  0  0  0  0  0  0  0  0  0  0
    6.2810   -1.7720   29.5290 C   0  0  0  0  0  0  0  0  0  0  0  0
    7.5050   -1.2290   29.7420 C   0  0  0  0  0  0  0  0  0  0  0  0
    7.7710   -0.3180   30.7150 C   0  0  0  0  0  0  0  0  0  0  0  0
    6.7940    0.1260   31.5610 C   0  0  0  0  0  0  0  0  0  0  0  0
    5.5110   -0.3980   31.3880 C   0  0  0  0  0  0  0  0  0  0  0  0
    5.2290   -1.3930   30.3280 C   0  0  0  0  0  0  0  0  0  0  0  0
    5.9170   -5.0970   23.5400 C   0  0  0  0  0  0  0  0  0  0  0  0
    6.6410   -5.4440   22.2630 C   0  0  0  0  0  0  0  0  0  0  0  0
  1  2  1  0
  2  3  2  0
  2  4  1  0
  4  5  1  0
  5  6  1  0
  6  7  1  0
  7  8  1  0
  8  9  2  0
  8 10  1  0
 10 11  1  0
 11 12  1  0
 12 13  1  6
 12 14  1  0
 14 15  1  0
 12 16  1  0
 16 17  2  0
 17 18  1  0
 18 19  2  0
 19 20  1  0
 16 21  1  0
 20 21  2  0
  7 22  1  0
  4 23  1  0
 22 23  1  0
M  END
