piperidine-amides-8578-covalent
     RDKit          3D

 24 26  0  0  0  0  0  0  0  0999 V2000
    7.0480   -3.2990   19.3330 C   0  0  0  0  0  0  0  0  0  0  0  0
    6.2980   -4.0790   20.3170 C   0  0  0  0  0  0  0  0  0  0  0  0
    5.2800   -4.6680   19.9200 O   0  0  0  0  0  0  0  0  0  0  0  0
    6.7360   -4.1950   21.6610 N   0  0  0  0  0  0  0  0  0  0  0  0
    6.6610   -5.4840   22.2740 C   0  0  0  0  0  0  0  0  0  0  0  0
    6.2280   -5.2990   23.6910 C   0  0  0  0  0  0  0  0  0  0  0  0
    6.0220   -3.8140   23.8670 C   0  0  0  0  0  0  0  0  0  0  0  0
    5.5680   -3.5070   25.2720 C   0  0  0  0  0  0  0  0  0  0  0  0
    4.3540   -3.5340   25.4820 O   0  0  0  0  0  0  0  0  0  0  0  0
    6.4970   -3.1990   26.2510 N   0  0  0  0  0  0  0  0  0  0  0  0
    6.6010   -1.8710   26.7280 C   0  0  0  0  0  0  0  0  0  0  0  0
    6.3740   -1.6880   28.0970 C   0  0  0  0  0  0  0  0  0  0  0  0
    5.5030   -2.2690   28.9450 C   0  0  0  0  0  0  0  0  0  0  0  0
    5.7230   -1.6850   30.1960 N   0  0  0  0  0  0  0  0  0  0  0  0
    6.6900   -0.7790   30.1510 N   0  0  0  0  0  0  0  0  0  0  0  0
    7.0910   -0.0900   31.2130 C   0  0  0  0  0  0  0  0  0  0  0  0
    8.5110    0.2940   31.4970 C   0  0  0  0  0  0  0  0  0  0  0  0
    8.8380    1.0860   32.7740 C   0  0  0  0  0  0  0  0  0  0  0  0
    7.7680    1.4650   33.7090 C   0  0  0  0  0  0  0  0  0  0  0  0
    6.3480    1.0780   33.4150 C   0  0  0  0  0  0  0  0  0  0  0  0
    6.0750    0.2760   32.1100 C   0  0  0  0  0  0  0  0  0  0  0  0
    7.1420   -0.7260   28.8820 N   0  0  0  0  0  0  0  0  0  0  0  0
    7.3240   -3.0850   23.5860 C   0  0  0  0  0  0  0  0  0  0  0  0
    7.6500   -3.2320   22.2440 C   0  0  0  0  0  0  0  0  0  0  0  0
  1  2  1  0
  2  3  2  0
  2  4  1  0
  4  5  1  0
  5  6  1  0
  6  7  1  0
  7  8  1  0
  8  9  2  0
  8 10  1  0
 10 11  1  0
 11 12  1  0
 12 13  1  0
 13 14  2  0
 14 15  1  0
 15 16  1  0
 16 17  2  0
 17 18  1  0
 18 19  2  0
 19 20  1  0
 16 21  1  0
 20 21  2  0
 12 22  2  0
 15 22  1  0
  7 23  1  0
  4 24  1  0
 23 24  1  0
M  END
