piperidine-amides-31465-covalent
     RDKit          3D

 27 29  0  0  0  0  0  0  0  0999 V2000
    7.1090   -3.2770   19.3710 C   0  0  0  0  0  0  0  0  0  0  0  0
    6.3660   -4.0530   20.3460 C   0  0  0  0  0  0  0  0  0  0  0  0
    5.3600   -4.7190   19.9420 O   0  0  0  0  0  0  0  0  0  0  0  0
    6.7260   -4.1220   21.7130 N   0  0  0  0  0  0  0  0  0  0  0  0
    6.6510   -5.4790   22.3090 C   0  0  0  0  0  0  0  0  0  0  0  0
    6.1890   -5.2150   23.8020 C   0  0  0  0  0  0  0  0  0  0  0  0
    6.1440   -3.7200   24.0280 C   0  0  0  0  0  0  0  0  0  0  0  0
    5.4560   -3.3720   25.4350 C   0  0  0  0  0  0  0  0  0  0  0  0
    4.3800   -3.9440   25.5100 O   0  0  0  0  0  0  0  0  0  0  0  0
    6.1840   -2.5780   26.1180 N   0  0  0  0  0  0  0  0  0  0  0  0
    6.9460   -1.4800   26.3780 C   0  0  0  0  0  0  0  0  0  0  0  0
    6.2000   -3.0940   27.4430 C   0  0  1  0  0  0  0  0  0  0  0  0
    6.0250   -2.2030   28.5370 C   0  0  0  0  0  0  0  0  0  0  0  0
    7.1330   -1.6040   29.2980 C   0  0  0  0  0  0  0  0  0  0  0  0
    6.7430   -0.6690   30.4400 C   0  0  0  0  0  0  0  0  0  0  0  0
    5.3830   -0.4390   30.6950 C   0  0  0  0  0  0  0  0  0  0  0  0
    5.2470    0.6710   32.0660 Cl  0  0  0  0  0  0  0  0  0  0  0  0
    4.1530   -0.8570   30.1540 C   0  0  0  0  0  0  0  0  0  0  0  0
    4.6790   -1.7670   29.0430 C   0  0  0  0  0  0  0  0  0  0  0  0
    5.1430   -3.9720   28.0560 C   0  0  0  0  0  0  0  0  0  0  0  0
    5.8040   -4.8230   28.9540 C   0  0  0  0  0  0  0  0  0  0  0  0
    5.1180   -5.7630   29.6920 C   0  0  0  0  0  0  0  0  0  0  0  0
    3.7920   -5.8420   29.5280 C   0  0  0  0  0  0  0  0  0  0  0  0
    3.4230   -4.9180   28.6140 C   0  0  0  0  0  0  0  0  0  0  0  0
    3.6970   -4.0770   27.8900 N   0  0  0  0  0  0  0  0  0  0  0  0
    7.3510   -2.9200   23.6890 C   0  0  0  0  0  0  0  0  0  0  0  0
    7.6530   -3.1380   22.2410 C   0  0  0  0  0  0  0  0  0  0  0  0
  1  2  1  0
  2  3  2  0
  2  4  1  0
  4  5  1  0
  5  6  1  0
  6  7  1  0
  7  8  1  0
  8  9  2  0
  8 10  1  0
 10 11  1  0
 12 10  1  6
 12 13  1  0
 13 14  2  0
 14 15  1  0
 15 16  2  0
 16 17  1  0
 16 18  1  0
 13 19  1  0
 18 19  2  0
 12 20  1  0
 20 21  2  0
 21 22  1  0
 22 23  2  0
 23 24  1  0
 20 25  1  0
 24 25  2  0
  7 26  1  0
  4 27  1  0
 26 27  1  0
M  END
