piperidine-amides-8689-covalent
     RDKit          3D

 23 24  0  0  0  0  0  0  0  0999 V2000
    7.1020   -3.2900   19.2480 C   0  0  0  0  0  0  0  0  0  0  0  0
    6.3950   -4.0850   20.2490 C   0  0  0  0  0  0  0  0  0  0  0  0
    5.3290   -4.6290   19.9180 O   0  0  0  0  0  0  0  0  0  0  0  0
    6.9480   -4.2680   21.5410 N   0  0  0  0  0  0  0  0  0  0  0  0
    7.7000   -3.1880   22.1280 C   0  0  0  0  0  0  0  0  0  0  0  0
    7.3610   -3.0830   23.5810 C   0  0  0  0  0  0  0  0  0  0  0  0
    5.9570   -3.6210   23.7050 C   0  0  0  0  0  0  0  0  0  0  0  0
    5.3600   -3.2250   25.0110 C   0  0  0  0  0  0  0  0  0  0  0  0
    4.3230   -3.7850   25.3480 O   0  0  0  0  0  0  0  0  0  0  0  0
    6.0080   -2.2470   25.7330 N   0  0  0  0  0  0  0  0  0  0  0  0
    6.0250   -2.2660   27.1390 C   0  0  0  0  0  0  0  0  0  0  0  0
    7.2490   -1.8640   27.6290 C   0  0  2  0  0  0  0  0  0  0  0  0
    8.2810   -2.2670   26.8260 C   0  0  0  0  0  0  0  0  0  0  0  0
    7.5490   -2.3070   28.7300 O   0  0  0  0  0  0  0  0  0  0  0  0
    7.7620   -3.5440   28.4150 C   0  0  0  0  0  0  0  0  0  0  0  0
    8.9440   -3.8450   27.5940 C   0  0  0  0  0  0  0  0  0  0  0  0
    9.3260   -5.2340   27.1270 C   0  0  0  0  0  0  0  0  0  0  0  0
    8.3980   -6.2770   27.5720 C   0  0  0  0  0  0  0  0  0  0  0  0
    7.2200   -5.8600   28.4100 C   0  0  0  0  0  0  0  0  0  0  0  0
    6.2000   -6.9150   28.9090 C   0  0  0  0  0  0  0  0  0  0  0  0
    6.9550   -4.5910   28.7820 C   0  0  0  0  0  0  0  0  0  0  0  0
    6.0580   -5.1060   23.6050 C   0  0  0  0  0  0  0  0  0  0  0  0
    6.5720   -5.4780   22.2430 C   0  0  0  0  0  0  0  0  0  0  0  0
  1  2  1  0
  2  3  2  0
  2  4  1  0
  4  5  1  0
  5  6  1  0
  6  7  1  0
  7  8  1  0
  8  9  2  0
  8 10  1  0
 10 11  1  0
 11 12  1  0
 12 13  1  6
 12 14  1  0
 14 15  1  0
 15 16  2  0
 16 17  1  0
 17 18  2  0
 18 19  1  0
 19 20  1  0
 15 21  1  0
 19 21  2  0
  7 22  1  0
  4 23  1  0
 22 23  1  0
M  END
