piperidine-amides-27264-covalent
     RDKit          3D

 26 28  0  0  0  0  0  0  0  0999 V2000
    7.1170   -3.3200   19.3020 C   0  0  0  0  0  0  0  0  0  0  0  0
    6.3590   -4.1010   20.2850 C   0  0  0  0  0  0  0  0  0  0  0  0
    5.2730   -4.6010   19.9010 O   0  0  0  0  0  0  0  0  0  0  0  0
    6.8730   -4.3100   21.5580 N   0  0  0  0  0  0  0  0  0  0  0  0
    6.6570   -5.5610   22.2460 C   0  0  0  0  0  0  0  0  0  0  0  0
    6.1640   -5.2390   23.6240 C   0  0  0  0  0  0  0  0  0  0  0  0
    5.9110   -3.7610   23.7600 C   0  0  0  0  0  0  0  0  0  0  0  0
    5.3450   -3.4100   25.0770 C   0  0  0  0  0  0  0  0  0  0  0  0
    4.2660   -2.7810   25.0870 O   0  0  0  0  0  0  0  0  0  0  0  0
    5.9100   -3.7300   26.3090 N   0  0  0  0  0  0  0  0  0  0  0  0
    5.1000   -3.4770   27.4730 C   0  0  0  0  0  0  0  0  0  0  0  0
    5.7420   -4.1540   28.6460 C   0  0  0  0  0  0  0  0  0  0  0  0
    7.0790   -4.3480   28.6510 C   0  0  0  0  0  0  0  0  0  0  0  0
    7.9110   -3.2440   28.4990 C   0  0  2  0  0  0  0  0  0  0  0  0
    7.2760   -2.0130   28.6420 C   0  0  0  0  0  0  0  0  0  0  0  0
    7.8830   -1.0760   29.3940 N   0  0  0  0  0  0  0  0  0  0  0  0
    8.4250   -3.2340   27.1390 C   0  0  0  0  0  0  0  0  0  0  0  0
    9.1340   -4.3420   26.7540 C   0  0  0  0  0  0  0  0  0  0  0  0
    9.7720   -4.6570   25.4670 C   0  0  0  0  0  0  0  0  0  0  0  0
    9.5900   -3.5350   24.4550 C   0  0  0  0  0  0  0  0  0  0  0  0
    8.8450   -2.3070   24.7940 C   0  0  0  0  0  0  0  0  0  0  0  0
    8.2270   -2.1000   26.1440 C   0  0  0  0  0  0  0  0  0  0  0  0
    7.1610   -5.3220   27.7160 C   0  0  0  0  0  0  0  0  0  0  0  0
    6.7600   -4.8940   26.3290 C   0  0  0  0  0  0  0  0  0  0  0  0
    7.1690   -3.0000   23.5470 C   0  0  0  0  0  0  0  0  0  0  0  0
    7.7010   -3.2680   22.1470 C   0  0  0  0  0  0  0  0  0  0  0  0
  1  2  1  0
  2  3  2  0
  2  4  1  0
  4  5  1  0
  5  6  1  0
  6  7  1  0
  7  8  1  0
  8  9  2  0
  8 10  1  0
 10 11  1  0
 11 12  1  0
 12 13  1  0
 13 14  1  0
 14 15  1  6
 15 16  3  0
 14 17  1  0
 17 18  2  0
 18 19  1  0
 19 20  2  0
 20 21  1  0
 17 22  1  0
 21 22  2  0
 13 23  1  0
 10 24  1  0
 23 24  1  0
  7 25  1  0
  4 26  1  0
 25 26  1  0
M  END
