piperidine-amides-30488-covalent
     RDKit          3D

 26 28  0  0  0  0  0  0  0  0999 V2000
    7.1010   -3.3340   19.2960 C   0  0  0  0  0  0  0  0  0  0  0  0
    6.3980   -4.1500   20.2840 C   0  0  0  0  0  0  0  0  0  0  0  0
    5.3510   -4.7320   19.9530 O   0  0  0  0  0  0  0  0  0  0  0  0
    6.9140   -4.3400   21.5760 N   0  0  0  0  0  0  0  0  0  0  0  0
    6.6670   -5.5660   22.3020 C   0  0  0  0  0  0  0  0  0  0  0  0
    6.2870   -5.1710   23.7110 C   0  0  0  0  0  0  0  0  0  0  0  0
    6.2360   -3.6800   23.8980 C   0  0  0  0  0  0  0  0  0  0  0  0
    5.7000   -3.2570   25.2040 C   0  0  0  0  0  0  0  0  0  0  0  0
    4.8480   -2.3280   25.2700 O   0  0  0  0  0  0  0  0  0  0  0  0
    6.0580   -3.8550   26.4150 N   0  0  0  0  0  0  0  0  0  0  0  0
    5.4560   -5.1770   26.6530 C   0  0  0  0  0  0  0  0  0  0  0  0
    5.8890   -5.7330   27.9330 C   0  0  0  0  0  0  0  0  0  0  0  0
    5.8040   -4.7630   28.9700 C   0  0  0  0  0  0  0  0  0  0  0  0
    4.1500   -4.3130   29.3540 S   0  0  0  0  0  0  0  0  0  0  0  0
    4.1210   -3.2190   30.3460 O   0  0  0  0  0  0  0  0  0  0  0  0
    3.4860   -3.8560   28.0750 O   0  0  0  0  0  0  0  0  0  0  0  0
    3.2590   -5.6770   30.0270 C   0  0  0  0  0  0  0  0  0  0  0  0
    2.5630   -5.3590   31.3380 C   0  0  0  0  0  0  0  0  0  0  0  0
    1.7950   -6.4840   31.9450 C   0  0  0  0  0  0  0  0  0  0  0  0
    1.6930   -7.7430   31.3990 C   0  0  0  0  0  0  0  0  0  0  0  0
    2.3490   -7.9940   30.1920 C   0  0  0  0  0  0  0  0  0  0  0  0
    3.1490   -6.9270   29.4960 C   0  0  0  0  0  0  0  0  0  0  0  0
    6.5900   -3.6700   28.7700 C   0  0  0  0  0  0  0  0  0  0  0  0
    6.3310   -2.9220   27.4900 C   0  0  0  0  0  0  0  0  0  0  0  0
    7.5600   -3.1040   23.5650 C   0  0  0  0  0  0  0  0  0  0  0  0
    7.7060   -3.2660   22.1100 C   0  0  0  0  0  0  0  0  0  0  0  0
  1  2  1  0
  2  3  2  0
  2  4  1  0
  4  5  1  0
  5  6  1  0
  6  7  1  0
  7  8  1  0
  8  9  2  0
  8 10  1  0
 10 11  1  0
 11 12  1  0
 12 13  1  0
 13 14  1  0
 14 15  2  0
 14 16  2  0
 14 17  1  0
 17 18  2  0
 18 19  1  0
 19 20  2  0
 20 21  1  0
 17 22  1  0
 21 22  2  0
 13 23  1  0
 10 24  1  0
 23 24  1  0
  7 25  1  0
  4 26  1  0
 25 26  1  0
M  END
