piperidine-amides-7084-covalent
     RDKit          3D

 22 22  0  0  0  0  0  0  0  0999 V2000
    7.1330   -3.2840   19.2020 C   0  0  0  0  0  0  0  0  0  0  0  0
    6.3310   -4.0160   20.1860 C   0  0  0  0  0  0  0  0  0  0  0  0
    5.2350   -4.5160   19.8650 O   0  0  0  0  0  0  0  0  0  0  0  0
    6.8210   -4.2120   21.4760 N   0  0  0  0  0  0  0  0  0  0  0  0
    7.5960   -3.1760   22.1200 C   0  0  0  0  0  0  0  0  0  0  0  0
    6.7220   -2.6200   23.2440 C   0  0  0  0  0  0  0  0  0  0  0  0
    6.5690   -3.7670   24.2130 C   0  0  0  0  0  0  0  0  0  0  0  0
    5.8300   -3.3130   25.4060 C   0  0  0  0  0  0  0  0  0  0  0  0
    4.5960   -3.1320   25.3110 O   0  0  0  0  0  0  0  0  0  0  0  0
    6.5330   -3.0870   26.6160 N   0  0  0  0  0  0  0  0  0  0  0  0
    6.2810   -3.8660   27.8090 C   0  0  0  0  0  0  0  0  0  0  0  0
    5.9880   -5.3180   27.4600 C   0  0  0  0  0  0  0  0  0  0  0  0
    4.6790   -5.6000   27.9320 O   0  0  0  0  0  0  0  0  0  0  0  0
    4.2420   -6.8260   28.3720 C   0  0  0  0  0  0  0  0  0  0  0  0
    3.0820   -6.9100   29.1070 C   0  0  0  0  0  0  0  0  0  0  0  0
    3.4670   -7.4150   30.3380 F   0  0  0  0  0  0  0  0  0  0  0  0
    2.8180   -5.5880   29.4390 F   0  0  0  0  0  0  0  0  0  0  0  0
    2.0190   -7.5620   28.4820 C   0  0  0  0  0  0  0  0  0  0  0  0
    0.8910   -7.4390   29.2710 F   0  0  0  0  0  0  0  0  0  0  0  0
    1.7810   -6.9530   27.2640 F   0  0  0  0  0  0  0  0  0  0  0  0
    5.9100   -4.9540   23.6070 C   0  0  0  0  0  0  0  0  0  0  0  0
    6.4250   -5.3590   22.2530 C   0  0  0  0  0  0  0  0  0  0  0  0
  1  2  1  0
  2  3  2  0
  2  4  1  0
  4  5  1  0
  5  6  1  0
  6  7  1  0
  7  8  1  0
  8  9  2  0
  8 10  1  0
 10 11  1  0
 11 12  1  0
 12 13  1  0
 13 14  1  0
 14 15  1  0
 15 16  1  0
 15 17  1  0
 15 18  1  0
 18 19  1  0
 18 20  1  0
  7 21  1  0
  4 22  1  0
 21 22  1  0
M  END
