piperidine-amides-33247-covalent
     RDKit          3D

 29 32  0  0  0  0  0  0  0  0999 V2000
    7.1360   -3.3410   19.3000 C   0  0  0  0  0  0  0  0  0  0  0  0
    6.4620   -4.1750   20.3030 C   0  0  0  0  0  0  0  0  0  0  0  0
    5.3850   -4.7260   19.9580 O   0  0  0  0  0  0  0  0  0  0  0  0
    7.0540   -4.3900   21.5740 N   0  0  0  0  0  0  0  0  0  0  0  0
    6.5390   -5.4170   22.3940 C   0  0  0  0  0  0  0  0  0  0  0  0
    6.0050   -4.9560   23.6780 C   0  0  0  0  0  0  0  0  0  0  0  0
    6.5700   -3.7060   24.2580 C   0  0  0  0  0  0  0  0  0  0  0  0
    5.6020   -3.0930   25.2110 C   0  0  0  0  0  0  0  0  0  0  0  0
    4.4790   -2.7620   24.7910 O   0  0  0  0  0  0  0  0  0  0  0  0
    5.8920   -2.8840   26.5620 N   0  0  0  0  0  0  0  0  0  0  0  0
    5.4400   -3.7700   27.5510 C   0  0  0  0  0  0  0  0  0  0  0  0
    6.1230   -4.8590   27.9290 N   0  0  0  0  0  0  0  0  0  0  0  0
    5.6800   -5.6660   28.8560 C   0  0  0  0  0  0  0  0  0  0  0  0
    6.3830   -6.8600   29.3120 C   0  0  0  0  0  0  0  0  0  0  0  0
    5.8960   -7.6630   30.2770 C   0  0  0  0  0  0  0  0  0  0  0  0
    4.5100   -7.2750   30.9070 C   0  0  0  0  0  0  0  0  0  0  0  0
    3.7530   -6.0090   30.4250 C   0  0  0  0  0  0  0  0  0  0  0  0
    4.4550   -5.1970   29.3180 C   0  0  0  0  0  0  0  0  0  0  0  0
    3.9840   -3.7760   28.5340 S   0  0  0  0  0  0  0  0  0  0  0  0
    6.1360   -1.6520   27.2220 C   0  0  0  0  0  0  0  0  0  0  0  0
    6.8620   -1.6520   28.5440 C   0  0  0  0  0  0  0  0  0  0  0  0
    7.1190   -0.3520   29.2910 C   0  0  0  0  0  0  0  0  0  0  0  0
    6.6290    0.9100   28.6630 C   0  0  0  0  0  0  0  0  0  0  0  0
    6.8350    2.1300   29.2990 C   0  0  0  0  0  0  0  0  0  0  0  0
    5.9730    0.8540   27.4430 C   0  0  0  0  0  0  0  0  0  0  0  0
    5.7210   -0.4440   26.7080 C   0  0  0  0  0  0  0  0  0  0  0  0
    5.0500   -0.3630   25.4970 C   0  0  0  0  0  0  0  0  0  0  0  0
    6.8740   -2.7000   23.1830 C   0  0  0  0  0  0  0  0  0  0  0  0
    7.8030   -3.3200   22.1800 C   0  0  0  0  0  0  0  0  0  0  0  0
  1  2  1  0
  2  3  2  0
  2  4  1  0
  4  5  1  0
  5  6  1  0
  6  7  1  0
  7  8  1  0
  8  9  2  0
  8 10  1  0
 10 11  1  0
 11 12  2  0
 12 13  1  0
 13 14  2  0
 14 15  1  0
 15 16  2  0
 16 17  1  0
 13 18  1  0
 17 18  2  0
 11 19  1  0
 18 19  1  0
 10 20  1  0
 20 21  2  0
 21 22  1  0
 22 23  2  0
 23 24  1  0
 23 25  1  0
 20 26  1  0
 25 26  2  0
 26 27  1  0
  7 28  1  0
  4 29  1  0
 28 29  1  0
M  END
