piperidine-amides-12619-covalent
     RDKit          3D

 23 24  0  0  0  0  0  0  0  0999 V2000
    7.0300   -3.3540   19.2940 C   0  0  0  0  0  0  0  0  0  0  0  0
    6.3690   -4.1820   20.3290 C   0  0  0  0  0  0  0  0  0  0  0  0
    5.3520   -4.8030   19.9680 O   0  0  0  0  0  0  0  0  0  0  0  0
    6.8940   -4.2990   21.6290 N   0  0  0  0  0  0  0  0  0  0  0  0
    7.6700   -3.2500   22.2080 C   0  0  0  0  0  0  0  0  0  0  0  0
    7.2620   -2.9280   23.5690 C   0  0  0  0  0  0  0  0  0  0  0  0
    6.0080   -3.6000   23.9630 C   0  0  0  0  0  0  0  0  0  0  0  0
    5.6270   -3.2220   25.3470 C   0  0  0  0  0  0  0  0  0  0  0  0
    4.4190   -3.2450   25.6450 O   0  0  0  0  0  0  0  0  0  0  0  0
    6.5930   -2.8460   26.2860 N   0  0  0  0  0  0  0  0  0  0  0  0
    6.4960   -1.6030   27.0870 C   0  0  0  0  0  0  0  0  0  0  0  0
    5.9200   -0.3650   26.5390 C   0  0  0  0  0  0  0  0  0  0  0  0
    5.8420    0.8310   27.3620 C   0  0  0  0  0  0  0  0  0  0  0  0
    6.3160    0.7850   28.6660 C   0  0  0  0  0  0  0  0  0  0  0  0
    6.2640    1.7920   29.3970 O   0  0  0  0  0  0  0  0  0  0  0  0
    5.0380    2.1930   29.5940 C   0  0  0  0  0  0  0  0  0  0  0  0
    4.7310    2.8430   30.7480 C   0  0  0  0  0  0  0  0  0  0  0  0
    3.5050    3.4270   30.6210 C   0  0  0  0  0  0  0  0  0  0  0  0
    6.8720   -0.3950   29.2070 C   0  0  0  0  0  0  0  0  0  0  0  0
    7.3250   -0.3860   30.5000 F   0  0  0  0  0  0  0  0  0  0  0  0
    6.9800   -1.5830   28.4730 C   0  0  0  0  0  0  0  0  0  0  0  0
    5.9650   -5.0710   23.7540 C   0  0  0  0  0  0  0  0  0  0  0  0
    6.6620   -5.4750   22.4650 C   0  0  0  0  0  0  0  0  0  0  0  0
  1  2  1  0
  2  3  2  0
  2  4  1  0
  4  5  1  0
  5  6  1  0
  6  7  1  0
  7  8  1  0
  8  9  2  0
  8 10  1  0
 10 11  1  0
 11 12  2  0
 12 13  1  0
 13 14  2  0
 14 15  1  0
 15 16  1  0
 16 17  1  0
 17 18  1  0
 14 19  1  0
 19 20  1  0
 11 21  1  0
 19 21  2  0
  7 22  1  0
  4 23  1  0
 22 23  1  0
M  END
