piperidine-amides-980-covalent
     RDKit          3D

 24 26  0  0  0  0  0  0  0  0999 V2000
    7.0440   -3.3250   19.3470 C   0  0  0  0  0  0  0  0  0  0  0  0
    6.3430   -4.1760   20.3510 C   0  0  0  0  0  0  0  0  0  0  0  0
    5.3770   -4.8650   19.9850 O   0  0  0  0  0  0  0  0  0  0  0  0
    6.8260   -4.2040   21.6840 N   0  0  0  0  0  0  0  0  0  0  0  0
    7.7230   -3.1680   22.1670 C   0  0  0  0  0  0  0  0  0  0  0  0
    7.5170   -3.0530   23.6710 C   0  0  0  0  0  0  0  0  0  0  0  0
    6.1490   -3.5610   23.9110 C   0  0  0  0  0  0  0  0  0  0  0  0
    5.6560   -3.2230   25.2650 C   0  0  0  0  0  0  0  0  0  0  0  0
    4.4380   -3.3270   25.4590 O   0  0  0  0  0  0  0  0  0  0  0  0
    6.5670   -2.8090   26.2330 N   0  0  0  0  0  0  0  0  0  0  0  0
    6.4910   -1.6490   27.0500 C   0  0  0  0  0  0  0  0  0  0  0  0
    6.9420   -1.5950   28.3530 C   0  0  0  0  0  0  0  0  0  0  0  0
    6.8710   -0.4480   29.1720 C   0  0  0  0  0  0  0  0  0  0  0  0
    6.3270    0.7460   28.7260 C   0  0  0  0  0  0  0  0  0  0  0  0
    6.2620    1.9390   29.6150 C   0  0  0  0  0  0  0  0  0  0  0  0
    7.2320    2.0990   30.6020 N   0  0  0  0  0  0  0  0  0  0  0  0
    7.0840    3.1780   31.3270 N   0  0  0  0  0  0  0  0  0  0  0  0
    5.9250    3.7700   30.7680 C   0  0  0  0  0  0  0  0  0  0  0  0
    5.4890    5.0820   31.4220 C   0  0  0  0  0  0  0  0  0  0  0  0
    5.4420    3.0020   29.7310 N   0  0  0  0  0  0  0  0  0  0  0  0
    5.8610    0.7820   27.4610 C   0  0  0  0  0  0  0  0  0  0  0  0
    5.9200   -0.3920   26.5800 C   0  0  0  0  0  0  0  0  0  0  0  0
    5.9740   -5.0240   23.6420 C   0  0  0  0  0  0  0  0  0  0  0  0
    6.6700   -5.3840   22.5030 C   0  0  0  0  0  0  0  0  0  0  0  0
  1  2  1  0
  2  3  2  0
  2  4  1  0
  4  5  1  0
  5  6  1  0
  6  7  1  0
  7  8  1  0
  8  9  2  0
  8 10  1  0
 10 11  1  0
 11 12  2  0
 12 13  1  0
 13 14  2  0
 14 15  1  0
 15 16  2  0
 16 17  1  0
 17 18  1  0
 18 19  1  0
 15 20  1  0
 18 20  2  0
 14 21  1  0
 11 22  1  0
 21 22  2  0
  7 23  1  0
  4 24  1  0
 23 24  1  0
M  END
