piperidine-amides-12524-covalent
     RDKit          3D

 23 24  0  0  0  0  0  0  0  0999 V2000
    7.1360   -3.2580   19.2100 C   0  0  0  0  0  0  0  0  0  0  0  0
    6.3740   -4.0240   20.2230 C   0  0  0  0  0  0  0  0  0  0  0  0
    5.2810   -4.4990   19.8630 O   0  0  0  0  0  0  0  0  0  0  0  0
    6.8970   -4.2450   21.5010 N   0  0  0  0  0  0  0  0  0  0  0  0
    6.5090   -5.3930   22.2350 C   0  0  0  0  0  0  0  0  0  0  0  0
    6.0120   -5.0830   23.5760 C   0  0  0  0  0  0  0  0  0  0  0  0
    6.6150   -3.8990   24.2340 C   0  0  0  0  0  0  0  0  0  0  0  0
    5.6990   -3.4630   25.3130 C   0  0  0  0  0  0  0  0  0  0  0  0
    5.0550   -2.4070   25.1580 O   0  0  0  0  0  0  0  0  0  0  0  0
    5.5220   -4.2330   26.4740 N   0  0  0  0  0  0  0  0  0  0  0  0
    6.5710   -4.5060   27.4760 C   0  0  1  0  0  0  0  0  0  0  0  0
    6.9830   -5.9310   27.4910 C   0  0  0  0  0  0  0  0  0  0  0  0
    7.7400   -3.6510   27.3230 C   0  0  0  0  0  0  0  0  0  0  0  0
    7.9380   -2.5770   28.1680 C   0  0  0  0  0  0  0  0  0  0  0  0
    6.8990   -1.9150   28.8090 C   0  0  0  0  0  0  0  0  0  0  0  0
    5.8490   -2.6660   29.2660 C   0  0  0  0  0  0  0  0  0  0  0  0
    5.6620   -4.0050   29.4540 C   0  0  0  0  0  0  0  0  0  0  0  0
    4.5300   -4.6050   29.9270 C   0  0  0  0  0  0  0  0  0  0  0  0
    3.3880   -3.8950   30.2920 C   0  0  0  0  0  0  0  0  0  0  0  0
    3.4050   -2.5000   30.1660 N   0  0  0  0  0  0  0  0  0  0  0  0
    4.6370   -1.8760   29.6500 C   0  0  0  0  0  0  0  0  0  0  0  0
    6.8800   -2.7330   23.3380 C   0  0  0  0  0  0  0  0  0  0  0  0
    7.6850   -3.2420   22.1800 C   0  0  0  0  0  0  0  0  0  0  0  0
  1  2  1  0
  2  3  2  0
  2  4  1  0
  4  5  1  0
  5  6  1  0
  6  7  1  0
  7  8  1  0
  8  9  2  0
  8 10  1  0
 10 11  1  0
 11 12  1  6
 11 13  1  0
 13 14  1  0
 14 15  1  0
 15 16  1  0
 16 17  2  0
 17 18  1  0
 18 19  2  0
 19 20  1  0
 16 21  1  0
 20 21  2  0
  7 22  1  0
  4 23  1  0
 22 23  1  0
M  END
