piperidine-amides-11841-covalent
     RDKit          3D

 27 29  0  0  0  0  0  0  0  0999 V2000
    7.0730   -3.3770   19.3450 C   0  0  0  0  0  0  0  0  0  0  0  0
    6.3510   -4.1700   20.3290 C   0  0  0  0  0  0  0  0  0  0  0  0
    5.3600   -4.8100   19.9780 O   0  0  0  0  0  0  0  0  0  0  0  0
    6.8230   -4.2510   21.6870 N   0  0  0  0  0  0  0  0  0  0  0  0
    7.7130   -3.2300   22.1920 C   0  0  0  0  0  0  0  0  0  0  0  0
    7.4210   -2.9340   23.6340 C   0  0  0  0  0  0  0  0  0  0  0  0
    6.0590   -3.5170   23.9400 C   0  0  0  0  0  0  0  0  0  0  0  0
    5.6430   -3.1720   25.3270 C   0  0  0  0  0  0  0  0  0  0  0  0
    4.4540   -3.1840   25.6950 O   0  0  0  0  0  0  0  0  0  0  0  0
    6.6540   -2.8170   26.2380 N   0  0  0  0  0  0  0  0  0  0  0  0
    6.4820   -1.6800   27.1180 C   0  0  0  0  0  0  0  0  0  0  0  0
    6.0360   -0.4030   26.4720 C   0  0  0  0  0  0  0  0  0  0  0  0
    5.8470    0.7450   27.2320 C   0  0  0  0  0  0  0  0  0  0  0  0
    6.0650    0.7360   28.6330 C   0  0  0  0  0  0  0  0  0  0  0  0
    5.8670    1.8880   29.3680 C   0  0  0  0  0  0  0  0  0  0  0  0
    6.4680   -0.4510   29.2140 C   0  0  0  0  0  0  0  0  0  0  0  0
    6.6050   -0.3160   30.5480 N   0  0  0  0  0  0  0  0  0  0  0  0
    5.5170   -0.1180   31.4570 C   0  0  0  0  0  0  0  0  0  0  0  0
    5.9750    0.8020   32.3590 C   0  0  0  0  0  0  0  0  0  0  0  0
    7.2440    1.3340   32.1040 C   0  0  1  0  0  0  0  0  0  0  0  0
    8.0830    1.3740   33.1450 N   0  0  0  0  0  0  0  0  0  0  0  0
    8.2920    2.7150   33.7030 C   0  0  0  0  0  0  0  0  0  0  0  0
    8.4130    0.2130   33.7430 C   0  0  0  0  0  0  0  0  0  0  0  0
    7.7390    0.4780   30.9260 C   0  0  0  0  0  0  0  0  0  0  0  0
    6.6850   -1.6390   28.5020 C   0  0  0  0  0  0  0  0  0  0  0  0
    5.9940   -5.0050   23.7970 C   0  0  0  0  0  0  0  0  0  0  0  0
    6.5890   -5.4320   22.4670 C   0  0  0  0  0  0  0  0  0  0  0  0
  1  2  1  0
  2  3  2  0
  2  4  1  0
  4  5  1  0
  5  6  1  0
  6  7  1  0
  7  8  1  0
  8  9  2  0
  8 10  1  0
 10 11  1  0
 11 12  2  0
 12 13  1  0
 13 14  2  0
 14 15  1  0
 14 16  1  0
 16 17  1  0
 17 18  1  0
 18 19  1  0
 19 20  1  0
 20 21  1  1
 21 22  1  0
 21 23  1  0
 17 24  1  0
 20 24  1  0
 11 25  1  0
 16 25  2  0
  7 26  1  0
  4 27  1  0
 26 27  1  0
M  END
