piperidine-amides-32522-covalent
     RDKit          3D

 28 31  0  0  0  0  0  0  0  0999 V2000
    7.0900   -3.3380   19.3030 C   0  0  0  0  0  0  0  0  0  0  0  0
    6.4070   -4.1960   20.3080 C   0  0  0  0  0  0  0  0  0  0  0  0
    5.3790   -4.8140   19.9740 O   0  0  0  0  0  0  0  0  0  0  0  0
    6.9800   -4.3220   21.5910 N   0  0  0  0  0  0  0  0  0  0  0  0
    7.7210   -3.2460   22.1990 C   0  0  0  0  0  0  0  0  0  0  0  0
    6.7930   -2.6350   23.2430 C   0  0  0  0  0  0  0  0  0  0  0  0
    6.5590   -3.6790   24.2820 C   0  0  0  0  0  0  0  0  0  0  0  0
    5.6880   -3.2060   25.3830 C   0  0  0  0  0  0  0  0  0  0  0  0
    4.4880   -3.1060   25.1100 O   0  0  0  0  0  0  0  0  0  0  0  0
    6.1990   -2.8970   26.6510 N   0  0  0  0  0  0  0  0  0  0  0  0
    6.2950   -1.5980   27.1970 C   0  0  0  0  0  0  0  0  0  0  0  0
    5.8470   -0.4070   26.6350 C   0  0  0  0  0  0  0  0  0  0  0  0
    5.9590    0.8610   27.2700 C   0  0  0  0  0  0  0  0  0  0  0  0
    6.5390    0.9590   28.5140 C   0  0  0  0  0  0  0  0  0  0  0  0
    6.6090    2.2070   29.0650 F   0  0  0  0  0  0  0  0  0  0  0  0
    7.0410   -0.2550   29.1650 C   0  0  0  0  0  0  0  0  0  0  0  0
    6.9040   -1.5760   28.4580 C   0  0  0  0  0  0  0  0  0  0  0  0
    5.7350   -3.7660   27.7140 C   0  0  0  0  0  0  0  0  0  0  0  0
    6.3230   -4.9060   28.0710 N   0  0  0  0  0  0  0  0  0  0  0  0
    5.7360   -5.5370   29.1030 C   0  0  0  0  0  0  0  0  0  0  0  0
    6.4080   -6.7480   29.4600 C   0  0  0  0  0  0  0  0  0  0  0  0
    5.6610   -7.3860   30.6560 C   0  0  0  0  0  0  0  0  0  0  0  0
    4.5250   -7.1140   31.4700 C   0  0  0  0  0  0  0  0  0  0  0  0
    4.0530   -5.7710   30.8170 C   0  0  0  0  0  0  0  0  0  0  0  0
    4.6570   -5.0350   29.6810 C   0  0  0  0  0  0  0  0  0  0  0  0
    4.3710   -3.6140   28.8100 S   0  0  0  0  0  0  0  0  0  0  0  0
    5.9150   -4.9330   23.7080 C   0  0  0  0  0  0  0  0  0  0  0  0
    6.5520   -5.4150   22.4520 C   0  0  0  0  0  0  0  0  0  0  0  0
  1  2  1  0
  2  3  2  0
  2  4  1  0
  4  5  1  0
  5  6  1  0
  6  7  1  0
  7  8  1  0
  8  9  2  0
  8 10  1  0
 10 11  1  0
 11 12  2  0
 12 13  1  0
 13 14  2  0
 14 15  1  0
 14 16  1  0
 11 17  1  0
 16 17  2  0
 10 18  1  0
 18 19  2  0
 19 20  1  0
 20 21  2  0
 21 22  1  0
 22 23  2  0
 23 24  1  0
 20 25  1  0
 24 25  2  0
 18 26  1  0
 25 26  1  0
  7 27  1  0
  4 28  1  0
 27 28  1  0
M  END
