piperidine-amides-9012-covalent
     RDKit          3D

 22 24  0  0  0  0  0  0  0  0999 V2000
    7.0460   -3.3360   19.3170 C   0  0  0  0  0  0  0  0  0  0  0  0
    6.3630   -4.1430   20.3330 C   0  0  0  0  0  0  0  0  0  0  0  0
    5.3980   -4.8450   19.9850 O   0  0  0  0  0  0  0  0  0  0  0  0
    6.8020   -4.1670   21.6710 N   0  0  0  0  0  0  0  0  0  0  0  0
    7.7500   -3.1960   22.1810 C   0  0  0  0  0  0  0  0  0  0  0  0
    7.4570   -3.0470   23.6410 C   0  0  0  0  0  0  0  0  0  0  0  0
    6.0860   -3.5550   23.9470 C   0  0  0  0  0  0  0  0  0  0  0  0
    5.6390   -3.2030   25.3150 C   0  0  0  0  0  0  0  0  0  0  0  0
    4.4020   -3.1850   25.5910 O   0  0  0  0  0  0  0  0  0  0  0  0
    6.5330   -2.8820   26.3560 N   0  0  0  0  0  0  0  0  0  0  0  0
    6.4550   -1.6050   27.0980 C   0  0  0  0  0  0  0  0  0  0  0  0
    5.8210   -0.4360   26.4670 C   0  0  0  0  0  0  0  0  0  0  0  0
    5.7390    0.8260   27.1990 C   0  0  0  0  0  0  0  0  0  0  0  0
    6.3030    0.9110   28.5810 C   0  0  0  0  0  0  0  0  0  0  0  0
    6.2940    2.0680   29.4130 N   0  0  0  0  0  0  0  0  0  0  0  0
    6.9130    1.4120   30.5670 C   0  0  0  0  0  0  0  0  0  0  0  0
    6.9900    2.2050   31.7340 O   0  0  0  0  0  0  0  0  0  0  0  0
    7.3280    0.1960   30.4470 O   0  0  0  0  0  0  0  0  0  0  0  0
    6.9570   -0.3250   29.2030 C   0  0  0  0  0  0  0  0  0  0  0  0
    7.0470   -1.5300   28.5330 C   0  0  0  0  0  0  0  0  0  0  0  0
    5.9850   -5.0480   23.7320 C   0  0  0  0  0  0  0  0  0  0  0  0
    6.6830   -5.4060   22.4260 C   0  0  0  0  0  0  0  0  0  0  0  0
  1  2  1  0
  2  3  2  0
  2  4  1  0
  4  5  1  0
  5  6  1  0
  6  7  1  0
  7  8  1  0
  8  9  2  0
  8 10  1  0
 10 11  1  0
 11 12  2  0
 12 13  1  0
 13 14  2  0
 14 15  1  0
 15 16  1  0
 16 17  2  0
 16 18  1  0
 14 19  1  0
 18 19  1  0
 11 20  1  0
 19 20  2  0
  7 21  1  0
  4 22  1  0
 21 22  1  0
M  END
