piperidine-amides-13292-covalent
     RDKit          3D

 19 21  0  0  0  0  0  0  0  0999 V2000
    7.0600   -3.3310   19.3270 C   0  0  0  0  0  0  0  0  0  0  0  0
    6.3890   -4.1710   20.3450 C   0  0  0  0  0  0  0  0  0  0  0  0
    5.3730   -4.7940   19.9670 O   0  0  0  0  0  0  0  0  0  0  0  0
    6.9030   -4.2890   21.6500 N   0  0  0  0  0  0  0  0  0  0  0  0
    7.7100   -3.2460   22.1930 C   0  0  0  0  0  0  0  0  0  0  0  0
    7.3840   -3.0010   23.5790 C   0  0  0  0  0  0  0  0  0  0  0  0
    6.1290   -3.6800   23.9450 C   0  0  0  0  0  0  0  0  0  0  0  0
    5.7340   -3.3170   25.3220 C   0  0  0  0  0  0  0  0  0  0  0  0
    4.5610   -3.5540   25.6680 O   0  0  0  0  0  0  0  0  0  0  0  0
    6.6250   -2.7090   26.2220 N   0  0  0  0  0  0  0  0  0  0  0  0
    6.1180   -1.8650   27.3160 C   0  0  2  0  0  0  0  0  0  0  0  0
    5.7090   -0.6990   26.8970 C   0  0  0  0  0  0  0  0  0  0  0  0
    6.8870   -0.5970   27.8440 C   0  0  2  0  0  0  0  0  0  0  0  0
    6.5810    0.4570   28.4720 C   0  0  0  0  0  0  0  0  0  0  0  0
    6.6130   -0.4980   29.4560 C   0  0  0  0  0  0  0  0  0  0  0  0
    7.6010   -0.4230   30.3790 F   0  0  0  0  0  0  0  0  0  0  0  0
    5.3620   -0.5400   30.0410 F   0  0  0  0  0  0  0  0  0  0  0  0
    6.0860   -5.1470   23.6430 C   0  0  0  0  0  0  0  0  0  0  0  0
    6.6480   -5.4670   22.4230 C   0  0  0  0  0  0  0  0  0  0  0  0
  1  2  1  0
  2  3  2  0
  2  4  1  0
  4  5  1  0
  5  6  1  0
  6  7  1  0
  7  8  1  0
  8  9  2  0
  8 10  1  0
 11 10  1  6
 11 12  1  0
 11 13  1  0
 13 12  1  1
 13 14  1  0
 13 15  1  0
 14 15  1  0
 15 16  1  0
 15 17  1  0
  7 18  1  0
  4 19  1  0
 18 19  1  0
M  END
