piperidine-amides-30708-covalent
     RDKit          3D

 27 29  0  0  0  0  0  0  0  0999 V2000
    7.0830   -3.3150   19.3040 C   0  0  0  0  0  0  0  0  0  0  0  0
    6.3920   -4.1150   20.3160 C   0  0  0  0  0  0  0  0  0  0  0  0
    5.3860   -4.7630   19.9700 O   0  0  0  0  0  0  0  0  0  0  0  0
    6.8670   -4.2100   21.6440 N   0  0  0  0  0  0  0  0  0  0  0  0
    7.7450   -3.1970   22.2300 C   0  0  0  0  0  0  0  0  0  0  0  0
    7.2210   -2.8680   23.6110 C   0  0  0  0  0  0  0  0  0  0  0  0
    5.9330   -3.5860   23.8560 C   0  0  0  0  0  0  0  0  0  0  0  0
    5.2640   -3.2990   25.1520 C   0  0  0  0  0  0  0  0  0  0  0  0
    4.0020   -3.2630   25.1820 O   0  0  0  0  0  0  0  0  0  0  0  0
    5.8870   -3.0650   26.3940 N   0  0  0  0  0  0  0  0  0  0  0  0
    6.4630   -1.7840   26.7070 C   0  0  0  0  0  0  0  0  0  0  0  0
    5.6540   -1.9780   27.9070 C   0  0  0  0  0  0  0  0  0  0  0  0
    6.3570   -2.1310   29.1910 C   0  0  0  0  0  0  0  0  0  0  0  0
    7.3390   -1.0090   29.3970 C   0  0  0  0  0  0  0  0  0  0  0  0
    6.5150    0.2370   29.6530 C   0  0  0  0  0  0  0  0  0  0  0  0
    5.6930    0.4180   28.4530 N   0  0  0  0  0  0  0  0  0  0  0  0
    5.2250    1.7950   28.5120 C   0  0  0  0  0  0  0  0  0  0  0  0
    3.9120    2.1220   28.7240 O   0  0  0  0  0  0  0  0  0  0  0  0
    5.9930    2.7820   28.3740 O   0  0  0  0  0  0  0  0  0  0  0  0
    7.3540    2.6870   28.0670 C   0  0  0  0  0  0  0  0  0  0  0  0
    8.1850    3.2110   29.0650 C   0  0  0  0  0  0  0  0  0  0  0  0
    8.2370    3.9200   27.8020 C   0  0  0  0  0  0  0  0  0  0  0  0
    7.6320    3.2410   26.6260 C   0  0  0  0  0  0  0  0  0  0  0  0
    4.8990   -0.7110   28.0720 C   0  0  0  0  0  0  0  0  0  0  0  0
    4.9910   -3.1780   27.5550 C   0  0  0  0  0  0  0  0  0  0  0  0
    6.0030   -5.0380   23.6400 C   0  0  0  0  0  0  0  0  0  0  0  0
    6.5950   -5.3670   22.4460 C   0  0  0  0  0  0  0  0  0  0  0  0
  1  2  1  0
  2  3  2  0
  2  4  1  0
  4  5  1  0
  5  6  1  0
  6  7  1  0
  7  8  1  0
  8  9  2  0
  8 10  1  0
 10 11  1  0
 12 11  1  0
 12 13  1  0
 13 14  1  0
 14 15  1  0
 15 16  1  0
 16 17  1  0
 17 18  2  0
 17 19  1  0
 20 19  1  0
 20 21  1  0
 20 22  1  0
 20 23  1  0
 12 24  1  0
 16 24  1  0
 10 25  1  0
 12 25  1  0
  7 26  1  0
  4 27  1  0
 26 27  1  0
M  END
