piperidine-amides-23874-covalent
     RDKit          3D

 24 26  0  0  0  0  0  0  0  0999 V2000
    7.0470   -3.3520   19.4070 C   0  0  0  0  0  0  0  0  0  0  0  0
    6.4040   -4.2320   20.4010 C   0  0  0  0  0  0  0  0  0  0  0  0
    5.3970   -4.8660   19.9950 O   0  0  0  0  0  0  0  0  0  0  0  0
    6.9260   -4.4030   21.7230 N   0  0  0  0  0  0  0  0  0  0  0  0
    6.4340   -5.4680   22.5130 C   0  0  0  0  0  0  0  0  0  0  0  0
    5.8890   -5.0640   23.8200 C   0  0  0  0  0  0  0  0  0  0  0  0
    6.2300   -3.7030   24.3320 C   0  0  0  0  0  0  0  0  0  0  0  0
    5.1180   -3.1770   25.2510 C   0  0  0  0  0  0  0  0  0  0  0  0
    4.1000   -2.7020   24.7440 O   0  0  0  0  0  0  0  0  0  0  0  0
    5.2280   -3.2340   26.6660 N   0  0  0  0  0  0  0  0  0  0  0  0
    4.2600   -3.2130   27.6960 C   0  0  0  0  0  0  0  0  0  0  0  0
    4.6260   -3.5190   29.1030 C   0  0  0  0  0  0  0  0  0  0  0  0
    5.5740   -4.7320   29.2080 C   0  0  0  0  0  0  0  0  0  0  0  0
    4.9220   -5.9410   29.2030 C   0  0  0  0  0  0  0  0  0  0  0  0
    4.9290   -6.4640   30.5070 N   0  0  0  0  0  0  0  0  0  0  0  0
    4.1270   -6.0980   31.6310 C   0  0  0  0  0  0  0  0  0  0  0  0
    4.7090   -7.0240   32.4850 C   0  0  0  0  0  0  0  0  0  0  0  0
    4.3470   -7.2340   33.9570 C   0  0  0  0  0  0  0  0  0  0  0  0
    5.6770   -7.8880   32.1940 C   0  0  0  0  0  0  0  0  0  0  0  0
    5.8340   -7.5090   30.8390 N   0  0  0  0  0  0  0  0  0  0  0  0
    6.5160   -4.6610   28.2460 C   0  0  0  0  0  0  0  0  0  0  0  0
    6.3510   -3.9250   26.9370 C   0  0  0  0  0  0  0  0  0  0  0  0
    6.5870   -2.7560   23.2150 C   0  0  0  0  0  0  0  0  0  0  0  0
    7.6010   -3.3410   22.4410 C   0  0  0  0  0  0  0  0  0  0  0  0
  1  2  1  0
  2  3  2  0
  2  4  1  0
  4  5  1  0
  5  6  1  0
  6  7  1  0
  7  8  1  0
  8  9  2  0
  8 10  1  0
 10 11  1  0
 11 12  1  0
 12 13  1  0
 13 14  1  0
 14 15  1  0
 15 16  1  0
 16 17  2  0
 17 18  1  0
 17 19  1  0
 15 20  1  0
 19 20  2  0
 13 21  1  0
 10 22  1  0
 21 22  1  0
  7 23  1  0
  4 24  1  0
 23 24  1  0
M  END
