piperidine-amides-2471-covalent
     RDKit          3D

 26 28  0  0  0  0  0  0  0  0999 V2000
    7.0610   -3.3580   19.3270 C   0  0  0  0  0  0  0  0  0  0  0  0
    6.3500   -4.1630   20.3500 C   0  0  0  0  0  0  0  0  0  0  0  0
    5.3660   -4.8000   19.9730 O   0  0  0  0  0  0  0  0  0  0  0  0
    6.8390   -4.2030   21.6590 N   0  0  0  0  0  0  0  0  0  0  0  0
    7.6780   -3.1580   22.1810 C   0  0  0  0  0  0  0  0  0  0  0  0
    7.0110   -2.5640   23.3780 C   0  0  0  0  0  0  0  0  0  0  0  0
    6.6540   -3.6970   24.3290 C   0  0  0  0  0  0  0  0  0  0  0  0
    5.8360   -3.1390   25.4400 C   0  0  0  0  0  0  0  0  0  0  0  0
    4.6570   -2.8320   25.2220 O   0  0  0  0  0  0  0  0  0  0  0  0
    6.3750   -2.9680   26.7390 N   0  0  0  0  0  0  0  0  0  0  0  0
    6.1600   -1.7460   27.5200 C   0  0  0  0  0  0  0  0  0  0  0  0
    4.7770   -1.9810   28.1230 C   0  0  0  0  0  0  0  0  0  0  0  0
    3.9310   -1.0500   28.6770 C   0  0  0  0  0  0  0  0  0  0  0  0
    3.9890   -1.0450   30.0170 C   0  0  0  0  0  0  0  0  0  0  0  0
    3.2340   -0.2130   30.6970 C   0  0  0  0  0  0  0  0  0  0  0  0
    2.2850    0.7620   30.1170 C   0  0  0  0  0  0  0  0  0  0  0  0
    1.4790    1.6470   30.8410 F   0  0  0  0  0  0  0  0  0  0  0  0
    2.2630    0.7100   28.6010 C   0  0  0  0  0  0  0  0  0  0  0  0
    3.1090   -0.2280   27.6930 C   0  0  0  0  0  0  0  0  0  0  0  0
    6.0080   -0.5040   26.6550 C   0  0  0  0  0  0  0  0  0  0  0  0
    6.1550    0.8150   27.3720 C   0  0  0  0  0  0  0  0  0  0  0  0
    6.6490    0.6390   28.5230 O   0  0  0  0  0  0  0  0  0  0  0  0
    6.3390   -0.5940   28.9510 C   0  0  0  0  0  0  0  0  0  0  0  0
    7.3260   -1.5530   28.4540 C   0  0  0  0  0  0  0  0  0  0  0  0
    5.8720   -4.8090   23.6170 C   0  0  0  0  0  0  0  0  0  0  0  0
    6.5800   -5.3270   22.5430 C   0  0  0  0  0  0  0  0  0  0  0  0
  1  2  1  0
  2  3  2  0
  2  4  1  0
  4  5  1  0
  5  6  1  0
  6  7  1  0
  7  8  1  0
  8  9  2  0
  8 10  1  0
 11 10  1  0
 11 12  1  0
 12 13  1  0
 13 14  2  0
 14 15  1  0
 15 16  2  0
 16 17  1  0
 16 18  1  0
 13 19  1  0
 18 19  2  0
 11 20  1  0
 20 21  1  0
 21 22  1  0
 22 23  1  0
 11 24  1  0
 23 24  1  0
  7 25  1  0
  4 26  1  0
 25 26  1  0
M  END
