piperidine-amides-29106-covalent
     RDKit          3D

 27 30  0  0  0  0  0  0  0  0999 V2000
    6.9980   -3.3670   19.3810 C   0  0  0  0  0  0  0  0  0  0  0  0
    6.3680   -4.2460   20.3730 C   0  0  0  0  0  0  0  0  0  0  0  0
    5.3950   -4.9220   19.9930 O   0  0  0  0  0  0  0  0  0  0  0  0
    6.8690   -4.3480   21.7020 N   0  0  0  0  0  0  0  0  0  0  0  0
    7.6550   -3.2690   22.2410 C   0  0  0  0  0  0  0  0  0  0  0  0
    7.4480   -3.2120   23.7200 C   0  0  0  0  0  0  0  0  0  0  0  0
    6.0610   -3.7720   23.9350 C   0  0  0  0  0  0  0  0  0  0  0  0
    5.3850   -3.1860   25.1600 C   0  0  0  0  0  0  0  0  0  0  0  0
    4.8010   -2.1340   24.9600 O   0  0  0  0  0  0  0  0  0  0  0  0
    5.4000   -3.7990   26.4130 N   0  0  0  0  0  0  0  0  0  0  0  0
    4.1960   -4.0870   27.0780 C   0  0  0  0  0  0  0  0  0  0  0  0
    4.2160   -3.8270   28.4590 C   0  0  0  0  0  0  0  0  0  0  0  0
    5.2840   -4.6690   28.9920 N   0  0  0  0  0  0  0  0  0  0  0  0
    5.2760   -5.6950   29.9410 C   0  0  0  0  0  0  0  0  0  0  0  0
    6.1700   -6.7460   29.9160 C   0  0  0  0  0  0  0  0  0  0  0  0
    6.0020   -7.7210   31.0380 C   0  0  0  0  0  0  0  0  0  0  0  0
    4.8840   -7.4540   32.0590 C   0  0  0  0  0  0  0  0  0  0  0  0
    4.6810   -8.3940   33.1930 C   0  0  0  0  0  0  0  0  0  0  0  0
    3.5710   -8.0970   34.1740 C   0  0  0  0  0  0  0  0  0  0  0  0
    2.7660   -6.8030   33.8490 C   0  0  0  0  0  0  0  0  0  0  0  0
    3.0970   -6.0510   32.7510 C   0  0  0  0  0  0  0  0  0  0  0  0
    4.1070   -6.3450   31.8820 C   0  0  0  0  0  0  0  0  0  0  0  0
    4.2900   -5.4820   30.8480 N   0  0  0  0  0  0  0  0  0  0  0  0
    6.5520   -4.4860   28.3240 C   0  0  0  0  0  0  0  0  0  0  0  0
    6.3750   -3.3800   27.3140 C   0  0  0  0  0  0  0  0  0  0  0  0
    6.1610   -5.2840   23.8880 C   0  0  0  0  0  0  0  0  0  0  0  0
    6.6080   -5.5830   22.4360 C   0  0  0  0  0  0  0  0  0  0  0  0
  1  2  1  0
  2  3  2  0
  2  4  1  0
  4  5  1  0
  5  6  1  0
  6  7  1  0
  7  8  1  0
  8  9  2  0
  8 10  1  0
 10 11  1  0
 11 12  1  0
 12 13  1  0
 13 14  1  0
 14 15  2  0
 15 16  1  0
 16 17  2  0
 17 18  1  0
 18 19  2  0
 19 20  1  0
 20 21  2  0
 17 22  1  0
 21 22  1  0
 14 23  1  0
 22 23  2  0
 13 24  1  0
 10 25  1  0
 24 25  1  0
  7 26  1  0
  4 27  1  0
 26 27  1  0
M  END
