piperidine-amides-6950-covalent
     RDKit          3D

 23 25  0  0  0  0  0  0  0  0999 V2000
    7.0480   -3.3220   19.2820 C   0  0  0  0  0  0  0  0  0  0  0  0
    6.3710   -4.1620   20.2810 C   0  0  0  0  0  0  0  0  0  0  0  0
    5.3440   -4.8000   19.9660 O   0  0  0  0  0  0  0  0  0  0  0  0
    6.8920   -4.3040   21.5760 N   0  0  0  0  0  0  0  0  0  0  0  0
    7.6250   -3.2110   22.1830 C   0  0  0  0  0  0  0  0  0  0  0  0
    6.7290   -2.6530   23.2880 C   0  0  0  0  0  0  0  0  0  0  0  0
    6.5420   -3.8050   24.2380 C   0  0  0  0  0  0  0  0  0  0  0  0
    5.7900   -3.3540   25.4300 C   0  0  0  0  0  0  0  0  0  0  0  0
    4.5360   -3.2950   25.4140 O   0  0  0  0  0  0  0  0  0  0  0  0
    6.5200   -3.0110   26.5870 N   0  0  0  0  0  0  0  0  0  0  0  0
    6.4510   -1.7090   27.1910 C   0  0  0  0  0  0  0  0  0  0  0  0
    7.0240   -1.5500   28.5740 C   0  0  0  0  0  0  0  0  0  0  0  0
    6.9880   -0.3510   29.2160 C   0  0  0  0  0  0  0  0  0  0  0  0
    6.4180    0.7280   28.5770 C   0  0  0  0  0  0  0  0  0  0  0  0
    5.8670    0.6500   27.2840 C   0  0  0  0  0  0  0  0  0  0  0  0
    5.8460   -0.5120   26.5370 C   0  0  0  0  0  0  0  0  0  0  0  0
    5.3810    1.8480   26.8960 N   0  0  0  0  0  0  0  0  0  0  0  0
    4.8320    2.7520   27.7250 C   0  0  0  0  0  0  0  0  0  0  0  0
    3.8370    3.4540   27.5370 O   0  0  0  0  0  0  0  0  0  0  0  0
    5.5930    2.8550   29.0170 C   0  0  0  0  0  0  0  0  0  0  0  0
    6.4090    1.9080   29.2600 O   0  0  0  0  0  0  0  0  0  0  0  0
    5.8660   -4.9710   23.6380 C   0  0  0  0  0  0  0  0  0  0  0  0
    6.4840   -5.4010   22.3850 C   0  0  0  0  0  0  0  0  0  0  0  0
  1  2  1  0
  2  3  2  0
  2  4  1  0
  4  5  1  0
  5  6  1  0
  6  7  1  0
  7  8  1  0
  8  9  2  0
  8 10  1  0
 10 11  1  0
 11 12  2  0
 12 13  1  0
 13 14  2  0
 14 15  1  0
 11 16  1  0
 15 16  2  0
 15 17  1  0
 17 18  1  0
 18 19  2  0
 18 20  1  0
 14 21  1  0
 20 21  1  0
  7 22  1  0
  4 23  1  0
 22 23  1  0
M  END
