piperidine-amides-9020-covalent
     RDKit          3D

 21 22  0  0  0  0  0  0  0  0999 V2000
    7.1030   -3.2810   19.2130 C   0  0  0  0  0  0  0  0  0  0  0  0
    6.3520   -4.0370   20.2190 C   0  0  0  0  0  0  0  0  0  0  0  0
    5.2830   -4.5740   19.8940 O   0  0  0  0  0  0  0  0  0  0  0  0
    6.8400   -4.2220   21.5240 N   0  0  0  0  0  0  0  0  0  0  0  0
    6.5730   -5.4120   22.2870 C   0  0  0  0  0  0  0  0  0  0  0  0
    5.9180   -4.9340   23.5610 C   0  0  0  0  0  0  0  0  0  0  0  0
    6.6790   -3.8290   24.2400 C   0  0  0  0  0  0  0  0  0  0  0  0
    5.9640   -3.2790   25.4150 C   0  0  0  0  0  0  0  0  0  0  0  0
    4.7590   -2.9000   25.2970 O   0  0  0  0  0  0  0  0  0  0  0  0
    6.5620   -3.1380   26.6830 N   0  0  0  0  0  0  0  0  0  0  0  0
    6.3270   -4.1070   27.7830 C   0  0  0  0  0  0  0  0  0  0  0  0
    6.0850   -5.4560   27.2080 C   0  0  0  0  0  0  0  0  0  0  0  0
    4.6080   -6.3210   27.2520 S   0  0  0  0  0  0  0  0  0  0  0  0
    4.4760   -7.2630   26.1250 O   0  0  0  0  0  0  0  0  0  0  0  0
    4.4460   -7.1040   28.5370 O   0  0  0  0  0  0  0  0  0  0  0  0
    3.4570   -4.9650   27.1380 C   0  0  0  0  0  0  0  0  0  0  0  0
    2.1790   -5.5980   26.6260 C   0  0  0  0  0  0  0  0  0  0  0  0
    0.9370   -5.0320   26.8660 C   0  0  0  0  0  0  0  0  0  0  0  0
    1.5430   -4.7400   25.4630 C   0  0  0  0  0  0  0  0  0  0  0  0
    6.9270   -2.7200   23.2410 C   0  0  0  0  0  0  0  0  0  0  0  0
    7.6310   -3.1770   22.1310 C   0  0  0  0  0  0  0  0  0  0  0  0
  1  2  1  0
  2  3  2  0
  2  4  1  0
  4  5  1  0
  5  6  1  0
  6  7  1  0
  7  8  1  0
  8  9  2  0
  8 10  1  0
 10 11  1  0
 11 12  1  0
 13 12  1  0
 13 14  2  0
 13 15  2  0
 13 16  1  0
 16 17  1  0
 17 18  1  0
 17 19  1  0
 18 19  1  0
  7 20  1  0
  4 21  1  0
 20 21  1  0
M  END
