piperidine-amides-17038-covalent
     RDKit          3D

 20 21  0  0  0  0  0  0  0  0999 V2000
    7.1070   -3.3250   19.2860 C   0  0  0  0  0  0  0  0  0  0  0  0
    6.4140   -4.1540   20.2820 C   0  0  0  0  0  0  0  0  0  0  0  0
    5.3320   -4.6800   19.9340 O   0  0  0  0  0  0  0  0  0  0  0  0
    6.9920   -4.3990   21.5520 N   0  0  0  0  0  0  0  0  0  0  0  0
    6.4790   -5.4810   22.3110 C   0  0  0  0  0  0  0  0  0  0  0  0
    5.8960   -5.0770   23.5840 C   0  0  0  0  0  0  0  0  0  0  0  0
    6.5520   -3.9440   24.2780 C   0  0  0  0  0  0  0  0  0  0  0  0
    5.7040   -3.4800   25.4270 C   0  0  0  0  0  0  0  0  0  0  0  0
    4.4630   -3.4150   25.3350 O   0  0  0  0  0  0  0  0  0  0  0  0
    6.2760   -3.1200   26.6450 N   0  0  0  0  0  0  0  0  0  0  0  0
    5.5730   -3.1130   27.8370 C   0  0  0  0  0  0  0  0  0  0  0  0
    5.9170   -4.2150   28.6970 C   0  0  0  0  0  0  0  0  0  0  0  0
    6.2160   -5.4340   28.2350 N   0  0  0  0  0  0  0  0  0  0  0  0
    6.4600   -6.6040   29.0330 C   0  0  0  0  0  0  0  0  0  0  0  0
    7.3990   -5.0670   27.4150 C   0  0  2  0  0  0  0  0  0  0  0  0
    8.6740   -5.5390   28.0830 C   0  0  0  0  0  0  0  0  0  0  0  0
    7.5680   -3.5750   26.9920 C   0  0  2  0  0  0  0  0  0  0  0  0
    8.0310   -2.8750   28.2820 C   0  0  0  0  0  0  0  0  0  0  0  0
    6.9220   -2.7810   23.3850 C   0  0  0  0  0  0  0  0  0  0  0  0
    7.7210   -3.3540   22.2360 C   0  0  0  0  0  0  0  0  0  0  0  0
  1  2  1  0
  2  3  2  0
  2  4  1  0
  4  5  1  0
  5  6  1  0
  6  7  1  0
  7  8  1  0
  8  9  2  0
  8 10  1  0
 10 11  1  0
 11 12  1  0
 12 13  1  0
 13 14  1  0
 13 15  1  0
 15 16  1  1
 10 17  1  0
 15 17  1  0
 17 18  1  1
  7 19  1  0
  4 20  1  0
 19 20  1  0
M  END
