piperidine-amides-8111-covalent
     RDKit          3D

 26 28  0  0  0  0  0  0  0  0999 V2000
    7.0440   -3.3370   19.3330 C   0  0  0  0  0  0  0  0  0  0  0  0
    6.3800   -4.1810   20.3300 C   0  0  0  0  0  0  0  0  0  0  0  0
    5.3770   -4.8240   19.9760 O   0  0  0  0  0  0  0  0  0  0  0  0
    6.9020   -4.2860   21.6440 N   0  0  0  0  0  0  0  0  0  0  0  0
    7.6940   -3.1910   22.1470 C   0  0  0  0  0  0  0  0  0  0  0  0
    7.5250   -3.0540   23.6260 C   0  0  0  0  0  0  0  0  0  0  0  0
    6.1260   -3.5210   23.9310 C   0  0  0  0  0  0  0  0  0  0  0  0
    5.7380   -3.0960   25.3100 C   0  0  0  0  0  0  0  0  0  0  0  0
    4.5490   -3.2010   25.6110 O   0  0  0  0  0  0  0  0  0  0  0  0
    6.7620   -2.6130   26.1130 N   0  0  0  0  0  0  0  0  0  0  0  0
    6.6630   -1.4670   26.9630 C   0  0  1  0  0  0  0  0  0  0  0  0
    6.0560   -0.3590   26.3490 C   0  0  0  0  0  0  0  0  0  0  0  0
    5.9030    0.7920   27.1120 C   0  0  0  0  0  0  0  0  0  0  0  0
    6.1870    0.8430   28.4730 C   0  0  0  0  0  0  0  0  0  0  0  0
    5.8010   -0.5220   28.9190 C   0  0  0  0  0  0  0  0  0  0  0  0
    5.0800   -0.6680   30.2810 C   0  0  0  0  0  0  0  0  0  0  0  0
    4.7180   -2.0630   30.6200 C   0  0  0  0  0  0  0  0  0  0  0  0
    4.1210   -2.3190   31.7020 O   0  0  0  0  0  0  0  0  0  0  0  0
    3.0120   -1.5060   31.9200 C   0  0  0  0  0  0  0  0  0  0  0  0
    1.8430   -2.2000   32.1670 F   0  0  0  0  0  0  0  0  0  0  0  0
    3.1890   -0.6060   32.9460 F   0  0  0  0  0  0  0  0  0  0  0  0
    5.0290   -3.0900   29.7670 C   0  0  0  0  0  0  0  0  0  0  0  0
    5.6760   -2.8610   28.5800 C   0  0  0  0  0  0  0  0  0  0  0  0
    6.0560   -1.6170   28.1460 C   0  0  0  0  0  0  0  0  0  0  0  0
    6.0070   -4.9990   23.7760 C   0  0  0  0  0  0  0  0  0  0  0  0
    6.6210   -5.4300   22.4740 C   0  0  0  0  0  0  0  0  0  0  0  0
  1  2  1  0
  2  3  2  0
  2  4  1  0
  4  5  1  0
  5  6  1  0
  6  7  1  0
  7  8  1  0
  8  9  2  0
  8 10  1  0
 11 10  1  6
 11 12  1  0
 12 13  1  0
 13 14  1  0
 14 15  1  0
 15 16  2  0
 16 17  1  0
 17 18  1  0
 18 19  1  0
 19 20  1  0
 19 21  1  0
 17 22  2  0
 22 23  1  0
 11 24  1  0
 15 24  1  0
 23 24  2  0
  7 25  1  0
  4 26  1  0
 25 26  1  0
M  END
