piperidine-amides-35184-covalent
     RDKit          3D

 32 35  0  0  0  0  0  0  0  0999 V2000
    7.0220   -3.3460   19.3790 C   0  0  0  0  0  0  0  0  0  0  0  0
    6.3850   -4.2490   20.3740 C   0  0  0  0  0  0  0  0  0  0  0  0
    5.4030   -4.8880   19.9920 O   0  0  0  0  0  0  0  0  0  0  0  0
    6.9250   -4.3830   21.6630 N   0  0  0  0  0  0  0  0  0  0  0  0
    6.7250   -5.5940   22.4260 C   0  0  0  0  0  0  0  0  0  0  0  0
    6.2130   -5.2420   23.7970 C   0  0  0  0  0  0  0  0  0  0  0  0
    6.2280   -3.7230   23.9220 C   0  0  0  0  0  0  0  0  0  0  0  0
    5.6610   -3.2730   25.2160 C   0  0  0  0  0  0  0  0  0  0  0  0
    4.8070   -2.3830   25.1780 O   0  0  0  0  0  0  0  0  0  0  0  0
    5.9990   -3.7900   26.4840 N   0  0  0  0  0  0  0  0  0  0  0  0
    6.4350   -2.7920   27.4130 C   0  0  0  0  0  0  0  0  0  0  0  0
    6.7190   -3.4260   28.7670 C   0  0  0  0  0  0  0  0  0  0  0  0
    5.5970   -4.2590   29.2130 N   0  0  0  0  0  0  0  0  0  0  0  0
    4.4500   -3.3850   29.4940 C   0  0  0  0  0  0  0  0  0  0  0  0
    3.3000   -4.0840   29.2860 C   0  0  0  0  0  0  0  0  0  0  0  0
    3.0290   -5.2960   29.9400 C   0  0  0  0  0  0  0  0  0  0  0  0
    3.9140   -6.0180   30.9460 C   0  0  0  0  0  0  0  0  0  0  0  0
    5.2730   -6.0560   30.7580 O   0  0  0  0  0  0  0  0  0  0  0  0
    3.3450   -6.6430   32.0380 O   0  0  0  0  0  0  0  0  0  0  0  0
    3.9060   -7.8360   32.5570 C   0  0  0  0  0  0  0  0  0  0  0  0
    5.4140   -7.7800   32.5800 C   0  0  0  0  0  0  0  0  0  0  0  0
    1.4930   -5.8130   29.3840 S   0  0  0  0  0  0  0  0  0  0  0  0
    1.2470   -4.4280   28.3080 C   0  0  0  0  0  0  0  0  0  0  0  0
    0.0900   -4.1150   27.4140 C   0  0  0  0  0  0  0  0  0  0  0  0
    0.0970   -2.8660   26.5770 C   0  0  0  0  0  0  0  0  0  0  0  0
    1.2900   -2.0130   26.7080 C   0  0  0  0  0  0  0  0  0  0  0  0
    2.3940   -2.4390   27.6470 C   0  0  0  0  0  0  0  0  0  0  0  0
    2.3450   -3.6080   28.4040 C   0  0  0  0  0  0  0  0  0  0  0  0
    5.6840   -5.2260   28.3340 C   0  0  0  0  0  0  0  0  0  0  0  0
    5.0360   -4.6590   27.0700 C   0  0  0  0  0  0  0  0  0  0  0  0
    7.6310   -3.2610   23.6160 C   0  0  0  0  0  0  0  0  0  0  0  0
    7.7290   -3.3240   22.2600 C   0  0  0  0  0  0  0  0  0  0  0  0
  1  2  1  0
  2  3  2  0
  2  4  1  0
  4  5  1  0
  5  6  1  0
  6  7  1  0
  7  8  1  0
  8  9  2  0
  8 10  1  0
 10 11  1  0
 11 12  1  0
 12 13  1  0
 13 14  1  0
 14 15  1  0
 15 16  2  0
 16 17  1  0
 17 18  2  0
 17 19  1  0
 19 20  1  0
 20 21  1  0
 16 22  1  0
 22 23  1  0
 23 24  1  0
 24 25  2  0
 25 26  1  0
 26 27  2  0
 15 28  1  0
 23 28  2  0
 27 28  1  0
 13 29  1  0
 10 30  1  0
 29 30  1  0
  7 31  1  0
  4 32  1  0
 31 32  1  0
M  END
