piperidine-amides-13998-covalent
     RDKit          3D

 25 27  0  0  0  0  0  0  0  0999 V2000
    7.0600   -3.3070   19.3050 C   0  0  0  0  0  0  0  0  0  0  0  0
    6.3410   -4.1540   20.2990 C   0  0  0  0  0  0  0  0  0  0  0  0
    5.3230   -4.7710   19.9490 O   0  0  0  0  0  0  0  0  0  0  0  0
    6.8520   -4.2750   21.6020 N   0  0  0  0  0  0  0  0  0  0  0  0
    6.6680   -5.5040   22.3390 C   0  0  0  0  0  0  0  0  0  0  0  0
    6.2410   -5.1810   23.7820 C   0  0  0  0  0  0  0  0  0  0  0  0
    6.2730   -3.7030   23.9960 C   0  0  0  0  0  0  0  0  0  0  0  0
    5.7580   -3.3090   25.3190 C   0  0  0  0  0  0  0  0  0  0  0  0
    4.5490   -3.4930   25.5170 O   0  0  0  0  0  0  0  0  0  0  0  0
    6.6260   -2.7510   26.2630 N   0  0  0  0  0  0  0  0  0  0  0  0
    6.2880   -1.7640   27.2240 C   0  0  1  0  0  0  0  0  0  0  0  0
    7.2180   -1.4870   28.2140 C   0  0  0  0  0  0  0  0  0  0  0  0
    6.9480   -0.6170   29.2940 C   0  0  0  0  0  0  0  0  0  0  0  0
    6.4070    0.6130   28.9980 C   0  0  0  0  0  0  0  0  0  0  0  0
    5.6850    0.7150   27.7290 C   0  0  0  0  0  0  0  0  0  0  0  0
    4.9150    1.7900   27.0290 C   0  0  0  0  0  0  0  0  0  0  0  0
    4.4380    1.2630   25.8160 N   0  0  0  0  0  0  0  0  0  0  0  0
    3.6550    1.8820   24.8030 C   0  0  0  0  0  0  0  0  0  0  0  0
    2.4680    2.3670   25.3330 C   0  0  0  0  0  0  0  0  0  0  0  0
    1.5620    1.3290   25.4760 O   0  0  0  0  0  0  0  0  0  0  0  0
    1.8140    0.2720   26.3670 C   0  0  0  0  0  0  0  0  0  0  0  0
    4.8340   -0.0260   25.6850 N   0  0  0  0  0  0  0  0  0  0  0  0
    5.6340   -0.4710   26.8530 C   0  0  0  0  0  0  0  0  0  0  0  0
    7.6240   -3.2510   23.6770 C   0  0  0  0  0  0  0  0  0  0  0  0
    7.6780   -3.2260   22.1500 C   0  0  0  0  0  0  0  0  0  0  0  0
  1  2  1  0
  2  3  2  0
  2  4  1  0
  4  5  1  0
  5  6  1  0
  6  7  1  0
  7  8  1  0
  8  9  2  0
  8 10  1  0
 11 10  1  6
 11 12  1  0
 12 13  1  0
 13 14  1  0
 14 15  1  0
 15 16  2  0
 16 17  1  0
 17 18  1  0
 18 19  1  0
 19 20  1  0
 20 21  1  0
 17 22  1  0
 11 23  1  0
 15 23  1  0
 22 23  2  0
  7 24  1  0
  4 25  1  0
 24 25  1  0
M  END
