piperidine-amides-2361-covalent
     RDKit          3D

 27 29  0  0  0  0  0  0  0  0999 V2000
    7.0830   -3.3530   19.3750 C   0  0  0  0  0  0  0  0  0  0  0  0
    6.3770   -4.1870   20.3750 C   0  0  0  0  0  0  0  0  0  0  0  0
    5.3910   -4.8140   19.9810 O   0  0  0  0  0  0  0  0  0  0  0  0
    6.8750   -4.2660   21.6840 N   0  0  0  0  0  0  0  0  0  0  0  0
    7.6960   -3.2040   22.2230 C   0  0  0  0  0  0  0  0  0  0  0  0
    7.4190   -3.0390   23.6940 C   0  0  0  0  0  0  0  0  0  0  0  0
    6.0340   -3.6010   24.0000 C   0  0  0  0  0  0  0  0  0  0  0  0
    5.6310   -3.2230   25.3750 C   0  0  0  0  0  0  0  0  0  0  0  0
    4.4240   -3.1540   25.6390 O   0  0  0  0  0  0  0  0  0  0  0  0
    6.5720   -2.9370   26.3820 N   0  0  0  0  0  0  0  0  0  0  0  0
    6.4610   -1.6950   27.1130 C   0  0  0  0  0  0  0  0  0  0  0  0
    5.9290   -0.4220   26.5590 C   0  0  0  0  0  0  0  0  0  0  0  0
    5.7970    0.7780   27.1960 C   0  0  0  0  0  0  0  0  0  0  0  0
    6.1830    0.9010   28.5160 C   0  0  0  0  0  0  0  0  0  0  0  0
    6.7110   -0.1440   29.2630 C   0  0  0  0  0  0  0  0  0  0  0  0
    7.0930    0.0740   30.7190 C   0  0  0  0  0  0  0  0  0  0  0  0
    8.4280    0.2550   30.9630 N   0  0  0  0  0  0  0  0  0  0  0  0
    8.3170    0.4080   32.2850 C   0  0  0  0  0  0  0  0  0  0  0  0
    6.9940    0.3410   32.9200 C   0  0  0  0  0  0  0  0  0  0  0  0
    6.2110    0.1190   31.8580 N   0  0  0  0  0  0  0  0  0  0  0  0
    4.7820   -0.0400   31.8350 C   0  0  0  0  0  0  0  0  0  0  0  0
    3.8390    0.6720   32.7470 C   0  0  0  0  0  0  0  0  0  0  0  0
    3.1500   -0.1990   33.7810 C   0  0  0  0  0  0  0  0  0  0  0  0
    1.6800    0.0210   33.8980 C   0  0  0  0  0  0  0  0  0  0  0  0
    6.8750   -1.4760   28.5950 C   0  0  0  0  0  0  0  0  0  0  0  0
    6.0960   -5.0990   23.8310 C   0  0  0  0  0  0  0  0  0  0  0  0
    6.5780   -5.4490   22.4420 C   0  0  0  0  0  0  0  0  0  0  0  0
  1  2  1  0
  2  3  2  0
  2  4  1  0
  4  5  1  0
  5  6  1  0
  6  7  1  0
  7  8  1  0
  8  9  2  0
  8 10  1  0
 10 11  1  0
 11 12  2  0
 12 13  1  0
 13 14  2  0
 14 15  1  0
 15 16  1  0
 16 17  2  0
 17 18  1  0
 18 19  2  0
 16 20  1  0
 19 20  1  0
 20 21  1  0
 21 22  1  0
 22 23  1  0
 23 24  1  0
 11 25  1  0
 15 25  2  0
  7 26  1  0
  4 27  1  0
 26 27  1  0
M  END
