piperidine-amides-29033-covalent
     RDKit          3D

 25 26  0  0  0  0  0  0  0  0999 V2000
    7.0700   -3.2780   19.2660 C   0  0  0  0  0  0  0  0  0  0  0  0
    6.3530   -4.0580   20.2780 C   0  0  0  0  0  0  0  0  0  0  0  0
    5.3260   -4.6610   19.9270 O   0  0  0  0  0  0  0  0  0  0  0  0
    6.8470   -4.1510   21.6080 N   0  0  0  0  0  0  0  0  0  0  0  0
    6.6200   -5.3840   22.3190 C   0  0  0  0  0  0  0  0  0  0  0  0
    6.1490   -5.1120   23.7260 C   0  0  0  0  0  0  0  0  0  0  0  0
    6.0420   -3.6130   23.9040 C   0  0  0  0  0  0  0  0  0  0  0  0
    5.5150   -3.2580   25.2650 C   0  0  0  0  0  0  0  0  0  0  0  0
    4.2980   -3.1140   25.3330 O   0  0  0  0  0  0  0  0  0  0  0  0
    6.3790   -3.1180   26.3480 N   0  0  0  0  0  0  0  0  0  0  0  0
    6.2490   -3.9720   27.4890 C   0  0  0  0  0  0  0  0  0  0  0  0
    6.0780   -5.3310   27.1920 C   0  0  0  0  0  0  0  0  0  0  0  0
    5.5710   -5.9290   28.4300 N   0  0  0  0  0  0  0  0  0  0  0  0
    6.2720   -6.7430   29.3300 C   0  0  0  0  0  0  0  0  0  0  0  0
    4.1890   -6.1040   28.6090 C   0  0  0  0  0  0  0  0  0  0  0  0
    6.9220   -1.6920   26.5620 C   0  0  0  0  0  0  0  0  0  0  0  0
    5.7660   -0.7350   26.1970 C   0  0  0  0  0  0  0  0  0  0  0  0
    6.0140    0.2010   25.0630 C   0  0  0  0  0  0  0  0  0  0  0  0
    4.8390    1.1140   24.7720 C   0  0  0  0  0  0  0  0  0  0  0  0
    3.5490    1.0030   25.6310 C   0  0  0  0  0  0  0  0  0  0  0  0
    2.1430    2.0300   25.3620 Cl  0  0  0  0  0  0  0  0  0  0  0  0
    3.5290    0.0660   26.6280 C   0  0  0  0  0  0  0  0  0  0  0  0
    4.5760   -0.7600   26.9000 C   0  0  0  0  0  0  0  0  0  0  0  0
    7.3190   -2.9080   23.6090 C   0  0  0  0  0  0  0  0  0  0  0  0
    7.6960   -3.1310   22.1770 C   0  0  0  0  0  0  0  0  0  0  0  0
  1  2  1  0
  2  3  2  0
  2  4  1  0
  4  5  1  0
  5  6  1  0
  6  7  1  0
  7  8  1  0
  8  9  2  0
  8 10  1  0
 10 11  1  0
 11 12  1  0
 12 13  1  0
 13 14  1  0
 13 15  1  0
 10 16  1  0
 16 17  1  0
 17 18  2  0
 18 19  1  0
 19 20  2  0
 20 21  1  0
 20 22  1  0
 17 23  1  0
 22 23  2  0
  7 24  1  0
  4 25  1  0
 24 25  1  0
M  END
