piperidine-amides-2294-covalent
     RDKit          3D

 27 28  0  0  0  0  0  0  0  0999 V2000
    7.1420   -3.2760   19.1830 C   0  0  0  0  0  0  0  0  0  0  0  0
    6.3530   -4.0080   20.2010 C   0  0  0  0  0  0  0  0  0  0  0  0
    5.2700   -4.4680   19.8510 O   0  0  0  0  0  0  0  0  0  0  0  0
    6.8790   -4.2030   21.4730 N   0  0  0  0  0  0  0  0  0  0  0  0
    7.6950   -3.2070   22.1190 C   0  0  0  0  0  0  0  0  0  0  0  0
    7.0810   -2.9170   23.4470 C   0  0  0  0  0  0  0  0  0  0  0  0
    5.7560   -3.6780   23.5110 C   0  0  0  0  0  0  0  0  0  0  0  0
    5.0610   -3.2640   24.7350 C   0  0  0  0  0  0  0  0  0  0  0  0
    3.8630   -2.9640   24.7110 O   0  0  0  0  0  0  0  0  0  0  0  0
    5.7510   -3.2000   25.9310 N   0  0  0  0  0  0  0  0  0  0  0  0
    5.4180   -4.0870   27.0130 C   0  0  2  0  0  0  0  0  0  0  0  0
    6.7510   -4.5190   27.3820 C   0  0  0  0  0  0  0  0  0  0  0  0
    7.2810   -5.5760   26.6780 C   0  0  0  0  0  0  0  0  0  0  0  0
    8.4600   -6.0630   26.8980 C   0  0  0  0  0  0  0  0  0  0  0  0
    9.0830   -5.4810   27.8160 C   0  0  0  0  0  0  0  0  0  0  0  0
    8.6060   -4.3400   28.6170 C   0  0  0  0  0  0  0  0  0  0  0  0
    7.2650   -3.6770   28.4800 C   0  0  0  0  0  0  0  0  0  0  0  0
    6.8700   -2.6220   29.2580 O   0  0  0  0  0  0  0  0  0  0  0  0
    7.1740   -1.3370   28.8110 C   0  0  0  0  0  0  0  0  0  0  0  0
    6.0070   -0.6800   28.5430 F   0  0  0  0  0  0  0  0  0  0  0  0
    7.9010   -0.7610   29.7910 F   0  0  0  0  0  0  0  0  0  0  0  0
    4.7770   -5.4170   26.7970 C   0  0  0  0  0  0  0  0  0  0  0  0
    5.3030   -6.3820   27.6120 F   0  0  0  0  0  0  0  0  0  0  0  0
    3.4310   -5.2780   27.0890 F   0  0  0  0  0  0  0  0  0  0  0  0
    4.9030   -5.7330   25.4490 F   0  0  0  0  0  0  0  0  0  0  0  0
    5.9290   -5.1680   23.4080 C   0  0  0  0  0  0  0  0  0  0  0  0
    6.6540   -5.4770   22.1150 C   0  0  0  0  0  0  0  0  0  0  0  0
  1  2  1  0
  2  3  2  0
  2  4  1  0
  4  5  1  0
  5  6  1  0
  6  7  1  0
  7  8  1  0
  8  9  2  0
  8 10  1  0
 11 10  1  6
 11 12  1  0
 12 13  2  0
 13 14  1  0
 14 15  2  0
 15 16  1  0
 12 17  1  0
 16 17  2  0
 17 18  1  0
 18 19  1  0
 19 20  1  0
 19 21  1  0
 11 22  1  0
 22 23  1  0
 22 24  1  0
 22 25  1  0
  7 26  1  0
  4 27  1  0
 26 27  1  0
M  END
