piperidine-amides-2930-covalent
     RDKit          3D

 24 25  0  0  0  0  0  0  0  0999 V2000
    7.0870   -3.3080   19.2860 C   0  0  0  0  0  0  0  0  0  0  0  0
    6.3880   -4.1330   20.2680 C   0  0  0  0  0  0  0  0  0  0  0  0
    5.3680   -4.7430   19.9550 O   0  0  0  0  0  0  0  0  0  0  0  0
    6.9210   -4.2660   21.5980 N   0  0  0  0  0  0  0  0  0  0  0  0
    7.7190   -3.2070   22.1460 C   0  0  0  0  0  0  0  0  0  0  0  0
    6.9570   -2.5600   23.2500 C   0  0  0  0  0  0  0  0  0  0  0  0
    6.4880   -3.6630   24.1830 C   0  0  0  0  0  0  0  0  0  0  0  0
    5.7180   -3.0420   25.3030 C   0  0  0  0  0  0  0  0  0  0  0  0
    4.5250   -3.3220   25.5400 O   0  0  0  0  0  0  0  0  0  0  0  0
    6.3910   -2.0820   26.1110 N   0  0  0  0  0  0  0  0  0  0  0  0
    5.7460   -1.5440   27.2940 C   0  0  0  0  0  0  0  0  0  0  0  0
    6.4190   -2.1310   28.4970 C   0  0  0  0  0  0  0  0  0  0  0  0
    6.8640   -3.3510   28.2550 C   0  0  0  0  0  0  0  0  0  0  0  0
    6.3430   -4.4760   28.8960 C   0  0  0  0  0  0  0  0  0  0  0  0
    6.8610   -5.6910   28.5460 C   0  0  0  0  0  0  0  0  0  0  0  0
    7.9000   -5.7070   27.5420 C   0  0  0  0  0  0  0  0  0  0  0  0
    8.3880   -6.7610   27.1920 O   0  0  0  0  0  0  0  0  0  0  0  0
    9.5440   -6.4430   26.5340 C   0  0  0  0  0  0  0  0  0  0  0  0
    8.3520   -4.5900   26.9750 C   0  0  0  0  0  0  0  0  0  0  0  0
    7.8350   -3.4030   27.3350 C   0  0  0  0  0  0  0  0  0  0  0  0
    8.3390   -2.2610   26.7190 O   0  0  0  0  0  0  0  0  0  0  0  0
    8.8700   -2.1640   25.4250 C   0  0  0  0  0  0  0  0  0  0  0  0
    5.6810   -4.7380   23.4530 C   0  0  0  0  0  0  0  0  0  0  0  0
    6.4900   -5.3210   22.4720 C   0  0  0  0  0  0  0  0  0  0  0  0
  1  2  1  0
  2  3  2  0
  2  4  1  0
  4  5  1  0
  5  6  1  0
  6  7  1  0
  7  8  1  0
  8  9  2  0
  8 10  1  0
 10 11  1  0
 11 12  1  0
 12 13  1  0
 13 14  2  0
 14 15  1  0
 15 16  2  0
 16 17  1  0
 17 18  1  0
 16 19  1  0
 13 20  1  0
 19 20  2  0
 20 21  1  0
 21 22  1  0
  7 23  1  0
  4 24  1  0
 23 24  1  0
M  END
