piperidine-amides-4928-covalent
     RDKit          3D

 23 25  0  0  0  0  0  0  0  0999 V2000
    7.1140   -3.3110   19.2740 C   0  0  0  0  0  0  0  0  0  0  0  0
    6.3470   -4.0790   20.2730 C   0  0  0  0  0  0  0  0  0  0  0  0
    5.2700   -4.5770   19.8940 O   0  0  0  0  0  0  0  0  0  0  0  0
    6.8570   -4.2730   21.5630 N   0  0  0  0  0  0  0  0  0  0  0  0
    7.5710   -3.2090   22.1940 C   0  0  0  0  0  0  0  0  0  0  0  0
    7.0540   -2.8300   23.5080 C   0  0  0  0  0  0  0  0  0  0  0  0
    6.4680   -3.9390   24.2850 C   0  0  0  0  0  0  0  0  0  0  0  0
    5.7260   -3.4240   25.4710 C   0  0  0  0  0  0  0  0  0  0  0  0
    4.4810   -3.3090   25.4300 O   0  0  0  0  0  0  0  0  0  0  0  0
    6.4100   -3.0770   26.6460 N   0  0  0  0  0  0  0  0  0  0  0  0
    6.3980   -1.7210   27.2490 C   0  0  0  0  0  0  0  0  0  0  0  0
    6.9790   -1.6030   28.5950 C   0  0  0  0  0  0  0  0  0  0  0  0
    6.9960   -0.3290   29.2560 C   0  0  0  0  0  0  0  0  0  0  0  0
    6.4460    0.7080   28.5410 C   0  0  0  0  0  0  0  0  0  0  0  0
    5.8880    0.6600   27.2630 C   0  0  0  0  0  0  0  0  0  0  0  0
    5.8500   -0.5470   26.5910 C   0  0  0  0  0  0  0  0  0  0  0  0
    5.4300    2.0620   26.9050 C   0  0  0  0  0  0  0  0  0  0  0  0
    4.8990    2.5820   28.0680 C   0  0  0  0  0  0  0  0  0  0  0  0
    6.2810    2.4390   29.0450 S   0  0  0  0  0  0  0  0  0  0  0  0
    5.8890    2.5890   30.4650 O   0  0  0  0  0  0  0  0  0  0  0  0
    7.3960    3.2800   28.5610 O   0  0  0  0  0  0  0  0  0  0  0  0
    5.6440   -4.8620   23.4280 C   0  0  0  0  0  0  0  0  0  0  0  0
    6.5170   -5.4200   22.3740 C   0  0  0  0  0  0  0  0  0  0  0  0
  1  2  1  0
  2  3  2  0
  2  4  1  0
  4  5  1  0
  5  6  1  0
  6  7  1  0
  7  8  1  0
  8  9  2  0
  8 10  1  0
 10 11  1  0
 11 12  2  0
 12 13  1  0
 13 14  2  0
 14 15  1  0
 11 16  1  0
 15 16  2  0
 15 17  1  0
 17 18  1  0
 14 19  1  0
 19 18  1  0
 19 20  2  0
 19 21  2  0
  7 22  1  0
  4 23  1  0
 22 23  1  0
M  END
