piperidine-amides-25621-covalent
     RDKit          3D

 25 27  0  0  0  0  0  0  0  0999 V2000
    7.0520   -3.3150   19.3580 C   0  0  0  0  0  0  0  0  0  0  0  0
    6.3780   -4.1700   20.3700 C   0  0  0  0  0  0  0  0  0  0  0  0
    5.4000   -4.8110   19.9800 O   0  0  0  0  0  0  0  0  0  0  0  0
    6.8740   -4.2610   21.6830 N   0  0  0  0  0  0  0  0  0  0  0  0
    6.7580   -5.4880   22.4430 C   0  0  0  0  0  0  0  0  0  0  0  0
    6.1320   -5.2030   23.7820 C   0  0  0  0  0  0  0  0  0  0  0  0
    6.1080   -3.6970   24.0080 C   0  0  0  0  0  0  0  0  0  0  0  0
    5.5250   -3.4440   25.3520 C   0  0  0  0  0  0  0  0  0  0  0  0
    4.3130   -3.6400   25.4770 O   0  0  0  0  0  0  0  0  0  0  0  0
    6.2210   -2.9730   26.4940 N   0  0  0  0  0  0  0  0  0  0  0  0
    6.2900   -3.9110   27.6030 C   0  0  0  0  0  0  0  0  0  0  0  0
    5.8500   -5.2780   27.1190 C   0  0  0  0  0  0  0  0  0  0  0  0
    5.7540   -6.1400   28.1780 O   0  0  0  0  0  0  0  0  0  0  0  0
    6.6790   -6.2910   29.1120 C   0  0  0  0  0  0  0  0  0  0  0  0
    5.7780   -1.6970   26.9370 C   0  0  0  0  0  0  0  0  0  0  0  0
    6.6560   -0.5650   27.2740 N   0  0  0  0  0  0  0  0  0  0  0  0
    5.8990    0.5890   27.6840 C   0  0  0  0  0  0  0  0  0  0  0  0
    6.4110    1.9460   28.1050 C   0  0  0  0  0  0  0  0  0  0  0  0
    5.2790    2.8790   28.4620 C   0  0  0  0  0  0  0  0  0  0  0  0
    3.8220    2.4430   28.3850 C   0  0  0  0  0  0  0  0  0  0  0  0
    3.4840    1.0570   27.9460 C   0  0  0  0  0  0  0  0  0  0  0  0
    4.5510    0.0950   27.5820 C   0  0  0  0  0  0  0  0  0  0  0  0
    4.4780   -1.2870   27.1300 N   0  0  0  0  0  0  0  0  0  0  0  0
    7.3410   -2.9780   23.6460 C   0  0  0  0  0  0  0  0  0  0  0  0
    7.7360   -3.2110   22.2300 C   0  0  0  0  0  0  0  0  0  0  0  0
  1  2  1  0
  2  3  2  0
  2  4  1  0
  4  5  1  0
  5  6  1  0
  6  7  1  0
  7  8  1  0
  8  9  2  0
  8 10  1  0
 10 11  1  0
 11 12  1  0
 12 13  1  0
 13 14  1  0
 10 15  1  0
 15 16  2  0
 16 17  1  0
 17 18  2  0
 18 19  1  0
 19 20  2  0
 20 21  1  0
 17 22  1  0
 21 22  2  0
 15 23  1  0
 22 23  1  0
  7 24  1  0
  4 25  1  0
 24 25  1  0
M  END
