piperidine-amides-6395-covalent
     RDKit          3D

 20 22  0  0  0  0  0  0  0  0999 V2000
    7.1180   -3.3430   19.3200 C   0  0  0  0  0  0  0  0  0  0  0  0
    6.3810   -4.1620   20.2850 C   0  0  0  0  0  0  0  0  0  0  0  0
    5.3340   -4.7580   19.9560 O   0  0  0  0  0  0  0  0  0  0  0  0
    6.8910   -4.3250   21.5740 N   0  0  0  0  0  0  0  0  0  0  0  0
    7.7150   -3.2780   22.1430 C   0  0  0  0  0  0  0  0  0  0  0  0
    6.8770   -2.6370   23.2390 C   0  0  0  0  0  0  0  0  0  0  0  0
    6.6630   -3.7430   24.2370 C   0  0  0  0  0  0  0  0  0  0  0  0
    5.9470   -3.1840   25.3930 C   0  0  0  0  0  0  0  0  0  0  0  0
    4.7210   -3.4100   25.5150 O   0  0  0  0  0  0  0  0  0  0  0  0
    6.6800   -2.3950   26.3180 N   0  0  0  0  0  0  0  0  0  0  0  0
    6.0050   -1.6320   27.3240 C   0  0  1  0  0  0  0  0  0  0  0  0
    6.8830   -1.4680   28.5400 C   0  0  0  0  0  0  0  0  0  0  0  0
    6.6240   -0.3250   29.1870 C   0  0  2  0  0  0  0  0  0  0  0  0
    5.3770   -0.1920   29.8110 C   0  0  0  0  0  0  0  0  0  0  0  0
    4.3780    0.2840   28.9410 C   0  0  0  0  0  0  0  0  0  0  0  0
    5.0170    0.7000   27.8200 C   0  0  1  0  0  0  0  0  0  0  0  0
    6.4640    0.5040   28.0950 C   0  0  0  0  0  0  0  0  0  0  0  0
    5.7070   -0.2340   26.8450 C   0  0  0  0  0  0  0  0  0  0  0  0
    5.9280   -4.9110   23.7090 C   0  0  0  0  0  0  0  0  0  0  0  0
    6.4160   -5.3670   22.4090 C   0  0  0  0  0  0  0  0  0  0  0  0
  1  2  1  0
  2  3  2  0
  2  4  1  0
  4  5  1  0
  5  6  1  0
  6  7  1  0
  7  8  1  0
  8  9  2  0
  8 10  1  0
 11 10  1  6
 11 12  1  0
 13 12  1  6
 13 14  1  0
 14 15  1  0
 16 15  1  1
 13 17  1  0
 16 17  1  0
 11 18  1  0
 16 18  1  0
  7 19  1  0
  4 20  1  0
 19 20  1  0
M  END
