piperidine-amides-4723-covalent
     RDKit          3D

 24 25  0  0  0  0  0  0  0  0999 V2000
    7.1170   -3.2680   19.2580 C   0  0  0  0  0  0  0  0  0  0  0  0
    6.3860   -4.0580   20.2760 C   0  0  0  0  0  0  0  0  0  0  0  0
    5.3200   -4.5890   19.9020 O   0  0  0  0  0  0  0  0  0  0  0  0
    6.8980   -4.2310   21.5770 N   0  0  0  0  0  0  0  0  0  0  0  0
    7.6890   -3.2060   22.1910 C   0  0  0  0  0  0  0  0  0  0  0  0
    7.2960   -2.9280   23.5640 C   0  0  0  0  0  0  0  0  0  0  0  0
    6.0390   -3.6070   23.9270 C   0  0  0  0  0  0  0  0  0  0  0  0
    5.6040   -3.2700   25.3040 C   0  0  0  0  0  0  0  0  0  0  0  0
    4.3780   -3.1610   25.4970 O   0  0  0  0  0  0  0  0  0  0  0  0
    6.5040   -3.0810   26.3690 N   0  0  0  0  0  0  0  0  0  0  0  0
    6.3300   -3.7560   27.6840 C   0  0  0  0  0  0  0  0  0  0  0  0
    5.3070   -3.0800   28.4990 C   0  0  0  0  0  0  0  0  0  0  0  0
    4.4270   -3.7570   29.1100 O   0  0  0  0  0  0  0  0  0  0  0  0
    5.2950   -1.6530   28.5970 N   0  0  0  0  0  0  0  0  0  0  0  0
    6.0430   -1.0210   29.6600 C   0  0  1  0  0  0  0  0  0  0  0  0
    7.3350   -0.8990   29.2020 C   0  0  0  0  0  0  0  0  0  0  0  0
    5.5640    0.4180   29.9430 C   0  0  0  0  0  0  0  0  0  0  0  0
    5.8970    1.0190   31.1250 C   0  0  0  0  0  0  0  0  0  0  0  0
    5.4890    2.2890   31.4140 C   0  0  0  0  0  0  0  0  0  0  0  0
    4.7350    2.9990   30.5280 C   0  0  0  0  0  0  0  0  0  0  0  0
    4.3960    2.3880   29.3210 C   0  0  0  0  0  0  0  0  0  0  0  0
    4.7720    1.1410   28.9910 N   0  0  0  0  0  0  0  0  0  0  0  0
    6.0080   -5.0720   23.6850 C   0  0  0  0  0  0  0  0  0  0  0  0
    6.6580   -5.4410   22.3640 C   0  0  0  0  0  0  0  0  0  0  0  0
  1  2  1  0
  2  3  2  0
  2  4  1  0
  4  5  1  0
  5  6  1  0
  6  7  1  0
  7  8  1  0
  8  9  2  0
  8 10  1  0
 10 11  1  0
 11 12  1  0
 12 13  2  0
 12 14  1  0
 14 15  1  0
 15 16  1  6
 15 17  1  0
 17 18  2  0
 18 19  1  0
 19 20  2  0
 20 21  1  0
 17 22  1  0
 21 22  2  0
  7 23  1  0
  4 24  1  0
 23 24  1  0
M  END
