piperidine-amides-25019-covalent
     RDKit          3D

 24 25  0  0  0  0  0  0  0  0999 V2000
    7.1980   -3.1560   19.0640 C   0  0  0  0  0  0  0  0  0  0  0  0
    6.3600   -3.8000   20.0840 C   0  0  0  0  0  0  0  0  0  0  0  0
    5.2600   -4.3150   19.7870 O   0  0  0  0  0  0  0  0  0  0  0  0
    6.7840   -3.9000   21.4050 N   0  0  0  0  0  0  0  0  0  0  0  0
    7.6790   -2.8970   21.9610 C   0  0  0  0  0  0  0  0  0  0  0  0
    7.0470   -2.3640   23.2550 C   0  0  0  0  0  0  0  0  0  0  0  0
    6.6610   -3.5770   24.0730 C   0  0  0  0  0  0  0  0  0  0  0  0
    6.1740   -3.1880   25.4180 C   0  0  0  0  0  0  0  0  0  0  0  0
    4.9380   -3.0470   25.6020 O   0  0  0  0  0  0  0  0  0  0  0  0
    7.1420   -2.9770   26.4440 N   0  0  0  0  0  0  0  0  0  0  0  0
    7.8710   -1.7730   26.4490 C   0  0  0  0  0  0  0  0  0  0  0  0
    7.2540   -3.7980   27.6300 C   0  0  0  0  0  0  0  0  0  0  0  0
    7.4940   -5.0920   27.2720 C   0  0  0  0  0  0  0  0  0  0  0  0
    8.5490   -5.5750   27.9970 C   0  0  0  0  0  0  0  0  0  0  0  0
    6.3170   -5.7440   27.4570 C   0  0  0  0  0  0  0  0  0  0  0  0
    7.7140   -5.2040   25.8880 C   0  0  0  0  0  0  0  0  0  0  0  0
    6.9460   -6.2330   25.4150 N   0  0  0  0  0  0  0  0  0  0  0  0
    5.6910   -5.7820   25.2040 C   0  0  0  0  0  0  0  0  0  0  0  0
    4.7550   -6.9640   25.1100 C   0  0  0  0  0  0  0  0  0  0  0  0
    5.3880   -7.9110   24.5850 O   0  0  0  0  0  0  0  0  0  0  0  0
    6.2640   -7.4560   23.5770 C   0  0  0  0  0  0  0  0  0  0  0  0
    7.4290   -6.7560   24.1440 C   0  0  0  0  0  0  0  0  0  0  0  0
    5.5860   -4.2920   23.3150 C   0  0  0  0  0  0  0  0  0  0  0  0
    6.1120   -4.8480   22.1970 C   0  0  0  0  0  0  0  0  0  0  0  0
  1  2  1  0
  2  3  2  0
  2  4  1  0
  4  5  1  0
  5  6  1  0
  6  7  1  0
  7  8  1  0
  8  9  2  0
  8 10  1  0
 10 11  1  0
 10 12  1  0
 13 12  1  0
 13 14  1  0
 13 15  1  0
 13 16  1  0
 16 17  1  0
 17 18  1  0
 18 19  1  0
 19 20  1  0
 20 21  1  0
 17 22  1  0
 21 22  1  0
  7 23  1  0
  4 24  1  0
 23 24  1  0
M  END
