piperidine-amides-4690-covalent
     RDKit          3D

 24 26  0  0  0  0  0  0  0  0999 V2000
    7.1090   -3.2660   19.2130 C   0  0  0  0  0  0  0  0  0  0  0  0
    6.3810   -4.0310   20.2540 C   0  0  0  0  0  0  0  0  0  0  0  0
    5.3160   -4.5730   19.8960 O   0  0  0  0  0  0  0  0  0  0  0  0
    6.8970   -4.1730   21.5550 N   0  0  0  0  0  0  0  0  0  0  0  0
    7.7070   -3.1550   22.1430 C   0  0  0  0  0  0  0  0  0  0  0  0
    7.3240   -2.8470   23.5140 C   0  0  0  0  0  0  0  0  0  0  0  0
    6.0300   -3.4520   23.8920 C   0  0  0  0  0  0  0  0  0  0  0  0
    5.6860   -3.1190   25.2950 C   0  0  0  0  0  0  0  0  0  0  0  0
    4.4980   -3.2610   25.6450 O   0  0  0  0  0  0  0  0  0  0  0  0
    6.6520   -2.6420   26.2120 N   0  0  0  0  0  0  0  0  0  0  0  0
    6.4140   -2.5910   27.6750 C   0  0  0  0  0  0  0  0  0  0  0  0
    6.3620   -3.9530   28.2780 C   0  0  0  0  0  0  0  0  0  0  0  0
    7.3510   -4.9700   28.0680 C   0  0  0  0  0  0  0  0  0  0  0  0
    8.3740   -4.5850   27.2460 F   0  0  0  0  0  0  0  0  0  0  0  0
    7.2360   -6.1870   28.6520 C   0  0  0  0  0  0  0  0  0  0  0  0
    6.1700   -6.5210   29.4740 C   0  0  0  0  0  0  0  0  0  0  0  0
    5.1830   -5.5960   29.7180 C   0  0  0  0  0  0  0  0  0  0  0  0
    5.2010   -4.3350   29.1790 C   0  0  0  0  0  0  0  0  0  0  0  0
    4.1770   -3.4800   29.4750 F   0  0  0  0  0  0  0  0  0  0  0  0
    5.7750   -1.4640   28.3530 C   0  0  0  0  0  0  0  0  0  0  0  0
    6.8980   -0.9380   28.9600 C   0  0  0  0  0  0  0  0  0  0  0  0
    7.6700   -1.9550   28.3160 C   0  0  0  0  0  0  0  0  0  0  0  0
    5.9440   -4.9290   23.6630 C   0  0  0  0  0  0  0  0  0  0  0  0
    6.5910   -5.3350   22.3600 C   0  0  0  0  0  0  0  0  0  0  0  0
  1  2  1  0
  2  3  2  0
  2  4  1  0
  4  5  1  0
  5  6  1  0
  6  7  1  0
  7  8  1  0
  8  9  2  0
  8 10  1  0
 11 10  1  0
 11 12  1  0
 12 13  2  0
 13 14  1  0
 13 15  1  0
 15 16  2  0
 16 17  1  0
 12 18  1  0
 17 18  2  0
 18 19  1  0
 11 20  1  0
 20 21  1  0
 11 22  1  0
 21 22  1  0
  7 23  1  0
  4 24  1  0
 23 24  1  0
M  END
