piperidine-amides-23704-covalent
     RDKit          3D

 24 26  0  0  0  0  0  0  0  0999 V2000
    7.1060   -3.3950   19.4120 C   0  0  0  0  0  0  0  0  0  0  0  0
    6.4280   -4.2490   20.3960 C   0  0  0  0  0  0  0  0  0  0  0  0
    5.3940   -4.8460   19.9960 O   0  0  0  0  0  0  0  0  0  0  0  0
    6.9600   -4.4320   21.7070 N   0  0  0  0  0  0  0  0  0  0  0  0
    6.3950   -5.4330   22.5180 C   0  0  0  0  0  0  0  0  0  0  0  0
    5.7960   -4.9440   23.7740 C   0  0  0  0  0  0  0  0  0  0  0  0
    6.2750   -3.6510   24.3700 C   0  0  0  0  0  0  0  0  0  0  0  0
    5.2420   -3.0760   25.3290 C   0  0  0  0  0  0  0  0  0  0  0  0
    4.1270   -2.8030   24.8810 O   0  0  0  0  0  0  0  0  0  0  0  0
    5.5000   -2.8310   26.7100 N   0  0  0  0  0  0  0  0  0  0  0  0
    6.5980   -3.2450   27.2960 C   0  0  0  0  0  0  0  0  0  0  0  0
    6.3300   -4.4150   28.1120 C   0  0  0  0  0  0  0  0  0  0  0  0
    6.9810   -5.6050   28.6040 N   0  0  0  0  0  0  0  0  0  0  0  0
    6.3060   -6.6060   29.4480 C   0  0  0  0  0  0  0  0  0  0  0  0
    5.1980   -6.0200   29.4980 N   0  0  0  0  0  0  0  0  0  0  0  0
    5.9090   -5.1780   28.7350 C   0  0  0  0  0  0  0  0  0  0  0  0
    4.7530   -4.3260   28.6070 C   0  0  0  0  0  0  0  0  0  0  0  0
    4.6300   -3.0160   27.8320 C   0  0  2  0  0  0  0  0  0  0  0  0
    3.1750   -3.3930   27.4940 C   0  0  0  0  0  0  0  0  0  0  0  0
    2.0770   -2.9740   28.2470 O   0  0  0  0  0  0  0  0  0  0  0  0
    2.8670   -4.1070   26.5180 O   0  0  0  0  0  0  0  0  0  0  0  0
    2.0380   -3.6180   25.4440 C   0  0  0  0  0  0  0  0  0  0  0  0
    6.7380   -2.6450   23.3280 C   0  0  0  0  0  0  0  0  0  0  0  0
    7.6580   -3.3450   22.3220 C   0  0  0  0  0  0  0  0  0  0  0  0
  1  2  1  0
  2  3  2  0
  2  4  1  0
  4  5  1  0
  5  6  1  0
  6  7  1  0
  7  8  1  0
  8  9  2  0
  8 10  1  0
 10 11  1  0
 11 12  1  0
 12 13  1  0
 13 14  2  0
 14 15  1  0
 15 16  2  0
 12 17  2  0
 16 17  1  0
 10 18  1  0
 17 18  1  0
 18 19  1  6
 19 20  2  0
 19 21  1  0
 21 22  1  0
  7 23  1  0
  4 24  1  0
 23 24  1  0
M  END
