piperidine-amides-29301-covalent
     RDKit          3D

 26 28  0  0  0  0  0  0  0  0999 V2000
    7.1010   -3.3240   19.3300 C   0  0  0  0  0  0  0  0  0  0  0  0
    6.3800   -4.1180   20.3170 C   0  0  0  0  0  0  0  0  0  0  0  0
    5.3490   -4.7150   19.9500 O   0  0  0  0  0  0  0  0  0  0  0  0
    6.8840   -4.2310   21.6350 N   0  0  0  0  0  0  0  0  0  0  0  0
    6.6950   -5.4850   22.3130 C   0  0  0  0  0  0  0  0  0  0  0  0
    6.3230   -5.2680   23.7530 C   0  0  0  0  0  0  0  0  0  0  0  0
    6.3020   -3.7760   24.0160 C   0  0  0  0  0  0  0  0  0  0  0  0
    5.8290   -3.4200   25.4000 C   0  0  0  0  0  0  0  0  0  0  0  0
    4.6520   -3.0640   25.4500 O   0  0  0  0  0  0  0  0  0  0  0  0
    6.6630   -3.4880   26.5270 N   0  0  0  0  0  0  0  0  0  0  0  0
    6.1560   -2.9310   27.7300 C   0  0  0  0  0  0  0  0  0  0  0  0
    6.0660   -3.9990   28.5990 C   0  0  0  0  0  0  0  0  0  0  0  0
    6.4820   -5.1130   27.9240 C   0  0  1  0  0  0  0  0  0  0  0  0
    5.4090   -5.9710   27.6350 C   0  0  0  0  0  0  0  0  0  0  0  0
    5.2750   -6.0830   26.1520 C   0  0  0  0  0  0  0  0  0  0  0  0
    4.1530   -6.9700   25.5420 C   0  0  0  0  0  0  0  0  0  0  0  0
    3.2600   -7.6700   26.4960 C   0  0  0  0  0  0  0  0  0  0  0  0
    3.4580   -7.5050   27.9720 C   0  0  0  0  0  0  0  0  0  0  0  0
    4.5780   -6.6180   28.5560 C   0  0  0  0  0  0  0  0  0  0  0  0
    4.7130   -6.4910   29.9230 C   0  0  0  0  0  0  0  0  0  0  0  0
    5.9370   -5.8870   30.1920 F   0  0  0  0  0  0  0  0  0  0  0  0
    4.7880   -7.7120   30.5430 F   0  0  0  0  0  0  0  0  0  0  0  0
    3.6830   -5.8060   30.4690 F   0  0  0  0  0  0  0  0  0  0  0  0
    7.2770   -4.7610   26.8310 C   0  0  0  0  0  0  0  0  0  0  0  0
    7.5960   -3.1350   23.6790 C   0  0  0  0  0  0  0  0  0  0  0  0
    7.7650   -3.2260   22.1970 C   0  0  0  0  0  0  0  0  0  0  0  0
  1  2  1  0
  2  3  2  0
  2  4  1  0
  4  5  1  0
  5  6  1  0
  6  7  1  0
  7  8  1  0
  8  9  2  0
  8 10  1  0
 10 11  1  0
 11 12  1  0
 12 13  1  0
 13 14  1  6
 14 15  2  0
 15 16  1  0
 16 17  2  0
 17 18  1  0
 14 19  1  0
 18 19  2  0
 19 20  1  0
 20 21  1  0
 20 22  1  0
 20 23  1  0
 10 24  1  0
 13 24  1  0
  7 25  1  0
  4 26  1  0
 25 26  1  0
M  END
