piperidine-amides-6770-covalent
     RDKit          3D

 23 24  0  0  0  0  0  0  0  0999 V2000
    7.0850   -3.2960   19.3200 C   0  0  0  0  0  0  0  0  0  0  0  0
    6.3890   -4.1290   20.3130 C   0  0  0  0  0  0  0  0  0  0  0  0
    5.3840   -4.7970   19.9730 O   0  0  0  0  0  0  0  0  0  0  0  0
    6.8640   -4.2130   21.6350 N   0  0  0  0  0  0  0  0  0  0  0  0
    7.6730   -3.1240   22.1600 C   0  0  0  0  0  0  0  0  0  0  0  0
    7.4240   -3.0390   23.6710 C   0  0  0  0  0  0  0  0  0  0  0  0
    6.0570   -3.6420   23.8850 C   0  0  0  0  0  0  0  0  0  0  0  0
    5.5250   -3.3400   25.2320 C   0  0  0  0  0  0  0  0  0  0  0  0
    4.3750   -2.8660   25.3020 O   0  0  0  0  0  0  0  0  0  0  0  0
    6.2900   -3.5680   26.3980 N   0  0  0  0  0  0  0  0  0  0  0  0
    5.9770   -4.6510   27.3050 C   0  0  1  0  0  0  0  0  0  0  0  0
    6.2940   -4.1640   28.6940 C   0  0  0  0  0  0  0  0  0  0  0  0
    6.3510   -5.3180   29.5080 O   0  0  0  0  0  0  0  0  0  0  0  0
    6.5100   -6.5850   29.0300 C   0  0  0  0  0  0  0  0  0  0  0  0
    4.6770   -5.2560   27.1270 C   0  0  0  0  0  0  0  0  0  0  0  0
    3.7320   -5.1220   28.1440 C   0  0  0  0  0  0  0  0  0  0  0  0
    3.5940   -5.9980   29.1270 C   0  0  0  0  0  0  0  0  0  0  0  0
    2.6730   -6.0570   30.2940 C   0  0  0  0  0  0  0  0  0  0  0  0
    1.9080   -4.7320   29.9850 C   0  0  0  0  0  0  0  0  0  0  0  0
    1.8960   -3.5870   28.9350 C   0  0  0  0  0  0  0  0  0  0  0  0
    2.9710   -4.0220   28.0370 C   0  0  0  0  0  0  0  0  0  0  0  0
    6.1480   -5.1220   23.6670 C   0  0  0  0  0  0  0  0  0  0  0  0
    6.5700   -5.3900   22.3920 C   0  0  0  0  0  0  0  0  0  0  0  0
  1  2  1  0
  2  3  2  0
  2  4  1  0
  4  5  1  0
  5  6  1  0
  6  7  1  0
  7  8  1  0
  8  9  2  0
  8 10  1  0
 10 11  1  0
 11 12  1  1
 12 13  1  0
 13 14  1  0
 11 15  1  0
 15 16  1  0
 16 17  2  0
 17 18  1  0
 18 19  2  0
 19 20  1  0
 16 21  1  0
 20 21  2  0
  7 22  1  0
  4 23  1  0
 22 23  1  0
M  END
