piperidine-amides-111-covalent
     RDKit          3D

 27 30  0  0  0  0  0  0  0  0999 V2000
    7.1200   -3.3070   19.3740 C   0  0  0  0  0  0  0  0  0  0  0  0
    6.4010   -4.1050   20.3420 C   0  0  0  0  0  0  0  0  0  0  0  0
    5.3860   -4.7700   19.9580 O   0  0  0  0  0  0  0  0  0  0  0  0
    6.8110   -4.1910   21.6850 N   0  0  0  0  0  0  0  0  0  0  0  0
    7.6520   -3.0810   22.2080 C   0  0  0  0  0  0  0  0  0  0  0  0
    7.5980   -3.2950   23.7720 C   0  0  0  0  0  0  0  0  0  0  0  0
    6.2140   -3.8170   24.0660 C   0  0  0  0  0  0  0  0  0  0  0  0
    5.8240   -3.7750   25.6040 C   0  0  0  0  0  0  0  0  0  0  0  0
    5.3430   -4.8390   25.9260 O   0  0  0  0  0  0  0  0  0  0  0  0
    6.0670   -2.6480   26.1220 N   0  0  0  0  0  0  0  0  0  0  0  0
    6.1490   -1.4500   26.7460 C   0  0  0  0  0  0  0  0  0  0  0  0
    5.8230   -0.0840   26.5880 C   0  0  0  0  0  0  0  0  0  0  0  0
    6.0670    0.9630   27.5250 C   0  0  0  0  0  0  0  0  0  0  0  0
    6.7090    0.6460   28.7760 C   0  0  0  0  0  0  0  0  0  0  0  0
    6.7920    2.0120   29.4670 C   0  0  0  0  0  0  0  0  0  0  0  0
    8.1020    2.5480   29.6340 N   0  0  0  0  0  0  0  0  0  0  0  0
    7.9800    3.7210   30.2450 N   0  0  0  0  0  0  0  0  0  0  0  0
    6.6830    4.0050   30.4960 C   0  0  0  0  0  0  0  0  0  0  0  0
    5.8230    2.9930   30.0460 C   0  0  0  0  0  0  0  0  0  0  0  0
    4.4390    3.5320   30.4310 C   0  0  0  0  0  0  0  0  0  0  0  0
    4.3200    3.8610   31.6390 O   0  0  0  0  0  0  0  0  0  0  0  0
    5.4180    4.5440   32.1970 C   0  0  0  0  0  0  0  0  0  0  0  0
    6.0470    5.1920   31.1600 C   0  0  0  0  0  0  0  0  0  0  0  0
    7.0670   -0.6000   29.0520 C   0  0  0  0  0  0  0  0  0  0  0  0
    6.8290   -1.5710   28.1590 C   0  0  0  0  0  0  0  0  0  0  0  0
    5.8640   -5.1460   23.4800 C   0  0  0  0  0  0  0  0  0  0  0  0
    6.7080   -5.4170   22.4180 C   0  0  0  0  0  0  0  0  0  0  0  0
  1  2  1  0
  2  3  2  0
  2  4  1  0
  4  5  1  0
  5  6  1  0
  6  7  1  0
  7  8  1  0
  8  9  2  0
  8 10  1  0
 10 11  1  0
 11 12  2  0
 12 13  1  0
 13 14  2  0
 14 15  1  0
 15 16  1  0
 16 17  1  0
 17 18  2  0
 15 19  2  0
 18 19  1  0
 19 20  1  0
 20 21  1  0
 21 22  1  0
 18 23  1  0
 22 23  1  0
 14 24  1  0
 11 25  1  0
 24 25  2  0
  7 26  1  0
  4 27  1  0
 26 27  1  0
M  END
