piperidine-amides-25179-covalent
     RDKit          3D

 23 24  0  0  0  0  0  0  0  0999 V2000
    7.0590   -3.3120   19.2990 C   0  0  0  0  0  0  0  0  0  0  0  0
    6.3540   -4.1560   20.2990 C   0  0  0  0  0  0  0  0  0  0  0  0
    5.3340   -4.7340   19.9400 O   0  0  0  0  0  0  0  0  0  0  0  0
    6.8820   -4.2960   21.5800 N   0  0  0  0  0  0  0  0  0  0  0  0
    7.6790   -3.2530   22.1650 C   0  0  0  0  0  0  0  0  0  0  0  0
    7.3080   -3.1630   23.6020 C   0  0  0  0  0  0  0  0  0  0  0  0
    5.8970   -3.6730   23.7670 C   0  0  0  0  0  0  0  0  0  0  0  0
    5.4390   -3.2200   25.0920 C   0  0  0  0  0  0  0  0  0  0  0  0
    4.2720   -2.8410   25.2380 O   0  0  0  0  0  0  0  0  0  0  0  0
    6.3160   -3.2290   26.1780 N   0  0  0  0  0  0  0  0  0  0  0  0
    6.3460   -2.0140   26.9980 C   0  0  0  0  0  0  0  0  0  0  0  0
    6.2800   -0.6590   26.3240 C   0  0  0  0  0  0  0  0  0  0  0  0
    6.3010    0.5310   27.0320 C   0  0  0  0  0  0  0  0  0  0  0  0
    6.3930    0.4830   28.3950 C   0  0  0  0  0  0  0  0  0  0  0  0
    6.4220    1.6680   29.1310 F   0  0  0  0  0  0  0  0  0  0  0  0
    6.4520   -0.7120   29.0540 C   0  0  0  0  0  0  0  0  0  0  0  0
    6.4190   -2.0270   28.3180 C   0  0  0  0  0  0  0  0  0  0  0  0
    6.4480   -3.5980   28.9930 Cl  0  0  0  0  0  0  0  0  0  0  0  0
    6.7220   -4.5440   26.6550 C   0  0  0  0  0  0  0  0  0  0  0  0
    5.8540   -5.7610   26.7430 C   0  0  0  0  0  0  0  0  0  0  0  0
    7.1440   -4.6900   28.1020 C   0  0  0  0  0  0  0  0  0  0  0  0
    5.8160   -5.1560   23.5560 C   0  0  0  0  0  0  0  0  0  0  0  0
    6.6310   -5.5150   22.3200 C   0  0  0  0  0  0  0  0  0  0  0  0
  1  2  1  0
  2  3  2  0
  2  4  1  0
  4  5  1  0
  5  6  1  0
  6  7  1  0
  7  8  1  0
  8  9  2  0
  8 10  1  0
 10 11  1  0
 11 12  2  0
 12 13  1  0
 13 14  2  0
 14 15  1  0
 14 16  1  0
 11 17  1  0
 16 17  2  0
 17 18  1  0
 10 19  1  0
 19 20  1  0
 19 21  1  0
  7 22  1  0
  4 23  1  0
 22 23  1  0
M  END
