piperidine-amides-32510-covalent
     RDKit          3D

 29 32  0  0  0  0  0  0  0  0999 V2000
    7.0090   -3.3540   19.4300 C   0  0  0  0  0  0  0  0  0  0  0  0
    6.3550   -4.2640   20.4150 C   0  0  0  0  0  0  0  0  0  0  0  0
    5.4080   -4.9610   20.0090 O   0  0  0  0  0  0  0  0  0  0  0  0
    6.8310   -4.3570   21.7570 N   0  0  0  0  0  0  0  0  0  0  0  0
    6.6360   -5.5750   22.5240 C   0  0  0  0  0  0  0  0  0  0  0  0
    6.1820   -5.2170   23.9600 C   0  0  0  0  0  0  0  0  0  0  0  0
    5.9100   -3.7530   24.0100 C   0  0  0  0  0  0  0  0  0  0  0  0
    5.0130   -3.2300   25.1240 C   0  0  0  0  0  0  0  0  0  0  0  0
    3.8900   -2.9600   24.7150 O   0  0  0  0  0  0  0  0  0  0  0  0
    5.3070   -3.0510   26.5020 N   0  0  0  0  0  0  0  0  0  0  0  0
    6.5250   -3.1440   27.0600 C   0  0  0  0  0  0  0  0  0  0  0  0
    6.5160   -4.0090   28.1200 C   0  0  2  0  0  0  0  0  0  0  0  0
    6.4370   -5.3690   27.6190 O   0  0  0  0  0  0  0  0  0  0  0  0
    6.4880   -6.3310   28.6140 C   0  0  0  0  0  0  0  0  0  0  0  0
    5.1580   -3.8240   28.6810 C   0  0  0  0  0  0  0  0  0  0  0  0
    4.3080   -3.3430   27.5250 C   0  0  1  0  0  0  0  0  0  0  0  0
    3.4040   -2.1340   27.7990 C   0  0  0  0  0  0  0  0  0  0  0  0
    3.6480   -0.8890   27.1550 N   0  0  0  0  0  0  0  0  0  0  0  0
    2.6880    0.0150   27.5820 C   0  0  0  0  0  0  0  0  0  0  0  0
    2.6010    1.3300   27.1720 C   0  0  0  0  0  0  0  0  0  0  0  0
    2.6320    1.8220   25.7570 C   0  0  0  0  0  0  0  0  0  0  0  0
    2.5120    3.3400   25.6970 C   0  0  0  0  0  0  0  0  0  0  0  0
    2.3900    4.2090   26.7410 C   0  0  0  0  0  0  0  0  0  0  0  0
    2.3670    3.7270   27.9810 N   0  0  0  0  0  0  0  0  0  0  0  0
    2.4610    2.4290   28.1920 C   0  0  0  0  0  0  0  0  0  0  0  0
    1.8850   -0.6430   28.4550 C   0  0  0  0  0  0  0  0  0  0  0  0
    2.2930   -1.9440   28.6070 N   0  0  0  0  0  0  0  0  0  0  0  0
    7.1820   -2.9710   23.7800 C   0  0  0  0  0  0  0  0  0  0  0  0
    7.5890   -3.2450   22.3630 C   0  0  0  0  0  0  0  0  0  0  0  0
  1  2  1  0
  2  3  2  0
  2  4  1  0
  4  5  1  0
  5  6  1  0
  6  7  1  0
  7  8  1  0
  8  9  2  0
  8 10  1  0
 10 11  1  0
 11 12  1  0
 12 13  1  6
 13 14  1  0
 12 15  1  0
 10 16  1  0
 15 16  1  0
 16 17  1  1
 17 18  2  0
 18 19  1  0
 19 20  1  0
 20 21  2  0
 21 22  1  0
 22 23  2  0
 23 24  1  0
 20 25  1  0
 24 25  2  0
 19 26  2  0
 17 27  1  0
 26 27  1  0
  7 28  1  0
  4 29  1  0
 28 29  1  0
M  END
