piperidine-amides-31754-covalent
     RDKit          3D

 27 28  0  0  0  0  0  0  0  0999 V2000
    7.1270   -3.3830   19.4770 C   0  0  0  0  0  0  0  0  0  0  0  0
    6.4770   -4.2810   20.4050 C   0  0  0  0  0  0  0  0  0  0  0  0
    5.4370   -4.9060   20.0030 O   0  0  0  0  0  0  0  0  0  0  0  0
    6.9850   -4.5250   21.7030 N   0  0  0  0  0  0  0  0  0  0  0  0
    7.9420   -3.5640   22.2920 C   0  0  0  0  0  0  0  0  0  0  0  0
    6.9530   -2.7820   23.2080 C   0  0  0  0  0  0  0  0  0  0  0  0
    6.4240   -3.7930   24.2020 C   0  0  0  0  0  0  0  0  0  0  0  0
    5.3640   -3.0270   25.1040 C   0  0  0  0  0  0  0  0  0  0  0  0
    4.9030   -2.1250   24.4360 O   0  0  0  0  0  0  0  0  0  0  0  0
    5.1800   -3.4710   26.2900 N   0  0  0  0  0  0  0  0  0  0  0  0
    4.4440   -3.7700   27.4020 C   0  0  0  0  0  0  0  0  0  0  0  0
    4.3710   -4.6580   28.4240 C   0  0  0  0  0  0  0  0  0  0  0  0
    5.3880   -4.3170   29.2600 C   0  0  2  0  0  0  0  0  0  0  0  0
    5.3610   -3.1130   29.8400 N   0  0  0  0  0  0  0  0  0  0  0  0
    4.1650   -2.8490   30.5000 C   0  0  0  0  0  0  0  0  0  0  0  0
    3.1520   -3.7980   30.6310 O   0  0  0  0  0  0  0  0  0  0  0  0
    4.1320   -1.5680   30.9900 O   0  0  0  0  0  0  0  0  0  0  0  0
    3.2350   -1.5270   32.0770 C   0  0  0  0  0  0  0  0  0  0  0  0
    1.8830   -1.5930   31.7170 C   0  0  0  0  0  0  0  0  0  0  0  0
    2.5620   -0.1630   32.0990 C   0  0  0  0  0  0  0  0  0  0  0  0
    3.8020   -1.9410   33.3910 C   0  0  0  0  0  0  0  0  0  0  0  0
    6.4170   -4.4300   28.2290 C   0  0  0  0  0  0  0  0  0  0  0  0
    7.5450   -4.2960   28.9560 F   0  0  0  0  0  0  0  0  0  0  0  0
    6.3930   -5.7100   27.8010 F   0  0  0  0  0  0  0  0  0  0  0  0
    6.2010   -3.3810   27.3330 C   0  0  0  0  0  0  0  0  0  0  0  0
    5.8810   -5.1110   23.6320 C   0  0  0  0  0  0  0  0  0  0  0  0
    6.5140   -5.6040   22.5240 C   0  0  0  0  0  0  0  0  0  0  0  0
  1  2  1  0
  2  3  2  0
  2  4  1  0
  4  5  1  0
  5  6  1  0
  6  7  1  0
  7  8  1  0
  8  9  2  0
  8 10  1  0
 10 11  1  0
 11 12  1  0
 12 13  1  0
 13 14  1  6
 14 15  1  0
 15 16  2  0
 15 17  1  0
 18 17  1  0
 18 19  1  0
 18 20  1  0
 18 21  1  0
 13 22  1  0
 22 23  1  0
 22 24  1  0
 10 25  1  0
 22 25  1  0
  7 26  1  0
  4 27  1  0
 26 27  1  0
M  END
