piperidine-amides-702-covalent
     RDKit          3D

 25 27  0  0  0  0  0  0  0  0999 V2000
    7.0810   -3.3520   19.2680 C   0  0  0  0  0  0  0  0  0  0  0  0
    6.3790   -4.0810   20.2950 C   0  0  0  0  0  0  0  0  0  0  0  0
    5.3260   -4.7010   19.9480 O   0  0  0  0  0  0  0  0  0  0  0  0
    6.8360   -4.1880   21.6240 N   0  0  0  0  0  0  0  0  0  0  0  0
    6.6320   -5.4770   22.3090 C   0  0  0  0  0  0  0  0  0  0  0  0
    5.6110   -4.9810   23.3840 C   0  0  0  0  0  0  0  0  0  0  0  0
    6.4160   -4.0140   24.2170 C   0  0  0  0  0  0  0  0  0  0  0  0
    5.6560   -3.7850   25.6030 C   0  0  0  0  0  0  0  0  0  0  0  0
    4.9870   -4.7680   25.8380 O   0  0  0  0  0  0  0  0  0  0  0  0
    5.8770   -2.6530   26.1420 N   0  0  0  0  0  0  0  0  0  0  0  0
    5.8970   -1.4360   26.7690 C   0  0  2  0  0  0  0  0  0  0  0  0
    5.8850   -0.1210   26.2950 C   0  0  0  0  0  0  0  0  0  0  0  0
    5.8610    0.9950   27.2100 C   0  0  0  0  0  0  0  0  0  0  0  0
    6.1150    0.7100   28.6230 C   0  0  0  0  0  0  0  0  0  0  0  0
    6.1690   -0.6240   28.9220 N   0  0  0  0  0  0  0  0  0  0  0  0
    5.3160   -1.1550   29.9860 C   0  0  0  0  0  0  0  0  0  0  0  0
    4.5030   -2.1980   29.7100 C   0  0  0  0  0  0  0  0  0  0  0  0
    3.9320   -2.3230   30.9330 C   0  0  0  0  0  0  0  0  0  0  0  0
    3.0060   -3.5000   30.6400 C   0  0  0  0  0  0  0  0  0  0  0  0
    4.3590   -1.3960   31.9690 N   0  0  0  0  0  0  0  0  0  0  0  0
    5.2900   -0.6490   31.2480 N   0  0  0  0  0  0  0  0  0  0  0  0
    5.9810    0.4220   31.9350 C   0  0  0  0  0  0  0  0  0  0  0  0
    6.7170   -1.6130   28.0820 C   0  0  0  0  0  0  0  0  0  0  0  0
    6.9040   -2.7880   23.4620 C   0  0  0  0  0  0  0  0  0  0  0  0
    7.5330   -3.1070   22.2920 C   0  0  0  0  0  0  0  0  0  0  0  0
  1  2  1  0
  2  3  2  0
  2  4  1  0
  4  5  1  0
  5  6  1  0
  6  7  1  0
  7  8  1  0
  8  9  2  0
  8 10  1  0
 11 10  1  6
 11 12  1  0
 12 13  1  0
 13 14  1  0
 14 15  1  0
 15 16  1  0
 16 17  2  0
 17 18  1  0
 18 19  1  0
 18 20  2  0
 16 21  1  0
 20 21  1  0
 21 22  1  0
 11 23  1  0
 15 23  1  0
  7 24  1  0
  4 25  1  0
 24 25  1  0
M  END
