piperidine-amides-33309-covalent
     RDKit          3D

 25 26  0  0  0  0  0  0  0  0999 V2000
    7.1260   -3.3550   19.2730 C   0  0  0  0  0  0  0  0  0  0  0  0
    6.4060   -4.1350   20.2870 C   0  0  0  0  0  0  0  0  0  0  0  0
    5.3240   -4.6570   19.9320 O   0  0  0  0  0  0  0  0  0  0  0  0
    6.9600   -4.3360   21.5750 N   0  0  0  0  0  0  0  0  0  0  0  0
    6.4880   -5.4140   22.3630 C   0  0  0  0  0  0  0  0  0  0  0  0
    6.1130   -5.0320   23.7230 C   0  0  0  0  0  0  0  0  0  0  0  0
    6.6330   -3.7340   24.2240 C   0  0  0  0  0  0  0  0  0  0  0  0
    5.7240   -3.1770   25.2710 C   0  0  0  0  0  0  0  0  0  0  0  0
    4.5720   -2.8320   24.9490 O   0  0  0  0  0  0  0  0  0  0  0  0
    6.1180   -3.0360   26.6120 N   0  0  0  0  0  0  0  0  0  0  0  0
    5.9800   -4.0830   27.5800 C   0  0  0  0  0  0  0  0  0  0  0  0
    5.8350   -5.4970   27.2080 C   0  0  0  0  0  0  0  0  0  0  0  0
    4.8040   -6.0930   27.6450 O   0  0  0  0  0  0  0  0  0  0  0  0
    5.1200   -7.0530   28.5750 C   0  0  0  0  0  0  0  0  0  0  0  0
    6.2150   -1.6640   27.1040 C   0  0  0  0  0  0  0  0  0  0  0  0
    6.0300   -0.4930   26.1210 C   0  0  0  0  0  0  0  0  0  0  0  0
    6.1300    0.9090   26.7210 C   0  0  0  0  0  0  0  0  0  0  0  0
    6.4160    0.9500   28.2420 C   0  0  0  0  0  0  0  0  0  0  0  0
    6.5450    2.6820   29.0350 Br  0  0  0  0  0  0  0  0  0  0  0  0
    6.5900   -0.2290   29.1310 C   0  0  0  0  0  0  0  0  0  0  0  0
    6.4540   -1.5170   28.4130 C   0  0  0  0  0  0  0  0  0  0  0  0
    6.5750   -2.7660   29.2290 C   0  0  0  0  0  0  0  0  0  0  0  0
    5.3290   -3.1400   29.7950 N   0  0  0  0  0  0  0  0  0  0  0  0
    6.8620   -2.7460   23.1260 C   0  0  0  0  0  0  0  0  0  0  0  0
    7.7460   -3.3150   22.2260 C   0  0  0  0  0  0  0  0  0  0  0  0
  1  2  1  0
  2  3  2  0
  2  4  1  0
  4  5  1  0
  5  6  1  0
  6  7  1  0
  7  8  1  0
  8  9  2  0
  8 10  1  0
 10 11  1  0
 11 12  1  0
 12 13  1  0
 13 14  1  0
 10 15  1  0
 15 16  2  0
 16 17  1  0
 17 18  2  0
 18 19  1  0
 18 20  1  0
 15 21  1  0
 20 21  2  0
 21 22  1  0
 22 23  3  0
  7 24  1  0
  4 25  1  0
 24 25  1  0
M  END
