piperidine-amides-30000-covalent
     RDKit          3D

 26 29  0  0  0  0  0  0  0  0999 V2000
    6.9960   -3.3780   19.3950 C   0  0  0  0  0  0  0  0  0  0  0  0
    6.3640   -4.2480   20.3850 C   0  0  0  0  0  0  0  0  0  0  0  0
    5.4280   -4.9630   20.0160 O   0  0  0  0  0  0  0  0  0  0  0  0
    6.8350   -4.3060   21.7540 N   0  0  0  0  0  0  0  0  0  0  0  0
    6.6510   -5.5260   22.5200 C   0  0  0  0  0  0  0  0  0  0  0  0
    6.1130   -5.2240   23.9010 C   0  0  0  0  0  0  0  0  0  0  0  0
    6.2240   -3.7260   24.0730 C   0  0  0  0  0  0  0  0  0  0  0  0
    5.7600   -3.1740   25.3960 C   0  0  0  0  0  0  0  0  0  0  0  0
    5.3680   -2.0020   25.4670 O   0  0  0  0  0  0  0  0  0  0  0  0
    5.6790   -3.9200   26.6090 N   0  0  0  0  0  0  0  0  0  0  0  0
    4.3250   -4.0670   27.0820 C   0  0  0  0  0  0  0  0  0  0  0  0
    4.3370   -4.7150   28.4510 C   0  0  0  0  0  0  0  0  0  0  0  0
    5.3640   -5.4390   28.8630 N   0  0  0  0  0  0  0  0  0  0  0  0
    5.0930   -6.0340   30.0320 C   0  0  0  0  0  0  0  0  0  0  0  0
    4.2230   -5.6800   30.9310 N   0  0  0  0  0  0  0  0  0  0  0  0
    4.0780   -6.4640   32.1360 C   0  0  0  0  0  0  0  0  0  0  0  0
    3.2220   -6.2190   33.1550 C   0  0  0  0  0  0  0  0  0  0  0  0
    3.2060   -7.0950   34.2770 C   0  0  0  0  0  0  0  0  0  0  0  0
    4.0240   -8.1860   34.3790 C   0  0  0  0  0  0  0  0  0  0  0  0
    4.9590   -8.4750   33.2980 N   0  0  0  0  0  0  0  0  0  0  0  0
    4.9780   -7.5650   32.1230 C   0  0  0  0  0  0  0  0  0  0  0  0
    5.8950   -7.4930   30.6100 S   0  0  0  0  0  0  0  0  0  0  0  0
    6.5340   -4.9070   28.5130 C   0  0  0  0  0  0  0  0  0  0  0  0
    6.3610   -3.6110   27.8350 C   0  0  0  0  0  0  0  0  0  0  0  0
    7.5940   -3.2370   23.6730 C   0  0  0  0  0  0  0  0  0  0  0  0
    7.6810   -3.2460   22.2810 C   0  0  0  0  0  0  0  0  0  0  0  0
  1  2  1  0
  2  3  2  0
  2  4  1  0
  4  5  1  0
  5  6  1  0
  6  7  1  0
  7  8  1  0
  8  9  2  0
  8 10  1  0
 10 11  1  0
 11 12  1  0
 12 13  1  0
 13 14  1  0
 14 15  2  0
 15 16  1  0
 16 17  2  0
 17 18  1  0
 18 19  2  0
 19 20  1  0
 16 21  1  0
 20 21  2  0
 14 22  1  0
 21 22  1  0
 13 23  1  0
 10 24  1  0
 23 24  1  0
  7 25  1  0
  4 26  1  0
 25 26  1  0
M  END
