piperidine-amides-7336-covalent
     RDKit          3D

 20 20  0  0  0  0  0  0  0  0999 V2000
    7.1060   -3.2730   19.2090 C   0  0  0  0  0  0  0  0  0  0  0  0
    6.3650   -4.0210   20.2310 C   0  0  0  0  0  0  0  0  0  0  0  0
    5.2780   -4.5450   19.8790 O   0  0  0  0  0  0  0  0  0  0  0  0
    6.8890   -4.1710   21.5130 N   0  0  0  0  0  0  0  0  0  0  0  0
    7.7220   -3.1550   22.1080 C   0  0  0  0  0  0  0  0  0  0  0  0
    7.0230   -2.6480   23.3290 C   0  0  0  0  0  0  0  0  0  0  0  0
    6.6560   -3.7780   24.2470 C   0  0  0  0  0  0  0  0  0  0  0  0
    5.9500   -3.2590   25.4360 C   0  0  0  0  0  0  0  0  0  0  0  0
    4.6960   -3.2040   25.4110 O   0  0  0  0  0  0  0  0  0  0  0  0
    6.6340   -2.8180   26.5870 N   0  0  0  0  0  0  0  0  0  0  0  0
    6.4560   -3.4670   27.8590 C   0  0  0  0  0  0  0  0  0  0  0  0
    7.3920   -4.6400   28.0510 C   0  0  1  0  0  0  0  0  0  0  0  0
    7.4530   -5.6290   27.1210 C   0  0  0  0  0  0  0  0  0  0  0  0
    8.2720   -5.4940   26.0310 C   0  0  0  0  0  0  0  0  0  0  0  0
    9.5730   -5.9370   26.1840 C   0  0  0  0  0  0  0  0  0  0  0  0
    8.5550   -4.3510   28.4160 O   0  0  0  0  0  0  0  0  0  0  0  0
    9.6480   -4.9600   27.7660 C   0  0  0  0  0  0  0  0  0  0  0  0
   10.2000   -4.5030   26.5710 C   0  0  0  0  0  0  0  0  0  0  0  0
    5.7660   -4.8010   23.5260 C   0  0  0  0  0  0  0  0  0  0  0  0
    6.5130   -5.3160   22.2970 C   0  0  0  0  0  0  0  0  0  0  0  0
  1  2  1  0
  2  3  2  0
  2  4  1  0
  4  5  1  0
  5  6  1  0
  6  7  1  0
  7  8  1  0
  8  9  2  0
  8 10  1  0
 10 11  1  0
 12 11  1  6
 12 13  1  0
 13 14  1  0
 14 15  1  0
 12 16  1  0
 16 17  1  0
 17 18  1  0
  7 19  1  0
  4 20  1  0
 19 20  1  0
M  END
