piperidine-amides-24726-covalent
     RDKit          3D

 24 26  0  0  0  0  0  0  0  0999 V2000
    7.0620   -3.3480   19.4210 C   0  0  0  0  0  0  0  0  0  0  0  0
    6.3500   -4.2040   20.3770 C   0  0  0  0  0  0  0  0  0  0  0  0
    5.3660   -4.8700   19.9900 O   0  0  0  0  0  0  0  0  0  0  0  0
    6.7850   -4.3240   21.7110 N   0  0  0  0  0  0  0  0  0  0  0  0
    6.4240   -5.5240   22.4340 C   0  0  0  0  0  0  0  0  0  0  0  0
    5.9490   -5.0870   23.8350 C   0  0  0  0  0  0  0  0  0  0  0  0
    5.6030   -3.6070   23.7540 C   0  0  0  0  0  0  0  0  0  0  0  0
    4.7790   -3.1030   24.9260 C   0  0  0  0  0  0  0  0  0  0  0  0
    3.6290   -2.7150   24.6910 O   0  0  0  0  0  0  0  0  0  0  0  0
    5.2760   -3.0750   26.2430 N   0  0  0  0  0  0  0  0  0  0  0  0
    6.3860   -3.7920   26.2690 C   0  0  0  0  0  0  0  0  0  0  0  0
    5.9210   -5.2300   26.4740 C   0  0  0  0  0  0  0  0  0  0  0  0
    5.8730   -5.1940   27.8270 O   0  0  0  0  0  0  0  0  0  0  0  0
    5.7920   -3.9390   28.3020 C   0  0  2  0  0  0  0  0  0  0  0  0
    5.5070   -3.8270   29.5720 C   0  0  0  0  0  0  0  0  0  0  0  0
    4.1600   -3.9710   29.8510 C   0  0  2  0  0  0  0  0  0  0  0  0
    3.9890   -5.3140   29.9250 N   0  0  0  0  0  0  0  0  0  0  0  0
    5.0540   -6.2810   29.9340 C   0  0  0  0  0  0  0  0  0  0  0  0
    2.9600   -5.8810   30.5750 C   0  0  0  0  0  0  0  0  0  0  0  0
    3.4340   -3.2140   28.7660 C   0  0  0  0  0  0  0  0  0  0  0  0
    3.3660   -3.7880   27.3700 C   0  0  0  0  0  0  0  0  0  0  0  0
    4.7300   -3.2820   27.6020 C   0  0  2  0  0  0  0  0  0  0  0  0
    6.8980   -2.8620   23.5410 C   0  0  0  0  0  0  0  0  0  0  0  0
    7.4650   -3.2360   22.3470 C   0  0  0  0  0  0  0  0  0  0  0  0
  1  2  1  0
  2  3  2  0
  2  4  1  0
  4  5  1  0
  5  6  1  0
  6  7  1  0
  7  8  1  0
  8  9  2  0
  8 10  1  0
 10 11  1  0
 11 12  1  0
 12 13  1  0
 13 14  1  0
 14 15  1  1
 15 16  1  0
 16 17  1  6
 17 18  1  0
 17 19  1  0
 16 20  1  0
 20 21  1  0
 10 22  1  0
 14 22  1  0
 22 21  1  6
  7 23  1  0
  4 24  1  0
 23 24  1  0
M  END
