piperidine-amides-35506-covalent
     RDKit          3D

 36 40  0  0  0  0  0  0  0  0999 V2000
    7.0570   -3.3800   19.3890 C   0  0  0  0  0  0  0  0  0  0  0  0
    6.3800   -4.2240   20.4010 C   0  0  0  0  0  0  0  0  0  0  0  0
    5.4090   -4.8750   20.0010 O   0  0  0  0  0  0  0  0  0  0  0  0
    6.8780   -4.2920   21.7170 N   0  0  0  0  0  0  0  0  0  0  0  0
    7.7470   -3.2370   22.2400 C   0  0  0  0  0  0  0  0  0  0  0  0
    7.3850   -2.8640   23.6580 C   0  0  0  0  0  0  0  0  0  0  0  0
    6.0820   -3.5630   23.9970 C   0  0  0  0  0  0  0  0  0  0  0  0
    5.4670   -3.0080   25.2370 C   0  0  0  0  0  0  0  0  0  0  0  0
    4.3860   -2.4310   25.0880 O   0  0  0  0  0  0  0  0  0  0  0  0
    5.9670   -3.0740   26.5670 N   0  0  0  0  0  0  0  0  0  0  0  0
    6.4580   -1.8260   27.1230 C   0  0  0  0  0  0  0  0  0  0  0  0
    5.8900   -0.4700   26.6960 C   0  0  0  0  0  0  0  0  0  0  0  0
    6.2890    0.7550   27.2050 C   0  0  0  0  0  0  0  0  0  0  0  0
    7.2590    0.7380   28.1550 C   0  0  0  0  0  0  0  0  0  0  0  0
    7.8350    1.7890   28.8210 C   0  0  0  0  0  0  0  0  0  0  0  0
    6.9180    2.7730   29.5130 C   0  0  0  0  0  0  0  0  0  0  0  0
    7.5260    3.9570   29.8460 O   0  0  0  0  0  0  0  0  0  0  0  0
    7.9650   -0.4010   28.7330 C   0  0  0  0  0  0  0  0  0  0  0  0
    7.5410   -1.7170   28.1890 C   0  0  0  0  0  0  0  0  0  0  0  0
    4.8490   -3.4710   27.4150 C   0  0  0  0  0  0  0  0  0  0  0  0
    3.9250   -2.4070   27.5180 N   0  0  0  0  0  0  0  0  0  0  0  0
    2.7890   -2.6020   28.3250 C   0  0  0  0  0  0  0  0  0  0  0  0
    1.7910   -1.8570   28.4480 O   0  0  0  0  0  0  0  0  0  0  0  0
    2.8010   -3.8750   29.1330 C   0  0  0  0  0  0  0  0  0  0  0  0
    1.8720   -4.2740   30.1680 C   0  0  0  0  0  0  0  0  0  0  0  0
    2.2520   -5.4730   30.6180 N   0  0  0  0  0  0  0  0  0  0  0  0
    3.3630   -5.8950   29.9560 N   0  0  0  0  0  0  0  0  0  0  0  0
    3.9980   -7.1380   30.2130 C   0  0  0  0  0  0  0  0  0  0  0  0
    3.1590   -7.7630   31.1370 C   0  0  0  0  0  0  0  0  0  0  0  0
    3.7820   -7.8270   32.4740 C   0  0  0  0  0  0  0  0  0  0  0  0
    5.1490   -7.2600   32.2450 C   0  0  0  0  0  0  0  0  0  0  0  0
    5.3210   -7.0250   30.7360 C   0  0  0  0  0  0  0  0  0  0  0  0
    3.7390   -4.8530   28.9760 C   0  0  0  0  0  0  0  0  0  0  0  0
    4.7180   -4.6550   28.0310 N   0  0  0  0  0  0  0  0  0  0  0  0
    6.1340   -5.0170   23.8880 C   0  0  0  0  0  0  0  0  0  0  0  0
    6.6570   -5.4300   22.5550 C   0  0  0  0  0  0  0  0  0  0  0  0
  1  2  1  0
  2  3  2  0
  2  4  1  0
  4  5  1  0
  5  6  1  0
  6  7  1  0
  7  8  1  0
  8  9  2  0
  8 10  1  0
 10 11  1  0
 11 12  2  0
 12 13  1  0
 13 14  2  0
 14 15  1  0
 15 16  1  0
 16 17  1  0
 14 18  1  0
 11 19  1  0
 18 19  2  0
 10 20  1  0
 20 21  2  0
 21 22  1  0
 22 23  2  0
 22 24  1  0
 24 25  1  0
 25 26  2  0
 26 27  1  0
 27 28  1  0
 28 29  1  0
 29 30  1  0
 30 31  1  0
 28 32  1  0
 31 32  1  0
 24 33  2  0
 27 33  1  0
 20 34  1  0
 33 34  1  0
  7 35  1  0
  4 36  1  0
 35 36  1  0
M  END
