piperidine-amides-2854-covalent
     RDKit          3D

 24 26  0  0  0  0  0  0  0  0999 V2000
    7.1280   -3.2710   19.2140 C   0  0  0  0  0  0  0  0  0  0  0  0
    6.3550   -4.0290   20.1880 C   0  0  0  0  0  0  0  0  0  0  0  0
    5.2830   -4.5370   19.8720 O   0  0  0  0  0  0  0  0  0  0  0  0
    6.8720   -4.2310   21.5030 N   0  0  0  0  0  0  0  0  0  0  0  0
    6.4410   -5.3810   22.2530 C   0  0  0  0  0  0  0  0  0  0  0  0
    5.6940   -4.9300   23.4740 C   0  0  0  0  0  0  0  0  0  0  0  0
    6.5310   -3.8400   24.1190 C   0  0  0  0  0  0  0  0  0  0  0  0
    5.8370   -3.3240   25.3260 C   0  0  0  0  0  0  0  0  0  0  0  0
    4.5950   -3.3030   25.4440 O   0  0  0  0  0  0  0  0  0  0  0  0
    6.6520   -2.8250   26.3580 N   0  0  0  0  0  0  0  0  0  0  0  0
    6.2340   -2.8970   27.7410 C   0  0  0  0  0  0  0  0  0  0  0  0
    5.5610   -4.2110   28.0440 C   0  0  0  0  0  0  0  0  0  0  0  0
    6.2240   -5.1970   28.7570 C   0  0  0  0  0  0  0  0  0  0  0  0
    5.5940   -6.4020   29.0730 C   0  0  0  0  0  0  0  0  0  0  0  0
    6.2940   -7.3520   29.8300 O   0  0  0  0  0  0  0  0  0  0  0  0
    4.2680   -6.6280   28.6570 N   0  0  0  0  0  0  0  0  0  0  0  0
    3.5230   -7.7080   29.1620 C   0  0  0  0  0  0  0  0  0  0  0  0
    2.1390   -7.8680   28.7960 C   0  0  0  0  0  0  0  0  0  0  0  0
    1.6040   -6.9520   27.9660 C   0  0  0  0  0  0  0  0  0  0  0  0
    2.3370   -5.8720   27.5550 C   0  0  0  0  0  0  0  0  0  0  0  0
    3.6690   -5.6110   27.9480 C   0  0  0  0  0  0  0  0  0  0  0  0
    4.2930   -4.4650   27.6590 N   0  0  0  0  0  0  0  0  0  0  0  0
    6.9540   -2.7660   23.2490 C   0  0  0  0  0  0  0  0  0  0  0  0
    7.6680   -3.2220   22.1670 C   0  0  0  0  0  0  0  0  0  0  0  0
  1  2  1  0
  2  3  2  0
  2  4  1  0
  4  5  1  0
  5  6  1  0
  6  7  1  0
  7  8  1  0
  8  9  2  0
  8 10  1  0
 10 11  1  0
 11 12  1  0
 12 13  2  0
 13 14  1  0
 14 15  2  0
 14 16  1  0
 16 17  1  0
 17 18  2  0
 18 19  1  0
 19 20  2  0
 16 21  1  0
 20 21  1  0
 12 22  1  0
 21 22  2  0
  7 23  1  0
  4 24  1  0
 23 24  1  0
M  END
