piperidine-amides-5129-covalent
     RDKit          3D

 22 23  0  0  0  0  0  0  0  0999 V2000
    7.1700   -3.2830   19.1550 C   0  0  0  0  0  0  0  0  0  0  0  0
    6.4520   -4.0240   20.2140 C   0  0  0  0  0  0  0  0  0  0  0  0
    5.3500   -4.5160   19.8890 O   0  0  0  0  0  0  0  0  0  0  0  0
    7.0240   -4.2130   21.4820 N   0  0  0  0  0  0  0  0  0  0  0  0
    7.7740   -3.1590   22.0760 C   0  0  0  0  0  0  0  0  0  0  0  0
    7.2280   -2.7690   23.3630 C   0  0  0  0  0  0  0  0  0  0  0  0
    5.7730   -3.0050   23.4700 C   0  0  0  0  0  0  0  0  0  0  0  0
    5.2590   -2.6510   24.8110 C   0  0  0  0  0  0  0  0  0  0  0  0
    4.5220   -1.6670   24.9320 O   0  0  0  0  0  0  0  0  0  0  0  0
    5.5620   -3.4120   25.9290 N   0  0  0  0  0  0  0  0  0  0  0  0
    4.8180   -4.6470   26.1820 C   0  0  1  0  0  0  0  0  0  0  0  0
    5.1070   -5.7040   25.1940 C   0  0  0  0  0  0  0  0  0  0  0  0
    5.3280   -5.2440   27.3340 C   0  0  0  0  0  0  0  0  0  0  0  0
    4.6000   -5.7750   28.3440 C   0  0  0  0  0  0  0  0  0  0  0  0
    5.1500   -6.3600   29.4350 C   0  0  0  0  0  0  0  0  0  0  0  0
    6.5050   -6.3960   29.4760 C   0  0  0  0  0  0  0  0  0  0  0  0
    7.2250   -5.8410   28.4260 C   0  0  0  0  0  0  0  0  0  0  0  0
    8.9320   -5.7260   28.1830 Cl  0  0  0  0  0  0  0  0  0  0  0  0
    6.6410   -5.2990   27.4170 C   0  0  0  0  0  0  0  0  0  0  0  0
    7.7740   -4.6690   26.2050 Cl  0  0  0  0  0  0  0  0  0  0  0  0
    5.3630   -4.4120   23.0680 C   0  0  0  0  0  0  0  0  0  0  0  0
    6.4750   -5.1520   22.4200 C   0  0  0  0  0  0  0  0  0  0  0  0
  1  2  1  0
  2  3  2  0
  2  4  1  0
  4  5  1  0
  5  6  1  0
  6  7  1  0
  7  8  1  0
  8  9  2  0
  8 10  1  0
 10 11  1  0
 11 12  1  6
 11 13  1  0
 13 14  2  0
 14 15  1  0
 15 16  2  0
 16 17  1  0
 17 18  1  0
 13 19  1  0
 17 19  2  0
 19 20  1  0
  7 21  1  0
  4 22  1  0
 21 22  1  0
M  END
