piperidine-amides-12058-covalent
     RDKit          3D

 25 27  0  0  0  0  0  0  0  0999 V2000
    7.0500   -3.3550   19.3260 C   0  0  0  0  0  0  0  0  0  0  0  0
    6.3750   -4.1900   20.3060 C   0  0  0  0  0  0  0  0  0  0  0  0
    5.3660   -4.8160   19.9760 O   0  0  0  0  0  0  0  0  0  0  0  0
    6.9090   -4.3370   21.6310 N   0  0  0  0  0  0  0  0  0  0  0  0
    6.5060   -5.4500   22.4390 C   0  0  0  0  0  0  0  0  0  0  0  0
    5.7850   -4.9510   23.6630 C   0  0  0  0  0  0  0  0  0  0  0  0
    6.5510   -3.7580   24.2250 C   0  0  0  0  0  0  0  0  0  0  0  0
    5.8160   -3.1500   25.3740 C   0  0  0  0  0  0  0  0  0  0  0  0
    4.5790   -3.0170   25.3840 O   0  0  0  0  0  0  0  0  0  0  0  0
    6.5760   -2.7180   26.4890 N   0  0  0  0  0  0  0  0  0  0  0  0
    6.0570   -1.7100   27.3970 C   0  0  0  0  0  0  0  0  0  0  0  0
    5.6990   -0.4930   26.5790 C   0  0  0  0  0  0  0  0  0  0  0  0
    5.6250    0.7660   27.1780 C   0  0  0  0  0  0  0  0  0  0  0  0
    5.9050    0.8180   28.5930 N   0  0  0  0  0  0  0  0  0  0  0  0
    6.0060    2.1590   29.1020 C   0  0  1  0  0  0  0  0  0  0  0  0
    5.0190    3.0280   28.6340 C   0  0  0  0  0  0  0  0  0  0  0  0
    4.4820    3.8170   29.7580 C   0  0  0  0  0  0  0  0  0  0  0  0
    5.1390    3.3760   30.8460 N   0  0  0  0  0  0  0  0  0  0  0  0
    5.4350    4.3450   31.7390 C   0  0  0  0  0  0  0  0  0  0  0  0
    6.0730    2.3550   30.4530 C   0  0  0  0  0  0  0  0  0  0  0  0
    6.8550    1.7410   31.4130 O   0  0  0  0  0  0  0  0  0  0  0  0
    6.5920   -0.1720   29.2100 C   0  0  0  0  0  0  0  0  0  0  0  0
    6.8620   -1.4270   28.5150 C   0  0  0  0  0  0  0  0  0  0  0  0
    6.8550   -2.7040   23.1810 C   0  0  0  0  0  0  0  0  0  0  0  0
    7.6860   -3.2920   22.2430 C   0  0  0  0  0  0  0  0  0  0  0  0
  1  2  1  0
  2  3  2  0
  2  4  1  0
  4  5  1  0
  5  6  1  0
  6  7  1  0
  7  8  1  0
  8  9  2  0
  8 10  1  0
 10 11  1  0
 11 12  1  0
 12 13  1  0
 13 14  1  0
 15 14  1  1
 15 16  1  0
 16 17  1  0
 17 18  1  0
 18 19  1  0
 15 20  1  0
 18 20  1  0
 20 21  2  0
 14 22  1  0
 11 23  1  0
 22 23  1  0
  7 24  1  0
  4 25  1  0
 24 25  1  0
M  END
