piperidine-amides-4958-covalent
     RDKit          3D

 23 24  0  0  0  0  0  0  0  0999 V2000
    7.0860   -3.2890   19.2770 C   0  0  0  0  0  0  0  0  0  0  0  0
    6.3900   -4.0920   20.3120 C   0  0  0  0  0  0  0  0  0  0  0  0
    5.3510   -4.6810   19.9370 O   0  0  0  0  0  0  0  0  0  0  0  0
    6.8940   -4.2140   21.6230 N   0  0  0  0  0  0  0  0  0  0  0  0
    7.6940   -3.1790   22.2050 C   0  0  0  0  0  0  0  0  0  0  0  0
    7.3010   -2.9000   23.5790 C   0  0  0  0  0  0  0  0  0  0  0  0
    6.0690   -3.6180   23.9450 C   0  0  0  0  0  0  0  0  0  0  0  0
    5.5960   -3.2530   25.3080 C   0  0  0  0  0  0  0  0  0  0  0  0
    4.4370   -2.8150   25.4090 O   0  0  0  0  0  0  0  0  0  0  0  0
    6.3930   -3.3810   26.4640 N   0  0  0  0  0  0  0  0  0  0  0  0
    5.8130   -3.7780   27.7730 C   0  0  0  0  0  0  0  0  0  0  0  0
    6.4980   -4.9280   28.4440 C   0  0  0  0  0  0  0  0  0  0  0  0
    5.8310   -5.6300   29.4760 N   0  0  0  0  0  0  0  0  0  0  0  0
    4.6320   -6.3850   29.2220 C   0  0  0  0  0  0  0  0  0  0  0  0
    4.1510   -6.1870   27.9830 N   0  0  0  0  0  0  0  0  0  0  0  0
    3.0140   -6.9120   27.8020 C   0  0  0  0  0  0  0  0  0  0  0  0
    2.3920   -7.7460   28.7090 C   0  0  0  0  0  0  0  0  0  0  0  0
    0.9160   -8.5850   28.2540 Cl  0  0  0  0  0  0  0  0  0  0  0  0
    2.9510   -7.8870   29.9310 C   0  0  0  0  0  0  0  0  0  0  0  0
    4.0870   -7.1910   30.1770 C   0  0  0  0  0  0  0  0  0  0  0  0
    4.8440   -7.3580   31.7890 Cl  0  0  0  0  0  0  0  0  0  0  0  0
    6.0720   -5.0780   23.6570 C   0  0  0  0  0  0  0  0  0  0  0  0
    6.6340   -5.4050   22.4040 C   0  0  0  0  0  0  0  0  0  0  0  0
  1  2  1  0
  2  3  2  0
  2  4  1  0
  4  5  1  0
  5  6  1  0
  6  7  1  0
  7  8  1  0
  8  9  2  0
  8 10  1  0
 10 11  1  0
 11 12  1  0
 12 13  1  0
 13 14  1  0
 14 15  2  0
 15 16  1  0
 16 17  2  0
 17 18  1  0
 17 19  1  0
 14 20  1  0
 19 20  2  0
 20 21  1  0
  7 22  1  0
  4 23  1  0
 22 23  1  0
M  END
