piperidine-amides-31859-covalent
     RDKit          3D

 27 30  0  0  0  0  0  0  0  0999 V2000
    7.1900   -3.3010   19.3130 C   0  0  0  0  0  0  0  0  0  0  0  0
    6.4430   -4.0780   20.2760 C   0  0  0  0  0  0  0  0  0  0  0  0
    5.3610   -4.6450   19.9180 O   0  0  0  0  0  0  0  0  0  0  0  0
    6.9150   -4.2560   21.5830 N   0  0  0  0  0  0  0  0  0  0  0  0
    7.9170   -3.2510   22.0570 C   0  0  0  0  0  0  0  0  0  0  0  0
    7.4050   -2.9000   23.4920 C   0  0  0  0  0  0  0  0  0  0  0  0
    6.1820   -3.7480   23.6390 C   0  0  0  0  0  0  0  0  0  0  0  0
    5.2580   -3.2180   24.7920 C   0  0  0  0  0  0  0  0  0  0  0  0
    4.1950   -2.8200   24.3560 O   0  0  0  0  0  0  0  0  0  0  0  0
    5.8430   -3.3390   25.8830 N   0  0  0  0  0  0  0  0  0  0  0  0
    6.3140   -2.9950   27.1000 C   0  0  0  0  0  0  0  0  0  0  0  0
    6.5980   -3.8630   28.0620 C   0  0  1  0  0  0  0  0  0  0  0  0
    5.9610   -3.7630   29.2490 C   0  0  0  0  0  0  0  0  0  0  0  0
    4.3210   -3.3870   29.0200 S   0  0  0  0  0  0  0  0  0  0  0  0
    4.0740   -1.9700   28.6960 O   0  0  0  0  0  0  0  0  0  0  0  0
    3.4300   -3.9940   30.0570 O   0  0  0  0  0  0  0  0  0  0  0  0
    4.3380   -4.2970   27.5710 C   0  0  0  0  0  0  0  0  0  0  0  0
    5.7630   -4.9790   27.4400 C   0  0  2  0  0  0  0  0  0  0  0  0
    5.1500   -6.0240   28.1040 C   0  0  0  0  0  0  0  0  0  0  0  0
    3.9500   -6.4760   27.4160 C   0  0  0  0  0  0  0  0  0  0  0  0
    3.5160   -7.5610   28.4180 C   0  0  0  0  0  0  0  0  0  0  0  0
    4.1870   -7.9970   29.7230 C   0  0  0  0  0  0  0  0  0  0  0  0
    5.2990   -7.3770   30.0550 C   0  0  0  0  0  0  0  0  0  0  0  0
    5.7910   -6.4110   29.2840 C   0  0  0  0  0  0  0  0  0  0  0  0
    5.8560   -4.8410   25.9590 C   0  0  0  0  0  0  0  0  0  0  0  0
    6.3350   -5.2250   23.5320 C   0  0  0  0  0  0  0  0  0  0  0  0
    6.7600   -5.5190   22.2540 C   0  0  0  0  0  0  0  0  0  0  0  0
  1  2  1  0
  2  3  2  0
  2  4  1  0
  4  5  1  0
  5  6  1  0
  6  7  1  0
  7  8  1  0
  8  9  2  0
  8 10  1  0
 10 11  1  0
 12 11  1  6
 12 13  1  0
 14 13  1  0
 14 15  2  0
 14 16  2  0
 14 17  1  0
 12 18  1  0
 17 18  1  0
 18 19  1  6
 19 20  2  0
 20 21  1  0
 21 22  2  0
 22 23  1  0
 19 24  1  0
 23 24  2  0
 10 25  1  0
 18 25  1  0
  7 26  1  0
  4 27  1  0
 26 27  1  0
M  END
