piperidine-amides-2950-covalent
     RDKit          3D

 24 25  0  0  0  0  0  0  0  0999 V2000
    7.0820   -3.3500   19.3820 C   0  0  0  0  0  0  0  0  0  0  0  0
    6.3460   -4.1550   20.3460 C   0  0  0  0  0  0  0  0  0  0  0  0
    5.3650   -4.8020   19.9730 O   0  0  0  0  0  0  0  0  0  0  0  0
    6.7920   -4.2350   21.7120 N   0  0  0  0  0  0  0  0  0  0  0  0
    7.6990   -3.2230   22.2210 C   0  0  0  0  0  0  0  0  0  0  0  0
    7.4120   -2.9590   23.6680 C   0  0  0  0  0  0  0  0  0  0  0  0
    6.1110   -3.6640   23.9750 C   0  0  0  0  0  0  0  0  0  0  0  0
    5.6250   -3.2920   25.3370 C   0  0  0  0  0  0  0  0  0  0  0  0
    4.4100   -3.2860   25.6320 O   0  0  0  0  0  0  0  0  0  0  0  0
    6.5630   -2.9240   26.3260 N   0  0  0  0  0  0  0  0  0  0  0  0
    6.4530   -1.6290   26.9660 C   0  0  0  0  0  0  0  0  0  0  0  0
    6.9900   -1.6470   28.3620 C   0  0  0  0  0  0  0  0  0  0  0  0
    6.9730   -0.5090   29.1390 C   0  0  0  0  0  0  0  0  0  0  0  0
    6.4460    0.7000   28.6270 C   0  0  0  0  0  0  0  0  0  0  0  0
    5.9320    0.7820   27.3370 C   0  0  0  0  0  0  0  0  0  0  0  0
    5.4020    1.9990   26.8140 N   0  0  0  0  0  0  0  0  0  0  0  0
    4.5640    2.8560   27.5860 C   0  0  0  0  0  0  0  0  0  0  0  0
    4.9760    3.8440   28.2790 O   0  0  0  0  0  0  0  0  0  0  0  0
    3.2590    2.5210   27.5190 N   0  0  0  0  0  0  0  0  0  0  0  0
    2.9610    1.7190   26.4730 C   0  0  0  0  0  0  0  0  0  0  0  0
    2.2510    3.0850   28.4040 C   0  0  0  0  0  0  0  0  0  0  0  0
    5.9620   -0.4600   26.5200 C   0  0  0  0  0  0  0  0  0  0  0  0
    6.1080   -5.0990   23.7470 C   0  0  0  0  0  0  0  0  0  0  0  0
    6.6140   -5.4320   22.4980 C   0  0  0  0  0  0  0  0  0  0  0  0
  1  2  1  0
  2  3  2  0
  2  4  1  0
  4  5  1  0
  5  6  1  0
  6  7  1  0
  7  8  1  0
  8  9  2  0
  8 10  1  0
 10 11  1  0
 11 12  2  0
 12 13  1  0
 13 14  2  0
 14 15  1  0
 15 16  1  0
 16 17  1  0
 17 18  2  0
 17 19  1  0
 19 20  1  0
 19 21  1  0
 11 22  1  0
 15 22  2  0
  7 23  1  0
  4 24  1  0
 23 24  1  0
M  END
