piperidine-amides-6366-covalent
     RDKit          3D

 25 26  0  0  0  0  0  0  0  0999 V2000
    7.0430   -3.3300   19.3440 C   0  0  0  0  0  0  0  0  0  0  0  0
    6.3730   -4.1820   20.3400 C   0  0  0  0  0  0  0  0  0  0  0  0
    5.3890   -4.8690   19.9910 O   0  0  0  0  0  0  0  0  0  0  0  0
    6.8410   -4.2770   21.6660 N   0  0  0  0  0  0  0  0  0  0  0  0
    6.5980   -5.5120   22.3830 C   0  0  0  0  0  0  0  0  0  0  0  0
    6.1350   -5.1520   23.8070 C   0  0  0  0  0  0  0  0  0  0  0  0
    6.0490   -3.6430   23.9040 C   0  0  0  0  0  0  0  0  0  0  0  0
    5.6220   -3.2300   25.2600 C   0  0  0  0  0  0  0  0  0  0  0  0
    4.3990   -3.2440   25.5140 O   0  0  0  0  0  0  0  0  0  0  0  0
    6.5720   -2.8320   26.2280 N   0  0  0  0  0  0  0  0  0  0  0  0
    6.4490   -1.5680   26.9020 C   0  0  0  0  0  0  0  0  0  0  0  0
    6.9890   -1.5290   28.3060 C   0  0  0  0  0  0  0  0  0  0  0  0
    6.9350   -0.3820   29.0490 C   0  0  0  0  0  0  0  0  0  0  0  0
    7.4440   -0.4210   30.3060 F   0  0  0  0  0  0  0  0  0  0  0  0
    6.3860    0.7910   28.5490 C   0  0  0  0  0  0  0  0  0  0  0  0
    6.3380    2.2720   29.5260 S   0  0  0  0  0  0  0  0  0  0  0  0
    7.1360    3.6420   28.7400 C   0  0  0  0  0  0  0  0  0  0  0  0
    6.5510    4.8740   28.9120 C   0  0  0  0  0  0  0  0  0  0  0  0
    8.4830    3.7660   29.4690 C   0  0  0  0  0  0  0  0  0  0  0  0
    7.4530    3.4730   27.2850 C   0  0  0  0  0  0  0  0  0  0  0  0
    5.8810    0.7690   27.2650 C   0  0  0  0  0  0  0  0  0  0  0  0
    5.3330    1.8880   26.7470 F   0  0  0  0  0  0  0  0  0  0  0  0
    5.9030   -0.4140   26.4120 C   0  0  0  0  0  0  0  0  0  0  0  0
    7.3830   -3.0610   23.5630 C   0  0  0  0  0  0  0  0  0  0  0  0
    7.6160   -3.2120   22.2280 C   0  0  0  0  0  0  0  0  0  0  0  0
  1  2  1  0
  2  3  2  0
  2  4  1  0
  4  5  1  0
  5  6  1  0
  6  7  1  0
  7  8  1  0
  8  9  2  0
  8 10  1  0
 10 11  1  0
 11 12  2  0
 12 13  1  0
 13 14  1  0
 13 15  2  0
 15 16  1  0
 17 16  1  0
 17 18  1  0
 17 19  1  0
 17 20  1  0
 15 21  1  0
 21 22  1  0
 11 23  1  0
 21 23  2  0
  7 24  1  0
  4 25  1  0
 24 25  1  0
M  END
