piperidine-amides-13599-covalent
     RDKit          3D

 29 30  0  0  0  0  0  0  0  0999 V2000
    7.1000   -3.2520   19.2410 C   0  0  0  0  0  0  0  0  0  0  0  0
    6.3280   -4.0290   20.2510 C   0  0  0  0  0  0  0  0  0  0  0  0
    5.2790   -4.5940   19.9010 O   0  0  0  0  0  0  0  0  0  0  0  0
    6.8180   -4.1460   21.5720 N   0  0  0  0  0  0  0  0  0  0  0  0
    6.6600   -5.3860   22.2980 C   0  0  0  0  0  0  0  0  0  0  0  0
    6.0990   -5.0790   23.6960 C   0  0  0  0  0  0  0  0  0  0  0  0
    6.1670   -3.6070   23.9250 C   0  0  0  0  0  0  0  0  0  0  0  0
    5.6600   -3.2120   25.2620 C   0  0  0  0  0  0  0  0  0  0  0  0
    4.4700   -2.8920   25.3100 O   0  0  0  0  0  0  0  0  0  0  0  0
    6.5030   -3.2090   26.3800 N   0  0  0  0  0  0  0  0  0  0  0  0
    6.2290   -3.7400   27.6760 C   0  0  0  0  0  0  0  0  0  0  0  0
    5.2350   -4.6420   27.9590 C   0  0  1  0  0  0  0  0  0  0  0  0
    3.9500   -4.3770   27.4590 C   0  0  0  0  0  0  0  0  0  0  0  0
    3.3920   -3.1400   27.7130 C   0  0  0  0  0  0  0  0  0  0  0  0
    2.4570   -2.4890   26.7780 C   0  0  0  0  0  0  0  0  0  0  0  0
    1.8170   -1.1220   27.0170 C   0  0  0  0  0  0  0  0  0  0  0  0
    2.1970   -0.4120   28.3270 C   0  0  0  0  0  0  0  0  0  0  0  0
    1.7450    0.8250   28.7500 C   0  0  0  0  0  0  0  0  0  0  0  0
    0.7410    1.4610   28.0640 F   0  0  0  0  0  0  0  0  0  0  0  0
    2.8350    1.7350   28.6230 F   0  0  0  0  0  0  0  0  0  0  0  0
    1.5050    0.8250   30.1440 F   0  0  0  0  0  0  0  0  0  0  0  0
    3.1470   -1.0910   29.2630 C   0  0  0  0  0  0  0  0  0  0  0  0
    3.6950   -2.4610   28.8660 C   0  0  0  0  0  0  0  0  0  0  0  0
    5.6450   -6.0740   27.5630 C   0  0  0  0  0  0  0  0  0  0  0  0
    6.8580   -6.5020   27.5650 O   0  0  0  0  0  0  0  0  0  0  0  0
    4.5770   -6.9340   27.1820 N   0  0  0  0  0  0  0  0  0  0  0  0
    4.0140   -6.9790   25.8720 C   0  0  0  0  0  0  0  0  0  0  0  0
    7.4990   -3.0100   23.6320 C   0  0  0  0  0  0  0  0  0  0  0  0
    7.6970   -3.1240   22.1250 C   0  0  0  0  0  0  0  0  0  0  0  0
  1  2  1  0
  2  3  2  0
  2  4  1  0
  4  5  1  0
  5  6  1  0
  6  7  1  0
  7  8  1  0
  8  9  2  0
  8 10  1  0
 10 11  1  0
 12 11  1  6
 12 13  1  0
 13 14  1  0
 14 15  2  0
 15 16  1  0
 16 17  2  0
 17 18  1  0
 18 19  1  0
 18 20  1  0
 18 21  1  0
 17 22  1  0
 14 23  1  0
 22 23  2  0
 12 24  1  0
 24 25  2  0
 24 26  1  0
 26 27  1  0
  7 28  1  0
  4 29  1  0
 28 29  1  0
M  END
