piperidine-amides-13234-covalent
     RDKit          3D

 19 19  0  0  0  0  0  0  0  0999 V2000
    7.1240   -3.2530   19.2190 C   0  0  0  0  0  0  0  0  0  0  0  0
    6.3800   -4.0180   20.2530 C   0  0  0  0  0  0  0  0  0  0  0  0
    5.3160   -4.5580   19.8900 O   0  0  0  0  0  0  0  0  0  0  0  0
    6.8830   -4.1600   21.5520 N   0  0  0  0  0  0  0  0  0  0  0  0
    7.6810   -3.1230   22.1150 C   0  0  0  0  0  0  0  0  0  0  0  0
    7.3110   -2.8320   23.4870 C   0  0  0  0  0  0  0  0  0  0  0  0
    6.0430   -3.4700   23.8980 C   0  0  0  0  0  0  0  0  0  0  0  0
    5.7930   -3.1910   25.3320 C   0  0  0  0  0  0  0  0  0  0  0  0
    4.6100   -3.2090   25.7310 O   0  0  0  0  0  0  0  0  0  0  0  0
    6.8480   -2.9020   26.2270 N   0  0  0  0  0  0  0  0  0  0  0  0
    6.9900   -3.5670   27.5410 C   0  0  0  0  0  0  0  0  0  0  0  0
    7.2660   -5.0180   27.3930 C   0  0  0  0  0  0  0  0  0  0  0  0
    6.7470   -5.8620   28.1780 O   0  0  0  0  0  0  0  0  0  0  0  0
    8.1250   -5.4390   26.3510 N   0  0  0  0  0  0  0  0  0  0  0  0
    9.5180   -5.4820   26.6580 C   0  0  0  0  0  0  0  0  0  0  0  0
    9.5550   -5.1310   27.9760 C   0  0  0  0  0  0  0  0  0  0  0  0
   10.3090   -4.3650   25.9550 C   0  0  0  0  0  0  0  0  0  0  0  0
    5.8710   -4.9130   23.5030 C   0  0  0  0  0  0  0  0  0  0  0  0
    6.5330   -5.2820   22.3540 C   0  0  0  0  0  0  0  0  0  0  0  0
  1  2  1  0
  2  3  2  0
  2  4  1  0
  4  5  1  0
  5  6  1  0
  6  7  1  0
  7  8  1  0
  8  9  2  0
  8 10  1  0
 10 11  1  0
 11 12  1  0
 12 13  2  0
 12 14  1  0
 14 15  1  0
 15 16  1  0
 15 17  1  0
  7 18  1  0
  4 19  1  0
 18 19  1  0
M  END
