piperidine-amides-8909-covalent
     RDKit          3D

 22 23  0  0  0  0  0  0  0  0999 V2000
    7.0730   -3.2680   19.2330 C   0  0  0  0  0  0  0  0  0  0  0  0
    6.3360   -4.0300   20.2350 C   0  0  0  0  0  0  0  0  0  0  0  0
    5.2760   -4.5810   19.8940 O   0  0  0  0  0  0  0  0  0  0  0  0
    6.8490   -4.1770   21.5490 N   0  0  0  0  0  0  0  0  0  0  0  0
    6.5010   -5.3420   22.3070 C   0  0  0  0  0  0  0  0  0  0  0  0
    5.7050   -4.9200   23.5060 C   0  0  0  0  0  0  0  0  0  0  0  0
    6.5340   -3.8640   24.2040 C   0  0  0  0  0  0  0  0  0  0  0  0
    5.7480   -3.2830   25.3450 C   0  0  0  0  0  0  0  0  0  0  0  0
    4.5450   -3.1230   25.1420 O   0  0  0  0  0  0  0  0  0  0  0  0
    6.4050   -2.9660   26.5380 N   0  0  0  0  0  0  0  0  0  0  0  0
    6.2110   -3.7150   27.7420 C   0  0  0  0  0  0  0  0  0  0  0  0
    5.2920   -3.1820   28.6610 C   0  0  0  0  0  0  0  0  0  0  0  0
    4.4860   -4.1800   29.3670 N   0  0  0  0  0  0  0  0  0  0  0  0
    3.6160   -3.5690   30.2510 C   0  0  0  0  0  0  0  0  0  0  0  0
    3.8840   -2.2280   30.0820 C   0  0  0  0  0  0  0  0  0  0  0  0
    4.8880   -1.9530   29.1320 N   0  0  0  0  0  0  0  0  0  0  0  0
    5.4100   -0.6840   28.7120 C   0  0  0  0  0  0  0  0  0  0  0  0
    6.6430   -0.2160   29.5160 C   0  0  0  0  0  0  0  0  0  0  0  0
    7.6940   -1.2300   29.3100 C   0  0  0  0  0  0  0  0  0  0  0  0
    6.3280   -0.1520   30.9860 C   0  0  0  0  0  0  0  0  0  0  0  0
    7.0070   -2.7480   23.3760 C   0  0  0  0  0  0  0  0  0  0  0  0
    7.6190   -3.1430   22.2120 C   0  0  0  0  0  0  0  0  0  0  0  0
  1  2  1  0
  2  3  2  0
  2  4  1  0
  4  5  1  0
  5  6  1  0
  6  7  1  0
  7  8  1  0
  8  9  2  0
  8 10  1  0
 10 11  1  0
 11 12  1  0
 12 13  2  0
 13 14  1  0
 14 15  2  0
 12 16  1  0
 15 16  1  0
 16 17  1  0
 17 18  1  0
 18 19  1  0
 18 20  1  0
  7 21  1  0
  4 22  1  0
 21 22  1  0
M  END
