piperidine-amides-4475-covalent
     RDKit          3D

 25 28  0  0  0  0  0  0  0  0999 V2000
    7.0950   -3.2720   19.2400 C   0  0  0  0  0  0  0  0  0  0  0  0
    6.3620   -4.0560   20.2630 C   0  0  0  0  0  0  0  0  0  0  0  0
    5.2950   -4.5860   19.8950 O   0  0  0  0  0  0  0  0  0  0  0  0
    6.8710   -4.2270   21.5610 N   0  0  0  0  0  0  0  0  0  0  0  0
    7.6480   -3.1910   22.1640 C   0  0  0  0  0  0  0  0  0  0  0  0
    7.2310   -2.8780   23.5220 C   0  0  0  0  0  0  0  0  0  0  0  0
    5.9870   -3.5650   23.9150 C   0  0  0  0  0  0  0  0  0  0  0  0
    5.6740   -3.2630   25.3320 C   0  0  0  0  0  0  0  0  0  0  0  0
    4.5280   -3.5190   25.7470 O   0  0  0  0  0  0  0  0  0  0  0  0
    6.6370   -2.6960   26.1760 N   0  0  0  0  0  0  0  0  0  0  0  0
    6.3420   -1.6020   27.1290 C   0  0  0  0  0  0  0  0  0  0  0  0
    5.1900   -0.7550   26.6880 C   0  0  2  0  0  0  0  0  0  0  0  0
    5.4680    0.2060   25.7850 C   0  0  0  0  0  0  0  0  0  0  0  0
    4.9860    0.8720   26.7530 C   0  0  2  0  0  0  0  0  0  0  0  0
    5.7750    1.5760   27.6460 C   0  0  0  0  0  0  0  0  0  0  0  0
    5.3400    1.4130   28.9330 C   0  0  0  0  0  0  0  0  0  0  0  0
    4.0990    2.0700   29.0050 O   0  0  0  0  0  0  0  0  0  0  0  0
    3.2720    2.1360   27.8860 C   0  0  0  0  0  0  0  0  0  0  0  0
    2.0870    2.7970   28.0220 C   0  0  0  0  0  0  0  0  0  0  0  0
    1.2050    2.9070   26.9450 C   0  0  0  0  0  0  0  0  0  0  0  0
    1.4660    2.3340   25.6010 C   0  0  0  0  0  0  0  0  0  0  0  0
    2.7900    1.6110   25.5020 C   0  0  0  0  0  0  0  0  0  0  0  0
    3.6820    1.5390   26.7080 C   0  0  0  0  0  0  0  0  0  0  0  0
    5.9080   -5.0070   23.6110 C   0  0  0  0  0  0  0  0  0  0  0  0
    6.6110   -5.4270   22.3350 C   0  0  0  0  0  0  0  0  0  0  0  0
  1  2  1  0
  2  3  2  0
  2  4  1  0
  4  5  1  0
  5  6  1  0
  6  7  1  0
  7  8  1  0
  8  9  2  0
  8 10  1  0
 10 11  1  0
 12 11  1  1
 12 13  1  0
 12 14  1  0
 14 13  1  6
 14 15  1  0
 15 16  1  0
 16 17  1  0
 17 18  1  0
 18 19  2  0
 19 20  1  0
 20 21  2  0
 21 22  1  0
 14 23  1  0
 18 23  1  0
 22 23  2  0
  7 24  1  0
  4 25  1  0
 24 25  1  0
M  END
