piperidine-amides-10714-covalent
     RDKit          3D

 22 23  0  0  0  0  0  0  0  0999 V2000
    7.0930   -3.2870   19.2530 C   0  0  0  0  0  0  0  0  0  0  0  0
    6.3590   -4.0650   20.2540 C   0  0  0  0  0  0  0  0  0  0  0  0
    5.3070   -4.6350   19.9170 O   0  0  0  0  0  0  0  0  0  0  0  0
    6.8310   -4.2330   21.5660 N   0  0  0  0  0  0  0  0  0  0  0  0
    6.5660   -5.4220   22.3330 C   0  0  0  0  0  0  0  0  0  0  0  0
    5.8370   -4.9480   23.5680 C   0  0  0  0  0  0  0  0  0  0  0  0
    6.4880   -3.7680   24.2410 C   0  0  0  0  0  0  0  0  0  0  0  0
    5.6600   -3.2180   25.3530 C   0  0  0  0  0  0  0  0  0  0  0  0
    4.4720   -2.8610   25.1030 O   0  0  0  0  0  0  0  0  0  0  0  0
    6.0900   -3.0670   26.7000 N   0  0  0  0  0  0  0  0  0  0  0  0
    6.1760   -4.2380   27.6080 C   0  0  0  0  0  0  0  0  0  0  0  0
    5.0490   -4.3050   28.5630 C   0  0  0  0  0  0  0  0  0  0  0  0
    5.1610   -5.1450   29.4940 O   0  0  0  0  0  0  0  0  0  0  0  0
    5.9750   -6.1970   29.2550 C   0  0  0  0  0  0  0  0  0  0  0  0
    5.8170   -7.4400   30.0970 C   0  0  0  0  0  0  0  0  0  0  0  0
    4.7630   -3.0110   29.2300 C   0  0  0  0  0  0  0  0  0  0  0  0
    3.4190   -2.9990   29.8510 C   0  0  0  0  0  0  0  0  0  0  0  0
    2.4980   -3.7950   29.5690 O   0  0  0  0  0  0  0  0  0  0  0  0
    2.6300   -4.8310   28.6400 C   0  0  0  0  0  0  0  0  0  0  0  0
    3.7990   -4.7370   27.8600 C   0  0  0  0  0  0  0  0  0  0  0  0
    6.7720   -2.6020   23.2790 C   0  0  0  0  0  0  0  0  0  0  0  0
    7.6310   -3.1950   22.1640 C   0  0  0  0  0  0  0  0  0  0  0  0
  1  2  1  0
  2  3  2  0
  2  4  1  0
  4  5  1  0
  5  6  1  0
  6  7  1  0
  7  8  1  0
  8  9  2  0
  8 10  1  0
 10 11  1  0
 11 12  1  0
 12 13  1  0
 13 14  1  0
 14 15  1  0
 12 16  1  0
 16 17  1  0
 17 18  1  0
 18 19  1  0
 12 20  1  0
 19 20  1  0
  7 21  1  0
  4 22  1  0
 21 22  1  0
M  END
