piperidine-amides-9966-covalent
     RDKit          3D

 26 27  0  0  0  0  0  0  0  0999 V2000
    7.1060   -3.2740   19.2280 C   0  0  0  0  0  0  0  0  0  0  0  0
    6.3950   -4.0320   20.2630 C   0  0  0  0  0  0  0  0  0  0  0  0
    5.3210   -4.5850   19.9040 O   0  0  0  0  0  0  0  0  0  0  0  0
    6.9140   -4.1650   21.5560 N   0  0  0  0  0  0  0  0  0  0  0  0
    6.6730   -5.3660   22.3300 C   0  0  0  0  0  0  0  0  0  0  0  0
    6.1610   -4.9820   23.6970 C   0  0  0  0  0  0  0  0  0  0  0  0
    6.0760   -3.4900   23.8690 C   0  0  0  0  0  0  0  0  0  0  0  0
    5.6400   -3.1160   25.2300 C   0  0  0  0  0  0  0  0  0  0  0  0
    4.6120   -2.4180   25.3290 O   0  0  0  0  0  0  0  0  0  0  0  0
    6.2940   -3.4990   26.4100 N   0  0  0  0  0  0  0  0  0  0  0  0
    5.6430   -4.4170   27.2970 C   0  0  1  0  0  0  0  0  0  0  0  0
    5.8350   -5.8450   26.8050 C   0  0  0  0  0  0  0  0  0  0  0  0
    6.1470   -4.3710   28.6690 C   0  0  0  0  0  0  0  0  0  0  0  0
    5.5850   -5.2400   29.5600 C   0  0  0  0  0  0  0  0  0  0  0  0
    4.4270   -4.9930   30.2690 C   0  0  0  0  0  0  0  0  0  0  0  0
    3.9220   -5.9230   31.1560 C   0  0  0  0  0  0  0  0  0  0  0  0
    4.5640   -7.1290   31.3580 C   0  0  0  0  0  0  0  0  0  0  0  0
    4.0780   -8.0310   32.2230 F   0  0  0  0  0  0  0  0  0  0  0  0
    5.8390   -7.4920   30.6210 C   0  0  0  0  0  0  0  0  0  0  0  0
    6.3030   -6.3990   29.6710 C   0  0  0  0  0  0  0  0  0  0  0  0
    4.1680   -4.1000   27.3420 C   0  0  0  0  0  0  0  0  0  0  0  0
    3.8360   -2.7590   27.6120 O   0  0  0  0  0  0  0  0  0  0  0  0
    3.2460   -5.0910   27.1230 O   0  0  0  0  0  0  0  0  0  0  0  0
    2.4420   -5.4360   28.1620 C   0  0  0  0  0  0  0  0  0  0  0  0
    7.3450   -2.8260   23.5260 C   0  0  0  0  0  0  0  0  0  0  0  0
    7.7490   -3.1140   22.1060 C   0  0  0  0  0  0  0  0  0  0  0  0
  1  2  1  0
  2  3  2  0
  2  4  1  0
  4  5  1  0
  5  6  1  0
  6  7  1  0
  7  8  1  0
  8  9  2  0
  8 10  1  0
 10 11  1  0
 11 12  1  6
 11 13  1  0
 13 14  1  0
 14 15  2  0
 15 16  1  0
 16 17  2  0
 17 18  1  0
 17 19  1  0
 14 20  1  0
 19 20  2  0
 11 21  1  0
 21 22  2  0
 21 23  1  0
 23 24  1  0
  7 25  1  0
  4 26  1  0
 25 26  1  0
M  END
