piperidine-amides-10133-covalent
     RDKit          3D

 25 26  0  0  0  0  0  0  0  0999 V2000
    7.0370   -3.3660   19.4050 C   0  0  0  0  0  0  0  0  0  0  0  0
    6.3380   -4.1900   20.3960 C   0  0  0  0  0  0  0  0  0  0  0  0
    5.3460   -4.8410   19.9760 O   0  0  0  0  0  0  0  0  0  0  0  0
    6.7930   -4.2700   21.7200 N   0  0  0  0  0  0  0  0  0  0  0  0
    6.6820   -5.4960   22.4760 C   0  0  0  0  0  0  0  0  0  0  0  0
    6.0960   -5.1500   23.8150 C   0  0  0  0  0  0  0  0  0  0  0  0
    6.0760   -3.6620   24.0260 C   0  0  0  0  0  0  0  0  0  0  0  0
    5.4780   -3.3140   25.3460 C   0  0  0  0  0  0  0  0  0  0  0  0
    4.2340   -3.2270   25.3830 O   0  0  0  0  0  0  0  0  0  0  0  0
    6.1800   -3.0730   26.5490 N   0  0  0  0  0  0  0  0  0  0  0  0
    6.6040   -1.7400   26.9080 C   0  0  0  0  0  0  0  0  0  0  0  0
    5.5580   -0.6580   26.6610 C   0  0  0  0  0  0  0  0  0  0  0  0
    5.5580    0.5660   27.3090 C   0  0  0  0  0  0  0  0  0  0  0  0
    5.7960    0.6530   28.6540 N   0  0  0  0  0  0  0  0  0  0  0  0
    5.7820    2.2130   29.2780 S   0  0  0  0  0  0  0  0  0  0  0  0
    5.7250    2.1200   30.7610 O   0  0  0  0  0  0  0  0  0  0  0  0
    4.5820    2.8600   28.6870 O   0  0  0  0  0  0  0  0  0  0  0  0
    7.1940    3.2010   28.8090 C   0  0  0  0  0  0  0  0  0  0  0  0
    7.3590    3.7740   27.5530 C   0  0  0  0  0  0  0  0  0  0  0  0
    6.5030    4.8210   27.2690 C   0  0  0  0  0  0  0  0  0  0  0  0
    8.6450    4.0940   27.2090 C   0  0  0  0  0  0  0  0  0  0  0  0
    6.5590   -0.3010   29.1980 C   0  0  0  0  0  0  0  0  0  0  0  0
    6.9340   -1.4750   28.3140 C   0  0  0  0  0  0  0  0  0  0  0  0
    7.4670   -3.0730   23.7580 C   0  0  0  0  0  0  0  0  0  0  0  0
    7.6560   -3.2080   22.2510 C   0  0  0  0  0  0  0  0  0  0  0  0
  1  2  1  0
  2  3  2  0
  2  4  1  0
  4  5  1  0
  5  6  1  0
  6  7  1  0
  7  8  1  0
  8  9  2  0
  8 10  1  0
 10 11  1  0
 11 12  1  0
 12 13  1  0
 13 14  1  0
 14 15  1  0
 15 16  2  0
 15 17  2  0
 15 18  1  0
 18 19  1  0
 19 20  1  0
 19 21  1  0
 14 22  1  0
 11 23  1  0
 22 23  1  0
  7 24  1  0
  4 25  1  0
 24 25  1  0
M  END
