piperidine-amides-14832-covalent
     RDKit          3D

 22 23  0  0  0  0  0  0  0  0999 V2000
    7.0520   -3.3360   19.3130 C   0  0  0  0  0  0  0  0  0  0  0  0
    6.3820   -4.1650   20.3150 C   0  0  0  0  0  0  0  0  0  0  0  0
    5.3670   -4.7960   19.9650 O   0  0  0  0  0  0  0  0  0  0  0  0
    6.9050   -4.2760   21.6290 N   0  0  0  0  0  0  0  0  0  0  0  0
    7.7310   -3.2260   22.1670 C   0  0  0  0  0  0  0  0  0  0  0  0
    7.0520   -2.6100   23.3420 C   0  0  0  0  0  0  0  0  0  0  0  0
    6.6300   -3.7630   24.2040 C   0  0  0  0  0  0  0  0  0  0  0  0
    5.7720   -3.2480   25.3180 C   0  0  0  0  0  0  0  0  0  0  0  0
    4.6010   -2.9950   25.0420 O   0  0  0  0  0  0  0  0  0  0  0  0
    6.3530   -3.1010   26.5690 N   0  0  0  0  0  0  0  0  0  0  0  0
    6.4250   -1.8670   27.2780 C   0  0  0  0  0  0  0  0  0  0  0  0
    7.0130   -1.6670   28.5330 C   0  0  0  0  0  0  0  0  0  0  0  0
    7.0490   -0.4500   29.1720 C   0  0  0  0  0  0  0  0  0  0  0  0
    6.5000    0.7120   28.6350 C   0  0  0  0  0  0  0  0  0  0  0  0
    6.6370    1.8360   29.4370 O   0  0  0  0  0  0  0  0  0  0  0  0
    6.4290    1.5790   30.7710 C   0  0  0  0  0  0  0  0  0  0  0  0
    7.3300    0.7500   31.7250 C   0  0  0  0  0  0  0  0  0  0  0  0
    5.8680    0.7250   27.3890 C   0  0  0  0  0  0  0  0  0  0  0  0
    5.3320    1.9070   26.8910 F   0  0  0  0  0  0  0  0  0  0  0  0
    5.8340   -0.5980   26.6990 C   0  0  0  0  0  0  0  0  0  0  0  0
    5.8920   -4.8540   23.5430 C   0  0  0  0  0  0  0  0  0  0  0  0
    6.5940   -5.3990   22.4880 C   0  0  0  0  0  0  0  0  0  0  0  0
  1  2  1  0
  2  3  2  0
  2  4  1  0
  4  5  1  0
  5  6  1  0
  6  7  1  0
  7  8  1  0
  8  9  2  0
  8 10  1  0
 10 11  1  0
 11 12  2  0
 12 13  1  0
 13 14  2  0
 14 15  1  0
 15 16  1  0
 16 17  1  0
 14 18  1  0
 18 19  1  0
 11 20  1  0
 18 20  2  0
  7 21  1  0
  4 22  1  0
 21 22  1  0
M  END
