piperidine-amides-4308-covalent
     RDKit          3D

 26 27  0  0  0  0  0  0  0  0999 V2000
    7.0890   -3.2800   19.2710 C   0  0  0  0  0  0  0  0  0  0  0  0
    6.3470   -4.1000   20.2410 C   0  0  0  0  0  0  0  0  0  0  0  0
    5.2400   -4.5440   19.8760 O   0  0  0  0  0  0  0  0  0  0  0  0
    6.8860   -4.4410   21.5010 N   0  0  0  0  0  0  0  0  0  0  0  0
    7.5150   -3.4150   22.2570 C   0  0  0  0  0  0  0  0  0  0  0  0
    7.1760   -3.3920   23.6740 C   0  0  0  0  0  0  0  0  0  0  0  0
    6.3330   -4.5000   24.1750 C   0  0  0  0  0  0  0  0  0  0  0  0
    5.3660   -4.0230   25.2110 C   0  0  0  0  0  0  0  0  0  0  0  0
    4.1480   -4.1800   25.0190 O   0  0  0  0  0  0  0  0  0  0  0  0
    5.7380   -3.3720   26.3890 N   0  0  0  0  0  0  0  0  0  0  0  0
    6.0220   -4.0100   27.6150 C   0  0  0  0  0  0  0  0  0  0  0  0
    5.9870   -5.4710   27.6550 C   0  0  0  0  0  0  0  0  0  0  0  0
    6.7030   -6.2390   28.4780 N   0  0  0  0  0  0  0  0  0  0  0  0
    5.3170   -1.9970   26.3920 C   0  0  0  0  0  0  0  0  0  0  0  0
    5.6970   -1.5000   25.1830 C   0  0  0  0  0  0  0  0  0  0  0  0
    4.6660   -1.4140   24.1010 C   0  0  0  0  0  0  0  0  0  0  0  0
    5.2980   -0.8640   22.8070 C   0  0  0  0  0  0  0  0  0  0  0  0
    6.8380   -0.5080   22.8380 C   0  0  0  0  0  0  0  0  0  0  0  0
    7.5310   -0.0060   21.7300 O   0  0  0  0  0  0  0  0  0  0  0  0
    8.6470   -0.7200   21.2050 C   0  0  0  0  0  0  0  0  0  0  0  0
    7.7900   -0.6440   24.0180 C   0  0  0  0  0  0  0  0  0  0  0  0
    7.1010   -1.1750   25.2360 C   0  0  0  0  0  0  0  0  0  0  0  0
    7.7620   -1.3310   26.2750 O   0  0  0  0  0  0  0  0  0  0  0  0
    7.2750   -0.9720   27.5620 C   0  0  0  0  0  0  0  0  0  0  0  0
    5.5760   -5.2200   23.1080 C   0  0  0  0  0  0  0  0  0  0  0  0
    6.4750   -5.6380   22.1600 C   0  0  0  0  0  0  0  0  0  0  0  0
  1  2  1  0
  2  3  2  0
  2  4  1  0
  4  5  1  0
  5  6  1  0
  6  7  1  0
  7  8  1  0
  8  9  2  0
  8 10  1  0
 10 11  1  0
 11 12  1  0
 12 13  1  0
 10 14  1  0
 14 15  1  0
 15 16  2  0
 16 17  1  0
 17 18  2  0
 18 19  1  0
 19 20  1  0
 18 21  1  0
 15 22  1  0
 21 22  2  0
 22 23  1  0
 23 24  1  0
  7 25  1  0
  4 26  1  0
 25 26  1  0
M  END
