piperidine-amides-8762-covalent
     RDKit          3D

 23 24  0  0  0  0  0  0  0  0999 V2000
    7.0010   -3.3280   19.3510 C   0  0  0  0  0  0  0  0  0  0  0  0
    6.3340   -4.1650   20.3550 C   0  0  0  0  0  0  0  0  0  0  0  0
    5.3840   -4.8760   19.9810 O   0  0  0  0  0  0  0  0  0  0  0  0
    6.7730   -4.1830   21.7070 N   0  0  0  0  0  0  0  0  0  0  0  0
    7.6820   -3.1680   22.1570 C   0  0  0  0  0  0  0  0  0  0  0  0
    7.5280   -3.0630   23.6280 C   0  0  0  0  0  0  0  0  0  0  0  0
    6.1180   -3.5350   23.8700 C   0  0  0  0  0  0  0  0  0  0  0  0
    5.7030   -3.2170   25.2750 C   0  0  0  0  0  0  0  0  0  0  0  0
    4.5220   -3.4000   25.5590 O   0  0  0  0  0  0  0  0  0  0  0  0
    6.6890   -2.7460   26.1290 N   0  0  0  0  0  0  0  0  0  0  0  0
    6.5530   -1.6170   27.0030 C   0  0  0  0  0  0  0  0  0  0  0  0
    7.0070   -1.6150   28.3190 C   0  0  0  0  0  0  0  0  0  0  0  0
    6.8770   -0.5210   29.1580 C   0  0  0  0  0  0  0  0  0  0  0  0
    6.2880    0.7150   28.8260 C   0  0  0  0  0  0  0  0  0  0  0  0
    6.1600    1.8020   29.6580 F   0  0  0  0  0  0  0  0  0  0  0  0
    5.7820    0.7520   27.4060 C   0  0  0  0  0  0  0  0  0  0  0  0
    5.9180   -0.4490   26.4650 C   0  0  0  0  0  0  0  0  0  0  0  0
    5.4420   -0.2410   25.3200 O   0  0  0  0  0  0  0  0  0  0  0  0
    4.1420   -0.6390   25.1440 C   0  0  0  0  0  0  0  0  0  0  0  0
    3.5060   -1.2510   26.3620 C   0  0  0  0  0  0  0  0  0  0  0  0
    2.6780   -0.1300   27.0290 C   0  0  0  0  0  0  0  0  0  0  0  0
    6.0270   -5.0420   23.6900 C   0  0  0  0  0  0  0  0  0  0  0  0
    6.6610   -5.3900   22.4970 C   0  0  0  0  0  0  0  0  0  0  0  0
  1  2  1  0
  2  3  2  0
  2  4  1  0
  4  5  1  0
  5  6  1  0
  6  7  1  0
  7  8  1  0
  8  9  2  0
  8 10  1  0
 10 11  1  0
 11 12  2  0
 12 13  1  0
 13 14  2  0
 14 15  1  0
 14 16  1  0
 11 17  1  0
 16 17  2  0
 17 18  1  0
 18 19  1  0
 19 20  1  0
 20 21  1  0
  7 22  1  0
  4 23  1  0
 22 23  1  0
M  END
