piperidine-amides-15224-covalent
     RDKit          3D

 20 20  0  0  0  0  0  0  0  0999 V2000
    7.1230   -3.2720   19.2590 C   0  0  0  0  0  0  0  0  0  0  0  0
    6.3240   -4.0130   20.2470 C   0  0  0  0  0  0  0  0  0  0  0  0
    5.2890   -4.6250   19.9070 O   0  0  0  0  0  0  0  0  0  0  0  0
    6.7480   -4.0780   21.5770 N   0  0  0  0  0  0  0  0  0  0  0  0
    6.6150   -5.3370   22.2690 C   0  0  0  0  0  0  0  0  0  0  0  0
    5.9520   -5.0550   23.6260 C   0  0  0  0  0  0  0  0  0  0  0  0
    6.0230   -3.5550   23.8490 C   0  0  0  0  0  0  0  0  0  0  0  0
    5.5370   -3.2170   25.1980 C   0  0  0  0  0  0  0  0  0  0  0  0
    4.3050   -3.1900   25.3930 O   0  0  0  0  0  0  0  0  0  0  0  0
    6.4580   -2.9230   26.2230 N   0  0  0  0  0  0  0  0  0  0  0  0
    6.6500   -3.8320   27.3130 C   0  0  1  0  0  0  0  0  0  0  0  0
    6.0280   -3.1540   28.5110 C   0  0  0  0  0  0  0  0  0  0  0  0
    5.9110   -5.0860   27.0130 C   0  0  0  0  0  0  0  0  0  0  0  0
    5.0550   -5.5110   27.8520 O   0  0  0  0  0  0  0  0  0  0  0  0
    8.0600   -4.0480   27.4970 C   0  0  0  0  0  0  0  0  0  0  0  0
    8.5740   -5.3210   27.6230 C   0  0  0  0  0  0  0  0  0  0  0  0
    9.0320   -5.9650   26.4950 C   0  0  0  0  0  0  0  0  0  0  0  0
    7.4300   -6.1160   28.2450 C   0  0  0  0  0  0  0  0  0  0  0  0
    7.3620   -2.9920   23.5540 C   0  0  0  0  0  0  0  0  0  0  0  0
    7.6870   -3.0970   22.1060 C   0  0  0  0  0  0  0  0  0  0  0  0
  1  2  1  0
  2  3  2  0
  2  4  1  0
  4  5  1  0
  5  6  1  0
  6  7  1  0
  7  8  1  0
  8  9  2  0
  8 10  1  0
 11 10  1  0
 11 12  1  1
 11 13  1  0
 13 14  1  0
 11 15  1  0
 15 16  1  0
 16 17  1  0
 16 18  1  0
  7 19  1  0
  4 20  1  0
 19 20  1  0
M  END
