piperidine-amides-21541-covalent
     RDKit          3D

 23 25  0  0  0  0  0  0  0  0999 V2000
    7.0760   -3.3260   19.2720 C   0  0  0  0  0  0  0  0  0  0  0  0
    6.3290   -4.0910   20.2740 C   0  0  0  0  0  0  0  0  0  0  0  0
    5.2560   -4.6200   19.8990 O   0  0  0  0  0  0  0  0  0  0  0  0
    6.8330   -4.2520   21.5610 N   0  0  0  0  0  0  0  0  0  0  0  0
    7.6630   -3.2290   22.1600 C   0  0  0  0  0  0  0  0  0  0  0  0
    6.9700   -2.7270   23.3900 C   0  0  0  0  0  0  0  0  0  0  0  0
    6.5460   -3.8870   24.2290 C   0  0  0  0  0  0  0  0  0  0  0  0
    5.7680   -3.4290   25.4080 C   0  0  0  0  0  0  0  0  0  0  0  0
    4.5230   -3.5050   25.3520 O   0  0  0  0  0  0  0  0  0  0  0  0
    6.3540   -2.8910   26.5750 N   0  0  0  0  0  0  0  0  0  0  0  0
    6.1680   -3.5510   27.8440 C   0  0  0  0  0  0  0  0  0  0  0  0
    5.9020   -2.4910   28.9140 C   0  0  0  0  0  0  0  0  0  0  0  0
    4.6470   -2.2110   29.4010 C   0  0  0  0  0  0  0  0  0  0  0  0
    4.4690   -1.2460   30.3570 C   0  0  0  0  0  0  0  0  0  0  0  0
    5.4960   -0.5050   30.8890 C   0  0  0  0  0  0  0  0  0  0  0  0
    5.2500    0.4360   31.8330 F   0  0  0  0  0  0  0  0  0  0  0  0
    6.7620   -0.7730   30.4120 C   0  0  0  0  0  0  0  0  0  0  0  0
    6.9600   -1.7500   29.4400 C   0  0  0  0  0  0  0  0  0  0  0  0
    6.7510   -1.5350   26.5510 C   0  0  0  0  0  0  0  0  0  0  0  0
    6.5670   -0.7130   27.6060 C   0  0  0  0  0  0  0  0  0  0  0  0
    5.7730   -0.5010   26.2430 C   0  0  0  0  0  0  0  0  0  0  0  0
    5.7340   -4.8720   23.4430 C   0  0  0  0  0  0  0  0  0  0  0  0
    6.4580   -5.3970   22.3920 C   0  0  0  0  0  0  0  0  0  0  0  0
  1  2  1  0
  2  3  2  0
  2  4  1  0
  4  5  1  0
  5  6  1  0
  6  7  1  0
  7  8  1  0
  8  9  2  0
  8 10  1  0
 10 11  1  0
 11 12  1  0
 12 13  2  0
 13 14  1  0
 14 15  2  0
 15 16  1  0
 15 17  1  0
 12 18  1  0
 17 18  2  0
 10 19  1  0
 19 20  1  0
 19 21  1  0
 20 21  1  0
  7 22  1  0
  4 23  1  0
 22 23  1  0
M  END
