piperidine-amides-24090-covalent
     RDKit          3D

 24 26  0  0  0  0  0  0  0  0999 V2000
    7.0710   -3.4040   19.4100 C   0  0  0  0  0  0  0  0  0  0  0  0
    6.4090   -4.2490   20.4170 C   0  0  0  0  0  0  0  0  0  0  0  0
    5.4040   -4.8880   20.0060 O   0  0  0  0  0  0  0  0  0  0  0  0
    6.9150   -4.3820   21.7470 N   0  0  0  0  0  0  0  0  0  0  0  0
    6.5830   -5.5310   22.5180 C   0  0  0  0  0  0  0  0  0  0  0  0
    6.0600   -5.1750   23.8310 C   0  0  0  0  0  0  0  0  0  0  0  0
    5.8980   -3.7150   23.9890 C   0  0  0  0  0  0  0  0  0  0  0  0
    5.0160   -3.2820   25.1630 C   0  0  0  0  0  0  0  0  0  0  0  0
    3.7980   -3.2970   24.9520 O   0  0  0  0  0  0  0  0  0  0  0  0
    5.3910   -2.8620   26.4690 N   0  0  0  0  0  0  0  0  0  0  0  0
    6.5450   -3.1560   27.0920 C   0  0  0  0  0  0  0  0  0  0  0  0
    6.4660   -4.2190   28.0920 C   0  0  0  0  0  0  0  0  0  0  0  0
    5.3580   -4.3540   28.8150 N   0  0  0  0  0  0  0  0  0  0  0  0
    5.1660   -5.3860   29.7880 C   0  0  0  0  0  0  0  0  0  0  0  0
    4.0500   -5.1170   30.5790 C   0  0  0  0  0  0  0  0  0  0  0  0
    3.9160   -6.2410   31.5960 C   0  0  0  0  0  0  0  0  0  0  0  0
    4.7880   -7.3430   31.6900 N   0  0  0  0  0  0  0  0  0  0  0  0
    5.8480   -7.5740   30.9130 C   0  0  0  0  0  0  0  0  0  0  0  0
    6.1070   -6.5180   29.8320 C   0  0  0  0  0  0  0  0  0  0  0  0
    7.1290   -6.5700   28.9460 F   0  0  0  0  0  0  0  0  0  0  0  0
    4.3510   -3.4170   28.6340 C   0  0  0  0  0  0  0  0  0  0  0  0
    4.4150   -2.4750   27.4280 C   0  0  0  0  0  0  0  0  0  0  0  0
    7.2450   -3.0070   23.7970 C   0  0  0  0  0  0  0  0  0  0  0  0
    7.6070   -3.2050   22.3470 C   0  0  0  0  0  0  0  0  0  0  0  0
  1  2  1  0
  2  3  2  0
  2  4  1  0
  4  5  1  0
  5  6  1  0
  6  7  1  0
  7  8  1  0
  8  9  2  0
  8 10  1  0
 10 11  1  0
 11 12  1  0
 12 13  1  0
 13 14  1  0
 14 15  2  0
 15 16  1  0
 16 17  2  0
 17 18  1  0
 14 19  1  0
 18 19  2  0
 19 20  1  0
 13 21  1  0
 10 22  1  0
 21 22  1  0
  7 23  1  0
  4 24  1  0
 23 24  1  0
M  END
