piperidine-amides-30144-covalent
     RDKit          3D

 27 29  0  0  0  0  0  0  0  0999 V2000
    7.0160   -3.3460   19.4200 C   0  0  0  0  0  0  0  0  0  0  0  0
    6.3610   -4.2170   20.3970 C   0  0  0  0  0  0  0  0  0  0  0  0
    5.4340   -4.9330   20.0100 O   0  0  0  0  0  0  0  0  0  0  0  0
    6.8060   -4.2770   21.7810 N   0  0  0  0  0  0  0  0  0  0  0  0
    7.6480   -3.2280   22.3370 C   0  0  0  0  0  0  0  0  0  0  0  0
    7.3040   -2.9230   23.7840 C   0  0  0  0  0  0  0  0  0  0  0  0
    5.9620   -3.5730   24.0570 C   0  0  0  0  0  0  0  0  0  0  0  0
    5.2750   -3.2120   25.3630 C   0  0  0  0  0  0  0  0  0  0  0  0
    4.0370   -3.1140   25.3780 O   0  0  0  0  0  0  0  0  0  0  0  0
    5.9400   -2.9640   26.6100 N   0  0  0  0  0  0  0  0  0  0  0  0
    6.2670   -4.1210   27.4270 C   0  0  0  0  0  0  0  0  0  0  0  0
    5.3140   -4.5210   28.5160 C   0  0  0  0  0  0  0  0  0  0  0  0
    3.9860   -4.0960   28.6440 C   0  0  0  0  0  0  0  0  0  0  0  0
    3.1750   -4.5500   29.7210 C   0  0  0  0  0  0  0  0  0  0  0  0
    3.7080   -5.4170   30.6470 C   0  0  0  0  0  0  0  0  0  0  0  0
    5.0710   -5.8220   30.4740 C   0  0  0  0  0  0  0  0  0  0  0  0
    5.6500   -6.6210   31.3030 O   0  0  0  0  0  0  0  0  0  0  0  0
    5.8420   -5.3920   29.4470 C   0  0  0  0  0  0  0  0  0  0  0  0
    6.4620   -1.6310   26.9580 C   0  0  1  0  0  0  0  0  0  0  0  0
    5.6900   -0.5120   26.6390 C   0  0  0  0  0  0  0  0  0  0  0  0
    5.8700    0.7130   27.4260 C   0  0  0  0  0  0  0  0  0  0  0  0
    5.9220    0.5650   28.7970 C   0  0  2  0  0  0  0  0  0  0  0  0
    6.5980    1.6530   29.2780 O   0  0  0  0  0  0  0  0  0  0  0  0
    6.5460   -0.6060   29.2130 C   0  0  0  0  0  0  0  0  0  0  0  0
    7.0710   -1.5500   28.1810 C   0  0  0  0  0  0  0  0  0  0  0  0
    5.9880   -5.0620   23.9090 C   0  0  0  0  0  0  0  0  0  0  0  0
    6.5620   -5.4630   22.5580 C   0  0  0  0  0  0  0  0  0  0  0  0
  1  2  1  0
  2  3  2  0
  2  4  1  0
  4  5  1  0
  5  6  1  0
  6  7  1  0
  7  8  1  0
  8  9  2  0
  8 10  1  0
 10 11  1  0
 11 12  1  0
 12 13  2  0
 13 14  1  0
 14 15  2  0
 15 16  1  0
 16 17  1  0
 12 18  1  0
 16 18  2  0
 19 10  1  1
 19 20  1  0
 20 21  1  0
 21 22  1  0
 22 23  1  1
 22 24  1  0
 19 25  1  0
 24 25  1  0
  7 26  1  0
  4 27  1  0
 26 27  1  0
M  END
