piperidine-amides-14166-covalent
     RDKit          3D

 24 26  0  0  0  0  0  0  0  0999 V2000
    7.0930   -3.2820   19.2640 C   0  0  0  0  0  0  0  0  0  0  0  0
    6.3290   -4.1050   20.2430 C   0  0  0  0  0  0  0  0  0  0  0  0
    5.2580   -4.6180   19.8950 O   0  0  0  0  0  0  0  0  0  0  0  0
    6.8610   -4.3310   21.5220 N   0  0  0  0  0  0  0  0  0  0  0  0
    6.4530   -5.4730   22.2940 C   0  0  0  0  0  0  0  0  0  0  0  0
    5.5280   -4.9410   23.3990 C   0  0  0  0  0  0  0  0  0  0  0  0
    6.2960   -3.9480   24.2260 C   0  0  0  0  0  0  0  0  0  0  0  0
    5.6020   -3.6560   25.5050 C   0  0  0  0  0  0  0  0  0  0  0  0
    4.6370   -2.8820   25.4340 O   0  0  0  0  0  0  0  0  0  0  0  0
    6.0320   -4.2420   26.7130 N   0  0  0  0  0  0  0  0  0  0  0  0
    7.3660   -4.4710   27.1170 C   0  0  0  0  0  0  0  0  0  0  0  0
    8.3960   -3.9390   26.4120 C   0  0  0  0  0  0  0  0  0  0  0  0
    8.1380   -2.7850   25.6450 C   0  0  0  0  0  0  0  0  0  0  0  0
    9.0630   -2.1560   24.8910 C   0  0  0  0  0  0  0  0  0  0  0  0
   10.4070   -2.6960   24.8660 C   0  0  0  0  0  0  0  0  0  0  0  0
   11.3540   -2.0510   24.0840 N   0  0  0  0  0  0  0  0  0  0  0  0
   11.1310   -1.9500   22.6600 C   0  0  0  0  0  0  0  0  0  0  0  0
   12.4840   -1.9920   22.0080 C   0  0  0  0  0  0  0  0  0  0  0  0
   13.3650   -2.2660   23.0120 C   0  0  0  0  0  0  0  0  0  0  0  0
   12.7250   -2.2690   24.3430 C   0  0  0  0  0  0  0  0  0  0  0  0
   10.6990   -3.9010   25.6700 C   0  0  0  0  0  0  0  0  0  0  0  0
    9.6830   -4.4220   26.3710 N   0  0  0  0  0  0  0  0  0  0  0  0
    6.5600   -2.7810   23.3620 C   0  0  0  0  0  0  0  0  0  0  0  0
    7.4830   -3.2550   22.2310 C   0  0  0  0  0  0  0  0  0  0  0  0
  1  2  1  0
  2  3  2  0
  2  4  1  0
  4  5  1  0
  5  6  1  0
  6  7  1  0
  7  8  1  0
  8  9  2  0
  8 10  1  0
 10 11  1  0
 11 12  1  0
 12 13  2  0
 13 14  1  0
 14 15  2  0
 15 16  1  0
 16 17  1  0
 17 18  1  0
 18 19  1  0
 16 20  1  0
 19 20  1  0
 15 21  1  0
 12 22  1  0
 21 22  2  0
  7 23  1  0
  4 24  1  0
 23 24  1  0
M  END
