piperidine-amides-32927-covalent
     RDKit          3D

 29 31  0  0  0  0  0  0  0  0999 V2000
    7.0780   -3.3860   19.3970 C   0  0  0  0  0  0  0  0  0  0  0  0
    6.3910   -4.2810   20.3610 C   0  0  0  0  0  0  0  0  0  0  0  0
    5.3640   -4.8720   19.9910 O   0  0  0  0  0  0  0  0  0  0  0  0
    6.9530   -4.4870   21.6460 N   0  0  0  0  0  0  0  0  0  0  0  0
    6.5740   -5.5950   22.4660 C   0  0  0  0  0  0  0  0  0  0  0  0
    5.6380   -5.0130   23.5360 C   0  0  0  0  0  0  0  0  0  0  0  0
    6.3190   -3.8820   24.2630 C   0  0  0  0  0  0  0  0  0  0  0  0
    5.4190   -3.2390   25.2680 C   0  0  0  0  0  0  0  0  0  0  0  0
    4.7420   -2.3110   24.8330 O   0  0  0  0  0  0  0  0  0  0  0  0
    5.3230   -3.6430   26.6090 N   0  0  0  0  0  0  0  0  0  0  0  0
    4.1960   -4.0380   27.3030 C   0  0  0  0  0  0  0  0  0  0  0  0
    4.3160   -4.2070   28.6530 C   0  0  0  0  0  0  0  0  0  0  0  0
    5.5270   -4.6450   29.2100 C   0  0  0  0  0  0  0  0  0  0  0  0
    5.6840   -5.9640   29.5790 C   0  0  0  0  0  0  0  0  0  0  0  0
    4.5180   -6.8790   29.6740 C   0  0  0  0  0  0  0  0  0  0  0  0
    4.3830   -7.5050   31.0660 C   0  0  0  0  0  0  0  0  0  0  0  0
    2.9880   -7.9650   31.4220 C   0  0  0  0  0  0  0  0  0  0  0  0
    2.7550   -8.5410   32.6420 C   0  0  0  0  0  0  0  0  0  0  0  0
    1.4500   -8.9220   32.8500 O   0  0  0  0  0  0  0  0  0  0  0  0
    1.1700  -10.1530   33.4580 C   0  0  0  0  0  0  0  0  0  0  0  0
    3.8240   -8.6940   33.5410 C   0  0  0  0  0  0  0  0  0  0  0  0
    5.1110   -8.2810   33.2360 C   0  0  0  0  0  0  0  0  0  0  0  0
    6.0140   -8.4650   34.1110 O   0  0  0  0  0  0  0  0  0  0  0  0
    6.2760   -9.8110   34.2850 C   0  0  0  0  0  0  0  0  0  0  0  0
    5.3550   -7.6970   32.0060 C   0  0  0  0  0  0  0  0  0  0  0  0
    6.7050   -4.4630   28.3050 C   0  0  0  0  0  0  0  0  0  0  0  0
    6.4410   -3.3270   27.3630 C   0  0  0  0  0  0  0  0  0  0  0  0
    6.9220   -2.8330   23.3300 C   0  0  0  0  0  0  0  0  0  0  0  0
    7.6510   -3.4220   22.3390 C   0  0  0  0  0  0  0  0  0  0  0  0
  1  2  1  0
  2  3  2  0
  2  4  1  0
  4  5  1  0
  5  6  1  0
  6  7  1  0
  7  8  1  0
  8  9  2  0
  8 10  1  0
 10 11  1  0
 11 12  1  0
 12 13  1  0
 13 14  1  0
 14 15  1  0
 15 16  1  0
 16 17  2  0
 17 18  1  0
 18 19  1  0
 19 20  1  0
 18 21  2  0
 21 22  1  0
 22 23  1  0
 23 24  1  0
 16 25  1  0
 22 25  2  0
 13 26  1  0
 10 27  1  0
 26 27  1  0
  7 28  1  0
  4 29  1  0
 28 29  1  0
M  END
