piperidine-amides-8745-covalent
     RDKit          3D

 23 25  0  0  0  0  0  0  0  0999 V2000
    7.1140   -3.2910   19.2330 C   0  0  0  0  0  0  0  0  0  0  0  0
    6.3970   -4.0680   20.2410 C   0  0  0  0  0  0  0  0  0  0  0  0
    5.3190   -4.5950   19.9110 O   0  0  0  0  0  0  0  0  0  0  0  0
    6.9600   -4.2590   21.5290 N   0  0  0  0  0  0  0  0  0  0  0  0
    7.6330   -3.1540   22.1450 C   0  0  0  0  0  0  0  0  0  0  0  0
    6.7670   -2.6370   23.2490 C   0  0  0  0  0  0  0  0  0  0  0  0
    6.5870   -3.7760   24.2240 C   0  0  0  0  0  0  0  0  0  0  0  0
    5.8280   -3.2870   25.4190 C   0  0  0  0  0  0  0  0  0  0  0  0
    4.6230   -3.0990   25.2480 O   0  0  0  0  0  0  0  0  0  0  0  0
    6.5060   -3.0850   26.6160 N   0  0  0  0  0  0  0  0  0  0  0  0
    5.9650   -3.5170   27.8610 C   0  0  1  0  0  0  0  0  0  0  0  0
    6.6180   -4.5680   28.5260 C   0  0  0  0  0  0  0  0  0  0  0  0
    6.0320   -2.3440   28.7670 C   0  0  0  0  0  0  0  0  0  0  0  0
    7.1420   -1.6970   29.2890 C   0  0  0  0  0  0  0  0  0  0  0  0
    6.7360   -0.3490   30.3230 S   0  0  0  0  0  0  0  0  0  0  0  0
    4.9790   -0.6110   30.0860 C   0  0  0  0  0  0  0  0  0  0  0  0
    3.9120    0.2870   30.7580 C   0  0  0  0  0  0  0  0  0  0  0  0
    2.4940   -0.0670   30.4540 C   0  0  0  0  0  0  0  0  0  0  0  0
    2.1940   -1.2350   29.5460 C   0  0  0  0  0  0  0  0  0  0  0  0
    3.3360   -2.0710   28.9240 C   0  0  0  0  0  0  0  0  0  0  0  0
    4.6500   -1.7900   29.1680 C   0  0  0  0  0  0  0  0  0  0  0  0
    5.7770   -4.8480   23.5480 C   0  0  0  0  0  0  0  0  0  0  0  0
    6.4470   -5.3580   22.2990 C   0  0  0  0  0  0  0  0  0  0  0  0
  1  2  1  0
  2  3  2  0
  2  4  1  0
  4  5  1  0
  5  6  1  0
  6  7  1  0
  7  8  1  0
  8  9  2  0
  8 10  1  0
 10 11  1  0
 11 12  1  1
 11 13  1  0
 13 14  2  0
 14 15  1  0
 15 16  1  0
 16 17  1  0
 17 18  2  0
 18 19  1  0
 19 20  2  0
 13 21  1  0
 16 21  2  0
 20 21  1  0
  7 22  1  0
  4 23  1  0
 22 23  1  0
M  END
