piperidine-amides-3928-covalent
     RDKit          3D

 24 25  0  0  0  0  0  0  0  0999 V2000
    7.1280   -3.3160   19.2740 C   0  0  0  0  0  0  0  0  0  0  0  0
    6.4210   -4.1340   20.2730 C   0  0  0  0  0  0  0  0  0  0  0  0
    5.3360   -4.6520   19.9230 O   0  0  0  0  0  0  0  0  0  0  0  0
    6.9800   -4.3740   21.5540 N   0  0  0  0  0  0  0  0  0  0  0  0
    7.6540   -3.2850   22.1620 C   0  0  0  0  0  0  0  0  0  0  0  0
    7.1240   -2.8940   23.4540 C   0  0  0  0  0  0  0  0  0  0  0  0
    6.4100   -3.9300   24.2300 C   0  0  0  0  0  0  0  0  0  0  0  0
    5.7360   -3.2950   25.4060 C   0  0  0  0  0  0  0  0  0  0  0  0
    4.4970   -3.1690   25.4210 O   0  0  0  0  0  0  0  0  0  0  0  0
    6.5040   -2.8420   26.4940 N   0  0  0  0  0  0  0  0  0  0  0  0
    6.4700   -1.6300   27.2240 C   0  0  0  0  0  0  0  0  0  0  0  0
    6.9580   -1.4830   28.5770 C   0  0  0  0  0  0  0  0  0  0  0  0
    6.8660   -0.1190   29.2840 C   0  0  0  0  0  0  0  0  0  0  0  0
    7.4770   -0.0150   30.9390 Cl  0  0  0  0  0  0  0  0  0  0  0  0
    6.3560    1.0840   28.8020 C   0  0  0  0  0  0  0  0  0  0  0  0
    5.8810    0.7890   27.3740 C   0  0  0  0  0  0  0  0  0  0  0  0
    5.3510    2.1190   26.9320 C   0  0  0  0  0  0  0  0  0  0  0  0
    5.6780    3.1800   27.7780 O   0  0  0  0  0  0  0  0  0  0  0  0
    4.5890    2.2960   25.7720 O   0  0  0  0  0  0  0  0  0  0  0  0
    3.3660    1.5960   25.6270 C   0  0  0  0  0  0  0  0  0  0  0  0
    5.8890   -0.4440   26.5430 C   0  0  0  0  0  0  0  0  0  0  0  0
    5.4000   -0.5380   25.2190 O   0  0  0  0  0  0  0  0  0  0  0  0
    5.4950   -4.7850   23.3810 C   0  0  0  0  0  0  0  0  0  0  0  0
    6.4090   -5.4280   22.3310 C   0  0  0  0  0  0  0  0  0  0  0  0
  1  2  1  0
  2  3  2  0
  2  4  1  0
  4  5  1  0
  5  6  1  0
  6  7  1  0
  7  8  1  0
  8  9  2  0
  8 10  1  0
 10 11  1  0
 11 12  2  0
 12 13  1  0
 13 14  1  0
 13 15  2  0
 15 16  1  0
 16 17  1  0
 17 18  2  0
 17 19  1  0
 19 20  1  0
 11 21  1  0
 16 21  2  0
 21 22  1  0
  7 23  1  0
  4 24  1  0
 23 24  1  0
M  END
