piperidine-amides-28624-covalent
     RDKit          3D

 26 28  0  0  0  0  0  0  0  0999 V2000
    7.0140   -3.3490   19.3930 C   0  0  0  0  0  0  0  0  0  0  0  0
    6.3700   -4.2390   20.3580 C   0  0  0  0  0  0  0  0  0  0  0  0
    5.3600   -4.8630   19.9830 O   0  0  0  0  0  0  0  0  0  0  0  0
    6.9080   -4.4240   21.6600 N   0  0  0  0  0  0  0  0  0  0  0  0
    6.5820   -5.6110   22.3850 C   0  0  0  0  0  0  0  0  0  0  0  0
    5.6970   -5.2450   23.5420 C   0  0  0  0  0  0  0  0  0  0  0  0
    6.3310   -4.0870   24.2950 C   0  0  0  0  0  0  0  0  0  0  0  0
    5.3210   -3.5630   25.2990 C   0  0  0  0  0  0  0  0  0  0  0  0
    4.2280   -3.2580   24.8410 O   0  0  0  0  0  0  0  0  0  0  0  0
    5.6550   -3.4360   26.6490 N   0  0  0  0  0  0  0  0  0  0  0  0
    5.0160   -4.0690   27.7650 C   0  0  0  0  0  0  0  0  0  0  0  0
    5.8910   -4.5650   28.7760 C   0  0  0  0  0  0  0  0  0  0  0  0
    7.1350   -4.9950   28.3520 C   0  0  0  0  0  0  0  0  0  0  0  0
    7.4960   -4.5690   27.0980 C   0  0  2  0  0  0  0  0  0  0  0  0
    8.7740   -4.6120   26.5920 N   0  0  0  0  0  0  0  0  0  0  0  0
    9.1790   -3.4790   25.8510 C   0  0  0  0  0  0  0  0  0  0  0  0
   10.5450   -3.8500   25.4780 C   0  0  0  0  0  0  0  0  0  0  0  0
   11.4150   -2.9780   24.6920 C   0  0  0  0  0  0  0  0  0  0  0  0
   10.9820   -2.0980   23.9110 O   0  0  0  0  0  0  0  0  0  0  0  0
   12.7520   -3.1620   24.8430 O   0  0  0  0  0  0  0  0  0  0  0  0
   13.6390   -2.1600   24.5090 C   0  0  0  0  0  0  0  0  0  0  0  0
   10.8010   -5.0580   25.9780 N   0  0  0  0  0  0  0  0  0  0  0  0
    9.7080   -5.5300   26.6660 N   0  0  0  0  0  0  0  0  0  0  0  0
    7.0170   -3.2980   26.9430 C   0  0  0  0  0  0  0  0  0  0  0  0
    6.6160   -2.9400   23.3230 C   0  0  0  0  0  0  0  0  0  0  0  0
    7.5450   -3.3550   22.3850 C   0  0  0  0  0  0  0  0  0  0  0  0
  1  2  1  0
  2  3  2  0
  2  4  1  0
  4  5  1  0
  5  6  1  0
  6  7  1  0
  7  8  1  0
  8  9  2  0
  8 10  1  0
 10 11  1  0
 11 12  1  0
 12 13  1  0
 13 14  1  0
 14 15  1  1
 15 16  1  0
 16 17  2  0
 17 18  1  0
 18 19  2  0
 18 20  1  0
 20 21  1  0
 17 22  1  0
 15 23  1  0
 22 23  2  0
 10 24  1  0
 14 24  1  0
  7 25  1  0
  4 26  1  0
 25 26  1  0
M  END
