piperidine-amides-12962-covalent
     RDKit          3D

 21 22  0  0  0  0  0  0  0  0999 V2000
    7.0820   -3.3770   19.3290 C   0  0  0  0  0  0  0  0  0  0  0  0
    6.3830   -4.1880   20.3420 C   0  0  0  0  0  0  0  0  0  0  0  0
    5.3380   -4.7530   19.9630 O   0  0  0  0  0  0  0  0  0  0  0  0
    6.9210   -4.3460   21.6330 N   0  0  0  0  0  0  0  0  0  0  0  0
    6.5400   -5.4540   22.4490 C   0  0  0  0  0  0  0  0  0  0  0  0
    5.9840   -5.0480   23.7430 C   0  0  0  0  0  0  0  0  0  0  0  0
    6.0200   -3.5830   23.9690 C   0  0  0  0  0  0  0  0  0  0  0  0
    5.6480   -3.2450   25.3580 C   0  0  0  0  0  0  0  0  0  0  0  0
    4.4530   -3.3460   25.6890 O   0  0  0  0  0  0  0  0  0  0  0  0
    6.6180   -2.8080   26.2720 N   0  0  0  0  0  0  0  0  0  0  0  0
    6.4820   -1.5580   27.0530 C   0  0  0  0  0  0  0  0  0  0  0  0
    6.9310   -1.3690   28.4370 C   0  0  0  0  0  0  0  0  0  0  0  0
    6.6400   -0.0310   28.9000 N   0  0  0  0  0  0  0  0  0  0  0  0
    6.0480    0.5680   27.8570 N   0  0  0  0  0  0  0  0  0  0  0  0
    5.5770    1.9290   27.8590 C   0  0  0  0  0  0  0  0  0  0  0  0
    6.2620    2.7120   26.9610 C   0  0  0  0  0  0  0  0  0  0  0  0
    4.1380    1.9040   27.2990 C   0  0  0  0  0  0  0  0  0  0  0  0
    5.9210   -0.3200   26.6760 C   0  0  0  0  0  0  0  0  0  0  0  0
    5.3420    0.1530   25.5350 C   0  0  0  0  0  0  0  0  0  0  0  0
    7.2640   -2.9210   23.5210 C   0  0  0  0  0  0  0  0  0  0  0  0
    7.6720   -3.2650   22.2360 C   0  0  0  0  0  0  0  0  0  0  0  0
  1  2  1  0
  2  3  2  0
  2  4  1  0
  4  5  1  0
  5  6  1  0
  6  7  1  0
  7  8  1  0
  8  9  2  0
  8 10  1  0
 10 11  1  0
 11 12  1  0
 12 13  2  0
 13 14  1  0
 14 15  1  0
 15 16  1  0
 15 17  1  0
 11 18  2  0
 14 18  1  0
 18 19  1  0
  7 20  1  0
  4 21  1  0
 20 21  1  0
M  END
