piperidine-amides-4374-covalent
     RDKit          3D

 26 27  0  0  0  0  0  0  0  0999 V2000
    7.1650   -3.2580   19.1680 C   0  0  0  0  0  0  0  0  0  0  0  0
    6.3980   -3.9940   20.1850 C   0  0  0  0  0  0  0  0  0  0  0  0
    5.2800   -4.4540   19.8490 O   0  0  0  0  0  0  0  0  0  0  0  0
    6.9410   -4.2280   21.4670 N   0  0  0  0  0  0  0  0  0  0  0  0
    7.7120   -3.2100   22.0800 C   0  0  0  0  0  0  0  0  0  0  0  0
    7.2990   -3.0570   23.4440 C   0  0  0  0  0  0  0  0  0  0  0  0
    5.9540   -3.6160   23.6570 C   0  0  0  0  0  0  0  0  0  0  0  0
    5.5160   -3.3800   25.0480 C   0  0  0  0  0  0  0  0  0  0  0  0
    4.3540   -2.9900   25.2700 O   0  0  0  0  0  0  0  0  0  0  0  0
    6.3770   -3.5980   26.1150 N   0  0  0  0  0  0  0  0  0  0  0  0
    5.9720   -3.5920   27.4470 C   0  0  1  0  0  0  0  0  0  0  0  0
    6.6270   -4.4240   28.4370 C   0  0  0  0  0  0  0  0  0  0  0  0
    8.1150   -4.2610   28.2530 C   0  0  0  0  0  0  0  0  0  0  0  0
    8.3930   -2.9380   28.5130 O   0  0  0  0  0  0  0  0  0  0  0  0
    8.9610   -5.1210   27.9350 O   0  0  0  0  0  0  0  0  0  0  0  0
    9.0570   -5.7870   26.7830 C   0  0  0  0  0  0  0  0  0  0  0  0
    6.0270   -2.1100   27.9070 C   0  0  0  0  0  0  0  0  0  0  0  0
    6.2940   -1.8030   29.3490 C   0  0  0  0  0  0  0  0  0  0  0  0
    6.2980   -0.2700   29.5990 C   0  0  0  0  0  0  0  0  0  0  0  0
    6.6010    0.1850   31.2580 Cl  0  0  0  0  0  0  0  0  0  0  0  0
    6.0710    0.8260   28.5800 C   0  0  0  0  0  0  0  0  0  0  0  0
    5.8070    0.4410   27.1460 C   0  0  0  0  0  0  0  0  0  0  0  0
    5.5400    1.6830   25.9450 Cl  0  0  0  0  0  0  0  0  0  0  0  0
    5.7960   -1.0560   26.8570 C   0  0  0  0  0  0  0  0  0  0  0  0
    5.8180   -5.0690   23.2780 C   0  0  0  0  0  0  0  0  0  0  0  0
    6.6710   -5.4310   22.2240 C   0  0  0  0  0  0  0  0  0  0  0  0
  1  2  1  0
  2  3  2  0
  2  4  1  0
  4  5  1  0
  5  6  1  0
  6  7  1  0
  7  8  1  0
  8  9  2  0
  8 10  1  0
 10 11  1  0
 11 12  1  1
 12 13  1  0
 13 14  2  0
 13 15  1  0
 15 16  1  0
 11 17  1  0
 17 18  2  0
 18 19  1  0
 19 20  1  0
 19 21  2  0
 21 22  1  0
 22 23  1  0
 17 24  1  0
 22 24  2  0
  7 25  1  0
  4 26  1  0
 25 26  1  0
M  END
