piperidine-amides-2512-covalent
     RDKit          3D

 26 27  0  0  0  0  0  0  0  0999 V2000
    7.1470   -3.2800   19.2560 C   0  0  0  0  0  0  0  0  0  0  0  0
    6.3950   -4.0810   20.2520 C   0  0  0  0  0  0  0  0  0  0  0  0
    5.3170   -4.5510   19.8920 O   0  0  0  0  0  0  0  0  0  0  0  0
    6.9380   -4.3320   21.5080 N   0  0  0  0  0  0  0  0  0  0  0  0
    6.5110   -5.4540   22.2820 C   0  0  0  0  0  0  0  0  0  0  0  0
    5.5890   -4.9410   23.3460 C   0  0  0  0  0  0  0  0  0  0  0  0
    6.1700   -3.6910   24.0310 C   0  0  0  0  0  0  0  0  0  0  0  0
    5.0470   -2.9990   24.7010 C   0  0  0  0  0  0  0  0  0  0  0  0
    4.0940   -2.6120   24.0330 O   0  0  0  0  0  0  0  0  0  0  0  0
    5.0330   -2.7710   26.0750 N   0  0  0  0  0  0  0  0  0  0  0  0
    5.6340   -3.7920   26.8370 C   0  0  0  0  0  0  0  0  0  0  0  0
    7.0470   -3.6950   26.3840 C   0  0  0  0  0  0  0  0  0  0  0  0
    7.7420   -2.5940   25.8420 C   0  0  0  0  0  0  0  0  0  0  0  0
    9.0490   -2.5750   25.4650 C   0  0  0  0  0  0  0  0  0  0  0  0
    9.7450   -3.6860   25.6220 C   0  0  0  0  0  0  0  0  0  0  0  0
   11.0510   -4.3610   25.4900 C   0  0  0  0  0  0  0  0  0  0  0  0
    9.4050   -4.9760   26.1000 C   0  0  0  0  0  0  0  0  0  0  0  0
    7.9780   -4.9330   26.4800 C   0  0  0  0  0  0  0  0  0  0  0  0
    7.4810   -6.1440   26.9700 O   0  0  0  0  0  0  0  0  0  0  0  0
    6.1440   -6.3160   27.4330 C   0  0  0  0  0  0  0  0  0  0  0  0
    6.0690   -6.3120   28.9210 C   0  0  0  0  0  0  0  0  0  0  0  0
    6.8460   -5.5320   29.4800 O   0  0  0  0  0  0  0  0  0  0  0  0
    7.3680   -4.5240   28.6020 C   0  0  0  0  0  0  0  0  0  0  0  0
    8.8180   -4.7850   28.3890 C   0  0  0  0  0  0  0  0  0  0  0  0
    6.7850   -2.6790   23.0560 C   0  0  0  0  0  0  0  0  0  0  0  0
    7.6810   -3.3240   22.2350 C   0  0  0  0  0  0  0  0  0  0  0  0
  1  2  1  0
  2  3  2  0
  2  4  1  0
  4  5  1  0
  5  6  1  0
  6  7  1  0
  7  8  1  0
  8  9  2  0
  8 10  1  0
 10 11  1  0
 11 12  1  0
 12 13  2  0
 13 14  1  0
 14 15  2  0
 15 16  1  0
 15 17  1  0
 12 18  1  0
 17 18  2  0
 18 19  1  0
 19 20  1  0
 20 21  1  0
 21 22  1  0
 22 23  1  0
 23 24  1  0
  7 25  1  0
  4 26  1  0
 25 26  1  0
M  END
