piperidine-amides-6587-covalent
     RDKit          3D

 24 26  0  0  0  0  0  0  0  0999 V2000
    7.0440   -3.2900   19.2990 C   0  0  0  0  0  0  0  0  0  0  0  0
    6.3440   -4.1050   20.3080 C   0  0  0  0  0  0  0  0  0  0  0  0
    5.3510   -4.7800   19.9640 O   0  0  0  0  0  0  0  0  0  0  0  0
    6.7890   -4.1800   21.6440 N   0  0  0  0  0  0  0  0  0  0  0  0
    6.6210   -5.4310   22.3610 C   0  0  0  0  0  0  0  0  0  0  0  0
    6.0990   -5.1260   23.7820 C   0  0  0  0  0  0  0  0  0  0  0  0
    6.0460   -3.6220   23.9300 C   0  0  0  0  0  0  0  0  0  0  0  0
    5.5440   -3.2380   25.2760 C   0  0  0  0  0  0  0  0  0  0  0  0
    4.3430   -2.9110   25.3530 O   0  0  0  0  0  0  0  0  0  0  0  0
    6.3660   -3.2400   26.4350 N   0  0  0  0  0  0  0  0  0  0  0  0
    6.0620   -4.1320   27.5310 C   0  0  0  0  0  0  0  0  0  0  0  0
    5.3330   -3.4040   28.6460 C   0  0  0  0  0  0  0  0  0  0  0  0
    5.8720   -2.1550   29.1000 N   0  0  0  0  0  0  0  0  0  0  0  0
    4.9620   -1.7910   30.1220 C   0  0  0  0  0  0  0  0  0  0  0  0
    5.0490   -0.6890   30.8540 C   0  0  0  0  0  0  0  0  0  0  0  0
    4.0430   -0.6000   31.7630 C   0  0  0  0  0  0  0  0  0  0  0  0
    4.0020    0.4980   32.6030 F   0  0  0  0  0  0  0  0  0  0  0  0
    3.0410   -1.5570   31.9000 C   0  0  0  0  0  0  0  0  0  0  0  0
    2.1710   -1.1770   32.9070 F   0  0  0  0  0  0  0  0  0  0  0  0
    2.7570   -2.8980   31.1530 C   0  0  0  0  0  0  0  0  0  0  0  0
    3.9850   -2.7220   30.2580 C   0  0  0  0  0  0  0  0  0  0  0  0
    4.1960   -3.7470   29.3380 N   0  0  0  0  0  0  0  0  0  0  0  0
    7.3110   -2.9430   23.6210 C   0  0  0  0  0  0  0  0  0  0  0  0
    7.6110   -3.1520   22.2090 C   0  0  0  0  0  0  0  0  0  0  0  0
  1  2  1  0
  2  3  2  0
  2  4  1  0
  4  5  1  0
  5  6  1  0
  6  7  1  0
  7  8  1  0
  8  9  2  0
  8 10  1  0
 10 11  1  0
 11 12  1  0
 12 13  2  0
 13 14  1  0
 14 15  2  0
 15 16  1  0
 16 17  1  0
 16 18  2  0
 18 19  1  0
 18 20  1  0
 14 21  1  0
 20 21  2  0
 12 22  1  0
 21 22  1  0
  7 23  1  0
  4 24  1  0
 23 24  1  0
M  END
