piperidine-amides-5565-covalent
     RDKit          3D

 19 20  0  0  0  0  0  0  0  0999 V2000
    7.1210   -3.2940   19.2510 C   0  0  0  0  0  0  0  0  0  0  0  0
    6.3340   -4.0040   20.2580 C   0  0  0  0  0  0  0  0  0  0  0  0
    5.2910   -4.5810   19.9030 O   0  0  0  0  0  0  0  0  0  0  0  0
    6.7610   -4.0900   21.5940 N   0  0  0  0  0  0  0  0  0  0  0  0
    7.7160   -3.1410   22.1550 C   0  0  0  0  0  0  0  0  0  0  0  0
    7.2030   -2.6870   23.5030 C   0  0  0  0  0  0  0  0  0  0  0  0
    5.9380   -3.3860   23.8930 C   0  0  0  0  0  0  0  0  0  0  0  0
    5.4160   -2.9830   25.2330 C   0  0  0  0  0  0  0  0  0  0  0  0
    4.2370   -3.3050   25.5530 O   0  0  0  0  0  0  0  0  0  0  0  0
    6.1340   -2.2370   26.2080 N   0  0  0  0  0  0  0  0  0  0  0  0
    6.2780   -2.7830   27.5760 C   0  0  0  0  0  0  0  0  0  0  0  0
    7.0750   -3.9570   27.3200 C   0  0  0  0  0  0  0  0  0  0  0  0
    6.6130   -5.1290   27.8580 N   0  0  0  0  0  0  0  0  0  0  0  0
    7.5050   -5.9730   27.4420 N   0  0  0  0  0  0  0  0  0  0  0  0
    8.5270   -5.3410   26.6580 C   0  0  0  0  0  0  0  0  0  0  0  0
    9.5850   -6.1990   26.1290 C   0  0  0  0  0  0  0  0  0  0  0  0
    8.2010   -4.0760   26.6160 N   0  0  0  0  0  0  0  0  0  0  0  0
    5.9240   -4.8630   23.6680 C   0  0  0  0  0  0  0  0  0  0  0  0
    6.5310   -5.2670   22.3790 C   0  0  0  0  0  0  0  0  0  0  0  0
  1  2  1  0
  2  3  2  0
  2  4  1  0
  4  5  1  0
  5  6  1  0
  6  7  1  0
  7  8  1  0
  8  9  2  0
  8 10  1  0
 10 11  1  0
 11 12  1  0
 12 13  2  0
 13 14  1  0
 14 15  1  0
 15 16  1  0
 12 17  1  0
 15 17  2  0
  7 18  1  0
  4 19  1  0
 18 19  1  0
M  END
