piperidine-amides-29372-covalent
     RDKit          3D

 27 29  0  0  0  0  0  0  0  0999 V2000
    7.0770   -3.3250   19.2870 C   0  0  0  0  0  0  0  0  0  0  0  0
    6.3990   -4.1470   20.2900 C   0  0  0  0  0  0  0  0  0  0  0  0
    5.3650   -4.7530   19.9550 O   0  0  0  0  0  0  0  0  0  0  0  0
    6.9450   -4.2820   21.5880 N   0  0  0  0  0  0  0  0  0  0  0  0
    7.7540   -3.2130   22.1220 C   0  0  0  0  0  0  0  0  0  0  0  0
    7.5230   -3.1190   23.5900 C   0  0  0  0  0  0  0  0  0  0  0  0
    6.1290   -3.6500   23.7880 C   0  0  0  0  0  0  0  0  0  0  0  0
    5.5310   -3.1250   25.0420 C   0  0  0  0  0  0  0  0  0  0  0  0
    4.6400   -2.2940   24.9110 O   0  0  0  0  0  0  0  0  0  0  0  0
    5.9900   -3.5950   26.2490 N   0  0  0  0  0  0  0  0  0  0  0  0
    5.2860   -4.6550   26.8590 C   0  0  0  0  0  0  0  0  0  0  0  0
    5.8870   -5.9110   26.9330 C   0  0  0  0  0  0  0  0  0  0  0  0
    6.4240   -6.2830   28.1320 C   0  0  0  0  0  0  0  0  0  0  0  0
    6.5140   -5.4110   29.1790 C   0  0  0  0  0  0  0  0  0  0  0  0
    6.2790   -2.4710   27.2290 C   0  0  0  0  0  0  0  0  0  0  0  0
    6.7880   -2.6710   28.4180 N   0  0  0  0  0  0  0  0  0  0  0  0
    7.0240   -1.6850   29.2670 N   0  0  0  0  0  0  0  0  0  0  0  0
    6.7000   -0.3930   28.8410 C   0  0  0  0  0  0  0  0  0  0  0  0
    6.9520    0.7450   29.7910 C   0  0  0  0  0  0  0  0  0  0  0  0
    6.0890    0.1210   27.5030 C   0  0  0  0  0  0  0  0  0  0  0  0
    6.3980    1.1670   28.5310 C   0  0  0  0  0  0  0  0  0  0  0  0
    6.9400    0.6800   29.6490 C   0  0  0  0  0  0  0  0  0  0  0  0
    7.1280   -0.6740   29.6910 C   0  0  0  0  0  0  0  0  0  0  0  0
    6.7010   -1.4940   28.4720 C   0  0  0  0  0  0  0  0  0  0  0  0
    6.0710   -1.1680   27.0980 C   0  0  0  0  0  0  0  0  0  0  0  0
    6.1960   -5.1650   23.7310 C   0  0  0  0  0  0  0  0  0  0  0  0
    6.6610   -5.5090   22.3130 C   0  0  0  0  0  0  0  0  0  0  0  0
  1  2  1  0
  2  3  2  0
  2  4  1  0
  4  5  1  0
  5  6  1  0
  6  7  1  0
  7  8  1  0
  8  9  2  0
  8 10  1  0
 10 11  1  0
 11 12  1  0
 12 13  1  0
 13 14  1  0
 10 15  1  0
 15 16  2  0
 16 17  1  0
 17 18  2  0
 18 19  1  0
 18 20  1  0
 20 21  1  0
 21 22  2  0
 22 23  1  0
 23 24  2  0
 15 25  1  0
 20 25  2  0
 24 25  1  0
  7 26  1  0
  4 27  1  0
 26 27  1  0
M  END
