piperidine-amides-29084-covalent
     RDKit          3D

 27 30  0  0  0  0  0  0  0  0999 V2000
    7.0410   -3.3370   19.3240 C   0  0  0  0  0  0  0  0  0  0  0  0
    6.3510   -4.1760   20.3010 C   0  0  0  0  0  0  0  0  0  0  0  0
    5.3310   -4.7860   19.9510 O   0  0  0  0  0  0  0  0  0  0  0  0
    6.8750   -4.3070   21.6020 N   0  0  0  0  0  0  0  0  0  0  0  0
    7.5920   -3.2100   22.1580 C   0  0  0  0  0  0  0  0  0  0  0  0
    7.2370   -3.1410   23.5910 C   0  0  0  0  0  0  0  0  0  0  0  0
    5.8340   -3.6690   23.7170 C   0  0  0  0  0  0  0  0  0  0  0  0
    5.1640   -3.1360   24.9570 C   0  0  0  0  0  0  0  0  0  0  0  0
    3.9820   -2.8480   24.8480 O   0  0  0  0  0  0  0  0  0  0  0  0
    5.8770   -3.0150   26.1340 N   0  0  0  0  0  0  0  0  0  0  0  0
    5.3340   -2.3150   27.2660 C   0  0  0  0  0  0  0  0  0  0  0  0
    4.8950   -3.0960   28.3690 C   0  0  0  0  0  0  0  0  0  0  0  0
    5.3840   -4.3580   28.4770 C   0  0  0  0  0  0  0  0  0  0  0  0
    6.3150   -4.7330   27.5830 C   0  0  0  0  0  0  0  0  0  0  0  0
    6.9590   -5.9070   28.0650 C   0  0  0  0  0  0  0  0  0  0  0  0
    6.3270   -6.4620   29.4020 C   0  0  0  0  0  0  0  0  0  0  0  0
    6.3490   -7.7670   30.0290 C   0  0  0  0  0  0  0  0  0  0  0  0
    5.6170   -7.8480   31.2440 N   0  0  0  0  0  0  0  0  0  0  0  0
    5.1460   -6.5870   31.3290 N   0  0  0  0  0  0  0  0  0  0  0  0
    4.3150   -6.2740   32.4750 C   0  0  0  0  0  0  0  0  0  0  0  0
    5.5360   -5.7880   30.2880 C   0  0  0  0  0  0  0  0  0  0  0  0
    8.1030   -6.4060   27.1960 C   0  0  0  0  0  0  0  0  0  0  0  0
    8.4430   -5.8360   26.0030 C   0  0  0  0  0  0  0  0  0  0  0  0
    7.6710   -4.6660   25.5630 C   0  0  0  0  0  0  0  0  0  0  0  0
    6.6160   -4.1420   26.4420 C   0  0  0  0  0  0  0  0  0  0  0  0
    5.8820   -5.1970   23.6660 C   0  0  0  0  0  0  0  0  0  0  0  0
    6.5940   -5.5270   22.3390 C   0  0  0  0  0  0  0  0  0  0  0  0
  1  2  1  0
  2  3  2  0
  2  4  1  0
  4  5  1  0
  5  6  1  0
  6  7  1  0
  7  8  1  0
  8  9  2  0
  8 10  1  0
 10 11  1  0
 11 12  1  0
 12 13  1  0
 13 14  1  0
 14 15  2  0
 15 16  1  0
 16 17  1  0
 17 18  2  0
 18 19  1  0
 19 20  1  0
 16 21  2  0
 19 21  1  0
 15 22  1  0
 22 23  2  0
 23 24  1  0
 10 25  1  0
 14 25  1  0
 24 25  2  0
  7 26  1  0
  4 27  1  0
 26 27  1  0
M  END
