piperidine-amides-12112-covalent
     RDKit          3D

 25 26  0  0  0  0  0  0  0  0999 V2000
    7.0150   -3.3460   19.3210 C   0  0  0  0  0  0  0  0  0  0  0  0
    6.3420   -4.1730   20.3210 C   0  0  0  0  0  0  0  0  0  0  0  0
    5.3700   -4.8470   19.9830 O   0  0  0  0  0  0  0  0  0  0  0  0
    6.8300   -4.2370   21.6780 N   0  0  0  0  0  0  0  0  0  0  0  0
    6.6400   -5.4500   22.4420 C   0  0  0  0  0  0  0  0  0  0  0  0
    5.9890   -5.1210   23.7540 C   0  0  0  0  0  0  0  0  0  0  0  0
    6.0840   -3.6190   23.9190 C   0  0  0  0  0  0  0  0  0  0  0  0
    5.6270   -3.1860   25.2690 C   0  0  0  0  0  0  0  0  0  0  0  0
    4.4220   -3.1440   25.5780 O   0  0  0  0  0  0  0  0  0  0  0  0
    6.6000   -2.8220   26.2240 N   0  0  0  0  0  0  0  0  0  0  0  0
    6.4530   -1.5920   26.9750 C   0  0  0  0  0  0  0  0  0  0  0  0
    7.0190   -1.6390   28.3580 C   0  0  0  0  0  0  0  0  0  0  0  0
    6.9400   -0.5280   29.1600 C   0  0  0  0  0  0  0  0  0  0  0  0
    6.3240    0.6430   28.6770 C   0  0  0  0  0  0  0  0  0  0  0  0
    6.2310    2.0570   29.7180 Cl  0  0  0  0  0  0  0  0  0  0  0  0
    5.7770    0.7320   27.3910 C   0  0  0  0  0  0  0  0  0  0  0  0
    5.1460    1.9700   26.9470 C   0  0  0  0  0  0  0  0  0  0  0  0
    3.9770    1.8780   27.6170 N   0  0  0  0  0  0  0  0  0  0  0  0
    3.3680    2.8250   28.5170 C   0  0  0  0  0  0  0  0  0  0  0  0
    3.1080    0.8310   27.1570 C   0  0  0  0  0  0  0  0  0  0  0  0
    1.7700    1.2280   27.1060 C   0  0  0  0  0  0  0  0  0  0  0  0
    1.1010    0.9760   28.2730 O   0  0  0  0  0  0  0  0  0  0  0  0
    5.8610   -0.3930   26.5770 C   0  0  0  0  0  0  0  0  0  0  0  0
    7.4730   -3.1130   23.5980 C   0  0  0  0  0  0  0  0  0  0  0  0
    7.6500   -3.1710   22.2170 C   0  0  0  0  0  0  0  0  0  0  0  0
  1  2  1  0
  2  3  2  0
  2  4  1  0
  4  5  1  0
  5  6  1  0
  6  7  1  0
  7  8  1  0
  8  9  2  0
  8 10  1  0
 10 11  1  0
 11 12  2  0
 12 13  1  0
 13 14  2  0
 14 15  1  0
 14 16  1  0
 16 17  1  0
 17 18  1  0
 18 19  1  0
 18 20  1  0
 20 21  1  0
 21 22  1  0
 11 23  1  0
 16 23  2  0
  7 24  1  0
  4 25  1  0
 24 25  1  0
M  END
