piperidine-amides-28022-covalent
     RDKit          3D

 20 21  0  0  0  0  0  0  0  0999 V2000
    7.0890   -3.2920   19.2930 C   0  0  0  0  0  0  0  0  0  0  0  0
    6.3510   -4.0730   20.3150 C   0  0  0  0  0  0  0  0  0  0  0  0
    5.3140   -4.6440   19.9200 O   0  0  0  0  0  0  0  0  0  0  0  0
    6.8220   -4.1880   21.6380 N   0  0  0  0  0  0  0  0  0  0  0  0
    6.5440   -5.3770   22.3790 C   0  0  0  0  0  0  0  0  0  0  0  0
    6.0050   -5.0880   23.6990 C   0  0  0  0  0  0  0  0  0  0  0  0
    6.0240   -3.6460   24.0010 C   0  0  0  0  0  0  0  0  0  0  0  0
    5.6020   -3.3820   25.4040 C   0  0  0  0  0  0  0  0  0  0  0  0
    4.4180   -3.6260   25.6880 O   0  0  0  0  0  0  0  0  0  0  0  0
    6.4600   -2.8560   26.3910 N   0  0  0  0  0  0  0  0  0  0  0  0
    6.9860   -1.4880   26.2270 C   0  0  0  0  0  0  0  0  0  0  0  0
    6.2560   -3.3090   27.7240 C   0  0  0  0  0  0  0  0  0  0  0  0
    6.0900   -2.3080   28.7800 C   0  0  0  0  0  0  0  0  0  0  0  0
    5.0430   -1.8780   29.5540 C   0  0  0  0  0  0  0  0  0  0  0  0
    5.2110   -0.8880   30.4880 C   0  0  0  0  0  0  0  0  0  0  0  0
    3.7710   -0.2610   31.5880 Br  0  0  0  0  0  0  0  0  0  0  0  0
    6.4900   -0.4330   30.5210 C   0  0  0  0  0  0  0  0  0  0  0  0
    7.4390   -1.3770   29.2640 S   0  0  0  0  0  0  0  0  0  0  0  0
    7.2670   -2.9150   23.5890 C   0  0  0  0  0  0  0  0  0  0  0  0
    7.6370   -3.1780   22.2890 C   0  0  0  0  0  0  0  0  0  0  0  0
  1  2  1  0
  2  3  2  0
  2  4  1  0
  4  5  1  0
  5  6  1  0
  6  7  1  0
  7  8  1  0
  8  9  2  0
  8 10  1  0
 10 11  1  0
 10 12  1  0
 12 13  1  0
 13 14  2  0
 14 15  1  0
 15 16  1  0
 15 17  2  0
 13 18  1  0
 17 18  1  0
  7 19  1  0
  4 20  1  0
 19 20  1  0
M  END
