piperidine-amides-13278-covalent
     RDKit          3D

 16 16  0  0  0  0  0  0  0  0999 V2000
    7.1060   -3.2490   19.0910 C   0  0  0  0  0  0  0  0  0  0  0  0
    6.3630   -3.9660   20.1510 C   0  0  0  0  0  0  0  0  0  0  0  0
    5.2590   -4.4440   19.8330 O   0  0  0  0  0  0  0  0  0  0  0  0
    6.9030   -4.1510   21.4260 N   0  0  0  0  0  0  0  0  0  0  0  0
    7.6240   -3.0750   22.0250 C   0  0  0  0  0  0  0  0  0  0  0  0
    7.1320   -2.6930   23.3470 C   0  0  0  0  0  0  0  0  0  0  0  0
    6.5260   -3.7950   24.1250 C   0  0  0  0  0  0  0  0  0  0  0  0
    5.7960   -3.2460   25.2960 C   0  0  0  0  0  0  0  0  0  0  0  0
    4.5590   -3.1250   25.2200 O   0  0  0  0  0  0  0  0  0  0  0  0
    6.4810   -2.8650   26.4660 N   0  0  0  0  0  0  0  0  0  0  0  0
    6.2450   -3.5080   27.7820 C   0  0  0  0  0  0  0  0  0  0  0  0
    6.0890   -4.9860   27.7010 C   0  0  0  0  0  0  0  0  0  0  0  0
    6.6260   -5.7930   28.7720 C   0  0  0  0  0  0  0  0  0  0  0  0
    5.1830   -5.7830   26.2280 Br  0  0  0  0  0  0  0  0  0  0  0  0
    5.7190   -4.7400   23.3230 C   0  0  0  0  0  0  0  0  0  0  0  0
    6.3330   -5.2150   22.1920 C   0  0  0  0  0  0  0  0  0  0  0  0
  1  2  1  0
  2  3  2  0
  2  4  1  0
  4  5  1  0
  5  6  1  0
  6  7  1  0
  7  8  1  0
  8  9  2  0
  8 10  1  0
 10 11  1  0
 11 12  1  0
 12 13  2  3
 12 14  1  0
  7 15  1  0
  4 16  1  0
 15 16  1  0
M  END
