piperidine-amides-32565-covalent
     RDKit          3D

 28 31  0  0  0  0  0  0  0  0999 V2000
    7.0930   -3.2900   19.2760 C   0  0  0  0  0  0  0  0  0  0  0  0
    6.3790   -4.1530   20.2520 C   0  0  0  0  0  0  0  0  0  0  0  0
    5.2980   -4.6630   19.9230 O   0  0  0  0  0  0  0  0  0  0  0  0
    6.9640   -4.4380   21.4970 N   0  0  0  0  0  0  0  0  0  0  0  0
    6.6190   -5.6570   22.1670 C   0  0  0  0  0  0  0  0  0  0  0  0
    5.6610   -5.2310   23.2740 C   0  0  0  0  0  0  0  0  0  0  0  0
    6.3840   -4.1900   24.0500 C   0  0  0  0  0  0  0  0  0  0  0  0
    5.5790   -3.6940   25.1780 C   0  0  0  0  0  0  0  0  0  0  0  0
    4.5650   -3.0290   24.9510 O   0  0  0  0  0  0  0  0  0  0  0  0
    6.0500   -4.0280   26.4200 N   0  0  0  0  0  0  0  0  0  0  0  0
    5.6610   -3.4740   27.7180 C   0  0  0  0  0  0  0  0  0  0  0  0
    6.5740   -3.4410   28.7420 C   0  0  0  0  0  0  0  0  0  0  0  0
    7.7450   -3.8420   28.1720 C   0  0  0  0  0  0  0  0  0  0  0  0
    9.1120   -4.0000   28.4880 C   0  0  0  0  0  0  0  0  0  0  0  0
   10.3070   -4.4990   27.6430 C   0  0  0  0  0  0  0  0  0  0  0  0
   11.8970   -4.6210   28.3840 C   0  0  0  0  0  0  0  0  0  0  0  0
   11.6390   -4.8900   29.2590 N   0  0  0  0  0  0  0  0  0  0  0  0
   12.5060   -5.4030   30.1620 C   0  0  0  0  0  0  0  0  0  0  0  0
   11.8400   -6.5140   32.2120 C   0  0  0  0  0  0  0  0  0  0  0  0
   12.5770   -9.0750   31.7540 C   0  0  0  0  0  0  0  0  0  0  0  0
   11.9740   -6.3030   34.2650 C   0  0  0  0  0  0  0  0  0  0  0  0
   14.1930   -5.1750   29.3020 C   0  0  0  0  0  0  0  0  0  0  0  0
   14.2880   -4.6910   28.2300 S   0  0  0  0  0  0  0  0  0  0  0  0
    9.9810   -4.8850   26.2750 C   0  0  0  0  0  0  0  0  0  0  0  0
    8.5710   -4.6700   26.0610 C   0  0  0  0  0  0  0  0  0  0  0  0
    7.4130   -4.1930   26.8220 C   0  0  0  0  0  0  0  0  0  0  0  0
    6.7840   -2.9560   23.2610 C   0  0  0  0  0  0  0  0  0  0  0  0
    7.5750   -3.3560   22.2020 C   0  0  0  0  0  0  0  0  0  0  0  0
  1  2  1  0
  2  3  2  0
  2  4  1  0
  4  5  1  0
  5  6  1  0
  6  7  1  0
  7  8  1  0
  8  9  2  0
  8 10  1  0
 10 11  1  0
 11 12  1  0
 12 13  1  0
 13 14  1  0
 14 15  2  0
 15 16  1  0
 16 17  2  0
 17 18  1  0
 18 19  1  0
 19 20  1  0
 19 21  1  0
 18 22  2  0
 16 23  1  0
 22 23  1  0
 15 24  1  0
 24 25  2  0
 10 26  1  0
 13 26  2  0
 25 26  1  0
  7 27  1  0
  4 28  1  0
 27 28  1  0
M  END
