piperidine-amides-19589-covalent
     RDKit          3D

 22 24  0  0  0  0  0  0  0  0999 V2000
    6.9970   -3.4080   19.3610 C   0  0  0  0  0  0  0  0  0  0  0  0
    6.3530   -4.1960   20.3920 C   0  0  0  0  0  0  0  0  0  0  0  0
    5.4000   -4.9470   20.0110 O   0  0  0  0  0  0  0  0  0  0  0  0
    6.7560   -4.2060   21.7530 N   0  0  0  0  0  0  0  0  0  0  0  0
    6.7530   -5.5540   22.3880 C   0  0  0  0  0  0  0  0  0  0  0  0
    6.0540   -5.3120   23.7850 C   0  0  0  0  0  0  0  0  0  0  0  0
    6.1230   -3.8340   24.0450 C   0  0  0  0  0  0  0  0  0  0  0  0
    5.0610   -3.4330   25.1790 C   0  0  0  0  0  0  0  0  0  0  0  0
    3.9810   -3.2520   24.6520 O   0  0  0  0  0  0  0  0  0  0  0  0
    5.5590   -3.3890   26.3480 N   0  0  0  0  0  0  0  0  0  0  0  0
    6.4190   -3.3020   27.3470 C   0  0  0  0  0  0  0  0  0  0  0  0
    6.7780   -4.1110   28.3950 C   0  0  0  0  0  0  0  0  0  0  0  0
    5.6760   -4.1540   29.1850 C   0  0  0  0  0  0  0  0  0  0  0  0
    5.2060   -2.9010   29.8260 C   0  0  0  0  0  0  0  0  0  0  0  0
    6.2610   -1.8790   29.6660 C   0  0  0  0  0  0  0  0  0  0  0  0
    5.6820   -0.7410   30.3270 N   0  0  0  0  0  0  0  0  0  0  0  0
    4.4480   -1.1430   30.7790 N   0  0  0  0  0  0  0  0  0  0  0  0
    4.1280   -2.4590   30.4880 N   0  0  0  0  0  0  0  0  0  0  0  0
    4.4900   -4.2710   28.3390 C   0  0  0  0  0  0  0  0  0  0  0  0
    4.5340   -3.2340   27.3660 C   0  0  0  0  0  0  0  0  0  0  0  0
    7.3920   -3.1990   23.8650 C   0  0  0  0  0  0  0  0  0  0  0  0
    7.6230   -3.2180   22.3140 C   0  0  0  0  0  0  0  0  0  0  0  0
  1  2  1  0
  2  3  2  0
  2  4  1  0
  4  5  1  0
  5  6  1  0
  6  7  1  0
  7  8  1  0
  8  9  2  0
  8 10  1  0
 10 11  1  0
 11 12  1  0
 12 13  1  0
 13 14  1  0
 14 15  2  0
 15 16  1  0
 16 17  1  0
 14 18  1  0
 17 18  2  0
 13 19  1  0
 10 20  1  0
 19 20  1  0
  7 21  1  0
  4 22  1  0
 21 22  1  0
M  END
