piperidine-amides-25909-covalent
     RDKit          3D

 25 28  0  0  0  0  0  0  0  0999 V2000
    7.0830   -3.3530   19.3730 C   0  0  0  0  0  0  0  0  0  0  0  0
    6.3840   -4.2080   20.3620 C   0  0  0  0  0  0  0  0  0  0  0  0
    5.3760   -4.7970   19.9720 O   0  0  0  0  0  0  0  0  0  0  0  0
    6.9020   -4.3570   21.6560 N   0  0  0  0  0  0  0  0  0  0  0  0
    6.5870   -5.4840   22.4850 C   0  0  0  0  0  0  0  0  0  0  0  0
    5.6980   -5.0290   23.6130 C   0  0  0  0  0  0  0  0  0  0  0  0
    6.2860   -3.7850   24.2970 C   0  0  0  0  0  0  0  0  0  0  0  0
    5.2250   -3.1990   25.1550 C   0  0  0  0  0  0  0  0  0  0  0  0
    4.2780   -2.6410   24.6100 O   0  0  0  0  0  0  0  0  0  0  0  0
    5.2580   -3.2570   26.5700 N   0  0  0  0  0  0  0  0  0  0  0  0
    6.5020   -3.3210   27.2000 C   0  0  0  0  0  0  0  0  0  0  0  0
    6.5230   -4.6210   28.0070 C   0  0  0  0  0  0  0  0  0  0  0  0
    5.2540   -4.6140   28.7290 N   0  0  0  0  0  0  0  0  0  0  0  0
    4.3710   -3.5330   28.3960 C   0  0  0  0  0  0  0  0  0  0  0  0
    3.4250   -4.0410   29.3450 N   0  0  0  0  0  0  0  0  0  0  0  0
    3.6430   -5.1690   30.0970 N   0  0  0  0  0  0  0  0  0  0  0  0
    4.9030   -5.5290   29.6400 C   0  0  0  0  0  0  0  0  0  0  0  0
    5.6020   -6.6010   30.0640 C   0  0  0  0  0  0  0  0  0  0  0  0
    5.3660   -7.3510   31.3620 C   0  0  0  0  0  0  0  0  0  0  0  0
    3.9030   -7.5630   31.1740 C   0  0  0  0  0  0  0  0  0  0  0  0
    3.7870   -7.7390   29.6930 C   0  0  0  0  0  0  0  0  0  0  0  0
    5.2210   -7.8190   29.2600 C   0  0  0  0  0  0  0  0  0  0  0  0
    4.4560   -2.4860   27.5170 C   0  0  0  0  0  0  0  0  0  0  0  0
    6.9350   -2.7780   23.4180 C   0  0  0  0  0  0  0  0  0  0  0  0
    7.7010   -3.3140   22.2660 C   0  0  0  0  0  0  0  0  0  0  0  0
  1  2  1  0
  2  3  2  0
  2  4  1  0
  4  5  1  0
  5  6  1  0
  6  7  1  0
  7  8  1  0
  8  9  2  0
  8 10  1  0
 10 11  1  0
 11 12  1  0
 12 13  1  0
 13 14  1  0
 14 15  2  0
 15 16  1  0
 13 17  1  0
 16 17  2  0
 17 18  1  0
 18 19  1  0
 19 20  1  0
 20 21  1  0
 18 22  1  0
 21 22  1  0
 10 23  1  0
 14 23  1  0
  7 24  1  0
  4 25  1  0
 24 25  1  0
M  END
