piperidine-amides-19227-covalent
     RDKit          3D

 20 21  0  0  0  0  0  0  0  0999 V2000
    7.1500   -3.2800   19.3480 C   0  0  0  0  0  0  0  0  0  0  0  0
    6.3870   -4.0660   20.2930 C   0  0  0  0  0  0  0  0  0  0  0  0
    5.3080   -4.6090   19.9040 O   0  0  0  0  0  0  0  0  0  0  0  0
    6.8240   -4.2870   21.6110 N   0  0  0  0  0  0  0  0  0  0  0  0
    6.4540   -5.5630   22.2510 C   0  0  0  0  0  0  0  0  0  0  0  0
    5.4570   -4.9960   23.3230 C   0  0  0  0  0  0  0  0  0  0  0  0
    6.2920   -4.0220   24.1120 C   0  0  0  0  0  0  0  0  0  0  0  0
    5.5420   -3.5700   25.4430 C   0  0  0  0  0  0  0  0  0  0  0  0
    5.1900   -2.4010   25.3630 O   0  0  0  0  0  0  0  0  0  0  0  0
    5.4860   -4.5540   26.2560 N   0  0  0  0  0  0  0  0  0  0  0  0
    5.6660   -5.5840   27.0180 C   0  0  0  0  0  0  0  0  0  0  0  0
    4.5580   -5.6480   27.6620 C   0  0  0  0  0  0  0  0  0  0  0  0
    4.1010   -4.4840   26.8970 C   0  0  1  0  0  0  0  0  0  0  0  0
    3.6420   -3.2720   27.6080 C   0  0  0  0  0  0  0  0  0  0  0  0
    2.3560   -3.5650   28.7950 S   0  0  0  0  0  0  0  0  0  0  0  0
    2.8210   -3.0770   30.4490 C   0  0  0  0  0  0  0  0  0  0  0  0
    1.9700   -4.9890   28.8250 O   0  0  0  0  0  0  0  0  0  0  0  0
    1.2240   -2.6710   28.4110 O   0  0  0  0  0  0  0  0  0  0  0  0
    6.9160   -2.8610   23.3550 C   0  0  0  0  0  0  0  0  0  0  0  0
    7.6840   -3.3540   22.2980 C   0  0  0  0  0  0  0  0  0  0  0  0
  1  2  1  0
  2  3  2  0
  2  4  1  0
  4  5  1  0
  5  6  1  0
  6  7  1  0
  7  8  1  0
  8  9  2  0
  8 10  1  0
 10 11  1  0
 11 12  1  0
 10 13  1  0
 12 13  1  0
 13 14  1  1
 15 14  1  0
 15 16  1  0
 15 17  2  0
 15 18  2  0
  7 19  1  0
  4 20  1  0
 19 20  1  0
M  END
