piperidine-amides-766-covalent
     RDKit          3D

 25 27  0  0  0  0  0  0  0  0999 V2000
    7.1860   -3.2800   19.3130 C   0  0  0  0  0  0  0  0  0  0  0  0
    6.4270   -4.0420   20.2770 C   0  0  0  0  0  0  0  0  0  0  0  0
    5.3460   -4.6040   19.9090 O   0  0  0  0  0  0  0  0  0  0  0  0
    6.8830   -4.2020   21.5950 N   0  0  0  0  0  0  0  0  0  0  0  0
    6.5780   -5.4560   22.3120 C   0  0  0  0  0  0  0  0  0  0  0  0
    5.6680   -4.8820   23.4630 C   0  0  0  0  0  0  0  0  0  0  0  0
    6.4690   -3.7640   24.1010 C   0  0  0  0  0  0  0  0  0  0  0  0
    5.7340   -3.2670   25.4120 C   0  0  0  0  0  0  0  0  0  0  0  0
    4.9680   -2.3440   25.1840 O   0  0  0  0  0  0  0  0  0  0  0  0
    6.1550   -3.9970   26.3540 N   0  0  0  0  0  0  0  0  0  0  0  0
    6.6150   -4.8230   27.3220 C   0  0  0  0  0  0  0  0  0  0  0  0
    6.4730   -6.0540   27.8770 C   0  0  0  0  0  0  0  0  0  0  0  0
    5.6110   -6.2140   28.9910 C   0  0  0  0  0  0  0  0  0  0  0  0
    5.6610   -6.6960   30.3540 C   0  0  0  0  0  0  0  0  0  0  0  0
    4.4280   -6.6180   31.0570 N   0  0  0  0  0  0  0  0  0  0  0  0
    3.9600   -6.9550   32.3960 C   0  0  0  0  0  0  0  0  0  0  0  0
    3.6190   -6.0470   29.9850 C   0  0  0  0  0  0  0  0  0  0  0  0
    2.2260   -5.8060   30.3110 C   0  0  0  0  0  0  0  0  0  0  0  0
    1.6900   -5.2160   28.9640 C   0  0  0  0  0  0  0  0  0  0  0  0
    0.1780   -4.8120   28.8960 C   0  0  0  0  0  0  0  0  0  0  0  0
    2.4220   -4.9720   27.7000 C   0  0  0  0  0  0  0  0  0  0  0  0
    3.7070   -5.2540   27.5780 C   0  0  0  0  0  0  0  0  0  0  0  0
    4.2440   -5.7580   28.6660 C   0  0  0  0  0  0  0  0  0  0  0  0
    6.8990   -2.6470   23.2100 C   0  0  0  0  0  0  0  0  0  0  0  0
    7.7020   -3.2150   22.2360 C   0  0  0  0  0  0  0  0  0  0  0  0
  1  2  1  0
  2  3  2  0
  2  4  1  0
  4  5  1  0
  5  6  1  0
  6  7  1  0
  7  8  1  0
  8  9  2  0
  8 10  1  0
 10 11  1  0
 11 12  1  0
 12 13  1  0
 13 14  2  0
 14 15  1  0
 15 16  1  0
 15 17  1  0
 17 18  1  0
 18 19  2  0
 19 20  1  0
 19 21  1  0
 21 22  2  0
 13 23  1  0
 17 23  2  0
 22 23  1  0
  7 24  1  0
  4 25  1  0
 24 25  1  0
M  END
