piperidine-amides-33099-covalent
     RDKit          3D

 29 31  0  0  0  0  0  0  0  0999 V2000
    6.9950   -3.4070   19.4400 C   0  0  0  0  0  0  0  0  0  0  0  0
    6.3790   -4.2950   20.4460 C   0  0  0  0  0  0  0  0  0  0  0  0
    5.4260   -4.9980   20.0200 O   0  0  0  0  0  0  0  0  0  0  0  0
    6.8510   -4.3860   21.7980 N   0  0  0  0  0  0  0  0  0  0  0  0
    6.4650   -5.5170   22.5920 C   0  0  0  0  0  0  0  0  0  0  0  0
    5.8940   -5.1440   23.8950 C   0  0  0  0  0  0  0  0  0  0  0  0
    5.8290   -3.6820   24.0690 C   0  0  0  0  0  0  0  0  0  0  0  0
    5.1710   -3.1110   25.3420 C   0  0  0  0  0  0  0  0  0  0  0  0
    4.5890   -2.0300   25.2020 O   0  0  0  0  0  0  0  0  0  0  0  0
    5.1160   -3.6680   26.6660 N   0  0  0  0  0  0  0  0  0  0  0  0
    4.8230   -2.9650   27.8450 C   0  0  0  0  0  0  0  0  0  0  0  0
    5.0570   -3.7010   29.0720 C   0  0  0  0  0  0  0  0  0  0  0  0
    5.2190   -5.0200   29.0380 N   0  0  0  0  0  0  0  0  0  0  0  0
    4.2530   -5.9900   29.4990 C   0  0  0  0  0  0  0  0  0  0  0  0
    3.4390   -6.3720   28.4130 C   0  0  0  0  0  0  0  0  0  0  0  0
    2.3660   -7.4200   28.8190 C   0  0  0  0  0  0  0  0  0  0  0  0
    1.4930   -7.8850   27.8360 O   0  0  0  0  0  0  0  0  0  0  0  0
    2.2300   -8.2370   26.6990 C   0  0  0  0  0  0  0  0  0  0  0  0
    2.2770   -7.9290   30.2750 C   0  0  0  0  0  0  0  0  0  0  0  0
    1.4250   -8.7670   30.6370 O   0  0  0  0  0  0  0  0  0  0  0  0
    0.7840   -9.6490   29.7010 C   0  0  0  0  0  0  0  0  0  0  0  0
    3.2160   -7.4290   31.3180 C   0  0  0  0  0  0  0  0  0  0  0  0
    3.1450   -7.8780   32.6270 O   0  0  0  0  0  0  0  0  0  0  0  0
    2.1490   -8.8290   33.0340 C   0  0  0  0  0  0  0  0  0  0  0  0
    4.1900   -6.4350   30.8060 C   0  0  0  0  0  0  0  0  0  0  0  0
    5.9030   -5.5300   27.9120 C   0  0  0  0  0  0  0  0  0  0  0  0
    6.1190   -4.5910   26.9010 C   0  0  0  0  0  0  0  0  0  0  0  0
    7.1640   -3.0680   23.7550 C   0  0  0  0  0  0  0  0  0  0  0  0
    7.5880   -3.3040   22.4330 C   0  0  0  0  0  0  0  0  0  0  0  0
  1  2  1  0
  2  3  2  0
  2  4  1  0
  4  5  1  0
  5  6  1  0
  6  7  1  0
  7  8  1  0
  8  9  2  0
  8 10  1  0
 10 11  1  0
 11 12  1  0
 12 13  1  0
 13 14  1  0
 14 15  2  0
 15 16  1  0
 16 17  1  0
 17 18  1  0
 16 19  2  0
 19 20  1  0
 20 21  1  0
 19 22  1  0
 22 23  1  0
 23 24  1  0
 14 25  1  0
 22 25  2  0
 13 26  1  0
 10 27  1  0
 26 27  1  0
  7 28  1  0
  4 29  1  0
 28 29  1  0
M  END
