piperidine-amides-8136-covalent
     RDKit          3D

 26 28  0  0  0  0  0  0  0  0999 V2000
    7.0450   -3.3330   19.3330 C   0  0  0  0  0  0  0  0  0  0  0  0
    6.3930   -4.1750   20.3330 C   0  0  0  0  0  0  0  0  0  0  0  0
    5.3890   -4.8210   19.9820 O   0  0  0  0  0  0  0  0  0  0  0  0
    6.9340   -4.2840   21.6470 N   0  0  0  0  0  0  0  0  0  0  0  0
    7.6700   -3.1700   22.1930 C   0  0  0  0  0  0  0  0  0  0  0  0
    7.5380   -3.1410   23.6880 C   0  0  0  0  0  0  0  0  0  0  0  0
    6.1330   -3.5960   23.9900 C   0  0  0  0  0  0  0  0  0  0  0  0
    5.7090   -3.2440   25.3870 C   0  0  0  0  0  0  0  0  0  0  0  0
    4.5750   -3.6040   25.6970 O   0  0  0  0  0  0  0  0  0  0  0  0
    6.5780   -2.5380   26.2210 N   0  0  0  0  0  0  0  0  0  0  0  0
    6.0820   -1.5830   27.1620 C   0  0  2  0  0  0  0  0  0  0  0  0
    5.8270   -0.2720   26.6370 C   0  0  0  0  0  0  0  0  0  0  0  0
    5.5660    0.5170   27.6640 C   0  0  0  0  0  0  0  0  0  0  0  0
    6.1600   -0.3770   28.5160 N   0  0  0  0  0  0  0  0  0  0  0  0
    5.6690   -0.3210   29.8430 C   0  0  0  0  0  0  0  0  0  0  0  0
    4.4280   -1.0780   30.1510 C   0  0  0  0  0  0  0  0  0  0  0  0
    3.7760   -1.1230   31.5520 C   0  0  0  0  0  0  0  0  0  0  0  0
    4.4250   -0.3670   32.6590 C   0  0  0  0  0  0  0  0  0  0  0  0
    3.7670   -0.3560   34.2800 Cl  0  0  0  0  0  0  0  0  0  0  0  0
    5.6800    0.3810   32.2780 C   0  0  0  0  0  0  0  0  0  0  0  0
    6.3000    0.3990   30.8530 C   0  0  0  0  0  0  0  0  0  0  0  0
    7.4480    1.1060   30.5860 F   0  0  0  0  0  0  0  0  0  0  0  0
    7.2440   -1.2600   28.1920 C   0  0  0  0  0  0  0  0  0  0  0  0
    7.8990   -0.7390   29.1420 O   0  0  0  0  0  0  0  0  0  0  0  0
    6.1320   -5.0820   23.7950 C   0  0  0  0  0  0  0  0  0  0  0  0
    6.5770   -5.4610   22.4080 C   0  0  0  0  0  0  0  0  0  0  0  0
  1  2  1  0
  2  3  2  0
  2  4  1  0
  4  5  1  0
  5  6  1  0
  6  7  1  0
  7  8  1  0
  8  9  2  0
  8 10  1  0
 11 10  1  6
 11 12  1  0
 12 13  1  0
 13 14  1  0
 14 15  1  0
 15 16  2  0
 16 17  1  0
 17 18  2  0
 18 19  1  0
 18 20  1  0
 15 21  1  0
 20 21  2  0
 21 22  1  0
 11 23  1  0
 14 23  1  0
 23 24  2  0
  7 25  1  0
  4 26  1  0
 25 26  1  0
M  END
