piperidine-amides-19742-covalent
     RDKit          3D

 22 23  0  0  0  0  0  0  0  0999 V2000
    7.1210   -3.2880   19.2410 C   0  0  0  0  0  0  0  0  0  0  0  0
    6.3460   -4.0500   20.2520 C   0  0  0  0  0  0  0  0  0  0  0  0
    5.2880   -4.5540   19.8860 O   0  0  0  0  0  0  0  0  0  0  0  0
    6.8520   -4.2120   21.5430 N   0  0  0  0  0  0  0  0  0  0  0  0
    6.5970   -5.3960   22.3220 C   0  0  0  0  0  0  0  0  0  0  0  0
    5.9240   -5.0240   23.6210 C   0  0  0  0  0  0  0  0  0  0  0  0
    6.6470   -3.8350   24.2660 C   0  0  0  0  0  0  0  0  0  0  0  0
    5.8310   -3.3990   25.4080 C   0  0  0  0  0  0  0  0  0  0  0  0
    4.6170   -3.2020   25.2520 O   0  0  0  0  0  0  0  0  0  0  0  0
    6.4160   -3.2010   26.6670 N   0  0  0  0  0  0  0  0  0  0  0  0
    6.6510   -4.3750   27.4860 C   0  0  0  0  0  0  0  0  0  0  0  0
    6.4520   -1.8760   27.2070 C   0  0  0  0  0  0  0  0  0  0  0  0
    5.7440   -1.8060   28.3820 C   0  0  0  0  0  0  0  0  0  0  0  0
    4.4770   -2.1370   28.6610 C   0  0  0  0  0  0  0  0  0  0  0  0
    4.1290   -1.8960   30.0420 N   0  0  0  0  0  0  0  0  0  0  0  0
    2.8580   -2.1470   30.6630 C   0  0  0  0  0  0  0  0  0  0  0  0
    3.0940   -2.8120   32.0060 C   0  0  0  0  0  0  0  0  0  0  0  0
    5.0980   -1.3940   30.7970 N   0  0  0  0  0  0  0  0  0  0  0  0
    6.0870   -1.3500   29.7480 C   0  0  0  0  0  0  0  0  0  0  0  0
    7.4990   -0.9980   29.3910 C   0  0  0  0  0  0  0  0  0  0  0  0
    6.9330   -2.7190   23.3500 C   0  0  0  0  0  0  0  0  0  0  0  0
    7.6320   -3.1510   22.1200 C   0  0  0  0  0  0  0  0  0  0  0  0
  1  2  1  0
  2  3  2  0
  2  4  1  0
  4  5  1  0
  5  6  1  0
  6  7  1  0
  7  8  1  0
  8  9  2  0
  8 10  1  0
 10 11  1  0
 10 12  1  0
 12 13  1  0
 13 14  2  0
 14 15  1  0
 15 16  1  0
 16 17  1  0
 15 18  1  0
 13 19  1  0
 18 19  2  0
 19 20  1  0
  7 21  1  0
  4 22  1  0
 21 22  1  0
M  END
