piperidine-amides-3551-covalent
     RDKit          3D

 20 21  0  0  0  0  0  0  0  0999 V2000
    7.0790   -3.2890   19.3010 C   0  0  0  0  0  0  0  0  0  0  0  0
    6.3550   -4.0950   20.2820 C   0  0  0  0  0  0  0  0  0  0  0  0
    5.3350   -4.6930   19.9400 O   0  0  0  0  0  0  0  0  0  0  0  0
    6.8460   -4.2370   21.6340 N   0  0  0  0  0  0  0  0  0  0  0  0
    6.5650   -5.4520   22.3550 C   0  0  0  0  0  0  0  0  0  0  0  0
    6.1330   -5.1200   23.7590 C   0  0  0  0  0  0  0  0  0  0  0  0
    6.0960   -3.6050   23.8930 C   0  0  0  0  0  0  0  0  0  0  0  0
    5.6180   -3.1910   25.2440 C   0  0  0  0  0  0  0  0  0  0  0  0
    4.4080   -3.0190   25.4770 O   0  0  0  0  0  0  0  0  0  0  0  0
    6.5370   -2.9810   26.3030 N   0  0  0  0  0  0  0  0  0  0  0  0
    6.2400   -3.5910   27.5840 C   0  0  0  0  0  0  0  0  0  0  0  0
    6.0150   -2.4990   28.6080 C   0  0  0  0  0  0  0  0  0  0  0  0
    6.9700   -1.5240   28.9010 C   0  0  0  0  0  0  0  0  0  0  0  0
    6.7420   -0.5230   29.8610 C   0  0  0  0  0  0  0  0  0  0  0  0
    5.5550   -0.4710   30.5480 C   0  0  0  0  0  0  0  0  0  0  0  0
    5.1990    0.8600   31.8540 Br  0  0  0  0  0  0  0  0  0  0  0  0
    4.5850   -1.4870   30.2220 C   0  0  0  0  0  0  0  0  0  0  0  0
    4.8180   -2.4580   29.2880 C   0  0  0  0  0  0  0  0  0  0  0  0
    7.4870   -3.0830   23.5800 C   0  0  0  0  0  0  0  0  0  0  0  0
    7.6240   -3.1330   22.1890 C   0  0  0  0  0  0  0  0  0  0  0  0
  1  2  1  0
  2  3  2  0
  2  4  1  0
  4  5  1  0
  5  6  1  0
  6  7  1  0
  7  8  1  0
  8  9  2  0
  8 10  1  0
 10 11  1  0
 11 12  1  0
 12 13  2  0
 13 14  1  0
 14 15  2  0
 15 16  1  0
 15 17  1  0
 12 18  1  0
 17 18  2  0
  7 19  1  0
  4 20  1  0
 19 20  1  0
M  END
