piperidine-amides-31875-covalent
     RDKit          3D

 28 29  0  0  0  0  0  0  0  0999 V2000
    7.0230   -3.3260   19.2110 C   0  0  0  0  0  0  0  0  0  0  0  0
    6.3340   -4.0450   20.2680 C   0  0  0  0  0  0  0  0  0  0  0  0
    5.3130   -4.7210   19.9430 O   0  0  0  0  0  0  0  0  0  0  0  0
    6.7620   -4.0610   21.6080 N   0  0  0  0  0  0  0  0  0  0  0  0
    6.6650   -5.3600   22.3340 C   0  0  0  0  0  0  0  0  0  0  0  0
    5.9060   -4.9850   23.6840 C   0  0  0  0  0  0  0  0  0  0  0  0
    6.2570   -3.5460   23.9840 C   0  0  0  0  0  0  0  0  0  0  0  0
    5.6710   -3.0030   25.3620 C   0  0  0  0  0  0  0  0  0  0  0  0
    4.5860   -2.4740   25.1650 O   0  0  0  0  0  0  0  0  0  0  0  0
    6.4570   -3.2580   26.3450 N   0  0  0  0  0  0  0  0  0  0  0  0
    7.0680   -3.9410   27.3580 C   0  0  0  0  0  0  0  0  0  0  0  0
    7.2370   -5.2650   27.7020 C   0  0  0  0  0  0  0  0  0  0  0  0
    6.1000   -5.8170   28.3260 C   0  0  0  0  0  0  0  0  0  0  0  0
    6.9140   -1.9960   27.0300 C   0  0  0  0  0  0  0  0  0  0  0  0
    8.0380   -1.2590   26.2430 C   0  0  0  0  0  0  0  0  0  0  0  0
    8.6140   -2.2930   25.5670 C   0  0  0  0  0  0  0  0  0  0  0  0
    9.7300   -2.2780   24.6600 C   0  0  0  0  0  0  0  0  0  0  0  0
   10.0400   -0.7320   24.7050 C   0  0  0  0  0  0  0  0  0  0  0  0
   11.0120   -0.4560   23.9650 O   0  0  0  0  0  0  0  0  0  0  0  0
   11.7460   -1.6100   23.7000 C   0  0  0  0  0  0  0  0  0  0  0  0
   12.9820   -1.1130   23.3720 C   0  0  0  0  0  0  0  0  0  0  0  0
   13.0450    0.2210   23.0540 C   0  0  0  0  0  0  0  0  0  0  0  0
    9.4140    0.3040   25.4140 C   0  0  0  0  0  0  0  0  0  0  0  0
    9.8340    1.4990   25.2890 O   0  0  0  0  0  0  0  0  0  0  0  0
    8.8160    2.3840   25.0750 C   0  0  0  0  0  0  0  0  0  0  0  0
    8.3710    0.0280   26.2190 C   0  0  0  0  0  0  0  0  0  0  0  0
    7.5950   -3.0840   23.5860 C   0  0  0  0  0  0  0  0  0  0  0  0
    7.7420   -3.1440   22.1150 C   0  0  0  0  0  0  0  0  0  0  0  0
  1  2  1  0
  2  3  2  0
  2  4  1  0
  4  5  1  0
  5  6  1  0
  6  7  1  0
  7  8  1  0
  8  9  2  0
  8 10  1  0
 10 11  1  0
 11 12  1  0
 12 13  1  0
 10 14  1  0
 14 15  1  0
 15 16  2  0
 16 17  1  0
 17 18  2  0
 18 19  1  0
 19 20  1  0
 20 21  1  0
 21 22  1  0
 18 23  1  0
 23 24  1  0
 24 25  1  0
 15 26  1  0
 23 26  2  0
  7 27  1  0
  4 28  1  0
 27 28  1  0
M  END
