piperidine-amides-5546-covalent
     RDKit          3D

 19 19  0  0  0  0  0  0  0  0999 V2000
    7.0730   -3.2880   19.2780 C   0  0  0  0  0  0  0  0  0  0  0  0
    6.3530   -4.0720   20.2870 C   0  0  0  0  0  0  0  0  0  0  0  0
    5.3220   -4.6660   19.9370 O   0  0  0  0  0  0  0  0  0  0  0  0
    6.8120   -4.2200   21.6150 N   0  0  0  0  0  0  0  0  0  0  0  0
    6.7130   -5.4890   22.3080 C   0  0  0  0  0  0  0  0  0  0  0  0
    6.1770   -5.1820   23.6810 C   0  0  0  0  0  0  0  0  0  0  0  0
    6.1030   -3.7070   23.9330 C   0  0  0  0  0  0  0  0  0  0  0  0
    5.6470   -3.3520   25.3060 C   0  0  0  0  0  0  0  0  0  0  0  0
    4.4090   -3.2930   25.5500 O   0  0  0  0  0  0  0  0  0  0  0  0
    6.4920   -3.0470   26.3930 N   0  0  0  0  0  0  0  0  0  0  0  0
    6.9280   -1.6410   26.5320 C   0  0  0  0  0  0  0  0  0  0  0  0
    6.3550   -3.8010   27.6690 C   0  0  0  0  0  0  0  0  0  0  0  0
    6.0410   -5.2420   27.5030 C   0  0  0  0  0  0  0  0  0  0  0  0
    4.7990   -5.6180   28.2650 C   0  0  0  0  0  0  0  0  0  0  0  0
    4.3840   -7.0550   28.0390 C   0  0  0  0  0  0  0  0  0  0  0  0
    3.5890   -7.4920   29.2140 C   0  0  0  0  0  0  0  0  0  0  0  0
    2.9130   -6.4130   29.8540 N   0  0  0  0  0  0  0  0  0  0  0  0
    7.4280   -3.0850   23.5590 C   0  0  0  0  0  0  0  0  0  0  0  0
    7.6550   -3.1760   22.1770 C   0  0  0  0  0  0  0  0  0  0  0  0
  1  2  1  0
  2  3  2  0
  2  4  1  0
  4  5  1  0
  5  6  1  0
  6  7  1  0
  7  8  1  0
  8  9  2  0
  8 10  1  0
 10 11  1  0
 10 12  1  0
 12 13  1  0
 13 14  1  0
 14 15  1  0
 15 16  1  0
 16 17  1  0
  7 18  1  0
  4 19  1  0
 18 19  1  0
M  END
