piperidine-amides-25331-covalent
     RDKit          3D

 25 27  0  0  0  0  0  0  0  0999 V2000
    7.0910   -3.3140   19.2860 C   0  0  0  0  0  0  0  0  0  0  0  0
    6.4070   -4.1650   20.2910 C   0  0  0  0  0  0  0  0  0  0  0  0
    5.3650   -4.7250   19.9480 O   0  0  0  0  0  0  0  0  0  0  0  0
    6.9790   -4.3420   21.5500 N   0  0  0  0  0  0  0  0  0  0  0  0
    6.6990   -5.4990   22.3560 C   0  0  0  0  0  0  0  0  0  0  0  0
    6.0240   -5.0590   23.6240 C   0  0  0  0  0  0  0  0  0  0  0  0
    6.7290   -3.8180   24.1840 C   0  0  0  0  0  0  0  0  0  0  0  0
    5.8740   -3.2130   25.2140 C   0  0  0  0  0  0  0  0  0  0  0  0
    5.2270   -2.1990   24.9410 O   0  0  0  0  0  0  0  0  0  0  0  0
    5.7110   -3.7610   26.4880 N   0  0  0  0  0  0  0  0  0  0  0  0
    6.4270   -3.1580   27.5680 C   0  0  0  0  0  0  0  0  0  0  0  0
    6.5570   -4.2260   28.6450 C   0  0  0  0  0  0  0  0  0  0  0  0
    5.4880   -4.7700   29.2790 C   0  0  0  0  0  0  0  0  0  0  0  0
    5.1830   -5.6590   30.2360 C   0  0  0  0  0  0  0  0  0  0  0  0
    4.1970   -5.6600   31.1730 C   0  0  0  0  0  0  0  0  0  0  0  0
    3.8560   -6.6630   32.2750 C   0  0  0  0  0  0  0  0  0  0  0  0
    4.8730   -7.7860   32.1800 C   0  0  0  0  0  0  0  0  0  0  0  0
    4.8740   -8.8610   33.0200 O   0  0  0  0  0  0  0  0  0  0  0  0
    5.8510   -8.8710   34.0050 C   0  0  0  0  0  0  0  0  0  0  0  0
    5.9750   -7.7930   31.1300 C   0  0  0  0  0  0  0  0  0  0  0  0
    6.1820   -6.7560   30.1180 C   0  0  0  0  0  0  0  0  0  0  0  0
    4.4050   -4.0470   28.6050 C   0  0  0  0  0  0  0  0  0  0  0  0
    4.4920   -4.0630   27.1390 C   0  0  0  0  0  0  0  0  0  0  0  0
    6.9500   -2.7680   23.1250 C   0  0  0  0  0  0  0  0  0  0  0  0
    7.7630   -3.2770   22.1580 C   0  0  0  0  0  0  0  0  0  0  0  0
  1  2  1  0
  2  3  2  0
  2  4  1  0
  4  5  1  0
  5  6  1  0
  6  7  1  0
  7  8  1  0
  8  9  2  0
  8 10  1  0
 10 11  1  0
 11 12  1  0
 12 13  2  0
 13 14  1  0
 14 15  2  0
 15 16  1  0
 16 17  2  0
 17 18  1  0
 18 19  1  0
 17 20  1  0
 14 21  1  0
 20 21  2  0
 13 22  1  0
 10 23  1  0
 22 23  1  0
  7 24  1  0
  4 25  1  0
 24 25  1  0
M  END
