piperidine-amides-21651-covalent
     RDKit          3D

 23 25  0  0  0  0  0  0  0  0999 V2000
    6.9710   -3.4100   19.4310 C   0  0  0  0  0  0  0  0  0  0  0  0
    6.3470   -4.3340   20.3910 C   0  0  0  0  0  0  0  0  0  0  0  0
    5.3270   -4.9380   19.9810 O   0  0  0  0  0  0  0  0  0  0  0  0
    6.8850   -4.5640   21.6640 N   0  0  0  0  0  0  0  0  0  0  0  0
    6.4630   -5.6590   22.5000 C   0  0  0  0  0  0  0  0  0  0  0  0
    6.3690   -5.1610   23.9330 C   0  0  0  0  0  0  0  0  0  0  0  0
    5.7830   -3.7700   24.0240 C   0  0  0  0  0  0  0  0  0  0  0  0
    5.5250   -3.2150   25.4070 C   0  0  0  0  0  0  0  0  0  0  0  0
    4.7890   -2.2090   25.4230 O   0  0  0  0  0  0  0  0  0  0  0  0
    5.9370   -3.6750   26.6990 N   0  0  0  0  0  0  0  0  0  0  0  0
    4.9270   -3.7970   27.7020 C   0  0  0  0  0  0  0  0  0  0  0  0
    5.3810   -4.8810   28.6430 C   0  0  0  0  0  0  0  0  0  0  0  0
    6.6950   -5.2510   28.7150 C   0  0  0  0  0  0  0  0  0  0  0  0
    7.6810   -4.4990   28.1100 C   0  0  0  0  0  0  0  0  0  0  0  0
    7.3070   -3.5840   27.1270 C   0  0  1  0  0  0  0  0  0  0  0  0
    8.0610   -3.6570   26.0400 C   0  0  0  0  0  0  0  0  0  0  0  0
    7.8450   -2.4310   25.4300 C   0  0  0  0  0  0  0  0  0  0  0  0
    8.5020   -2.2680   24.2830 N   0  0  0  0  0  0  0  0  0  0  0  0
    9.1200   -3.4250   24.2060 C   0  0  0  0  0  0  0  0  0  0  0  0
    8.7690   -4.1760   25.3610 N   0  0  0  0  0  0  0  0  0  0  0  0
    9.2380   -5.4080   25.6210 C   0  0  0  0  0  0  0  0  0  0  0  0
    6.4890   -2.7380   23.1130 C   0  0  0  0  0  0  0  0  0  0  0  0
    7.5720   -3.4960   22.3640 C   0  0  0  0  0  0  0  0  0  0  0  0
  1  2  1  0
  2  3  2  0
  2  4  1  0
  4  5  1  0
  5  6  1  0
  6  7  1  0
  7  8  1  0
  8  9  2  0
  8 10  1  0
 10 11  1  0
 11 12  1  0
 12 13  1  0
 13 14  1  0
 10 15  1  0
 14 15  1  0
 15 16  1  6
 16 17  2  0
 17 18  1  0
 18 19  2  0
 16 20  1  0
 19 20  1  0
 20 21  1  0
  7 22  1  0
  4 23  1  0
 22 23  1  0
M  END
