piperidine-amides-34099-covalent
     RDKit          3D

 30 32  0  0  0  0  0  0  0  0999 V2000
    7.0280   -3.3440   19.3750 C   0  0  0  0  0  0  0  0  0  0  0  0
    6.3610   -4.2260   20.3440 C   0  0  0  0  0  0  0  0  0  0  0  0
    5.3570   -4.8790   19.9860 O   0  0  0  0  0  0  0  0  0  0  0  0
    6.8540   -4.3940   21.6490 N   0  0  0  0  0  0  0  0  0  0  0  0
    6.4780   -5.5820   22.3680 C   0  0  0  0  0  0  0  0  0  0  0  0
    5.4630   -5.1090   23.4110 C   0  0  0  0  0  0  0  0  0  0  0  0
    6.2310   -4.1730   24.3100 C   0  0  0  0  0  0  0  0  0  0  0  0
    5.3060   -3.5070   25.2750 C   0  0  0  0  0  0  0  0  0  0  0  0
    4.4290   -2.7670   24.7990 O   0  0  0  0  0  0  0  0  0  0  0  0
    5.4250   -3.6950   26.6920 N   0  0  0  0  0  0  0  0  0  0  0  0
    6.5620   -3.2380   27.3190 C   0  0  0  0  0  0  0  0  0  0  0  0
    6.8670   -4.3160   28.3480 C   0  0  0  0  0  0  0  0  0  0  0  0
    5.9180   -4.5100   29.2550 C   0  0  0  0  0  0  0  0  0  0  0  0
    4.6850   -4.7210   28.7250 C   0  0  1  0  0  0  0  0  0  0  0  0
    3.6040   -4.8810   29.6130 C   0  0  2  0  0  0  0  0  0  0  0  0
    2.3400   -5.0280   29.0510 C   0  0  0  0  0  0  0  0  0  0  0  0
    1.3670   -3.8520   28.9250 C   0  0  0  0  0  0  0  0  0  0  0  0
    1.4340   -4.3280   30.3690 C   0  0  0  0  0  0  0  0  0  0  0  0
    2.5780   -3.8040   31.1740 C   0  0  0  0  0  0  0  0  0  0  0  0
    3.6590   -3.8340   30.4490 N   0  0  0  0  0  0  0  0  0  0  0  0
    4.0150   -2.4750   30.0580 C   0  0  0  0  0  0  0  0  0  0  0  0
    5.0700   -2.0470   29.5110 O   0  0  0  0  0  0  0  0  0  0  0  0
    3.0210   -1.5490   30.3530 O   0  0  0  0  0  0  0  0  0  0  0  0
    3.2310   -0.5970   31.3600 C   0  0  0  0  0  0  0  0  0  0  0  0
    3.2530    0.6260   30.7560 C   0  0  0  0  0  0  0  0  0  0  0  0
    2.2910   -0.8080   32.3490 C   0  0  0  0  0  0  0  0  0  0  0  0
    4.5700   -0.7620   32.0170 C   0  0  0  0  0  0  0  0  0  0  0  0
    4.2790   -3.8570   27.5550 C   0  0  0  0  0  0  0  0  0  0  0  0
    7.0100   -3.0900   23.5980 C   0  0  0  0  0  0  0  0  0  0  0  0
    7.5660   -3.3670   22.3760 C   0  0  0  0  0  0  0  0  0  0  0  0
  1  2  1  0
  2  3  2  0
  2  4  1  0
  4  5  1  0
  5  6  1  0
  6  7  1  0
  7  8  1  0
  8  9  2  0
  8 10  1  0
 10 11  1  0
 11 12  1  0
 12 13  1  0
 14 13  1  1
 14 15  1  0
 15 16  1  6
 16 17  1  0
 17 18  1  0
 18 19  1  0
 15 20  1  0
 19 20  1  0
 20 21  1  0
 21 22  2  0
 21 23  1  0
 24 23  1  0
 24 25  1  0
 24 26  1  0
 24 27  1  0
 10 28  1  0
 14 28  1  0
  7 29  1  0
  4 30  1  0
 29 30  1  0
M  END
