piperidine-amides-18963-covalent
     RDKit          3D

 21 21  0  0  0  0  0  0  0  0999 V2000
    7.1250   -3.3260   19.2040 C   0  0  0  0  0  0  0  0  0  0  0  0
    6.3850   -4.0050   20.2390 C   0  0  0  0  0  0  0  0  0  0  0  0
    5.2900   -4.5510   19.9030 O   0  0  0  0  0  0  0  0  0  0  0  0
    6.8590   -4.1490   21.5630 N   0  0  0  0  0  0  0  0  0  0  0  0
    6.5790   -5.4080   22.2670 C   0  0  0  0  0  0  0  0  0  0  0  0
    5.5460   -4.8170   23.2840 C   0  0  0  0  0  0  0  0  0  0  0  0
    6.3500   -3.8970   24.1740 C   0  0  0  0  0  0  0  0  0  0  0  0
    5.4610   -3.6210   25.4710 C   0  0  0  0  0  0  0  0  0  0  0  0
    4.3520   -4.0890   25.2730 O   0  0  0  0  0  0  0  0  0  0  0  0
    6.0520   -2.9740   26.4040 N   0  0  0  0  0  0  0  0  0  0  0  0
    6.5750   -1.9170   27.1040 C   0  0  0  0  0  0  0  0  0  0  0  0
    7.0210   -1.6450   28.3740 C   0  0  0  0  0  0  0  0  0  0  0  0
    6.1820   -0.7640   29.0630 O   0  0  0  0  0  0  0  0  0  0  0  0
    6.4800   -0.6030   30.3970 C   0  0  0  0  0  0  0  0  0  0  0  0
    5.7230   -3.6160   27.7250 C   0  0  2  0  0  0  0  0  0  0  0  0
    6.6770   -4.5850   28.4620 C   0  0  0  0  0  0  0  0  0  0  0  0
    5.6270   -5.1530   27.4830 C   0  0  0  0  0  0  0  0  0  0  0  0
    5.0630   -5.7800   28.6100 N   0  0  0  0  0  0  0  0  0  0  0  0
    6.0490   -5.7100   26.2590 O   0  0  0  0  0  0  0  0  0  0  0  0
    6.8430   -2.6470   23.4650 C   0  0  0  0  0  0  0  0  0  0  0  0
    7.6300   -3.1080   22.2270 C   0  0  0  0  0  0  0  0  0  0  0  0
  1  2  1  0
  2  3  2  0
  2  4  1  0
  4  5  1  0
  5  6  1  0
  6  7  1  0
  7  8  1  0
  8  9  2  0
  8 10  1  0
 10 11  1  0
 11 12  1  0
 12 13  1  0
 13 14  1  0
 10 15  1  0
 15 16  1  1
 15 17  1  0
 17 18  1  0
 17 19  2  0
  7 20  1  0
  4 21  1  0
 20 21  1  0
M  END
