piperidine-amides-35137-covalent
     RDKit          3D

 29 31  0  0  0  0  0  0  0  0999 V2000
    7.0410   -3.3350   19.3490 C   0  0  0  0  0  0  0  0  0  0  0  0
    6.3880   -4.1980   20.3660 C   0  0  0  0  0  0  0  0  0  0  0  0
    5.3970   -4.8240   19.9870 O   0  0  0  0  0  0  0  0  0  0  0  0
    6.9110   -4.3260   21.6710 N   0  0  0  0  0  0  0  0  0  0  0  0
    6.6630   -5.5340   22.4220 C   0  0  0  0  0  0  0  0  0  0  0  0
    6.2430   -5.2010   23.8350 C   0  0  0  0  0  0  0  0  0  0  0  0
    6.0610   -3.6920   24.0110 C   0  0  0  0  0  0  0  0  0  0  0  0
    5.4880   -3.4220   25.3610 C   0  0  0  0  0  0  0  0  0  0  0  0
    4.2900   -3.6930   25.4970 O   0  0  0  0  0  0  0  0  0  0  0  0
    6.1420   -2.8560   26.4870 N   0  0  0  0  0  0  0  0  0  0  0  0
    6.2110   -3.7520   27.6370 C   0  0  0  0  0  0  0  0  0  0  0  0
    5.7170   -5.1410   27.2600 C   0  0  0  0  0  0  0  0  0  0  0  0
    5.6920   -6.1710   28.1560 C   0  0  0  0  0  0  0  0  0  0  0  0
    6.6640   -6.1680   29.0960 C   0  0  0  0  0  0  0  0  0  0  0  0
    5.7610   -1.5660   26.9660 C   0  0  0  0  0  0  0  0  0  0  0  0
    6.6820   -0.7810   27.5320 N   0  0  0  0  0  0  0  0  0  0  0  0
    6.0580    0.4730   27.9570 C   0  0  0  0  0  0  0  0  0  0  0  0
    6.8910    1.5240   28.6300 C   0  0  0  0  0  0  0  0  0  0  0  0
    7.2640    0.9600   29.9850 C   0  0  0  0  0  0  0  0  0  0  0  0
    8.1150    1.8490   30.8520 C   0  0  0  0  0  0  0  0  0  0  0  0
    8.5310    3.1900   30.3480 C   0  0  0  0  0  0  0  0  0  0  0  0
    9.5270    4.2470   31.3380 Cl  0  0  0  0  0  0  0  0  0  0  0  0
    8.0850    3.6270   28.9740 C   0  0  0  0  0  0  0  0  0  0  0  0
    7.2460    2.7600   28.1110 C   0  0  0  0  0  0  0  0  0  0  0  0
    6.7620    3.3240   26.5290 Cl  0  0  0  0  0  0  0  0  0  0  0  0
    4.6210    0.7150   27.7320 C   0  0  0  0  0  0  0  0  0  0  0  0
    4.2220   -0.7590   26.9700 S   0  0  0  0  0  0  0  0  0  0  0  0
    7.3720   -3.0300   23.6930 C   0  0  0  0  0  0  0  0  0  0  0  0
    7.6870   -3.2400   22.2300 C   0  0  0  0  0  0  0  0  0  0  0  0
  1  2  1  0
  2  3  2  0
  2  4  1  0
  4  5  1  0
  5  6  1  0
  6  7  1  0
  7  8  1  0
  8  9  2  0
  8 10  1  0
 10 11  1  0
 11 12  1  0
 12 13  1  0
 13 14  1  0
 10 15  1  0
 15 16  2  0
 16 17  1  0
 17 18  1  0
 18 19  2  0
 19 20  1  0
 20 21  2  0
 21 22  1  0
 21 23  1  0
 18 24  1  0
 23 24  2  0
 24 25  1  0
 17 26  2  0
 15 27  1  0
 26 27  1  0
  7 28  1  0
  4 29  1  0
 28 29  1  0
M  END
