piperidine-amides-24565-covalent
     RDKit          3D

 23 25  0  0  0  0  0  0  0  0999 V2000
    7.0070   -3.3550   19.3940 C   0  0  0  0  0  0  0  0  0  0  0  0
    6.3610   -4.2350   20.3880 C   0  0  0  0  0  0  0  0  0  0  0  0
    5.4210   -4.9720   20.0130 O   0  0  0  0  0  0  0  0  0  0  0  0
    6.7980   -4.2890   21.7330 N   0  0  0  0  0  0  0  0  0  0  0  0
    6.6330   -5.5360   22.4740 C   0  0  0  0  0  0  0  0  0  0  0  0
    6.1320   -5.2300   23.9100 C   0  0  0  0  0  0  0  0  0  0  0  0
    6.1000   -3.7260   24.0450 C   0  0  0  0  0  0  0  0  0  0  0  0
    5.6190   -3.2210   25.3690 C   0  0  0  0  0  0  0  0  0  0  0  0
    5.2000   -2.0510   25.3790 O   0  0  0  0  0  0  0  0  0  0  0  0
    5.5690   -3.9710   26.5830 N   0  0  0  0  0  0  0  0  0  0  0  0
    6.3640   -3.5740   27.6730 C   0  0  0  0  0  0  0  0  0  0  0  0
    6.6440   -4.8410   28.4640 C   0  0  0  0  0  0  0  0  0  0  0  0
    5.3750   -5.1660   29.0280 N   0  0  0  0  0  0  0  0  0  0  0  0
    4.9680   -6.5490   29.2080 C   0  0  0  0  0  0  0  0  0  0  0  0
    4.9450   -6.8050   30.5550 C   0  0  0  0  0  0  0  0  0  0  0  0
    4.1690   -6.1810   31.5820 C   0  0  0  0  0  0  0  0  0  0  0  0
    4.4110   -6.7880   33.2020 S   0  0  0  0  0  0  0  0  0  0  0  0
    5.5340   -7.8470   32.4320 C   0  0  0  0  0  0  0  0  0  0  0  0
    5.7210   -7.7680   31.1280 N   0  0  0  0  0  0  0  0  0  0  0  0
    4.4040   -4.2990   28.7680 C   0  0  0  0  0  0  0  0  0  0  0  0
    4.3010   -4.2380   27.2440 C   0  0  0  0  0  0  0  0  0  0  0  0
    7.3690   -3.0850   23.6880 C   0  0  0  0  0  0  0  0  0  0  0  0
    7.6420   -3.2590   22.2680 C   0  0  0  0  0  0  0  0  0  0  0  0
  1  2  1  0
  2  3  2  0
  2  4  1  0
  4  5  1  0
  5  6  1  0
  6  7  1  0
  7  8  1  0
  8  9  2  0
  8 10  1  0
 10 11  1  0
 11 12  1  0
 12 13  1  0
 13 14  1  0
 14 15  1  0
 15 16  2  0
 16 17  1  0
 17 18  1  0
 15 19  1  0
 18 19  2  0
 13 20  1  0
 10 21  1  0
 20 21  1  0
  7 22  1  0
  4 23  1  0
 22 23  1  0
M  END
