piperidine-amides-4054-covalent
     RDKit          3D

 28 30  0  0  0  0  0  0  0  0999 V2000
    7.1640   -3.2360   19.1080 C   0  0  0  0  0  0  0  0  0  0  0  0
    6.3570   -3.9490   20.1140 C   0  0  0  0  0  0  0  0  0  0  0  0
    5.2150   -4.3310   19.7820 O   0  0  0  0  0  0  0  0  0  0  0  0
    6.8740   -4.2570   21.3830 N   0  0  0  0  0  0  0  0  0  0  0  0
    7.6280   -3.2470   22.0470 C   0  0  0  0  0  0  0  0  0  0  0  0
    7.4750   -3.1880   23.4890 C   0  0  0  0  0  0  0  0  0  0  0  0
    6.5770   -4.1910   24.0880 C   0  0  0  0  0  0  0  0  0  0  0  0
    5.7730   -3.5390   25.1440 C   0  0  0  0  0  0  0  0  0  0  0  0
    4.5570   -3.3260   24.9770 O   0  0  0  0  0  0  0  0  0  0  0  0
    6.3890   -3.1640   26.3300 N   0  0  0  0  0  0  0  0  0  0  0  0
    6.0980   -3.6270   27.6100 C   0  0  0  0  0  0  0  0  0  0  0  0
    6.1690   -2.7270   28.7230 C   0  0  1  0  0  0  0  0  0  0  0  0
    5.9890   -1.2980   28.1540 C   0  0  0  0  0  0  0  0  0  0  0  0
    5.1840   -1.2660   27.0380 O   0  0  0  0  0  0  0  0  0  0  0  0
    6.7040   -0.2720   28.9250 N   0  0  0  0  0  0  0  0  0  0  0  0
    7.3560   -0.8860   30.0420 C   0  0  0  0  0  0  0  0  0  0  0  0
    7.7000    0.3400   30.8900 C   0  0  0  0  0  0  0  0  0  0  0  0
    7.9680    1.4660   30.1620 O   0  0  0  0  0  0  0  0  0  0  0  0
    6.8360    1.8910   29.7000 C   0  0  0  0  0  0  0  0  0  0  0  0
    5.9130    0.7160   29.3740 C   0  0  0  0  0  0  0  0  0  0  0  0
    5.0790   -3.0190   29.7140 C   0  0  0  0  0  0  0  0  0  0  0  0
    4.7680   -4.5050   29.6930 C   0  0  0  0  0  0  0  0  0  0  0  0
    3.6780   -5.0360   30.6300 C   0  0  0  0  0  0  0  0  0  0  0  0
    3.0110   -4.0230   31.4910 C   0  0  0  0  0  0  0  0  0  0  0  0
    3.3920   -2.6810   31.4110 C   0  0  0  0  0  0  0  0  0  0  0  0
    4.3720   -2.1770   30.5730 C   0  0  0  0  0  0  0  0  0  0  0  0
    5.6700   -4.8650   23.1330 C   0  0  0  0  0  0  0  0  0  0  0  0
    6.3990   -5.4060   22.0980 C   0  0  0  0  0  0  0  0  0  0  0  0
  1  2  1  0
  2  3  2  0
  2  4  1  0
  4  5  1  0
  5  6  1  0
  6  7  1  0
  7  8  1  0
  8  9  2  0
  8 10  1  0
 10 11  1  0
 12 11  1  6
 12 13  1  0
 13 14  2  0
 13 15  1  0
 15 16  1  0
 16 17  1  0
 17 18  1  0
 18 19  1  0
 15 20  1  0
 19 20  1  0
 12 21  1  0
 21 22  2  0
 22 23  1  0
 23 24  2  0
 24 25  1  0
 21 26  1  0
 25 26  2  0
  7 27  1  0
  4 28  1  0
 27 28  1  0
M  END
