piperidine-amides-13716-covalent
     RDKit          3D

 28 30  0  0  0  0  0  0  0  0999 V2000
    7.0990   -3.3270   19.2950 C   0  0  0  0  0  0  0  0  0  0  0  0
    6.4040   -4.1870   20.2890 C   0  0  0  0  0  0  0  0  0  0  0  0
    5.3630   -4.7820   19.9640 O   0  0  0  0  0  0  0  0  0  0  0  0
    6.9800   -4.3400   21.5650 N   0  0  0  0  0  0  0  0  0  0  0  0
    7.7240   -3.2710   22.1820 C   0  0  0  0  0  0  0  0  0  0  0  0
    6.8060   -2.6900   23.2510 C   0  0  0  0  0  0  0  0  0  0  0  0
    6.5770   -3.7750   24.2410 C   0  0  0  0  0  0  0  0  0  0  0  0
    5.8020   -3.3170   25.4090 C   0  0  0  0  0  0  0  0  0  0  0  0
    4.5720   -3.3130   25.2890 O   0  0  0  0  0  0  0  0  0  0  0  0
    6.4600   -2.9020   26.5710 N   0  0  0  0  0  0  0  0  0  0  0  0
    6.3530   -1.6150   27.1470 C   0  0  0  0  0  0  0  0  0  0  0  0
    5.8060   -0.4520   26.6790 C   0  0  0  0  0  0  0  0  0  0  0  0
    5.7860    0.7410   27.4190 C   0  0  0  0  0  0  0  0  0  0  0  0
    6.3140    0.8700   28.6910 C   0  0  0  0  0  0  0  0  0  0  0  0
    6.2300    2.0740   29.3150 N   0  0  0  0  0  0  0  0  0  0  0  0
    5.2490    2.2480   30.2300 C   0  0  0  0  0  0  0  0  0  0  0  0
    4.7820    3.6980   30.3760 C   0  0  0  0  0  0  0  0  0  0  0  0
    5.8200    4.5040   30.1670 N   0  0  0  0  0  0  0  0  0  0  0  0
    5.9490    5.4840   31.0830 C   0  0  0  0  0  0  0  0  0  0  0  0
    4.9000    6.3750   31.2100 C   0  0  0  0  0  0  0  0  0  0  0  0
    3.8110    5.9570   32.1290 C   0  0  0  0  0  0  0  0  0  0  0  0
    7.1390    4.0090   29.8680 C   0  0  0  0  0  0  0  0  0  0  0  0
    6.8910    3.1440   28.8220 C   0  0  0  0  0  0  0  0  0  0  0  0
    6.8860   -0.2390   29.2390 C   0  0  0  0  0  0  0  0  0  0  0  0
    7.5510   -0.0680   30.8570 Cl  0  0  0  0  0  0  0  0  0  0  0  0
    6.9520   -1.5610   28.5160 C   0  0  0  0  0  0  0  0  0  0  0  0
    5.8450   -4.9620   23.6310 C   0  0  0  0  0  0  0  0  0  0  0  0
    6.5380   -5.4440   22.4050 C   0  0  0  0  0  0  0  0  0  0  0  0
  1  2  1  0
  2  3  2  0
  2  4  1  0
  4  5  1  0
  5  6  1  0
  6  7  1  0
  7  8  1  0
  8  9  2  0
  8 10  1  0
 10 11  1  0
 11 12  2  0
 12 13  1  0
 13 14  2  0
 14 15  1  0
 15 16  1  0
 16 17  1  0
 17 18  1  0
 18 19  1  0
 19 20  1  0
 20 21  1  0
 18 22  1  0
 15 23  1  0
 22 23  1  0
 14 24  1  0
 24 25  1  0
 11 26  1  0
 24 26  2  0
  7 27  1  0
  4 28  1  0
 27 28  1  0
M  END
