piperidine-amides-23583-covalent
     RDKit          3D

 24 26  0  0  0  0  0  0  0  0999 V2000
    7.0790   -3.3600   19.3820 C   0  0  0  0  0  0  0  0  0  0  0  0
    6.4370   -4.2440   20.3630 C   0  0  0  0  0  0  0  0  0  0  0  0
    5.3900   -4.8320   19.9840 O   0  0  0  0  0  0  0  0  0  0  0  0
    7.0090   -4.4770   21.6440 N   0  0  0  0  0  0  0  0  0  0  0  0
    6.6180   -5.5980   22.3940 C   0  0  0  0  0  0  0  0  0  0  0  0
    6.4220   -5.2180   23.7820 C   0  0  0  0  0  0  0  0  0  0  0  0
    6.0200   -3.8050   23.9460 C   0  0  0  0  0  0  0  0  0  0  0  0
    5.7300   -3.4250   25.3710 C   0  0  0  0  0  0  0  0  0  0  0  0
    4.7260   -2.7250   25.5900 O   0  0  0  0  0  0  0  0  0  0  0  0
    6.5160   -3.8230   26.4700 N   0  0  0  0  0  0  0  0  0  0  0  0
    6.9860   -5.0570   26.7500 C   0  0  0  0  0  0  0  0  0  0  0  0
    6.8800   -5.1360   28.1810 C   0  0  0  0  0  0  0  0  0  0  0  0
    5.4610   -4.5150   28.5120 C   0  0  1  0  0  0  0  0  0  0  0  0
    5.3630   -4.4820   29.8740 O   0  0  0  0  0  0  0  0  0  0  0  0
    4.4980   -5.4900   30.2800 C   0  0  0  0  0  0  0  0  0  0  0  0
    4.6570   -6.7960   29.5080 C   0  0  0  0  0  0  0  0  0  0  0  0
    3.7020   -7.8560   29.9860 C   0  0  0  0  0  0  0  0  0  0  0  0
    2.7780   -7.4120   31.1410 C   0  0  0  0  0  0  0  0  0  0  0  0
    1.7860   -8.4010   31.6990 C   0  0  0  0  0  0  0  0  0  0  0  0
    2.7950   -6.1230   31.7210 N   0  0  0  0  0  0  0  0  0  0  0  0
    3.6330   -5.2150   31.2870 C   0  0  0  0  0  0  0  0  0  0  0  0
    6.0910   -3.3220   27.7520 C   0  0  0  0  0  0  0  0  0  0  0  0
    6.9020   -2.8060   23.2390 C   0  0  0  0  0  0  0  0  0  0  0  0
    7.7760   -3.4820   22.3740 C   0  0  0  0  0  0  0  0  0  0  0  0
  1  2  1  0
  2  3  2  0
  2  4  1  0
  4  5  1  0
  5  6  1  0
  6  7  1  0
  7  8  1  0
  8  9  2  0
  8 10  1  0
 10 11  1  0
 11 12  1  0
 12 13  1  0
 13 14  1  1
 14 15  1  0
 15 16  2  0
 16 17  1  0
 17 18  2  0
 18 19  1  0
 18 20  1  0
 15 21  1  0
 20 21  2  0
 10 22  1  0
 13 22  1  0
  7 23  1  0
  4 24  1  0
 23 24  1  0
M  END
