piperidine-amides-2479-covalent
     RDKit          3D

 26 29  0  0  0  0  0  0  0  0999 V2000
    7.0180   -3.3200   19.3700 C   0  0  0  0  0  0  0  0  0  0  0  0
    6.3580   -4.1790   20.3910 C   0  0  0  0  0  0  0  0  0  0  0  0
    5.4160   -4.8680   19.9900 O   0  0  0  0  0  0  0  0  0  0  0  0
    6.8190   -4.2210   21.7190 N   0  0  0  0  0  0  0  0  0  0  0  0
    7.6960   -3.2020   22.2730 C   0  0  0  0  0  0  0  0  0  0  0  0
    7.4010   -3.0420   23.7370 C   0  0  0  0  0  0  0  0  0  0  0  0
    6.0580   -3.7050   23.9930 C   0  0  0  0  0  0  0  0  0  0  0  0
    5.5360   -3.5380   25.3810 C   0  0  0  0  0  0  0  0  0  0  0  0
    4.4280   -4.0290   25.6050 O   0  0  0  0  0  0  0  0  0  0  0  0
    6.1990   -2.8580   26.4510 N   0  0  0  0  0  0  0  0  0  0  0  0
    5.5180   -1.7160   27.0990 C   0  0  1  0  0  0  0  0  0  0  0  0
    4.0690   -2.0020   26.7390 C   0  0  0  0  0  0  0  0  0  0  0  0
    3.5350   -3.1810   27.2260 O   0  0  0  0  0  0  0  0  0  0  0  0
    3.3400   -1.1200   25.9970 O   0  0  0  0  0  0  0  0  0  0  0  0
    1.9980   -1.0520   26.2610 C   0  0  0  0  0  0  0  0  0  0  0  0
    5.6270   -2.0010   28.6590 C   0  0  1  0  0  0  0  0  0  0  0  0
    6.8920   -1.9990   28.9270 C   0  0  0  0  0  0  0  0  0  0  0  0
    7.5520   -0.9530   28.1820 C   0  0  2  0  0  0  0  0  0  0  0  0
    6.9420    0.2370   28.9380 C   0  0  0  0  0  0  0  0  0  0  0  0
    5.4310    0.2610   28.7980 C   0  0  2  0  0  0  0  0  0  0  0  0
    5.0930   -1.0030   29.3960 C   0  0  0  0  0  0  0  0  0  0  0  0
    4.8290    0.0450   27.4400 C   0  0  0  0  0  0  0  0  0  0  0  0
    5.9670   -0.2890   26.5250 C   0  0  1  0  0  0  0  0  0  0  0  0
    6.9700   -1.2840   26.8220 C   0  0  0  0  0  0  0  0  0  0  0  0
    6.1190   -5.2070   23.7140 C   0  0  0  0  0  0  0  0  0  0  0  0
    6.7040   -5.4530   22.4840 C   0  0  0  0  0  0  0  0  0  0  0  0
  1  2  1  0
  2  3  2  0
  2  4  1  0
  4  5  1  0
  5  6  1  0
  6  7  1  0
  7  8  1  0
  8  9  2  0
  8 10  1  0
 11 10  1  6
 11 12  1  0
 12 13  2  0
 12 14  1  0
 14 15  1  0
 11 16  1  0
 16 17  1  1
 18 17  1  1
 18 19  1  0
 20 19  1  6
 16 21  1  0
 20 21  1  0
 20 22  1  0
 11 23  1  0
 23 22  1  1
 18 24  1  0
 23 24  1  0
  7 25  1  0
  4 26  1  0
 25 26  1  0
M  END
