piperidine-amides-27774-covalent
     RDKit          3D

 26 28  0  0  0  0  0  0  0  0999 V2000
    7.0380   -3.3720   19.3510 C   0  0  0  0  0  0  0  0  0  0  0  0
    6.4070   -4.2350   20.3720 C   0  0  0  0  0  0  0  0  0  0  0  0
    5.3980   -4.8670   19.9920 O   0  0  0  0  0  0  0  0  0  0  0  0
    6.9470   -4.3680   21.6680 N   0  0  0  0  0  0  0  0  0  0  0  0
    6.5600   -5.4390   22.5200 C   0  0  0  0  0  0  0  0  0  0  0  0
    6.0060   -5.0290   23.8280 C   0  0  0  0  0  0  0  0  0  0  0  0
    6.3560   -3.6790   24.3580 C   0  0  0  0  0  0  0  0  0  0  0  0
    5.2330   -3.1920   25.2290 C   0  0  0  0  0  0  0  0  0  0  0  0
    4.2670   -2.6860   24.6490 O   0  0  0  0  0  0  0  0  0  0  0  0
    5.2140   -3.2890   26.6470 N   0  0  0  0  0  0  0  0  0  0  0  0
    4.0140   -3.7370   27.3440 C   0  0  0  0  0  0  0  0  0  0  0  0
    4.3980   -4.1370   28.7060 C   0  0  0  0  0  0  0  0  0  0  0  0
    5.3980   -3.3820   29.3120 N   0  0  0  0  0  0  0  0  0  0  0  0
    4.9640   -2.1650   29.9660 C   0  0  0  0  0  0  0  0  0  0  0  0
    4.0600   -2.4600   30.9790 C   0  0  0  0  0  0  0  0  0  0  0  0
    3.6700   -1.4590   31.8150 C   0  0  0  0  0  0  0  0  0  0  0  0
    2.8110   -1.7350   32.7830 C   0  0  0  0  0  0  0  0  0  0  0  0
    2.3580   -2.9940   32.9020 C   0  0  0  0  0  0  0  0  0  0  0  0
    1.4840   -3.5370   33.7980 C   0  0  0  0  0  0  0  0  0  0  0  0
    2.1670   -4.3120   34.7370 C   0  0  0  0  0  0  0  0  0  0  0  0
    2.6220   -4.2840   32.1180 C   0  0  0  0  0  0  0  0  0  0  0  0
    3.6230   -3.7820   31.0540 C   0  0  0  0  0  0  0  0  0  0  0  0
    6.6410   -3.4880   28.6150 C   0  0  0  0  0  0  0  0  0  0  0  0
    6.4080   -3.7360   27.2340 C   0  0  0  0  0  0  0  0  0  0  0  0
    6.8720   -2.7270   23.3630 C   0  0  0  0  0  0  0  0  0  0  0  0
    7.7370   -3.3360   22.3180 C   0  0  0  0  0  0  0  0  0  0  0  0
  1  2  1  0
  2  3  2  0
  2  4  1  0
  4  5  1  0
  5  6  1  0
  6  7  1  0
  7  8  1  0
  8  9  2  0
  8 10  1  0
 10 11  1  0
 11 12  1  0
 12 13  1  0
 13 14  1  0
 14 15  1  0
 15 16  2  0
 16 17  1  0
 17 18  2  0
 18 19  1  0
 19 20  1  0
 18 21  1  0
 15 22  1  0
 21 22  2  0
 13 23  1  0
 10 24  1  0
 23 24  1  0
  7 25  1  0
  4 26  1  0
 25 26  1  0
M  END
