piperidine-amides-27985-covalent
     RDKit          3D

 26 28  0  0  0  0  0  0  0  0999 V2000
    7.0660   -3.2880   19.1840 C   0  0  0  0  0  0  0  0  0  0  0  0
    6.3230   -4.0430   20.2210 C   0  0  0  0  0  0  0  0  0  0  0  0
    5.2430   -4.5490   19.8740 O   0  0  0  0  0  0  0  0  0  0  0  0
    6.8440   -4.2190   21.5080 N   0  0  0  0  0  0  0  0  0  0  0  0
    6.5410   -5.3930   22.2630 C   0  0  0  0  0  0  0  0  0  0  0  0
    5.8800   -5.1050   23.5360 C   0  0  0  0  0  0  0  0  0  0  0  0
    6.0000   -3.6940   23.9480 C   0  0  0  0  0  0  0  0  0  0  0  0
    5.5350   -3.5240   25.3460 C   0  0  0  0  0  0  0  0  0  0  0  0
    4.3180   -3.3370   25.5230 O   0  0  0  0  0  0  0  0  0  0  0  0
    6.4060   -3.5800   26.4560 N   0  0  0  0  0  0  0  0  0  0  0  0
    6.9140   -4.9010   26.9140 C   0  0  0  0  0  0  0  0  0  0  0  0
    6.1990   -2.5960   27.4660 C   0  0  0  0  0  0  0  0  0  0  0  0
    6.3450   -1.1740   27.1890 C   0  0  2  0  0  0  0  0  0  0  0  0
    6.6360   -0.3820   28.2710 C   0  0  0  0  0  0  0  0  0  0  0  0
    5.6420   -0.1740   29.1830 C   0  0  0  0  0  0  0  0  0  0  0  0
    4.4000   -0.1870   28.6500 C   0  0  0  0  0  0  0  0  0  0  0  0
    4.5420    0.0870   27.2710 O   0  0  0  0  0  0  0  0  0  0  0  0
    5.3610   -0.6510   26.3840 C   0  0  1  0  0  0  0  0  0  0  0  0
    5.6880    0.1180   25.3050 C   0  0  0  0  0  0  0  0  0  0  0  0
    5.4890   -0.4020   24.0230 C   0  0  0  0  0  0  0  0  0  0  0  0
    5.8030    0.3290   22.7580 C   0  0  0  0  0  0  0  0  0  0  0  0
    6.3770    1.7280   22.9270 C   0  0  0  0  0  0  0  0  0  0  0  0
    6.5260    2.1330   24.3620 C   0  0  0  0  0  0  0  0  0  0  0  0
    6.1960    1.3650   25.4820 C   0  0  0  0  0  0  0  0  0  0  0  0
    7.2830   -3.1160   23.5960 C   0  0  0  0  0  0  0  0  0  0  0  0
    7.6340   -3.1830   22.1560 C   0  0  0  0  0  0  0  0  0  0  0  0
  1  2  1  0
  2  3  2  0
  2  4  1  0
  4  5  1  0
  5  6  1  0
  6  7  1  0
  7  8  1  0
  8  9  2  0
  8 10  1  0
 10 11  1  0
 10 12  1  0
 13 12  1  1
 13 14  1  0
 14 15  1  0
 15 16  1  0
 16 17  1  0
 13 18  1  0
 17 18  1  0
 18 19  1  6
 19 20  2  0
 20 21  1  0
 21 22  2  0
 22 23  1  0
 19 24  1  0
 23 24  2  0
  7 25  1  0
  4 26  1  0
 25 26  1  0
M  END
