piperidine-amides-24626-covalent
     RDKit          3D

 23 25  0  0  0  0  0  0  0  0999 V2000
    7.0020   -3.3550   19.3990 C   0  0  0  0  0  0  0  0  0  0  0  0
    6.3710   -4.2330   20.4050 C   0  0  0  0  0  0  0  0  0  0  0  0
    5.4460   -4.9900   20.0240 O   0  0  0  0  0  0  0  0  0  0  0  0
    6.7990   -4.2610   21.7600 N   0  0  0  0  0  0  0  0  0  0  0  0
    6.6070   -5.4780   22.5270 C   0  0  0  0  0  0  0  0  0  0  0  0
    5.8420   -5.1290   23.8260 C   0  0  0  0  0  0  0  0  0  0  0  0
    6.3740   -3.7900   24.3190 C   0  0  0  0  0  0  0  0  0  0  0  0
    6.0840   -3.4920   25.7910 C   0  0  0  0  0  0  0  0  0  0  0  0
    5.3360   -2.4990   25.9440 O   0  0  0  0  0  0  0  0  0  0  0  0
    6.5090   -4.2490   27.0070 N   0  0  0  0  0  0  0  0  0  0  0  0
    7.7780   -4.0350   27.7070 C   0  0  0  0  0  0  0  0  0  0  0  0
    7.8890   -2.6020   28.1060 N   0  0  0  0  0  0  0  0  0  0  0  0
    6.3600   -2.1640   28.5570 S   0  0  0  0  0  0  0  0  0  0  0  0
    6.2860   -1.8280   30.0250 O   0  0  0  0  0  0  0  0  0  0  0  0
    5.8130   -1.0720   27.6820 O   0  0  0  0  0  0  0  0  0  0  0  0
    5.6160   -3.6720   28.2050 C   0  0  0  0  0  0  0  0  0  0  0  0
    6.8220   -3.5820   27.3940 C   0  0  0  0  0  0  0  0  0  0  0  0
    7.6700   -4.2450   26.3840 C   0  0  0  0  0  0  0  0  0  0  0  0
    6.9970   -5.4280   26.1270 C   0  0  0  0  0  0  0  0  0  0  0  0
    5.8920   -5.8750   26.6480 C   0  0  0  0  0  0  0  0  0  0  0  0
    5.3450   -4.9820   27.6070 C   0  0  0  0  0  0  0  0  0  0  0  0
    7.7420   -3.5040   23.8000 C   0  0  0  0  0  0  0  0  0  0  0  0
    7.7000   -3.2450   22.3150 C   0  0  0  0  0  0  0  0  0  0  0  0
  1  2  1  0
  2  3  2  0
  2  4  1  0
  4  5  1  0
  5  6  1  0
  6  7  1  0
  7  8  1  0
  8  9  2  0
  8 10  1  0
 10 11  1  0
 11 12  1  0
 13 12  1  0
 13 14  2  0
 13 15  2  0
 13 16  1  0
 16 17  2  0
 17 18  1  0
 18 19  2  0
 19 20  1  0
 10 21  1  0
 16 21  1  0
 20 21  2  0
  7 22  1  0
  4 23  1  0
 22 23  1  0
M  END
