piperidine-amides-2696-covalent
     RDKit          3D

 25 27  0  0  0  0  0  0  0  0999 V2000
    7.0390   -3.3450   19.2990 C   0  0  0  0  0  0  0  0  0  0  0  0
    6.3630   -4.1680   20.2980 C   0  0  0  0  0  0  0  0  0  0  0  0
    5.3620   -4.8050   19.9740 O   0  0  0  0  0  0  0  0  0  0  0  0
    6.8800   -4.2820   21.6380 N   0  0  0  0  0  0  0  0  0  0  0  0
    6.6130   -5.4700   22.4140 C   0  0  0  0  0  0  0  0  0  0  0  0
    6.1540   -5.1180   23.8090 C   0  0  0  0  0  0  0  0  0  0  0  0
    6.1440   -3.6020   23.9680 C   0  0  0  0  0  0  0  0  0  0  0  0
    5.7730   -3.1820   25.3450 C   0  0  0  0  0  0  0  0  0  0  0  0
    4.6710   -3.4720   25.8470 O   0  0  0  0  0  0  0  0  0  0  0  0
    6.6990   -2.4180   26.1000 N   0  0  0  0  0  0  0  0  0  0  0  0
    6.2040   -1.6230   27.2050 C   0  0  0  0  0  0  0  0  0  0  0  0
    5.7570   -0.3030   26.6380 C   0  0  0  0  0  0  0  0  0  0  0  0
    5.6720    0.7760   27.5110 C   0  0  0  0  0  0  0  0  0  0  0  0
    5.5940    0.3850   28.9010 N   0  0  0  0  0  0  0  0  0  0  0  0
    4.8050    1.2310   29.7480 C   0  0  0  0  0  0  0  0  0  0  0  0
    4.1000    0.5380   30.7160 C   0  0  0  0  0  0  0  0  0  0  0  0
    4.6560   -0.3900   31.6950 C   0  0  0  0  0  0  0  0  0  0  0  0
    3.9340   -1.0690   32.6450 C   0  0  0  0  0  0  0  0  0  0  0  0
    2.5750   -0.8890   32.7170 C   0  0  0  0  0  0  0  0  0  0  0  0
    1.9590   -0.0550   31.8630 N   0  0  0  0  0  0  0  0  0  0  0  0
    2.6130    0.6440   30.9020 C   0  0  0  0  0  0  0  0  0  0  0  0
    6.5660   -0.5140   29.1940 C   0  0  0  0  0  0  0  0  0  0  0  0
    7.0650   -1.4120   28.2890 C   0  0  0  0  0  0  0  0  0  0  0  0
    7.4730   -3.0260   23.6050 C   0  0  0  0  0  0  0  0  0  0  0  0
    7.6850   -3.2200   22.1500 C   0  0  0  0  0  0  0  0  0  0  0  0
  1  2  1  0
  2  3  2  0
  2  4  1  0
  4  5  1  0
  5  6  1  0
  6  7  1  0
  7  8  1  0
  8  9  2  0
  8 10  1  0
 10 11  1  0
 11 12  1  0
 12 13  1  0
 13 14  1  0
 14 15  1  0
 15 16  1  0
 16 17  2  0
 17 18  1  0
 18 19  2  0
 19 20  1  0
 16 21  1  0
 20 21  2  0
 14 22  1  0
 11 23  1  0
 22 23  1  0
  7 24  1  0
  4 25  1  0
 24 25  1  0
M  END
