piperidine-amides-24060-covalent
     RDKit          3D

 24 26  0  0  0  0  0  0  0  0999 V2000
    7.1010   -3.3950   19.4540 C   0  0  0  0  0  0  0  0  0  0  0  0
    6.4330   -4.2540   20.4420 C   0  0  0  0  0  0  0  0  0  0  0  0
    5.4430   -4.9070   20.0130 O   0  0  0  0  0  0  0  0  0  0  0  0
    6.9140   -4.3870   21.7850 N   0  0  0  0  0  0  0  0  0  0  0  0
    6.2950   -5.3290   22.6280 C   0  0  0  0  0  0  0  0  0  0  0  0
    6.0390   -4.8840   24.0180 C   0  0  0  0  0  0  0  0  0  0  0  0
    6.4090   -3.4990   24.4900 C   0  0  0  0  0  0  0  0  0  0  0  0
    5.2550   -2.8560   25.2460 C   0  0  0  0  0  0  0  0  0  0  0  0
    4.3680   -2.3400   24.5620 O   0  0  0  0  0  0  0  0  0  0  0  0
    5.0390   -2.7940   26.6670 N   0  0  0  0  0  0  0  0  0  0  0  0
    3.8610   -3.3250   27.2840 C   0  0  0  0  0  0  0  0  0  0  0  0
    3.8970   -4.2190   28.4560 C   0  0  0  0  0  0  0  0  0  0  0  0
    5.3480   -4.5030   28.6450 C   0  0  0  0  0  0  0  0  0  0  0  0
    5.9990   -5.6640   29.0730 N   0  0  0  0  0  0  0  0  0  0  0  0
    7.3180   -5.0710   28.8850 C   0  0  0  0  0  0  0  0  0  0  0  0
    8.4270   -6.0110   29.0610 C   0  0  0  0  0  0  0  0  0  0  0  0
    7.7680   -7.1890   28.7130 O   0  0  0  0  0  0  0  0  0  0  0  0
   10.4290   -5.8570   29.0770 O   0  0  0  0  0  0  0  0  0  0  0  0
   12.0940   -5.2020   29.5660 C   0  0  0  0  0  0  0  0  0  0  0  0
    7.2910   -3.8180   28.5120 N   0  0  0  0  0  0  0  0  0  0  0  0
    6.0760   -3.4010   28.2810 C   0  0  0  0  0  0  0  0  0  0  0  0
    5.7270   -2.1210   27.7240 C   0  0  0  0  0  0  0  0  0  0  0  0
    6.9070   -2.5830   23.3800 C   0  0  0  0  0  0  0  0  0  0  0  0
    7.7410   -3.3730   22.3640 C   0  0  0  0  0  0  0  0  0  0  0  0
  1  2  1  0
  2  3  2  0
  2  4  1  0
  4  5  1  0
  5  6  1  0
  6  7  1  0
  7  8  1  0
  8  9  2  0
  8 10  1  0
 10 11  1  0
 11 12  1  0
 12 13  1  0
 13 14  1  0
 14 15  1  0
 15 16  1  0
 16 17  2  0
 16 18  1  0
 18 19  1  0
 15 20  2  0
 13 21  2  0
 20 21  1  0
 10 22  1  0
 21 22  1  0
  7 23  1  0
  4 24  1  0
 23 24  1  0
M  END
