piperidine-amides-30879-covalent
     RDKit          3D

 28 31  0  0  0  0  0  0  0  0999 V2000
    7.0570   -3.3570   19.3750 C   0  0  0  0  0  0  0  0  0  0  0  0
    6.4020   -4.2280   20.3510 C   0  0  0  0  0  0  0  0  0  0  0  0
    5.3870   -4.8520   19.9900 O   0  0  0  0  0  0  0  0  0  0  0  0
    6.9100   -4.4310   21.6540 N   0  0  0  0  0  0  0  0  0  0  0  0
    6.5630   -5.5850   22.4320 C   0  0  0  0  0  0  0  0  0  0  0  0
    5.6620   -5.0630   23.5240 C   0  0  0  0  0  0  0  0  0  0  0  0
    6.2350   -3.8970   24.2990 C   0  0  0  0  0  0  0  0  0  0  0  0
    5.2470   -3.3760   25.2980 C   0  0  0  0  0  0  0  0  0  0  0  0
    4.2740   -2.6960   24.8820 O   0  0  0  0  0  0  0  0  0  0  0  0
    5.2930   -3.5690   26.7160 N   0  0  0  0  0  0  0  0  0  0  0  0
    6.5220   -3.2510   27.3430 C   0  0  0  0  0  0  0  0  0  0  0  0
    6.7620   -4.3620   28.2980 C   0  0  0  0  0  0  0  0  0  0  0  0
    5.7130   -4.4530   29.2710 C   0  0  0  0  0  0  0  0  0  0  0  0
    4.3570   -4.2540   28.6550 C   0  0  2  0  0  0  0  0  0  0  0  0
    3.7770   -5.6040   28.2740 C   0  0  0  0  0  0  0  0  0  0  0  0
    4.5200   -6.5130   27.3950 N   0  0  0  0  0  0  0  0  0  0  0  0
    3.7020   -7.5620   27.2940 N   0  0  0  0  0  0  0  0  0  0  0  0
    2.6050   -7.3380   28.0110 C   0  0  0  0  0  0  0  0  0  0  0  0
    1.6920   -8.3570   27.9810 C   0  0  0  0  0  0  0  0  0  0  0  0
    1.4260   -8.9880   26.6900 C   0  0  0  0  0  0  0  0  0  0  0  0
    0.4520  -10.1370   26.4740 C   0  0  0  0  0  0  0  0  0  0  0  0
   -0.1930  -10.5380   27.7400 C   0  0  0  0  0  0  0  0  0  0  0  0
    0.3620   -9.6480   28.7670 C   0  0  0  0  0  0  0  0  0  0  0  0
    1.0420   -8.7770   29.1830 C   0  0  0  0  0  0  0  0  0  0  0  0
    2.6220   -6.1530   28.6180 N   0  0  0  0  0  0  0  0  0  0  0  0
    4.2550   -3.3130   27.6380 C   0  0  0  0  0  0  0  0  0  0  0  0
    6.7860   -2.7730   23.4210 C   0  0  0  0  0  0  0  0  0  0  0  0
    7.6420   -3.3970   22.3180 C   0  0  0  0  0  0  0  0  0  0  0  0
  1  2  1  0
  2  3  2  0
  2  4  1  0
  4  5  1  0
  5  6  1  0
  6  7  1  0
  7  8  1  0
  8  9  2  0
  8 10  1  0
 10 11  1  0
 11 12  1  0
 12 13  1  0
 13 14  1  0
 14 15  1  6
 15 16  2  0
 16 17  1  0
 17 18  1  0
 18 19  1  0
 19 20  2  0
 20 21  1  0
 21 22  2  0
 22 23  1  0
 19 24  1  0
 23 24  2  0
 15 25  1  0
 18 25  2  0
 10 26  1  0
 14 26  1  0
  7 27  1  0
  4 28  1  0
 27 28  1  0
M  END
