piperidine-amides-13467-covalent
     RDKit          3D

 19 20  0  0  0  0  0  0  0  0999 V2000
    7.0890   -3.3470   19.3060 C   0  0  0  0  0  0  0  0  0  0  0  0
    6.3480   -4.1570   20.3080 C   0  0  0  0  0  0  0  0  0  0  0  0
    5.3340   -4.7810   19.9580 O   0  0  0  0  0  0  0  0  0  0  0  0
    6.8530   -4.2240   21.6180 N   0  0  0  0  0  0  0  0  0  0  0  0
    7.7470   -3.2010   22.1260 C   0  0  0  0  0  0  0  0  0  0  0  0
    7.5470   -3.1410   23.6270 C   0  0  0  0  0  0  0  0  0  0  0  0
    6.1550   -3.5980   23.8500 C   0  0  0  0  0  0  0  0  0  0  0  0
    5.6660   -3.2280   25.1800 C   0  0  0  0  0  0  0  0  0  0  0  0
    4.4960   -3.5160   25.4590 O   0  0  0  0  0  0  0  0  0  0  0  0
    6.5410   -2.5680   26.0300 N   0  0  0  0  0  0  0  0  0  0  0  0
    6.3520   -1.2960   26.6170 C   0  0  0  0  0  0  0  0  0  0  0  0
    6.3060   -0.0900   25.8830 C   0  0  0  0  0  0  0  0  0  0  0  0
    6.1040    0.6800   27.1520 N   0  0  0  0  0  0  0  0  0  0  0  0
    5.9740    2.0670   27.1220 C   0  0  0  0  0  0  0  0  0  0  0  0
    6.0580   -0.0090   28.2560 N   0  0  0  0  0  0  0  0  0  0  0  0
    6.2030   -1.2300   27.9720 C   0  0  0  0  0  0  0  0  0  0  0  0
    6.2150   -2.7430   29.0500 Br  0  0  0  0  0  0  0  0  0  0  0  0
    6.0030   -5.0940   23.6880 C   0  0  0  0  0  0  0  0  0  0  0  0
    6.7000   -5.4610   22.3710 C   0  0  0  0  0  0  0  0  0  0  0  0
  1  2  1  0
  2  3  2  0
  2  4  1  0
  4  5  1  0
  5  6  1  0
  6  7  1  0
  7  8  1  0
  8  9  2  0
  8 10  1  0
 10 11  1  0
 11 12  2  0
 12 13  1  0
 13 14  1  0
 13 15  1  0
 11 16  1  0
 15 16  2  0
 16 17  1  0
  7 18  1  0
  4 19  1  0
 18 19  1  0
M  END
