piperidine-amides-15121-covalent
     RDKit          3D

 19 20  0  0  0  0  0  0  0  0999 V2000
    7.0620   -3.3420   19.3310 C   0  0  0  0  0  0  0  0  0  0  0  0
    6.4000   -4.1930   20.3170 C   0  0  0  0  0  0  0  0  0  0  0  0
    5.3770   -4.8130   19.9710 O   0  0  0  0  0  0  0  0  0  0  0  0
    6.9530   -4.3360   21.6140 N   0  0  0  0  0  0  0  0  0  0  0  0
    7.7170   -3.2500   22.1700 C   0  0  0  0  0  0  0  0  0  0  0  0
    6.9410   -2.6210   23.2710 C   0  0  0  0  0  0  0  0  0  0  0  0
    6.5880   -3.7490   24.1990 C   0  0  0  0  0  0  0  0  0  0  0  0
    5.8230   -3.1930   25.3590 C   0  0  0  0  0  0  0  0  0  0  0  0
    4.5940   -3.2510   25.3030 O   0  0  0  0  0  0  0  0  0  0  0  0
    6.5720   -2.6550   26.4020 N   0  0  0  0  0  0  0  0  0  0  0  0
    6.0930   -1.6760   27.3200 C   0  0  1  0  0  0  0  0  0  0  0  0
    6.9740   -1.4360   28.3720 C   0  0  0  0  0  0  0  0  0  0  0  0
    6.5930   -0.4730   29.2610 C   0  0  0  0  0  0  0  0  0  0  0  0
    6.5030    0.9720   28.3420 S   0  0  0  0  0  0  0  0  0  0  0  0
    5.2530    0.6030   27.1730 C   0  0  2  0  0  0  0  0  0  0  0  0
    3.7970    0.5810   27.5200 C   0  0  0  0  0  0  0  0  0  0  0  0
    5.7980   -0.4910   26.5420 C   0  0  0  0  0  0  0  0  0  0  0  0
    5.7580   -4.8290   23.5900 C   0  0  0  0  0  0  0  0  0  0  0  0
    6.4510   -5.4150   22.3910 C   0  0  0  0  0  0  0  0  0  0  0  0
  1  2  1  0
  2  3  2  0
  2  4  1  0
  4  5  1  0
  5  6  1  0
  6  7  1  0
  7  8  1  0
  8  9  2  0
  8 10  1  0
 11 10  1  6
 11 12  1  0
 12 13  1  0
 13 14  1  0
 14 15  1  0
 15 16  1  1
 11 17  1  0
 15 17  1  0
  7 18  1  0
  4 19  1  0
 18 19  1  0
M  END
