piperidine-amides-19051-covalent
     RDKit          3D

 21 21  0  0  0  0  0  0  0  0999 V2000
    7.1670   -3.2830   19.3290 C   0  0  0  0  0  0  0  0  0  0  0  0
    6.4250   -4.0490   20.3040 C   0  0  0  0  0  0  0  0  0  0  0  0
    5.3750   -4.6680   19.9320 O   0  0  0  0  0  0  0  0  0  0  0  0
    6.8650   -4.1520   21.6330 N   0  0  0  0  0  0  0  0  0  0  0  0
    6.5910   -5.4150   22.3430 C   0  0  0  0  0  0  0  0  0  0  0  0
    5.7260   -4.8410   23.5220 C   0  0  0  0  0  0  0  0  0  0  0  0
    6.5910   -3.8310   24.2640 C   0  0  0  0  0  0  0  0  0  0  0  0
    5.8840   -3.5840   25.6660 C   0  0  0  0  0  0  0  0  0  0  0  0
    4.7140   -3.9470   25.6130 O   0  0  0  0  0  0  0  0  0  0  0  0
    6.7030   -3.0470   26.4930 N   0  0  0  0  0  0  0  0  0  0  0  0
    7.3500   -2.0820   27.2110 C   0  0  0  0  0  0  0  0  0  0  0  0
    6.9280   -1.0400   28.0070 C   0  0  0  0  0  0  0  0  0  0  0  0
    7.8520   -0.6940   29.0090 O   0  0  0  0  0  0  0  0  0  0  0  0
    7.3790   -0.6910   30.2990 C   0  0  0  0  0  0  0  0  0  0  0  0
    7.3400   -4.0140   27.4450 C   0  0  2  0  0  0  0  0  0  0  0  0
    8.3030   -5.0550   26.8370 C   0  0  0  0  0  0  0  0  0  0  0  0
    6.7660   -5.4430   27.3180 C   0  0  0  0  0  0  0  0  0  0  0  0
    5.8840   -5.6670   28.3940 O   0  0  0  0  0  0  0  0  0  0  0  0
    5.9480   -6.7400   29.2550 C   0  0  0  0  0  0  0  0  0  0  0  0
    7.0690   -2.6860   23.5290 C   0  0  0  0  0  0  0  0  0  0  0  0
    7.7560   -3.2530   22.2550 C   0  0  0  0  0  0  0  0  0  0  0  0
  1  2  1  0
  2  3  2  0
  2  4  1  0
  4  5  1  0
  5  6  1  0
  6  7  1  0
  7  8  1  0
  8  9  2  0
  8 10  1  0
 10 11  1  0
 11 12  1  0
 12 13  1  0
 13 14  1  0
 10 15  1  0
 15 16  1  6
 15 17  1  0
 17 18  1  0
 18 19  1  0
  7 20  1  0
  4 21  1  0
 20 21  1  0
M  END
