piperidine-amides-1809-covalent
     RDKit          3D

 19 21  0  0  0  0  0  0  0  0999 V2000
    7.0920   -3.2890   19.2950 C   0  0  0  0  0  0  0  0  0  0  0  0
    6.3890   -4.1120   20.3100 C   0  0  0  0  0  0  0  0  0  0  0  0
    5.3740   -4.7060   19.9490 O   0  0  0  0  0  0  0  0  0  0  0  0
    6.9160   -4.2150   21.6040 N   0  0  0  0  0  0  0  0  0  0  0  0
    7.7200   -3.1540   22.1760 C   0  0  0  0  0  0  0  0  0  0  0  0
    7.3570   -2.9050   23.6140 C   0  0  0  0  0  0  0  0  0  0  0  0
    6.0070   -3.5580   23.9120 C   0  0  0  0  0  0  0  0  0  0  0  0
    5.5960   -3.1930   25.2820 C   0  0  0  0  0  0  0  0  0  0  0  0
    4.3990   -2.9780   25.4990 O   0  0  0  0  0  0  0  0  0  0  0  0
    6.5210   -3.0760   26.3380 N   0  0  0  0  0  0  0  0  0  0  0  0
    6.1460   -3.5470   27.6590 C   0  0  0  0  0  0  0  0  0  0  0  0
    4.7920   -4.2200   27.5560 C   0  0  1  0  0  0  0  0  0  0  0  0
    4.1990   -4.8900   28.4810 C   0  0  0  0  0  0  0  0  0  0  0  0
    3.5260   -3.8400   28.4320 C   0  0  0  0  0  0  0  0  0  0  0  0
    3.3620   -3.1370   29.5390 C   0  0  0  0  0  0  0  0  0  0  0  0
    1.9180   -2.8880   29.5170 C   0  0  0  0  0  0  0  0  0  0  0  0
    2.0270   -3.7470   28.2460 C   0  0  0  0  0  0  0  0  0  0  0  0
    6.0130   -5.0130   23.6970 C   0  0  0  0  0  0  0  0  0  0  0  0
    6.5590   -5.3840   22.3690 C   0  0  0  0  0  0  0  0  0  0  0  0
  1  2  1  0
  2  3  2  0
  2  4  1  0
  4  5  1  0
  5  6  1  0
  6  7  1  0
  7  8  1  0
  8  9  2  0
  8 10  1  0
 10 11  1  0
 12 11  1  1
 12 13  1  0
 12 14  1  0
 14 13  1  0
 14 15  1  0
 15 16  1  0
 14 17  1  0
 16 17  1  0
  7 18  1  0
  4 19  1  0
 18 19  1  0
M  END
