piperidine-amides-11977-covalent
     RDKit          3D

 26 27  0  0  0  0  0  0  0  0999 V2000
    7.0410   -3.3330   19.3650 C   0  0  0  0  0  0  0  0  0  0  0  0
    6.3490   -4.1720   20.3360 C   0  0  0  0  0  0  0  0  0  0  0  0
    5.3870   -4.8500   19.9830 O   0  0  0  0  0  0  0  0  0  0  0  0
    6.8100   -4.2440   21.7000 N   0  0  0  0  0  0  0  0  0  0  0  0
    7.6920   -3.2140   22.2040 C   0  0  0  0  0  0  0  0  0  0  0  0
    7.3880   -2.9270   23.6460 C   0  0  0  0  0  0  0  0  0  0  0  0
    6.1120   -3.6730   23.9710 C   0  0  0  0  0  0  0  0  0  0  0  0
    5.6320   -3.3220   25.3430 C   0  0  0  0  0  0  0  0  0  0  0  0
    4.4170   -3.3380   25.6420 O   0  0  0  0  0  0  0  0  0  0  0  0
    6.5680   -2.9460   26.3340 N   0  0  0  0  0  0  0  0  0  0  0  0
    6.4500   -1.6450   26.9610 C   0  0  0  0  0  0  0  0  0  0  0  0
    7.0100   -1.6570   28.3580 C   0  0  0  0  0  0  0  0  0  0  0  0
    7.0070   -0.5270   29.1510 C   0  0  0  0  0  0  0  0  0  0  0  0
    6.4660    0.6690   28.6490 C   0  0  0  0  0  0  0  0  0  0  0  0
    6.4900    1.7910   29.4980 O   0  0  0  0  0  0  0  0  0  0  0  0
    6.3350    1.6470   30.8990 C   0  0  0  0  0  0  0  0  0  0  0  0
    6.9520    2.7720   31.5930 C   0  0  0  0  0  0  0  0  0  0  0  0
    8.2640    2.8860   31.2270 F   0  0  0  0  0  0  0  0  0  0  0  0
    6.2220    3.9310   31.4200 F   0  0  0  0  0  0  0  0  0  0  0  0
    6.9350    2.4560   32.9450 F   0  0  0  0  0  0  0  0  0  0  0  0
    5.9460    0.7240   27.3850 C   0  0  0  0  0  0  0  0  0  0  0  0
    5.4080    1.8860   26.8610 C   0  0  0  0  0  0  0  0  0  0  0  0
    4.0940    1.8570   26.3570 N   0  0  0  0  0  0  0  0  0  0  0  0
    5.9310   -0.4920   26.4790 C   0  0  0  0  0  0  0  0  0  0  0  0
    6.1380   -5.1090   23.7420 C   0  0  0  0  0  0  0  0  0  0  0  0
    6.6410   -5.4390   22.4880 C   0  0  0  0  0  0  0  0  0  0  0  0
  1  2  1  0
  2  3  2  0
  2  4  1  0
  4  5  1  0
  5  6  1  0
  6  7  1  0
  7  8  1  0
  8  9  2  0
  8 10  1  0
 10 11  1  0
 11 12  2  0
 12 13  1  0
 13 14  2  0
 14 15  1  0
 15 16  1  0
 16 17  1  0
 17 18  1  0
 17 19  1  0
 17 20  1  0
 14 21  1  0
 21 22  1  0
 22 23  3  0
 11 24  1  0
 21 24  2  0
  7 25  1  0
  4 26  1  0
 25 26  1  0
M  END
