piperidine-amides-12202-covalent
     RDKit          3D

 25 27  0  0  0  0  0  0  0  0999 V2000
    7.1300   -3.3110   19.1810 C   0  0  0  0  0  0  0  0  0  0  0  0
    6.3480   -4.0280   20.1790 C   0  0  0  0  0  0  0  0  0  0  0  0
    5.2660   -4.5210   19.8760 O   0  0  0  0  0  0  0  0  0  0  0  0
    6.8870   -4.2290   21.4900 N   0  0  0  0  0  0  0  0  0  0  0  0
    7.6740   -3.1880   22.1000 C   0  0  0  0  0  0  0  0  0  0  0  0
    6.9200   -2.5950   23.2500 C   0  0  0  0  0  0  0  0  0  0  0  0
    6.5220   -3.7330   24.1640 C   0  0  0  0  0  0  0  0  0  0  0  0
    5.8330   -3.2210   25.3800 C   0  0  0  0  0  0  0  0  0  0  0  0
    4.6100   -2.9940   25.4010 O   0  0  0  0  0  0  0  0  0  0  0  0
    6.5960   -3.0060   26.5540 N   0  0  0  0  0  0  0  0  0  0  0  0
    6.7710   -1.6760   27.1180 C   0  0  0  0  0  0  0  0  0  0  0  0
    5.9370   -0.6450   26.4040 C   0  0  0  0  0  0  0  0  0  0  0  0
    6.4490    0.0980   25.3430 C   0  0  0  0  0  0  0  0  0  0  0  0
    5.6710    1.0680   24.6910 C   0  0  0  0  0  0  0  0  0  0  0  0
    4.3470    1.2900   25.1090 N   0  0  0  0  0  0  0  0  0  0  0  0
    3.8600    0.5340   26.1680 C   0  0  0  0  0  0  0  0  0  0  0  0
    2.4850    0.8810   26.4850 N   0  0  0  0  0  0  0  0  0  0  0  0
    2.4540    2.2390   26.8590 C   0  0  0  0  0  0  0  0  0  0  0  0
    1.8140    2.7180   27.9720 C   0  0  0  0  0  0  0  0  0  0  0  0
    1.4060    1.7820   28.8970 C   0  0  0  0  0  0  0  0  0  0  0  0
    1.7460    0.4450   28.6900 C   0  0  0  0  0  0  0  0  0  0  0  0
    1.6990   -0.0590   27.3070 C   0  0  0  0  0  0  0  0  0  0  0  0
    4.6310   -0.4150   26.8010 C   0  0  0  0  0  0  0  0  0  0  0  0
    5.6440   -4.7350   23.4660 C   0  0  0  0  0  0  0  0  0  0  0  0
    6.3420   -5.2800   22.2670 C   0  0  0  0  0  0  0  0  0  0  0  0
  1  2  1  0
  2  3  2  0
  2  4  1  0
  4  5  1  0
  5  6  1  0
  6  7  1  0
  7  8  1  0
  8  9  2  0
  8 10  1  0
 10 11  1  0
 11 12  1  0
 12 13  2  0
 13 14  1  0
 14 15  2  0
 15 16  1  0
 16 17  1  0
 17 18  1  0
 18 19  1  0
 19 20  1  0
 20 21  1  0
 17 22  1  0
 21 22  1  0
 12 23  1  0
 16 23  2  0
  7 24  1  0
  4 25  1  0
 24 25  1  0
M  END
