piperidine-amides-8692-covalent
     RDKit          3D

 23 24  0  0  0  0  0  0  0  0999 V2000
    7.1260   -3.3050   19.2770 C   0  0  0  0  0  0  0  0  0  0  0  0
    6.3600   -4.0600   20.2670 C   0  0  0  0  0  0  0  0  0  0  0  0
    5.2960   -4.5880   19.9030 O   0  0  0  0  0  0  0  0  0  0  0  0
    6.8630   -4.2130   21.5840 N   0  0  0  0  0  0  0  0  0  0  0  0
    7.6850   -3.1870   22.1550 C   0  0  0  0  0  0  0  0  0  0  0  0
    7.0180   -2.6410   23.3740 C   0  0  0  0  0  0  0  0  0  0  0  0
    6.5660   -3.8360   24.1790 C   0  0  0  0  0  0  0  0  0  0  0  0
    5.7830   -3.3760   25.3740 C   0  0  0  0  0  0  0  0  0  0  0  0
    4.5640   -3.2930   25.2270 O   0  0  0  0  0  0  0  0  0  0  0  0
    6.4730   -3.0670   26.5450 N   0  0  0  0  0  0  0  0  0  0  0  0
    6.2140   -3.7070   27.8000 C   0  0  0  0  0  0  0  0  0  0  0  0
    6.1090   -5.1060   27.7620 C   0  0  0  0  0  0  0  0  0  0  0  0
    4.9250   -5.7180   28.0670 C   0  0  0  0  0  0  0  0  0  0  0  0
    4.4980   -6.8090   27.3090 C   0  0  0  0  0  0  0  0  0  0  0  0
    3.2050   -7.4540   27.6640 C   0  0  0  0  0  0  0  0  0  0  0  0
    2.3440   -6.9550   28.8260 C   0  0  0  0  0  0  0  0  0  0  0  0
    1.2690   -7.5460   29.0720 O   0  0  0  0  0  0  0  0  0  0  0  0
    1.4650   -8.8550   29.4110 C   0  0  0  0  0  0  0  0  0  0  0  0
    2.7830   -5.7900   29.6480 C   0  0  0  0  0  0  0  0  0  0  0  0
    1.7350   -5.1290   31.1200 Br  0  0  0  0  0  0  0  0  0  0  0  0
    4.1450   -5.2520   29.1330 C   0  0  0  0  0  0  0  0  0  0  0  0
    5.6330   -4.6950   23.3510 C   0  0  0  0  0  0  0  0  0  0  0  0
    6.4430   -5.3090   22.4200 C   0  0  0  0  0  0  0  0  0  0  0  0
  1  2  1  0
  2  3  2  0
  2  4  1  0
  4  5  1  0
  5  6  1  0
  6  7  1  0
  7  8  1  0
  8  9  2  0
  8 10  1  0
 10 11  1  0
 11 12  1  0
 12 13  1  0
 13 14  2  0
 14 15  1  0
 15 16  2  0
 16 17  1  0
 17 18  1  0
 16 19  1  0
 19 20  1  0
 13 21  1  0
 19 21  2  0
  7 22  1  0
  4 23  1  0
 22 23  1  0
M  END
