piperidine-amides-33930-covalent
     RDKit          3D

 29 31  0  0  0  0  0  0  0  0999 V2000
    7.1120   -3.3650   19.2730 C   0  0  0  0  0  0  0  0  0  0  0  0
    6.4050   -4.1600   20.2850 C   0  0  0  0  0  0  0  0  0  0  0  0
    5.3220   -4.6890   19.9400 O   0  0  0  0  0  0  0  0  0  0  0  0
    6.9800   -4.3670   21.5620 N   0  0  0  0  0  0  0  0  0  0  0  0
    6.4980   -5.4230   22.3680 C   0  0  0  0  0  0  0  0  0  0  0  0
    6.3440   -5.0820   23.7820 C   0  0  0  0  0  0  0  0  0  0  0  0
    6.7380   -3.7110   24.2140 C   0  0  0  0  0  0  0  0  0  0  0  0
    5.7760   -3.2010   25.2330 C   0  0  0  0  0  0  0  0  0  0  0  0
    4.9340   -2.3480   24.9090 O   0  0  0  0  0  0  0  0  0  0  0  0
    5.7620   -3.6690   26.5430 N   0  0  0  0  0  0  0  0  0  0  0  0
    4.8100   -4.5600   27.0390 C   0  0  0  0  0  0  0  0  0  0  0  0
    5.1650   -5.4670   28.1120 C   0  0  0  0  0  0  0  0  0  0  0  0
    5.8200   -4.6500   29.2150 C   0  0  0  0  0  0  0  0  0  0  0  0
    6.4720   -5.5410   30.0310 O   0  0  0  0  0  0  0  0  0  0  0  0
    6.3860   -6.8170   29.4780 C   0  0  0  0  0  0  0  0  0  0  0  0
    4.7550   -3.7120   29.8250 C   0  0  0  0  0  0  0  0  0  0  0  0
    3.4630   -4.1500   30.3130 N   0  0  0  0  0  0  0  0  0  0  0  0
    3.0140   -2.8350   30.7330 C   0  0  0  0  0  0  0  0  0  0  0  0
    1.6060   -3.0540   31.3150 C   0  0  0  0  0  0  0  0  0  0  0  0
    0.9040   -1.9510   32.0800 C   0  0  0  0  0  0  0  0  0  0  0  0
   -0.2830   -1.6510   31.4540 F   0  0  0  0  0  0  0  0  0  0  0  0
    0.6450   -2.4680   33.3540 F   0  0  0  0  0  0  0  0  0  0  0  0
    1.7040   -0.8280   32.1770 F   0  0  0  0  0  0  0  0  0  0  0  0
    3.8330   -1.8220   30.5440 N   0  0  0  0  0  0  0  0  0  0  0  0
    4.9680   -2.3310   29.9640 O   0  0  0  0  0  0  0  0  0  0  0  0
    6.6500   -3.6140   28.8150 C   0  0  0  0  0  0  0  0  0  0  0  0
    6.3960   -2.8600   27.5130 C   0  0  0  0  0  0  0  0  0  0  0  0
    6.8700   -2.7430   23.0910 C   0  0  0  0  0  0  0  0  0  0  0  0
    7.7530   -3.3380   22.2130 C   0  0  0  0  0  0  0  0  0  0  0  0
  1  2  1  0
  2  3  2  0
  2  4  1  0
  4  5  1  0
  5  6  1  0
  6  7  1  0
  7  8  1  0
  8  9  2  0
  8 10  1  0
 10 11  1  0
 11 12  1  0
 12 13  1  0
 13 14  1  0
 14 15  1  0
 13 16  1  0
 16 17  2  0
 17 18  1  0
 18 19  1  0
 19 20  1  0
 20 21  1  0
 20 22  1  0
 20 23  1  0
 18 24  2  0
 16 25  1  0
 24 25  1  0
 13 26  1  0
 10 27  1  0
 26 27  1  0
  7 28  1  0
  4 29  1  0
 28 29  1  0
M  END
