piperidine-amides-11695-covalent
     RDKit          3D

 28 30  0  0  0  0  0  0  0  0999 V2000
    7.0590   -3.3500   19.2690 C   0  0  0  0  0  0  0  0  0  0  0  0
    6.3650   -4.1590   20.2650 C   0  0  0  0  0  0  0  0  0  0  0  0
    5.3370   -4.7570   19.9570 O   0  0  0  0  0  0  0  0  0  0  0  0
    6.9130   -4.3100   21.5840 N   0  0  0  0  0  0  0  0  0  0  0  0
    7.6860   -3.2470   22.1770 C   0  0  0  0  0  0  0  0  0  0  0  0
    6.9280   -2.6490   23.3190 C   0  0  0  0  0  0  0  0  0  0  0  0
    6.5990   -3.7770   24.2710 C   0  0  0  0  0  0  0  0  0  0  0  0
    5.7840   -3.2480   25.3950 C   0  0  0  0  0  0  0  0  0  0  0  0
    4.5670   -2.9990   25.2760 O   0  0  0  0  0  0  0  0  0  0  0  0
    6.4100   -3.0280   26.6390 N   0  0  0  0  0  0  0  0  0  0  0  0
    6.3810   -1.7080   27.2240 C   0  0  0  0  0  0  0  0  0  0  0  0
    7.0630   -1.5750   28.5460 C   0  0  0  0  0  0  0  0  0  0  0  0
    7.0900   -0.3570   29.1970 C   0  0  0  0  0  0  0  0  0  0  0  0
    6.4670    0.7740   28.6150 C   0  0  0  0  0  0  0  0  0  0  0  0
    6.4660    2.0080   29.2320 C   0  0  0  0  0  0  0  0  0  0  0  0
    6.8310    3.6280   28.7160 S   0  0  0  0  0  0  0  0  0  0  0  0
    6.5070    4.3470   30.2130 C   0  0  0  0  0  0  0  0  0  0  0  0
    6.6420    5.7120   30.3680 C   0  0  0  0  0  0  0  0  0  0  0  0
    7.5170    6.3650   29.5220 C   0  0  0  0  0  0  0  0  0  0  0  0
    7.1830    7.5930   28.9240 N   0  0  0  0  0  0  0  0  0  0  0  0
    8.6960    5.6620   29.3780 O   0  0  0  0  0  0  0  0  0  0  0  0
    6.1270    3.4490   31.1490 C   0  0  0  0  0  0  0  0  0  0  0  0
    6.1050    2.1100   30.5810 C   0  0  0  0  0  0  0  0  0  0  0  0
    5.6100    0.5390   31.5900 Br  0  0  0  0  0  0  0  0  0  0  0  0
    5.8320    0.6300   27.3700 C   0  0  0  0  0  0  0  0  0  0  0  0
    5.7850   -0.5740   26.6820 C   0  0  0  0  0  0  0  0  0  0  0  0
    5.8010   -4.8710   23.5970 C   0  0  0  0  0  0  0  0  0  0  0  0
    6.5790   -5.4420   22.4050 C   0  0  0  0  0  0  0  0  0  0  0  0
  1  2  1  0
  2  3  2  0
  2  4  1  0
  4  5  1  0
  5  6  1  0
  6  7  1  0
  7  8  1  0
  8  9  2  0
  8 10  1  0
 10 11  1  0
 11 12  2  0
 12 13  1  0
 13 14  2  0
 14 15  1  0
 15 16  1  0
 16 17  1  0
 17 18  1  0
 18 19  1  0
 19 20  1  0
 19 21  2  0
 17 22  2  0
 15 23  2  0
 22 23  1  0
 23 24  1  0
 14 25  1  0
 11 26  1  0
 25 26  2  0
  7 27  1  0
  4 28  1  0
 27 28  1  0
M  END
