piperidine-amides-21647-covalent
     RDKit          3D

 23 25  0  0  0  0  0  0  0  0999 V2000
    7.0980   -3.3140   19.2840 C   0  0  0  0  0  0  0  0  0  0  0  0
    6.3850   -4.1280   20.2700 C   0  0  0  0  0  0  0  0  0  0  0  0
    5.2870   -4.6200   19.9060 O   0  0  0  0  0  0  0  0  0  0  0  0
    6.9490   -4.3840   21.5170 N   0  0  0  0  0  0  0  0  0  0  0  0
    6.6140   -5.5600   22.2690 C   0  0  0  0  0  0  0  0  0  0  0  0
    5.8380   -5.1040   23.4640 C   0  0  0  0  0  0  0  0  0  0  0  0
    6.5160   -3.9570   24.1740 C   0  0  0  0  0  0  0  0  0  0  0  0
    5.7170   -3.5690   25.3450 C   0  0  0  0  0  0  0  0  0  0  0  0
    4.7880   -2.7410   25.2160 O   0  0  0  0  0  0  0  0  0  0  0  0
    5.9800   -4.1210   26.5880 N   0  0  0  0  0  0  0  0  0  0  0  0
    5.3070   -3.7190   27.8000 C   0  0  0  0  0  0  0  0  0  0  0  0
    6.0210   -4.6430   28.7250 C   0  0  0  0  0  0  0  0  0  0  0  0
    6.9420   -5.3760   28.0500 C   0  0  0  0  0  0  0  0  0  0  0  0
    7.2340   -4.8030   26.8270 C   0  0  2  0  0  0  0  0  0  0  0  0
    8.1500   -3.8360   26.8900 C   0  0  0  0  0  0  0  0  0  0  0  0
    9.3510   -3.8120   26.2640 C   0  0  0  0  0  0  0  0  0  0  0  0
   10.2720   -4.7810   26.1720 C   0  0  0  0  0  0  0  0  0  0  0  0
   11.2940   -4.2780   25.4900 N   0  0  0  0  0  0  0  0  0  0  0  0
   11.1540   -3.0300   25.0820 N   0  0  0  0  0  0  0  0  0  0  0  0
   12.1470   -2.3450   24.3400 C   0  0  0  0  0  0  0  0  0  0  0  0
    9.9490   -2.6560   25.5240 C   0  0  0  0  0  0  0  0  0  0  0  0
    6.7600   -2.7710   23.2370 C   0  0  0  0  0  0  0  0  0  0  0  0
    7.7040   -3.3350   22.2010 C   0  0  0  0  0  0  0  0  0  0  0  0
  1  2  1  0
  2  3  2  0
  2  4  1  0
  4  5  1  0
  5  6  1  0
  6  7  1  0
  7  8  1  0
  8  9  2  0
  8 10  1  0
 10 11  1  0
 11 12  1  0
 12 13  1  0
 10 14  1  0
 13 14  1  0
 14 15  1  1
 15 16  1  0
 16 17  1  0
 17 18  2  0
 18 19  1  0
 19 20  1  0
 16 21  2  0
 19 21  1  0
  7 22  1  0
  4 23  1  0
 22 23  1  0
M  END
