piperidine-amides-188-covalent
     RDKit          3D

 26 28  0  0  0  0  0  0  0  0999 V2000
    7.1430   -3.2580   19.3700 C   0  0  0  0  0  0  0  0  0  0  0  0
    6.3730   -4.0130   20.3370 C   0  0  0  0  0  0  0  0  0  0  0  0
    5.3410   -4.6330   19.9210 O   0  0  0  0  0  0  0  0  0  0  0  0
    6.7350   -4.1270   21.7020 N   0  0  0  0  0  0  0  0  0  0  0  0
    6.6670   -5.5110   22.2400 C   0  0  0  0  0  0  0  0  0  0  0  0
    6.5760   -5.2650   23.7910 C   0  0  0  0  0  0  0  0  0  0  0  0
    6.2350   -3.8110   23.9360 C   0  0  0  0  0  0  0  0  0  0  0  0
    5.3660   -3.5090   25.2400 C   0  0  0  0  0  0  0  0  0  0  0  0
    4.2510   -3.9710   25.0640 O   0  0  0  0  0  0  0  0  0  0  0  0
    5.9730   -2.8710   26.1640 N   0  0  0  0  0  0  0  0  0  0  0  0
    6.3620   -2.1310   27.2390 C   0  0  0  0  0  0  0  0  0  0  0  0
    5.7910   -1.3670   28.2370 C   0  0  1  0  0  0  0  0  0  0  0  0
    5.2260   -2.1680   29.2640 C   0  0  0  0  0  0  0  0  0  0  0  0
    4.8490   -1.3780   30.4570 C   0  0  0  0  0  0  0  0  0  0  0  0
    5.6760   -0.2870   30.7660 N   0  0  0  0  0  0  0  0  0  0  0  0
    6.2600   -0.0370   32.0880 C   0  0  0  0  0  0  0  0  0  0  0  0
    5.2450   -0.0750   33.0640 C   0  0  0  0  0  0  0  0  0  0  0  0
    5.2020    0.0830   34.4960 C   0  0  0  0  0  0  0  0  0  0  0  0
    6.7220    0.3310   34.7150 C   0  0  0  0  0  0  0  0  0  0  0  0
    7.8940    0.3890   33.6980 C   0  0  0  0  0  0  0  0  0  0  0  0
    7.5870    0.1980   32.4160 C   0  0  0  0  0  0  0  0  0  0  0  0
    6.4990   -0.1970   29.2680 S   0  0  0  0  0  0  0  0  0  0  0  0
    7.9310   -0.4420   29.4630 O   0  0  0  0  0  0  0  0  0  0  0  0
    6.1820    1.1510   28.7070 O   0  0  0  0  0  0  0  0  0  0  0  0
    7.3570   -2.8690   23.5710 C   0  0  0  0  0  0  0  0  0  0  0  0
    7.6720   -3.1590   22.2740 C   0  0  0  0  0  0  0  0  0  0  0  0
  1  2  1  0
  2  3  2  0
  2  4  1  0
  4  5  1  0
  5  6  1  0
  6  7  1  0
  7  8  1  0
  8  9  2  0
  8 10  1  0
 10 11  1  0
 12 11  1  1
 12 13  1  0
 13 14  1  0
 14 15  1  0
 15 16  1  0
 16 17  2  0
 17 18  1  0
 18 19  2  0
 19 20  1  0
 16 21  1  0
 20 21  2  0
 12 22  1  0
 22 15  1  0
 22 23  2  0
 22 24  2  0
  7 25  1  0
  4 26  1  0
 25 26  1  0
M  END
