piperidine-amides-8302-covalent
     RDKit          3D

 25 26  0  0  0  0  0  0  0  0999 V2000
    7.0690   -3.3390   19.3160 C   0  0  0  0  0  0  0  0  0  0  0  0
    6.4060   -4.1830   20.3060 C   0  0  0  0  0  0  0  0  0  0  0  0
    5.3710   -4.7870   19.9650 O   0  0  0  0  0  0  0  0  0  0  0  0
    6.9730   -4.3410   21.5940 N   0  0  0  0  0  0  0  0  0  0  0  0
    6.5240   -5.4370   22.3980 C   0  0  0  0  0  0  0  0  0  0  0  0
    5.6790   -4.8920   23.5110 C   0  0  0  0  0  0  0  0  0  0  0  0
    6.5200   -3.8690   24.2450 C   0  0  0  0  0  0  0  0  0  0  0  0
    5.7590   -3.3170   25.4110 C   0  0  0  0  0  0  0  0  0  0  0  0
    4.5530   -3.1560   25.2390 O   0  0  0  0  0  0  0  0  0  0  0  0
    6.4460   -3.0340   26.5860 N   0  0  0  0  0  0  0  0  0  0  0  0
    6.4110   -1.7380   27.1890 C   0  0  0  0  0  0  0  0  0  0  0  0
    6.9780   -1.5900   28.4570 C   0  0  0  0  0  0  0  0  0  0  0  0
    7.0050   -0.4020   29.1490 C   0  0  0  0  0  0  0  0  0  0  0  0
    6.4690    0.7820   28.6580 C   0  0  0  0  0  0  0  0  0  0  0  0
    5.8670    0.6050   27.2980 C   0  0  0  0  0  0  0  0  0  0  0  0
    5.2280    1.8350   26.6140 C   0  0  0  0  0  0  0  0  0  0  0  0
    6.0170    2.3420   25.7770 O   0  0  0  0  0  0  0  0  0  0  0  0
    3.9430    2.3240   26.8900 N   0  0  0  0  0  0  0  0  0  0  0  0
    2.9080    1.3320   26.8070 C   0  0  0  0  0  0  0  0  0  0  0  0
    1.9350    2.0130   25.8900 C   0  0  0  0  0  0  0  0  0  0  0  0
    3.2640    0.0630   26.4170 C   0  0  0  0  0  0  0  0  0  0  0  0
    2.5150    1.2190   28.1300 C   0  0  0  0  0  0  0  0  0  0  0  0
    5.8710   -0.6100   26.6540 C   0  0  0  0  0  0  0  0  0  0  0  0
    6.9470   -2.7340   23.3840 C   0  0  0  0  0  0  0  0  0  0  0  0
    7.7020   -3.2650   22.2100 C   0  0  0  0  0  0  0  0  0  0  0  0
  1  2  1  0
  2  3  2  0
  2  4  1  0
  4  5  1  0
  5  6  1  0
  6  7  1  0
  7  8  1  0
  8  9  2  0
  8 10  1  0
 10 11  1  0
 11 12  2  0
 12 13  1  0
 13 14  2  0
 14 15  1  0
 15 16  1  0
 16 17  2  0
 16 18  1  0
 19 18  1  0
 19 20  1  0
 19 21  1  0
 19 22  1  0
 11 23  1  0
 15 23  2  0
  7 24  1  0
  4 25  1  0
 24 25  1  0
M  END
