piperidine-amides-3842-covalent
     RDKit          3D

 20 22  0  0  0  0  0  0  0  0999 V2000
    7.0510   -3.3330   19.3650 C   0  0  0  0  0  0  0  0  0  0  0  0
    6.3890   -4.1740   20.3770 C   0  0  0  0  0  0  0  0  0  0  0  0
    5.3860   -4.8210   19.9800 O   0  0  0  0  0  0  0  0  0  0  0  0
    6.8750   -4.3040   21.7110 N   0  0  0  0  0  0  0  0  0  0  0  0
    7.6250   -3.2330   22.2970 C   0  0  0  0  0  0  0  0  0  0  0  0
    7.2640   -2.9610   23.6850 C   0  0  0  0  0  0  0  0  0  0  0  0
    6.0500   -3.6860   24.0940 C   0  0  0  0  0  0  0  0  0  0  0  0
    5.4920   -3.2950   25.4490 C   0  0  0  0  0  0  0  0  0  0  0  0
    4.2670   -3.4180   25.6110 O   0  0  0  0  0  0  0  0  0  0  0  0
    6.2450   -2.7930   26.5420 N   0  0  0  0  0  0  0  0  0  0  0  0
    5.9690   -1.6190   27.3300 C   0  0  2  0  0  0  0  0  0  0  0  0
    5.9450   -0.3080   26.6430 C   0  0  0  0  0  0  0  0  0  0  0  0
    5.4140    0.8220   27.5430 C   0  0  1  0  0  0  0  0  0  0  0  0
    4.4130    0.3980   28.4020 C   0  0  0  0  0  0  0  0  0  0  0  0
    5.0460   -1.0080   28.3330 C   0  0  0  0  0  0  0  0  0  0  0  0
    6.2390   -0.4870   29.0020 C   0  0  1  0  0  0  0  0  0  0  0  0
    7.2440   -1.3560   28.2070 C   0  0  0  0  0  0  0  0  0  0  0  0
    6.5970    1.1620   28.7070 S   0  0  0  0  0  0  0  0  0  0  0  0
    6.1510   -5.1820   23.9010 C   0  0  0  0  0  0  0  0  0  0  0  0
    6.6310   -5.5090   22.4840 C   0  0  0  0  0  0  0  0  0  0  0  0
  1  2  1  0
  2  3  2  0
  2  4  1  0
  4  5  1  0
  5  6  1  0
  6  7  1  0
  7  8  1  0
  8  9  2  0
  8 10  1  0
 11 10  1  6
 11 12  1  0
 13 12  1  6
 13 14  1  0
 14 15  1  0
 16 15  1  6
 11 17  1  0
 16 17  1  0
 13 18  1  0
 16 18  1  0
  7 19  1  0
  4 20  1  0
 19 20  1  0
M  END
