piperidine-amides-14209-covalent
     RDKit          3D

 24 25  0  0  0  0  0  0  0  0999 V2000
    7.0480   -3.3240   19.2950 C   0  0  0  0  0  0  0  0  0  0  0  0
    6.3440   -4.1680   20.3010 C   0  0  0  0  0  0  0  0  0  0  0  0
    5.3340   -4.8020   19.9590 O   0  0  0  0  0  0  0  0  0  0  0  0
    6.8660   -4.2640   21.6070 N   0  0  0  0  0  0  0  0  0  0  0  0
    7.6610   -3.1950   22.1630 C   0  0  0  0  0  0  0  0  0  0  0  0
    7.5770   -3.3150   23.6790 C   0  0  0  0  0  0  0  0  0  0  0  0
    6.1790   -3.7160   24.0020 C   0  0  0  0  0  0  0  0  0  0  0  0
    5.7830   -3.1990   25.3240 C   0  0  0  0  0  0  0  0  0  0  0  0
    4.6030   -3.3400   25.6680 O   0  0  0  0  0  0  0  0  0  0  0  0
    6.7660   -2.5730   26.0850 N   0  0  0  0  0  0  0  0  0  0  0  0
    6.5920   -1.4730   26.9510 C   0  0  0  0  0  0  0  0  0  0  0  0
    5.9350   -0.3210   26.5580 C   0  0  0  0  0  0  0  0  0  0  0  0
    5.7250    0.8240   27.3500 C   0  0  0  0  0  0  0  0  0  0  0  0
    6.1580    0.9470   28.6480 C   0  0  0  0  0  0  0  0  0  0  0  0
    6.0420    1.9480   29.5080 O   0  0  0  0  0  0  0  0  0  0  0  0
    6.8810   -0.2010   29.2270 C   0  0  0  0  0  0  0  0  0  0  0  0
    7.4620   -0.3120   30.6400 C   0  0  0  0  0  0  0  0  0  0  0  0
    7.7830    0.8200   31.3750 O   0  0  0  0  0  0  0  0  0  0  0  0
    7.5300    0.9480   32.7880 C   0  0  0  0  0  0  0  0  0  0  0  0
    6.3830    0.3290   33.2400 C   0  0  0  0  0  0  0  0  0  0  0  0
    8.6610    0.3800   33.5630 C   0  0  0  0  0  0  0  0  0  0  0  0
    7.0640   -1.3690   28.3430 C   0  0  0  0  0  0  0  0  0  0  0  0
    6.0960   -5.1670   23.7940 C   0  0  0  0  0  0  0  0  0  0  0  0
    6.6510   -5.4610   22.3820 C   0  0  0  0  0  0  0  0  0  0  0  0
  1  2  1  0
  2  3  2  0
  2  4  1  0
  4  5  1  0
  5  6  1  0
  6  7  1  0
  7  8  1  0
  8  9  2  0
  8 10  1  0
 10 11  1  0
 11 12  2  0
 12 13  1  0
 13 14  2  0
 14 15  1  0
 14 16  1  0
 16 17  1  0
 17 18  1  0
 18 19  1  0
 19 20  1  0
 19 21  1  0
 11 22  1  0
 16 22  2  0
  7 23  1  0
  4 24  1  0
 23 24  1  0
M  END
