piperidine-amides-13782-covalent
     RDKit          3D

 27 29  0  0  0  0  0  0  0  0999 V2000
    7.2070   -3.2230   19.1520 C   0  0  0  0  0  0  0  0  0  0  0  0
    6.3560   -3.9170   20.1550 C   0  0  0  0  0  0  0  0  0  0  0  0
    5.2620   -4.3990   19.8280 O   0  0  0  0  0  0  0  0  0  0  0  0
    6.8500   -4.0480   21.4550 N   0  0  0  0  0  0  0  0  0  0  0  0
    7.6690   -3.0240   22.0550 C   0  0  0  0  0  0  0  0  0  0  0  0
    7.5240   -3.1580   23.5650 C   0  0  0  0  0  0  0  0  0  0  0  0
    6.0710   -3.2470   23.9070 C   0  0  0  0  0  0  0  0  0  0  0  0
    5.8300   -3.2520   25.3600 C   0  0  0  0  0  0  0  0  0  0  0  0
    4.7380   -2.8260   25.7560 O   0  0  0  0  0  0  0  0  0  0  0  0
    6.8360   -3.7330   26.2000 N   0  0  0  0  0  0  0  0  0  0  0  0
    7.8120   -4.7050   25.8540 C   0  0  0  0  0  0  0  0  0  0  0  0
    7.5730   -5.8060   25.0360 C   0  0  0  0  0  0  0  0  0  0  0  0
    8.6410   -6.4450   24.3650 C   0  0  0  0  0  0  0  0  0  0  0  0
    8.4950   -7.5740   23.5520 C   0  0  0  0  0  0  0  0  0  0  0  0
    7.2110   -8.2580   23.2850 C   0  0  0  0  0  0  0  0  0  0  0  0
    7.1230   -9.4020   22.5440 O   0  0  0  0  0  0  0  0  0  0  0  0
    7.9400  -10.5100   22.4600 C   0  0  0  0  0  0  0  0  0  0  0  0
    7.7900  -11.9530   21.8010 C   0  0  0  0  0  0  0  0  0  0  0  0
    8.1620  -13.0190   22.4550 C   0  0  0  0  0  0  0  0  0  0  0  0
    8.1400  -13.1660   23.4790 N   0  0  0  0  0  0  0  0  0  0  0  0
    9.1220  -13.9370   23.0630 C   0  0  0  0  0  0  0  0  0  0  0  0
    8.5410  -12.2650   24.2460 C   0  0  0  0  0  0  0  0  0  0  0  0
    8.1320  -10.8990   23.7040 C   0  0  0  0  0  0  0  0  0  0  0  0
    6.1030   -7.5840   23.9450 C   0  0  0  0  0  0  0  0  0  0  0  0
    6.3320   -6.3700   24.8100 C   0  0  0  0  0  0  0  0  0  0  0  0
    5.4250   -4.4950   23.3360 C   0  0  0  0  0  0  0  0  0  0  0  0
    6.2860   -5.0890   22.2900 C   0  0  0  0  0  0  0  0  0  0  0  0
  1  2  1  0
  2  3  2  0
  2  4  1  0
  4  5  1  0
  5  6  1  0
  6  7  1  0
  7  8  1  0
  8  9  2  0
  8 10  1  0
 10 11  1  0
 11 12  1  0
 12 13  2  0
 13 14  1  0
 14 15  2  0
 15 16  1  0
 16 17  1  0
 17 18  1  0
 18 19  1  0
 19 20  1  0
 20 21  1  0
 20 22  1  0
 17 23  1  0
 22 23  1  0
 15 24  1  0
 12 25  1  0
 24 25  2  0
  7 26  1  0
  4 27  1  0
 26 27  1  0
M  END
