piperidine-amides-4599-covalent
     RDKit          3D

 25 26  0  0  0  0  0  0  0  0999 V2000
    7.1220   -3.3040   19.2970 C   0  0  0  0  0  0  0  0  0  0  0  0
    6.3660   -4.0680   20.3160 C   0  0  0  0  0  0  0  0  0  0  0  0
    5.3190   -4.6210   19.9200 O   0  0  0  0  0  0  0  0  0  0  0  0
    6.8440   -4.1910   21.6340 N   0  0  0  0  0  0  0  0  0  0  0  0
    6.5620   -5.3610   22.4050 C   0  0  0  0  0  0  0  0  0  0  0  0
    6.0460   -5.0430   23.7370 C   0  0  0  0  0  0  0  0  0  0  0  0
    6.0300   -3.5890   24.0060 C   0  0  0  0  0  0  0  0  0  0  0  0
    5.5770   -3.2740   25.3970 C   0  0  0  0  0  0  0  0  0  0  0  0
    4.3560   -3.1040   25.5540 O   0  0  0  0  0  0  0  0  0  0  0  0
    6.4510   -3.1560   26.4990 N   0  0  0  0  0  0  0  0  0  0  0  0
    6.2350   -3.8300   27.8220 C   0  0  2  0  0  0  0  0  0  0  0  0
    5.6810   -5.2190   27.6580 C   0  0  0  0  0  0  0  0  0  0  0  0
    4.7940   -5.7900   28.6680 C   0  0  0  0  0  0  0  0  0  0  0  0
    3.7680   -6.4380   28.2730 O   0  0  0  0  0  0  0  0  0  0  0  0
    5.0380   -5.6470   30.0100 O   0  0  0  0  0  0  0  0  0  0  0  0
    3.9750   -5.5130   30.9550 C   0  0  0  0  0  0  0  0  0  0  0  0
    5.6200   -2.9370   28.8000 C   0  0  0  0  0  0  0  0  0  0  0  0
    6.4210   -1.9290   29.2800 C   0  0  0  0  0  0  0  0  0  0  0  0
    5.9630   -1.0240   30.2060 C   0  0  0  0  0  0  0  0  0  0  0  0
    4.6930   -1.0800   30.6950 C   0  0  0  0  0  0  0  0  0  0  0  0
    3.8180   -2.0650   30.2630 C   0  0  0  0  0  0  0  0  0  0  0  0
    2.0430   -2.1430   30.9470 Br  0  0  0  0  0  0  0  0  0  0  0  0
    4.3330   -3.0260   29.2690 C   0  0  0  0  0  0  0  0  0  0  0  0
    7.3160   -2.9190   23.6670 C   0  0  0  0  0  0  0  0  0  0  0  0
    7.7010   -3.1720   22.2290 C   0  0  0  0  0  0  0  0  0  0  0  0
  1  2  1  0
  2  3  2  0
  2  4  1  0
  4  5  1  0
  5  6  1  0
  6  7  1  0
  7  8  1  0
  8  9  2  0
  8 10  1  0
 10 11  1  0
 11 12  1  6
 12 13  1  0
 13 14  2  0
 13 15  1  0
 15 16  1  0
 11 17  1  0
 17 18  2  0
 18 19  1  0
 19 20  2  0
 20 21  1  0
 21 22  1  0
 17 23  1  0
 21 23  2  0
  7 24  1  0
  4 25  1  0
 24 25  1  0
M  END
