piperidine-amides-34242-covalent
     RDKit          3D

 31 34  0  0  0  0  0  0  0  0999 V2000
    7.0730   -3.3590   19.3810 C   0  0  0  0  0  0  0  0  0  0  0  0
    6.3760   -4.1840   20.3760 C   0  0  0  0  0  0  0  0  0  0  0  0
    5.4190   -4.9060   20.0080 O   0  0  0  0  0  0  0  0  0  0  0  0
    6.8030   -4.2070   21.7200 N   0  0  0  0  0  0  0  0  0  0  0  0
    7.7140   -3.1660   22.2010 C   0  0  0  0  0  0  0  0  0  0  0  0
    7.5120   -2.9960   23.7150 C   0  0  0  0  0  0  0  0  0  0  0  0
    6.1560   -3.5870   23.9700 C   0  0  0  0  0  0  0  0  0  0  0  0
    5.5420   -3.1720   25.2610 C   0  0  0  0  0  0  0  0  0  0  0  0
    4.3390   -2.8460   25.2000 O   0  0  0  0  0  0  0  0  0  0  0  0
    6.2150   -3.1290   26.5150 N   0  0  0  0  0  0  0  0  0  0  0  0
    6.3320   -1.8230   27.1410 C   0  0  0  0  0  0  0  0  0  0  0  0
    5.8120   -0.5610   26.4850 C   0  0  0  0  0  0  0  0  0  0  0  0
    5.9480    0.6120   27.1820 C   0  0  0  0  0  0  0  0  0  0  0  0
    6.5340    0.6520   28.4260 C   0  0  0  0  0  0  0  0  0  0  0  0
    6.5680    1.9340   28.9530 F   0  0  0  0  0  0  0  0  0  0  0  0
    7.0380   -0.4830   29.0750 C   0  0  0  0  0  0  0  0  0  0  0  0
    6.9640   -1.7220   28.4860 C   0  0  0  0  0  0  0  0  0  0  0  0
    5.6790   -4.0830   27.5130 C   0  0  0  0  0  0  0  0  0  0  0  0
    4.3890   -3.4240   27.9330 C   0  0  0  0  0  0  0  0  0  0  0  0
    3.7850   -4.1860   29.0680 C   0  0  0  0  0  0  0  0  0  0  0  0
    4.0010   -5.4860   28.9710 N   0  0  0  0  0  0  0  0  0  0  0  0
    4.3630   -6.0470   30.2530 C   0  0  0  0  0  0  0  0  0  0  0  0
    5.3880   -7.0150   30.1860 C   0  0  0  0  0  0  0  0  0  0  0  0
    5.9020   -7.6880   31.2930 C   0  0  0  0  0  0  0  0  0  0  0  0
    5.3780   -7.3810   32.4870 N   0  0  0  0  0  0  0  0  0  0  0  0
    4.3360   -6.4280   32.7330 C   0  0  0  0  0  0  0  0  0  0  0  0
    3.7650   -5.6960   31.5780 C   0  0  0  0  0  0  0  0  0  0  0  0
    4.4020   -6.0060   27.7320 C   0  0  0  0  0  0  0  0  0  0  0  0
    5.4950   -5.3960   27.1440 C   0  0  0  0  0  0  0  0  0  0  0  0
    6.1510   -5.0690   23.7810 C   0  0  0  0  0  0  0  0  0  0  0  0
    6.6170   -5.3880   22.5150 C   0  0  0  0  0  0  0  0  0  0  0  0
  1  2  1  0
  2  3  2  0
  2  4  1  0
  4  5  1  0
  5  6  1  0
  6  7  1  0
  7  8  1  0
  8  9  2  0
  8 10  1  0
 10 11  1  0
 11 12  2  0
 12 13  1  0
 13 14  2  0
 14 15  1  0
 14 16  1  0
 11 17  1  0
 16 17  2  0
 10 18  1  0
 18 19  1  0
 19 20  1  0
 20 21  1  0
 21 22  1  0
 22 23  2  0
 23 24  1  0
 24 25  2  0
 25 26  1  0
 22 27  1  0
 26 27  2  0
 21 28  1  0
 18 29  1  0
 28 29  1  0
  7 30  1  0
  4 31  1  0
 30 31  1  0
M  END
