piperidine-amides-28001-covalent
     RDKit          3D

 26 28  0  0  0  0  0  0  0  0999 V2000
    7.0560   -3.3890   19.4100 C   0  0  0  0  0  0  0  0  0  0  0  0
    6.3900   -4.2530   20.4080 C   0  0  0  0  0  0  0  0  0  0  0  0
    5.4030   -4.9010   19.9980 O   0  0  0  0  0  0  0  0  0  0  0  0
    6.8840   -4.3590   21.7240 N   0  0  0  0  0  0  0  0  0  0  0  0
    6.4880   -5.4170   22.5890 C   0  0  0  0  0  0  0  0  0  0  0  0
    5.9100   -4.9950   23.8860 C   0  0  0  0  0  0  0  0  0  0  0  0
    6.2820   -3.6540   24.4360 C   0  0  0  0  0  0  0  0  0  0  0  0
    5.1970   -3.1950   25.3860 C   0  0  0  0  0  0  0  0  0  0  0  0
    4.0750   -3.0010   24.8990 O   0  0  0  0  0  0  0  0  0  0  0  0
    5.3850   -2.9820   26.7920 N   0  0  0  0  0  0  0  0  0  0  0  0
    4.3280   -3.0850   27.7940 C   0  0  0  0  0  0  0  0  0  0  0  0
    4.5780   -4.1640   28.8300 C   0  0  0  0  0  0  0  0  0  0  0  0
    5.8730   -4.8230   29.1090 C   0  0  0  0  0  0  0  0  0  0  0  0
    5.8240   -6.0820   29.7020 C   0  0  0  0  0  0  0  0  0  0  0  0
    4.6290   -6.7640   29.8740 C   0  0  0  0  0  0  0  0  0  0  0  0
    3.8280   -6.9750   28.7770 C   0  0  0  0  0  0  0  0  0  0  0  0
    2.6290   -7.6450   28.8880 C   0  0  0  0  0  0  0  0  0  0  0  0
    2.1660   -8.1370   30.0830 C   0  0  0  0  0  0  0  0  0  0  0  0
    2.9110   -7.9700   31.2370 C   0  0  0  0  0  0  0  0  0  0  0  0
    4.1790   -7.2560   31.0860 C   0  0  0  0  0  0  0  0  0  0  0  0
    4.9980   -7.0850   32.3530 C   0  0  0  0  0  0  0  0  0  0  0  0
    4.5550   -5.9860   33.0840 O   0  0  0  0  0  0  0  0  0  0  0  0
    6.1470   -4.8310   27.7630 C   0  0  0  0  0  0  0  0  0  0  0  0
    6.5170   -3.5280   27.3200 C   0  0  0  0  0  0  0  0  0  0  0  0
    6.7620   -2.6950   23.4290 C   0  0  0  0  0  0  0  0  0  0  0  0
    7.6360   -3.2950   22.3770 C   0  0  0  0  0  0  0  0  0  0  0  0
  1  2  1  0
  2  3  2  0
  2  4  1  0
  4  5  1  0
  5  6  1  0
  6  7  1  0
  7  8  1  0
  8  9  2  0
  8 10  1  0
 10 11  1  0
 11 12  1  0
 12 13  1  0
 13 14  1  0
 14 15  1  0
 15 16  2  0
 16 17  1  0
 17 18  2  0
 18 19  1  0
 15 20  1  0
 19 20  2  0
 20 21  1  0
 21 22  1  0
 13 23  1  0
 10 24  1  0
 23 24  1  0
  7 25  1  0
  4 26  1  0
 25 26  1  0
M  END
