piperidine-amides-28674-covalent
     RDKit          3D

 26 28  0  0  0  0  0  0  0  0999 V2000
    7.0740   -3.2910   19.2390 C   0  0  0  0  0  0  0  0  0  0  0  0
    6.3730   -4.0880   20.2490 C   0  0  0  0  0  0  0  0  0  0  0  0
    5.3320   -4.6790   19.9230 O   0  0  0  0  0  0  0  0  0  0  0  0
    6.8980   -4.2180   21.5520 N   0  0  0  0  0  0  0  0  0  0  0  0
    6.8060   -5.5070   22.1570 C   0  0  0  0  0  0  0  0  0  0  0  0
    6.5620   -5.3730   23.6300 C   0  0  0  0  0  0  0  0  0  0  0  0
    6.6410   -3.9060   24.0000 C   0  0  0  0  0  0  0  0  0  0  0  0
    6.5230   -3.7260   25.4570 C   0  0  0  0  0  0  0  0  0  0  0  0
    5.3710   -3.6160   25.8950 O   0  0  0  0  0  0  0  0  0  0  0  0
    7.7130   -3.6720   26.2030 N   0  0  0  0  0  0  0  0  0  0  0  0
    7.5990   -3.0460   27.4150 C   0  0  0  0  0  0  0  0  0  0  0  0
    7.6850   -4.0540   28.3050 C   0  0  0  0  0  0  0  0  0  0  0  0
    8.9080   -4.3850   28.8490 C   0  0  0  0  0  0  0  0  0  0  0  0
   10.0550   -5.1460   28.4760 C   0  0  2  0  0  0  0  0  0  0  0  0
   11.5930   -5.1950   29.7520 C   0  0  0  0  0  0  0  0  0  0  0  0
   11.9330   -6.5350   32.0710 C   0  0  0  0  0  0  0  0  0  0  0  0
   11.4750   -6.0090   33.2630 O   0  0  0  0  0  0  0  0  0  0  0  0
   12.4470   -8.3360   32.5840 N   0  0  0  0  0  0  0  0  0  0  0  0
   13.2230   -9.2970   31.8260 C   0  0  0  0  0  0  0  0  0  0  0  0
   13.4340  -10.4630   32.7480 C   0  0  0  0  0  0  0  0  0  0  0  0
   13.2530   -9.7970   34.1090 C   0  0  0  0  0  0  0  0  0  0  0  0
   12.9790   -8.4680   33.9710 C   0  0  0  0  0  0  0  0  0  0  0  0
    9.9100   -4.7970   27.0880 C   0  0  0  0  0  0  0  0  0  0  0  0
    8.5600   -4.8980   26.3020 C   0  0  0  0  0  0  0  0  0  0  0  0
    7.9580   -3.3110   23.5230 C   0  0  0  0  0  0  0  0  0  0  0  0
    7.8950   -3.3070   22.0280 C   0  0  0  0  0  0  0  0  0  0  0  0
  1  2  1  0
  2  3  2  0
  2  4  1  0
  4  5  1  0
  5  6  1  0
  6  7  1  0
  7  8  1  0
  8  9  2  0
  8 10  1  0
 10 11  1  0
 11 12  1  0
 12 13  1  0
 13 14  1  0
 14 15  1  1
 15 16  1  0
 16 17  2  0
 16 18  1  0
 18 19  1  0
 19 20  1  0
 20 21  1  0
 18 22  1  0
 21 22  1  0
 14 23  1  0
 10 24  1  0
 23 24  1  0
  7 25  1  0
  4 26  1  0
 25 26  1  0
M  END
