piperidine-amides-35620-covalent
     RDKit          3D

 39 42  0  0  0  0  0  0  0  0999 V2000
    7.0830   -3.2800   19.3080 C   0  0  0  0  0  0  0  0  0  0  0  0
    6.3730   -4.0940   20.3240 C   0  0  0  0  0  0  0  0  0  0  0  0
    5.3570   -4.6850   19.9440 O   0  0  0  0  0  0  0  0  0  0  0  0
    6.8780   -4.2070   21.6320 N   0  0  0  0  0  0  0  0  0  0  0  0
    7.7470   -3.2100   22.2440 C   0  0  0  0  0  0  0  0  0  0  0  0
    7.3810   -3.0000   23.6930 C   0  0  0  0  0  0  0  0  0  0  0  0
    6.0440   -3.6900   23.9130 C   0  0  0  0  0  0  0  0  0  0  0  0
    5.3510   -3.3800   25.1910 C   0  0  0  0  0  0  0  0  0  0  0  0
    4.1180   -3.4610   25.1650 O   0  0  0  0  0  0  0  0  0  0  0  0
    5.9240   -3.0120   26.4330 N   0  0  0  0  0  0  0  0  0  0  0  0
    5.9770   -4.1920   27.3360 C   0  0  1  0  0  0  0  0  0  0  0  0
    6.6860   -3.9880   28.6400 C   0  0  0  0  0  0  0  0  0  0  0  0
    7.2110   -2.7650   28.9300 O   0  0  0  0  0  0  0  0  0  0  0  0
    6.7480   -5.0700   29.4830 O   0  0  0  0  0  0  0  0  0  0  0  0
    6.6800   -6.3540   28.9940 C   0  0  0  0  0  0  0  0  0  0  0  0
    4.6380   -4.8340   27.5300 C   0  0  1  0  0  0  0  0  0  0  0  0
    4.4500   -4.6900   28.8760 C   0  0  0  0  0  0  0  0  0  0  0  0
    3.7260   -4.0100   26.8800 O   0  0  0  0  0  0  0  0  0  0  0  0
    5.4760   -1.8690   27.2990 C   0  0  0  0  0  0  0  0  0  0  0  0
    5.6490   -0.6320   26.4540 C   0  0  0  0  0  0  0  0  0  0  0  0
    5.5160   -0.9920   24.9770 C   0  0  0  0  0  0  0  0  0  0  0  0
    5.6670    0.1520   24.0000 C   0  0  0  0  0  0  0  0  0  0  0  0
    5.9280    1.5160   24.5400 C   0  0  0  0  0  0  0  0  0  0  0  0
    6.0430    1.7820   26.0110 C   0  0  0  0  0  0  0  0  0  0  0  0
    5.8900    0.6450   26.9270 C   0  0  0  0  0  0  0  0  0  0  0  0
    6.0150   -1.3680   28.6410 C   0  0  0  0  0  0  0  0  0  0  0  0
    5.1390   -1.0680   29.6760 C   0  0  0  0  0  0  0  0  0  0  0  0
    5.5550   -0.5470   31.0250 C   0  0  0  0  0  0  0  0  0  0  0  0
    7.0320   -0.3290   31.2970 C   0  0  0  0  0  0  0  0  0  0  0  0
    7.9010   -0.6890   30.1150 C   0  0  0  0  0  0  0  0  0  0  0  0
    7.3770   -1.1490   28.9380 C   0  0  0  0  0  0  0  0  0  0  0  0
    3.9600   -1.8750   27.5520 C   0  0  0  0  0  0  0  0  0  0  0  0
    3.0690   -1.2650   26.4630 C   0  0  0  0  0  0  0  0  0  0  0  0
    1.5440   -1.2250   26.6590 C   0  0  0  0  0  0  0  0  0  0  0  0
    0.9980   -1.7890   27.9130 C   0  0  0  0  0  0  0  0  0  0  0  0
    1.8810   -2.3750   28.9530 C   0  0  0  0  0  0  0  0  0  0  0  0
    3.3780   -2.3780   28.6880 C   0  0  0  0  0  0  0  0  0  0  0  0
    6.2100   -5.1900   23.7330 C   0  0  0  0  0  0  0  0  0  0  0  0
    6.7050   -5.4760   22.3340 C   0  0  0  0  0  0  0  0  0  0  0  0
  1  2  1  0
  2  3  2  0
  2  4  1  0
  4  5  1  0
  5  6  1  0
  6  7  1  0
  7  8  1  0
  8  9  2  0
  8 10  1  0
 10 11  1  0
 11 12  1  1
 12 13  2  0
 12 14  1  0
 14 15  1  0
 11 16  1  0
 16 17  1  1
 16 18  1  0
 19 10  1  0
 19 20  1  0
 20 21  2  0
 21 22  1  0
 22 23  2  0
 23 24  1  0
 20 25  1  0
 24 25  2  0
 19 26  1  0
 26 27  2  0
 27 28  1  0
 28 29  2  0
 29 30  1  0
 26 31  1  0
 30 31  2  0
 19 32  1  0
 32 33  2  0
 33 34  1  0
 34 35  2  0
 35 36  1  0
 32 37  1  0
 36 37  2  0
  7 38  1  0
  4 39  1  0
 38 39  1  0
M  END
