piperidine-amides-537-covalent
     RDKit          3D

 27 29  0  0  0  0  0  0  0  0999 V2000
    7.1570   -3.2530   19.2760 C   0  0  0  0  0  0  0  0  0  0  0  0
    6.3890   -4.0760   20.1840 C   0  0  0  0  0  0  0  0  0  0  0  0
    5.2330   -4.4530   19.8370 O   0  0  0  0  0  0  0  0  0  0  0  0
    6.9050   -4.5210   21.4050 N   0  0  0  0  0  0  0  0  0  0  0  0
    7.8270   -3.5970   22.1140 C   0  0  0  0  0  0  0  0  0  0  0  0
    6.7730   -2.9330   23.0360 C   0  0  0  0  0  0  0  0  0  0  0  0
    6.2870   -4.1230   23.8040 C   0  0  0  0  0  0  0  0  0  0  0  0
    5.8140   -3.6290   25.2020 C   0  0  0  0  0  0  0  0  0  0  0  0
    4.6640   -3.9040   25.5220 O   0  0  0  0  0  0  0  0  0  0  0  0
    6.8640   -3.0590   25.5460 N   0  0  0  0  0  0  0  0  0  0  0  0
    7.9950   -2.4030   25.7910 C   0  0  0  0  0  0  0  0  0  0  0  0
    9.0340   -1.6740   25.2370 C   0  0  0  0  0  0  0  0  0  0  0  0
    8.9160   -0.4330   24.5670 C   0  0  0  0  0  0  0  0  0  0  0  0
    9.9720    0.4460   23.9380 C   0  0  0  0  0  0  0  0  0  0  0  0
   11.4470   -0.0990   24.0460 C   0  0  0  0  0  0  0  0  0  0  0  0
   11.5040   -1.3220   24.7170 C   0  0  0  0  0  0  0  0  0  0  0  0
   12.8340   -1.7910   24.8260 N   0  0  0  0  0  0  0  0  0  0  0  0
   13.4040   -3.0300   24.3080 C   0  0  0  0  0  0  0  0  0  0  0  0
   13.6570   -3.1260   22.9810 O   0  0  0  0  0  0  0  0  0  0  0  0
   13.5790   -3.8710   25.4920 N   0  0  0  0  0  0  0  0  0  0  0  0
   14.1910   -3.1090   26.3790 C   0  0  0  0  0  0  0  0  0  0  0  0
   13.9100   -4.3950   27.2890 C   0  0  0  0  0  0  0  0  0  0  0  0
   14.5660   -5.0210   26.7910 C   0  0  0  0  0  0  0  0  0  0  0  0
   14.1160   -5.1710   25.9390 C   0  0  0  0  0  0  0  0  0  0  0  0
   10.4310   -2.1150   25.2930 C   0  0  0  0  0  0  0  0  0  0  0  0
    5.4570   -5.1090   23.0820 C   0  0  0  0  0  0  0  0  0  0  0  0
    6.2990   -5.6310   22.0990 C   0  0  0  0  0  0  0  0  0  0  0  0
  1  2  1  0
  2  3  2  0
  2  4  1  0
  4  5  1  0
  5  6  1  0
  6  7  1  0
  7  8  1  0
  8  9  2  0
  8 10  1  0
 10 11  1  0
 11 12  1  0
 12 13  2  0
 13 14  1  0
 14 15  2  0
 15 16  1  0
 16 17  1  0
 17 18  1  0
 18 19  2  0
 18 20  1  0
 20 21  1  0
 21 22  1  0
 22 23  1  0
 20 24  1  0
 23 24  1  0
 12 25  1  0
 16 25  2  0
  7 26  1  0
  4 27  1  0
 26 27  1  0
M  END
