piperidine-amides-9325-covalent
     RDKit          3D

 19 20  0  0  0  0  0  0  0  0999 V2000
    7.0960   -3.2810   19.2320 C   0  0  0  0  0  0  0  0  0  0  0  0
    6.3540   -4.0250   20.2560 C   0  0  0  0  0  0  0  0  0  0  0  0
    5.3310   -4.6470   19.9280 O   0  0  0  0  0  0  0  0  0  0  0  0
    6.8130   -4.0840   21.5850 N   0  0  0  0  0  0  0  0  0  0  0  0
    7.7230   -3.0790   22.0920 C   0  0  0  0  0  0  0  0  0  0  0  0
    7.4530   -2.9960   23.5630 C   0  0  0  0  0  0  0  0  0  0  0  0
    6.1160   -3.5850   23.8770 C   0  0  0  0  0  0  0  0  0  0  0  0
    5.6750   -3.3440   25.2690 C   0  0  0  0  0  0  0  0  0  0  0  0
    4.4490   -3.4360   25.5730 O   0  0  0  0  0  0  0  0  0  0  0  0
    6.5650   -2.9960   26.3030 N   0  0  0  0  0  0  0  0  0  0  0  0
    6.1860   -3.2210   27.7140 C   0  0  0  0  0  0  0  0  0  0  0  0
    5.4480   -2.0120   28.1430 C   0  0  0  0  0  0  0  0  0  0  0  0
    6.0800   -0.6780   27.9590 C   0  0  0  0  0  0  0  0  0  0  0  0
    6.0190   -0.3550   29.4150 C   0  0  0  0  0  0  0  0  0  0  0  0
    7.2710   -0.1430   29.9900 F   0  0  0  0  0  0  0  0  0  0  0  0
    5.1970    0.7180   29.7010 F   0  0  0  0  0  0  0  0  0  0  0  0
    5.4410   -1.7260   29.6120 C   0  0  0  0  0  0  0  0  0  0  0  0
    6.1240   -5.0510   23.5890 C   0  0  0  0  0  0  0  0  0  0  0  0
    6.5290   -5.3010   22.2960 C   0  0  0  0  0  0  0  0  0  0  0  0
  1  2  1  0
  2  3  2  0
  2  4  1  0
  4  5  1  0
  5  6  1  0
  6  7  1  0
  7  8  1  0
  8  9  2  0
  8 10  1  0
 10 11  1  0
 11 12  1  0
 12 13  1  0
 13 14  1  0
 14 15  1  0
 14 16  1  0
 12 17  1  0
 14 17  1  0
  7 18  1  0
  4 19  1  0
 18 19  1  0
M  END
