piperidine-amides-30855-covalent
     RDKit          3D

 23 24  0  0  0  0  0  0  0  0999 V2000
    7.1370   -3.3210   19.2480 C   0  0  0  0  0  0  0  0  0  0  0  0
    6.3750   -4.0450   20.2590 C   0  0  0  0  0  0  0  0  0  0  0  0
    5.3320   -4.6400   19.9280 O   0  0  0  0  0  0  0  0  0  0  0  0
    6.8520   -4.1110   21.5770 N   0  0  0  0  0  0  0  0  0  0  0  0
    7.6580   -3.0680   22.1490 C   0  0  0  0  0  0  0  0  0  0  0  0
    6.8660   -2.6650   23.3500 C   0  0  0  0  0  0  0  0  0  0  0  0
    6.5450   -3.8690   24.1860 C   0  0  0  0  0  0  0  0  0  0  0  0
    5.7820   -3.4980   25.3990 C   0  0  0  0  0  0  0  0  0  0  0  0
    4.5450   -3.2410   25.3080 O   0  0  0  0  0  0  0  0  0  0  0  0
    6.3540   -3.3990   26.6870 N   0  0  0  0  0  0  0  0  0  0  0  0
    6.8450   -4.6350   27.3680 C   0  0  0  0  0  0  0  0  0  0  0  0
    5.7560   -5.5990   27.5740 C   0  0  0  0  0  0  0  0  0  0  0  0
    5.0060   -6.0030   26.3760 C   0  0  0  0  0  0  0  0  0  0  0  0
    6.2740   -2.1570   27.3850 C   0  0  0  0  0  0  0  0  0  0  0  0
    5.2110   -2.0340   28.4560 C   0  0  0  0  0  0  0  0  0  0  0  0
    3.9030   -2.7350   28.2070 C   0  0  0  0  0  0  0  0  0  0  0  0
    2.8660   -2.7010   29.1000 C   0  0  0  0  0  0  0  0  0  0  0  0
    2.9680   -2.0100   30.2950 C   0  0  0  0  0  0  0  0  0  0  0  0
    4.2100   -1.2670   30.6700 C   0  0  0  0  0  0  0  0  0  0  0  0
    5.4260   -1.2350   29.7510 C   0  0  0  0  0  0  0  0  0  0  0  0
    7.0090   -0.2960   30.2170 Br  0  0  0  0  0  0  0  0  0  0  0  0
    5.7700   -4.8590   23.2810 C   0  0  0  0  0  0  0  0  0  0  0  0
    6.4910   -5.2670   22.3950 C   0  0  0  0  0  0  0  0  0  0  0  0
  1  2  1  0
  2  3  2  0
  2  4  1  0
  4  5  1  0
  5  6  1  0
  6  7  1  0
  7  8  1  0
  8  9  2  0
  8 10  1  0
 10 11  1  0
 11 12  1  0
 12 13  1  0
 10 14  1  0
 14 15  1  0
 15 16  2  0
 16 17  1  0
 17 18  2  0
 18 19  1  0
 15 20  1  0
 19 20  2  0
 20 21  1  0
  7 22  1  0
  4 23  1  0
 22 23  1  0
M  END
