piperidine-amides-21571-covalent
     RDKit          3D

 23 24  0  0  0  0  0  0  0  0999 V2000
    7.0740   -3.2690   19.2360 C   0  0  0  0  0  0  0  0  0  0  0  0
    6.3330   -4.0330   20.2480 C   0  0  0  0  0  0  0  0  0  0  0  0
    5.2480   -4.5410   19.8740 O   0  0  0  0  0  0  0  0  0  0  0  0
    6.8450   -4.2230   21.5360 N   0  0  0  0  0  0  0  0  0  0  0  0
    6.5750   -5.4390   22.2610 C   0  0  0  0  0  0  0  0  0  0  0  0
    5.9510   -5.0620   23.5750 C   0  0  0  0  0  0  0  0  0  0  0  0
    6.7010   -3.9460   24.2560 C   0  0  0  0  0  0  0  0  0  0  0  0
    5.9070   -3.4240   25.3910 C   0  0  0  0  0  0  0  0  0  0  0  0
    4.7740   -2.9550   25.1490 O   0  0  0  0  0  0  0  0  0  0  0  0
    6.3600   -3.4210   26.7230 N   0  0  0  0  0  0  0  0  0  0  0  0
    6.5350   -2.1480   27.3900 C   0  0  0  0  0  0  0  0  0  0  0  0
    6.8360   -4.6650   27.3150 C   0  0  0  0  0  0  0  0  0  0  0  0
    5.8800   -5.6410   27.2900 C   0  0  0  0  0  0  0  0  0  0  0  0
    4.6090   -5.3110   27.8330 O   0  0  0  0  0  0  0  0  0  0  0  0
    3.5730   -6.1740   27.8250 C   0  0  0  0  0  0  0  0  0  0  0  0
    2.6220   -6.0000   28.8190 C   0  0  0  0  0  0  0  0  0  0  0  0
    2.7740   -6.4770   30.1140 C   0  0  0  0  0  0  0  0  0  0  0  0
    1.8490   -6.3290   31.1430 C   0  0  0  0  0  0  0  0  0  0  0  0
    0.5190   -5.6110   30.9910 C   0  0  0  0  0  0  0  0  0  0  0  0
    0.3850   -5.1030   29.5650 C   0  0  0  0  0  0  0  0  0  0  0  0
    1.4570   -5.3270   28.5390 C   0  0  0  0  0  0  0  0  0  0  0  0
    6.9360   -2.7920   23.3150 C   0  0  0  0  0  0  0  0  0  0  0  0
    7.6570   -3.2130   22.2250 C   0  0  0  0  0  0  0  0  0  0  0  0
  1  2  1  0
  2  3  2  0
  2  4  1  0
  4  5  1  0
  5  6  1  0
  6  7  1  0
  7  8  1  0
  8  9  2  0
  8 10  1  0
 10 11  1  0
 10 12  1  0
 12 13  1  0
 13 14  1  0
 14 15  1  0
 15 16  1  0
 16 17  2  0
 17 18  1  0
 18 19  2  0
 19 20  1  0
 16 21  1  0
 20 21  2  0
  7 22  1  0
  4 23  1  0
 22 23  1  0
M  END
