piperidine-amides-32496-covalent
     RDKit          3D

 29 31  0  0  0  0  0  0  0  0999 V2000
    7.0630   -3.3230   19.3350 C   0  0  0  0  0  0  0  0  0  0  0  0
    6.3660   -4.1820   20.3320 C   0  0  0  0  0  0  0  0  0  0  0  0
    5.3510   -4.8040   19.9700 O   0  0  0  0  0  0  0  0  0  0  0  0
    6.8850   -4.3240   21.6430 N   0  0  0  0  0  0  0  0  0  0  0  0
    6.6590   -5.5550   22.3720 C   0  0  0  0  0  0  0  0  0  0  0  0
    6.3310   -5.2310   23.8440 C   0  0  0  0  0  0  0  0  0  0  0  0
    6.1380   -3.7590   23.9670 C   0  0  0  0  0  0  0  0  0  0  0  0
    5.7770   -3.2920   25.3280 C   0  0  0  0  0  0  0  0  0  0  0  0
    4.5690   -3.3470   25.5880 O   0  0  0  0  0  0  0  0  0  0  0  0
    6.7200   -2.8110   26.2570 N   0  0  0  0  0  0  0  0  0  0  0  0
    7.1120   -3.5150   27.4110 C   0  0  0  0  0  0  0  0  0  0  0  0
    6.9280   -2.6820   28.4950 C   0  0  0  0  0  0  0  0  0  0  0  0
    5.6220   -2.6030   29.0570 C   0  0  0  0  0  0  0  0  0  0  0  0
    5.2730   -1.7810   30.1140 C   0  0  0  0  0  0  0  0  0  0  0  0
    6.2790   -0.9060   30.7430 C   0  0  0  0  0  0  0  0  0  0  0  0
    5.9210   -0.0830   31.7970 F   0  0  0  0  0  0  0  0  0  0  0  0
    7.7030   -0.9390   30.2140 C   0  0  0  0  0  0  0  0  0  0  0  0
    7.9160   -1.9030   29.0390 C   0  0  0  0  0  0  0  0  0  0  0  0
    6.4660   -1.4820   26.7230 C   0  0  0  0  0  0  0  0  0  0  0  0
    7.1400   -1.1690   27.9760 C   0  0  0  0  0  0  0  0  0  0  0  0
    6.8370    0.2320   28.4880 C   0  0  0  0  0  0  0  0  0  0  0  0
    6.0790    1.3070   28.0590 C   0  0  0  0  0  0  0  0  0  0  0  0
    5.4800    0.7520   26.7290 C   0  0  0  0  0  0  0  0  0  0  0  0
    4.5720    1.7080   25.9790 C   0  0  0  0  0  0  0  0  0  0  0  0
    3.4760    2.2340   26.5680 N   0  0  0  0  0  0  0  0  0  0  0  0
    4.8010    2.1050   24.6520 O   0  0  0  0  0  0  0  0  0  0  0  0
    5.6790   -0.5100   26.1640 C   0  0  0  0  0  0  0  0  0  0  0  0
    7.3520   -2.9880   23.5290 C   0  0  0  0  0  0  0  0  0  0  0  0
    7.6280   -3.2280   22.2010 C   0  0  0  0  0  0  0  0  0  0  0  0
  1  2  1  0
  2  3  2  0
  2  4  1  0
  4  5  1  0
  5  6  1  0
  6  7  1  0
  7  8  1  0
  8  9  2  0
  8 10  1  0
 10 11  1  0
 11 12  1  0
 12 13  2  0
 13 14  1  0
 14 15  2  0
 15 16  1  0
 15 17  1  0
 12 18  1  0
 17 18  2  0
 10 19  1  0
 19 20  2  0
 20 21  1  0
 21 22  2  0
 22 23  1  0
 23 24  1  0
 24 25  1  0
 24 26  2  0
 19 27  1  0
 23 27  2  0
  7 28  1  0
  4 29  1  0
 28 29  1  0
M  END
