piperidine-amides-125-covalent
     RDKit          3D

 24 24  0  0  0  0  0  0  0  0999 V2000
    7.1000   -3.3790   19.2770 C   0  0  0  0  0  0  0  0  0  0  0  0
    6.4210   -4.1380   20.3010 C   0  0  0  0  0  0  0  0  0  0  0  0
    5.3440   -4.7170   19.9600 O   0  0  0  0  0  0  0  0  0  0  0  0
    6.9340   -4.3220   21.6090 N   0  0  0  0  0  0  0  0  0  0  0  0
    7.8180   -3.2910   22.1870 C   0  0  0  0  0  0  0  0  0  0  0  0
    6.7930   -2.6280   23.1650 C   0  0  0  0  0  0  0  0  0  0  0  0
    6.4080   -3.7110   24.1500 C   0  0  0  0  0  0  0  0  0  0  0  0
    5.5920   -3.0290   25.3280 C   0  0  0  0  0  0  0  0  0  0  0  0
    4.8190   -2.2070   24.8670 O   0  0  0  0  0  0  0  0  0  0  0  0
    5.9190   -3.5010   26.4580 N   0  0  0  0  0  0  0  0  0  0  0  0
    6.1460   -3.9460   27.7230 C   0  0  0  0  0  0  0  0  0  0  0  0
    6.4210   -5.0450   28.4770 C   0  0  0  0  0  0  0  0  0  0  0  0
    5.3270   -5.5390   29.2140 C   0  0  0  0  0  0  0  0  0  0  0  0
    4.7020   -4.4970   29.9120 O   0  0  0  0  0  0  0  0  0  0  0  0
    4.9360   -6.8070   29.2410 N   0  0  0  0  0  0  0  0  0  0  0  0
    5.9230   -7.5840   29.7960 C   0  0  0  0  0  0  0  0  0  0  0  0
    3.4900   -6.8570   29.4970 C   0  0  0  0  0  0  0  0  0  0  0  0
    3.4180   -7.4480   30.7630 C   0  0  0  0  0  0  0  0  0  0  0  0
    2.3260   -7.0960   31.5730 C   0  0  0  0  0  0  0  0  0  0  0  0
    1.0210   -7.2090   31.1240 O   0  0  0  0  0  0  0  0  0  0  0  0
    2.5060   -6.6170   32.8550 O   0  0  0  0  0  0  0  0  0  0  0  0
    3.8100   -6.3460   33.3520 C   0  0  0  0  0  0  0  0  0  0  0  0
    5.8010   -4.9250   23.4950 C   0  0  0  0  0  0  0  0  0  0  0  0
    6.5220   -5.4170   22.4340 C   0  0  0  0  0  0  0  0  0  0  0  0
  1  2  1  0
  2  3  2  0
  2  4  1  0
  4  5  1  0
  5  6  1  0
  6  7  1  0
  7  8  1  0
  8  9  2  0
  8 10  1  0
 10 11  1  0
 11 12  1  0
 12 13  1  0
 13 14  2  0
 13 15  1  0
 15 16  1  0
 15 17  1  0
 17 18  1  0
 18 19  1  0
 19 20  2  0
 19 21  1  0
 21 22  1  0
  7 23  1  0
  4 24  1  0
 23 24  1  0
M  END
