piperidine-amides-2879-covalent
     RDKit          3D

 24 26  0  0  0  0  0  0  0  0999 V2000
    7.1800   -4.0440   19.6610 C   0  0  0  0  0  0  0  0  0  0  0  0
    5.9730   -3.8970   20.2990 C   0  0  0  0  0  0  0  0  0  0  0  0
    4.9770   -3.9590   19.5920 O   0  0  0  0  0  0  0  0  0  0  0  0
    6.0280   -3.8190   21.7060 N   0  0  0  0  0  0  0  0  0  0  0  0
    5.7710   -5.0720   22.3870 C   0  0  0  0  0  0  0  0  0  0  0  0
    5.7240   -4.8370   23.8590 C   0  0  0  0  0  0  0  0  0  0  0  0
    5.7130   -3.3350   24.0220 C   0  0  0  0  0  0  0  0  0  0  0  0
    5.3840   -2.9350   25.4010 C   0  0  0  0  0  0  0  0  0  0  0  0
    5.7610   -1.8720   25.9050 O   0  0  0  0  0  0  0  0  0  0  0  0
    4.5760   -3.7980   26.1570 N   0  0  0  0  0  0  0  0  0  0  0  0
    4.6530   -3.7230   27.5860 C   0  0  0  0  0  0  0  0  0  0  0  0
    6.0200   -4.1600   27.8810 C   0  0  0  0  0  0  0  0  0  0  0  0
    7.0200   -3.2070   28.0320 C   0  0  0  0  0  0  0  0  0  0  0  0
    8.3300   -3.5680   28.2990 C   0  0  0  0  0  0  0  0  0  0  0  0
    8.6260   -4.8920   28.4050 C   0  0  0  0  0  0  0  0  0  0  0  0
    7.5730   -5.8070   28.2510 C   0  0  0  0  0  0  0  0  0  0  0  0
    6.2930   -5.5030   27.9990 C   0  0  0  0  0  0  0  0  0  0  0  0
    5.3040   -6.3490   27.8580 O   0  0  0  0  0  0  0  0  0  0  0  0
    4.3220   -7.1410   28.5210 C   0  0  0  0  0  0  0  0  0  0  0  0
    3.8970   -6.4670   29.6700 C   0  0  0  0  0  0  0  0  0  0  0  0
    2.6430   -6.3390   30.0600 C   0  0  0  0  0  0  0  0  0  0  0  0
    2.8890   -7.7200   29.9190 C   0  0  0  0  0  0  0  0  0  0  0  0
    7.0310   -2.7630   23.6080 C   0  0  0  0  0  0  0  0  0  0  0  0
    7.1420   -3.0390   22.1580 C   0  0  0  0  0  0  0  0  0  0  0  0
  1  2  1  0
  2  3  2  0
  2  4  1  0
  4  5  1  0
  5  6  1  0
  6  7  1  0
  7  8  1  0
  8  9  2  0
  8 10  1  0
 10 11  1  0
 11 12  1  0
 12 13  2  0
 13 14  1  0
 14 15  2  0
 15 16  1  0
 12 17  1  0
 16 17  2  0
 17 18  1  0
 18 19  1  0
 19 20  1  0
 20 21  1  0
 20 22  1  0
 21 22  1  0
  7 23  1  0
  4 24  1  0
 23 24  1  0
M  END
