piperidine-amides-1303-covalent
     RDKit          3D

 22 24  0  0  0  0  0  0  0  0999 V2000
    7.0970   -3.3250   19.2910 C   0  0  0  0  0  0  0  0  0  0  0  0
    6.3250   -4.1060   20.2890 C   0  0  0  0  0  0  0  0  0  0  0  0
    5.3000   -4.7060   19.9370 O   0  0  0  0  0  0  0  0  0  0  0  0
    6.8200   -4.1710   21.6020 N   0  0  0  0  0  0  0  0  0  0  0  0
    7.7050   -3.1480   22.1280 C   0  0  0  0  0  0  0  0  0  0  0  0
    7.5710   -3.1040   23.6470 C   0  0  0  0  0  0  0  0  0  0  0  0
    6.2100   -3.5960   23.9760 C   0  0  0  0  0  0  0  0  0  0  0  0
    5.8210   -3.2930   25.3600 C   0  0  0  0  0  0  0  0  0  0  0  0
    4.6170   -3.3770   25.6360 O   0  0  0  0  0  0  0  0  0  0  0  0
    6.8190   -2.9230   26.2680 N   0  0  0  0  0  0  0  0  0  0  0  0
    6.7660   -1.8450   27.1910 C   0  0  0  0  0  0  0  0  0  0  0  0
    7.4430   -1.9150   28.4770 C   0  0  0  0  0  0  0  0  0  0  0  0
    7.0890   -0.6750   28.9870 N   0  0  0  0  0  0  0  0  0  0  0  0
    6.4140   -0.3990   27.8960 C   0  0  0  0  0  0  0  0  0  0  0  0
    7.1200   -1.4750   28.2710 C   0  0  0  0  0  0  0  0  0  0  0  0
    7.0680   -0.4250   29.1970 C   0  0  0  0  0  0  0  0  0  0  0  0
    6.2830    0.8780   28.8770 C   0  0  0  0  0  0  0  0  0  0  0  0
    5.6410    0.6630   27.3670 C   0  0  0  0  0  0  0  0  0  0  0  0
    4.8840    1.6110   26.7620 F   0  0  0  0  0  0  0  0  0  0  0  0
    5.9820   -0.6270   26.8000 C   0  0  0  0  0  0  0  0  0  0  0  0
    6.0370   -5.0460   23.7030 C   0  0  0  0  0  0  0  0  0  0  0  0
    6.6140   -5.3970   22.3500 C   0  0  0  0  0  0  0  0  0  0  0  0
  1  2  1  0
  2  3  2  0
  2  4  1  0
  4  5  1  0
  5  6  1  0
  6  7  1  0
  7  8  1  0
  8  9  2  0
  8 10  1  0
 10 11  1  0
 11 12  2  0
 12 13  1  0
 13 14  1  0
 14 15  1  0
 15 16  2  0
 16 17  1  0
 17 18  2  0
 18 19  1  0
 11 20  1  0
 14 20  2  0
 18 20  1  0
  7 21  1  0
  4 22  1  0
 21 22  1  0
M  END
