piperidine-amides-11125-covalent
     RDKit          3D

 20 20  0  0  0  0  0  0  0  0999 V2000
    7.1540   -3.2410   19.1340 C   0  0  0  0  0  0  0  0  0  0  0  0
    6.3830   -3.9420   20.1590 C   0  0  0  0  0  0  0  0  0  0  0  0
    5.2990   -4.4730   19.8580 O   0  0  0  0  0  0  0  0  0  0  0  0
    6.8680   -4.0800   21.4580 N   0  0  0  0  0  0  0  0  0  0  0  0
    7.7630   -3.1320   22.1010 C   0  0  0  0  0  0  0  0  0  0  0  0
    7.0770   -2.6180   23.3380 C   0  0  0  0  0  0  0  0  0  0  0  0
    6.5360   -3.7320   24.1810 C   0  0  0  0  0  0  0  0  0  0  0  0
    5.8110   -3.2440   25.3810 C   0  0  0  0  0  0  0  0  0  0  0  0
    4.7610   -2.5470   25.2530 O   0  0  0  0  0  0  0  0  0  0  0  0
    6.2260   -3.5260   26.7070 N   0  0  0  0  0  0  0  0  0  0  0  0
    5.6770   -4.7040   27.4160 C   0  0  2  0  0  0  0  0  0  0  0  0
    6.3700   -4.8810   28.7010 C   0  0  0  0  0  0  0  0  0  0  0  0
    5.6330   -5.0550   29.7040 O   0  0  0  0  0  0  0  0  0  0  0  0
    5.1600   -6.2950   29.9720 C   0  0  0  0  0  0  0  0  0  0  0  0
    5.9870   -7.5430   29.8460 C   0  0  0  0  0  0  0  0  0  0  0  0
    5.6730   -6.0030   26.8770 C   0  0  0  0  0  0  0  0  0  0  0  0
    4.6160   -6.8990   27.3990 C   0  0  0  0  0  0  0  0  0  0  0  0
    5.3110   -5.8910   25.4020 C   0  0  0  0  0  0  0  0  0  0  0  0
    5.6280   -4.6080   23.3490 C   0  0  0  0  0  0  0  0  0  0  0  0
    6.4400   -5.2100   22.2400 C   0  0  0  0  0  0  0  0  0  0  0  0
  1  2  1  0
  2  3  2  0
  2  4  1  0
  4  5  1  0
  5  6  1  0
  6  7  1  0
  7  8  1  0
  8  9  2  0
  8 10  1  0
 10 11  1  0
 11 12  1  1
 12 13  1  0
 13 14  1  0
 14 15  1  0
 11 16  1  0
 16 17  1  0
 16 18  1  0
  7 19  1  0
  4 20  1  0
 19 20  1  0
M  END
