piperidine-amides-4922-covalent
     RDKit          3D

 23 24  0  0  0  0  0  0  0  0999 V2000
    7.1000   -3.3040   19.2460 C   0  0  0  0  0  0  0  0  0  0  0  0
    6.4120   -4.1190   20.2690 C   0  0  0  0  0  0  0  0  0  0  0  0
    5.3460   -4.6690   19.9290 O   0  0  0  0  0  0  0  0  0  0  0  0
    6.9790   -4.3120   21.5330 N   0  0  0  0  0  0  0  0  0  0  0  0
    7.6920   -3.2400   22.1540 C   0  0  0  0  0  0  0  0  0  0  0  0
    7.2380   -2.8910   23.4980 C   0  0  0  0  0  0  0  0  0  0  0  0
    6.5170   -3.9550   24.2200 C   0  0  0  0  0  0  0  0  0  0  0  0
    5.7760   -3.3500   25.3520 C   0  0  0  0  0  0  0  0  0  0  0  0
    4.5930   -3.0100   25.1620 O   0  0  0  0  0  0  0  0  0  0  0  0
    6.3680   -3.1580   26.6130 N   0  0  0  0  0  0  0  0  0  0  0  0
    6.4210   -1.8230   27.2560 C   0  0  0  0  0  0  0  0  0  0  0  0
    5.8810   -0.6030   26.6120 C   0  0  0  0  0  0  0  0  0  0  0  0
    5.9310    0.6960   27.2660 C   0  0  0  0  0  0  0  0  0  0  0  0
    6.4900    0.8020   28.5290 C   0  0  0  0  0  0  0  0  0  0  0  0
    7.0360   -0.2630   29.2400 C   0  0  0  0  0  0  0  0  0  0  0  0
    7.7460   -0.1780   30.8200 S   0  0  0  0  0  0  0  0  0  0  0  0
    6.8640    0.6380   32.1120 C   0  0  0  0  0  0  0  0  0  0  0  0
    7.6460    0.7250   33.2390 F   0  0  0  0  0  0  0  0  0  0  0  0
    6.5320    1.9480   31.7000 F   0  0  0  0  0  0  0  0  0  0  0  0
    5.6960   -0.0160   32.3320 F   0  0  0  0  0  0  0  0  0  0  0  0
    6.9990   -1.6050   28.5870 C   0  0  0  0  0  0  0  0  0  0  0  0
    5.7120   -4.8800   23.3890 C   0  0  0  0  0  0  0  0  0  0  0  0
    6.5010   -5.3860   22.3570 C   0  0  0  0  0  0  0  0  0  0  0  0
  1  2  1  0
  2  3  2  0
  2  4  1  0
  4  5  1  0
  5  6  1  0
  6  7  1  0
  7  8  1  0
  8  9  2  0
  8 10  1  0
 10 11  1  0
 11 12  2  0
 12 13  1  0
 13 14  2  0
 14 15  1  0
 15 16  1  0
 16 17  1  0
 17 18  1  0
 17 19  1  0
 17 20  1  0
 11 21  1  0
 15 21  2  0
  7 22  1  0
  4 23  1  0
 22 23  1  0
M  END
