piperidine-amides-12866-covalent
     RDKit          3D

 21 21  0  0  0  0  0  0  0  0999 V2000
    7.0770   -3.3070   19.2220 C   0  0  0  0  0  0  0  0  0  0  0  0
    6.3830   -4.0770   20.2790 C   0  0  0  0  0  0  0  0  0  0  0  0
    5.3370   -4.6650   19.9310 O   0  0  0  0  0  0  0  0  0  0  0  0
    6.9140   -4.1740   21.5810 N   0  0  0  0  0  0  0  0  0  0  0  0
    6.6130   -5.3170   22.3780 C   0  0  0  0  0  0  0  0  0  0  0  0
    6.0540   -4.9650   23.6860 C   0  0  0  0  0  0  0  0  0  0  0  0
    6.0800   -3.5110   23.9470 C   0  0  0  0  0  0  0  0  0  0  0  0
    5.6490   -3.1690   25.3270 C   0  0  0  0  0  0  0  0  0  0  0  0
    4.4330   -3.0090   25.5210 O   0  0  0  0  0  0  0  0  0  0  0  0
    6.5590   -3.0120   26.3870 N   0  0  0  0  0  0  0  0  0  0  0  0
    6.2720   -3.4930   27.7630 C   0  0  0  0  0  0  0  0  0  0  0  0
    5.9060   -4.9380   27.8100 C   0  0  0  0  0  0  0  0  0  0  0  0
    4.6260   -5.2500   28.4430 C   0  0  1  0  0  0  0  0  0  0  0  0
    3.6710   -5.2440   27.5930 O   0  0  0  0  0  0  0  0  0  0  0  0
    2.8770   -4.0980   27.6740 C   0  0  0  0  0  0  0  0  0  0  0  0
    2.1440   -3.6020   26.6140 C   0  0  0  0  0  0  0  0  0  0  0  0
    4.5650   -6.5590   29.1140 C   0  0  0  0  0  0  0  0  0  0  0  0
    4.8360   -7.5930   28.2910 C   0  0  0  0  0  0  0  0  0  0  0  0
    3.3940   -6.7800   29.8140 C   0  0  0  0  0  0  0  0  0  0  0  0
    7.4280   -2.9500   23.6030 C   0  0  0  0  0  0  0  0  0  0  0  0
    7.7460   -3.1270   22.1650 C   0  0  0  0  0  0  0  0  0  0  0  0
  1  2  1  0
  2  3  2  0
  2  4  1  0
  4  5  1  0
  5  6  1  0
  6  7  1  0
  7  8  1  0
  8  9  2  0
  8 10  1  0
 10 11  1  0
 11 12  1  0
 13 12  1  6
 13 14  1  0
 14 15  1  0
 15 16  1  0
 13 17  1  0
 17 18  1  0
 17 19  1  0
  7 20  1  0
  4 21  1  0
 20 21  1  0
M  END
