piperidine-amides-34192-covalent
     RDKit          3D

 30 33  0  0  0  0  0  0  0  0999 V2000
    7.1290   -3.3480   19.3300 C   0  0  0  0  0  0  0  0  0  0  0  0
    6.4180   -4.1720   20.3180 C   0  0  0  0  0  0  0  0  0  0  0  0
    5.3990   -4.8190   19.9820 O   0  0  0  0  0  0  0  0  0  0  0  0
    6.9140   -4.2690   21.6260 N   0  0  0  0  0  0  0  0  0  0  0  0
    7.8060   -3.2490   22.1260 C   0  0  0  0  0  0  0  0  0  0  0  0
    7.0470   -2.5400   23.2310 C   0  0  0  0  0  0  0  0  0  0  0  0
    6.6910   -3.6180   24.2170 C   0  0  0  0  0  0  0  0  0  0  0  0
    5.7210   -3.0400   25.1560 C   0  0  0  0  0  0  0  0  0  0  0  0
    4.7130   -2.4900   24.6680 O   0  0  0  0  0  0  0  0  0  0  0  0
    5.8740   -3.1050   26.5580 N   0  0  0  0  0  0  0  0  0  0  0  0
    6.1600   -1.8590   27.2280 C   0  0  0  0  0  0  0  0  0  0  0  0
    5.6790   -0.5430   26.6480 C   0  0  0  0  0  0  0  0  0  0  0  0
    5.9530    0.6140   27.3350 C   0  0  0  0  0  0  0  0  0  0  0  0
    6.6500    0.6070   28.5260 C   0  0  0  0  0  0  0  0  0  0  0  0
    7.1070   -0.5940   29.0700 C   0  0  0  0  0  0  0  0  0  0  0  0
    6.9140   -1.8230   28.5090 C   0  0  0  0  0  0  0  0  0  0  0  0
    4.6890   -3.7600   27.1250 C   0  0  0  0  0  0  0  0  0  0  0  0
    4.6340   -4.6960   28.0670 N   0  0  0  0  0  0  0  0  0  0  0  0
    3.3580   -5.1670   28.4500 C   0  0  0  0  0  0  0  0  0  0  0  0
    3.3930   -6.2140   29.5210 C   0  0  0  0  0  0  0  0  0  0  0  0
    2.0460   -6.5550   29.1020 C   0  0  0  0  0  0  0  0  0  0  0  0
    1.4460   -7.6020   29.8280 C   0  0  0  0  0  0  0  0  0  0  0  0
    2.0910   -8.2590   30.8660 C   0  0  0  0  0  0  0  0  0  0  0  0
    1.4500   -9.2670   31.5360 F   0  0  0  0  0  0  0  0  0  0  0  0
    3.5080   -7.8750   31.2740 C   0  0  0  0  0  0  0  0  0  0  0  0
    4.1530   -6.7590   30.5010 C   0  0  0  0  0  0  0  0  0  0  0  0
    2.2410   -4.6420   27.8350 C   0  0  0  0  0  0  0  0  0  0  0  0
    2.9620   -3.5150   26.7430 S   0  0  0  0  0  0  0  0  0  0  0  0
    6.0560   -4.8740   23.6670 C   0  0  0  0  0  0  0  0  0  0  0  0
    6.5950   -5.3570   22.5100 C   0  0  0  0  0  0  0  0  0  0  0  0
  1  2  1  0
  2  3  2  0
  2  4  1  0
  4  5  1  0
  5  6  1  0
  6  7  1  0
  7  8  1  0
  8  9  2  0
  8 10  1  0
 10 11  1  0
 11 12  2  0
 12 13  1  0
 13 14  2  0
 14 15  1  0
 11 16  1  0
 15 16  2  0
 10 17  1  0
 17 18  2  0
 18 19  1  0
 19 20  1  0
 20 21  2  0
 21 22  1  0
 22 23  2  0
 23 24  1  0
 23 25  1  0
 20 26  1  0
 25 26  2  0
 19 27  2  0
 17 28  1  0
 27 28  1  0
  7 29  1  0
  4 30  1  0
 29 30  1  0
M  END
