piperidine-amides-27265-covalent
     RDKit          3D

 26 28  0  0  0  0  0  0  0  0999 V2000
    7.1230   -3.2920   19.2120 C   0  0  0  0  0  0  0  0  0  0  0  0
    6.4120   -4.0560   20.2380 C   0  0  0  0  0  0  0  0  0  0  0  0
    5.3290   -4.5990   19.9020 O   0  0  0  0  0  0  0  0  0  0  0  0
    6.9720   -4.1980   21.5030 N   0  0  0  0  0  0  0  0  0  0  0  0
    6.7500   -5.3950   22.2740 C   0  0  0  0  0  0  0  0  0  0  0  0
    6.0350   -5.0010   23.5310 C   0  0  0  0  0  0  0  0  0  0  0  0
    6.7080   -3.8420   24.2220 C   0  0  0  0  0  0  0  0  0  0  0  0
    5.9070   -3.4200   25.3740 C   0  0  0  0  0  0  0  0  0  0  0  0
    4.8650   -2.7530   25.1790 O   0  0  0  0  0  0  0  0  0  0  0  0
    6.2680   -3.7430   26.6770 N   0  0  0  0  0  0  0  0  0  0  0  0
    5.6530   -3.0330   27.7660 C   0  0  0  0  0  0  0  0  0  0  0  0
    6.0030   -3.7080   29.0660 C   0  0  0  0  0  0  0  0  0  0  0  0
    6.7450   -4.8420   29.0700 C   0  0  0  0  0  0  0  0  0  0  0  0
    6.5920   -5.7090   28.0530 C   0  0  1  0  0  0  0  0  0  0  0  0
    5.4710   -6.5300   28.2440 C   0  0  0  0  0  0  0  0  0  0  0  0
    4.5680   -6.8920   27.2500 C   0  0  0  0  0  0  0  0  0  0  0  0
    3.3550   -7.4800   27.5940 C   0  0  0  0  0  0  0  0  0  0  0  0
    2.2550   -7.9410   26.6620 C   0  0  0  0  0  0  0  0  0  0  0  0
    2.6330   -7.6820   25.2230 C   0  0  0  0  0  0  0  0  0  0  0  0
    1.8150   -7.9920   23.9850 C   0  0  0  0  0  0  0  0  0  0  0  0
    1.8800   -7.1260   22.9540 N   0  0  0  0  0  0  0  0  0  0  0  0
    4.0140   -7.0180   24.9190 C   0  0  0  0  0  0  0  0  0  0  0  0
    4.8970   -6.6610   25.9210 C   0  0  0  0  0  0  0  0  0  0  0  0
    6.7450   -5.1040   26.8330 C   0  0  0  0  0  0  0  0  0  0  0  0
    6.8300   -2.6610   23.3130 C   0  0  0  0  0  0  0  0  0  0  0  0
    7.6360   -3.0460   22.0880 C   0  0  0  0  0  0  0  0  0  0  0  0
  1  2  1  0
  2  3  2  0
  2  4  1  0
  4  5  1  0
  5  6  1  0
  6  7  1  0
  7  8  1  0
  8  9  2  0
  8 10  1  0
 10 11  1  0
 11 12  1  0
 12 13  1  0
 13 14  1  0
 14 15  1  6
 15 16  1  0
 16 17  2  0
 17 18  1  0
 18 19  2  0
 19 20  1  0
 20 21  3  0
 19 22  1  0
 16 23  1  0
 22 23  2  0
 10 24  1  0
 14 24  1  0
  7 25  1  0
  4 26  1  0
 25 26  1  0
M  END
