piperidine-amides-35535-covalent
     RDKit          3D

 31 33  0  0  0  0  0  0  0  0999 V2000
    7.0660   -3.3430   19.3560 C   0  0  0  0  0  0  0  0  0  0  0  0
    6.3950   -4.2400   20.3310 C   0  0  0  0  0  0  0  0  0  0  0  0
    5.3570   -4.7860   19.9620 O   0  0  0  0  0  0  0  0  0  0  0  0
    6.9660   -4.4830   21.5830 N   0  0  0  0  0  0  0  0  0  0  0  0
    7.7360   -3.4940   22.2880 C   0  0  0  0  0  0  0  0  0  0  0  0
    6.8180   -2.6970   23.1560 C   0  0  0  0  0  0  0  0  0  0  0  0
    5.5100   -3.4680   23.4270 C   0  0  0  0  0  0  0  0  0  0  0  0
    4.8930   -2.7950   24.5860 C   0  0  0  0  0  0  0  0  0  0  0  0
    3.6750   -2.7700   24.7760 O   0  0  0  0  0  0  0  0  0  0  0  0
    5.7820   -2.2390   25.4650 N   0  0  0  0  0  0  0  0  0  0  0  0
    6.5760   -3.1680   26.0780 C   0  0  0  0  0  0  0  0  0  0  0  0
    6.6420   -2.4180   27.3480 C   0  0  0  0  0  0  0  0  0  0  0  0
    6.9950   -1.1300   27.1830 C   0  0  0  0  0  0  0  0  0  0  0  0
    7.1010   -0.2580   28.1410 C   0  0  0  0  0  0  0  0  0  0  0  0
    6.8600   -0.6580   29.3380 C   0  0  0  0  0  0  0  0  0  0  0  0
    7.0090    0.5880   30.7920 Br  0  0  0  0  0  0  0  0  0  0  0  0
    6.4620   -2.0180   29.7310 C   0  0  0  0  0  0  0  0  0  0  0  0
    6.3170   -3.0880   28.6150 C   0  0  0  0  0  0  0  0  0  0  0  0
    5.8960   -4.5490   28.7800 C   0  0  0  0  0  0  0  0  0  0  0  0
    5.7660   -5.1600   27.5690 F   0  0  0  0  0  0  0  0  0  0  0  0
    4.7960   -4.8290   29.5090 F   0  0  0  0  0  0  0  0  0  0  0  0
    6.8360   -5.4000   29.3990 F   0  0  0  0  0  0  0  0  0  0  0  0
    5.5780   -1.0850   26.3360 C   0  0  0  0  0  0  0  0  0  0  0  0
    6.0170    0.1360   25.7800 N   0  0  0  0  0  0  0  0  0  0  0  0
    5.9530    1.3300   26.5310 C   0  0  0  0  0  0  0  0  0  0  0  0
    5.4090    1.2770   27.9380 C   0  0  0  0  0  0  0  0  0  0  0  0
    4.9310    0.0000   28.5130 C   0  0  0  0  0  0  0  0  0  0  0  0
    4.9590   -1.3160   27.7540 C   0  0  0  0  0  0  0  0  0  0  0  0
    4.4860   -2.4690   28.3430 C   0  0  0  0  0  0  0  0  0  0  0  0
    5.8020   -4.9340   23.6230 C   0  0  0  0  0  0  0  0  0  0  0  0
    6.4750   -5.5840   22.4090 C   0  0  0  0  0  0  0  0  0  0  0  0
  1  2  1  0
  2  3  2  0
  2  4  1  0
  4  5  1  0
  5  6  1  0
  6  7  1  0
  7  8  1  0
  8  9  2  0
  8 10  1  0
 10 11  1  0
 11 12  1  0
 12 13  2  0
 13 14  1  0
 14 15  2  0
 15 16  1  0
 15 17  1  0
 12 18  1  0
 17 18  2  0
 18 19  1  0
 19 20  1  0
 19 21  1  0
 19 22  1  0
 10 23  1  0
 23 24  2  0
 24 25  1  0
 25 26  2  0
 26 27  1  0
 23 28  1  0
 27 28  2  0
 28 29  1  0
  7 30  1  0
  4 31  1  0
 30 31  1  0
M  END
