piperidine-amides-19526-covalent
     RDKit          3D

 22 23  0  0  0  0  0  0  0  0999 V2000
    7.1090   -3.3490   19.4620 C   0  0  0  0  0  0  0  0  0  0  0  0
    6.4210   -4.1810   20.4280 C   0  0  0  0  0  0  0  0  0  0  0  0
    5.4670   -4.9190   20.0070 O   0  0  0  0  0  0  0  0  0  0  0  0
    6.8010   -4.2060   21.7930 N   0  0  0  0  0  0  0  0  0  0  0  0
    7.7980   -3.1650   22.2110 C   0  0  0  0  0  0  0  0  0  0  0  0
    7.6190   -3.0470   23.7760 C   0  0  0  0  0  0  0  0  0  0  0  0
    6.2480   -3.5880   24.0360 C   0  0  0  0  0  0  0  0  0  0  0  0
    5.4230   -2.9380   25.2490 C   0  0  0  0  0  0  0  0  0  0  0  0
    4.4550   -2.3700   24.7670 O   0  0  0  0  0  0  0  0  0  0  0  0
    5.9250   -3.1480   26.4100 N   0  0  0  0  0  0  0  0  0  0  0  0
    6.1910   -3.8190   27.5790 C   0  0  0  0  0  0  0  0  0  0  0  0
    6.1370   -5.1250   28.0010 C   0  0  0  0  0  0  0  0  0  0  0  0
    5.8790   -6.0170   26.9350 C   0  0  0  0  0  0  0  0  0  0  0  0
    4.5380   -6.6310   26.8340 C   0  0  0  0  0  0  0  0  0  0  0  0
    6.4300   -1.8640   26.9450 C   0  0  0  0  0  0  0  0  0  0  0  0
    6.2820   -1.7400   28.3480 C   0  0  0  0  0  0  0  0  0  0  0  0
    7.3510   -1.0460   28.9360 C   0  0  0  0  0  0  0  0  0  0  0  0
    6.1490   -0.0810   28.7510 C   0  0  0  0  0  0  0  0  0  0  0  0
    5.8380    0.3790   27.2830 C   0  0  0  0  0  0  0  0  0  0  0  0
    5.9140   -0.6670   26.4160 C   0  0  0  0  0  0  0  0  0  0  0  0
    6.1280   -5.0830   23.8110 C   0  0  0  0  0  0  0  0  0  0  0  0
    6.6050   -5.4110   22.5820 C   0  0  0  0  0  0  0  0  0  0  0  0
  1  2  1  0
  2  3  2  0
  2  4  1  0
  4  5  1  0
  5  6  1  0
  6  7  1  0
  7  8  1  0
  8  9  2  0
  8 10  1  0
 10 11  1  0
 11 12  1  0
 12 13  1  0
 13 14  3  0
 10 15  1  0
 15 16  1  0
 16 17  1  0
 17 18  1  0
 18 19  1  0
 15 20  1  0
 19 20  1  0
  7 21  1  0
  4 22  1  0
 21 22  1  0
M  END
