piperidine-amides-11638-covalent
     RDKit          3D

 22 22  0  0  0  0  0  0  0  0999 V2000
    7.1590   -3.2500   19.1710 C   0  0  0  0  0  0  0  0  0  0  0  0
    6.3760   -3.9850   20.1550 C   0  0  0  0  0  0  0  0  0  0  0  0
    5.2920   -4.4860   19.8590 O   0  0  0  0  0  0  0  0  0  0  0  0
    6.9160   -4.1700   21.4570 N   0  0  0  0  0  0  0  0  0  0  0  0
    6.5620   -5.3330   22.2210 C   0  0  0  0  0  0  0  0  0  0  0  0
    5.8960   -4.9100   23.4970 C   0  0  0  0  0  0  0  0  0  0  0  0
    6.7120   -3.7650   24.0840 C   0  0  0  0  0  0  0  0  0  0  0  0
    6.0800   -3.3020   25.3310 C   0  0  0  0  0  0  0  0  0  0  0  0
    5.1100   -2.5140   25.3670 O   0  0  0  0  0  0  0  0  0  0  0  0
    6.6270   -3.8160   26.5140 N   0  0  0  0  0  0  0  0  0  0  0  0
    6.3210   -5.1860   26.7850 C   0  0  1  0  0  0  0  0  0  0  0  0
    7.3480   -5.8560   27.6240 C   0  0  0  0  0  0  0  0  0  0  0  0
    7.7010   -5.2770   28.7680 C   0  0  0  0  0  0  0  0  0  0  0  0
    8.6560   -6.1430   26.8420 C   0  0  0  0  0  0  0  0  0  0  0  0
    5.0370   -5.1400   27.5040 C   0  0  2  0  0  0  0  0  0  0  0  0
    4.8340   -5.7770   28.8050 C   0  0  0  0  0  0  0  0  0  0  0  0
    3.6950   -5.5920   29.3480 O   0  0  0  0  0  0  0  0  0  0  0  0
    3.9900   -5.6640   26.7940 C   0  0  0  0  0  0  0  0  0  0  0  0
    3.5400   -4.9340   25.7180 C   0  0  0  0  0  0  0  0  0  0  0  0
    4.2660   -7.0780   26.3400 C   0  0  0  0  0  0  0  0  0  0  0  0
    6.9680   -2.6700   23.1820 C   0  0  0  0  0  0  0  0  0  0  0  0
    7.6690   -3.1200   22.0970 C   0  0  0  0  0  0  0  0  0  0  0  0
  1  2  1  0
  2  3  2  0
  2  4  1  0
  4  5  1  0
  5  6  1  0
  6  7  1  0
  7  8  1  0
  8  9  2  0
  8 10  1  0
 11 10  1  1
 11 12  1  0
 12 13  1  0
 12 14  1  0
 11 15  1  0
 15 16  1  1
 16 17  1  0
 15 18  1  0
 18 19  1  0
 18 20  1  0
  7 21  1  0
  4 22  1  0
 21 22  1  0
M  END
