piperidine-amides-1750-covalent
     RDKit          3D

 20 21  0  0  0  0  0  0  0  0999 V2000
    7.0580   -3.3310   19.3020 C   0  0  0  0  0  0  0  0  0  0  0  0
    6.3710   -4.1770   20.3180 C   0  0  0  0  0  0  0  0  0  0  0  0
    5.3710   -4.8310   19.9760 O   0  0  0  0  0  0  0  0  0  0  0  0
    6.9000   -4.2460   21.6250 N   0  0  0  0  0  0  0  0  0  0  0  0
    7.7630   -3.2220   22.1640 C   0  0  0  0  0  0  0  0  0  0  0  0
    7.0480   -2.6350   23.3710 C   0  0  0  0  0  0  0  0  0  0  0  0
    6.5570   -3.7920   24.1610 C   0  0  0  0  0  0  0  0  0  0  0  0
    5.8050   -3.3620   25.3590 C   0  0  0  0  0  0  0  0  0  0  0  0
    4.5700   -3.4220   25.2940 O   0  0  0  0  0  0  0  0  0  0  0  0
    6.4900   -2.8990   26.4900 N   0  0  0  0  0  0  0  0  0  0  0  0
    6.4100   -1.6130   27.0770 C   0  0  0  0  0  0  0  0  0  0  0  0
    5.8720   -0.4910   26.4310 C   0  0  0  0  0  0  0  0  0  0  0  0
    5.8690    0.7490   27.2110 N   0  0  0  0  0  0  0  0  0  0  0  0
    6.3500    0.8780   28.5010 C   0  0  0  0  0  0  0  0  0  0  0  0
    6.3100    2.0790   29.1650 C   0  0  0  0  0  0  0  0  0  0  0  0
    6.9170   -0.2690   29.1970 C   0  0  0  0  0  0  0  0  0  0  0  0
    7.5260   -0.1010   30.8370 Cl  0  0  0  0  0  0  0  0  0  0  0  0
    6.9210   -1.5510   28.3940 C   0  0  0  0  0  0  0  0  0  0  0  0
    5.7230   -4.7910   23.4020 C   0  0  0  0  0  0  0  0  0  0  0  0
    6.5530   -5.3610   22.4560 C   0  0  0  0  0  0  0  0  0  0  0  0
  1  2  1  0
  2  3  2  0
  2  4  1  0
  4  5  1  0
  5  6  1  0
  6  7  1  0
  7  8  1  0
  8  9  2  0
  8 10  1  0
 10 11  1  0
 11 12  2  0
 12 13  1  0
 13 14  2  0
 14 15  1  0
 14 16  1  0
 16 17  1  0
 11 18  1  0
 16 18  2  0
  7 19  1  0
  4 20  1  0
 19 20  1  0
M  END
