piperidine-amides-2623-covalent
     RDKit          3D

 25 26  0  0  0  0  0  0  0  0999 V2000
    7.1380   -3.2580   19.2260 C   0  0  0  0  0  0  0  0  0  0  0  0
    6.3230   -3.9920   20.2240 C   0  0  0  0  0  0  0  0  0  0  0  0
    5.2530   -4.4610   19.8460 O   0  0  0  0  0  0  0  0  0  0  0  0
    6.8080   -4.1730   21.5180 N   0  0  0  0  0  0  0  0  0  0  0  0
    6.5470   -5.3780   22.2440 C   0  0  0  0  0  0  0  0  0  0  0  0
    5.8850   -5.0090   23.5360 C   0  0  0  0  0  0  0  0  0  0  0  0
    6.6470   -3.8610   24.2100 C   0  0  0  0  0  0  0  0  0  0  0  0
    5.8590   -3.3500   25.3610 C   0  0  0  0  0  0  0  0  0  0  0  0
    4.6720   -3.0390   25.1820 O   0  0  0  0  0  0  0  0  0  0  0  0
    6.4310   -3.2050   26.6500 N   0  0  0  0  0  0  0  0  0  0  0  0
    6.0160   -4.0760   27.7420 C   0  0  0  0  0  0  0  0  0  0  0  0
    5.0300   -5.0800   27.1760 C   0  0  0  0  0  0  0  0  0  0  0  0
    5.0460   -6.4520   27.1650 C   0  0  0  0  0  0  0  0  0  0  0  0
    5.2840   -5.8770   26.0280 C   0  0  0  0  0  0  0  0  0  0  0  0
    3.6630   -4.4820   26.8680 C   0  0  0  0  0  0  0  0  0  0  0  0
    3.4300   -5.6630   27.8040 C   0  0  0  0  0  0  0  0  0  0  0  0
    2.1690   -6.3070   27.2680 C   0  0  0  0  0  0  0  0  0  0  0  0
    1.6540   -7.5340   28.0010 C   0  0  0  0  0  0  0  0  0  0  0  0
    2.4140   -8.0210   29.1860 C   0  0  0  0  0  0  0  0  0  0  0  0
    3.6360   -7.3460   29.6540 C   0  0  0  0  0  0  0  0  0  0  0  0
    4.2270   -6.1280   29.0020 C   0  0  0  0  0  0  0  0  0  0  0  0
    5.3810   -5.6110   29.5530 O   0  0  0  0  0  0  0  0  0  0  0  0
    6.3740   -6.5390   29.5610 C   0  0  0  0  0  0  0  0  0  0  0  0
    6.8630   -2.6950   23.2550 C   0  0  0  0  0  0  0  0  0  0  0  0
    7.6010   -3.1610   22.1910 C   0  0  0  0  0  0  0  0  0  0  0  0
  1  2  1  0
  2  3  2  0
  2  4  1  0
  4  5  1  0
  5  6  1  0
  6  7  1  0
  7  8  1  0
  8  9  2  0
  8 10  1  0
 10 11  1  0
 12 11  1  0
 12 13  1  0
 12 14  1  0
 12 15  1  0
 15 16  1  0
 16 17  2  0
 17 18  1  0
 18 19  2  0
 19 20  1  0
 16 21  1  0
 20 21  2  0
 21 22  1  0
 22 23  1  0
  7 24  1  0
  4 25  1  0
 24 25  1  0
M  END
