piperidine-amides-27021-covalent
     RDKit          3D

 24 25  0  0  0  0  0  0  0  0999 V2000
    7.1590   -3.2890   19.2120 C   0  0  0  0  0  0  0  0  0  0  0  0
    6.3740   -4.0040   20.2130 C   0  0  0  0  0  0  0  0  0  0  0  0
    5.2620   -4.4680   19.8520 O   0  0  0  0  0  0  0  0  0  0  0  0
    6.9040   -4.1970   21.4840 N   0  0  0  0  0  0  0  0  0  0  0  0
    7.7490   -3.2170   22.1200 C   0  0  0  0  0  0  0  0  0  0  0  0
    7.0320   -2.7190   23.3300 C   0  0  0  0  0  0  0  0  0  0  0  0
    6.4680   -3.8490   24.1430 C   0  0  0  0  0  0  0  0  0  0  0  0
    5.7480   -3.2940   25.3000 C   0  0  0  0  0  0  0  0  0  0  0  0
    4.4990   -3.2460   25.2480 O   0  0  0  0  0  0  0  0  0  0  0  0
    6.3860   -2.8070   26.4490 N   0  0  0  0  0  0  0  0  0  0  0  0
    6.9360   -1.4790   26.3920 C   0  0  0  0  0  0  0  0  0  0  0  0
    5.8600   -3.2970   27.6880 C   0  0  1  0  0  0  0  0  0  0  0  0
    6.2860   -4.5790   27.9540 C   0  0  0  0  0  0  0  0  0  0  0  0
    6.8150   -4.9300   29.1380 N   0  0  0  0  0  0  0  0  0  0  0  0
    6.0990   -5.5210   26.9080 O   0  0  0  0  0  0  0  0  0  0  0  0
    6.0750   -2.2990   28.8100 C   0  0  0  0  0  0  0  0  0  0  0  0
    4.7790   -2.1160   29.2380 C   0  0  0  0  0  0  0  0  0  0  0  0
    4.5240   -1.2400   30.2800 C   0  0  0  0  0  0  0  0  0  0  0  0
    5.5570   -0.5470   30.8980 C   0  0  0  0  0  0  0  0  0  0  0  0
    5.2220    0.5560   32.2160 Cl  0  0  0  0  0  0  0  0  0  0  0  0
    7.0100   -0.6990   30.4810 C   0  0  0  0  0  0  0  0  0  0  0  0
    7.1840   -1.6820   29.3280 C   0  0  0  0  0  0  0  0  0  0  0  0
    5.5640   -4.7780   23.3190 C   0  0  0  0  0  0  0  0  0  0  0  0
    6.4910   -5.3470   22.2670 C   0  0  0  0  0  0  0  0  0  0  0  0
  1  2  1  0
  2  3  2  0
  2  4  1  0
  4  5  1  0
  5  6  1  0
  6  7  1  0
  7  8  1  0
  8  9  2  0
  8 10  1  0
 10 11  1  0
 10 12  1  0
 12 13  1  1
 13 14  1  0
 13 15  2  0
 12 16  1  0
 16 17  2  0
 17 18  1  0
 18 19  2  0
 19 20  1  0
 19 21  1  0
 16 22  1  0
 21 22  2  0
  7 23  1  0
  4 24  1  0
 23 24  1  0
M  END
