piperidine-amides-23759-covalent
     RDKit          3D

 24 26  0  0  0  0  0  0  0  0999 V2000
    7.0900   -3.3530   19.3220 C   0  0  0  0  0  0  0  0  0  0  0  0
    6.4410   -4.2060   20.3280 C   0  0  0  0  0  0  0  0  0  0  0  0
    5.3940   -4.8070   19.9770 O   0  0  0  0  0  0  0  0  0  0  0  0
    7.0250   -4.3760   21.6110 N   0  0  0  0  0  0  0  0  0  0  0  0
    6.6870   -5.5400   22.3670 C   0  0  0  0  0  0  0  0  0  0  0  0
    6.1820   -5.1850   23.6770 C   0  0  0  0  0  0  0  0  0  0  0  0
    6.2510   -3.7320   23.8520 C   0  0  0  0  0  0  0  0  0  0  0  0
    5.5570   -3.2330   25.0790 C   0  0  0  0  0  0  0  0  0  0  0  0
    4.3710   -2.8830   24.9490 O   0  0  0  0  0  0  0  0  0  0  0  0
    6.0830   -3.1340   26.3730 N   0  0  0  0  0  0  0  0  0  0  0  0
    5.2390   -3.1900   27.4960 C   0  0  0  0  0  0  0  0  0  0  0  0
    5.3280   -4.3750   28.3340 C   0  0  0  0  0  0  0  0  0  0  0  0
    6.5090   -4.6170   28.7770 O   0  0  0  0  0  0  0  0  0  0  0  0
    7.1700   -5.6900   28.1900 C   0  0  0  0  0  0  0  0  0  0  0  0
    6.4060   -5.6560   29.3450 C   0  0  0  0  0  0  0  0  0  0  0  0
    6.3950   -6.8700   29.8490 C   0  0  0  0  0  0  0  0  0  0  0  0
    7.0600   -6.1880   28.5880 C   0  0  0  0  0  0  0  0  0  0  0  0
    6.3620   -4.6850   29.0610 C   0  0  0  0  0  0  0  0  0  0  0  0
    7.1150   -4.4910   27.7530 C   0  0  0  0  0  0  0  0  0  0  0  0
    7.4140   -3.3960   26.7640 C   0  0  2  0  0  0  0  0  0  0  0  0
    8.0730   -2.1140   27.2910 C   0  0  0  0  0  0  0  0  0  0  0  0
    8.3930   -2.2890   28.4930 O   0  0  0  0  0  0  0  0  0  0  0  0
    7.6380   -3.2590   23.6150 C   0  0  0  0  0  0  0  0  0  0  0  0
    7.8000   -3.2900   22.2240 C   0  0  0  0  0  0  0  0  0  0  0  0
  1  2  1  0
  2  3  2  0
  2  4  1  0
  4  5  1  0
  5  6  1  0
  6  7  1  0
  7  8  1  0
  8  9  2  0
  8 10  1  0
 10 11  1  0
 11 12  1  0
 12 13  1  0
 13 14  1  0
 14 15  1  0
 15 16  2  0
 16 17  1  0
 17 18  2  0
 14 19  2  0
 18 19  1  0
 10 20  1  0
 19 20  1  0
 20 21  1  1
 21 22  1  0
  7 23  1  0
  4 24  1  0
 23 24  1  0
M  END
