piperidine-amides-19230-covalent
     RDKit          3D

 20 21  0  0  0  0  0  0  0  0999 V2000
    7.0710   -3.4370   19.3570 C   0  0  0  0  0  0  0  0  0  0  0  0
    6.3760   -4.1820   20.3770 C   0  0  0  0  0  0  0  0  0  0  0  0
    5.3790   -4.8710   19.9980 O   0  0  0  0  0  0  0  0  0  0  0  0
    6.7950   -4.2130   21.7290 N   0  0  0  0  0  0  0  0  0  0  0  0
    6.6340   -5.4760   22.4790 C   0  0  0  0  0  0  0  0  0  0  0  0
    5.8580   -4.9530   23.7560 C   0  0  0  0  0  0  0  0  0  0  0  0
    6.5870   -3.7220   24.2870 C   0  0  0  0  0  0  0  0  0  0  0  0
    5.7440   -3.0580   25.4670 C   0  0  0  0  0  0  0  0  0  0  0  0
    4.8030   -2.4400   24.9930 O   0  0  0  0  0  0  0  0  0  0  0  0
    6.2450   -3.3370   26.6040 N   0  0  0  0  0  0  0  0  0  0  0  0
    6.7500   -4.1350   27.5950 C   0  0  0  0  0  0  0  0  0  0  0  0
    6.0490   -2.1350   27.3630 C   0  0  1  0  0  0  0  0  0  0  0  0
    7.0920   -1.6070   28.2250 C   0  0  0  0  0  0  0  0  0  0  0  0
    6.6610   -0.4500   29.0260 C   0  0  0  0  0  0  0  0  0  0  0  0
    5.7020    0.4100   27.8840 S   0  0  0  0  0  0  0  0  0  0  0  0
    6.2740    1.7060   27.4720 O   0  0  0  0  0  0  0  0  0  0  0  0
    4.3040    0.4850   28.4120 O   0  0  0  0  0  0  0  0  0  0  0  0
    5.8690   -0.7810   26.5750 C   0  0  0  0  0  0  0  0  0  0  0  0
    7.0120   -2.6590   23.2930 C   0  0  0  0  0  0  0  0  0  0  0  0
    7.7220   -3.2470   22.2560 C   0  0  0  0  0  0  0  0  0  0  0  0
  1  2  1  0
  2  3  2  0
  2  4  1  0
  4  5  1  0
  5  6  1  0
  6  7  1  0
  7  8  1  0
  8  9  2  0
  8 10  1  0
 10 11  1  0
 12 10  1  6
 12 13  1  0
 13 14  1  0
 15 14  1  0
 15 16  2  0
 15 17  2  0
 12 18  1  0
 15 18  1  0
  7 19  1  0
  4 20  1  0
 19 20  1  0
M  END
