piperidine-amides-21494-covalent
     RDKit          3D

 23 25  0  0  0  0  0  0  0  0999 V2000
    7.0550   -3.3410   19.3380 C   0  0  0  0  0  0  0  0  0  0  0  0
    6.3880   -4.1820   20.3350 C   0  0  0  0  0  0  0  0  0  0  0  0
    5.3520   -4.7870   19.9610 O   0  0  0  0  0  0  0  0  0  0  0  0
    6.9230   -4.3340   21.6180 N   0  0  0  0  0  0  0  0  0  0  0  0
    6.4950   -5.4260   22.4530 C   0  0  0  0  0  0  0  0  0  0  0  0
    5.6120   -4.8530   23.5360 C   0  0  0  0  0  0  0  0  0  0  0  0
    6.2400   -3.6360   24.1800 C   0  0  0  0  0  0  0  0  0  0  0  0
    5.2910   -2.9280   25.1050 C   0  0  0  0  0  0  0  0  0  0  0  0
    4.2180   -2.4730   24.6730 O   0  0  0  0  0  0  0  0  0  0  0  0
    5.6110   -2.8110   26.4660 N   0  0  0  0  0  0  0  0  0  0  0  0
    4.6260   -2.5250   27.4800 C   0  0  0  0  0  0  0  0  0  0  0  0
    4.8110   -3.4280   28.7020 C   0  0  0  0  0  0  0  0  0  0  0  0
    5.9520   -4.1190   28.9120 C   0  0  0  0  0  0  0  0  0  0  0  0
    6.6730   -4.4630   27.8410 C   0  0  0  0  0  0  0  0  0  0  0  0
    6.5180   -3.8250   26.6460 C   0  0  0  0  0  0  0  0  0  0  0  0
    7.2010   -4.1150   25.5080 C   0  0  0  0  0  0  0  0  0  0  0  0
    8.0770   -5.0730   25.5520 C   0  0  0  0  0  0  0  0  0  0  0  0
    8.2340   -5.7310   26.8460 C   0  0  0  0  0  0  0  0  0  0  0  0
    9.2680   -6.7030   26.6750 C   0  0  0  0  0  0  0  0  0  0  0  0
    7.5430   -5.4360   27.9370 C   0  0  0  0  0  0  0  0  0  0  0  0
    7.7480   -6.1070   29.0420 F   0  0  0  0  0  0  0  0  0  0  0  0
    6.7710   -2.6730   23.1550 C   0  0  0  0  0  0  0  0  0  0  0  0
    7.6640   -3.2650   22.2900 C   0  0  0  0  0  0  0  0  0  0  0  0
  1  2  1  0
  2  3  2  0
  2  4  1  0
  4  5  1  0
  5  6  1  0
  6  7  1  0
  7  8  1  0
  8  9  2  0
  8 10  1  0
 10 11  1  0
 11 12  1  0
 12 13  1  0
 13 14  1  0
 10 15  1  0
 14 15  2  0
 15 16  1  0
 16 17  2  0
 17 18  1  0
 18 19  1  0
 14 20  1  0
 18 20  2  0
 20 21  1  0
  7 22  1  0
  4 23  1  0
 22 23  1  0
M  END
