piperidine-amides-29773-covalent
     RDKit          3D

 27 29  0  0  0  0  0  0  0  0999 V2000
    7.0050   -3.3700   19.4280 C   0  0  0  0  0  0  0  0  0  0  0  0
    6.3590   -4.2370   20.4120 C   0  0  0  0  0  0  0  0  0  0  0  0
    5.4400   -4.9630   20.0200 O   0  0  0  0  0  0  0  0  0  0  0  0
    6.7930   -4.2970   21.8010 N   0  0  0  0  0  0  0  0  0  0  0  0
    7.5630   -3.2180   22.4120 C   0  0  0  0  0  0  0  0  0  0  0  0
    7.1230   -2.9200   23.8420 C   0  0  0  0  0  0  0  0  0  0  0  0
    5.8310   -3.6880   24.0830 C   0  0  0  0  0  0  0  0  0  0  0  0
    4.9280   -3.2730   25.2500 C   0  0  0  0  0  0  0  0  0  0  0  0
    3.7070   -3.2600   25.0560 O   0  0  0  0  0  0  0  0  0  0  0  0
    5.3120   -2.8840   26.5870 N   0  0  0  0  0  0  0  0  0  0  0  0
    4.2950   -2.6220   27.5630 C   0  0  0  0  0  0  0  0  0  0  0  0
    4.5220   -3.6210   28.6830 C   0  0  0  0  0  0  0  0  0  0  0  0
    5.0160   -4.8290   28.4200 N   0  0  0  0  0  0  0  0  0  0  0  0
    5.1180   -5.5750   29.5300 C   0  0  0  0  0  0  0  0  0  0  0  0
    4.1010   -6.2890   30.1730 C   0  0  0  0  0  0  0  0  0  0  0  0
    3.5820   -5.9150   31.3920 C   0  0  0  0  0  0  0  0  0  0  0  0
    2.5610   -6.7090   31.9510 C   0  0  0  0  0  0  0  0  0  0  0  0
    2.0940   -7.7960   31.3340 C   0  0  0  0  0  0  0  0  0  0  0  0
    1.0970   -8.5880   31.8640 C   0  0  0  0  0  0  0  0  0  0  0  0
    1.3250   -9.7190   32.6500 C   0  0  0  0  0  0  0  0  0  0  0  0
    0.6530   -9.8850   31.3360 C   0  0  0  0  0  0  0  0  0  0  0  0
    2.6770   -8.1040   30.0960 C   0  0  0  0  0  0  0  0  0  0  0  0
    3.7020   -7.4990   29.3070 C   0  0  0  0  0  0  0  0  0  0  0  0
    6.2020   -4.8570   27.6910 C   0  0  0  0  0  0  0  0  0  0  0  0
    6.4400   -3.4410   27.0700 C   0  0  0  0  0  0  0  0  0  0  0  0
    6.0780   -5.1590   23.9150 C   0  0  0  0  0  0  0  0  0  0  0  0
    6.6050   -5.5190   22.5570 C   0  0  0  0  0  0  0  0  0  0  0  0
  1  2  1  0
  2  3  2  0
  2  4  1  0
  4  5  1  0
  5  6  1  0
  6  7  1  0
  7  8  1  0
  8  9  2  0
  8 10  1  0
 10 11  1  0
 11 12  1  0
 12 13  1  0
 13 14  1  0
 14 15  1  0
 15 16  2  0
 16 17  1  0
 17 18  2  0
 18 19  1  0
 19 20  1  0
 19 21  1  0
 18 22  1  0
 15 23  1  0
 22 23  2  0
 13 24  1  0
 10 25  1  0
 24 25  1  0
  7 26  1  0
  4 27  1  0
 26 27  1  0
M  END
