piperidine-amides-33016-covalent
     RDKit          3D

 25 28  0  0  0  0  0  0  0  0999 V2000
    6.9910   -3.3500   19.4750 C   0  0  0  0  0  0  0  0  0  0  0  0
    6.3460   -4.2690   20.4580 C   0  0  0  0  0  0  0  0  0  0  0  0
    5.4390   -5.0090   20.0220 O   0  0  0  0  0  0  0  0  0  0  0  0
    6.7720   -4.3210   21.8250 N   0  0  0  0  0  0  0  0  0  0  0  0
    6.6270   -5.5270   22.6250 C   0  0  0  0  0  0  0  0  0  0  0  0
    6.0890   -5.1860   24.0440 C   0  0  0  0  0  0  0  0  0  0  0  0
    5.8810   -3.7110   24.1410 C   0  0  0  0  0  0  0  0  0  0  0  0
    5.0310   -3.1860   25.2940 C   0  0  0  0  0  0  0  0  0  0  0  0
    3.8800   -2.9520   24.9390 O   0  0  0  0  0  0  0  0  0  0  0  0
    5.3880   -2.9540   26.6620 N   0  0  0  0  0  0  0  0  0  0  0  0
    6.5320   -3.3120   27.2690 C   0  0  0  0  0  0  0  0  0  0  0  0
    6.5330   -4.4350   28.0780 C   0  0  0  0  0  0  0  0  0  0  0  0
    5.3940   -4.5630   28.8020 C   0  0  0  0  0  0  0  0  0  0  0  0
    4.3210   -3.7360   28.6310 C   0  0  0  0  0  0  0  0  0  0  0  0
    3.3260   -4.0780   29.4930 N   0  0  0  0  0  0  0  0  0  0  0  0
    3.7080   -5.1280   30.2350 C   0  0  0  0  0  0  0  0  0  0  0  0
    3.0840   -5.9610   31.3400 C   0  0  0  0  0  0  0  0  0  0  0  0
    3.9700   -7.0970   31.8690 C   0  0  0  0  0  0  0  0  0  0  0  0
    3.2870   -8.2130   33.2650 Br  0  0  0  0  0  0  0  0  0  0  0  0
    5.2530   -7.3590   31.3790 C   0  0  0  0  0  0  0  0  0  0  0  0
    5.9440   -6.5890   30.2920 C   0  0  0  0  0  0  0  0  0  0  0  0
    5.0570   -5.4800   29.8000 C   0  0  0  0  0  0  0  0  0  0  0  0
    4.3110   -2.6190   27.6040 C   0  0  0  0  0  0  0  0  0  0  0  0
    7.1160   -2.9240   23.8520 C   0  0  0  0  0  0  0  0  0  0  0  0
    7.5640   -3.2380   22.4300 C   0  0  0  0  0  0  0  0  0  0  0  0
  1  2  1  0
  2  3  2  0
  2  4  1  0
  4  5  1  0
  5  6  1  0
  6  7  1  0
  7  8  1  0
  8  9  2  0
  8 10  1  0
 10 11  1  0
 11 12  1  0
 12 13  1  0
 13 14  2  0
 14 15  1  0
 15 16  1  0
 16 17  1  0
 17 18  2  0
 18 19  1  0
 18 20  1  0
 20 21  2  0
 13 22  1  0
 16 22  2  0
 21 22  1  0
 10 23  1  0
 14 23  1  0
  7 24  1  0
  4 25  1  0
 24 25  1  0
M  END
