piperidine-amides-19315-covalent
     RDKit          3D

 22 24  0  0  0  0  0  0  0  0999 V2000
    7.0570   -3.4150   19.3060 C   0  0  0  0  0  0  0  0  0  0  0  0
    6.4070   -4.2010   20.3300 C   0  0  0  0  0  0  0  0  0  0  0  0
    5.3740   -4.8550   19.9880 O   0  0  0  0  0  0  0  0  0  0  0  0
    6.9020   -4.3110   21.6470 N   0  0  0  0  0  0  0  0  0  0  0  0
    6.7630   -5.6480   22.3020 C   0  0  0  0  0  0  0  0  0  0  0  0
    6.0810   -5.2590   23.6730 C   0  0  0  0  0  0  0  0  0  0  0  0
    6.2750   -3.7790   23.7120 C   0  0  0  0  0  0  0  0  0  0  0  0
    5.3740   -2.9720   24.7130 C   0  0  0  0  0  0  0  0  0  0  0  0
    5.2080   -1.8420   24.3130 O   0  0  0  0  0  0  0  0  0  0  0  0
    5.0250   -3.6620   25.6860 N   0  0  0  0  0  0  0  0  0  0  0  0
    4.2670   -4.4190   26.5320 C   0  0  0  0  0  0  0  0  0  0  0  0
    4.4780   -5.4350   27.3980 C   0  0  0  0  0  0  0  0  0  0  0  0
    5.8260   -5.4720   27.5720 C   0  0  0  0  0  0  0  0  0  0  0  0
    6.2300   -4.1240   27.8730 C   0  0  0  0  0  0  0  0  0  0  0  0
    5.7550   -3.2140   26.7790 C   0  0  0  0  0  0  0  0  0  0  0  0
    6.1430   -1.8920   27.0580 C   0  0  0  0  0  0  0  0  0  0  0  0
    6.8550   -1.5330   28.2010 C   0  0  0  0  0  0  0  0  0  0  0  0
    7.2310   -2.3940   29.1320 N   0  0  0  0  0  0  0  0  0  0  0  0
    6.8910   -3.7900   28.9500 C   0  0  0  0  0  0  0  0  0  0  0  0
    7.0850   -4.7940   29.6210 O   0  0  0  0  0  0  0  0  0  0  0  0
    7.6920   -3.4060   23.5330 C   0  0  0  0  0  0  0  0  0  0  0  0
    7.7740   -3.2790   22.1820 C   0  0  0  0  0  0  0  0  0  0  0  0
  1  2  1  0
  2  3  2  0
  2  4  1  0
  4  5  1  0
  5  6  1  0
  6  7  1  0
  7  8  1  0
  8  9  2  0
  8 10  1  0
 10 11  1  0
 11 12  1  0
 12 13  1  0
 13 14  1  0
 10 15  1  0
 14 15  2  0
 15 16  1  0
 16 17  2  0
 17 18  1  0
 14 19  1  0
 18 19  2  0
 19 20  1  0
  7 21  1  0
  4 22  1  0
 21 22  1  0
M  END
