piperidine-amides-10832-covalent
     RDKit          3D

 22 23  0  0  0  0  0  0  0  0999 V2000
    7.0810   -3.3570   19.3170 C   0  0  0  0  0  0  0  0  0  0  0  0
    6.3630   -4.1440   20.3150 C   0  0  0  0  0  0  0  0  0  0  0  0
    5.3590   -4.7870   19.9670 O   0  0  0  0  0  0  0  0  0  0  0  0
    6.8260   -4.2190   21.6420 N   0  0  0  0  0  0  0  0  0  0  0  0
    7.7620   -3.2490   22.1820 C   0  0  0  0  0  0  0  0  0  0  0  0
    7.2540   -2.8560   23.5350 C   0  0  0  0  0  0  0  0  0  0  0  0
    5.9640   -3.5470   23.8470 C   0  0  0  0  0  0  0  0  0  0  0  0
    5.4760   -3.1940   25.1920 C   0  0  0  0  0  0  0  0  0  0  0  0
    4.2350   -3.1290   25.4350 O   0  0  0  0  0  0  0  0  0  0  0  0
    6.3560   -2.9290   26.2420 N   0  0  0  0  0  0  0  0  0  0  0  0
    6.3460   -1.6590   26.9970 C   0  0  0  0  0  0  0  0  0  0  0  0
    6.1910   -0.3590   26.3280 C   0  0  0  0  0  0  0  0  0  0  0  0
    6.2040    0.8540   27.1520 C   0  0  0  0  0  0  0  0  0  0  0  0
    6.3840    0.7050   28.6320 C   0  0  0  0  0  0  0  0  0  0  0  0
    6.5340   -0.6700   29.2470 C   0  0  0  0  0  0  0  0  0  0  0  0
    6.6890   -0.5300   30.6890 N   0  0  0  0  0  0  0  0  0  0  0  0
    5.4960    0.1210   31.1770 C   0  0  0  0  0  0  0  0  0  0  0  0
    7.8410   -0.0500   31.1950 C   0  0  0  0  0  0  0  0  0  0  0  0
    6.5070   -1.8110   28.4620 C   0  0  0  0  0  0  0  0  0  0  0  0
    6.6070   -3.2610   28.8680 C   0  0  0  0  0  0  0  0  0  0  0  0
    6.0100   -5.0490   23.7370 C   0  0  0  0  0  0  0  0  0  0  0  0
    6.6220   -5.4280   22.4120 C   0  0  0  0  0  0  0  0  0  0  0  0
  1  2  1  0
  2  3  2  0
  2  4  1  0
  4  5  1  0
  5  6  1  0
  6  7  1  0
  7  8  1  0
  8  9  2  0
  8 10  1  0
 10 11  1  0
 11 12  2  0
 12 13  1  0
 13 14  2  0
 14 15  1  0
 15 16  1  0
 16 17  1  0
 16 18  1  0
 11 19  1  0
 15 19  2  0
 19 20  1  0
  7 21  1  0
  4 22  1  0
 21 22  1  0
M  END
