piperidine-amides-1187-covalent
     RDKit          3D

 23 25  0  0  0  0  0  0  0  0999 V2000
    7.0340   -3.3340   19.3020 C   0  0  0  0  0  0  0  0  0  0  0  0
    6.3490   -4.1760   20.3230 C   0  0  0  0  0  0  0  0  0  0  0  0
    5.3600   -4.8440   19.9780 O   0  0  0  0  0  0  0  0  0  0  0  0
    6.8600   -4.2260   21.6390 N   0  0  0  0  0  0  0  0  0  0  0  0
    7.7390   -3.1800   22.1310 C   0  0  0  0  0  0  0  0  0  0  0  0
    7.6000   -3.1570   23.6450 C   0  0  0  0  0  0  0  0  0  0  0  0
    6.2300   -3.6580   23.8910 C   0  0  0  0  0  0  0  0  0  0  0  0
    5.7590   -3.3940   25.2600 C   0  0  0  0  0  0  0  0  0  0  0  0
    4.6610   -3.8670   25.5680 O   0  0  0  0  0  0  0  0  0  0  0  0
    6.5320   -2.6240   26.1230 N   0  0  0  0  0  0  0  0  0  0  0  0
    6.0120   -1.6200   26.9670 C   0  0  1  0  0  0  0  0  0  0  0  0
    6.5600   -1.2120   28.1120 C   0  0  0  0  0  0  0  0  0  0  0  0
    7.1460   -1.8320   28.9590 C   0  0  0  0  0  0  0  0  0  0  0  0
    7.3080   -0.7350   29.6470 C   0  0  0  0  0  0  0  0  0  0  0  0
    6.4640   -0.0590   28.3600 C   0  0  0  0  0  0  0  0  0  0  0  0
    6.2870    1.4580   28.5900 C   0  0  0  0  0  0  0  0  0  0  0  0
    5.5770    1.9770   27.4920 F   0  0  0  0  0  0  0  0  0  0  0  0
    6.6590    0.0590   28.7560 C   0  0  0  0  0  0  0  0  0  0  0  0
    5.9230    0.5000   27.5770 O   0  0  0  0  0  0  0  0  0  0  0  0
    5.8150   -0.3950   26.5140 C   0  0  2  0  0  0  0  0  0  0  0  0
    4.5380   -0.0860   25.8200 C   0  0  0  0  0  0  0  0  0  0  0  0
    6.0140   -5.1010   23.5570 C   0  0  0  0  0  0  0  0  0  0  0  0
    6.7330   -5.4250   22.4290 C   0  0  0  0  0  0  0  0  0  0  0  0
  1  2  1  0
  2  3  2  0
  2  4  1  0
  4  5  1  0
  5  6  1  0
  6  7  1  0
  7  8  1  0
  8  9  2  0
  8 10  1  0
 11 10  1  6
 11 12  1  0
 12 13  2  0
 13 14  1  0
 14 15  2  0
 15 16  1  0
 16 17  1  0
 12 18  1  0
 16 18  2  0
 18 19  1  0
 11 20  1  0
 19 20  1  0
 20 21  1  1
  7 22  1  0
  4 23  1  0
 22 23  1  0
M  END
