piperidine-amides-2592-covalent
     RDKit          3D

 25 27  0  0  0  0  0  0  0  0999 V2000
    7.0370   -3.3010   19.2760 C   0  0  0  0  0  0  0  0  0  0  0  0
    6.3470   -4.1090   20.3160 C   0  0  0  0  0  0  0  0  0  0  0  0
    5.3590   -4.7490   19.9550 O   0  0  0  0  0  0  0  0  0  0  0  0
    6.8330   -4.1630   21.6290 N   0  0  0  0  0  0  0  0  0  0  0  0
    7.7110   -3.1510   22.1670 C   0  0  0  0  0  0  0  0  0  0  0  0
    7.3810   -2.9770   23.6140 C   0  0  0  0  0  0  0  0  0  0  0  0
    6.0170   -3.6190   23.8370 C   0  0  0  0  0  0  0  0  0  0  0  0
    5.5470   -3.3710   25.2180 C   0  0  0  0  0  0  0  0  0  0  0  0
    4.3540   -3.5600   25.4870 O   0  0  0  0  0  0  0  0  0  0  0  0
    6.4120   -2.9200   26.2260 N   0  0  0  0  0  0  0  0  0  0  0  0
    6.6690   -1.5060   26.3080 C   0  0  0  0  0  0  0  0  0  0  0  0
    6.2330   -1.0260   27.6740 C   0  0  0  0  0  0  0  0  0  0  0  0
    5.6040   -1.9330   28.5580 C   0  0  0  0  0  0  0  0  0  0  0  0
    5.1450   -1.6590   29.8270 C   0  0  0  0  0  0  0  0  0  0  0  0
    5.3010   -0.4160   30.2910 C   0  0  0  0  0  0  0  0  0  0  0  0
    5.9230    0.6860   29.5580 C   0  0  0  0  0  0  0  0  0  0  0  0
    5.9470    1.9510   30.3530 C   0  0  0  0  0  0  0  0  0  0  0  0
    6.0560    1.7020   31.8430 C   0  0  0  0  0  0  0  0  0  0  0  0
    6.0810    2.9540   32.6570 C   0  0  0  0  0  0  0  0  0  0  0  0
    5.9990    4.2520   31.9390 C   0  0  0  0  0  0  0  0  0  0  0  0
    5.8950    4.3140   30.4330 C   0  0  0  0  0  0  0  0  0  0  0  0
    5.8670    3.2330   29.6360 N   0  0  0  0  0  0  0  0  0  0  0  0
    6.3890    0.2650   28.1710 C   0  0  0  0  0  0  0  0  0  0  0  0
    6.0480   -5.1280   23.6030 C   0  0  0  0  0  0  0  0  0  0  0  0
    6.7010   -5.3900   22.4050 C   0  0  0  0  0  0  0  0  0  0  0  0
  1  2  1  0
  2  3  2  0
  2  4  1  0
  4  5  1  0
  5  6  1  0
  6  7  1  0
  7  8  1  0
  8  9  2  0
  8 10  1  0
 10 11  1  0
 11 12  1  0
 12 13  2  0
 13 14  1  0
 14 15  2  0
 15 16  1  0
 16 17  1  0
 17 18  2  0
 18 19  1  0
 19 20  2  0
 20 21  1  0
 17 22  1  0
 21 22  2  0
 12 23  1  0
 16 23  2  0
  7 24  1  0
  4 25  1  0
 24 25  1  0
M  END
