piperidine-amides-27998-covalent
     RDKit          3D

 26 28  0  0  0  0  0  0  0  0999 V2000
    7.0010   -3.3720   19.3730 C   0  0  0  0  0  0  0  0  0  0  0  0
    6.3960   -4.2400   20.4110 C   0  0  0  0  0  0  0  0  0  0  0  0
    5.4380   -4.9390   20.0110 O   0  0  0  0  0  0  0  0  0  0  0  0
    6.8950   -4.3040   21.7390 N   0  0  0  0  0  0  0  0  0  0  0  0
    6.5890   -5.4170   22.5810 C   0  0  0  0  0  0  0  0  0  0  0  0
    5.9740   -5.0310   23.8570 C   0  0  0  0  0  0  0  0  0  0  0  0
    5.9020   -3.5640   24.0530 C   0  0  0  0  0  0  0  0  0  0  0  0
    5.0370   -3.1910   25.2440 C   0  0  0  0  0  0  0  0  0  0  0  0
    3.8180   -3.3130   25.0670 O   0  0  0  0  0  0  0  0  0  0  0  0
    5.4580   -2.7320   26.5220 N   0  0  0  0  0  0  0  0  0  0  0  0
    4.5340   -2.5280   27.6260 C   0  0  0  0  0  0  0  0  0  0  0  0
    4.5740   -3.6520   28.6230 C   0  0  0  0  0  0  0  0  0  0  0  0
    5.7310   -4.5060   28.9250 C   0  0  0  0  0  0  0  0  0  0  0  0
    5.4290   -5.7220   29.4930 C   0  0  2  0  0  0  0  0  0  0  0  0
    5.0870   -6.5310   28.6170 O   0  0  0  0  0  0  0  0  0  0  0  0
    4.5630   -5.6570   30.5790 C   0  0  0  0  0  0  0  0  0  0  0  0
    3.6250   -4.6610   30.7250 C   0  0  0  0  0  0  0  0  0  0  0  0
    2.7860   -4.6300   31.8240 C   0  0  0  0  0  0  0  0  0  0  0  0
    2.8360   -5.5750   32.8170 C   0  0  0  0  0  0  0  0  0  0  0  0
    3.7510   -6.6100   32.7390 C   0  0  0  0  0  0  0  0  0  0  0  0
    4.6100   -6.5910   31.5570 C   0  0  0  0  0  0  0  0  0  0  0  0
    5.6220   -7.6750   31.3970 C   0  0  0  0  0  0  0  0  0  0  0  0
    6.0190   -4.6090   27.5730 C   0  0  0  0  0  0  0  0  0  0  0  0
    6.5240   -3.3950   27.0240 C   0  0  0  0  0  0  0  0  0  0  0  0
    7.1770   -2.9080   23.7430 C   0  0  0  0  0  0  0  0  0  0  0  0
    7.6810   -3.2160   22.3560 C   0  0  0  0  0  0  0  0  0  0  0  0
  1  2  1  0
  2  3  2  0
  2  4  1  0
  4  5  1  0
  5  6  1  0
  6  7  1  0
  7  8  1  0
  8  9  2  0
  8 10  1  0
 10 11  1  0
 11 12  1  0
 12 13  1  0
 13 14  1  0
 14 15  1  6
 14 16  1  0
 16 17  2  0
 17 18  1  0
 18 19  2  0
 19 20  1  0
 16 21  1  0
 20 21  2  0
 21 22  1  0
 13 23  1  0
 10 24  1  0
 23 24  1  0
  7 25  1  0
  4 26  1  0
 25 26  1  0
M  END
