piperidine-amides-26967-covalent
     RDKit          3D

 25 27  0  0  0  0  0  0  0  0999 V2000
    7.0580   -3.3350   19.3070 C   0  0  0  0  0  0  0  0  0  0  0  0
    6.3750   -4.1700   20.2970 C   0  0  0  0  0  0  0  0  0  0  0  0
    5.3020   -4.7080   19.9350 O   0  0  0  0  0  0  0  0  0  0  0  0
    6.9380   -4.3920   21.5530 N   0  0  0  0  0  0  0  0  0  0  0  0
    6.6230   -5.5910   22.2880 C   0  0  0  0  0  0  0  0  0  0  0  0
    5.7770   -5.1780   23.4560 C   0  0  0  0  0  0  0  0  0  0  0  0
    6.3970   -4.0260   24.1980 C   0  0  0  0  0  0  0  0  0  0  0  0
    5.4390   -3.4770   25.1900 C   0  0  0  0  0  0  0  0  0  0  0  0
    4.5530   -2.7060   24.7720 O   0  0  0  0  0  0  0  0  0  0  0  0
    5.4560   -3.7580   26.5690 N   0  0  0  0  0  0  0  0  0  0  0  0
    6.4980   -3.2020   27.3350 C   0  0  0  0  0  0  0  0  0  0  0  0
    6.8350   -4.2200   28.4000 C   0  0  0  0  0  0  0  0  0  0  0  0
    5.9070   -4.4550   29.2890 C   0  0  0  0  0  0  0  0  0  0  0  0
    4.6370   -4.3960   28.8130 C   0  0  2  0  0  0  0  0  0  0  0  0
    4.0610   -3.9210   29.8890 O   0  0  0  0  0  0  0  0  0  0  0  0
    4.1110   -5.6420   28.4990 C   0  0  0  0  0  0  0  0  0  0  0  0
    4.2570   -6.2720   27.2710 O   0  0  0  0  0  0  0  0  0  0  0  0
    3.3990   -6.2870   29.4460 N   0  0  0  0  0  0  0  0  0  0  0  0
    2.2470   -5.8500   29.9460 C   0  0  0  0  0  0  0  0  0  0  0  0
    1.3300   -6.8560   30.0670 C   0  0  0  0  0  0  0  0  0  0  0  0
    1.8890   -8.1850   29.6230 C   0  0  0  0  0  0  0  0  0  0  0  0
    3.2830   -7.6800   29.1930 C   0  0  0  0  0  0  0  0  0  0  0  0
    4.5760   -3.5310   27.7120 C   0  0  0  0  0  0  0  0  0  0  0  0
    6.8280   -2.9130   23.2810 C   0  0  0  0  0  0  0  0  0  0  0  0
    7.6630   -3.3540   22.2850 C   0  0  0  0  0  0  0  0  0  0  0  0
  1  2  1  0
  2  3  2  0
  2  4  1  0
  4  5  1  0
  5  6  1  0
  6  7  1  0
  7  8  1  0
  8  9  2  0
  8 10  1  0
 10 11  1  0
 11 12  1  0
 12 13  1  0
 13 14  1  0
 14 15  1  1
 14 16  1  0
 16 17  2  0
 16 18  1  0
 18 19  1  0
 19 20  1  0
 20 21  1  0
 18 22  1  0
 21 22  1  0
 10 23  1  0
 14 23  1  0
  7 24  1  0
  4 25  1  0
 24 25  1  0
M  END
