piperidine-amides-12044-covalent
     RDKit          3D

 26 28  0  0  0  0  0  0  0  0999 V2000
    7.1430   -3.2630   19.2560 C   0  0  0  0  0  0  0  0  0  0  0  0
    6.3810   -4.0240   20.2410 C   0  0  0  0  0  0  0  0  0  0  0  0
    5.3390   -4.5940   19.9100 O   0  0  0  0  0  0  0  0  0  0  0  0
    6.8720   -4.1500   21.5820 N   0  0  0  0  0  0  0  0  0  0  0  0
    7.7820   -3.1570   22.1140 C   0  0  0  0  0  0  0  0  0  0  0  0
    7.5240   -2.9560   23.5720 C   0  0  0  0  0  0  0  0  0  0  0  0
    6.1080   -3.4190   23.8100 C   0  0  0  0  0  0  0  0  0  0  0  0
    5.6580   -3.0120   25.1670 C   0  0  0  0  0  0  0  0  0  0  0  0
    4.5320   -2.5240   25.3670 O   0  0  0  0  0  0  0  0  0  0  0  0
    6.5430   -3.1580   26.2520 N   0  0  0  0  0  0  0  0  0  0  0  0
    6.0720   -3.7760   27.4740 C   0  0  0  0  0  0  0  0  0  0  0  0
    5.5120   -5.1490   27.1590 C   0  0  2  0  0  0  0  0  0  0  0  0
    4.4040   -5.1370   26.3100 C   0  0  0  0  0  0  0  0  0  0  0  0
    4.2500   -6.1620   25.3120 C   0  0  0  0  0  0  0  0  0  0  0  0
    3.1610   -6.1760   24.4500 C   0  0  0  0  0  0  0  0  0  0  0  0
    2.1970   -5.1350   24.5870 C   0  0  0  0  0  0  0  0  0  0  0  0
    2.3220   -4.1700   25.5130 C   0  0  0  0  0  0  0  0  0  0  0  0
    3.4000   -4.1540   26.3710 C   0  0  0  0  0  0  0  0  0  0  0  0
    5.2310   -5.9810   28.1890 N   0  0  0  0  0  0  0  0  0  0  0  0
    4.9070   -5.4630   29.3870 C   0  0  0  0  0  0  0  0  0  0  0  0
    3.5830   -5.6580   29.9870 C   0  0  0  0  0  0  0  0  0  0  0  0
    2.7520   -6.3680   29.4180 O   0  0  0  0  0  0  0  0  0  0  0  0
    3.3720   -7.3840   28.7440 C   0  0  0  0  0  0  0  0  0  0  0  0
    4.4740   -7.1680   27.9180 C   0  0  0  0  0  0  0  0  0  0  0  0
    5.9940   -4.9220   23.6580 C   0  0  0  0  0  0  0  0  0  0  0  0
    6.6590   -5.3520   22.3430 C   0  0  0  0  0  0  0  0  0  0  0  0
  1  2  1  0
  2  3  2  0
  2  4  1  0
  4  5  1  0
  5  6  1  0
  6  7  1  0
  7  8  1  0
  8  9  2  0
  8 10  1  0
 10 11  1  0
 12 11  1  1
 12 13  1  0
 13 14  2  0
 14 15  1  0
 15 16  2  0
 16 17  1  0
 13 18  1  0
 17 18  2  0
 12 19  1  0
 19 20  1  0
 20 21  1  0
 21 22  1  0
 22 23  1  0
 19 24  1  0
 23 24  1  0
  7 25  1  0
  4 26  1  0
 25 26  1  0
M  END
