piperidine-amides-13337-covalent
     RDKit          3D

 24 25  0  0  0  0  0  0  0  0999 V2000
    7.1660   -3.2790   19.1730 C   0  0  0  0  0  0  0  0  0  0  0  0
    6.3440   -3.9850   20.1750 C   0  0  0  0  0  0  0  0  0  0  0  0
    5.2340   -4.4150   19.8150 O   0  0  0  0  0  0  0  0  0  0  0  0
    6.8510   -4.2010   21.4530 N   0  0  0  0  0  0  0  0  0  0  0  0
    7.6360   -3.1930   22.0680 C   0  0  0  0  0  0  0  0  0  0  0  0
    7.3470   -2.9500   23.4760 C   0  0  0  0  0  0  0  0  0  0  0  0
    6.5150   -3.9540   24.1960 C   0  0  0  0  0  0  0  0  0  0  0  0
    5.5890   -3.2310   25.0790 C   0  0  0  0  0  0  0  0  0  0  0  0
    4.3610   -3.3510   24.8860 O   0  0  0  0  0  0  0  0  0  0  0  0
    6.0520   -2.4170   26.1130 N   0  0  0  0  0  0  0  0  0  0  0  0
    5.1260   -2.0130   27.1720 C   0  0  0  0  0  0  0  0  0  0  0  0
    5.3170   -2.7880   28.4100 C   0  0  2  0  0  0  0  0  0  0  0  0
    5.0080   -4.2150   28.4560 C   0  0  0  0  0  0  0  0  0  0  0  0
    5.2050   -2.2360   29.5440 O   0  0  0  0  0  0  0  0  0  0  0  0
    6.4270   -3.6820   28.4870 C   0  0  0  0  0  0  0  0  0  0  0  0
    7.5370   -2.9550   28.4310 C   0  0  0  0  0  0  0  0  0  0  0  0
    8.5240   -3.6530   27.9240 C   0  0  0  0  0  0  0  0  0  0  0  0
    8.2980   -4.8830   27.3620 C   0  0  0  0  0  0  0  0  0  0  0  0
    9.0730   -5.8910   27.7710 C   0  0  0  0  0  0  0  0  0  0  0  0
    8.4120   -5.0060   25.9820 C   0  0  0  0  0  0  0  0  0  0  0  0
    7.1630   -5.7750   27.9150 C   0  0  0  0  0  0  0  0  0  0  0  0
    6.4050   -4.5640   27.4390 C   0  0  0  0  0  0  0  0  0  0  0  0
    5.7560   -4.9360   23.2910 C   0  0  0  0  0  0  0  0  0  0  0  0
    6.5380   -5.3740   22.2160 C   0  0  0  0  0  0  0  0  0  0  0  0
  1  2  1  0
  2  3  2  0
  2  4  1  0
  4  5  1  0
  5  6  1  0
  6  7  1  0
  7  8  1  0
  8  9  2  0
  8 10  1  0
 10 11  1  0
 11 12  1  0
 12 13  1  1
 12 14  1  0
 12 15  1  0
 15 16  1  0
 16 17  1  0
 17 18  1  0
 18 19  1  0
 18 20  1  0
 18 21  1  0
 15 22  1  0
 21 22  1  0
  7 23  1  0
  4 24  1  0
 23 24  1  0
M  END
