piperidine-amides-11599-covalent
     RDKit          3D

 20 21  0  0  0  0  0  0  0  0999 V2000
    7.1500   -3.2940   19.2250 C   0  0  0  0  0  0  0  0  0  0  0  0
    6.3670   -4.0300   20.2160 C   0  0  0  0  0  0  0  0  0  0  0  0
    5.2840   -4.5320   19.8820 O   0  0  0  0  0  0  0  0  0  0  0  0
    6.8580   -4.2310   21.5150 N   0  0  0  0  0  0  0  0  0  0  0  0
    7.6650   -3.2670   22.2060 C   0  0  0  0  0  0  0  0  0  0  0  0
    6.8600   -2.8850   23.4150 C   0  0  0  0  0  0  0  0  0  0  0  0
    6.4030   -4.0860   24.2040 C   0  0  0  0  0  0  0  0  0  0  0  0
    5.4780   -3.7110   25.2960 C   0  0  0  0  0  0  0  0  0  0  0  0
    4.6480   -2.7690   25.1180 O   0  0  0  0  0  0  0  0  0  0  0  0
    5.4410   -4.3600   26.5560 N   0  0  0  0  0  0  0  0  0  0  0  0
    6.5700   -5.1780   27.0490 C   0  0  0  0  0  0  0  0  0  0  0  0
    7.7730   -4.3860   26.8280 C   0  0  0  0  0  0  0  0  0  0  0  0
    7.6080   -2.9640   26.4430 C   0  0  0  0  0  0  0  0  0  0  0  0
    8.0080   -2.0300   27.5350 C   0  0  2  0  0  0  0  0  0  0  0  0
    8.5100   -2.5360   28.6960 C   0  0  0  0  0  0  0  0  0  0  0  0
    7.0250   -2.0550   28.7570 C   0  0  0  0  0  0  0  0  0  0  0  0
    5.6570   -3.1640   28.8090 Cl  0  0  0  0  0  0  0  0  0  0  0  0
    6.6890   -0.5070   29.5240 Cl  0  0  0  0  0  0  0  0  0  0  0  0
    5.7040   -5.0840   23.2990 C   0  0  0  0  0  0  0  0  0  0  0  0
    6.4910   -5.4400   22.2020 C   0  0  0  0  0  0  0  0  0  0  0  0
  1  2  1  0
  2  3  2  0
  2  4  1  0
  4  5  1  0
  5  6  1  0
  6  7  1  0
  7  8  1  0
  8  9  2  0
  8 10  1  0
 10 11  1  0
 11 12  1  0
 12 13  1  0
 14 13  1  6
 14 15  1  0
 14 16  1  0
 15 16  1  0
 16 17  1  0
 16 18  1  0
  7 19  1  0
  4 20  1  0
 19 20  1  0
M  END
