piperidine-amides-83-covalent
     RDKit          3D

 21 22  0  0  0  0  0  0  0  0999 V2000
    7.0750   -3.3580   19.2700 C   0  0  0  0  0  0  0  0  0  0  0  0
    6.3730   -4.1060   20.2920 C   0  0  0  0  0  0  0  0  0  0  0  0
    5.3010   -4.6770   19.9380 O   0  0  0  0  0  0  0  0  0  0  0  0
    6.8370   -4.2800   21.6190 N   0  0  0  0  0  0  0  0  0  0  0  0
    6.3760   -5.4530   22.3900 C   0  0  0  0  0  0  0  0  0  0  0  0
    5.4100   -4.7200   23.4010 C   0  0  0  0  0  0  0  0  0  0  0  0
    6.3150   -3.8330   24.2300 C   0  0  0  0  0  0  0  0  0  0  0  0
    5.5510   -3.1390   25.4450 C   0  0  0  0  0  0  0  0  0  0  0  0
    5.2350   -2.0100   25.1110 O   0  0  0  0  0  0  0  0  0  0  0  0
    5.4160   -3.8950   26.4750 N   0  0  0  0  0  0  0  0  0  0  0  0
    5.0610   -4.5540   27.6300 C   0  0  2  0  0  0  0  0  0  0  0  0
    3.9190   -4.5850   28.3880 C   0  0  0  0  0  0  0  0  0  0  0  0
    3.8740   -3.5550   29.4330 N   0  0  0  0  0  0  0  0  0  0  0  0
    2.9050   -5.5170   28.1490 O   0  0  0  0  0  0  0  0  0  0  0  0
    6.1410   -4.4390   28.6400 C   0  0  0  0  0  0  0  0  0  0  0  0
    6.4890   -5.8880   28.6470 C   0  0  1  0  0  0  0  0  0  0  0  0
    5.2260   -6.5360   29.2370 C   0  0  0  0  0  0  0  0  0  0  0  0
    5.3260   -7.2710   30.2650 O   0  0  0  0  0  0  0  0  0  0  0  0
    5.3620   -6.0460   27.5660 C   0  0  0  0  0  0  0  0  0  0  0  0
    7.0070   -2.7430   23.4260 C   0  0  0  0  0  0  0  0  0  0  0  0
    7.7520   -3.3350   22.2380 C   0  0  0  0  0  0  0  0  0  0  0  0
  1  2  1  0
  2  3  2  0
  2  4  1  0
  4  5  1  0
  5  6  1  0
  6  7  1  0
  7  8  1  0
  8  9  2  0
  8 10  1  0
 11 10  1  6
 11 12  1  0
 12 13  1  0
 12 14  2  0
 11 15  1  0
 15 16  1  0
 16 17  1  1
 17 18  1  0
 11 19  1  0
 16 19  1  0
  7 20  1  0
  4 21  1  0
 20 21  1  0
M  END
