piperidine-amides-29801-covalent
     RDKit          3D

 26 28  0  0  0  0  0  0  0  0999 V2000
    7.1200   -3.3130   19.1980 C   0  0  0  0  0  0  0  0  0  0  0  0
    6.3780   -4.0940   20.1800 C   0  0  0  0  0  0  0  0  0  0  0  0
    5.2890   -4.5810   19.8970 O   0  0  0  0  0  0  0  0  0  0  0  0
    6.9580   -4.3550   21.4570 N   0  0  0  0  0  0  0  0  0  0  0  0
    6.5930   -5.5530   22.1480 C   0  0  0  0  0  0  0  0  0  0  0  0
    5.7280   -5.1840   23.3110 C   0  0  0  0  0  0  0  0  0  0  0  0
    6.4560   -4.1450   24.1440 C   0  0  0  0  0  0  0  0  0  0  0  0
    5.4780   -3.1960   24.6840 C   0  0  0  0  0  0  0  0  0  0  0  0
    4.9820   -2.2630   24.0470 O   0  0  0  0  0  0  0  0  0  0  0  0
    5.0820   -3.3680   25.9900 N   0  0  0  0  0  0  0  0  0  0  0  0
    3.8150   -3.9730   26.2370 C   0  0  0  0  0  0  0  0  0  0  0  0
    4.1720   -5.2540   26.8880 C   0  0  0  0  0  0  0  0  0  0  0  0
    5.1290   -5.0550   27.7660 C   0  0  0  0  0  0  0  0  0  0  0  0
    5.9120   -3.9300   27.8810 C   0  0  0  0  0  0  0  0  0  0  0  0
    6.7840   -3.7910   28.8130 C   0  0  0  0  0  0  0  0  0  0  0  0
    6.9570   -2.3290   29.1260 C   0  0  0  0  0  0  0  0  0  0  0  0
    8.2160   -1.8760   29.3710 F   0  0  0  0  0  0  0  0  0  0  0  0
    6.0580   -1.9390   30.0990 F   0  0  0  0  0  0  0  0  0  0  0  0
    6.5770   -1.6270   27.9960 F   0  0  0  0  0  0  0  0  0  0  0  0
    7.3150   -5.0100   29.3190 N   0  0  0  0  0  0  0  0  0  0  0  0
    6.8400   -6.1320   28.8090 N   0  0  0  0  0  0  0  0  0  0  0  0
    5.5500   -5.9000   28.7040 C   0  0  0  0  0  0  0  0  0  0  0  0
    4.7810   -6.5230   29.5600 O   0  0  0  0  0  0  0  0  0  0  0  0
    5.8320   -2.8630   27.0630 C   0  0  0  0  0  0  0  0  0  0  0  0
    7.6260   -3.4390   23.5640 C   0  0  0  0  0  0  0  0  0  0  0  0
    7.6490   -3.3140   22.1190 C   0  0  0  0  0  0  0  0  0  0  0  0
  1  2  1  0
  2  3  2  0
  2  4  1  0
  4  5  1  0
  5  6  1  0
  6  7  1  0
  7  8  1  0
  8  9  2  0
  8 10  1  0
 10 11  1  0
 11 12  1  0
 12 13  1  0
 13 14  2  0
 14 15  1  0
 15 16  1  0
 16 17  1  0
 16 18  1  0
 16 19  1  0
 15 20  2  0
 20 21  1  0
 13 22  1  0
 21 22  1  0
 22 23  2  0
 10 24  1  0
 14 24  1  0
  7 25  1  0
  4 26  1  0
 25 26  1  0
M  END
