piperidine-amides-2264-covalent
     RDKit          3D

 28 30  0  0  0  0  0  0  0  0999 V2000
    7.1770   -3.9370   19.6330 C   0  0  0  0  0  0  0  0  0  0  0  0
    5.9300   -3.8680   20.2940 C   0  0  0  0  0  0  0  0  0  0  0  0
    4.9600   -3.9440   19.5560 O   0  0  0  0  0  0  0  0  0  0  0  0
    5.9780   -3.8350   21.6620 N   0  0  0  0  0  0  0  0  0  0  0  0
    5.7390   -5.0830   22.3410 C   0  0  0  0  0  0  0  0  0  0  0  0
    5.3730   -4.7910   23.7480 C   0  0  0  0  0  0  0  0  0  0  0  0
    6.4010   -3.8390   24.3430 C   0  0  0  0  0  0  0  0  0  0  0  0
    5.8080   -3.2850   25.5590 C   0  0  0  0  0  0  0  0  0  0  0  0
    4.5780   -3.3000   25.7040 O   0  0  0  0  0  0  0  0  0  0  0  0
    6.6320   -2.7320   26.5420 N   0  0  0  0  0  0  0  0  0  0  0  0
    6.2640   -2.8750   27.9230 C   0  0  0  0  0  0  0  0  0  0  0  0
    5.8000   -1.4860   28.3230 C   0  0  0  0  0  0  0  0  0  0  0  0
    4.9970   -1.3570   29.4340 C   0  0  0  0  0  0  0  0  0  0  0  0
    5.3910   -0.5110   30.4250 C   0  0  0  0  0  0  0  0  0  0  0  0
    6.7800   -0.5290   30.7840 N   0  0  0  0  0  0  0  0  0  0  0  0
    7.0970    0.8500   31.7670 S   0  0  0  0  0  0  0  0  0  0  0  0
    6.0750    1.8930   31.4520 O   0  0  0  0  0  0  0  0  0  0  0  0
    7.0490    0.4910   33.2260 O   0  0  0  0  0  0  0  0  0  0  0  0
    8.6150    1.4850   31.3200 C   0  0  0  0  0  0  0  0  0  0  0  0
    8.5600    2.9910   31.5520 C   0  0  0  0  0  0  0  0  0  0  0  0
    9.8500    3.6750   31.1880 C   0  0  0  0  0  0  0  0  0  0  0  0
   11.0260    2.9010   30.6580 C   0  0  0  0  0  0  0  0  0  0  0  0
   10.8960    1.4370   30.5010 C   0  0  0  0  0  0  0  0  0  0  0  0
    9.7160    0.6050   30.8050 C   0  0  0  0  0  0  0  0  0  0  0  0
    7.5340   -0.5670   29.5920 C   0  0  0  0  0  0  0  0  0  0  0  0
    6.5980   -0.3860   28.4490 C   0  0  0  0  0  0  0  0  0  0  0  0
    6.7310   -2.6530   23.4480 C   0  0  0  0  0  0  0  0  0  0  0  0
    7.1030   -3.1000   22.2160 C   0  0  0  0  0  0  0  0  0  0  0  0
  1  2  1  0
  2  3  2  0
  2  4  1  0
  4  5  1  0
  5  6  1  0
  6  7  1  0
  7  8  1  0
  8  9  2  0
  8 10  1  0
 10 11  1  0
 11 12  1  0
 12 13  1  0
 13 14  1  0
 14 15  1  0
 15 16  1  0
 16 17  2  0
 16 18  2  0
 16 19  1  0
 19 20  2  0
 20 21  1  0
 21 22  2  0
 22 23  1  0
 19 24  1  0
 23 24  2  0
 15 25  1  0
 12 26  1  0
 25 26  1  0
  7 27  1  0
  4 28  1  0
 27 28  1  0
M  END
