piperidine-amides-21703-covalent
     RDKit          3D

 22 23  0  0  0  0  0  0  0  0999 V2000
    7.0660   -3.3300   19.2860 C   0  0  0  0  0  0  0  0  0  0  0  0
    6.3760   -4.1350   20.2970 C   0  0  0  0  0  0  0  0  0  0  0  0
    5.3230   -4.7200   19.9390 O   0  0  0  0  0  0  0  0  0  0  0  0
    6.9150   -4.2630   21.5750 N   0  0  0  0  0  0  0  0  0  0  0  0
    7.7550   -3.2450   22.1580 C   0  0  0  0  0  0  0  0  0  0  0  0
    7.1100   -2.7790   23.4190 C   0  0  0  0  0  0  0  0  0  0  0  0
    6.6580   -3.9280   24.2770 C   0  0  0  0  0  0  0  0  0  0  0  0
    6.0180   -3.3730   25.4800 C   0  0  0  0  0  0  0  0  0  0  0  0
    4.7810   -3.1670   25.4680 O   0  0  0  0  0  0  0  0  0  0  0  0
    6.7700   -3.0690   26.6290 N   0  0  0  0  0  0  0  0  0  0  0  0
    7.6110   -4.0810   27.2300 C   0  0  0  0  0  0  0  0  0  0  0  0
    6.8420   -5.3820   27.4530 C   0  0  0  0  0  0  0  0  0  0  0  0
    6.3650   -5.8580   28.6490 C   0  0  0  0  0  0  0  0  0  0  0  0
    6.6600   -1.8040   27.3190 C   0  0  0  0  0  0  0  0  0  0  0  0
    5.9770   -0.7560   26.7330 C   0  0  0  0  0  0  0  0  0  0  0  0
    5.7920    0.4970   27.2840 C   0  0  0  0  0  0  0  0  0  0  0  0
    6.3220    0.7640   28.5350 C   0  0  0  0  0  0  0  0  0  0  0  0
    6.1180    2.3330   29.2890 Cl  0  0  0  0  0  0  0  0  0  0  0  0
    7.1020   -0.2930   29.3020 C   0  0  0  0  0  0  0  0  0  0  0  0
    7.2230   -1.6210   28.5570 C   0  0  0  0  0  0  0  0  0  0  0  0
    5.7290   -4.8870   23.5090 C   0  0  0  0  0  0  0  0  0  0  0  0
    6.5880   -5.4290   22.3810 C   0  0  0  0  0  0  0  0  0  0  0  0
  1  2  1  0
  2  3  2  0
  2  4  1  0
  4  5  1  0
  5  6  1  0
  6  7  1  0
  7  8  1  0
  8  9  2  0
  8 10  1  0
 10 11  1  0
 11 12  1  0
 12 13  3  0
 10 14  1  0
 14 15  2  0
 15 16  1  0
 16 17  2  0
 17 18  1  0
 17 19  1  0
 14 20  1  0
 19 20  2  0
  7 21  1  0
  4 22  1  0
 21 22  1  0
M  END
