piperidine-amides-27254-covalent
     RDKit          3D

 26 29  0  0  0  0  0  0  0  0999 V2000
    7.0860   -3.3660   19.3690 C   0  0  0  0  0  0  0  0  0  0  0  0
    6.3820   -4.1760   20.3630 C   0  0  0  0  0  0  0  0  0  0  0  0
    5.3470   -4.7740   19.9640 O   0  0  0  0  0  0  0  0  0  0  0  0
    6.8830   -4.3050   21.6640 N   0  0  0  0  0  0  0  0  0  0  0  0
    6.6930   -5.5380   22.3970 C   0  0  0  0  0  0  0  0  0  0  0  0
    6.2260   -5.1980   23.7870 C   0  0  0  0  0  0  0  0  0  0  0  0
    6.1580   -3.7080   23.9720 C   0  0  0  0  0  0  0  0  0  0  0  0
    5.6500   -3.3160   25.3100 C   0  0  0  0  0  0  0  0  0  0  0  0
    4.7460   -2.4590   25.3380 O   0  0  0  0  0  0  0  0  0  0  0  0
    6.0790   -3.8330   26.5420 N   0  0  0  0  0  0  0  0  0  0  0  0
    5.9840   -3.0100   27.7030 C   0  0  0  0  0  0  0  0  0  0  0  0
    6.3460   -3.8230   28.9280 C   0  0  0  0  0  0  0  0  0  0  0  0
    5.8890   -5.0770   29.2310 C   0  0  0  0  0  0  0  0  0  0  0  0
    4.6400   -5.2100   29.7970 C   0  0  0  0  0  0  0  0  0  0  0  0
    3.5320   -4.4340   29.4270 C   0  0  0  0  0  0  0  0  0  0  0  0
    2.2750   -4.6040   30.0460 C   0  0  0  0  0  0  0  0  0  0  0  0
    2.0720   -5.5440   31.0490 C   0  0  0  0  0  0  0  0  0  0  0  0
    3.2390   -6.3860   31.4640 C   0  0  0  0  0  0  0  0  0  0  0  0
    3.3470   -7.4370   32.4680 N   0  0  0  0  0  0  0  0  0  0  0  0
    4.6620   -7.9360   32.4900 C   0  0  0  0  0  0  0  0  0  0  0  0
    5.3340   -7.1300   31.4460 C   0  0  0  0  0  0  0  0  0  0  0  0
    4.4140   -6.1300   30.7870 C   0  0  0  0  0  0  0  0  0  0  0  0
    6.1700   -5.7910   28.1070 C   0  0  0  0  0  0  0  0  0  0  0  0
    5.7730   -5.2170   26.7570 C   0  0  0  0  0  0  0  0  0  0  0  0
    7.4910   -3.1080   23.6850 C   0  0  0  0  0  0  0  0  0  0  0  0
    7.7620   -3.2510   22.1860 C   0  0  0  0  0  0  0  0  0  0  0  0
  1  2  1  0
  2  3  2  0
  2  4  1  0
  4  5  1  0
  5  6  1  0
  6  7  1  0
  7  8  1  0
  8  9  2  0
  8 10  1  0
 10 11  1  0
 11 12  1  0
 12 13  1  0
 13 14  1  0
 14 15  2  0
 15 16  1  0
 16 17  2  0
 17 18  1  0
 18 19  1  0
 19 20  1  0
 20 21  2  0
 14 22  1  0
 18 22  2  0
 21 22  1  0
 13 23  1  0
 10 24  1  0
 23 24  1  0
  7 25  1  0
  4 26  1  0
 25 26  1  0
M  END
