piperidine-amides-3312-covalent
     RDKit          3D

 22 23  0  0  0  0  0  0  0  0999 V2000
    7.0770   -3.2890   19.2220 C   0  0  0  0  0  0  0  0  0  0  0  0
    6.3220   -4.0480   20.2150 C   0  0  0  0  0  0  0  0  0  0  0  0
    5.2670   -4.5880   19.8950 O   0  0  0  0  0  0  0  0  0  0  0  0
    6.8210   -4.2210   21.5470 N   0  0  0  0  0  0  0  0  0  0  0  0
    7.6170   -3.1900   22.1660 C   0  0  0  0  0  0  0  0  0  0  0  0
    6.9860   -2.7200   23.4440 C   0  0  0  0  0  0  0  0  0  0  0  0
    6.4860   -3.9390   24.2020 C   0  0  0  0  0  0  0  0  0  0  0  0
    5.7390   -3.4590   25.4040 C   0  0  0  0  0  0  0  0  0  0  0  0
    4.4940   -3.3790   25.4270 O   0  0  0  0  0  0  0  0  0  0  0  0
    6.4810   -3.0670   26.5530 N   0  0  0  0  0  0  0  0  0  0  0  0
    6.3230   -3.7190   27.8480 C   0  0  2  0  0  0  0  0  0  0  0  0
    5.7400   -5.1200   27.7240 C   0  0  0  0  0  0  0  0  0  0  0  0
    5.4470   -5.6870   26.5040 C   0  0  0  0  0  0  0  0  0  0  0  0
    5.5780   -2.8820   28.8070 C   0  0  0  0  0  0  0  0  0  0  0  0
    4.5350   -3.3670   29.5920 C   0  0  0  0  0  0  0  0  0  0  0  0
    3.8690   -2.4460   30.5160 C   0  0  0  0  0  0  0  0  0  0  0  0
    4.2210   -1.1320   30.6470 C   0  0  0  0  0  0  0  0  0  0  0  0
    5.2460   -0.7020   29.8600 C   0  0  0  0  0  0  0  0  0  0  0  0
    5.9020   -1.5410   28.9730 C   0  0  0  0  0  0  0  0  0  0  0  0
    6.9280   -1.0480   28.2100 O   0  0  0  0  0  0  0  0  0  0  0  0
    5.7140   -4.8910   23.4190 C   0  0  0  0  0  0  0  0  0  0  0  0
    6.4480   -5.3560   22.3460 C   0  0  0  0  0  0  0  0  0  0  0  0
  1  2  1  0
  2  3  2  0
  2  4  1  0
  4  5  1  0
  5  6  1  0
  6  7  1  0
  7  8  1  0
  8  9  2  0
  8 10  1  0
 10 11  1  0
 11 12  1  6
 12 13  1  0
 11 14  1  0
 14 15  2  0
 15 16  1  0
 16 17  2  0
 17 18  1  0
 14 19  1  0
 18 19  2  0
 19 20  1  0
  7 21  1  0
  4 22  1  0
 21 22  1  0
M  END
