piperidine-amides-33804-covalent
     RDKit          3D

 30 32  0  0  0  0  0  0  0  0999 V2000
    7.0340   -3.3710   19.4020 C   0  0  0  0  0  0  0  0  0  0  0  0
    6.4130   -4.2370   20.4200 C   0  0  0  0  0  0  0  0  0  0  0  0
    5.4390   -4.9220   20.0130 O   0  0  0  0  0  0  0  0  0  0  0  0
    6.9110   -4.3270   21.7630 N   0  0  0  0  0  0  0  0  0  0  0  0
    6.5680   -5.4660   22.5470 C   0  0  0  0  0  0  0  0  0  0  0  0
    6.0110   -5.1140   23.8550 C   0  0  0  0  0  0  0  0  0  0  0  0
    5.8220   -3.6590   24.0380 C   0  0  0  0  0  0  0  0  0  0  0  0
    4.9840   -3.2630   25.2670 C   0  0  0  0  0  0  0  0  0  0  0  0
    3.7570   -3.3160   25.1150 O   0  0  0  0  0  0  0  0  0  0  0  0
    5.4170   -2.8390   26.5610 N   0  0  0  0  0  0  0  0  0  0  0  0
    6.5710   -3.2040   27.1280 C   0  0  0  0  0  0  0  0  0  0  0  0
    6.4740   -4.2830   28.1170 C   0  0  0  0  0  0  0  0  0  0  0  0
    5.4030   -4.2910   28.8880 N   0  0  0  0  0  0  0  0  0  0  0  0
    4.6890   -5.4660   29.2820 C   0  0  0  0  0  0  0  0  0  0  0  0
    3.8120   -5.9600   28.3410 O   0  0  0  0  0  0  0  0  0  0  0  0
    4.9160   -5.9180   30.4130 O   0  0  0  0  0  0  0  0  0  0  0  0
    4.9150   -7.2050   30.6860 C   0  0  0  0  0  0  0  0  0  0  0  0
    5.9560   -7.9100   29.8230 C   0  0  0  0  0  0  0  0  0  0  0  0
    3.5430   -7.8850   30.5250 C   0  0  0  0  0  0  0  0  0  0  0  0
    5.5960   -7.6020   31.9390 C   0  0  0  0  0  0  0  0  0  0  0  0
    4.6700   -3.1130   28.8790 C   0  0  0  0  0  0  0  0  0  0  0  0
    4.5470   -2.3200   27.5660 C   0  0  1  0  0  0  0  0  0  0  0  0
    4.7180   -0.8090   27.8070 C   0  0  0  0  0  0  0  0  0  0  0  0
    3.5260   -0.1380   28.4110 C   0  0  0  0  0  0  0  0  0  0  0  0
    3.4910    1.2220   28.7060 C   0  0  0  0  0  0  0  0  0  0  0  0
    4.5940    1.9910   28.4350 C   0  0  0  0  0  0  0  0  0  0  0  0
    5.8100    1.3430   27.8260 C   0  0  0  0  0  0  0  0  0  0  0  0
    5.8150   -0.0180   27.5430 C   0  0  0  0  0  0  0  0  0  0  0  0
    7.1720   -3.0000   23.8340 C   0  0  0  0  0  0  0  0  0  0  0  0
    7.6110   -3.2000   22.3730 C   0  0  0  0  0  0  0  0  0  0  0  0
  1  2  1  0
  2  3  2  0
  2  4  1  0
  4  5  1  0
  5  6  1  0
  6  7  1  0
  7  8  1  0
  8  9  2  0
  8 10  1  0
 10 11  1  0
 11 12  1  0
 12 13  1  0
 13 14  1  0
 14 15  2  0
 14 16  1  0
 17 16  1  0
 17 18  1  0
 17 19  1  0
 17 20  1  0
 13 21  1  0
 10 22  1  0
 21 22  1  0
 22 23  1  1
 23 24  2  0
 24 25  1  0
 25 26  2  0
 26 27  1  0
 23 28  1  0
 27 28  2  0
  7 29  1  0
  4 30  1  0
 29 30  1  0
M  END
