piperidine-amides-15202-covalent
     RDKit          3D

 18 19  0  0  0  0  0  0  0  0999 V2000
    7.0870   -3.3160   19.3330 C   0  0  0  0  0  0  0  0  0  0  0  0
    6.3870   -4.1710   20.3000 C   0  0  0  0  0  0  0  0  0  0  0  0
    5.3560   -4.7870   19.9650 O   0  0  0  0  0  0  0  0  0  0  0  0
    6.9070   -4.3420   21.5850 N   0  0  0  0  0  0  0  0  0  0  0  0
    7.6120   -3.2470   22.2200 C   0  0  0  0  0  0  0  0  0  0  0  0
    6.6600   -2.6670   23.2750 C   0  0  0  0  0  0  0  0  0  0  0  0
    6.5060   -3.7600   24.3040 C   0  0  0  0  0  0  0  0  0  0  0  0
    5.7030   -3.2860   25.4580 C   0  0  0  0  0  0  0  0  0  0  0  0
    4.4570   -3.2230   25.3750 O   0  0  0  0  0  0  0  0  0  0  0  0
    6.3490   -2.9160   26.6560 N   0  0  0  0  0  0  0  0  0  0  0  0
    6.6410   -1.5420   26.9860 C   0  0  1  0  0  0  0  0  0  0  0  0
    5.8200   -0.5270   26.1940 C   0  0  0  0  0  0  0  0  0  0  0  0
    5.5670    0.6260   26.9040 C   0  0  0  0  0  0  0  0  0  0  0  0
    6.0340    0.4240   28.5680 S   0  0  0  0  0  0  0  0  0  0  0  0
    6.5030   -1.2370   28.4050 C   0  0  2  0  0  0  0  0  0  0  0  0
    7.5730   -1.5750   29.1930 C   0  0  0  0  0  0  0  0  0  0  0  0
    5.9360   -5.0160   23.7460 C   0  0  0  0  0  0  0  0  0  0  0  0
    6.4920   -5.4410   22.4090 C   0  0  0  0  0  0  0  0  0  0  0  0
  1  2  1  0
  2  3  2  0
  2  4  1  0
  4  5  1  0
  5  6  1  0
  6  7  1  0
  7  8  1  0
  8  9  2  0
  8 10  1  0
 11 10  1  1
 11 12  1  0
 12 13  1  0
 13 14  1  0
 11 15  1  0
 14 15  1  0
 15 16  1  1
  7 17  1  0
  4 18  1  0
 17 18  1  0
M  END
