piperidine-amides-9092-covalent
     RDKit          3D

 21 22  0  0  0  0  0  0  0  0999 V2000
    7.0900   -3.3230   19.2700 C   0  0  0  0  0  0  0  0  0  0  0  0
    6.3800   -4.1340   20.2600 C   0  0  0  0  0  0  0  0  0  0  0  0
    5.3300   -4.7080   19.9370 O   0  0  0  0  0  0  0  0  0  0  0  0
    6.8950   -4.3290   21.5490 N   0  0  0  0  0  0  0  0  0  0  0  0
    6.5920   -5.4860   22.3540 C   0  0  0  0  0  0  0  0  0  0  0  0
    5.8080   -4.9520   23.5250 C   0  0  0  0  0  0  0  0  0  0  0  0
    6.5310   -3.8260   24.2120 C   0  0  0  0  0  0  0  0  0  0  0  0
    5.7820   -3.2780   25.3630 C   0  0  0  0  0  0  0  0  0  0  0  0
    4.5460   -3.0140   25.2610 O   0  0  0  0  0  0  0  0  0  0  0  0
    6.3900   -3.0400   26.6100 N   0  0  0  0  0  0  0  0  0  0  0  0
    6.4020   -1.7020   27.2460 C   0  0  0  0  0  0  0  0  0  0  0  0
    7.0100   -1.6480   28.5890 C   0  0  0  0  0  0  0  0  0  0  0  0
    7.0730   -0.3980   29.3270 C   0  0  0  0  0  0  0  0  0  0  0  0
    6.5070    0.8240   28.6890 C   0  0  0  0  0  0  0  0  0  0  0  0
    6.5840    1.9910   29.4070 O   0  0  0  0  0  0  0  0  0  0  0  0
    5.3380    2.2910   29.8960 C   0  0  0  0  0  0  0  0  0  0  0  0
    5.8780    0.7610   27.2900 C   0  0  0  0  0  0  0  0  0  0  0  0
    5.8090   -0.4180   26.5720 C   0  0  0  0  0  0  0  0  0  0  0  0
    5.0210   -0.4640   24.8520 Br  0  0  0  0  0  0  0  0  0  0  0  0
    6.8450   -2.7070   23.2670 C   0  0  0  0  0  0  0  0  0  0  0  0
    7.6920   -3.2870   22.1720 C   0  0  0  0  0  0  0  0  0  0  0  0
  1  2  1  0
  2  3  2  0
  2  4  1  0
  4  5  1  0
  5  6  1  0
  6  7  1  0
  7  8  1  0
  8  9  2  0
  8 10  1  0
 10 11  1  0
 11 12  2  0
 12 13  1  0
 13 14  2  0
 14 15  1  0
 15 16  1  0
 14 17  1  0
 11 18  1  0
 17 18  2  0
 18 19  1  0
  7 20  1  0
  4 21  1  0
 20 21  1  0
M  END
