piperidine-amides-11899-covalent
     RDKit          3D

 27 29  0  0  0  0  0  0  0  0999 V2000
    7.0570   -3.3370   19.3650 C   0  0  0  0  0  0  0  0  0  0  0  0
    6.3720   -4.1810   20.3400 C   0  0  0  0  0  0  0  0  0  0  0  0
    5.4010   -4.8540   19.9880 O   0  0  0  0  0  0  0  0  0  0  0  0
    6.8510   -4.2590   21.6970 N   0  0  0  0  0  0  0  0  0  0  0  0
    7.7150   -3.2150   22.2100 C   0  0  0  0  0  0  0  0  0  0  0  0
    7.4030   -2.8940   23.6430 C   0  0  0  0  0  0  0  0  0  0  0  0
    6.0510   -3.5000   23.9530 C   0  0  0  0  0  0  0  0  0  0  0  0
    5.5870   -3.1670   25.3310 C   0  0  0  0  0  0  0  0  0  0  0  0
    4.3790   -3.0490   25.6030 O   0  0  0  0  0  0  0  0  0  0  0  0
    6.5380   -2.9810   26.3600 N   0  0  0  0  0  0  0  0  0  0  0  0
    6.5100   -1.7870   27.1790 C   0  0  0  0  0  0  0  0  0  0  0  0
    5.8120   -0.5780   26.6160 C   0  0  0  0  0  0  0  0  0  0  0  0
    5.7310    0.6280   27.3210 C   0  0  0  0  0  0  0  0  0  0  0  0
    6.2960    0.8100   28.6110 C   0  0  0  0  0  0  0  0  0  0  0  0
    6.1780    2.0440   29.2630 O   0  0  0  0  0  0  0  0  0  0  0  0
    6.5640    2.1670   30.6200 C   0  0  0  0  0  0  0  0  0  0  0  0
    5.5190    2.8430   31.3680 C   0  0  0  0  0  0  0  0  0  0  0  0
    4.3100    2.3110   31.7840 C   0  0  0  0  0  0  0  0  0  0  0  0
    3.3700    3.0200   32.4930 C   0  0  0  0  0  0  0  0  0  0  0  0
    3.5530    4.3390   32.8570 C   0  0  0  0  0  0  0  0  0  0  0  0
    2.3300    5.2060   33.7580 Cl  0  0  0  0  0  0  0  0  0  0  0  0
    4.8280    4.8950   32.4160 C   0  0  0  0  0  0  0  0  0  0  0  0
    5.7720    4.1720   31.6990 C   0  0  0  0  0  0  0  0  0  0  0  0
    7.0000   -0.3920   29.1940 C   0  0  0  0  0  0  0  0  0  0  0  0
    7.0760   -1.6530   28.4410 C   0  0  0  0  0  0  0  0  0  0  0  0
    6.0030   -4.9910   23.7990 C   0  0  0  0  0  0  0  0  0  0  0  0
    6.6120   -5.4390   22.4850 C   0  0  0  0  0  0  0  0  0  0  0  0
  1  2  1  0
  2  3  2  0
  2  4  1  0
  4  5  1  0
  5  6  1  0
  6  7  1  0
  7  8  1  0
  8  9  2  0
  8 10  1  0
 10 11  1  0
 11 12  2  0
 12 13  1  0
 13 14  2  0
 14 15  1  0
 15 16  1  0
 16 17  1  0
 17 18  2  0
 18 19  1  0
 19 20  2  0
 20 21  1  0
 20 22  1  0
 17 23  1  0
 22 23  2  0
 14 24  1  0
 11 25  1  0
 24 25  2  0
  7 26  1  0
  4 27  1  0
 26 27  1  0
M  END
