piperidine-amides-27928-covalent
     RDKit          3D

 26 28  0  0  0  0  0  0  0  0999 V2000
    7.0050   -3.3670   19.3500 C   0  0  0  0  0  0  0  0  0  0  0  0
    6.3950   -4.2520   20.3710 C   0  0  0  0  0  0  0  0  0  0  0  0
    5.3920   -4.8940   19.9930 O   0  0  0  0  0  0  0  0  0  0  0  0
    6.9430   -4.3940   21.6630 N   0  0  0  0  0  0  0  0  0  0  0  0
    6.5430   -5.4590   22.5130 C   0  0  0  0  0  0  0  0  0  0  0  0
    5.9120   -5.0410   23.7820 C   0  0  0  0  0  0  0  0  0  0  0  0
    6.2940   -3.7160   24.3550 C   0  0  0  0  0  0  0  0  0  0  0  0
    5.1840   -3.2400   25.2530 C   0  0  0  0  0  0  0  0  0  0  0  0
    4.1470   -2.8520   24.6990 O   0  0  0  0  0  0  0  0  0  0  0  0
    5.2550   -3.2160   26.6740 N   0  0  0  0  0  0  0  0  0  0  0  0
    4.1000   -3.4990   27.5210 C   0  0  0  0  0  0  0  0  0  0  0  0
    4.5690   -4.2090   28.7320 C   0  0  0  0  0  0  0  0  0  0  0  0
    5.7770   -3.7110   29.3260 C   0  0  0  0  0  0  0  0  0  0  0  0
    6.7340   -3.2060   28.5080 C   0  0  2  0  0  0  0  0  0  0  0  0
    7.0950   -1.8530   28.4730 C   0  0  0  0  0  0  0  0  0  0  0  0
    6.5630   -1.1120   27.4330 C   0  0  0  0  0  0  0  0  0  0  0  0
    6.8360    0.2340   27.2450 C   0  0  0  0  0  0  0  0  0  0  0  0
    7.6530    0.9590   28.0630 C   0  0  0  0  0  0  0  0  0  0  0  0
    7.9590    2.3120   27.9100 C   0  0  0  0  0  0  0  0  0  0  0  0
    8.2470    0.3670   29.1290 C   0  0  0  0  0  0  0  0  0  0  0  0
    9.0700    1.1580   29.9250 O   0  0  0  0  0  0  0  0  0  0  0  0
   10.2600    0.6440   30.4500 C   0  0  0  0  0  0  0  0  0  0  0  0
    7.9800   -1.0970   29.3770 C   0  0  0  0  0  0  0  0  0  0  0  0
    6.4620   -3.6710   27.2110 C   0  0  0  0  0  0  0  0  0  0  0  0
    6.8240   -2.7510   23.3820 C   0  0  0  0  0  0  0  0  0  0  0  0
    7.6970   -3.3410   22.3280 C   0  0  0  0  0  0  0  0  0  0  0  0
  1  2  1  0
  2  3  2  0
  2  4  1  0
  4  5  1  0
  5  6  1  0
  6  7  1  0
  7  8  1  0
  8  9  2  0
  8 10  1  0
 10 11  1  0
 11 12  1  0
 12 13  1  0
 13 14  1  0
 14 15  1  6
 15 16  2  0
 16 17  1  0
 17 18  2  0
 18 19  1  0
 18 20  1  0
 20 21  1  0
 21 22  1  0
 15 23  1  0
 20 23  2  0
 10 24  1  0
 14 24  1  0
  7 25  1  0
  4 26  1  0
 25 26  1  0
M  END
