piperidine-amides-27207-covalent
     RDKit          3D

 21 22  0  0  0  0  0  0  0  0999 V2000
    7.0550   -3.3490   19.3560 C   0  0  0  0  0  0  0  0  0  0  0  0
    6.4030   -4.2040   20.3540 C   0  0  0  0  0  0  0  0  0  0  0  0
    5.3560   -4.7900   19.9700 O   0  0  0  0  0  0  0  0  0  0  0  0
    6.9500   -4.4010   21.6330 N   0  0  0  0  0  0  0  0  0  0  0  0
    6.6070   -5.5340   22.4410 C   0  0  0  0  0  0  0  0  0  0  0  0
    5.7650   -5.0280   23.5790 C   0  0  0  0  0  0  0  0  0  0  0  0
    6.4000   -3.9000   24.3700 C   0  0  0  0  0  0  0  0  0  0  0  0
    5.3190   -3.2690   25.1750 C   0  0  0  0  0  0  0  0  0  0  0  0
    4.3250   -2.8270   24.5680 O   0  0  0  0  0  0  0  0  0  0  0  0
    5.3520   -3.1270   26.5680 N   0  0  0  0  0  0  0  0  0  0  0  0
    5.9340   -4.2870   27.2690 C   0  0  0  0  0  0  0  0  0  0  0  0
    5.1550   -5.5740   27.1460 C   0  0  0  0  0  0  0  0  0  0  0  0
    5.5600   -1.8260   27.1880 C   0  0  0  0  0  0  0  0  0  0  0  0
    5.6350   -0.6750   26.4090 C   0  0  0  0  0  0  0  0  0  0  0  0
    5.8710    0.5910   26.9720 C   0  0  0  0  0  0  0  0  0  0  0  0
    6.0500    0.7840   28.3360 C   0  0  0  0  0  0  0  0  0  0  0  0
    5.9880   -0.2900   29.1680 C   0  0  0  0  0  0  0  0  0  0  0  0
    6.2300   -0.0430   31.0410 Br  0  0  0  0  0  0  0  0  0  0  0  0
    5.7280   -1.6300   28.5510 C   0  0  0  0  0  0  0  0  0  0  0  0
    6.9970   -2.8100   23.5270 C   0  0  0  0  0  0  0  0  0  0  0  0
    7.6550   -3.2760   22.2450 C   0  0  0  0  0  0  0  0  0  0  0  0
  1  2  1  0
  2  3  2  0
  2  4  1  0
  4  5  1  0
  5  6  1  0
  6  7  1  0
  7  8  1  0
  8  9  2  0
  8 10  1  0
 10 11  1  0
 11 12  1  0
 10 13  1  0
 13 14  2  0
 14 15  1  0
 15 16  2  0
 16 17  1  0
 17 18  1  0
 13 19  1  0
 17 19  2  0
  7 20  1  0
  4 21  1  0
 20 21  1  0
M  END
