piperidine-amides-3694-covalent
     RDKit          3D

 27 29  0  0  0  0  0  0  0  0999 V2000
    7.1230   -3.2730   19.2490 C   0  0  0  0  0  0  0  0  0  0  0  0
    6.3830   -4.0320   20.2760 C   0  0  0  0  0  0  0  0  0  0  0  0
    5.3160   -4.5780   19.9050 O   0  0  0  0  0  0  0  0  0  0  0  0
    6.8770   -4.1850   21.6030 N   0  0  0  0  0  0  0  0  0  0  0  0
    7.7270   -3.1760   22.1390 C   0  0  0  0  0  0  0  0  0  0  0  0
    7.3630   -2.8600   23.4950 C   0  0  0  0  0  0  0  0  0  0  0  0
    6.1110   -3.5400   23.8370 C   0  0  0  0  0  0  0  0  0  0  0  0
    5.5950   -3.1190   25.1820 C   0  0  0  0  0  0  0  0  0  0  0  0
    4.4770   -2.5760   25.2370 O   0  0  0  0  0  0  0  0  0  0  0  0
    6.3130   -3.3050   26.3710 N   0  0  0  0  0  0  0  0  0  0  0  0
    6.0200   -4.1730   27.4500 C   0  0  0  0  0  0  0  0  0  0  0  0
    4.7080   -4.2380   28.0900 C   0  0  0  0  0  0  0  0  0  0  0  0
    3.7120   -5.1960   27.4010 C   0  0  0  0  0  0  0  0  0  0  0  0
    2.7000   -4.4740   26.8040 O   0  0  0  0  0  0  0  0  0  0  0  0
    3.7550   -6.4430   27.3520 O   0  0  0  0  0  0  0  0  0  0  0  0
    2.8450   -7.2660   26.8380 C   0  0  0  0  0  0  0  0  0  0  0  0
    3.3280   -7.7160   25.4580 C   0  0  0  0  0  0  0  0  0  0  0  0
    4.0330   -3.0160   28.4930 C   0  0  0  0  0  0  0  0  0  0  0  0
    4.2340   -3.1040   29.9660 C   0  0  0  0  0  0  0  0  0  0  0  0
    3.2280   -2.8010   31.0120 C   0  0  0  0  0  0  0  0  0  0  0  0
    3.8620   -1.4520   31.0110 C   0  0  0  0  0  0  0  0  0  0  0  0
    4.4390   -1.1930   32.2230 F   0  0  0  0  0  0  0  0  0  0  0  0
    3.0430   -0.4710   30.5320 F   0  0  0  0  0  0  0  0  0  0  0  0
    4.9420   -1.7810   29.9250 C   0  0  0  0  0  0  0  0  0  0  0  0
    4.8450   -4.4780   29.6470 C   0  0  0  0  0  0  0  0  0  0  0  0
    6.1560   -5.0310   23.6670 C   0  0  0  0  0  0  0  0  0  0  0  0
    6.5810   -5.3700   22.3740 C   0  0  0  0  0  0  0  0  0  0  0  0
  1  2  1  0
  2  3  2  0
  2  4  1  0
  4  5  1  0
  5  6  1  0
  6  7  1  0
  7  8  1  0
  8  9  2  0
  8 10  1  0
 10 11  1  0
 11 12  1  0
 12 13  1  0
 13 14  2  0
 13 15  1  0
 15 16  1  0
 16 17  1  0
 12 18  1  0
 19 18  1  0
 19 20  1  0
 20 21  1  0
 21 22  1  0
 21 23  1  0
 19 24  1  0
 21 24  1  0
 12 25  1  0
 19 25  1  0
  7 26  1  0
  4 27  1  0
 26 27  1  0
M  END
