piperidine-amides-31812-covalent
     RDKit          3D

 27 30  0  0  0  0  0  0  0  0999 V2000
    7.0540   -3.3570   19.5120 C   0  0  0  0  0  0  0  0  0  0  0  0
    6.3800   -4.2230   20.4620 C   0  0  0  0  0  0  0  0  0  0  0  0
    5.4480   -4.9690   20.0120 O   0  0  0  0  0  0  0  0  0  0  0  0
    6.7290   -4.2860   21.8370 N   0  0  0  0  0  0  0  0  0  0  0  0
    7.7050   -3.2580   22.3150 C   0  0  0  0  0  0  0  0  0  0  0  0
    7.3050   -3.0160   23.8300 C   0  0  0  0  0  0  0  0  0  0  0  0
    6.0260   -3.7830   24.0380 C   0  0  0  0  0  0  0  0  0  0  0  0
    5.1090   -3.2340   25.2550 C   0  0  0  0  0  0  0  0  0  0  0  0
    4.2240   -2.5440   24.7950 O   0  0  0  0  0  0  0  0  0  0  0  0
    5.5200   -3.6420   26.3940 N   0  0  0  0  0  0  0  0  0  0  0  0
    6.3270   -4.1790   27.2840 C   0  0  0  0  0  0  0  0  0  0  0  0
    6.5980   -4.2650   28.6110 C   0  0  0  0  0  0  0  0  0  0  0  0
    5.4420   -3.9300   29.2560 C   0  0  0  0  0  0  0  0  0  0  0  0
    5.4190   -2.5880   29.8690 C   0  0  0  0  0  0  0  0  0  0  0  0
    4.3830   -1.8440   30.4640 N   0  0  0  0  0  0  0  0  0  0  0  0
    5.1130   -0.6850   30.8220 C   0  0  0  0  0  0  0  0  0  0  0  0
    4.4990    0.3810   31.4690 C   0  0  0  0  0  0  0  0  0  0  0  0
    5.0350    1.6440   31.9280 C   0  0  0  0  0  0  0  0  0  0  0  0
    4.1960    2.9480   32.7440 Cl  0  0  0  0  0  0  0  0  0  0  0  0
    6.5490    1.4820   31.4830 C   0  0  0  0  0  0  0  0  0  0  0  0
    7.1820    0.2460   30.7510 C   0  0  0  0  0  0  0  0  0  0  0  0
    6.3930   -0.7640   30.4720 C   0  0  0  0  0  0  0  0  0  0  0  0
    6.6640   -1.8760   29.8880 O   0  0  0  0  0  0  0  0  0  0  0  0
    4.2970   -3.9460   28.4090 C   0  0  0  0  0  0  0  0  0  0  0  0
    4.4370   -3.1950   27.2760 C   0  0  0  0  0  0  0  0  0  0  0  0
    6.1200   -5.2580   23.8450 C   0  0  0  0  0  0  0  0  0  0  0  0
    6.6300   -5.5300   22.5670 C   0  0  0  0  0  0  0  0  0  0  0  0
  1  2  1  0
  2  3  2  0
  2  4  1  0
  4  5  1  0
  5  6  1  0
  6  7  1  0
  7  8  1  0
  8  9  2  0
  8 10  1  0
 10 11  1  0
 11 12  1  0
 12 13  1  0
 13 14  1  0
 14 15  2  0
 15 16  1  0
 16 17  2  0
 17 18  1  0
 18 19  1  0
 18 20  2  0
 20 21  1  0
 16 22  1  0
 21 22  2  0
 14 23  1  0
 22 23  1  0
 13 24  1  0
 10 25  1  0
 24 25  1  0
  7 26  1  0
  4 27  1  0
 26 27  1  0
M  END
