piperidine-amides-32363-covalent
     RDKit          3D

 28 29  0  0  0  0  0  0  0  0999 V2000
    7.0660   -3.3600   19.3740 C   0  0  0  0  0  0  0  0  0  0  0  0
    6.4020   -4.2550   20.3590 C   0  0  0  0  0  0  0  0  0  0  0  0
    5.3870   -4.8750   19.9970 O   0  0  0  0  0  0  0  0  0  0  0  0
    6.9770   -4.4150   21.6450 N   0  0  0  0  0  0  0  0  0  0  0  0
    6.6940   -5.5530   22.4700 C   0  0  0  0  0  0  0  0  0  0  0  0
    5.7460   -5.0690   23.5810 C   0  0  0  0  0  0  0  0  0  0  0  0
    6.3170   -3.8890   24.3340 C   0  0  0  0  0  0  0  0  0  0  0  0
    5.2600   -3.2670   25.1870 C   0  0  0  0  0  0  0  0  0  0  0  0
    4.1660   -3.1340   24.6450 O   0  0  0  0  0  0  0  0  0  0  0  0
    5.4680   -2.8630   26.5130 N   0  0  0  0  0  0  0  0  0  0  0  0
    4.4870   -2.7110   27.5060 C   0  0  0  0  0  0  0  0  0  0  0  0
    4.5620   -3.3600   28.7200 C   0  0  0  0  0  0  0  0  0  0  0  0
    5.6800   -4.1130   29.0360 C   0  0  1  0  0  0  0  0  0  0  0  0
    5.1490   -5.2310   29.8110 N   0  0  0  0  0  0  0  0  0  0  0  0
    4.0160   -5.2410   30.5630 C   0  0  0  0  0  0  0  0  0  0  0  0
    3.3410   -4.1230   30.7870 O   0  0  0  0  0  0  0  0  0  0  0  0
    3.5500   -6.4110   31.1090 O   0  0  0  0  0  0  0  0  0  0  0  0
    4.1650   -7.0540   32.2290 C   0  0  0  0  0  0  0  0  0  0  0  0
    3.8980   -6.2140   33.4870 C   0  0  0  0  0  0  0  0  0  0  0  0
    5.4500   -7.4710   32.1120 C   0  0  0  0  0  0  0  0  0  0  0  0
    3.4010   -8.2920   32.5850 C   0  0  0  0  0  0  0  0  0  0  0  0
    6.2860   -4.4250   27.8670 C   0  0  2  0  0  0  0  0  0  0  0  0
    7.4330   -5.1830   28.3040 C   0  0  0  0  0  0  0  0  0  0  0  0
    7.2630   -6.4490   28.6080 C   0  0  0  0  0  0  0  0  0  0  0  0
    8.0780   -6.0430   27.3160 C   0  0  0  0  0  0  0  0  0  0  0  0
    6.6440   -3.3520   27.1300 C   0  0  0  0  0  0  0  0  0  0  0  0
    6.8180   -2.7760   23.4220 C   0  0  0  0  0  0  0  0  0  0  0  0
    7.6320   -3.2900   22.2940 C   0  0  0  0  0  0  0  0  0  0  0  0
  1  2  1  0
  2  3  2  0
  2  4  1  0
  4  5  1  0
  5  6  1  0
  6  7  1  0
  7  8  1  0
  8  9  2  0
  8 10  1  0
 10 11  1  0
 11 12  1  0
 12 13  1  0
 13 14  1  6
 14 15  1  0
 15 16  2  0
 15 17  1  0
 18 17  1  0
 18 19  1  0
 18 20  1  0
 18 21  1  0
 13 22  1  0
 22 23  1  1
 23 24  1  0
 23 25  1  0
 10 26  1  0
 22 26  1  0
  7 27  1  0
  4 28  1  0
 27 28  1  0
M  END
