piperidine-amides-12220-covalent
     RDKit          3D

 24 25  0  0  0  0  0  0  0  0999 V2000
    7.0300   -3.3540   19.3480 C   0  0  0  0  0  0  0  0  0  0  0  0
    6.3560   -4.1870   20.3400 C   0  0  0  0  0  0  0  0  0  0  0  0
    5.3870   -4.8610   19.9900 O   0  0  0  0  0  0  0  0  0  0  0  0
    6.8340   -4.2650   21.7040 N   0  0  0  0  0  0  0  0  0  0  0  0
    7.7050   -3.2320   22.2270 C   0  0  0  0  0  0  0  0  0  0  0  0
    7.3760   -2.9750   23.6670 C   0  0  0  0  0  0  0  0  0  0  0  0
    6.0490   -3.6590   23.9100 C   0  0  0  0  0  0  0  0  0  0  0  0
    5.4280   -3.2730   25.2130 C   0  0  0  0  0  0  0  0  0  0  0  0
    4.2060   -3.0590   25.3080 O   0  0  0  0  0  0  0  0  0  0  0  0
    6.2120   -3.1380   26.3820 N   0  0  0  0  0  0  0  0  0  0  0  0
    6.5260   -1.8120   26.8770 C   0  0  0  0  0  0  0  0  0  0  0  0
    6.6740   -1.9640   28.3690 C   0  0  0  0  0  0  0  0  0  0  0  0
    6.9830   -0.8580   29.1300 C   0  0  0  0  0  0  0  0  0  0  0  0
    6.2280    0.3060   28.7610 N   0  0  0  0  0  0  0  0  0  0  0  0
    6.5900    1.4790   29.5060 C   0  0  0  0  0  0  0  0  0  0  0  0
    6.6850    1.2880   30.8750 C   0  0  0  0  0  0  0  0  0  0  0  0
    7.8280    0.4940   31.3160 C   0  0  0  0  0  0  0  0  0  0  0  0
    7.0190    2.4060   31.5920 C   0  0  0  0  0  0  0  0  0  0  0  0
    5.4570    0.8840   31.3670 C   0  0  0  0  0  0  0  0  0  0  0  0
    5.4640    1.2020   32.7140 O   0  0  0  0  0  0  0  0  0  0  0  0
    5.6840    0.4050   27.5190 C   0  0  0  0  0  0  0  0  0  0  0  0
    5.7170   -0.7060   26.5490 C   0  0  0  0  0  0  0  0  0  0  0  0
    6.1260   -5.1650   23.7200 C   0  0  0  0  0  0  0  0  0  0  0  0
    6.6590   -5.4790   22.4650 C   0  0  0  0  0  0  0  0  0  0  0  0
  1  2  1  0
  2  3  2  0
  2  4  1  0
  4  5  1  0
  5  6  1  0
  6  7  1  0
  7  8  1  0
  8  9  2  0
  8 10  1  0
 10 11  1  0
 11 12  1  0
 12 13  1  0
 13 14  1  0
 14 15  1  0
 16 15  1  0
 16 17  1  0
 16 18  1  0
 16 19  1  0
 19 20  1  0
 14 21  1  0
 11 22  1  0
 21 22  1  0
  7 23  1  0
  4 24  1  0
 23 24  1  0
M  END
