piperidine-amides-27374-covalent
     RDKit          3D

 25 27  0  0  0  0  0  0  0  0999 V2000
    7.0950   -3.3400   19.3240 C   0  0  0  0  0  0  0  0  0  0  0  0
    6.3530   -4.1290   20.3070 C   0  0  0  0  0  0  0  0  0  0  0  0
    5.2810   -4.6550   19.9160 O   0  0  0  0  0  0  0  0  0  0  0  0
    6.8670   -4.3090   21.5840 N   0  0  0  0  0  0  0  0  0  0  0  0
    6.6030   -5.5170   22.3230 C   0  0  0  0  0  0  0  0  0  0  0  0
    5.9290   -5.1150   23.6020 C   0  0  0  0  0  0  0  0  0  0  0  0
    6.6690   -3.9900   24.2820 C   0  0  0  0  0  0  0  0  0  0  0  0
    5.8920   -3.5060   25.4600 C   0  0  0  0  0  0  0  0  0  0  0  0
    4.6900   -3.2200   25.2610 O   0  0  0  0  0  0  0  0  0  0  0  0
    6.4020   -3.3310   26.7830 N   0  0  0  0  0  0  0  0  0  0  0  0
    5.8700   -2.2880   27.6210 C   0  0  0  0  0  0  0  0  0  0  0  0
    4.6750   -2.7720   28.4550 C   0  0  2  0  0  0  0  0  0  0  0  0
    3.9490   -1.8510   28.9110 O   0  0  0  0  0  0  0  0  0  0  0  0
    4.8220   -3.5440   29.5720 C   0  0  1  0  0  0  0  0  0  0  0  0
    3.7740   -3.2910   30.4180 O   0  0  0  0  0  0  0  0  0  0  0  0
    5.0910   -4.8780   29.3960 C   0  0  0  0  0  0  0  0  0  0  0  0
    5.7870   -5.1590   28.2640 C   0  0  0  0  0  0  0  0  0  0  0  0
    5.0590   -5.7150   27.2410 C   0  0  0  0  0  0  0  0  0  0  0  0
    4.3390   -6.8630   27.5450 C   0  0  0  0  0  0  0  0  0  0  0  0
    4.7120   -7.6060   28.5090 O   0  0  0  0  0  0  0  0  0  0  0  0
    5.7910   -7.3300   29.3970 C   0  0  0  0  0  0  0  0  0  0  0  0
    6.6440   -6.2210   28.7950 C   0  0  0  0  0  0  0  0  0  0  0  0
    6.5060   -4.0310   28.0370 C   0  0  0  0  0  0  0  0  0  0  0  0
    6.9040   -2.8380   23.3510 C   0  0  0  0  0  0  0  0  0  0  0  0
    7.6370   -3.2680   22.2730 C   0  0  0  0  0  0  0  0  0  0  0  0
  1  2  1  0
  2  3  2  0
  2  4  1  0
  4  5  1  0
  5  6  1  0
  6  7  1  0
  7  8  1  0
  8  9  2  0
  8 10  1  0
 10 11  1  0
 11 12  1  0
 12 13  1  1
 12 14  1  0
 14 15  1  6
 14 16  1  0
 17 16  1  0
 17 18  1  0
 18 19  1  0
 19 20  1  0
 20 21  1  0
 17 22  1  0
 21 22  1  0
 10 23  1  0
 17 23  1  0
  7 24  1  0
  4 25  1  0
 24 25  1  0
M  END
