piperidine-amides-3244-covalent
     RDKit          3D

 22 23  0  0  0  0  0  0  0  0999 V2000
    7.0720   -3.2920   19.3160 C   0  0  0  0  0  0  0  0  0  0  0  0
    6.3530   -4.1010   20.2990 C   0  0  0  0  0  0  0  0  0  0  0  0
    5.3550   -4.7350   19.9520 O   0  0  0  0  0  0  0  0  0  0  0  0
    6.8180   -4.1970   21.6600 N   0  0  0  0  0  0  0  0  0  0  0  0
    7.6950   -3.1770   22.1930 C   0  0  0  0  0  0  0  0  0  0  0  0
    7.4030   -2.9620   23.6470 C   0  0  0  0  0  0  0  0  0  0  0  0
    6.0890   -3.6680   23.9160 C   0  0  0  0  0  0  0  0  0  0  0  0
    5.5890   -3.3310   25.2770 C   0  0  0  0  0  0  0  0  0  0  0  0
    4.3720   -3.2200   25.5230 O   0  0  0  0  0  0  0  0  0  0  0  0
    6.5080   -3.1240   26.3270 N   0  0  0  0  0  0  0  0  0  0  0  0
    6.1480   -3.5290   27.6700 C   0  0  0  0  0  0  0  0  0  0  0  0
    5.7050   -4.9760   27.6650 C   0  0  0  0  0  0  0  0  0  0  0  0
    5.4300   -5.5730   28.8740 C   0  0  0  0  0  0  0  0  0  0  0  0
    6.1910   -6.6500   29.3240 C   0  0  0  0  0  0  0  0  0  0  0  0
    5.8880   -7.2350   30.5370 C   0  0  0  0  0  0  0  0  0  0  0  0
    4.7870   -6.7100   31.3240 C   0  0  0  0  0  0  0  0  0  0  0  0
    4.4640   -7.5090   32.8680 Cl  0  0  0  0  0  0  0  0  0  0  0  0
    3.9950   -5.6540   30.9570 C   0  0  0  0  0  0  0  0  0  0  0  0
    2.9350   -5.0710   31.6190 C   0  0  0  0  0  0  0  0  0  0  0  0
    4.3950   -5.0800   29.6140 C   0  0  0  0  0  0  0  0  0  0  0  0
    6.0840   -5.1010   23.6610 C   0  0  0  0  0  0  0  0  0  0  0  0
    6.6440   -5.4090   22.4250 C   0  0  0  0  0  0  0  0  0  0  0  0
  1  2  1  0
  2  3  2  0
  2  4  1  0
  4  5  1  0
  5  6  1  0
  6  7  1  0
  7  8  1  0
  8  9  2  0
  8 10  1  0
 10 11  1  0
 11 12  1  0
 12 13  1  0
 13 14  2  0
 14 15  1  0
 15 16  2  0
 16 17  1  0
 16 18  1  0
 18 19  1  0
 13 20  1  0
 18 20  2  0
  7 21  1  0
  4 22  1  0
 21 22  1  0
M  END
