piperidine-amides-33786-covalent
     RDKit          3D

 30 32  0  0  0  0  0  0  0  0999 V2000
    7.1130   -3.3280   19.2710 C   0  0  0  0  0  0  0  0  0  0  0  0
    6.4290   -4.1400   20.2850 C   0  0  0  0  0  0  0  0  0  0  0  0
    5.3500   -4.6830   19.9410 O   0  0  0  0  0  0  0  0  0  0  0  0
    6.9950   -4.3610   21.5650 N   0  0  0  0  0  0  0  0  0  0  0  0
    7.6460   -3.2650   22.2010 C   0  0  0  0  0  0  0  0  0  0  0  0
    7.1340   -2.8840   23.5160 C   0  0  0  0  0  0  0  0  0  0  0  0
    6.3850   -3.9060   24.2830 C   0  0  0  0  0  0  0  0  0  0  0  0
    5.4800   -3.2730   25.2900 C   0  0  0  0  0  0  0  0  0  0  0  0
    4.3620   -2.9000   24.9020 O   0  0  0  0  0  0  0  0  0  0  0  0
    5.8030   -3.0950   26.6550 N   0  0  0  0  0  0  0  0  0  0  0  0
    6.0450   -1.8120   27.2520 C   0  0  0  0  0  0  0  0  0  0  0  0
    6.8960   -1.7320   28.4660 C   0  0  0  0  0  0  0  0  0  0  0  0
    7.2070   -0.3780   29.2080 C   0  0  0  0  0  0  0  0  0  0  0  0
    6.5690    0.6710   28.5510 C   0  0  0  0  0  0  0  0  0  0  0  0
    6.9970    1.8530   29.4360 C   0  0  0  0  0  0  0  0  0  0  0  0
    7.5460    2.9520   28.7790 O   0  0  0  0  0  0  0  0  0  0  0  0
    6.7740    1.7380   30.8460 N   0  0  0  0  0  0  0  0  0  0  0  0
    5.4740    1.0820   31.0500 C   0  0  0  0  0  0  0  0  0  0  0  0
    4.8000    2.4360   30.8080 C   0  0  0  0  0  0  0  0  0  0  0  0
    5.7760    0.6910   27.4340 C   0  0  0  0  0  0  0  0  0  0  0  0
    5.5330   -0.6290   26.7910 C   0  0  0  0  0  0  0  0  0  0  0  0
    4.6430   -0.6830   25.5330 C   0  0  0  0  0  0  0  0  0  0  0  0
    5.0990   -4.0690   27.4770 C   0  0  0  0  0  0  0  0  0  0  0  0
    5.9990   -5.0600   27.8180 C   0  0  0  0  0  0  0  0  0  0  0  0
    5.6400   -5.8300   28.8900 C   0  0  0  0  0  0  0  0  0  0  0  0
    4.7300   -5.4660   29.6470 O   0  0  0  0  0  0  0  0  0  0  0  0
    3.7880   -4.4680   29.3050 C   0  0  0  0  0  0  0  0  0  0  0  0
    4.4520   -3.4910   28.5510 C   0  0  0  0  0  0  0  0  0  0  0  0
    5.5640   -4.7810   23.3650 C   0  0  0  0  0  0  0  0  0  0  0  0
    6.4770   -5.4310   22.3570 C   0  0  0  0  0  0  0  0  0  0  0  0
  1  2  1  0
  2  3  2  0
  2  4  1  0
  4  5  1  0
  5  6  1  0
  6  7  1  0
  7  8  1  0
  8  9  2  0
  8 10  1  0
 10 11  1  0
 11 12  2  0
 12 13  1  0
 13 14  2  0
 14 15  1  0
 15 16  2  0
 15 17  1  0
 17 18  1  0
 18 19  1  0
 14 20  1  0
 11 21  1  0
 20 21  2  0
 21 22  1  0
 10 23  1  0
 23 24  1  0
 24 25  1  0
 25 26  1  0
 26 27  1  0
 23 28  1  0
 27 28  1  0
  7 29  1  0
  4 30  1  0
 29 30  1  0
M  END
