piperidine-amides-1589-covalent
     RDKit          3D

 21 22  0  0  0  0  0  0  0  0999 V2000
    7.0780   -3.2860   19.2750 C   0  0  0  0  0  0  0  0  0  0  0  0
    6.3480   -4.0790   20.3020 C   0  0  0  0  0  0  0  0  0  0  0  0
    5.3460   -4.7270   19.9490 O   0  0  0  0  0  0  0  0  0  0  0  0
    6.8280   -4.1060   21.6310 N   0  0  0  0  0  0  0  0  0  0  0  0
    7.7140   -3.0680   22.1230 C   0  0  0  0  0  0  0  0  0  0  0  0
    7.5500   -3.0140   23.6380 C   0  0  0  0  0  0  0  0  0  0  0  0
    6.2010   -3.5820   23.9030 C   0  0  0  0  0  0  0  0  0  0  0  0
    5.6060   -3.1860   25.2030 C   0  0  0  0  0  0  0  0  0  0  0  0
    4.3730   -3.1020   25.2160 O   0  0  0  0  0  0  0  0  0  0  0  0
    6.3850   -2.9370   26.3400 N   0  0  0  0  0  0  0  0  0  0  0  0
    6.1430   -3.4490   27.6450 C   0  0  0  0  0  0  0  0  0  0  0  0
    5.7540   -2.7260   28.7400 C   0  0  0  0  0  0  0  0  0  0  0  0
    6.4350   -1.6920   29.3680 C   0  0  0  0  0  0  0  0  0  0  0  0
    7.6290   -1.0790   29.1430 C   0  0  0  0  0  0  0  0  0  0  0  0
    5.6160   -1.2420   30.4830 N   0  0  0  0  0  0  0  0  0  0  0  0
    4.4840   -1.9360   30.5870 N   0  0  0  0  0  0  0  0  0  0  0  0
    3.3870   -1.8840   31.4910 C   0  0  0  0  0  0  0  0  0  0  0  0
    4.6070   -2.8320   29.5060 C   0  0  0  0  0  0  0  0  0  0  0  0
    3.4910   -3.8480   29.2540 C   0  0  0  0  0  0  0  0  0  0  0  0
    6.2410   -5.1050   23.7620 C   0  0  0  0  0  0  0  0  0  0  0  0
    6.5980   -5.3520   22.3350 C   0  0  0  0  0  0  0  0  0  0  0  0
  1  2  1  0
  2  3  2  0
  2  4  1  0
  4  5  1  0
  5  6  1  0
  6  7  1  0
  7  8  1  0
  8  9  2  0
  8 10  1  0
 10 11  1  0
 11 12  1  0
 12 13  1  0
 13 14  1  0
 13 15  2  0
 15 16  1  0
 16 17  1  0
 12 18  2  0
 16 18  1  0
 18 19  1  0
  7 20  1  0
  4 21  1  0
 20 21  1  0
M  END
