piperidine-amides-35000-covalent
     RDKit          3D

 30 32  0  0  0  0  0  0  0  0999 V2000
    7.0980   -3.2530   19.1760 C   0  0  0  0  0  0  0  0  0  0  0  0
    6.3440   -4.0170   20.2000 C   0  0  0  0  0  0  0  0  0  0  0  0
    5.2650   -4.4890   19.8590 O   0  0  0  0  0  0  0  0  0  0  0  0
    6.8790   -4.2360   21.4700 N   0  0  0  0  0  0  0  0  0  0  0  0
    7.6560   -3.2480   22.1750 C   0  0  0  0  0  0  0  0  0  0  0  0
    6.9080   -2.7980   23.3930 C   0  0  0  0  0  0  0  0  0  0  0  0
    6.4130   -4.0180   24.1680 C   0  0  0  0  0  0  0  0  0  0  0  0
    5.7280   -3.5260   25.3810 C   0  0  0  0  0  0  0  0  0  0  0  0
    4.4930   -3.5630   25.4300 O   0  0  0  0  0  0  0  0  0  0  0  0
    6.4580   -2.9980   26.4640 N   0  0  0  0  0  0  0  0  0  0  0  0
    6.5570   -3.6950   27.7400 C   0  0  0  0  0  0  0  0  0  0  0  0
    5.1970   -3.7780   28.3400 C   0  0  0  0  0  0  0  0  0  0  0  0
    4.9860   -4.7290   29.3180 O   0  0  0  0  0  0  0  0  0  0  0  0
    4.2270   -2.8210   27.7820 N   0  0  0  0  0  0  0  0  0  0  0  0
    4.2660   -1.5590   28.5420 C   0  0  0  0  0  0  0  0  0  0  0  0
    5.4280   -1.4420   29.1900 C   0  0  0  0  0  0  0  0  0  0  0  0
    5.6320   -0.3550   29.9180 C   0  0  0  0  0  0  0  0  0  0  0  0
    7.1480   -0.1520   30.7780 Cl  0  0  0  0  0  0  0  0  0  0  0  0
    4.6900    0.7840   30.1100 C   0  0  0  0  0  0  0  0  0  0  0  0
    3.4000    0.5590   29.3360 C   0  0  0  0  0  0  0  0  0  0  0  0
    3.0480   -0.6680   28.4500 C   0  0  0  0  0  0  0  0  0  0  0  0
    1.7090   -0.6520   27.7870 C   0  0  0  0  0  0  0  0  0  0  0  0
    6.7620   -1.5760   26.6690 C   0  0  0  0  0  0  0  0  0  0  0  0
    5.6130   -0.6680   26.2560 C   0  0  0  0  0  0  0  0  0  0  0  0
    5.7480    0.7470   26.6040 C   0  0  0  0  0  0  0  0  0  0  0  0
    4.5810    1.5400   26.1590 C   0  0  0  0  0  0  0  0  0  0  0  0
    3.5870    0.8280   25.5090 C   0  0  0  0  0  0  0  0  0  0  0  0
    4.1030   -0.9130   25.4310 S   0  0  0  0  0  0  0  0  0  0  0  0
    5.5800   -4.8950   23.2870 C   0  0  0  0  0  0  0  0  0  0  0  0
    6.5120   -5.4450   22.2050 C   0  0  0  0  0  0  0  0  0  0  0  0
  1  2  1  0
  2  3  2  0
  2  4  1  0
  4  5  1  0
  5  6  1  0
  6  7  1  0
  7  8  1  0
  8  9  2  0
  8 10  1  0
 10 11  1  0
 11 12  1  0
 12 13  2  0
 12 14  1  0
 14 15  1  0
 15 16  2  0
 16 17  1  0
 17 18  1  0
 17 19  2  0
 19 20  1  0
 15 21  1  0
 20 21  2  0
 21 22  1  0
 10 23  1  0
 23 24  1  0
 24 25  2  0
 25 26  1  0
 26 27  2  0
 24 28  1  0
 27 28  1  0
  7 29  1  0
  4 30  1  0
 29 30  1  0
M  END
