piperidine-amides-320-covalent
     RDKit          3D

 29 31  0  0  0  0  0  0  0  0999 V2000
    7.1040   -3.3110   19.3880 C   0  0  0  0  0  0  0  0  0  0  0  0
    6.4010   -4.1150   20.3670 C   0  0  0  0  0  0  0  0  0  0  0  0
    5.4200   -4.8300   19.9770 O   0  0  0  0  0  0  0  0  0  0  0  0
    6.7910   -4.1530   21.7220 N   0  0  0  0  0  0  0  0  0  0  0  0
    6.7370   -5.4810   22.3760 C   0  0  0  0  0  0  0  0  0  0  0  0
    5.9200   -5.1690   23.6950 C   0  0  0  0  0  0  0  0  0  0  0  0
    6.1620   -3.7170   24.0520 C   0  0  0  0  0  0  0  0  0  0  0  0
    5.6170   -3.4170   25.5200 C   0  0  0  0  0  0  0  0  0  0  0  0
    4.7580   -4.2320   25.8100 O   0  0  0  0  0  0  0  0  0  0  0  0
    6.1850   -2.3960   26.0240 N   0  0  0  0  0  0  0  0  0  0  0  0
    6.6810   -1.2580   26.5940 C   0  0  0  0  0  0  0  0  0  0  0  0
    6.4380    0.0840   26.4780 C   0  0  0  0  0  0  0  0  0  0  0  0
    5.8520    0.6450   27.6460 C   0  0  0  0  0  0  0  0  0  0  0  0
    6.5650    0.6180   28.7820 N   0  0  0  0  0  0  0  0  0  0  0  0
    7.1260    1.8590   29.0370 C   0  0  0  0  0  0  0  0  0  0  0  0
    8.0540    2.3570   27.9940 C   0  0  0  0  0  0  0  0  0  0  0  0
    8.5510    3.6370   28.3940 C   0  0  0  0  0  0  0  0  0  0  0  0
    8.4140    4.5790   29.5110 C   0  0  0  0  0  0  0  0  0  0  0  0
    7.4040    3.8460   30.4620 C   0  0  0  0  0  0  0  0  0  0  0  0
    6.7310    2.4730   30.2560 C   0  0  0  0  0  0  0  0  0  0  0  0
    5.6230    1.8340   31.4430 S   0  0  0  0  0  0  0  0  0  0  0  0
    6.0790    0.5170   31.9250 O   0  0  0  0  0  0  0  0  0  0  0  0
    5.3590    2.8000   32.5530 O   0  0  0  0  0  0  0  0  0  0  0  0
    4.0740    1.5840   30.5560 C   0  0  0  0  0  0  0  0  0  0  0  0
    3.9730    2.4930   29.5330 C   0  0  0  0  0  0  0  0  0  0  0  0
    7.4400   -0.4930   28.6760 C   0  0  0  0  0  0  0  0  0  0  0  0
    6.7500   -1.5240   28.0830 C   0  0  0  0  0  0  0  0  0  0  0  0
    7.4740   -3.1120   23.7180 C   0  0  0  0  0  0  0  0  0  0  0  0
    7.6680   -3.1210   22.2370 C   0  0  0  0  0  0  0  0  0  0  0  0
  1  2  1  0
  2  3  2  0
  2  4  1  0
  4  5  1  0
  5  6  1  0
  6  7  1  0
  7  8  1  0
  8  9  2  0
  8 10  1  0
 10 11  1  0
 11 12  1  0
 12 13  1  0
 13 14  1  0
 14 15  1  0
 15 16  2  0
 16 17  1  0
 17 18  2  0
 18 19  1  0
 15 20  1  0
 19 20  2  0
 20 21  1  0
 21 22  2  0
 21 23  2  0
 21 24  1  0
 24 25  1  0
 14 26  1  0
 11 27  1  0
 26 27  1  0
  7 28  1  0
  4 29  1  0
 28 29  1  0
M  END
