piperidine-amides-35678-covalent
     RDKit          3D

 43 47  0  0  0  0  0  0  0  0999 V2000
    7.0700   -3.3310   19.3040 C   0  0  0  0  0  0  0  0  0  0  0  0
    6.3910   -4.1920   20.3030 C   0  0  0  0  0  0  0  0  0  0  0  0
    5.3640   -4.7700   19.9590 O   0  0  0  0  0  0  0  0  0  0  0  0
    6.9640   -4.3460   21.5630 N   0  0  0  0  0  0  0  0  0  0  0  0
    6.6610   -5.4880   22.3780 C   0  0  0  0  0  0  0  0  0  0  0  0
    5.9330   -5.0310   23.6120 C   0  0  0  0  0  0  0  0  0  0  0  0
    6.7750   -4.0330   24.4230 C   0  0  0  0  0  0  0  0  0  0  0  0
    5.9850   -3.6760   25.6050 C   0  0  0  0  0  0  0  0  0  0  0  0
    4.7460   -3.6990   25.5300 O   0  0  0  0  0  0  0  0  0  0  0  0
    6.5990   -3.2860   26.8080 N   0  0  0  0  0  0  0  0  0  0  0  0
    6.3020   -1.8870   27.1620 C   0  0  0  0  0  0  0  0  0  0  0  0
    5.3410   -1.2780   26.4320 N   0  0  0  0  0  0  0  0  0  0  0  0
    5.0040   -0.0510   26.6520 C   0  0  0  0  0  0  0  0  0  0  0  0
    5.6920    0.5000   27.6420 C   0  0  0  0  0  0  0  0  0  0  0  0
    6.6560   -0.0670   28.4000 N   0  0  0  0  0  0  0  0  0  0  0  0
    7.1790   -1.3660   28.3390 C   0  0  0  0  0  0  0  0  0  0  0  0
    7.7520   -0.5900   29.3140 N   0  0  0  0  0  0  0  0  0  0  0  0
    8.7740    0.2070   28.9730 C   0  0  0  0  0  0  0  0  0  0  0  0
    9.8230    0.4840   30.0490 C   0  0  0  0  0  0  0  0  0  0  0  0
    8.9700    1.5660   30.6500 C   0  0  0  0  0  0  0  0  0  0  0  0
    9.6060    2.0110   31.7860 O   0  0  0  0  0  0  0  0  0  0  0  0
   10.2430    3.2640   31.8180 C   0  0  0  0  0  0  0  0  0  0  0  0
   10.7250    3.6530   33.1770 C   0  0  0  0  0  0  0  0  0  0  0  0
   11.4040    4.9680   33.3040 C   0  0  0  0  0  0  0  0  0  0  0  0
   11.5890    5.8580   32.0900 C   0  0  0  0  0  0  0  0  0  0  0  0
   12.2150    7.0710   32.2070 F   0  0  0  0  0  0  0  0  0  0  0  0
   11.0780    5.3850   30.7720 C   0  0  0  0  0  0  0  0  0  0  0  0
   10.3890    4.0400   30.6800 C   0  0  0  0  0  0  0  0  0  0  0  0
    9.9510    3.6950   29.4440 F   0  0  0  0  0  0  0  0  0  0  0  0
    7.6530    1.2060   30.8610 C   0  0  0  0  0  0  0  0  0  0  0  0
    7.3190   -0.2580   30.6570 C   0  0  0  0  0  0  0  0  0  0  0  0
    5.4090    1.8120   27.9560 C   0  0  0  0  0  0  0  0  0  0  0  0
    5.2900    2.5190   26.6120 C   0  0  0  0  0  0  0  0  0  0  0  0
    4.3960    1.9930   25.7640 N   0  0  0  0  0  0  0  0  0  0  0  0
    3.9450    2.7550   24.6080 C   0  0  0  0  0  0  0  0  0  0  0  0
    3.7720    2.2940   23.1560 C   0  0  0  0  0  0  0  0  0  0  0  0
    3.6220    4.0880   24.8220 O   0  0  0  0  0  0  0  0  0  0  0  0
    4.0390    0.6210   25.9410 C   0  0  0  0  0  0  0  0  0  0  0  0
    6.8070   -4.2920   27.8650 C   0  0  0  0  0  0  0  0  0  0  0  0
    5.5270   -5.0360   28.0850 C   0  0  0  0  0  0  0  0  0  0  0  0
    7.6980   -5.4820   27.5650 C   0  0  0  0  0  0  0  0  0  0  0  0
    7.0370   -2.8720   23.5020 C   0  0  0  0  0  0  0  0  0  0  0  0
    7.7130   -3.3670   22.2510 C   0  0  0  0  0  0  0  0  0  0  0  0
  1  2  1  0
  2  3  2  0
  2  4  1  0
  4  5  1  0
  5  6  1  0
  6  7  1  0
  7  8  1  0
  8  9  2  0
  8 10  1  0
 10 11  1  0
 11 12  2  0
 12 13  1  0
 13 14  2  0
 14 15  1  0
 11 16  1  0
 15 16  2  0
 16 17  1  0
 17 18  1  0
 18 19  1  0
 19 20  1  0
 20 21  1  0
 21 22  1  0
 22 23  2  0
 23 24  1  0
 24 25  2  0
 25 26  1  0
 25 27  1  0
 22 28  1  0
 27 28  2  0
 28 29  1  0
 20 30  1  0
 17 31  1  0
 30 31  1  0
 14 32  1  0
 32 33  1  0
 33 34  1  0
 34 35  1  0
 35 36  1  0
 35 37  2  0
 13 38  1  0
 34 38  1  0
 10 39  1  0
 39 40  1  0
 39 41  1  0
  7 42  1  0
  4 43  1  0
 42 43  1  0
M  END
