piperidine-amides-34309-covalent
     RDKit          3D

 26 28  0  0  0  0  0  0  0  0999 V2000
    7.0570   -3.3490   19.3470 C   0  0  0  0  0  0  0  0  0  0  0  0
    6.4040   -4.2280   20.3260 C   0  0  0  0  0  0  0  0  0  0  0  0
    5.3840   -4.8710   19.9910 O   0  0  0  0  0  0  0  0  0  0  0  0
    6.9420   -4.3960   21.6180 N   0  0  0  0  0  0  0  0  0  0  0  0
    6.5970   -5.5610   22.3870 C   0  0  0  0  0  0  0  0  0  0  0  0
    5.7840   -5.0520   23.5860 C   0  0  0  0  0  0  0  0  0  0  0  0
    6.5870   -3.9400   24.2420 C   0  0  0  0  0  0  0  0  0  0  0  0
    5.8280   -3.3400   25.3740 C   0  0  0  0  0  0  0  0  0  0  0  0
    5.1970   -2.2950   25.1270 O   0  0  0  0  0  0  0  0  0  0  0  0
    5.7500   -3.9050   26.6780 N   0  0  0  0  0  0  0  0  0  0  0  0
    4.6020   -3.5030   27.4490 C   0  0  0  0  0  0  0  0  0  0  0  0
    4.4920   -4.2710   28.7640 C   0  0  0  0  0  0  0  0  0  0  0  0
    5.2570   -5.4910   28.6990 N   0  0  0  0  0  0  0  0  0  0  0  0
    4.6170   -6.7500   28.3590 C   0  0  0  0  0  0  0  0  0  0  0  0
    4.8200   -7.1460   27.1770 O   0  0  0  0  0  0  0  0  0  0  0  0
    3.8720   -7.2870   29.3810 C   0  0  0  0  0  0  0  0  0  0  0  0
    2.5650   -7.6460   29.4390 C   0  0  0  0  0  0  0  0  0  0  0  0
    1.2890   -7.5060   28.0290 Br  0  0  0  0  0  0  0  0  0  0  0  0
    2.4000   -8.1040   30.6860 C   0  0  0  0  0  0  0  0  0  0  0  0
    3.4900   -8.0820   31.4730 N   0  0  0  0  0  0  0  0  0  0  0  0
    4.4230   -7.5460   30.5940 N   0  0  0  0  0  0  0  0  0  0  0  0
    5.7670   -7.3590   31.0940 C   0  0  0  0  0  0  0  0  0  0  0  0
    6.5990   -5.2650   28.3730 C   0  0  0  0  0  0  0  0  0  0  0  0
    6.3970   -3.8460   27.9510 C   0  0  0  0  0  0  0  0  0  0  0  0
    6.8730   -2.8360   23.2560 C   0  0  0  0  0  0  0  0  0  0  0  0
    7.7100   -3.3640   22.2720 C   0  0  0  0  0  0  0  0  0  0  0  0
  1  2  1  0
  2  3  2  0
  2  4  1  0
  4  5  1  0
  5  6  1  0
  6  7  1  0
  7  8  1  0
  8  9  2  0
  8 10  1  0
 10 11  1  0
 11 12  1  0
 12 13  1  0
 13 14  1  0
 14 15  2  0
 14 16  1  0
 16 17  2  0
 17 18  1  0
 17 19  1  0
 19 20  2  0
 16 21  1  0
 20 21  1  0
 21 22  1  0
 13 23  1  0
 10 24  1  0
 23 24  1  0
  7 25  1  0
  4 26  1  0
 25 26  1  0
M  END
