piperidine-amides-12141-covalent
     RDKit          3D

 25 26  0  0  0  0  0  0  0  0999 V2000
    7.0610   -3.2880   19.3230 C   0  0  0  0  0  0  0  0  0  0  0  0
    6.3400   -4.0870   20.3110 C   0  0  0  0  0  0  0  0  0  0  0  0
    5.3540   -4.7370   19.9570 O   0  0  0  0  0  0  0  0  0  0  0  0
    6.7880   -4.1590   21.6820 N   0  0  0  0  0  0  0  0  0  0  0  0
    6.6390   -5.4090   22.3890 C   0  0  0  0  0  0  0  0  0  0  0  0
    6.0530   -5.1630   23.7470 C   0  0  0  0  0  0  0  0  0  0  0  0
    6.0950   -3.6670   23.9730 C   0  0  0  0  0  0  0  0  0  0  0  0
    5.5890   -3.3170   25.3410 C   0  0  0  0  0  0  0  0  0  0  0  0
    4.3680   -3.2490   25.5680 O   0  0  0  0  0  0  0  0  0  0  0  0
    6.4910   -3.0460   26.4050 N   0  0  0  0  0  0  0  0  0  0  0  0
    6.3100   -3.6390   27.7340 C   0  0  2  0  0  0  0  0  0  0  0  0
    5.6740   -5.0040   27.6440 C   0  0  0  0  0  0  0  0  0  0  0  0
    5.5740   -5.4990   26.3590 O   0  0  0  0  0  0  0  0  0  0  0  0
    5.2150   -5.7800   28.6770 O   0  0  0  0  0  0  0  0  0  0  0  0
    5.7520   -7.0190   29.0310 C   0  0  0  0  0  0  0  0  0  0  0  0
    5.6290   -2.7770   28.7090 C   0  0  0  0  0  0  0  0  0  0  0  0
    4.2990   -2.8690   29.1240 C   0  0  0  0  0  0  0  0  0  0  0  0
    3.7500   -1.9550   30.0990 C   0  0  0  0  0  0  0  0  0  0  0  0
    4.4360   -0.9600   30.6890 C   0  0  0  0  0  0  0  0  0  0  0  0
    5.7410   -0.7680   30.3680 C   0  0  0  0  0  0  0  0  0  0  0  0
    6.5030    0.2370   30.9400 O   0  0  0  0  0  0  0  0  0  0  0  0
    6.6670    0.2990   32.3390 C   0  0  0  0  0  0  0  0  0  0  0  0
    6.2970   -1.7080   29.3670 C   0  0  0  0  0  0  0  0  0  0  0  0
    7.4560   -3.0900   23.6400 C   0  0  0  0  0  0  0  0  0  0  0  0
    7.6120   -3.1020   22.2450 C   0  0  0  0  0  0  0  0  0  0  0  0
  1  2  1  0
  2  3  2  0
  2  4  1  0
  4  5  1  0
  5  6  1  0
  6  7  1  0
  7  8  1  0
  8  9  2  0
  8 10  1  0
 11 10  1  6
 11 12  1  0
 12 13  2  0
 12 14  1  0
 14 15  1  0
 11 16  1  0
 16 17  2  0
 17 18  1  0
 18 19  2  0
 19 20  1  0
 20 21  1  0
 21 22  1  0
 16 23  1  0
 20 23  2  0
  7 24  1  0
  4 25  1  0
 24 25  1  0
M  END
