piperidine-amides-33429-covalent
     RDKit          3D

 29 31  0  0  0  0  0  0  0  0999 V2000
    7.0450   -3.3750   19.4190 C   0  0  0  0  0  0  0  0  0  0  0  0
    6.4270   -4.2570   20.4230 C   0  0  0  0  0  0  0  0  0  0  0  0
    5.4470   -4.9360   20.0170 O   0  0  0  0  0  0  0  0  0  0  0  0
    6.9490   -4.3670   21.7560 N   0  0  0  0  0  0  0  0  0  0  0  0
    6.5660   -5.4920   22.5540 C   0  0  0  0  0  0  0  0  0  0  0  0
    5.9350   -5.0770   23.8070 C   0  0  0  0  0  0  0  0  0  0  0  0
    5.8230   -3.6130   23.8500 C   0  0  0  0  0  0  0  0  0  0  0  0
    4.9990   -3.0230   24.9990 C   0  0  0  0  0  0  0  0  0  0  0  0
    3.9350   -2.4770   24.6900 O   0  0  0  0  0  0  0  0  0  0  0  0
    5.2920   -3.0290   26.3770 N   0  0  0  0  0  0  0  0  0  0  0  0
    6.4570   -3.3800   26.8970 C   0  0  0  0  0  0  0  0  0  0  0  0
    6.2140   -4.5580   27.7010 C   0  0  1  0  0  0  0  0  0  0  0  0
    6.8120   -4.3390   29.0620 C   0  0  0  0  0  0  0  0  0  0  0  0
    6.5490   -3.0120   29.3080 O   0  0  0  0  0  0  0  0  0  0  0  0
    5.1990   -2.9770   29.5330 C   0  0  0  0  0  0  0  0  0  0  0  0
    4.8140   -4.4550   29.5460 C   0  0  0  0  0  0  0  0  0  0  0  0
    4.7860   -4.5240   28.0510 C   0  0  2  0  0  0  0  0  0  0  0  0
    4.1050   -5.8990   28.1960 C   0  0  0  0  0  0  0  0  0  0  0  0
    2.8180   -5.8610   28.8090 N   0  0  0  0  0  0  0  0  0  0  0  0
    1.9030   -6.4860   27.9390 C   0  0  0  0  0  0  0  0  0  0  0  0
    2.2020   -6.7130   26.6340 O   0  0  0  0  0  0  0  0  0  0  0  0
    0.6330   -6.8890   28.4280 O   0  0  0  0  0  0  0  0  0  0  0  0
    0.4990   -8.2220   28.6890 C   0  0  0  0  0  0  0  0  0  0  0  0
    0.4750   -8.9300   27.3230 C   0  0  0  0  0  0  0  0  0  0  0  0
    1.3720   -8.9590   29.6690 C   0  0  0  0  0  0  0  0  0  0  0  0
   -0.8860   -8.5760   28.9960 C   0  0  0  0  0  0  0  0  0  0  0  0
    4.2400   -3.4830   27.2790 C   0  0  0  0  0  0  0  0  0  0  0  0
    7.1630   -2.9810   23.6390 C   0  0  0  0  0  0  0  0  0  0  0  0
    7.7110   -3.2880   22.3770 C   0  0  0  0  0  0  0  0  0  0  0  0
  1  2  1  0
  2  3  2  0
  2  4  1  0
  4  5  1  0
  5  6  1  0
  6  7  1  0
  7  8  1  0
  8  9  2  0
  8 10  1  0
 10 11  1  0
 12 11  1  6
 12 13  1  0
 13 14  1  0
 14 15  1  0
 15 16  1  0
 12 17  1  0
 16 17  1  0
 17 18  1  1
 18 19  1  0
 19 20  1  0
 20 21  2  0
 20 22  1  0
 23 22  1  0
 23 24  1  0
 23 25  1  0
 23 26  1  0
 10 27  1  0
 17 27  1  0
  7 28  1  0
  4 29  1  0
 28 29  1  0
M  END
