piperidine-amides-10543-covalent
     RDKit          3D

 23 24  0  0  0  0  0  0  0  0999 V2000
    7.0820   -3.2920   19.2490 C   0  0  0  0  0  0  0  0  0  0  0  0
    6.3690   -4.0620   20.2710 C   0  0  0  0  0  0  0  0  0  0  0  0
    5.2960   -4.6110   19.9050 O   0  0  0  0  0  0  0  0  0  0  0  0
    6.8960   -4.2050   21.5560 N   0  0  0  0  0  0  0  0  0  0  0  0
    7.7060   -3.1890   22.1910 C   0  0  0  0  0  0  0  0  0  0  0  0
    6.9990   -2.7160   23.4280 C   0  0  0  0  0  0  0  0  0  0  0  0
    6.4880   -3.8520   24.2820 C   0  0  0  0  0  0  0  0  0  0  0  0
    5.6890   -3.3280   25.4200 C   0  0  0  0  0  0  0  0  0  0  0  0
    4.4660   -3.1700   25.2250 O   0  0  0  0  0  0  0  0  0  0  0  0
    6.2060   -2.9920   26.7010 N   0  0  0  0  0  0  0  0  0  0  0  0
    6.2120   -3.9470   27.7900 C   0  0  0  0  0  0  0  0  0  0  0  0
    5.0540   -3.8560   28.7730 C   0  0  0  0  0  0  0  0  0  0  0  0
    4.6410   -4.8380   29.6360 C   0  0  0  0  0  0  0  0  0  0  0  0
    5.1090   -6.1190   29.8670 C   0  0  0  0  0  0  0  0  0  0  0  0
    6.2310   -6.5010   29.1500 C   0  0  0  0  0  0  0  0  0  0  0  0
    3.6030   -4.3810   30.3310 N   0  0  0  0  0  0  0  0  0  0  0  0
    3.2850   -3.1540   30.0000 N   0  0  0  0  0  0  0  0  0  0  0  0
    2.2150   -2.3520   30.5520 C   0  0  0  0  0  0  0  0  0  0  0  0
    4.2210   -2.7430   28.9580 C   0  0  0  0  0  0  0  0  0  0  0  0
    4.3210   -1.4370   28.2100 C   0  0  0  0  0  0  0  0  0  0  0  0
    3.3270   -1.7210   27.0810 C   0  0  0  0  0  0  0  0  0  0  0  0
    5.6540   -4.8540   23.4600 C   0  0  0  0  0  0  0  0  0  0  0  0
    6.5570   -5.3700   22.3570 C   0  0  0  0  0  0  0  0  0  0  0  0
  1  2  1  0
  2  3  2  0
  2  4  1  0
  4  5  1  0
  5  6  1  0
  6  7  1  0
  7  8  1  0
  8  9  2  0
  8 10  1  0
 10 11  1  0
 11 12  1  0
 12 13  1  0
 13 14  1  0
 14 15  1  0
 13 16  2  0
 16 17  1  0
 17 18  1  0
 12 19  2  0
 17 19  1  0
 19 20  1  0
 20 21  1  0
  7 22  1  0
  4 23  1  0
 22 23  1  0
M  END
