piperidine-amides-12836-covalent
     RDKit          3D

 22 23  0  0  0  0  0  0  0  0999 V2000
    7.0730   -3.3030   19.2400 C   0  0  0  0  0  0  0  0  0  0  0  0
    6.3560   -4.0880   20.2680 C   0  0  0  0  0  0  0  0  0  0  0  0
    5.2900   -4.6240   19.9120 O   0  0  0  0  0  0  0  0  0  0  0  0
    6.8900   -4.2630   21.5530 N   0  0  0  0  0  0  0  0  0  0  0  0
    7.5880   -3.1880   22.1860 C   0  0  0  0  0  0  0  0  0  0  0  0
    7.1150   -2.8560   23.5280 C   0  0  0  0  0  0  0  0  0  0  0  0
    6.4580   -3.9680   24.2450 C   0  0  0  0  0  0  0  0  0  0  0  0
    5.7480   -3.4370   25.4440 C   0  0  0  0  0  0  0  0  0  0  0  0
    4.4980   -3.3710   25.4570 O   0  0  0  0  0  0  0  0  0  0  0  0
    6.4790   -3.0150   26.5710 N   0  0  0  0  0  0  0  0  0  0  0  0
    6.3970   -1.6570   27.1630 C   0  0  0  0  0  0  0  0  0  0  0  0
    5.8050   -0.4360   26.5690 C   0  0  0  0  0  0  0  0  0  0  0  0
    5.9040    0.7110   27.4680 C   0  0  0  0  0  0  0  0  0  0  0  0
    5.5150    2.0330   27.3960 C   0  0  0  0  0  0  0  0  0  0  0  0
    5.6520    2.6890   26.3480 O   0  0  0  0  0  0  0  0  0  0  0  0
    4.9670    2.6150   28.4940 O   0  0  0  0  0  0  0  0  0  0  0  0
    3.6570    2.3020   28.9530 C   0  0  0  0  0  0  0  0  0  0  0  0
    6.5820    0.1830   28.6510 N   0  0  0  0  0  0  0  0  0  0  0  0
    6.8620    0.9460   29.7270 C   0  0  0  0  0  0  0  0  0  0  0  0
    6.8790   -1.2100   28.4770 C   0  0  0  0  0  0  0  0  0  0  0  0
    5.6800   -4.9060   23.4030 C   0  0  0  0  0  0  0  0  0  0  0  0
    6.4630   -5.3810   22.3530 C   0  0  0  0  0  0  0  0  0  0  0  0
  1  2  1  0
  2  3  2  0
  2  4  1  0
  4  5  1  0
  5  6  1  0
  6  7  1  0
  7  8  1  0
  8  9  2  0
  8 10  1  0
 10 11  1  0
 11 12  1  0
 12 13  2  0
 13 14  1  0
 14 15  2  0
 14 16  1  0
 16 17  1  0
 13 18  1  0
 18 19  1  0
 11 20  2  0
 18 20  1  0
  7 21  1  0
  4 22  1  0
 21 22  1  0
M  END
