piperidine-amides-11518-covalent
     RDKit          3D

 30 32  0  0  0  0  0  0  0  0999 V2000
    7.0680   -3.3450   19.3280 C   0  0  0  0  0  0  0  0  0  0  0  0
    6.3950   -4.1730   20.3260 C   0  0  0  0  0  0  0  0  0  0  0  0
    5.3970   -4.8330   19.9840 O   0  0  0  0  0  0  0  0  0  0  0  0
    6.8900   -4.2750   21.6380 N   0  0  0  0  0  0  0  0  0  0  0  0
    7.6950   -3.2030   22.2040 C   0  0  0  0  0  0  0  0  0  0  0  0
    7.2770   -3.0260   23.6440 C   0  0  0  0  0  0  0  0  0  0  0  0
    5.9510   -3.6610   23.9260 C   0  0  0  0  0  0  0  0  0  0  0  0
    5.3160   -3.1260   25.1540 C   0  0  0  0  0  0  0  0  0  0  0  0
    4.0760   -2.8770   25.1670 O   0  0  0  0  0  0  0  0  0  0  0  0
    6.0170   -2.8810   26.3450 N   0  0  0  0  0  0  0  0  0  0  0  0
    5.9570   -1.5700   27.0440 C   0  0  0  0  0  0  0  0  0  0  0  0
    6.4290   -0.3610   26.3760 C   0  0  0  0  0  0  0  0  0  0  0  0
    6.3910    0.9290   27.0900 C   0  0  0  0  0  0  0  0  0  0  0  0
    5.8860    1.0230   28.4900 C   0  0  0  0  0  0  0  0  0  0  0  0
    5.3750   -0.1970   29.2120 C   0  0  0  0  0  0  0  0  0  0  0  0
    5.4270   -1.4480   28.4230 C   0  0  0  0  0  0  0  0  0  0  0  0
    4.9440   -2.6100   28.9670 C   0  0  0  0  0  0  0  0  0  0  0  0
    4.9570   -3.7840   28.2300 C   0  0  0  0  0  0  0  0  0  0  0  0
    6.3360   -4.2860   28.2770 C   0  0  0  0  0  0  0  0  0  0  0  0
    7.3740   -3.2440   28.5650 C   0  0  0  0  0  0  0  0  0  0  0  0
    8.6370   -3.9100   28.6170 C   0  0  0  0  0  0  0  0  0  0  0  0
    9.2500   -4.8750   28.5390 C   0  0  0  0  0  0  0  0  0  0  0  0
   10.7700   -4.9850   28.7130 C   0  0  0  0  0  0  0  0  0  0  0  0
   11.0380   -4.8220   27.8860 O   0  0  0  0  0  0  0  0  0  0  0  0
   12.2790   -4.5670   29.4920 O   0  0  0  0  0  0  0  0  0  0  0  0
   14.1240   -4.8590   28.9290 C   0  0  0  0  0  0  0  0  0  0  0  0
    8.3420   -5.8670   28.2360 C   0  0  0  0  0  0  0  0  0  0  0  0
    6.8260   -5.5810   28.1030 C   0  0  0  0  0  0  0  0  0  0  0  0
    6.0320   -5.1150   23.7560 C   0  0  0  0  0  0  0  0  0  0  0  0
    6.5990   -5.4440   22.4040 C   0  0  0  0  0  0  0  0  0  0  0  0
  1  2  1  0
  2  3  2  0
  2  4  1  0
  4  5  1  0
  5  6  1  0
  6  7  1  0
  7  8  1  0
  8  9  2  0
  8 10  1  0
 10 11  1  0
 11 12  2  0
 12 13  1  0
 13 14  2  0
 14 15  1  0
 11 16  1  0
 15 16  2  0
 16 17  1  0
 17 18  3  0
 18 19  1  0
 19 20  2  0
 20 21  1  0
 21 22  2  0
 22 23  1  0
 23 24  2  0
 23 25  1  0
 25 26  1  0
 22 27  1  0
 19 28  1  0
 27 28  2  0
  7 29  1  0
  4 30  1  0
 29 30  1  0
M  END
