piperidine-amides-6907-covalent
     RDKit          3D

 22 23  0  0  0  0  0  0  0  0999 V2000
    7.1220   -3.3010   19.2500 C   0  0  0  0  0  0  0  0  0  0  0  0
    6.3710   -4.0600   20.2590 C   0  0  0  0  0  0  0  0  0  0  0  0
    5.3320   -4.6740   19.9380 O   0  0  0  0  0  0  0  0  0  0  0  0
    6.8420   -4.1390   21.5790 N   0  0  0  0  0  0  0  0  0  0  0  0
    7.7560   -3.1180   22.0720 C   0  0  0  0  0  0  0  0  0  0  0  0
    7.5110   -2.9350   23.5690 C   0  0  0  0  0  0  0  0  0  0  0  0
    6.1340   -3.4920   23.8020 C   0  0  0  0  0  0  0  0  0  0  0  0
    5.6600   -3.1190   25.1400 C   0  0  0  0  0  0  0  0  0  0  0  0
    4.4280   -3.0740   25.3390 O   0  0  0  0  0  0  0  0  0  0  0  0
    6.5850   -2.8190   26.1600 N   0  0  0  0  0  0  0  0  0  0  0  0
    6.2390   -3.1820   27.4970 C   0  0  0  0  0  0  0  0  0  0  0  0
    5.5500   -4.5200   27.4220 C   0  0  0  0  0  0  0  0  0  0  0  0
    5.1980   -5.1190   28.5760 C   0  0  0  0  0  0  0  0  0  0  0  0
    4.2910   -4.6640   29.4430 C   0  0  0  0  0  0  0  0  0  0  0  0
    4.0640   -5.4000   30.5620 C   0  0  0  0  0  0  0  0  0  0  0  0
    4.7500   -6.5720   30.7800 C   0  0  0  0  0  0  0  0  0  0  0  0
    4.5540   -7.3290   31.8830 O   0  0  0  0  0  0  0  0  0  0  0  0
    5.8230   -7.2650   29.9110 C   0  0  0  0  0  0  0  0  0  0  0  0
    6.5620   -8.3450   29.9540 N   0  0  0  0  0  0  0  0  0  0  0  0
    5.8700   -6.2590   28.7790 C   0  0  0  0  0  0  0  0  0  0  0  0
    6.0650   -4.9520   23.6330 C   0  0  0  0  0  0  0  0  0  0  0  0
    6.6120   -5.3300   22.3360 C   0  0  0  0  0  0  0  0  0  0  0  0
  1  2  1  0
  2  3  2  0
  2  4  1  0
  4  5  1  0
  5  6  1  0
  6  7  1  0
  7  8  1  0
  8  9  2  0
  8 10  1  0
 10 11  1  0
 11 12  1  0
 12 13  1  0
 13 14  2  0
 14 15  1  0
 15 16  2  0
 16 17  1  0
 16 18  1  0
 18 19  1  0
 13 20  1  0
 18 20  2  0
  7 21  1  0
  4 22  1  0
 21 22  1  0
M  END
