piperidine-amides-9989-covalent
     RDKit          3D

 26 27  0  0  0  0  0  0  0  0999 V2000
    7.1140   -3.2740   19.2330 C   0  0  0  0  0  0  0  0  0  0  0  0
    6.3690   -4.0320   20.2450 C   0  0  0  0  0  0  0  0  0  0  0  0
    5.2750   -4.5350   19.8770 O   0  0  0  0  0  0  0  0  0  0  0  0
    6.8930   -4.2120   21.5230 N   0  0  0  0  0  0  0  0  0  0  0  0
    7.7220   -3.2170   22.1670 C   0  0  0  0  0  0  0  0  0  0  0  0
    7.0130   -2.7500   23.4010 C   0  0  0  0  0  0  0  0  0  0  0  0
    6.5050   -3.9070   24.2190 C   0  0  0  0  0  0  0  0  0  0  0  0
    5.8440   -3.3860   25.4380 C   0  0  0  0  0  0  0  0  0  0  0  0
    4.5920   -3.3760   25.4850 O   0  0  0  0  0  0  0  0  0  0  0  0
    6.5760   -2.8880   26.5280 N   0  0  0  0  0  0  0  0  0  0  0  0
    6.2470   -3.1850   27.8980 C   0  0  0  0  0  0  0  0  0  0  0  0
    6.3570   -4.6530   28.3020 C   0  0  0  0  0  0  0  0  0  0  0  0
    5.5780   -5.2300   29.2650 C   0  0  0  0  0  0  0  0  0  0  0  0
    4.4680   -4.6000   29.7580 C   0  0  0  0  0  0  0  0  0  0  0  0
    3.7090   -5.2070   30.7350 C   0  0  0  0  0  0  0  0  0  0  0  0
    4.0370   -6.4510   31.2450 C   0  0  0  0  0  0  0  0  0  0  0  0
    3.2300   -7.0190   32.2490 O   0  0  0  0  0  0  0  0  0  0  0  0
    2.7490   -8.3380   32.0690 C   0  0  0  0  0  0  0  0  0  0  0  0
    1.4150   -8.6690   32.7040 C   0  0  0  0  0  0  0  0  0  0  0  0
    0.9360   -7.7820   33.6090 F   0  0  0  0  0  0  0  0  0  0  0  0
    1.5860   -9.8980   33.2910 F   0  0  0  0  0  0  0  0  0  0  0  0
    0.4620   -8.8190   31.6880 F   0  0  0  0  0  0  0  0  0  0  0  0
    5.1330   -7.0980   30.7700 N   0  0  0  0  0  0  0  0  0  0  0  0
    5.9050   -6.4600   29.7580 C   0  0  0  0  0  0  0  0  0  0  0  0
    5.5880   -4.8250   23.4020 C   0  0  0  0  0  0  0  0  0  0  0  0
    6.4940   -5.3680   22.3110 C   0  0  0  0  0  0  0  0  0  0  0  0
  1  2  1  0
  2  3  2  0
  2  4  1  0
  4  5  1  0
  5  6  1  0
  6  7  1  0
  7  8  1  0
  8  9  2  0
  8 10  1  0
 10 11  1  0
 11 12  1  0
 12 13  1  0
 13 14  2  0
 14 15  1  0
 15 16  2  0
 16 17  1  0
 17 18  1  0
 18 19  1  0
 19 20  1  0
 19 21  1  0
 19 22  1  0
 16 23  1  0
 13 24  1  0
 23 24  2  0
  7 25  1  0
  4 26  1  0
 25 26  1  0
M  END
