piperidine-amides-20566-covalent
     RDKit          3D

 21 23  0  0  0  0  0  0  0  0999 V2000
    7.0530   -3.3520   19.3590 C   0  0  0  0  0  0  0  0  0  0  0  0
    6.3910   -4.2200   20.3420 C   0  0  0  0  0  0  0  0  0  0  0  0
    5.3970   -4.8950   19.9980 O   0  0  0  0  0  0  0  0  0  0  0  0
    6.8940   -4.3390   21.6500 N   0  0  0  0  0  0  0  0  0  0  0  0
    6.6680   -5.5710   22.3950 C   0  0  0  0  0  0  0  0  0  0  0  0
    6.2270   -5.2350   23.8430 C   0  0  0  0  0  0  0  0  0  0  0  0
    6.1510   -3.7310   23.9410 C   0  0  0  0  0  0  0  0  0  0  0  0
    5.6410   -3.2310   25.2390 C   0  0  0  0  0  0  0  0  0  0  0  0
    4.9030   -2.2270   25.1770 O   0  0  0  0  0  0  0  0  0  0  0  0
    5.9410   -3.8350   26.4950 N   0  0  0  0  0  0  0  0  0  0  0  0
    6.2750   -3.0120   27.6530 C   0  0  0  0  0  0  0  0  0  0  0  0
    5.9990   -3.8120   28.9550 C   0  0  0  0  0  0  0  0  0  0  0  0
    4.4870   -4.6010   29.2440 S   0  0  0  0  0  0  0  0  0  0  0  0
    4.0840   -4.5460   27.5490 C   0  0  1  0  0  0  0  0  0  0  0  0
    3.9230   -3.3050   27.2110 C   0  0  0  0  0  0  0  0  0  0  0  0
    5.1390   -2.7920   27.6450 C   0  0  0  0  0  0  0  0  0  0  0  0
    6.2030   -3.7780   27.7930 C   0  0  0  0  0  0  0  0  0  0  0  0
    6.0940   -5.2920   28.2600 C   0  0  0  0  0  0  0  0  0  0  0  0
    5.2610   -4.9670   27.0800 C   0  0  2  0  0  0  0  0  0  0  0  0
    7.4060   -3.0620   23.6020 C   0  0  0  0  0  0  0  0  0  0  0  0
    7.7040   -3.2990   22.2100 C   0  0  0  0  0  0  0  0  0  0  0  0
  1  2  1  0
  2  3  2  0
  2  4  1  0
  4  5  1  0
  5  6  1  0
  6  7  1  0
  7  8  1  0
  8  9  2  0
  8 10  1  0
 10 11  1  0
 11 12  1  0
 12 13  1  0
 13 14  1  0
 14 15  1  6
 15 16  1  0
 16 17  1  0
 17 18  1  0
 10 19  1  0
 14 19  1  0
 19 18  1  1
  7 20  1  0
  4 21  1  0
 20 21  1  0
M  END
