piperidine-amides-5353-covalent
     RDKit          3D

 21 21  0  0  0  0  0  0  0  0999 V2000
    7.0980   -3.2800   19.1620 C   0  0  0  0  0  0  0  0  0  0  0  0
    6.3560   -4.0230   20.2070 C   0  0  0  0  0  0  0  0  0  0  0  0
    5.2670   -4.5200   19.8660 O   0  0  0  0  0  0  0  0  0  0  0  0
    6.8840   -4.2050   21.4930 N   0  0  0  0  0  0  0  0  0  0  0  0
    6.4660   -5.3170   22.2780 C   0  0  0  0  0  0  0  0  0  0  0  0
    5.9440   -4.9480   23.5990 C   0  0  0  0  0  0  0  0  0  0  0  0
    6.5820   -3.7620   24.2170 C   0  0  0  0  0  0  0  0  0  0  0  0
    5.8120   -3.3230   25.4110 C   0  0  0  0  0  0  0  0  0  0  0  0
    4.5860   -3.1380   25.2780 O   0  0  0  0  0  0  0  0  0  0  0  0
    6.4340   -3.1060   26.6600 N   0  0  0  0  0  0  0  0  0  0  0  0
    6.2460   -3.9850   27.8530 C   0  0  0  0  0  0  0  0  0  0  0  0
    5.8260   -5.3880   27.5300 C   0  0  0  0  0  0  0  0  0  0  0  0
    5.3200   -6.1950   28.6360 C   0  0  0  0  0  0  0  0  0  0  0  0
    3.9750   -6.4780   28.7190 C   0  0  0  0  0  0  0  0  0  0  0  0
    3.2490   -5.9500   29.5860 O   0  0  0  0  0  0  0  0  0  0  0  0
    1.9980   -6.2930   29.4640 C   0  0  0  0  0  0  0  0  0  0  0  0
    1.5170   -7.4500   30.0010 C   0  0  0  0  0  0  0  0  0  0  0  0
    0.7650   -7.2150   31.1580 O   0  0  0  0  0  0  0  0  0  0  0  0
   -0.5050   -6.7940   30.7930 C   0  0  0  0  0  0  0  0  0  0  0  0
    6.9260   -2.6760   23.2810 C   0  0  0  0  0  0  0  0  0  0  0  0
    7.5820   -3.1200   22.1390 C   0  0  0  0  0  0  0  0  0  0  0  0
  1  2  1  0
  2  3  2  0
  2  4  1  0
  4  5  1  0
  5  6  1  0
  6  7  1  0
  7  8  1  0
  8  9  2  0
  8 10  1  0
 10 11  1  0
 11 12  1  0
 12 13  1  0
 13 14  1  0
 14 15  1  0
 15 16  1  0
 16 17  1  0
 17 18  1  0
 18 19  1  0
  7 20  1  0
  4 21  1  0
 20 21  1  0
M  END
