piperidine-amides-5263-covalent
     RDKit          3D

 21 22  0  0  0  0  0  0  0  0999 V2000
    7.0930   -3.2750   19.1650 C   0  0  0  0  0  0  0  0  0  0  0  0
    6.3380   -4.0120   20.2030 C   0  0  0  0  0  0  0  0  0  0  0  0
    5.2520   -4.5080   19.8600 O   0  0  0  0  0  0  0  0  0  0  0  0
    6.8620   -4.1820   21.4870 N   0  0  0  0  0  0  0  0  0  0  0  0
    6.4720   -5.3140   22.2540 C   0  0  0  0  0  0  0  0  0  0  0  0
    6.0010   -4.9780   23.6000 C   0  0  0  0  0  0  0  0  0  0  0  0
    6.6450   -3.7910   24.2070 C   0  0  0  0  0  0  0  0  0  0  0  0
    5.8550   -3.2850   25.3550 C   0  0  0  0  0  0  0  0  0  0  0  0
    4.6170   -3.1840   25.2170 O   0  0  0  0  0  0  0  0  0  0  0  0
    6.4810   -2.9170   26.5620 N   0  0  0  0  0  0  0  0  0  0  0  0
    6.2360   -3.5830   27.8690 C   0  0  2  0  0  0  0  0  0  0  0  0
    5.8020   -5.0150   27.7450 C   0  0  0  0  0  0  0  0  0  0  0  0
    4.6570   -5.4020   28.1140 O   0  0  0  0  0  0  0  0  0  0  0  0
    5.3260   -2.7440   28.6780 C   0  0  0  0  0  0  0  0  0  0  0  0
    5.8860   -1.8230   29.5490 C   0  0  0  0  0  0  0  0  0  0  0  0
    4.7980   -1.1850   30.1650 N   0  0  0  0  0  0  0  0  0  0  0  0
    3.6010   -1.7720   29.6150 C   0  0  0  0  0  0  0  0  0  0  0  0
    3.9780   -2.7620   28.6690 N   0  0  0  0  0  0  0  0  0  0  0  0
    3.0880   -3.6130   27.8610 C   0  0  0  0  0  0  0  0  0  0  0  0
    7.0280   -2.6820   23.2820 C   0  0  0  0  0  0  0  0  0  0  0  0
    7.6240   -3.1750   22.1680 C   0  0  0  0  0  0  0  0  0  0  0  0
  1  2  1  0
  2  3  2  0
  2  4  1  0
  4  5  1  0
  5  6  1  0
  6  7  1  0
  7  8  1  0
  8  9  2  0
  8 10  1  0
 10 11  1  0
 11 12  1  6
 12 13  1  0
 11 14  1  0
 14 15  2  0
 15 16  1  0
 16 17  2  0
 14 18  1  0
 17 18  1  0
 18 19  1  0
  7 20  1  0
  4 21  1  0
 20 21  1  0
M  END
