piperidine-amides-2820-covalent
     RDKit          3D

 24 24  0  0  0  0  0  0  0  0999 V2000
    7.2020   -3.2330   19.1140 C   0  0  0  0  0  0  0  0  0  0  0  0
    6.3860   -3.9170   20.1100 C   0  0  0  0  0  0  0  0  0  0  0  0
    5.2930   -4.4020   19.8220 O   0  0  0  0  0  0  0  0  0  0  0  0
    6.9070   -4.0690   21.4250 N   0  0  0  0  0  0  0  0  0  0  0  0
    7.8010   -3.0780   21.9470 C   0  0  0  0  0  0  0  0  0  0  0  0
    7.2500   -2.5540   23.2190 C   0  0  0  0  0  0  0  0  0  0  0  0
    6.8090   -3.7320   24.0580 C   0  0  0  0  0  0  0  0  0  0  0  0
    5.9580   -3.1520   25.0990 C   0  0  0  0  0  0  0  0  0  0  0  0
    4.8390   -2.6520   24.8640 O   0  0  0  0  0  0  0  0  0  0  0  0
    6.4360   -3.1780   26.4010 N   0  0  0  0  0  0  0  0  0  0  0  0
    5.5710   -3.8180   27.3160 C   0  0  1  0  0  0  0  0  0  0  0  0
    4.9340   -5.0120   26.6610 C   0  0  0  0  0  0  0  0  0  0  0  0
    3.6570   -5.2340   27.1410 O   0  0  0  0  0  0  0  0  0  0  0  0
    5.3690   -5.8630   25.6890 O   0  0  0  0  0  0  0  0  0  0  0  0
    4.4900   -6.6220   24.9010 C   0  0  0  0  0  0  0  0  0  0  0  0
    6.1390   -4.2520   28.5610 C   0  0  1  0  0  0  0  0  0  0  0  0
    5.2860   -4.0490   29.5920 C   0  0  0  0  0  0  0  0  0  0  0  0
    6.2730   -5.6340   28.4390 O   0  0  0  0  0  0  0  0  0  0  0  0
    5.3500   -6.5400   28.9240 C   0  0  0  0  0  0  0  0  0  0  0  0
    4.8260   -7.2990   27.9170 C   0  0  0  0  0  0  0  0  0  0  0  0
    6.0330   -7.0900   29.9330 C   0  0  0  0  0  0  0  0  0  0  0  0
    4.2110   -5.9910   29.4800 C   0  0  0  0  0  0  0  0  0  0  0  0
    6.1380   -4.8620   23.4220 C   0  0  0  0  0  0  0  0  0  0  0  0
    6.6650   -5.2390   22.2090 C   0  0  0  0  0  0  0  0  0  0  0  0
  1  2  1  0
  2  3  2  0
  2  4  1  0
  4  5  1  0
  5  6  1  0
  6  7  1  0
  7  8  1  0
  8  9  2  0
  8 10  1  0
 11 10  1  6
 11 12  1  0
 12 13  2  0
 12 14  1  0
 14 15  1  0
 11 16  1  0
 16 17  1  1
 16 18  1  0
 19 18  1  0
 19 20  1  0
 19 21  1  0
 19 22  1  0
  7 23  1  0
  4 24  1  0
 23 24  1  0
M  END
