piperidine-amides-4934-covalent
     RDKit          3D

 23 23  0  0  0  0  0  0  0  0999 V2000
    7.1080   -3.2690   19.2330 C   0  0  0  0  0  0  0  0  0  0  0  0
    6.3640   -4.0440   20.2560 C   0  0  0  0  0  0  0  0  0  0  0  0
    5.2950   -4.5690   19.8870 O   0  0  0  0  0  0  0  0  0  0  0  0
    6.8650   -4.2170   21.5570 N   0  0  0  0  0  0  0  0  0  0  0  0
    7.6380   -3.1790   22.1570 C   0  0  0  0  0  0  0  0  0  0  0  0
    7.1840   -2.8550   23.5020 C   0  0  0  0  0  0  0  0  0  0  0  0
    5.9680   -3.6020   23.8730 C   0  0  0  0  0  0  0  0  0  0  0  0
    5.5240   -3.3020   25.2670 C   0  0  0  0  0  0  0  0  0  0  0  0
    4.3020   -3.1930   25.4650 O   0  0  0  0  0  0  0  0  0  0  0  0
    6.4220   -3.1250   26.3450 N   0  0  0  0  0  0  0  0  0  0  0  0
    6.5270   -4.0450   27.5100 C   0  0  1  0  0  0  0  0  0  0  0  0
    5.8110   -5.3380   27.2780 C   0  0  0  0  0  0  0  0  0  0  0  0
    4.4620   -5.5270   27.8200 C   0  0  0  0  0  0  0  0  0  0  0  0
    3.5810   -4.7320   27.1260 F   0  0  0  0  0  0  0  0  0  0  0  0
    4.0790   -6.8490   27.6180 F   0  0  0  0  0  0  0  0  0  0  0  0
    4.4060   -5.2610   29.1500 F   0  0  0  0  0  0  0  0  0  0  0  0
    7.9260   -4.2560   27.5170 C   0  0  0  0  0  0  0  0  0  0  0  0
    8.4570   -4.5670   28.5880 O   0  0  0  0  0  0  0  0  0  0  0  0
    8.5870   -4.1130   26.3580 O   0  0  0  0  0  0  0  0  0  0  0  0
    9.1630   -5.2460   25.7650 C   0  0  0  0  0  0  0  0  0  0  0  0
    9.3300   -6.1570   26.7510 C   0  0  0  0  0  0  0  0  0  0  0  0
    5.9610   -5.0760   23.5560 C   0  0  0  0  0  0  0  0  0  0  0  0
    6.5910   -5.3770   22.3670 C   0  0  0  0  0  0  0  0  0  0  0  0
  1  2  1  0
  2  3  2  0
  2  4  1  0
  4  5  1  0
  5  6  1  0
  6  7  1  0
  7  8  1  0
  8  9  2  0
  8 10  1  0
 10 11  1  0
 11 12  1  6
 12 13  1  0
 13 14  1  0
 13 15  1  0
 13 16  1  0
 11 17  1  0
 17 18  2  0
 17 19  1  0
 19 20  1  0
 20 21  1  0
  7 22  1  0
  4 23  1  0
 22 23  1  0
M  END
