piperidine-amides-34181-covalent
     RDKit          3D

 30 33  0  0  0  0  0  0  0  0999 V2000
    7.0650   -3.3670   19.3550 C   0  0  0  0  0  0  0  0  0  0  0  0
    6.3720   -4.2080   20.3440 C   0  0  0  0  0  0  0  0  0  0  0  0
    5.3780   -4.8800   19.9920 O   0  0  0  0  0  0  0  0  0  0  0  0
    6.8420   -4.3080   21.6650 N   0  0  0  0  0  0  0  0  0  0  0  0
    6.6790   -5.5760   22.3580 C   0  0  0  0  0  0  0  0  0  0  0  0
    6.2640   -5.2930   23.8160 C   0  0  0  0  0  0  0  0  0  0  0  0
    6.1480   -3.7960   23.9570 C   0  0  0  0  0  0  0  0  0  0  0  0
    5.5760   -3.3730   25.2590 C   0  0  0  0  0  0  0  0  0  0  0  0
    4.5930   -2.6130   25.2160 O   0  0  0  0  0  0  0  0  0  0  0  0
    6.0810   -3.7970   26.5120 N   0  0  0  0  0  0  0  0  0  0  0  0
    6.4370   -2.7760   27.4310 C   0  0  0  0  0  0  0  0  0  0  0  0
    6.7600   -3.4230   28.7630 C   0  0  0  0  0  0  0  0  0  0  0  0
    5.8940   -4.3110   29.2570 C   0  0  0  0  0  0  0  0  0  0  0  0
    4.9470   -4.7360   28.4000 C   0  0  2  0  0  0  0  0  0  0  0  0
    4.1400   -5.7800   28.8610 C   0  0  0  0  0  0  0  0  0  0  0  0
    4.3750   -6.9530   28.1870 N   0  0  0  0  0  0  0  0  0  0  0  0
    3.4980   -7.7780   28.8020 N   0  0  0  0  0  0  0  0  0  0  0  0
    2.7440   -7.1180   29.8330 C   0  0  0  0  0  0  0  0  0  0  0  0
    1.6850   -7.8310   30.6810 C   0  0  0  0  0  0  0  0  0  0  0  0
    1.3840   -6.5090   31.4740 C   0  0  0  0  0  0  0  0  0  0  0  0
    2.0090   -5.1210   31.3250 C   0  0  0  0  0  0  0  0  0  0  0  0
    1.1420   -4.6350   32.4090 C   0  0  0  0  0  0  0  0  0  0  0  0
    1.2720   -3.3100   32.7120 F   0  0  0  0  0  0  0  0  0  0  0  0
   -0.2000   -4.9070   32.1860 F   0  0  0  0  0  0  0  0  0  0  0  0
    1.4690   -5.3920   33.5290 F   0  0  0  0  0  0  0  0  0  0  0  0
    2.9930   -4.7100   30.4470 C   0  0  0  0  0  0  0  0  0  0  0  0
    3.1860   -5.8500   29.8320 N   0  0  0  0  0  0  0  0  0  0  0  0
    5.3920   -4.9190   27.1050 C   0  0  0  0  0  0  0  0  0  0  0  0
    7.4750   -3.1380   23.6810 C   0  0  0  0  0  0  0  0  0  0  0  0
    7.6830   -3.2530   22.1970 C   0  0  0  0  0  0  0  0  0  0  0  0
  1  2  1  0
  2  3  2  0
  2  4  1  0
  4  5  1  0
  5  6  1  0
  6  7  1  0
  7  8  1  0
  8  9  2  0
  8 10  1  0
 10 11  1  0
 11 12  1  0
 12 13  1  0
 13 14  1  0
 14 15  1  1
 15 16  2  0
 16 17  1  0
 17 18  2  0
 18 19  1  0
 19 20  2  0
 20 21  1  0
 21 22  1  0
 22 23  1  0
 22 24  1  0
 22 25  1  0
 21 26  2  0
 15 27  1  0
 18 27  1  0
 26 27  1  0
 10 28  1  0
 14 28  1  0
  7 29  1  0
  4 30  1  0
 29 30  1  0
M  END
