piperidine-amides-5575-covalent
     RDKit          3D

 18 19  0  0  0  0  0  0  0  0999 V2000
    7.1370   -3.2760   19.2050 C   0  0  0  0  0  0  0  0  0  0  0  0
    6.3470   -4.0070   20.1990 C   0  0  0  0  0  0  0  0  0  0  0  0
    5.2620   -4.5000   19.8640 O   0  0  0  0  0  0  0  0  0  0  0  0
    6.8160   -4.2170   21.5020 N   0  0  0  0  0  0  0  0  0  0  0  0
    6.4170   -5.3760   22.2560 C   0  0  0  0  0  0  0  0  0  0  0  0
    5.7030   -4.8170   23.4590 C   0  0  0  0  0  0  0  0  0  0  0  0
    6.5300   -3.7780   24.1660 C   0  0  0  0  0  0  0  0  0  0  0  0
    5.8440   -3.1970   25.3450 C   0  0  0  0  0  0  0  0  0  0  0  0
    4.6070   -2.9370   25.2960 O   0  0  0  0  0  0  0  0  0  0  0  0
    6.5080   -2.9070   26.5570 N   0  0  0  0  0  0  0  0  0  0  0  0
    6.1980   -3.6640   27.7940 C   0  0  0  0  0  0  0  0  0  0  0  0
    5.5190   -4.9160   27.4050 C   0  0  0  0  0  0  0  0  0  0  0  0
    4.3300   -5.1410   26.6010 C   0  0  0  0  0  0  0  0  0  0  0  0
    4.0850   -6.6230   26.5270 C   0  0  0  0  0  0  0  0  0  0  0  0
    5.0750   -7.2810   27.2510 O   0  0  0  0  0  0  0  0  0  0  0  0
    5.8960   -6.2920   27.7530 C   0  0  0  0  0  0  0  0  0  0  0  0
    6.9080   -2.6770   23.2410 C   0  0  0  0  0  0  0  0  0  0  0  0
    7.5160   -3.1290   22.1090 C   0  0  0  0  0  0  0  0  0  0  0  0
  1  2  1  0
  2  3  2  0
  2  4  1  0
  4  5  1  0
  5  6  1  0
  6  7  1  0
  7  8  1  0
  8  9  2  0
  8 10  1  0
 10 11  1  0
 11 12  1  0
 12 13  1  0
 13 14  2  0
 14 15  1  0
 12 16  2  0
 15 16  1  0
  7 17  1  0
  4 18  1  0
 17 18  1  0
M  END
