piperidine-amides-27223-covalent
     RDKit          3D

 26 29  0  0  0  0  0  0  0  0999 V2000
    7.0450   -3.3480   19.3250 C   0  0  0  0  0  0  0  0  0  0  0  0
    6.3940   -4.2000   20.3220 C   0  0  0  0  0  0  0  0  0  0  0  0
    5.3420   -4.7900   19.9610 O   0  0  0  0  0  0  0  0  0  0  0  0
    6.9640   -4.3810   21.5840 N   0  0  0  0  0  0  0  0  0  0  0  0
    6.6810   -5.5540   22.3700 C   0  0  0  0  0  0  0  0  0  0  0  0
    5.9000   -5.1340   23.5850 C   0  0  0  0  0  0  0  0  0  0  0  0
    6.5470   -3.9860   24.3280 C   0  0  0  0  0  0  0  0  0  0  0  0
    5.6400   -3.5560   25.4130 C   0  0  0  0  0  0  0  0  0  0  0  0
    4.7350   -2.7340   25.1610 O   0  0  0  0  0  0  0  0  0  0  0  0
    5.7690   -4.0520   26.7180 N   0  0  0  0  0  0  0  0  0  0  0  0
    5.3140   -3.3180   27.9020 C   0  0  0  0  0  0  0  0  0  0  0  0
    5.0650   -4.2710   29.0850 C   0  0  0  0  0  0  0  0  0  0  0  0
    5.7210   -5.4560   29.0920 C   0  0  0  0  0  0  0  0  0  0  0  0
    6.6720   -5.5320   28.2370 C   0  0  0  0  0  0  0  0  0  0  0  0
    7.2580   -6.7110   28.2970 N   0  0  0  0  0  0  0  0  0  0  0  0
    6.5550   -7.3570   29.2800 N   0  0  0  0  0  0  0  0  0  0  0  0
    5.5820   -6.5740   29.7940 N   0  0  0  0  0  0  0  0  0  0  0  0
    4.6970   -6.9990   30.8270 C   0  0  0  0  0  0  0  0  0  0  0  0
    3.5300   -7.5600   30.3180 C   0  0  0  0  0  0  0  0  0  0  0  0
    2.5340   -8.0450   31.1610 C   0  0  0  0  0  0  0  0  0  0  0  0
    2.6150   -8.0140   32.6730 C   0  0  0  0  0  0  0  0  0  0  0  0
    3.9060   -7.3960   33.1830 C   0  0  0  0  0  0  0  0  0  0  0  0
    4.9110   -6.9050   32.1810 C   0  0  0  0  0  0  0  0  0  0  0  0
    6.9190   -4.4730   27.4510 C   0  0  0  0  0  0  0  0  0  0  0  0
    6.8650   -2.8390   23.4370 C   0  0  0  0  0  0  0  0  0  0  0  0
    7.6330   -3.2760   22.2150 C   0  0  0  0  0  0  0  0  0  0  0  0
  1  2  1  0
  2  3  2  0
  2  4  1  0
  4  5  1  0
  5  6  1  0
  6  7  1  0
  7  8  1  0
  8  9  2  0
  8 10  1  0
 10 11  1  0
 11 12  1  0
 12 13  1  0
 13 14  2  0
 14 15  1  0
 15 16  2  0
 13 17  1  0
 16 17  1  0
 17 18  1  0
 18 19  2  0
 19 20  1  0
 20 21  2  0
 21 22  1  0
 18 23  1  0
 22 23  2  0
 10 24  1  0
 14 24  1  0
  7 25  1  0
  4 26  1  0
 25 26  1  0
M  END
