piperidine-amides-1560-covalent
     RDKit          3D

 21 22  0  0  0  0  0  0  0  0999 V2000
    7.0630   -3.2720   19.2550 C   0  0  0  0  0  0  0  0  0  0  0  0
    6.2960   -4.0660   20.2620 C   0  0  0  0  0  0  0  0  0  0  0  0
    5.2520   -4.6270   19.9010 O   0  0  0  0  0  0  0  0  0  0  0  0
    6.7800   -4.2100   21.5820 N   0  0  0  0  0  0  0  0  0  0  0  0
    6.5940   -5.4550   22.2870 C   0  0  0  0  0  0  0  0  0  0  0  0
    6.0480   -5.1310   23.6840 C   0  0  0  0  0  0  0  0  0  0  0  0
    5.9620   -3.6430   23.8070 C   0  0  0  0  0  0  0  0  0  0  0  0
    5.3260   -3.1850   25.0770 C   0  0  0  0  0  0  0  0  0  0  0  0
    4.1050   -3.0260   25.0360 O   0  0  0  0  0  0  0  0  0  0  0  0
    6.0590   -2.9450   26.2470 N   0  0  0  0  0  0  0  0  0  0  0  0
    6.4370   -3.8940   27.2250 C   0  0  1  0  0  0  0  0  0  0  0  0
    5.8190   -5.0930   27.4910 C   0  0  0  0  0  0  0  0  0  0  0  0
    4.4990   -4.7270   27.9820 O   0  0  0  0  0  0  0  0  0  0  0  0
    7.8030   -4.2890   26.8040 C   0  0  0  0  0  0  0  0  0  0  0  0
    8.2520   -5.5450   27.0480 C   0  0  0  0  0  0  0  0  0  0  0  0
    9.5700   -5.9470   26.6500 C   0  0  0  0  0  0  0  0  0  0  0  0
   10.4740   -4.9610   25.9640 C   0  0  0  0  0  0  0  0  0  0  0  0
    9.9590   -3.6690   25.7260 N   0  0  0  0  0  0  0  0  0  0  0  0
    8.6400   -3.3780   26.1500 C   0  0  0  0  0  0  0  0  0  0  0  0
    7.3480   -3.0350   23.5940 C   0  0  0  0  0  0  0  0  0  0  0  0
    7.5280   -3.0850   22.1240 C   0  0  0  0  0  0  0  0  0  0  0  0
  1  2  1  0
  2  3  2  0
  2  4  1  0
  4  5  1  0
  5  6  1  0
  6  7  1  0
  7  8  1  0
  8  9  2  0
  8 10  1  0
 10 11  1  0
 11 12  1  6
 12 13  1  0
 11 14  1  0
 14 15  2  0
 15 16  1  0
 16 17  2  0
 17 18  1  0
 14 19  1  0
 18 19  2  0
  7 20  1  0
  4 21  1  0
 20 21  1  0
M  END
