piperidine-amides-4274-covalent
     RDKit          3D

 26 28  0  0  0  0  0  0  0  0999 V2000
    7.1460   -3.2840   19.2080 C   0  0  0  0  0  0  0  0  0  0  0  0
    6.3370   -3.9870   20.2140 C   0  0  0  0  0  0  0  0  0  0  0  0
    5.2330   -4.4400   19.8370 O   0  0  0  0  0  0  0  0  0  0  0  0
    6.8120   -4.2010   21.5260 N   0  0  0  0  0  0  0  0  0  0  0  0
    7.5710   -3.1620   22.1460 C   0  0  0  0  0  0  0  0  0  0  0  0
    7.2840   -2.9310   23.5580 C   0  0  0  0  0  0  0  0  0  0  0  0
    6.4920   -3.9870   24.2280 C   0  0  0  0  0  0  0  0  0  0  0  0
    5.7380   -3.4250   25.4070 C   0  0  0  0  0  0  0  0  0  0  0  0
    4.6070   -2.9340   25.2240 O   0  0  0  0  0  0  0  0  0  0  0  0
    6.2750   -3.4300   26.7160 N   0  0  0  0  0  0  0  0  0  0  0  0
    6.1060   -4.3890   27.7580 C   0  0  0  0  0  0  0  0  0  0  0  0
    6.1970   -5.8450   27.5520 C   0  0  0  0  0  0  0  0  0  0  0  0
    4.8520   -6.5020   27.9310 C   0  0  0  0  0  0  0  0  0  0  0  0
    3.8990   -6.6310   26.8930 C   0  0  0  0  0  0  0  0  0  0  0  0
    4.1850   -6.1940   25.6190 O   0  0  0  0  0  0  0  0  0  0  0  0
    3.9350   -7.1530   24.6500 C   0  0  0  0  0  0  0  0  0  0  0  0
    2.4970   -7.2630   27.1180 C   0  0  0  0  0  0  0  0  0  0  0  0
    2.3210   -7.6970   28.5520 C   0  0  0  0  0  0  0  0  0  0  0  0
    3.3840   -7.5180   29.5570 C   0  0  0  0  0  0  0  0  0  0  0  0
    3.0560   -8.0070   30.9580 C   0  0  0  0  0  0  0  0  0  0  0  0
    4.1390   -7.8370   32.0110 C   0  0  0  0  0  0  0  0  0  0  0  0
    5.3870   -7.2150   31.5430 C   0  0  0  0  0  0  0  0  0  0  0  0
    5.5810   -6.7990   30.2250 C   0  0  0  0  0  0  0  0  0  0  0  0
    4.6130   -6.9370   29.2350 C   0  0  0  0  0  0  0  0  0  0  0  0
    5.5510   -4.6710   23.2940 C   0  0  0  0  0  0  0  0  0  0  0  0
    6.3300   -5.2900   22.3260 C   0  0  0  0  0  0  0  0  0  0  0  0
  1  2  1  0
  2  3  2  0
  2  4  1  0
  4  5  1  0
  5  6  1  0
  6  7  1  0
  7  8  1  0
  8  9  2  0
  8 10  1  0
 10 11  1  0
 11 12  1  0
 12 13  1  0
 13 14  2  0
 14 15  1  0
 15 16  1  0
 14 17  1  0
 17 18  2  0
 18 19  1  0
 19 20  1  0
 20 21  2  0
 21 22  1  0
 22 23  2  0
 13 24  1  0
 19 24  2  0
 23 24  1  0
  7 25  1  0
  4 26  1  0
 25 26  1  0
M  END
