piperidine-amides-21725-covalent
     RDKit          3D

 23 25  0  0  0  0  0  0  0  0999 V2000
    7.0800   -3.3920   19.4000 C   0  0  0  0  0  0  0  0  0  0  0  0
    6.4010   -4.2380   20.3820 C   0  0  0  0  0  0  0  0  0  0  0  0
    5.3530   -4.8120   19.9780 O   0  0  0  0  0  0  0  0  0  0  0  0
    6.9440   -4.4310   21.6630 N   0  0  0  0  0  0  0  0  0  0  0  0
    6.6120   -5.5650   22.4780 C   0  0  0  0  0  0  0  0  0  0  0  0
    5.7720   -5.0740   23.6320 C   0  0  0  0  0  0  0  0  0  0  0  0
    6.2710   -3.8050   24.2970 C   0  0  0  0  0  0  0  0  0  0  0  0
    5.2060   -3.2930   25.2220 C   0  0  0  0  0  0  0  0  0  0  0  0
    4.0570   -3.1970   24.7590 O   0  0  0  0  0  0  0  0  0  0  0  0
    5.3850   -2.9210   26.5740 N   0  0  0  0  0  0  0  0  0  0  0  0
    6.6760   -3.0010   27.0720 C   0  0  0  0  0  0  0  0  0  0  0  0
    6.5040   -4.0560   28.1500 C   0  0  0  0  0  0  0  0  0  0  0  0
    5.2170   -4.0840   28.5560 C   0  0  2  0  0  0  0  0  0  0  0  0
    4.5920   -5.2360   28.9720 C   0  0  0  0  0  0  0  0  0  0  0  0
    4.9730   -6.5540   28.9040 C   0  0  0  0  0  0  0  0  0  0  0  0
    4.1720   -7.5650   29.3870 C   0  0  0  0  0  0  0  0  0  0  0  0
    2.9300   -7.4090   29.9830 C   0  0  0  0  0  0  0  0  0  0  0  0
    2.2150   -8.4530   30.4240 F   0  0  0  0  0  0  0  0  0  0  0  0
    2.4780   -6.1400   30.0950 N   0  0  0  0  0  0  0  0  0  0  0  0
    3.2560   -5.1570   29.6240 C   0  0  0  0  0  0  0  0  0  0  0  0
    4.5110   -3.3680   27.6210 C   0  0  0  0  0  0  0  0  0  0  0  0
    6.6900   -2.7160   23.2830 C   0  0  0  0  0  0  0  0  0  0  0  0
    7.6770   -3.3730   22.3340 C   0  0  0  0  0  0  0  0  0  0  0  0
  1  2  1  0
  2  3  2  0
  2  4  1  0
  4  5  1  0
  5  6  1  0
  6  7  1  0
  7  8  1  0
  8  9  2  0
  8 10  1  0
 10 11  1  0
 11 12  1  0
 12 13  1  0
 13 14  1  6
 14 15  2  0
 15 16  1  0
 16 17  2  0
 17 18  1  0
 17 19  1  0
 14 20  1  0
 19 20  2  0
 10 21  1  0
 13 21  1  0
  7 22  1  0
  4 23  1  0
 22 23  1  0
M  END
