piperidine-amides-4557-covalent
     RDKit          3D

 24 25  0  0  0  0  0  0  0  0999 V2000
    7.1170   -3.2620   19.1990 C   0  0  0  0  0  0  0  0  0  0  0  0
    6.3580   -4.0260   20.2160 C   0  0  0  0  0  0  0  0  0  0  0  0
    5.2670   -4.5100   19.8590 O   0  0  0  0  0  0  0  0  0  0  0  0
    6.8770   -4.2390   21.4960 N   0  0  0  0  0  0  0  0  0  0  0  0
    7.6340   -3.2220   22.1480 C   0  0  0  0  0  0  0  0  0  0  0  0
    7.2070   -2.8960   23.5110 C   0  0  0  0  0  0  0  0  0  0  0  0
    6.4210   -3.9160   24.2530 C   0  0  0  0  0  0  0  0  0  0  0  0
    5.4490   -3.2010   25.1170 C   0  0  0  0  0  0  0  0  0  0  0  0
    4.3340   -3.7170   25.3190 O   0  0  0  0  0  0  0  0  0  0  0  0
    5.7600   -1.9590   25.6920 N   0  0  0  0  0  0  0  0  0  0  0  0
    6.1860   -1.8190   27.0880 C   0  0  0  0  0  0  0  0  0  0  0  0
    7.6180   -2.1000   27.1910 C   0  0  0  0  0  0  0  0  0  0  0  0
    8.3460   -1.4630   26.2370 F   0  0  0  0  0  0  0  0  0  0  0  0
    8.0590   -1.6560   28.4510 F   0  0  0  0  0  0  0  0  0  0  0  0
    7.8870   -3.4920   27.1670 C   0  0  0  0  0  0  0  0  0  0  0  0
    8.5380   -4.1110   26.1390 C   0  0  0  0  0  0  0  0  0  0  0  0
    8.7980   -5.4450   26.1710 C   0  0  0  0  0  0  0  0  0  0  0  0
    8.3890   -6.1630   27.2410 C   0  0  0  0  0  0  0  0  0  0  0  0
    7.7220   -5.5630   28.2620 C   0  0  0  0  0  0  0  0  0  0  0  0
    7.3640   -6.2840   29.2010 O   0  0  0  0  0  0  0  0  0  0  0  0
    6.1490   -6.8510   28.9850 C   0  0  0  0  0  0  0  0  0  0  0  0
    7.4790   -4.2310   28.2190 C   0  0  0  0  0  0  0  0  0  0  0  0
    5.7230   -4.9620   23.4570 C   0  0  0  0  0  0  0  0  0  0  0  0
    6.5550   -5.4090   22.2860 C   0  0  0  0  0  0  0  0  0  0  0  0
  1  2  1  0
  2  3  2  0
  2  4  1  0
  4  5  1  0
  5  6  1  0
  6  7  1  0
  7  8  1  0
  8  9  2  0
  8 10  1  0
 10 11  1  0
 11 12  1  0
 12 13  1  0
 12 14  1  0
 12 15  1  0
 15 16  2  0
 16 17  1  0
 17 18  2  0
 18 19  1  0
 19 20  1  0
 20 21  1  0
 15 22  1  0
 19 22  2  0
  7 23  1  0
  4 24  1  0
 23 24  1  0
M  END
