piperidine-amides-771-covalent
     RDKit          3D

 25 26  0  0  0  0  0  0  0  0999 V2000
    7.1290   -3.2900   19.3870 C   0  0  0  0  0  0  0  0  0  0  0  0
    6.3840   -4.0720   20.3560 C   0  0  0  0  0  0  0  0  0  0  0  0
    5.3750   -4.7340   19.9510 O   0  0  0  0  0  0  0  0  0  0  0  0
    6.7590   -4.1450   21.7150 N   0  0  0  0  0  0  0  0  0  0  0  0
    6.6730   -5.4880   22.3480 C   0  0  0  0  0  0  0  0  0  0  0  0
    6.0790   -5.1630   23.7810 C   0  0  0  0  0  0  0  0  0  0  0  0
    6.2810   -3.6820   23.9940 C   0  0  0  0  0  0  0  0  0  0  0  0
    5.5700   -3.0960   25.2890 C   0  0  0  0  0  0  0  0  0  0  0  0
    4.8180   -2.1880   24.9710 O   0  0  0  0  0  0  0  0  0  0  0  0
    5.9400   -3.7120   26.3430 N   0  0  0  0  0  0  0  0  0  0  0  0
    6.2330   -4.3430   27.5200 C   0  0  0  0  0  0  0  0  0  0  0  0
    6.3200   -5.5660   28.1330 C   0  0  0  0  0  0  0  0  0  0  0  0
    5.1730   -6.2760   29.1780 S   0  0  0  0  0  0  0  0  0  0  0  0
    4.7120   -7.5500   28.6020 O   0  0  0  0  0  0  0  0  0  0  0  0
    5.8400   -6.4300   30.5090 O   0  0  0  0  0  0  0  0  0  0  0  0
    3.7790   -5.2200   29.3020 N   0  0  0  0  0  0  0  0  0  0  0  0
    2.5670   -5.7710   29.4990 C   0  0  0  0  0  0  0  0  0  0  0  0
    1.5850   -4.8450   28.8900 C   0  0  1  0  0  0  0  0  0  0  0  0
    0.4770   -5.8890   29.0840 C   0  0  0  0  0  0  0  0  0  0  0  0
   -0.3730   -4.9500   29.6980 C   0  0  0  0  0  0  0  0  0  0  0  0
   -0.9230   -3.9250   28.9000 C   0  0  0  0  0  0  0  0  0  0  0  0
    0.1490   -3.3880   29.8620 C   0  0  0  0  0  0  0  0  0  0  0  0
    1.4230   -3.5940   29.4300 O   0  0  0  0  0  0  0  0  0  0  0  0
    7.6520   -3.2490   23.6150 C   0  0  0  0  0  0  0  0  0  0  0  0
    7.6630   -3.1520   22.2540 C   0  0  0  0  0  0  0  0  0  0  0  0
  1  2  1  0
  2  3  2  0
  2  4  1  0
  4  5  1  0
  5  6  1  0
  6  7  1  0
  7  8  1  0
  8  9  2  0
  8 10  1  0
 10 11  1  0
 11 12  1  0
 12 13  1  0
 13 14  2  0
 13 15  2  0
 13 16  1  0
 16 17  1  0
 18 17  1  1
 18 19  1  0
 19 20  1  0
 20 21  1  0
 21 22  1  0
 18 23  1  0
 22 23  1  0
  7 24  1  0
  4 25  1  0
 24 25  1  0
M  END
