piperidine-amides-28638-covalent
     RDKit          3D

 26 28  0  0  0  0  0  0  0  0999 V2000
    7.0820   -3.3330   19.3060 C   0  0  0  0  0  0  0  0  0  0  0  0
    6.4150   -4.1780   20.2900 C   0  0  0  0  0  0  0  0  0  0  0  0
    5.3680   -4.7650   19.9620 O   0  0  0  0  0  0  0  0  0  0  0  0
    6.9990   -4.3560   21.5670 N   0  0  0  0  0  0  0  0  0  0  0  0
    6.7220   -5.5570   22.2830 C   0  0  0  0  0  0  0  0  0  0  0  0
    5.9260   -5.2040   23.4920 C   0  0  0  0  0  0  0  0  0  0  0  0
    6.6880   -4.1580   24.2940 C   0  0  0  0  0  0  0  0  0  0  0  0
    5.7470   -3.6550   25.3260 C   0  0  0  0  0  0  0  0  0  0  0  0
    4.5660   -3.5910   24.9930 O   0  0  0  0  0  0  0  0  0  0  0  0
    6.2070   -3.2760   26.5730 N   0  0  0  0  0  0  0  0  0  0  0  0
    5.3790   -2.3810   27.3010 C   0  0  0  0  0  0  0  0  0  0  0  0
    5.9340   -1.8980   28.4610 C   0  0  0  0  0  0  0  0  0  0  0  0
    6.5370   -3.0970   28.9370 N   0  0  0  0  0  0  0  0  0  0  0  0
    5.9410   -4.2540   29.2840 C   0  0  0  0  0  0  0  0  0  0  0  0
    6.7880   -5.2990   29.0510 C   0  0  0  0  0  0  0  0  0  0  0  0
    6.2920   -6.6080   29.3860 C   0  0  0  0  0  0  0  0  0  0  0  0
    4.9050   -6.7510   29.9560 C   0  0  0  0  0  0  0  0  0  0  0  0
    4.7550   -7.9170   30.1510 O   0  0  0  0  0  0  0  0  0  0  0  0
    6.0480   -8.2540   29.8340 C   0  0  0  0  0  0  0  0  0  0  0  0
    3.9390   -5.6570   30.2210 C   0  0  0  0  0  0  0  0  0  0  0  0
    2.6700   -5.8080   30.7430 F   0  0  0  0  0  0  0  0  0  0  0  0
    4.6480   -4.3570   29.8050 C   0  0  0  0  0  0  0  0  0  0  0  0
    7.7180   -2.8550   28.1650 C   0  0  0  0  0  0  0  0  0  0  0  0
    7.5900   -3.4600   26.9300 C   0  0  0  0  0  0  0  0  0  0  0  0
    7.1400   -2.9570   23.5170 C   0  0  0  0  0  0  0  0  0  0  0  0
    7.7430   -3.3040   22.1990 C   0  0  0  0  0  0  0  0  0  0  0  0
  1  2  1  0
  2  3  2  0
  2  4  1  0
  4  5  1  0
  5  6  1  0
  6  7  1  0
  7  8  1  0
  8  9  2  0
  8 10  1  0
 10 11  1  0
 11 12  1  0
 12 13  1  0
 13 14  1  0
 14 15  2  0
 15 16  1  0
 16 17  2  0
 17 18  1  0
 18 19  1  0
 17 20  1  0
 20 21  1  0
 14 22  1  0
 20 22  2  0
 13 23  1  0
 10 24  1  0
 23 24  1  0
  7 25  1  0
  4 26  1  0
 25 26  1  0
M  END
