piperidine-amides-25225-covalent
     RDKit          3D

 25 28  0  0  0  0  0  0  0  0999 V2000
    7.0580   -3.3340   19.3530 C   0  0  0  0  0  0  0  0  0  0  0  0
    6.4020   -4.2230   20.3470 C   0  0  0  0  0  0  0  0  0  0  0  0
    5.3870   -4.8110   19.9750 O   0  0  0  0  0  0  0  0  0  0  0  0
    6.9610   -4.4060   21.6190 N   0  0  0  0  0  0  0  0  0  0  0  0
    6.6630   -5.5670   22.4070 C   0  0  0  0  0  0  0  0  0  0  0  0
    5.8060   -5.1500   23.5670 C   0  0  0  0  0  0  0  0  0  0  0  0
    6.3380   -3.8660   24.2260 C   0  0  0  0  0  0  0  0  0  0  0  0
    5.2260   -3.2810   25.0200 C   0  0  0  0  0  0  0  0  0  0  0  0
    4.1310   -3.1030   24.4890 O   0  0  0  0  0  0  0  0  0  0  0  0
    5.3950   -2.9290   26.3650 N   0  0  0  0  0  0  0  0  0  0  0  0
    4.2630   -2.7330   27.2350 C   0  0  0  0  0  0  0  0  0  0  0  0
    3.8690   -4.0500   27.8910 C   0  0  0  0  0  0  0  0  0  0  0  0
    4.9250   -5.0190   27.6430 N   0  0  0  0  0  0  0  0  0  0  0  0
    4.8270   -5.9750   28.7510 C   0  0  0  0  0  0  0  0  0  0  0  0
    3.5670   -5.9660   29.2220 C   0  0  0  0  0  0  0  0  0  0  0  0
    3.3330   -6.7690   30.2370 C   0  0  0  0  0  0  0  0  0  0  0  0
    4.2550   -7.6780   30.9360 C   0  0  0  0  0  0  0  0  0  0  0  0
    5.6370   -7.6220   30.3350 C   0  0  0  0  0  0  0  0  0  0  0  0
    6.0890   -6.7450   29.1440 C   0  0  0  0  0  0  0  0  0  0  0  0
    6.1880   -4.4250   27.9270 C   0  0  0  0  0  0  0  0  0  0  0  0
    6.2240   -3.4980   28.9250 C   0  0  0  0  0  0  0  0  0  0  0  0
    6.7730   -4.8510   29.3260 C   0  0  0  0  0  0  0  0  0  0  0  0
    6.4440   -3.1260   27.2170 C   0  0  0  0  0  0  0  0  0  0  0  0
    6.7990   -2.8180   23.2100 C   0  0  0  0  0  0  0  0  0  0  0  0
    7.6870   -3.3550   22.3080 C   0  0  0  0  0  0  0  0  0  0  0  0
  1  2  1  0
  2  3  2  0
  2  4  1  0
  4  5  1  0
  5  6  1  0
  6  7  1  0
  7  8  1  0
  8  9  2  0
  8 10  1  0
 10 11  1  0
 11 12  1  0
 12 13  1  0
 13 14  1  0
 14 15  2  0
 15 16  1  0
 16 17  2  0
 17 18  1  0
 14 19  1  0
 18 19  2  0
 20 13  1  0
 20 21  1  0
 20 22  1  0
 21 22  1  0
 10 23  1  0
 20 23  1  0
  7 24  1  0
  4 25  1  0
 24 25  1  0
M  END
