piperidine-amides-35632-covalent
     RDKit          3D

 38 42  0  0  0  0  0  0  0  0999 V2000
    7.1450   -3.2850   19.2430 C   0  0  0  0  0  0  0  0  0  0  0  0
    6.3390   -4.0650   20.2120 C   0  0  0  0  0  0  0  0  0  0  0  0
    5.2430   -4.4780   19.8490 O   0  0  0  0  0  0  0  0  0  0  0  0
    6.8700   -4.3620   21.4570 N   0  0  0  0  0  0  0  0  0  0  0  0
    6.5300   -5.5900   22.1080 C   0  0  0  0  0  0  0  0  0  0  0  0
    5.7390   -5.2450   23.3240 C   0  0  0  0  0  0  0  0  0  0  0  0
    6.5970   -4.3200   24.1690 C   0  0  0  0  0  0  0  0  0  0  0  0
    5.8010   -3.9840   25.3490 C   0  0  0  0  0  0  0  0  0  0  0  0
    4.5910   -4.2490   25.3750 O   0  0  0  0  0  0  0  0  0  0  0  0
    6.3870   -3.3310   26.4240 N   0  0  0  0  0  0  0  0  0  0  0  0
    6.1800   -3.8410   27.7670 C   0  0  0  0  0  0  0  0  0  0  0  0
    4.9750   -3.1440   28.3660 C   0  0  0  0  0  0  0  0  0  0  0  0
    3.7500   -2.9420   27.7850 C   0  0  0  0  0  0  0  0  0  0  0  0
    2.8170   -2.2870   28.5170 C   0  0  0  0  0  0  0  0  0  0  0  0
    3.1920   -1.8920   29.7640 C   0  0  0  0  0  0  0  0  0  0  0  0
    4.8000   -2.4250   29.9030 S   0  0  0  0  0  0  0  0  0  0  0  0
    6.1990   -1.9960   26.8480 C   0  0  0  0  0  0  0  0  0  0  0  0
    5.3760   -1.2220   26.1550 N   0  0  0  0  0  0  0  0  0  0  0  0
    5.2490    0.0450   26.6600 C   0  0  0  0  0  0  0  0  0  0  0  0
    4.3010    1.0520   25.9980 C   0  0  0  0  0  0  0  0  0  0  0  0
    2.9250    0.7050   26.4410 C   0  0  0  0  0  0  0  0  0  0  0  0
    1.8560    1.5790   25.9000 C   0  0  0  0  0  0  0  0  0  0  0  0
    2.2110    2.7220   24.9700 C   0  0  0  0  0  0  0  0  0  0  0  0
    3.6390    2.9660   24.6010 C   0  0  0  0  0  0  0  0  0  0  0  0
    4.7360    2.0720   25.1550 C   0  0  0  0  0  0  0  0  0  0  0  0
    6.0350    2.3590   24.7720 C   0  0  0  0  0  0  0  0  0  0  0  0
    6.1190    3.4180   23.9380 F   0  0  0  0  0  0  0  0  0  0  0  0
    6.9040    2.7340   25.8040 F   0  0  0  0  0  0  0  0  0  0  0  0
    6.7430    1.3930   24.1550 F   0  0  0  0  0  0  0  0  0  0  0  0
    5.9670    0.4240   27.8070 N   0  0  0  0  0  0  0  0  0  0  0  0
    6.9220   -0.2740   28.7090 C   0  0  0  0  0  0  0  0  0  0  0  0
    6.6990    1.1710   29.1650 C   0  0  0  0  0  0  0  0  0  0  0  0
    5.7690    1.8960   28.2910 C   0  0  0  0  0  0  0  0  0  0  0  0
    5.4660    0.9800   27.4050 C   0  0  0  0  0  0  0  0  0  0  0  0
    5.7650   -0.4680   27.0560 C   0  0  0  0  0  0  0  0  0  0  0  0
    6.7110   -1.3510   27.8670 C   0  0  0  0  0  0  0  0  0  0  0  0
    7.0540   -3.0870   23.4810 C   0  0  0  0  0  0  0  0  0  0  0  0
    7.6490   -3.3440   22.1310 C   0  0  0  0  0  0  0  0  0  0  0  0
  1  2  1  0
  2  3  2  0
  2  4  1  0
  4  5  1  0
  5  6  1  0
  6  7  1  0
  7  8  1  0
  8  9  2  0
  8 10  1  0
 10 11  1  0
 11 12  1  0
 12 13  2  0
 13 14  1  0
 14 15  2  0
 12 16  1  0
 15 16  1  0
 10 17  1  0
 17 18  2  0
 18 19  1  0
 19 20  1  0
 20 21  2  0
 21 22  1  0
 22 23  2  0
 23 24  1  0
 20 25  1  0
 24 25  2  0
 25 26  1  0
 26 27  1  0
 26 28  1  0
 26 29  1  0
 19 30  2  0
 30 31  1  0
 31 32  1  0
 32 33  2  0
 33 34  1  0
 34 35  2  0
 17 36  1  0
 31 36  2  0
 35 36  1  0
  7 37  1  0
  4 38  1  0
 37 38  1  0
M  END
