piperidine-amides-1322-covalent
     RDKit          3D

 22 23  0  0  0  0  0  0  0  0999 V2000
    7.1110   -3.2700   19.1930 C   0  0  0  0  0  0  0  0  0  0  0  0
    6.3560   -4.0480   20.2140 C   0  0  0  0  0  0  0  0  0  0  0  0
    5.2870   -4.5940   19.8970 O   0  0  0  0  0  0  0  0  0  0  0  0
    6.8970   -4.1880   21.5020 N   0  0  0  0  0  0  0  0  0  0  0  0
    7.7180   -3.1830   22.1340 C   0  0  0  0  0  0  0  0  0  0  0  0
    6.8930   -2.5980   23.2740 C   0  0  0  0  0  0  0  0  0  0  0  0
    6.5350   -3.7430   24.1580 C   0  0  0  0  0  0  0  0  0  0  0  0
    5.7850   -3.3120   25.3580 C   0  0  0  0  0  0  0  0  0  0  0  0
    4.5600   -3.1940   25.2250 O   0  0  0  0  0  0  0  0  0  0  0  0
    6.4550   -3.0530   26.5590 N   0  0  0  0  0  0  0  0  0  0  0  0
    6.2560   -3.6880   27.8180 C   0  0  2  0  0  0  0  0  0  0  0  0
    5.5210   -4.8330   28.0080 C   0  0  0  0  0  0  0  0  0  0  0  0
    5.8330   -5.7940   27.0980 F   0  0  0  0  0  0  0  0  0  0  0  0
    5.7530   -2.6240   28.7820 C   0  0  0  0  0  0  0  0  0  0  0  0
    6.6990   -1.7660   29.3180 C   0  0  0  0  0  0  0  0  0  0  0  0
    6.3290   -0.6880   30.2730 C   0  0  0  0  0  0  0  0  0  0  0  0
    4.8820   -0.4610   30.7210 C   0  0  0  0  0  0  0  0  0  0  0  0
    3.9890   -1.4900   30.0300 C   0  0  0  0  0  0  0  0  0  0  0  0
    4.4380   -2.4530   29.1560 C   0  0  0  0  0  0  0  0  0  0  0  0
    3.3580   -3.2580   28.6830 F   0  0  0  0  0  0  0  0  0  0  0  0
    5.7600   -4.8310   23.4810 C   0  0  0  0  0  0  0  0  0  0  0  0
    6.5290   -5.3420   22.2810 C   0  0  0  0  0  0  0  0  0  0  0  0
  1  2  1  0
  2  3  2  0
  2  4  1  0
  4  5  1  0
  5  6  1  0
  6  7  1  0
  7  8  1  0
  8  9  2  0
  8 10  1  0
 10 11  1  0
 11 12  1  6
 12 13  1  0
 11 14  1  0
 14 15  2  0
 15 16  1  0
 16 17  2  0
 17 18  1  0
 14 19  1  0
 18 19  2  0
 19 20  1  0
  7 21  1  0
  4 22  1  0
 21 22  1  0
M  END
