piperidine-amides-31226-covalent
     RDKit          3D

 27 30  0  0  0  0  0  0  0  0999 V2000
    7.0180   -3.3750   19.4040 C   0  0  0  0  0  0  0  0  0  0  0  0
    6.3690   -4.2570   20.3750 C   0  0  0  0  0  0  0  0  0  0  0  0
    5.3870   -4.9200   20.0000 O   0  0  0  0  0  0  0  0  0  0  0  0
    6.8510   -4.4140   21.6950 N   0  0  0  0  0  0  0  0  0  0  0  0
    7.6440   -3.4010   22.3610 C   0  0  0  0  0  0  0  0  0  0  0  0
    6.7370   -2.8270   23.4160 C   0  0  0  0  0  0  0  0  0  0  0  0
    5.8250   -3.8790   23.9830 C   0  0  0  0  0  0  0  0  0  0  0  0
    5.2370   -3.4930   25.3060 C   0  0  0  0  0  0  0  0  0  0  0  0
    4.3800   -2.5680   25.3330 O   0  0  0  0  0  0  0  0  0  0  0  0
    5.5270   -4.0590   26.5770 N   0  0  0  0  0  0  0  0  0  0  0  0
    6.9030   -4.3020   26.8240 C   0  0  0  0  0  0  0  0  0  0  0  0
    7.0960   -5.4120   27.7770 C   0  0  0  0  0  0  0  0  0  0  0  0
    6.0400   -5.5130   28.7840 C   0  0  0  0  0  0  0  0  0  0  0  0
    6.1040   -6.6240   29.7610 N   0  0  0  0  0  0  0  0  0  0  0  0
    4.9240   -6.4900   30.6420 C   0  0  0  0  0  0  0  0  0  0  0  0
    4.4800   -7.3550   31.8090 C   0  0  0  0  0  0  0  0  0  0  0  0
    5.3890   -7.4470   32.9880 C   0  0  0  0  0  0  0  0  0  0  0  0
    5.0680   -8.2170   34.0830 C   0  0  0  0  0  0  0  0  0  0  0  0
    3.8910   -8.9570   34.1760 C   0  0  0  0  0  0  0  0  0  0  0  0
    3.4950   -9.8250   35.3560 C   0  0  0  0  0  0  0  0  0  0  0  0
    2.9050   -8.9400   33.0660 C   0  0  0  0  0  0  0  0  0  0  0  0
    3.1730   -8.1250   31.8270 C   0  0  0  0  0  0  0  0  0  0  0  0
    3.9190   -5.0990   30.2150 S   0  0  0  0  0  0  0  0  0  0  0  0
    4.9460   -4.5970   28.8640 C   0  0  0  0  0  0  0  0  0  0  0  0
    5.0190   -3.5390   27.8050 C   0  0  0  0  0  0  0  0  0  0  0  0
    6.4160   -5.2660   23.8810 C   0  0  0  0  0  0  0  0  0  0  0  0
    6.5660   -5.6400   22.3970 C   0  0  0  0  0  0  0  0  0  0  0  0
  1  2  1  0
  2  3  2  0
  2  4  1  0
  4  5  1  0
  5  6  1  0
  6  7  1  0
  7  8  1  0
  8  9  2  0
  8 10  1  0
 10 11  1  0
 11 12  1  0
 12 13  1  0
 13 14  1  0
 14 15  2  0
 15 16  1  0
 16 17  2  0
 17 18  1  0
 18 19  2  0
 19 20  1  0
 19 21  1  0
 16 22  1  0
 21 22  2  0
 15 23  1  0
 13 24  2  0
 23 24  1  0
 10 25  1  0
 24 25  1  0
  7 26  1  0
  4 27  1  0
 26 27  1  0
M  END
