piperidine-amides-29143-covalent
     RDKit          3D

 26 26  0  0  0  0  0  0  0  0999 V2000
    7.0740   -3.2790   19.2830 C   0  0  0  0  0  0  0  0  0  0  0  0
    6.3410   -4.0730   20.2710 C   0  0  0  0  0  0  0  0  0  0  0  0
    5.2780   -4.6000   19.9030 O   0  0  0  0  0  0  0  0  0  0  0  0
    6.8490   -4.2800   21.5780 N   0  0  0  0  0  0  0  0  0  0  0  0
    7.6380   -3.2430   22.2160 C   0  0  0  0  0  0  0  0  0  0  0  0
    7.2060   -3.0400   23.6430 C   0  0  0  0  0  0  0  0  0  0  0  0
    5.9150   -3.8110   23.7780 C   0  0  0  0  0  0  0  0  0  0  0  0
    5.1240   -3.4720   24.9990 C   0  0  0  0  0  0  0  0  0  0  0  0
    3.9280   -3.2990   24.8080 O   0  0  0  0  0  0  0  0  0  0  0  0
    5.7130   -3.3480   26.2360 N   0  0  0  0  0  0  0  0  0  0  0  0
    6.1420   -4.4950   27.0140 C   0  0  0  0  0  0  0  0  0  0  0  0
    5.5150   -5.7190   26.8100 C   0  0  0  0  0  0  0  0  0  0  0  0
    4.3790   -5.9720   27.5430 C   0  0  0  0  0  0  0  0  0  0  0  0
    3.8210   -7.2390   27.5800 C   0  0  0  0  0  0  0  0  0  0  0  0
    2.4010   -6.9850   27.9840 C   0  0  0  0  0  0  0  0  0  0  0  0
    1.3520   -7.3740   26.9170 C   0  0  0  0  0  0  0  0  0  0  0  0
    0.4690   -8.4740   27.3650 C   0  0  0  0  0  0  0  0  0  0  0  0
    5.3650   -2.0850   26.8900 C   0  0  0  0  0  0  0  0  0  0  0  0
    4.9770   -2.2720   28.3830 C   0  0  0  0  0  0  0  0  0  0  0  0
    4.6740   -1.1500   29.1190 C   0  0  0  0  0  0  0  0  0  0  0  0
    5.2070   -0.9610   30.3760 C   0  0  0  0  0  0  0  0  0  0  0  0
    4.9420    0.3730   31.0310 C   0  0  0  0  0  0  0  0  0  0  0  0
    3.6120    1.0260   30.7610 C   0  0  0  0  0  0  0  0  0  0  0  0
    3.4720    2.5200   30.9790 C   0  0  0  0  0  0  0  0  0  0  0  0
    6.2090   -5.2830   23.6690 C   0  0  0  0  0  0  0  0  0  0  0  0
    6.7250   -5.5560   22.2570 C   0  0  0  0  0  0  0  0  0  0  0  0
  1  2  1  0
  2  3  2  0
  2  4  1  0
  4  5  1  0
  5  6  1  0
  6  7  1  0
  7  8  1  0
  8  9  2  0
  8 10  1  0
 10 11  1  0
 11 12  1  0
 12 13  1  0
 13 14  1  0
 14 15  1  0
 15 16  1  0
 16 17  1  0
 10 18  1  0
 18 19  1  0
 19 20  1  0
 20 21  1  0
 21 22  1  0
 22 23  1  0
 23 24  1  0
  7 25  1  0
  4 26  1  0
 25 26  1  0
M  END
