piperidine-amides-3932-covalent
     RDKit          3D

 30 32  0  0  0  0  0  0  0  0999 V2000
    7.0760   -3.3180   19.3190 C   0  0  0  0  0  0  0  0  0  0  0  0
    6.3860   -4.1410   20.3250 C   0  0  0  0  0  0  0  0  0  0  0  0
    5.3480   -4.7330   19.9510 O   0  0  0  0  0  0  0  0  0  0  0  0
    6.8960   -4.3110   21.6440 N   0  0  0  0  0  0  0  0  0  0  0  0
    7.6780   -3.2690   22.2230 C   0  0  0  0  0  0  0  0  0  0  0  0
    7.3230   -3.0020   23.6010 C   0  0  0  0  0  0  0  0  0  0  0  0
    6.0710   -3.6670   23.9940 C   0  0  0  0  0  0  0  0  0  0  0  0
    5.6470   -3.3300   25.3890 C   0  0  0  0  0  0  0  0  0  0  0  0
    4.4620   -3.5150   25.7190 O   0  0  0  0  0  0  0  0  0  0  0  0
    6.5420   -2.7940   26.3330 N   0  0  0  0  0  0  0  0  0  0  0  0
    6.3980   -1.5680   27.0170 C   0  0  0  0  0  0  0  0  0  0  0  0
    5.7410   -0.3750   26.5160 C   0  0  0  0  0  0  0  0  0  0  0  0
    5.6920    0.8610   27.4400 C   0  0  0  0  0  0  0  0  0  0  0  0
    6.2620    0.8250   28.7060 C   0  0  0  0  0  0  0  0  0  0  0  0
    6.1580    1.9860   29.4500 O   0  0  0  0  0  0  0  0  0  0  0  0
    4.9020    2.1940   30.0070 C   0  0  0  0  0  0  0  0  0  0  0  0
    4.0020    1.1030   29.5190 C   0  0  0  0  0  0  0  0  0  0  0  0
    2.9300    1.6040   30.5020 C   0  0  0  0  0  0  0  0  0  0  0  0
    1.7290    1.6280   30.1720 O   0  0  0  0  0  0  0  0  0  0  0  0
    0.7530    0.7310   30.7370 C   0  0  0  0  0  0  0  0  0  0  0  0
   -0.5580    0.6180   29.9900 C   0  0  0  0  0  0  0  0  0  0  0  0
   -1.6540   -0.3020   30.5080 C   0  0  0  0  0  0  0  0  0  0  0  0
   -1.3080   -1.0250   31.7480 C   0  0  0  0  0  0  0  0  0  0  0  0
   -0.0800   -0.8870   32.4010 C   0  0  0  0  0  0  0  0  0  0  0  0
    0.9120   -0.0340   31.9040 C   0  0  0  0  0  0  0  0  0  0  0  0
    6.8990   -0.2960   29.2070 C   0  0  0  0  0  0  0  0  0  0  0  0
    7.5850   -0.2220   30.8200 Cl  0  0  0  0  0  0  0  0  0  0  0  0
    6.9720   -1.4350   28.4240 C   0  0  0  0  0  0  0  0  0  0  0  0
    6.2270   -5.1630   23.8070 C   0  0  0  0  0  0  0  0  0  0  0  0
    6.6070   -5.5250   22.3720 C   0  0  0  0  0  0  0  0  0  0  0  0
  1  2  1  0
  2  3  2  0
  2  4  1  0
  4  5  1  0
  5  6  1  0
  6  7  1  0
  7  8  1  0
  8  9  2  0
  8 10  1  0
 10 11  1  0
 11 12  2  0
 12 13  1  0
 13 14  2  0
 14 15  1  0
 15 16  1  0
 16 17  1  0
 17 18  1  0
 18 19  1  0
 19 20  1  0
 20 21  2  0
 21 22  1  0
 22 23  2  0
 23 24  1  0
 20 25  1  0
 24 25  2  0
 14 26  1  0
 26 27  1  0
 11 28  1  0
 26 28  2  0
  7 29  1  0
  4 30  1  0
 29 30  1  0
M  END
