piperidine-amides-27713-covalent
     RDKit          3D

 26 28  0  0  0  0  0  0  0  0999 V2000
    7.0700   -3.3350   19.2670 C   0  0  0  0  0  0  0  0  0  0  0  0
    6.3810   -4.1480   20.2900 C   0  0  0  0  0  0  0  0  0  0  0  0
    5.3210   -4.7020   19.9390 O   0  0  0  0  0  0  0  0  0  0  0  0
    6.9330   -4.3310   21.5630 N   0  0  0  0  0  0  0  0  0  0  0  0
    6.5870   -5.4840   22.3190 C   0  0  0  0  0  0  0  0  0  0  0  0
    6.0240   -5.1860   23.6380 C   0  0  0  0  0  0  0  0  0  0  0  0
    6.5520   -3.9690   24.2950 C   0  0  0  0  0  0  0  0  0  0  0  0
    5.6090   -3.5470   25.3570 C   0  0  0  0  0  0  0  0  0  0  0  0
    4.7750   -2.6640   25.0920 O   0  0  0  0  0  0  0  0  0  0  0  0
    5.6450   -4.1290   26.6310 N   0  0  0  0  0  0  0  0  0  0  0  0
    6.9200   -4.4720   27.2010 C   0  0  0  0  0  0  0  0  0  0  0  0
    6.8320   -5.5830   28.1390 C   0  0  0  0  0  0  0  0  0  0  0  0
    5.6960   -5.5420   28.9490 N   0  0  0  0  0  0  0  0  0  0  0  0
    5.3470   -6.7560   29.6500 C   0  0  0  0  0  0  0  0  0  0  0  0
    4.9510   -4.3310   28.8670 C   0  0  0  0  0  0  0  0  0  0  0  0
    4.5800   -3.8340   29.9400 O   0  0  0  0  0  0  0  0  0  0  0  0
    4.6570   -3.7450   27.6360 C   0  0  2  0  0  0  0  0  0  0  0  0
    3.4140   -4.0770   27.1850 C   0  0  0  0  0  0  0  0  0  0  0  0
    2.5550   -4.3860   28.1960 C   0  0  0  0  0  0  0  0  0  0  0  0
    2.1380   -3.3950   29.0410 C   0  0  0  0  0  0  0  0  0  0  0  0
    1.2600   -3.6580   30.0970 C   0  0  0  0  0  0  0  0  0  0  0  0
    0.7010   -4.9990   30.4080 C   0  0  0  0  0  0  0  0  0  0  0  0
    1.1790   -6.0700   29.4610 C   0  0  0  0  0  0  0  0  0  0  0  0
    2.1180   -5.6930   28.3610 C   0  0  0  0  0  0  0  0  0  0  0  0
    6.8840   -2.8620   23.3900 C   0  0  0  0  0  0  0  0  0  0  0  0
    7.7160   -3.2950   22.2170 C   0  0  0  0  0  0  0  0  0  0  0  0
  1  2  1  0
  2  3  2  0
  2  4  1  0
  4  5  1  0
  5  6  1  0
  6  7  1  0
  7  8  1  0
  8  9  2  0
  8 10  1  0
 10 11  1  0
 11 12  1  0
 12 13  1  0
 13 14  1  0
 13 15  1  0
 15 16  2  0
 10 17  1  0
 15 17  1  0
 17 18  1  6
 18 19  1  0
 19 20  2  0
 20 21  1  0
 21 22  2  0
 22 23  1  0
 19 24  1  0
 23 24  2  0
  7 25  1  0
  4 26  1  0
 25 26  1  0
M  END
