piperidine-amides-2082-covalent
     RDKit          3D

 22 24  0  0  0  0  0  0  0  0999 V2000
    7.0530   -3.3410   19.3410 C   0  0  0  0  0  0  0  0  0  0  0  0
    6.3320   -4.1590   20.3520 C   0  0  0  0  0  0  0  0  0  0  0  0
    5.3300   -4.7550   19.9590 O   0  0  0  0  0  0  0  0  0  0  0  0
    6.8210   -4.2690   21.6590 N   0  0  0  0  0  0  0  0  0  0  0  0
    7.6780   -3.2450   22.2220 C   0  0  0  0  0  0  0  0  0  0  0  0
    7.3110   -3.0200   23.6530 C   0  0  0  0  0  0  0  0  0  0  0  0
    6.0130   -3.7730   23.9090 C   0  0  0  0  0  0  0  0  0  0  0  0
    5.4460   -3.3560   25.2060 C   0  0  0  0  0  0  0  0  0  0  0  0
    4.2170   -3.3320   25.3320 O   0  0  0  0  0  0  0  0  0  0  0  0
    6.2480   -2.9730   26.2920 N   0  0  0  0  0  0  0  0  0  0  0  0
    5.7690   -1.8540   27.0700 C   0  0  2  0  0  0  0  0  0  0  0  0
    6.7180   -0.9480   27.0000 C   0  0  0  0  0  0  0  0  0  0  0  0
    6.6090   -1.3470   28.3430 C   0  0  2  0  0  0  0  0  0  0  0  0
    5.9510   -2.4420   28.8310 C   0  0  0  0  0  0  0  0  0  0  0  0
    4.7640   -2.2590   29.4220 C   0  0  0  0  0  0  0  0  0  0  0  0
    3.7940   -3.2280   30.0490 C   0  0  0  0  0  0  0  0  0  0  0  0
    4.2780   -4.6660   29.9840 C   0  0  0  0  0  0  0  0  0  0  0  0
    3.2000   -6.0680   30.7220 Br  0  0  0  0  0  0  0  0  0  0  0  0
    5.6320   -4.9130   29.3170 C   0  0  0  0  0  0  0  0  0  0  0  0
    6.3840   -3.7370   28.7770 C   0  0  0  0  0  0  0  0  0  0  0  0
    6.1640   -5.2580   23.7560 C   0  0  0  0  0  0  0  0  0  0  0  0
    6.6740   -5.5390   22.3490 C   0  0  0  0  0  0  0  0  0  0  0  0
  1  2  1  0
  2  3  2  0
  2  4  1  0
  4  5  1  0
  5  6  1  0
  6  7  1  0
  7  8  1  0
  8  9  2  0
  8 10  1  0
 11 10  1  6
 11 12  1  0
 11 13  1  0
 12 13  1  0
 13 14  1  6
 14 15  2  0
 15 16  1  0
 16 17  2  0
 17 18  1  0
 17 19  1  0
 14 20  1  0
 19 20  2  0
  7 21  1  0
  4 22  1  0
 21 22  1  0
M  END
