piperidine-amides-23773-covalent
     RDKit          3D

 24 26  0  0  0  0  0  0  0  0999 V2000
    7.0600   -3.3590   19.3660 C   0  0  0  0  0  0  0  0  0  0  0  0
    6.4160   -4.2200   20.3700 C   0  0  0  0  0  0  0  0  0  0  0  0
    5.3980   -4.8570   19.9920 O   0  0  0  0  0  0  0  0  0  0  0  0
    6.9540   -4.3620   21.6800 N   0  0  0  0  0  0  0  0  0  0  0  0
    6.6500   -5.5370   22.4310 C   0  0  0  0  0  0  0  0  0  0  0  0
    6.1100   -5.2180   23.7400 C   0  0  0  0  0  0  0  0  0  0  0  0
    6.1210   -3.7670   23.9600 C   0  0  0  0  0  0  0  0  0  0  0  0
    5.5550   -3.3410   25.2880 C   0  0  0  0  0  0  0  0  0  0  0  0
    4.5340   -2.6370   25.2820 O   0  0  0  0  0  0  0  0  0  0  0  0
    6.0830   -3.6920   26.5430 N   0  0  0  0  0  0  0  0  0  0  0  0
    6.4250   -2.8230   27.5490 C   0  0  0  0  0  0  0  0  0  0  0  0
    6.6020   -3.5710   28.7600 C   0  0  0  0  0  0  0  0  0  0  0  0
    5.6340   -4.7430   28.5250 C   0  0  1  0  0  0  0  0  0  0  0  0
    4.3770   -4.4780   29.0320 C   0  0  0  0  0  0  0  0  0  0  0  0
    4.6070   -5.5430   30.1130 C   0  0  0  0  0  0  0  0  0  0  0  0
    5.6260   -6.5000   29.5760 C   0  0  0  0  0  0  0  0  0  0  0  0
    5.8320   -7.5520   30.6970 C   0  0  0  0  0  0  0  0  0  0  0  0
    5.2180   -7.7130   32.0820 C   0  0  0  0  0  0  0  0  0  0  0  0
    4.2060   -6.6470   32.4410 C   0  0  0  0  0  0  0  0  0  0  0  0
    3.5760   -6.6760   33.6510 F   0  0  0  0  0  0  0  0  0  0  0  0
    3.9060   -5.5550   31.4320 C   0  0  0  0  0  0  0  0  0  0  0  0
    5.6130   -4.9190   27.1350 C   0  0  0  0  0  0  0  0  0  0  0  0
    7.4410   -3.1590   23.6360 C   0  0  0  0  0  0  0  0  0  0  0  0
    7.6960   -3.2590   22.2730 C   0  0  0  0  0  0  0  0  0  0  0  0
  1  2  1  0
  2  3  2  0
  2  4  1  0
  4  5  1  0
  5  6  1  0
  6  7  1  0
  7  8  1  0
  8  9  2  0
  8 10  1  0
 10 11  1  0
 11 12  1  0
 12 13  1  0
 13 14  1  6
 14 15  1  0
 15 16  2  0
 16 17  1  0
 17 18  2  0
 18 19  1  0
 19 20  1  0
 15 21  1  0
 19 21  2  0
 10 22  1  0
 13 22  1  0
  7 23  1  0
  4 24  1  0
 23 24  1  0
M  END
