piperidine-amides-33989-covalent
     RDKit          3D

 30 31  0  0  0  0  0  0  0  0999 V2000
    7.0400   -3.2900   19.3180 C   0  0  0  0  0  0  0  0  0  0  0  0
    6.3360   -4.1420   20.2910 C   0  0  0  0  0  0  0  0  0  0  0  0
    5.3180   -4.7740   19.9500 O   0  0  0  0  0  0  0  0  0  0  0  0
    6.8050   -4.3000   21.5990 N   0  0  0  0  0  0  0  0  0  0  0  0
    6.5660   -5.5590   22.2790 C   0  0  0  0  0  0  0  0  0  0  0  0
    5.8530   -5.2800   23.6190 C   0  0  0  0  0  0  0  0  0  0  0  0
    5.9340   -3.7920   23.8830 C   0  0  0  0  0  0  0  0  0  0  0  0
    5.5340   -3.5210   25.2890 C   0  0  0  0  0  0  0  0  0  0  0  0
    4.3110   -3.4800   25.5220 O   0  0  0  0  0  0  0  0  0  0  0  0
    6.4800   -3.3140   26.3330 N   0  0  0  0  0  0  0  0  0  0  0  0
    6.6250   -1.9650   26.8710 C   0  0  0  0  0  0  0  0  0  0  0  0
    5.2840   -1.2340   26.9020 C   0  0  2  0  0  0  0  0  0  0  0  0
    5.3300   -0.4220   25.7460 O   0  0  0  0  0  0  0  0  0  0  0  0
    4.9420   -0.4650   27.9950 C   0  0  0  0  0  0  0  0  0  0  0  0
    5.7790    0.5400   28.2850 O   0  0  0  0  0  0  0  0  0  0  0  0
    6.4050    1.6650   27.9450 C   0  0  0  0  0  0  0  0  0  0  0  0
    6.4060    1.9780   26.5570 C   0  0  0  0  0  0  0  0  0  0  0  0
    7.0370    3.1110   26.1030 C   0  0  0  0  0  0  0  0  0  0  0  0
    7.6970    3.9660   27.1180 C   0  0  0  0  0  0  0  0  0  0  0  0
    8.3460    5.0880   26.7750 N   0  0  0  0  0  0  0  0  0  0  0  0
    9.6280    5.1200   26.1460 C   0  0  0  0  0  0  0  0  0  0  0  0
   10.5230    5.8470   27.0990 C   0  0  0  0  0  0  0  0  0  0  0  0
    9.9680    4.5830   24.9140 O   0  0  0  0  0  0  0  0  0  0  0  0
    7.6890    3.6570   28.4940 C   0  0  0  0  0  0  0  0  0  0  0  0
    7.0270    2.4810   28.9040 C   0  0  0  0  0  0  0  0  0  0  0  0
    6.7060   -4.4340   27.2570 C   0  0  0  0  0  0  0  0  0  0  0  0
    5.4410   -5.1630   27.5840 C   0  0  0  0  0  0  0  0  0  0  0  0
    7.5980   -5.5510   26.7400 C   0  0  0  0  0  0  0  0  0  0  0  0
    7.2400   -3.1700   23.5650 C   0  0  0  0  0  0  0  0  0  0  0  0
    7.5070   -3.2060   22.2230 C   0  0  0  0  0  0  0  0  0  0  0  0
  1  2  1  0
  2  3  2  0
  2  4  1  0
  4  5  1  0
  5  6  1  0
  6  7  1  0
  7  8  1  0
  8  9  2  0
  8 10  1  0
 10 11  1  0
 11 12  1  0
 12 13  1  6
 12 14  1  0
 14 15  1  0
 15 16  1  0
 16 17  2  0
 17 18  1  0
 18 19  2  0
 19 20  1  0
 20 21  1  0
 21 22  1  0
 21 23  2  0
 19 24  1  0
 16 25  1  0
 24 25  2  0
 10 26  1  0
 26 27  1  0
 26 28  1  0
  7 29  1  0
  4 30  1  0
 29 30  1  0
M  END
