piperidine-amides-17071-covalent
     RDKit          3D

 20 21  0  0  0  0  0  0  0  0999 V2000
    7.1510   -3.3270   19.2750 C   0  0  0  0  0  0  0  0  0  0  0  0
    6.3790   -4.0880   20.2610 C   0  0  0  0  0  0  0  0  0  0  0  0
    5.2790   -4.5640   19.8920 O   0  0  0  0  0  0  0  0  0  0  0  0
    6.9070   -4.3300   21.5480 N   0  0  0  0  0  0  0  0  0  0  0  0
    7.6020   -3.2630   22.1780 C   0  0  0  0  0  0  0  0  0  0  0  0
    7.1380   -2.8980   23.5110 C   0  0  0  0  0  0  0  0  0  0  0  0
    6.4600   -3.9580   24.2960 C   0  0  0  0  0  0  0  0  0  0  0  0
    5.6590   -3.3730   25.4190 C   0  0  0  0  0  0  0  0  0  0  0  0
    4.4320   -3.2040   25.2590 O   0  0  0  0  0  0  0  0  0  0  0  0
    6.2380   -2.9980   26.6410 N   0  0  0  0  0  0  0  0  0  0  0  0
    6.1350   -3.7140   27.8570 C   0  0  0  0  0  0  0  0  0  0  0  0
    5.8430   -5.1400   27.8570 C   0  0  0  0  0  0  0  0  0  0  0  0
    5.9040   -5.7980   26.7740 O   0  0  0  0  0  0  0  0  0  0  0  0
    5.4750   -5.8170   29.0000 O   0  0  0  0  0  0  0  0  0  0  0  0
    6.1730   -6.9730   29.4090 C   0  0  0  0  0  0  0  0  0  0  0  0
    6.7480   -1.6610   26.7180 C   0  0  0  0  0  0  0  0  0  0  0  0
    6.7570   -1.0650   28.0200 C   0  0  0  0  0  0  0  0  0  0  0  0
    5.7420   -0.5280   26.9200 C   0  0  0  0  0  0  0  0  0  0  0  0
    5.5700   -4.8410   23.4280 C   0  0  0  0  0  0  0  0  0  0  0  0
    6.4690   -5.4210   22.3740 C   0  0  0  0  0  0  0  0  0  0  0  0
  1  2  1  0
  2  3  2  0
  2  4  1  0
  4  5  1  0
  5  6  1  0
  6  7  1  0
  7  8  1  0
  8  9  2  0
  8 10  1  0
 10 11  1  0
 11 12  1  0
 12 13  2  0
 12 14  1  0
 14 15  1  0
 10 16  1  0
 16 17  1  0
 16 18  1  0
 17 18  1  0
  7 19  1  0
  4 20  1  0
 19 20  1  0
M  END
