piperidine-amides-11433-covalent
     RDKit          3D

 22 23  0  0  0  0  0  0  0  0999 V2000
    7.1350   -3.2710   19.1760 C   0  0  0  0  0  0  0  0  0  0  0  0
    6.3790   -3.9890   20.2000 C   0  0  0  0  0  0  0  0  0  0  0  0
    5.3140   -4.5580   19.8920 O   0  0  0  0  0  0  0  0  0  0  0  0
    6.8730   -4.0880   21.5050 N   0  0  0  0  0  0  0  0  0  0  0  0
    7.7740   -3.1020   22.0590 C   0  0  0  0  0  0  0  0  0  0  0  0
    7.0650   -2.5660   23.2600 C   0  0  0  0  0  0  0  0  0  0  0  0
    6.6630   -3.6610   24.1910 C   0  0  0  0  0  0  0  0  0  0  0  0
    5.8880   -3.1440   25.3460 C   0  0  0  0  0  0  0  0  0  0  0  0
    4.6520   -2.9050   25.2170 O   0  0  0  0  0  0  0  0  0  0  0  0
    6.4630   -2.8880   26.6120 N   0  0  0  0  0  0  0  0  0  0  0  0
    6.1330   -3.7660   27.7600 C   0  0  0  0  0  0  0  0  0  0  0  0
    5.4510   -4.9470   27.1860 C   0  0  2  0  0  0  0  0  0  0  0  0
    4.0270   -4.7670   26.8230 C   0  0  0  0  0  0  0  0  0  0  0  0
    3.6780   -3.4580   27.0640 F   0  0  0  0  0  0  0  0  0  0  0  0
    3.6930   -5.0970   25.5090 F   0  0  0  0  0  0  0  0  0  0  0  0
    5.4250   -5.8960   28.1140 N   0  0  0  0  0  0  0  0  0  0  0  0
    4.6210   -7.0910   28.0160 C   0  0  0  0  0  0  0  0  0  0  0  0
    4.9220   -7.7970   29.2650 C   0  0  0  0  0  0  0  0  0  0  0  0
    5.9100   -6.8960   29.9640 C   0  0  0  0  0  0  0  0  0  0  0  0
    6.1590   -5.7700   29.1990 N   0  0  0  0  0  0  0  0  0  0  0  0
    5.8670   -4.7310   23.4550 C   0  0  0  0  0  0  0  0  0  0  0  0
    6.5160   -5.2230   22.3130 C   0  0  0  0  0  0  0  0  0  0  0  0
  1  2  1  0
  2  3  2  0
  2  4  1  0
  4  5  1  0
  5  6  1  0
  6  7  1  0
  7  8  1  0
  8  9  2  0
  8 10  1  0
 10 11  1  0
 12 11  1  1
 12 13  1  0
 13 14  1  0
 13 15  1  0
 12 16  1  0
 16 17  1  0
 17 18  2  0
 18 19  1  0
 16 20  1  0
 19 20  2  0
  7 21  1  0
  4 22  1  0
 21 22  1  0
M  END
