piperidine-amides-34244-covalent
     RDKit          3D

 31 34  0  0  0  0  0  0  0  0999 V2000
    7.0000   -3.3410   19.3660 C   0  0  0  0  0  0  0  0  0  0  0  0
    6.3480   -4.2130   20.3570 C   0  0  0  0  0  0  0  0  0  0  0  0
    5.3830   -4.9210   19.9980 O   0  0  0  0  0  0  0  0  0  0  0  0
    6.8120   -4.3040   21.6880 N   0  0  0  0  0  0  0  0  0  0  0  0
    7.5580   -3.2060   22.2800 C   0  0  0  0  0  0  0  0  0  0  0  0
    7.2020   -3.0810   23.7800 C   0  0  0  0  0  0  0  0  0  0  0  0
    5.8760   -3.7740   23.9980 C   0  0  0  0  0  0  0  0  0  0  0  0
    5.1560   -3.4080   25.2620 C   0  0  0  0  0  0  0  0  0  0  0  0
    3.9310   -3.2220   25.1480 O   0  0  0  0  0  0  0  0  0  0  0  0
    5.7670   -3.2820   26.5440 N   0  0  0  0  0  0  0  0  0  0  0  0
    6.7050   -4.2790   26.9760 C   0  0  0  0  0  0  0  0  0  0  0  0
    6.1530   -5.3410   27.9000 C   0  0  0  0  0  0  0  0  0  0  0  0
    6.8590   -6.2600   28.6120 C   0  0  0  0  0  0  0  0  0  0  0  0
    6.0160   -7.0120   29.3030 C   0  0  0  0  0  0  0  0  0  0  0  0
    4.7440   -6.5910   29.0510 C   0  0  0  0  0  0  0  0  0  0  0  0
    3.6440   -7.1810   29.6290 C   0  0  0  0  0  0  0  0  0  0  0  0
    3.7190   -7.8210   30.8220 O   0  0  0  0  0  0  0  0  0  0  0  0
    4.7160   -5.5060   28.1510 O   0  0  0  0  0  0  0  0  0  0  0  0
    6.0760   -1.9180   27.0380 C   0  0  2  0  0  0  0  0  0  0  0  0
    7.2160   -1.5200   26.2220 C   0  0  0  0  0  0  0  0  0  0  0  0
    6.2460   -1.9510   28.4930 C   0  0  0  0  0  0  0  0  0  0  0  0
    7.1010   -0.8320   28.8320 C   0  0  0  0  0  0  0  0  0  0  0  0
    6.3630    0.3480   28.6540 C   0  0  0  0  0  0  0  0  0  0  0  0
    5.4110    0.3850   27.6700 C   0  0  0  0  0  0  0  0  0  0  0  0
    4.5780    1.6260   27.5030 C   0  0  0  0  0  0  0  0  0  0  0  0
    3.5610    1.6320   26.4350 C   0  0  0  0  0  0  0  0  0  0  0  0
    3.4170    0.4040   25.5790 C   0  0  0  0  0  0  0  0  0  0  0  0
    4.2220   -0.6980   25.7950 C   0  0  0  0  0  0  0  0  0  0  0  0
    5.1930   -0.7510   26.7900 C   0  0  0  0  0  0  0  0  0  0  0  0
    6.0930   -5.2550   23.8010 C   0  0  0  0  0  0  0  0  0  0  0  0
    6.6060   -5.5070   22.4340 C   0  0  0  0  0  0  0  0  0  0  0  0
  1  2  1  0
  2  3  2  0
  2  4  1  0
  4  5  1  0
  5  6  1  0
  6  7  1  0
  7  8  1  0
  8  9  2  0
  8 10  1  0
 10 11  1  0
 11 12  1  0
 12 13  2  0
 13 14  1  0
 14 15  2  0
 15 16  1  0
 16 17  1  0
 12 18  1  0
 15 18  1  0
 19 10  1  0
 19 20  1  6
 19 21  1  0
 21 22  1  0
 22 23  1  0
 23 24  1  0
 24 25  2  0
 25 26  1  0
 26 27  2  0
 27 28  1  0
 19 29  1  0
 24 29  1  0
 28 29  2  0
  7 30  1  0
  4 31  1  0
 30 31  1  0
M  END
