piperidine-amides-25560-covalent
     RDKit          3D

 25 27  0  0  0  0  0  0  0  0999 V2000
    7.0570   -3.3290   19.3230 C   0  0  0  0  0  0  0  0  0  0  0  0
    6.3890   -4.2000   20.3270 C   0  0  0  0  0  0  0  0  0  0  0  0
    5.3750   -4.8000   19.9690 O   0  0  0  0  0  0  0  0  0  0  0  0
    6.9400   -4.3470   21.6040 N   0  0  0  0  0  0  0  0  0  0  0  0
    6.6460   -5.4840   22.4340 C   0  0  0  0  0  0  0  0  0  0  0  0
    5.9420   -5.0170   23.6820 C   0  0  0  0  0  0  0  0  0  0  0  0
    6.6280   -3.7650   24.2530 C   0  0  0  0  0  0  0  0  0  0  0  0
    5.7570   -3.1620   25.2860 C   0  0  0  0  0  0  0  0  0  0  0  0
    5.1150   -2.1410   25.0140 O   0  0  0  0  0  0  0  0  0  0  0  0
    5.5890   -3.7260   26.5670 N   0  0  0  0  0  0  0  0  0  0  0  0
    6.3670   -3.3130   27.6720 C   0  0  0  0  0  0  0  0  0  0  0  0
    6.6090   -4.6150   28.4250 C   0  0  0  0  0  0  0  0  0  0  0  0
    5.6950   -5.1300   29.2980 C   0  0  0  0  0  0  0  0  0  0  0  0
    5.7850   -6.4240   29.7130 C   0  0  0  0  0  0  0  0  0  0  0  0
    4.5640   -6.9760   30.0270 C   0  0  0  0  0  0  0  0  0  0  0  0
    4.2060   -7.5980   31.3680 C   0  0  0  0  0  0  0  0  0  0  0  0
    5.5050   -7.6820   32.0630 C   0  0  0  0  0  0  0  0  0  0  0  0
    5.4310   -8.2810   33.4590 C   0  0  0  0  0  0  0  0  0  0  0  0
    4.0760   -8.7210   33.9810 C   0  0  0  0  0  0  0  0  0  0  0  0
    2.8880   -8.5900   33.2150 N   0  0  0  0  0  0  0  0  0  0  0  0
    2.9390   -8.0370   31.9220 C   0  0  0  0  0  0  0  0  0  0  0  0
    4.5740   -5.1230   28.2990 C   0  0  0  0  0  0  0  0  0  0  0  0
    4.4440   -4.0230   27.3210 C   0  0  0  0  0  0  0  0  0  0  0  0
    6.8710   -2.7260   23.1800 C   0  0  0  0  0  0  0  0  0  0  0  0
    7.6860   -3.2610   22.2200 C   0  0  0  0  0  0  0  0  0  0  0  0
  1  2  1  0
  2  3  2  0
  2  4  1  0
  4  5  1  0
  5  6  1  0
  6  7  1  0
  7  8  1  0
  8  9  2  0
  8 10  1  0
 10 11  1  0
 11 12  1  0
 12 13  1  0
 13 14  1  0
 14 15  1  0
 15 16  1  0
 16 17  2  0
 17 18  1  0
 18 19  2  0
 19 20  1  0
 16 21  1  0
 20 21  2  0
 13 22  1  0
 10 23  1  0
 22 23  1  0
  7 24  1  0
  4 25  1  0
 24 25  1  0
M  END
