piperidine-amides-10618-covalent
     RDKit          3D

 23 24  0  0  0  0  0  0  0  0999 V2000
    7.0310   -3.2080   19.2040 C   0  0  0  0  0  0  0  0  0  0  0  0
    6.2340   -3.8970   20.2310 C   0  0  0  0  0  0  0  0  0  0  0  0
    5.1920   -4.4720   19.8310 O   0  0  0  0  0  0  0  0  0  0  0  0
    6.6150   -3.9520   21.5740 N   0  0  0  0  0  0  0  0  0  0  0  0
    6.2790   -5.1120   22.3410 C   0  0  0  0  0  0  0  0  0  0  0  0
    5.4400   -4.6580   23.5080 C   0  0  0  0  0  0  0  0  0  0  0  0
    5.6830   -3.2050   23.8990 C   0  0  0  0  0  0  0  0  0  0  0  0
    5.3670   -3.0230   25.3740 C   0  0  0  0  0  0  0  0  0  0  0  0
    4.2060   -3.3360   25.7150 O   0  0  0  0  0  0  0  0  0  0  0  0
    6.2270   -2.5220   26.4100 N   0  0  0  0  0  0  0  0  0  0  0  0
    6.3850   -3.1760   27.7300 C   0  0  1  0  0  0  0  0  0  0  0  0
    5.7320   -4.5670   27.7860 C   0  0  0  0  0  0  0  0  0  0  0  0
    6.3640   -5.6910   28.2780 C   0  0  0  0  0  0  0  0  0  0  0  0
    7.8480   -3.3990   27.9240 C   0  0  0  0  0  0  0  0  0  0  0  0
    8.0260   -4.2430   26.9130 C   0  0  0  0  0  0  0  0  0  0  0  0
    7.2270   -4.0370   25.8440 C   0  0  0  0  0  0  0  0  0  0  0  0
    7.1810   -4.7470   24.7140 C   0  0  0  0  0  0  0  0  0  0  0  0
    8.0220   -5.9090   24.4280 C   0  0  0  0  0  0  0  0  0  0  0  0
    7.9450   -6.6210   23.2720 F   0  0  0  0  0  0  0  0  0  0  0  0
    8.9240   -6.0820   25.6760 C   0  0  0  0  0  0  0  0  0  0  0  0
    8.9060   -5.2580   26.8920 C   0  0  0  0  0  0  0  0  0  0  0  0
    7.0700   -2.6870   23.5290 C   0  0  0  0  0  0  0  0  0  0  0  0
    7.4900   -2.9560   22.2210 C   0  0  0  0  0  0  0  0  0  0  0  0
  1  2  1  0
  2  3  2  0
  2  4  1  0
  4  5  1  0
  5  6  1  0
  6  7  1  0
  7  8  1  0
  8  9  2  0
  8 10  1  0
 10 11  1  0
 11 12  1  6
 12 13  1  0
 11 14  1  0
 14 15  1  0
 15 16  2  0
 16 17  1  0
 17 18  2  0
 18 19  1  0
 18 20  1  0
 15 21  1  0
 20 21  2  0
  7 22  1  0
  4 23  1  0
 22 23  1  0
M  END
