piperidine-amides-21579-covalent
     RDKit          3D

 23 24  0  0  0  0  0  0  0  0999 V2000
    7.1090   -3.2810   19.2320 C   0  0  0  0  0  0  0  0  0  0  0  0
    6.3140   -3.9970   20.2290 C   0  0  0  0  0  0  0  0  0  0  0  0
    5.2180   -4.4770   19.8450 O   0  0  0  0  0  0  0  0  0  0  0  0
    6.8000   -4.1740   21.5170 N   0  0  0  0  0  0  0  0  0  0  0  0
    6.5240   -5.3820   22.2460 C   0  0  0  0  0  0  0  0  0  0  0  0
    5.8400   -4.9860   23.5250 C   0  0  0  0  0  0  0  0  0  0  0  0
    6.5640   -3.8500   24.1950 C   0  0  0  0  0  0  0  0  0  0  0  0
    5.7880   -3.3650   25.3630 C   0  0  0  0  0  0  0  0  0  0  0  0
    4.5650   -3.1560   25.2050 O   0  0  0  0  0  0  0  0  0  0  0  0
    6.3490   -3.1180   26.6350 N   0  0  0  0  0  0  0  0  0  0  0  0
    6.7050   -1.7550   26.9580 C   0  0  0  0  0  0  0  0  0  0  0  0
    6.1780   -4.1040   27.6990 C   0  0  0  0  0  0  0  0  0  0  0  0
    6.0130   -5.3880   27.2050 C   0  0  0  0  0  0  0  0  0  0  0  0
    4.7920   -6.0330   27.5260 O   0  0  0  0  0  0  0  0  0  0  0  0
    4.5800   -6.6080   28.7230 C   0  0  0  0  0  0  0  0  0  0  0  0
    5.6410   -6.7150   29.6280 C   0  0  0  0  0  0  0  0  0  0  0  0
    5.5230   -7.2800   30.8800 C   0  0  0  0  0  0  0  0  0  0  0  0
    4.3340   -7.7740   31.3040 C   0  0  0  0  0  0  0  0  0  0  0  0
    3.1650   -7.6940   30.3770 C   0  0  0  0  0  0  0  0  0  0  0  0
    1.9410   -8.3140   31.0470 C   0  0  0  0  0  0  0  0  0  0  0  0
    3.3480   -7.1140   29.1320 C   0  0  0  0  0  0  0  0  0  0  0  0
    6.8010   -2.6980   23.2630 C   0  0  0  0  0  0  0  0  0  0  0  0
    7.5730   -3.1410   22.2130 C   0  0  0  0  0  0  0  0  0  0  0  0
  1  2  1  0
  2  3  2  0
  2  4  1  0
  4  5  1  0
  5  6  1  0
  6  7  1  0
  7  8  1  0
  8  9  2  0
  8 10  1  0
 10 11  1  0
 10 12  1  0
 12 13  1  0
 13 14  1  0
 14 15  1  0
 15 16  2  0
 16 17  1  0
 17 18  2  0
 18 19  1  0
 19 20  1  0
 15 21  1  0
 19 21  2  0
  7 22  1  0
  4 23  1  0
 22 23  1  0
M  END
