piperidine-amides-10022-covalent
     RDKit          3D

 26 28  0  0  0  0  0  0  0  0999 V2000
    7.0190   -3.2360   19.2210 C   0  0  0  0  0  0  0  0  0  0  0  0
    6.2870   -4.0160   20.2330 C   0  0  0  0  0  0  0  0  0  0  0  0
    5.2140   -4.5420   19.8630 O   0  0  0  0  0  0  0  0  0  0  0  0
    6.7830   -4.1960   21.5200 N   0  0  0  0  0  0  0  0  0  0  0  0
    6.6630   -5.4720   22.1720 C   0  0  0  0  0  0  0  0  0  0  0  0
    6.0680   -5.2360   23.5310 C   0  0  0  0  0  0  0  0  0  0  0  0
    5.9620   -3.7710   23.8630 C   0  0  0  0  0  0  0  0  0  0  0  0
    5.6060   -3.6080   25.2890 C   0  0  0  0  0  0  0  0  0  0  0  0
    4.5640   -2.9790   25.5720 O   0  0  0  0  0  0  0  0  0  0  0  0
    6.3930   -4.1390   26.3320 N   0  0  0  0  0  0  0  0  0  0  0  0
    7.7810   -3.8070   26.4070 C   0  0  0  0  0  0  0  0  0  0  0  0
    7.9570   -2.3460   26.0160 C   0  0  0  0  0  0  0  0  0  0  0  0
    6.9530   -1.4130   26.2300 C   0  0  0  0  0  0  0  0  0  0  0  0
    7.0700   -0.0830   25.9030 C   0  0  0  0  0  0  0  0  0  0  0  0
    8.2440    0.3390   25.3350 C   0  0  0  0  0  0  0  0  0  0  0  0
    9.2530   -0.5630   25.1100 C   0  0  0  0  0  0  0  0  0  0  0  0
    9.1340   -1.8960   25.4380 C   0  0  0  0  0  0  0  0  0  0  0  0
   10.3010   -2.8180   25.1540 C   0  0  0  0  0  0  0  0  0  0  0  0
   11.3950   -2.2740   24.4100 N   0  0  0  0  0  0  0  0  0  0  0  0
   12.7530   -2.5490   24.7670 C   0  0  0  0  0  0  0  0  0  0  0  0
   13.4740   -2.2720   23.5010 C   0  0  0  0  0  0  0  0  0  0  0  0
   12.4900   -1.8290   22.4840 C   0  0  2  0  0  0  0  0  0  0  0  0
   12.5610   -0.6230   22.1690 O   0  0  0  0  0  0  0  0  0  0  0  0
   11.2270   -2.0620   22.9890 C   0  0  0  0  0  0  0  0  0  0  0  0
    7.3010   -3.1000   23.5870 C   0  0  0  0  0  0  0  0  0  0  0  0
    7.7080   -3.2680   22.1310 C   0  0  0  0  0  0  0  0  0  0  0  0
  1  2  1  0
  2  3  2  0
  2  4  1  0
  4  5  1  0
  5  6  1  0
  6  7  1  0
  7  8  1  0
  8  9  2  0
  8 10  1  0
 10 11  1  0
 11 12  1  0
 12 13  2  0
 13 14  1  0
 14 15  2  0
 15 16  1  0
 12 17  1  0
 16 17  2  0
 17 18  1  0
 18 19  1  0
 19 20  1  0
 20 21  1  0
 21 22  1  0
 22 23  1  1
 19 24  1  0
 22 24  1  0
  7 25  1  0
  4 26  1  0
 25 26  1  0
M  END
