piperidine-amides-35579-covalent
     RDKit          3D

 37 40  0  0  0  0  0  0  0  0999 V2000
    7.0790   -3.2570   19.2250 C   0  0  0  0  0  0  0  0  0  0  0  0
    6.3270   -4.0430   20.2390 C   0  0  0  0  0  0  0  0  0  0  0  0
    5.2590   -4.5250   19.8730 O   0  0  0  0  0  0  0  0  0  0  0  0
    6.8360   -4.2730   21.5230 N   0  0  0  0  0  0  0  0  0  0  0  0
    7.6000   -3.2840   22.2460 C   0  0  0  0  0  0  0  0  0  0  0  0
    6.8810   -2.8750   23.5080 C   0  0  0  0  0  0  0  0  0  0  0  0
    6.3070   -4.0930   24.2500 C   0  0  0  0  0  0  0  0  0  0  0  0
    5.6850   -3.6150   25.5100 C   0  0  0  0  0  0  0  0  0  0  0  0
    4.4480   -3.5660   25.5790 O   0  0  0  0  0  0  0  0  0  0  0  0
    6.4610   -3.1850   26.6180 N   0  0  0  0  0  0  0  0  0  0  0  0
    6.3990   -3.8580   27.9220 C   0  0  0  0  0  0  0  0  0  0  0  0
    5.8710   -5.2800   27.8160 C   0  0  0  0  0  0  0  0  0  0  0  0
    4.8570   -5.7450   28.6560 C   0  0  0  0  0  0  0  0  0  0  0  0
    5.2250   -6.4320   29.7830 C   0  0  0  0  0  0  0  0  0  0  0  0
    5.0170   -6.2780   31.0850 C   0  0  0  0  0  0  0  0  0  0  0  0
    5.5720   -7.2180   32.1300 C   0  0  0  0  0  0  0  0  0  0  0  0
    6.3990   -8.3690   31.5650 C   0  0  0  0  0  0  0  0  0  0  0  0
    6.6920   -8.6330   30.0590 C   0  0  0  0  0  0  0  0  0  0  0  0
    7.6710  -10.0660   29.8110 C   0  0  0  0  0  0  0  0  0  0  0  0
    8.9750  -10.3180   29.6410 F   0  0  0  0  0  0  0  0  0  0  0  0
    7.4490  -11.0770   30.7260 F   0  0  0  0  0  0  0  0  0  0  0  0
    7.6860  -10.7550   28.8050 F   0  0  0  0  0  0  0  0  0  0  0  0
    6.0120   -7.5410   29.1650 C   0  0  0  0  0  0  0  0  0  0  0  0
    6.5650   -1.7580   26.9870 C   0  0  1  0  0  0  0  0  0  0  0  0
    6.0630   -0.8680   25.9090 C   0  0  0  0  0  0  0  0  0  0  0  0
    6.2150   -1.3580   28.2740 C   0  0  0  0  0  0  0  0  0  0  0  0
    4.8860   -1.3780   28.6130 C   0  0  0  0  0  0  0  0  0  0  0  0
    4.4020   -0.9650   29.9700 C   0  0  0  0  0  0  0  0  0  0  0  0
    5.4140   -0.5000   31.0150 C   0  0  0  0  0  0  0  0  0  0  0  0
    4.9600   -0.0690   32.4070 C   0  0  0  0  0  0  0  0  0  0  0  0
    5.8600    0.3490   33.3470 C   0  0  0  0  0  0  0  0  0  0  0  0
    7.3400    0.3720   32.9560 C   0  0  0  0  0  0  0  0  0  0  0  0
    7.8010   -0.0450   31.6010 C   0  0  0  0  0  0  0  0  0  0  0  0
    6.7260   -0.4970   30.6250 C   0  0  0  0  0  0  0  0  0  0  0  0
    7.1300   -0.9390   29.2270 C   0  0  0  0  0  0  0  0  0  0  0  0
    5.4620   -4.9170   23.3490 C   0  0  0  0  0  0  0  0  0  0  0  0
    6.3740   -5.4240   22.2380 C   0  0  0  0  0  0  0  0  0  0  0  0
  1  2  1  0
  2  3  2  0
  2  4  1  0
  4  5  1  0
  5  6  1  0
  6  7  1  0
  7  8  1  0
  8  9  2  0
  8 10  1  0
 10 11  1  0
 11 12  1  0
 12 13  1  0
 13 14  1  0
 14 15  2  0
 15 16  1  0
 16 17  2  0
 17 18  1  0
 18 19  1  0
 19 20  1  0
 19 21  1  0
 19 22  1  0
 14 23  1  0
 18 23  2  0
 10 24  1  0
 24 25  1  6
 24 26  1  0
 26 27  2  0
 27 28  1  0
 28 29  2  0
 29 30  1  0
 30 31  2  0
 31 32  1  0
 32 33  2  0
 29 34  1  0
 33 34  1  0
 26 35  1  0
 34 35  2  0
  7 36  1  0
  4 37  1  0
 36 37  1  0
M  END
