piperidine-amides-24361-covalent
     RDKit          3D

 24 25  0  0  0  0  0  0  0  0999 V2000
    7.1440   -3.2590   19.2220 C   0  0  0  0  0  0  0  0  0  0  0  0
    6.3770   -4.0390   20.2030 C   0  0  0  0  0  0  0  0  0  0  0  0
    5.2960   -4.5850   19.8930 O   0  0  0  0  0  0  0  0  0  0  0  0
    6.8890   -4.2150   21.4840 N   0  0  0  0  0  0  0  0  0  0  0  0
    7.6910   -3.1460   22.0350 C   0  0  0  0  0  0  0  0  0  0  0  0
    7.3690   -3.0710   23.5210 C   0  0  0  0  0  0  0  0  0  0  0  0
    5.9460   -3.5580   23.6740 C   0  0  0  0  0  0  0  0  0  0  0  0
    5.5140   -3.2630   25.0370 C   0  0  0  0  0  0  0  0  0  0  0  0
    4.3060   -3.3530   25.3420 O   0  0  0  0  0  0  0  0  0  0  0  0
    6.5060   -2.8690   25.9400 N   0  0  0  0  0  0  0  0  0  0  0  0
    6.7390   -3.5640   27.1730 C   0  0  0  0  0  0  0  0  0  0  0  0
    6.0160   -4.8890   27.0650 C   0  0  0  0  0  0  0  0  0  0  0  0
    5.9830   -5.4620   28.3760 N   0  0  0  0  0  0  0  0  0  0  0  0
    5.1390   -4.9800   29.4480 C   0  0  0  0  0  0  0  0  0  0  0  0
    7.1630   -6.0850   28.7360 C   0  0  0  0  0  0  0  0  0  0  0  0
    7.0610   -1.6150   26.3920 C   0  0  0  0  0  0  0  0  0  0  0  0
    8.3400   -1.8770   25.9700 C   0  0  0  0  0  0  0  0  0  0  0  0
    9.2970   -0.7110   25.4420 C   0  0  0  0  0  0  0  0  0  0  0  0
   10.4170   -1.6710   25.1860 C   0  0  0  0  0  0  0  0  0  0  0  0
   10.0050   -2.9720   25.5380 C   0  0  0  0  0  0  0  0  0  0  0  0
   11.2290   -3.6730   25.2000 C   0  0  0  0  0  0  0  0  0  0  0  0
    8.8670   -3.1730   25.9820 O   0  0  0  0  0  0  0  0  0  0  0  0
    5.9120   -5.0370   23.4310 C   0  0  0  0  0  0  0  0  0  0  0  0
    6.4820   -5.3560   22.2410 C   0  0  0  0  0  0  0  0  0  0  0  0
  1  2  1  0
  2  3  2  0
  2  4  1  0
  4  5  1  0
  5  6  1  0
  6  7  1  0
  7  8  1  0
  8  9  2  0
  8 10  1  0
 10 11  1  0
 11 12  1  0
 12 13  1  0
 13 14  1  0
 13 15  1  0
 10 16  1  0
 16 17  1  0
 17 18  2  0
 18 19  1  0
 19 20  2  0
 20 21  1  0
 17 22  1  0
 20 22  1  0
  7 23  1  0
  4 24  1  0
 23 24  1  0
M  END
