piperidine-amides-31787-covalent
     RDKit          3D

 28 30  0  0  0  0  0  0  0  0999 V2000
    6.9820   -3.4210   19.3730 C   0  0  0  0  0  0  0  0  0  0  0  0
    6.3660   -4.2370   20.3980 C   0  0  0  0  0  0  0  0  0  0  0  0
    5.4110   -4.9820   20.0170 O   0  0  0  0  0  0  0  0  0  0  0  0
    6.7950   -4.2800   21.7540 N   0  0  0  0  0  0  0  0  0  0  0  0
    6.5340   -5.5150   22.5220 C   0  0  0  0  0  0  0  0  0  0  0  0
    5.4680   -4.9630   23.5520 C   0  0  0  0  0  0  0  0  0  0  0  0
    6.2190   -4.0130   24.4610 C   0  0  0  0  0  0  0  0  0  0  0  0
    5.2240   -2.9570   25.1850 C   0  0  0  0  0  0  0  0  0  0  0  0
    4.6330   -2.3480   24.3210 O   0  0  0  0  0  0  0  0  0  0  0  0
    5.2220   -2.9580   26.4930 N   0  0  0  0  0  0  0  0  0  0  0  0
    4.7990   -2.7380   27.7690 C   0  0  0  0  0  0  0  0  0  0  0  0
    5.3270   -2.9260   29.0220 C   0  0  0  0  0  0  0  0  0  0  0  0
    5.9430   -4.2230   28.9620 N   0  0  0  0  0  0  0  0  0  0  0  0
    5.3640   -5.3050   29.4630 C   0  0  0  0  0  0  0  0  0  0  0  0
    6.0780   -6.5530   29.2080 C   0  0  0  0  0  0  0  0  0  0  0  0
    5.4000   -7.7860   29.7740 C   0  0  0  0  0  0  0  0  0  0  0  0
    4.1890   -7.6270   30.4750 C   0  0  0  0  0  0  0  0  0  0  0  0
    3.3260   -6.5820   30.8520 C   0  0  0  0  0  0  0  0  0  0  0  0
    4.0880   -5.4150   30.2410 C   0  0  0  0  0  0  0  0  0  0  0  0
    3.4400   -4.3740   30.4860 O   0  0  0  0  0  0  0  0  0  0  0  0
    2.9310   -4.4250   31.7820 C   0  0  0  0  0  0  0  0  0  0  0  0
    2.9120   -3.1200   32.2100 C   0  0  0  0  0  0  0  0  0  0  0  0
    1.7970   -2.6010   32.8120 O   0  0  0  0  0  0  0  0  0  0  0  0
    0.5260   -3.1390   32.5530 C   0  0  0  0  0  0  0  0  0  0  0  0
    6.1430   -4.6110   27.6300 C   0  0  0  0  0  0  0  0  0  0  0  0
    6.4560   -3.4570   26.9030 C   0  0  0  0  0  0  0  0  0  0  0  0
    7.4540   -3.3640   23.8840 C   0  0  0  0  0  0  0  0  0  0  0  0
    7.4230   -3.1380   22.3870 C   0  0  0  0  0  0  0  0  0  0  0  0
  1  2  1  0
  2  3  2  0
  2  4  1  0
  4  5  1  0
  5  6  1  0
  6  7  1  0
  7  8  1  0
  8  9  2  0
  8 10  1  0
 10 11  1  0
 11 12  1  0
 12 13  1  0
 13 14  1  0
 14 15  2  0
 15 16  1  0
 16 17  2  0
 17 18  1  0
 14 19  1  0
 18 19  2  0
 19 20  1  0
 20 21  1  0
 21 22  1  0
 22 23  1  0
 23 24  1  0
 13 25  1  0
 10 26  1  0
 25 26  1  0
  7 27  1  0
  4 28  1  0
 27 28  1  0
M  END
