piperidine-amides-4456-covalent
     RDKit          3D

 25 27  0  0  0  0  0  0  0  0999 V2000
    7.1170   -3.3110   19.2660 C   0  0  0  0  0  0  0  0  0  0  0  0
    6.4150   -4.1210   20.2730 C   0  0  0  0  0  0  0  0  0  0  0  0
    5.3380   -4.6610   19.9290 O   0  0  0  0  0  0  0  0  0  0  0  0
    6.9810   -4.3270   21.5550 N   0  0  0  0  0  0  0  0  0  0  0  0
    6.4530   -5.3770   22.3490 C   0  0  0  0  0  0  0  0  0  0  0  0
    5.9080   -4.9440   23.6380 C   0  0  0  0  0  0  0  0  0  0  0  0
    6.5690   -3.7630   24.2410 C   0  0  0  0  0  0  0  0  0  0  0  0
    5.8110   -3.2420   25.4170 C   0  0  0  0  0  0  0  0  0  0  0  0
    4.5690   -3.1470   25.3610 O   0  0  0  0  0  0  0  0  0  0  0  0
    6.4900   -2.8550   26.5810 N   0  0  0  0  0  0  0  0  0  0  0  0
    6.4250   -1.6410   27.2960 C   0  0  0  0  0  0  0  0  0  0  0  0
    7.0810   -1.3530   28.5680 C   0  0  0  0  0  0  0  0  0  0  0  0
    6.9100    0.0270   29.2510 C   0  0  0  0  0  0  0  0  0  0  0  0
    6.1360    1.0520   28.7060 C   0  0  0  0  0  0  0  0  0  0  0  0
    5.5230    0.6020   27.3870 C   0  0  0  0  0  0  0  0  0  0  0  0
    4.5760    1.9200   26.8190 S   0  0  0  0  0  0  0  0  0  0  0  0
    5.6190    3.2450   26.7100 C   0  0  0  0  0  0  0  0  0  0  0  0
    7.0540    2.9570   27.1050 C   0  0  0  0  0  0  0  0  0  0  0  0
    8.1700    3.9630   27.0940 C   0  0  0  0  0  0  0  0  0  0  0  0
    7.7570    5.3530   26.6450 C   0  0  0  0  0  0  0  0  0  0  0  0
    6.3070    5.6840   26.2370 C   0  0  0  0  0  0  0  0  0  0  0  0
    5.3450    4.5410   26.3170 C   0  0  0  0  0  0  0  0  0  0  0  0
    5.6150   -0.5730   26.7090 C   0  0  0  0  0  0  0  0  0  0  0  0
    6.9350   -2.6850   23.2990 C   0  0  0  0  0  0  0  0  0  0  0  0
    7.7160   -3.2440   22.1510 C   0  0  0  0  0  0  0  0  0  0  0  0
  1  2  1  0
  2  3  2  0
  2  4  1  0
  4  5  1  0
  5  6  1  0
  6  7  1  0
  7  8  1  0
  8  9  2  0
  8 10  1  0
 10 11  1  0
 11 12  2  0
 12 13  1  0
 13 14  2  0
 14 15  1  0
 15 16  1  0
 16 17  1  0
 17 18  2  0
 18 19  1  0
 19 20  2  0
 20 21  1  0
 17 22  1  0
 21 22  2  0
 11 23  1  0
 15 23  2  0
  7 24  1  0
  4 25  1  0
 24 25  1  0
M  END
