piperidine-amides-12722-covalent
     RDKit          3D

 23 24  0  0  0  0  0  0  0  0999 V2000
    7.0950   -3.3210   19.2090 C   0  0  0  0  0  0  0  0  0  0  0  0
    6.3450   -4.0720   20.2370 C   0  0  0  0  0  0  0  0  0  0  0  0
    5.2620   -4.5720   19.8860 O   0  0  0  0  0  0  0  0  0  0  0  0
    6.8700   -4.2590   21.5140 N   0  0  0  0  0  0  0  0  0  0  0  0
    7.6100   -3.2160   22.1560 C   0  0  0  0  0  0  0  0  0  0  0  0
    7.1150   -2.8250   23.4720 C   0  0  0  0  0  0  0  0  0  0  0  0
    6.4510   -3.8980   24.2310 C   0  0  0  0  0  0  0  0  0  0  0  0
    5.7010   -3.3190   25.3660 C   0  0  0  0  0  0  0  0  0  0  0  0
    4.4930   -3.0570   25.2120 O   0  0  0  0  0  0  0  0  0  0  0  0
    6.3360   -3.0710   26.5910 N   0  0  0  0  0  0  0  0  0  0  0  0
    6.3800   -1.7410   27.2350 C   0  0  0  0  0  0  0  0  0  0  0  0
    5.8070   -0.5090   26.6420 C   0  0  0  0  0  0  0  0  0  0  0  0
    5.8930    0.7580   27.3630 C   0  0  0  0  0  0  0  0  0  0  0  0
    6.5230    0.7700   28.6060 C   0  0  0  0  0  0  0  0  0  0  0  0
    6.5120    2.0600   29.1500 N   0  0  0  0  0  0  0  0  0  0  0  0
    5.2570    2.7760   29.2110 C   0  0  0  0  0  0  0  0  0  0  0  0
    4.3160    2.0040   29.8160 C   0  0  0  0  0  0  0  0  0  0  0  0
    5.1690    3.9820   28.7200 O   0  0  0  0  0  0  0  0  0  0  0  0
    7.0660   -0.3770   29.1680 C   0  0  0  0  0  0  0  0  0  0  0  0
    7.7050   -0.4850   30.3680 C   0  0  0  0  0  0  0  0  0  0  0  0
    7.0180   -1.6000   28.5420 C   0  0  0  0  0  0  0  0  0  0  0  0
    5.6330   -4.8490   23.4450 C   0  0  0  0  0  0  0  0  0  0  0  0
    6.4870   -5.3920   22.3350 C   0  0  0  0  0  0  0  0  0  0  0  0
  1  2  1  0
  2  3  2  0
  2  4  1  0
  4  5  1  0
  5  6  1  0
  6  7  1  0
  7  8  1  0
  8  9  2  0
  8 10  1  0
 10 11  1  0
 11 12  2  0
 12 13  1  0
 13 14  2  0
 14 15  1  0
 15 16  1  0
 16 17  1  0
 16 18  2  0
 14 19  1  0
 19 20  1  0
 11 21  1  0
 19 21  2  0
  7 22  1  0
  4 23  1  0
 22 23  1  0
M  END
