piperidine-amides-25406-covalent
     RDKit          3D

 25 27  0  0  0  0  0  0  0  0999 V2000
    7.0440   -3.3310   19.3100 C   0  0  0  0  0  0  0  0  0  0  0  0
    6.3730   -4.1770   20.3340 C   0  0  0  0  0  0  0  0  0  0  0  0
    5.3750   -4.7980   19.9700 O   0  0  0  0  0  0  0  0  0  0  0  0
    6.8900   -4.2900   21.6320 N   0  0  0  0  0  0  0  0  0  0  0  0
    6.6430   -5.4810   22.4060 C   0  0  0  0  0  0  0  0  0  0  0  0
    6.2210   -5.1260   23.8130 C   0  0  0  0  0  0  0  0  0  0  0  0
    6.1510   -3.6040   23.9990 C   0  0  0  0  0  0  0  0  0  0  0  0
    5.7970   -3.2950   25.3990 C   0  0  0  0  0  0  0  0  0  0  0  0
    4.6060   -3.3780   25.7320 O   0  0  0  0  0  0  0  0  0  0  0  0
    6.7590   -2.8990   26.3580 N   0  0  0  0  0  0  0  0  0  0  0  0
    7.7410   -3.9010   26.7400 C   0  0  0  0  0  0  0  0  0  0  0  0
    6.3790   -1.8460   27.2620 C   0  0  1  0  0  0  0  0  0  0  0  0
    7.2970   -1.6590   28.2560 C   0  0  0  0  0  0  0  0  0  0  0  0
    6.9770   -0.7380   29.2040 C   0  0  0  0  0  0  0  0  0  0  0  0
    6.1850    0.3210   28.8120 C   0  0  2  0  0  0  0  0  0  0  0  0
    4.7860    0.5100   29.3680 C   0  0  0  0  0  0  0  0  0  0  0  0
    4.6220    1.9780   29.6710 C   0  0  0  0  0  0  0  0  0  0  0  0
    3.2920    2.4460   30.2490 C   0  0  0  0  0  0  0  0  0  0  0  0
    2.2380    1.4040   30.4740 C   0  0  0  0  0  0  0  0  0  0  0  0
    2.4610   -0.0280   30.1560 C   0  0  0  0  0  0  0  0  0  0  0  0
    3.7470   -0.5520   29.5860 C   0  0  0  0  0  0  0  0  0  0  0  0
    6.0080    0.5520   27.4520 C   0  0  0  0  0  0  0  0  0  0  0  0
    6.0660   -0.6780   26.5820 C   0  0  0  0  0  0  0  0  0  0  0  0
    7.4810   -3.0230   23.6190 C   0  0  0  0  0  0  0  0  0  0  0  0
    7.6860   -3.2030   22.1440 C   0  0  0  0  0  0  0  0  0  0  0  0
  1  2  1  0
  2  3  2  0
  2  4  1  0
  4  5  1  0
  5  6  1  0
  6  7  1  0
  7  8  1  0
  8  9  2  0
  8 10  1  0
 10 11  1  0
 12 10  1  6
 12 13  1  0
 13 14  1  0
 14 15  1  0
 15 16  1  1
 16 17  2  0
 17 18  1  0
 18 19  2  0
 19 20  1  0
 16 21  1  0
 20 21  2  0
 15 22  1  0
 12 23  1  0
 22 23  1  0
  7 24  1  0
  4 25  1  0
 24 25  1  0
M  END
