piperidine-amides-33141-covalent
     RDKit          3D

 30 33  0  0  0  0  0  0  0  0999 V2000
    7.0370   -3.3470   19.4040 C   0  0  0  0  0  0  0  0  0  0  0  0
    6.3780   -4.2220   20.3940 C   0  0  0  0  0  0  0  0  0  0  0  0
    5.3790   -4.8600   19.9850 O   0  0  0  0  0  0  0  0  0  0  0  0
    6.8650   -4.3840   21.7250 N   0  0  0  0  0  0  0  0  0  0  0  0
    6.2150   -5.3400   22.5460 C   0  0  0  0  0  0  0  0  0  0  0  0
    5.4570   -4.7790   23.6810 C   0  0  0  0  0  0  0  0  0  0  0  0
    6.0210   -3.5820   24.3770 C   0  0  0  0  0  0  0  0  0  0  0  0
    4.9770   -2.8380   25.2250 C   0  0  0  0  0  0  0  0  0  0  0  0
    4.0680   -2.2600   24.6160 O   0  0  0  0  0  0  0  0  0  0  0  0
    4.9540   -2.7520   26.6730 N   0  0  0  0  0  0  0  0  0  0  0  0
    5.0170   -3.8800   27.5100 C   0  0  0  0  0  0  0  0  0  0  0  0
    6.2540   -4.3180   27.1600 C   0  0  0  0  0  0  0  0  0  0  0  0
    6.9070   -3.5270   26.2960 N   0  0  0  0  0  0  0  0  0  0  0  0
    8.1290   -3.9650   25.9270 C   0  0  0  0  0  0  0  0  0  0  0  0
    8.8640   -3.2190   25.0280 C   0  0  0  0  0  0  0  0  0  0  0  0
   10.1460   -3.9830   24.8520 C   0  0  0  0  0  0  0  0  0  0  0  0
   11.1260   -3.4720   24.0030 O   0  0  0  0  0  0  0  0  0  0  0  0
   10.9700   -2.0980   23.8350 C   0  0  0  0  0  0  0  0  0  0  0  0
   10.3310   -5.3120   25.6500 C   0  0  0  0  0  0  0  0  0  0  0  0
    9.3910   -5.9230   26.5580 C   0  0  0  0  0  0  0  0  0  0  0  0
    8.2200   -5.1080   26.6420 C   0  0  0  0  0  0  0  0  0  0  0  0
    7.0650   -5.3700   27.4320 N   0  0  0  0  0  0  0  0  0  0  0  0
    5.5340   -1.5380   27.2340 C   0  0  0  0  0  0  0  0  0  0  0  0
    6.4860   -1.6040   28.3980 C   0  0  0  0  0  0  0  0  0  0  0  0
    7.0350   -0.4500   28.9760 C   0  0  0  0  0  0  0  0  0  0  0  0
    6.7020    0.7900   28.4650 C   0  0  0  0  0  0  0  0  0  0  0  0
    5.7630    0.8520   27.2960 C   0  0  0  0  0  0  0  0  0  0  0  0
    5.2390   -0.2980   26.7520 C   0  0  0  0  0  0  0  0  0  0  0  0
    6.5940   -2.6280   23.3300 C   0  0  0  0  0  0  0  0  0  0  0  0
    7.5650   -3.3070   22.3700 C   0  0  0  0  0  0  0  0  0  0  0  0
  1  2  1  0
  2  3  2  0
  2  4  1  0
  4  5  1  0
  5  6  1  0
  6  7  1  0
  7  8  1  0
  8  9  2  0
  8 10  1  0
 10 11  1  0
 11 12  1  0
 12 13  2  0
 13 14  1  0
 14 15  2  0
 15 16  1  0
 16 17  1  0
 17 18  1  0
 16 19  2  0
 19 20  1  0
 14 21  1  0
 20 21  2  0
 12 22  1  0
 21 22  1  0
 10 23  1  0
 23 24  2  0
 24 25  1  0
 25 26  2  0
 26 27  1  0
 23 28  1  0
 27 28  2  0
  7 29  1  0
  4 30  1  0
 29 30  1  0
M  END
