piperidine-amides-35523-covalent
     RDKit          3D

 36 40  0  0  0  0  0  0  0  0999 V2000
    7.0380   -3.3420   19.2860 C   0  0  0  0  0  0  0  0  0  0  0  0
    6.3800   -4.1860   20.3170 C   0  0  0  0  0  0  0  0  0  0  0  0
    5.3760   -4.8060   19.9720 O   0  0  0  0  0  0  0  0  0  0  0  0
    6.9340   -4.2870   21.5990 N   0  0  0  0  0  0  0  0  0  0  0  0
    7.6670   -3.2000   22.1910 C   0  0  0  0  0  0  0  0  0  0  0  0
    6.8480   -2.6200   23.3040 C   0  0  0  0  0  0  0  0  0  0  0  0
    6.5130   -3.7190   24.3090 C   0  0  0  0  0  0  0  0  0  0  0  0
    5.6080   -3.1200   25.3200 C   0  0  0  0  0  0  0  0  0  0  0  0
    4.4680   -2.7910   24.9740 O   0  0  0  0  0  0  0  0  0  0  0  0
    6.0030   -2.9230   26.6630 N   0  0  0  0  0  0  0  0  0  0  0  0
    5.6350   -3.9290   27.6480 C   0  0  1  0  0  0  0  0  0  0  0  0
    4.3010   -3.6070   28.2700 C   0  0  0  0  0  0  0  0  0  0  0  0
    3.6380   -4.6810   28.8080 C   0  0  0  0  0  0  0  0  0  0  0  0
    4.6300   -5.5080   29.2310 C   0  0  0  0  0  0  0  0  0  0  0  0
    5.6460   -5.8490   28.4520 C   0  0  0  0  0  0  0  0  0  0  0  0
    6.5860   -6.6920   29.1420 C   0  0  0  0  0  0  0  0  0  0  0  0
    6.0480   -6.8650   30.3790 N   0  0  0  0  0  0  0  0  0  0  0  0
    4.8740   -6.1580   30.4230 N   0  0  0  0  0  0  0  0  0  0  0  0
    4.1890   -6.2610   31.6830 C   0  0  0  0  0  0  0  0  0  0  0  0
    5.0120   -7.0550   32.6710 C   0  0  0  0  0  0  0  0  0  0  0  0
    3.1830   -7.3480   31.3770 C   0  0  0  0  0  0  0  0  0  0  0  0
    5.5270   -5.2620   27.0620 C   0  0  0  0  0  0  0  0  0  0  0  0
    5.9780   -1.6320   27.3850 C   0  0  1  0  0  0  0  0  0  0  0  0
    7.0840   -1.4190   28.3620 C   0  0  0  0  0  0  0  0  0  0  0  0
    6.8670   -0.3570   29.3920 C   0  0  0  0  0  0  0  0  0  0  0  0
    6.3470    0.7510   28.7880 C   0  0  0  0  0  0  0  0  0  0  0  0
    5.8810    0.6980   27.3990 C   0  0  0  0  0  0  0  0  0  0  0  0
    5.4080    2.0680   27.1310 C   0  0  0  0  0  0  0  0  0  0  0  0
    5.5720    2.8410   28.2210 N   0  0  0  0  0  0  0  0  0  0  0  0
    6.1340    2.0460   29.2120 N   0  0  0  0  0  0  0  0  0  0  0  0
    6.4550    2.5330   30.5210 C   0  0  0  0  0  0  0  0  0  0  0  0
    6.5440    3.8900   30.4920 C   0  0  0  0  0  0  0  0  0  0  0  0
    5.5490    1.9650   31.4220 C   0  0  0  0  0  0  0  0  0  0  0  0
    5.8800   -0.3940   26.5180 C   0  0  0  0  0  0  0  0  0  0  0  0
    5.9130   -4.9420   23.6930 C   0  0  0  0  0  0  0  0  0  0  0  0
    6.5790   -5.4170   22.4230 C   0  0  0  0  0  0  0  0  0  0  0  0
  1  2  1  0
  2  3  2  0
  2  4  1  0
  4  5  1  0
  5  6  1  0
  6  7  1  0
  7  8  1  0
  8  9  2  0
  8 10  1  0
 11 10  1  6
 11 12  1  0
 12 13  1  0
 13 14  1  0
 14 15  2  0
 15 16  1  0
 16 17  2  0
 14 18  1  0
 17 18  1  0
 18 19  1  0
 19 20  1  0
 19 21  1  0
 11 22  1  0
 15 22  1  0
 23 10  1  6
 23 24  1  0
 24 25  1  0
 25 26  1  0
 26 27  2  0
 27 28  1  0
 28 29  2  0
 26 30  1  0
 29 30  1  0
 30 31  1  0
 31 32  1  0
 31 33  1  0
 23 34  1  0
 27 34  1  0
  7 35  1  0
  4 36  1  0
 35 36  1  0
M  END
