piperidine-amides-14979-covalent
     RDKit          3D

 21 22  0  0  0  0  0  0  0  0999 V2000
    7.0350   -3.3300   19.2950 C   0  0  0  0  0  0  0  0  0  0  0  0
    6.3630   -4.1670   20.2920 C   0  0  0  0  0  0  0  0  0  0  0  0
    5.3290   -4.7610   19.9520 O   0  0  0  0  0  0  0  0  0  0  0  0
    6.9120   -4.3240   21.5910 N   0  0  0  0  0  0  0  0  0  0  0  0
    6.4500   -5.4090   22.4030 C   0  0  0  0  0  0  0  0  0  0  0  0
    5.4670   -4.8870   23.4260 C   0  0  0  0  0  0  0  0  0  0  0  0
    6.1620   -3.8980   24.3590 C   0  0  0  0  0  0  0  0  0  0  0  0
    5.1240   -3.3550   25.3310 C   0  0  0  0  0  0  0  0  0  0  0  0
    3.9700   -3.4000   24.9170 O   0  0  0  0  0  0  0  0  0  0  0  0
    5.4480   -2.8320   26.6070 N   0  0  0  0  0  0  0  0  0  0  0  0
    6.0870   -3.5800   27.6410 C   0  0  1  0  0  0  0  0  0  0  0  0
    5.5870   -4.8500   27.9760 C   0  0  0  0  0  0  0  0  0  0  0  0
    7.2440   -3.9380   26.9410 C   0  0  0  0  0  0  0  0  0  0  0  0
    8.0140   -4.9880   26.9040 C   0  0  0  0  0  0  0  0  0  0  0  0
    9.0570   -4.9430   26.0460 N   0  0  0  0  0  0  0  0  0  0  0  0
    9.8770   -6.0600   25.9970 C   0  0  0  0  0  0  0  0  0  0  0  0
    9.0410   -3.7630   25.4080 N   0  0  0  0  0  0  0  0  0  0  0  0
    7.9640   -3.1290   25.9370 C   0  0  0  0  0  0  0  0  0  0  0  0
    7.5090   -1.7730   25.5800 C   0  0  0  0  0  0  0  0  0  0  0  0
    6.8660   -2.8430   23.5560 C   0  0  0  0  0  0  0  0  0  0  0  0
    7.5050   -3.1740   22.1930 C   0  0  0  0  0  0  0  0  0  0  0  0
  1  2  1  0
  2  3  2  0
  2  4  1  0
  4  5  1  0
  5  6  1  0
  6  7  1  0
  7  8  1  0
  8  9  2  0
  8 10  1  0
 10 11  1  0
 11 12  1  6
 11 13  1  0
 13 14  2  0
 14 15  1  0
 15 16  1  0
 15 17  1  0
 13 18  1  0
 17 18  2  0
 18 19  1  0
  7 20  1  0
  4 21  1  0
 20 21  1  0
M  END
