piperidine-amides-10249-covalent
     RDKit          3D

 25 26  0  0  0  0  0  0  0  0999 V2000
    7.0670   -3.3070   19.2570 C   0  0  0  0  0  0  0  0  0  0  0  0
    6.3570   -4.1090   20.2630 C   0  0  0  0  0  0  0  0  0  0  0  0
    5.2780   -4.6400   19.9040 O   0  0  0  0  0  0  0  0  0  0  0  0
    6.8930   -4.3010   21.5280 N   0  0  0  0  0  0  0  0  0  0  0  0
    6.5120   -5.4540   22.3140 C   0  0  0  0  0  0  0  0  0  0  0  0
    5.8400   -4.9560   23.5610 C   0  0  0  0  0  0  0  0  0  0  0  0
    6.6640   -3.8680   24.1780 C   0  0  0  0  0  0  0  0  0  0  0  0
    5.9980   -3.2250   25.3240 C   0  0  0  0  0  0  0  0  0  0  0  0
    4.7590   -3.3510   25.4720 O   0  0  0  0  0  0  0  0  0  0  0  0
    6.7440   -2.4700   26.2370 N   0  0  0  0  0  0  0  0  0  0  0  0
    6.1350   -1.6330   27.2270 C   0  0  0  0  0  0  0  0  0  0  0  0
    5.7840   -0.2720   26.6780 C   0  0  0  0  0  0  0  0  0  0  0  0
    5.7970    0.8210   27.5070 C   0  0  0  0  0  0  0  0  0  0  0  0
    5.7960    0.6140   28.8600 N   0  0  0  0  0  0  0  0  0  0  0  0
    4.7410    1.0010   29.6040 C   0  0  0  0  0  0  0  0  0  0  0  0
    4.3380    2.2490   29.6020 O   0  0  0  0  0  0  0  0  0  0  0  0
    4.2490   -0.0640   30.2650 N   0  0  0  0  0  0  0  0  0  0  0  0
    4.0320    0.2630   31.6300 C   0  0  0  0  0  0  0  0  0  0  0  0
    2.7780    0.8130   31.8300 C   0  0  0  0  0  0  0  0  0  0  0  0
    5.0340    1.1730   31.8930 C   0  0  0  0  0  0  0  0  0  0  0  0
    4.2350   -0.9470   32.2570 C   0  0  0  0  0  0  0  0  0  0  0  0
    6.6590   -0.3640   29.4390 C   0  0  0  0  0  0  0  0  0  0  0  0
    6.9890   -1.4510   28.4420 C   0  0  0  0  0  0  0  0  0  0  0  0
    6.9730   -2.7800   23.2070 C   0  0  0  0  0  0  0  0  0  0  0  0
    7.7220   -3.2790   22.1830 C   0  0  0  0  0  0  0  0  0  0  0  0
  1  2  1  0
  2  3  2  0
  2  4  1  0
  4  5  1  0
  5  6  1  0
  6  7  1  0
  7  8  1  0
  8  9  2  0
  8 10  1  0
 10 11  1  0
 11 12  1  0
 12 13  1  0
 13 14  1  0
 14 15  1  0
 15 16  2  0
 15 17  1  0
 18 17  1  0
 18 19  1  0
 18 20  1  0
 18 21  1  0
 14 22  1  0
 11 23  1  0
 22 23  1  0
  7 24  1  0
  4 25  1  0
 24 25  1  0
M  END
