piperidine-amides-3421-covalent
     RDKit          3D

 21 22  0  0  0  0  0  0  0  0999 V2000
    7.1020   -3.2710   19.1370 C   0  0  0  0  0  0  0  0  0  0  0  0
    6.3240   -3.9810   20.1510 C   0  0  0  0  0  0  0  0  0  0  0  0
    5.2560   -4.5130   19.8590 O   0  0  0  0  0  0  0  0  0  0  0  0
    6.8180   -4.1110   21.4790 N   0  0  0  0  0  0  0  0  0  0  0  0
    6.5350   -5.2970   22.2310 C   0  0  0  0  0  0  0  0  0  0  0  0
    5.9410   -4.9360   23.5630 C   0  0  0  0  0  0  0  0  0  0  0  0
    6.2200   -3.4640   23.8570 C   0  0  0  0  0  0  0  0  0  0  0  0
    6.1890   -3.2030   25.3100 C   0  0  0  0  0  0  0  0  0  0  0  0
    5.1320   -3.1450   25.9780 O   0  0  0  0  0  0  0  0  0  0  0  0
    7.4600   -3.0120   25.9070 N   0  0  0  0  0  0  0  0  0  0  0  0
    7.5980   -3.0240   27.3270 C   0  0  0  0  0  0  0  0  0  0  0  0
    7.8080   -4.4340   27.7810 C   0  0  0  0  0  0  0  0  0  0  0  0
    8.2860   -5.4420   26.9750 C   0  0  0  0  0  0  0  0  0  0  0  0
    8.3940   -5.7500   25.6330 C   0  0  0  0  0  0  0  0  0  0  0  0
    8.9860   -7.0280   25.3760 N   0  0  0  0  0  0  0  0  0  0  0  0
    9.2800   -7.5990   26.5640 N   0  0  0  0  0  0  0  0  0  0  0  0
    9.9600   -9.0530   26.7040 C   0  0  0  0  0  0  0  0  0  0  0  0
    9.8660  -10.6880   27.9700 C   0  0  0  0  0  0  0  0  0  0  0  0
    8.8370   -6.5460   27.4480 C   0  0  0  0  0  0  0  0  0  0  0  0
    7.6190   -3.1010   23.3800 C   0  0  0  0  0  0  0  0  0  0  0  0
    7.5280   -2.9610   22.0140 C   0  0  0  0  0  0  0  0  0  0  0  0
  1  2  1  0
  2  3  2  0
  2  4  1  0
  4  5  1  0
  5  6  1  0
  6  7  1  0
  7  8  1  0
  8  9  2  0
  8 10  1  0
 10 11  1  0
 11 12  1  0
 12 13  1  0
 13 14  1  0
 14 15  2  0
 15 16  1  0
 16 17  1  0
 17 18  1  0
 13 19  2  0
 16 19  1  0
  7 20  1  0
  4 21  1  0
 20 21  1  0
M  END
