piperidine-amides-33120-covalent
     RDKit          3D

 29 32  0  0  0  0  0  0  0  0999 V2000
    7.2010   -3.3650   19.3050 C   0  0  0  0  0  0  0  0  0  0  0  0
    6.4860   -4.1730   20.2920 C   0  0  0  0  0  0  0  0  0  0  0  0
    5.3800   -4.6610   19.9460 O   0  0  0  0  0  0  0  0  0  0  0  0
    7.0940   -4.4410   21.5420 N   0  0  0  0  0  0  0  0  0  0  0  0
    6.5400   -5.4600   22.3270 C   0  0  0  0  0  0  0  0  0  0  0  0
    5.9610   -4.9800   23.5830 C   0  0  0  0  0  0  0  0  0  0  0  0
    6.4340   -3.6830   24.1690 C   0  0  0  0  0  0  0  0  0  0  0  0
    5.2980   -3.0460   24.8740 C   0  0  0  0  0  0  0  0  0  0  0  0
    4.4890   -2.3350   24.2740 O   0  0  0  0  0  0  0  0  0  0  0  0
    5.1220   -3.2490   26.2130 N   0  0  0  0  0  0  0  0  0  0  0  0
    4.5330   -2.4340   27.1490 C   0  0  0  0  0  0  0  0  0  0  0  0
    4.6030   -3.1090   28.3850 C   0  0  2  0  0  0  0  0  0  0  0  0
    5.4980   -2.3560   29.3260 C   0  0  0  0  0  0  0  0  0  0  0  0
    6.7490   -2.7070   28.9240 C   0  0  0  0  0  0  0  0  0  0  0  0
    6.4480   -4.2200   29.2320 C   0  0  0  0  0  0  0  0  0  0  0  0
    5.4850   -4.2960   28.1550 C   0  0  1  0  0  0  0  0  0  0  0  0
    4.8470   -5.5530   28.7530 C   0  0  0  0  0  0  0  0  0  0  0  0
    3.5990   -5.0470   29.1670 N   0  0  0  0  0  0  0  0  0  0  0  0
    3.4330   -5.2480   30.5420 C   0  0  0  0  0  0  0  0  0  0  0  0
    2.3180   -4.8360   31.2990 O   0  0  0  0  0  0  0  0  0  0  0  0
    4.4150   -5.8950   31.1840 O   0  0  0  0  0  0  0  0  0  0  0  0
    4.4910   -7.2750   31.0260 C   0  0  0  0  0  0  0  0  0  0  0  0
    3.7840   -8.0020   32.1870 C   0  0  0  0  0  0  0  0  0  0  0  0
    5.9330   -7.6340   30.8100 C   0  0  0  0  0  0  0  0  0  0  0  0
    3.6950   -7.8620   29.9450 C   0  0  0  0  0  0  0  0  0  0  0  0
    3.3940   -3.6440   28.8540 C   0  0  0  0  0  0  0  0  0  0  0  0
    5.9520   -4.1770   26.8430 C   0  0  0  0  0  0  0  0  0  0  0  0
    7.0570   -2.6940   23.2360 C   0  0  0  0  0  0  0  0  0  0  0  0
    7.8240   -3.3900   22.1620 C   0  0  0  0  0  0  0  0  0  0  0  0
  1  2  1  0
  2  3  2  0
  2  4  1  0
  4  5  1  0
  5  6  1  0
  6  7  1  0
  7  8  1  0
  8  9  2  0
  8 10  1  0
 10 11  1  0
 12 11  1  6
 12 13  1  0
 13 14  1  0
 14 15  1  0
 12 16  1  0
 16 15  1  1
 16 17  1  0
 17 18  1  0
 18 19  1  0
 19 20  2  0
 19 21  1  0
 22 21  1  0
 22 23  1  0
 22 24  1  0
 22 25  1  0
 12 26  1  0
 18 26  1  0
 10 27  1  0
 16 27  1  0
  7 28  1  0
  4 29  1  0
 28 29  1  0
M  END
