piperidine-amides-3923-covalent
     RDKit          3D

 25 26  0  0  0  0  0  0  0  0999 V2000
    7.0340   -3.3590   19.3020 C   0  0  0  0  0  0  0  0  0  0  0  0
    6.3860   -4.1900   20.3290 C   0  0  0  0  0  0  0  0  0  0  0  0
    5.3590   -4.8180   19.9740 O   0  0  0  0  0  0  0  0  0  0  0  0
    6.9320   -4.3120   21.6320 N   0  0  0  0  0  0  0  0  0  0  0  0
    6.5990   -5.4560   22.4140 C   0  0  0  0  0  0  0  0  0  0  0  0
    6.0190   -5.0930   23.6920 C   0  0  0  0  0  0  0  0  0  0  0  0
    6.1410   -3.6520   23.9560 C   0  0  0  0  0  0  0  0  0  0  0  0
    5.6790   -3.2800   25.3330 C   0  0  0  0  0  0  0  0  0  0  0  0
    4.4730   -3.4000   25.6200 O   0  0  0  0  0  0  0  0  0  0  0  0
    6.5660   -2.7920   26.3050 N   0  0  0  0  0  0  0  0  0  0  0  0
    6.4590   -1.5800   27.0220 C   0  0  0  0  0  0  0  0  0  0  0  0
    5.8330   -0.3330   26.5410 C   0  0  0  0  0  0  0  0  0  0  0  0
    5.8050    0.9090   27.4770 C   0  0  0  0  0  0  0  0  0  0  0  0
    6.3750    0.7760   28.7220 C   0  0  0  0  0  0  0  0  0  0  0  0
    6.1320    2.1860   29.2840 C   0  0  0  0  0  0  0  0  0  0  0  0
    6.4990    3.2550   28.4710 O   0  0  0  0  0  0  0  0  0  0  0  0
    5.5490    2.2790   30.5870 N   0  0  0  0  0  0  0  0  0  0  0  0
    4.0880    2.1930   30.4340 C   0  0  0  0  0  0  0  0  0  0  0  0
    3.9080    2.1310   31.9560 C   0  0  0  0  0  0  0  0  0  0  0  0
    4.4760    1.1030   32.9090 C   0  0  0  0  0  0  0  0  0  0  0  0
    6.9780   -0.2930   29.2860 C   0  0  0  0  0  0  0  0  0  0  0  0
    7.5210   -0.3210   30.5420 O   0  0  0  0  0  0  0  0  0  0  0  0
    7.0330   -1.5380   28.4200 C   0  0  0  0  0  0  0  0  0  0  0  0
    7.5270   -3.2050   23.6290 C   0  0  0  0  0  0  0  0  0  0  0  0
    7.6640   -3.1970   22.2340 C   0  0  0  0  0  0  0  0  0  0  0  0
  1  2  1  0
  2  3  2  0
  2  4  1  0
  4  5  1  0
  5  6  1  0
  6  7  1  0
  7  8  1  0
  8  9  2  0
  8 10  1  0
 10 11  1  0
 11 12  2  0
 12 13  1  0
 13 14  2  0
 14 15  1  0
 15 16  2  0
 15 17  1  0
 17 18  1  0
 18 19  1  0
 19 20  2  3
 14 21  1  0
 21 22  1  0
 11 23  1  0
 21 23  2  0
  7 24  1  0
  4 25  1  0
 24 25  1  0
M  END
