piperidine-amides-13305-covalent
     RDKit          3D

 27 29  0  0  0  0  0  0  0  0999 V2000
    7.0620   -3.3640   19.3050 C   0  0  0  0  0  0  0  0  0  0  0  0
    6.3670   -4.1700   20.3330 C   0  0  0  0  0  0  0  0  0  0  0  0
    5.3350   -4.7630   19.9610 O   0  0  0  0  0  0  0  0  0  0  0  0
    6.8830   -4.3010   21.6370 N   0  0  0  0  0  0  0  0  0  0  0  0
    7.6490   -3.2440   22.2160 C   0  0  0  0  0  0  0  0  0  0  0  0
    7.2020   -2.8800   23.5520 C   0  0  0  0  0  0  0  0  0  0  0  0
    5.9730   -3.5840   23.9530 C   0  0  0  0  0  0  0  0  0  0  0  0
    5.6110   -3.2300   25.3440 C   0  0  0  0  0  0  0  0  0  0  0  0
    4.4120   -3.2690   25.6700 O   0  0  0  0  0  0  0  0  0  0  0  0
    6.5960   -2.8570   26.2670 N   0  0  0  0  0  0  0  0  0  0  0  0
    6.5110   -1.6470   27.1140 C   0  0  0  0  0  0  0  0  0  0  0  0
    7.0800   -1.6030   28.4660 C   0  0  0  0  0  0  0  0  0  0  0  0
    6.9980   -0.4170   29.2930 C   0  0  0  0  0  0  0  0  0  0  0  0
    6.3640    0.7290   28.8190 C   0  0  0  0  0  0  0  0  0  0  0  0
    6.2920    1.7440   29.5330 O   0  0  0  0  0  0  0  0  0  0  0  0
    5.6130    1.5240   30.6250 C   0  0  0  0  0  0  0  0  0  0  0  0
    5.7660    0.7190   27.4350 C   0  0  0  0  0  0  0  0  0  0  0  0
    5.1080    1.8550   26.9110 N   0  0  0  0  0  0  0  0  0  0  0  0
    3.6790    1.6990   26.7610 C   0  0  0  0  0  0  0  0  0  0  0  0
    3.5110    2.6900   27.7190 C   0  0  0  0  0  0  0  0  0  0  0  0
    3.0190    2.3450   28.9800 C   0  0  0  0  0  0  0  0  0  0  0  0
    2.9360    3.8840   27.3450 C   0  0  0  0  0  0  0  0  0  0  0  0
    4.9850    2.9030   27.8200 C   0  0  0  0  0  0  0  0  0  0  0  0
    5.6900    3.7350   28.4920 O   0  0  0  0  0  0  0  0  0  0  0  0
    5.8390   -0.4060   26.6320 C   0  0  0  0  0  0  0  0  0  0  0  0
    5.9530   -5.0410   23.7140 C   0  0  0  0  0  0  0  0  0  0  0  0
    6.6500   -5.4910   22.4410 C   0  0  0  0  0  0  0  0  0  0  0  0
  1  2  1  0
  2  3  2  0
  2  4  1  0
  4  5  1  0
  5  6  1  0
  6  7  1  0
  7  8  1  0
  8  9  2  0
  8 10  1  0
 10 11  1  0
 11 12  2  0
 12 13  1  0
 13 14  2  0
 14 15  1  0
 15 16  1  0
 14 17  1  0
 17 18  1  0
 18 19  1  0
 19 20  1  0
 20 21  1  0
 20 22  1  0
 18 23  1  0
 20 23  1  0
 23 24  2  0
 11 25  1  0
 17 25  2  0
  7 26  1  0
  4 27  1  0
 26 27  1  0
M  END
