piperidine-amides-10978-covalent
     RDKit          3D

 21 23  0  0  0  0  0  0  0  0999 V2000
    7.0690   -3.3320   19.2970 C   0  0  0  0  0  0  0  0  0  0  0  0
    6.3770   -4.1590   20.2860 C   0  0  0  0  0  0  0  0  0  0  0  0
    5.3450   -4.7660   19.9550 O   0  0  0  0  0  0  0  0  0  0  0  0
    6.8840   -4.3340   21.5800 N   0  0  0  0  0  0  0  0  0  0  0  0
    6.5900   -5.5010   22.3700 C   0  0  0  0  0  0  0  0  0  0  0  0
    5.8570   -4.9890   23.5840 C   0  0  0  0  0  0  0  0  0  0  0  0
    6.5770   -3.8380   24.2360 C   0  0  0  0  0  0  0  0  0  0  0  0
    5.8490   -3.2670   25.3930 C   0  0  0  0  0  0  0  0  0  0  0  0
    4.5900   -3.1230   25.3460 O   0  0  0  0  0  0  0  0  0  0  0  0
    6.4950   -2.8540   26.5810 N   0  0  0  0  0  0  0  0  0  0  0  0
    6.0830   -1.6130   27.2710 C   0  0  0  0  0  0  0  0  0  0  0  0
    6.0000   -0.2760   26.5090 C   0  0  0  0  0  0  0  0  0  0  0  0
    5.5630    0.9350   27.2660 C   0  0  0  0  0  0  0  0  0  0  0  0
    5.3210    0.4600   28.6210 C   0  0  0  0  0  0  0  0  0  0  0  0
    4.8790    1.4880   29.5230 N   0  0  0  0  0  0  0  0  0  0  0  0
    4.7040    0.7840   30.8010 C   0  0  0  0  0  0  0  0  0  0  0  0
    5.0100   -0.5090   30.6580 N   0  0  0  0  0  0  0  0  0  0  0  0
    5.3410   -0.5770   29.3940 N   0  0  0  0  0  0  0  0  0  0  0  0
    5.7250   -1.6690   28.7560 C   0  0  0  0  0  0  0  0  0  0  0  0
    6.8480   -2.7760   23.2050 C   0  0  0  0  0  0  0  0  0  0  0  0
    7.6480   -3.2570   22.1740 C   0  0  0  0  0  0  0  0  0  0  0  0
  1  2  1  0
  2  3  2  0
  2  4  1  0
  4  5  1  0
  5  6  1  0
  6  7  1  0
  7  8  1  0
  8  9  2  0
  8 10  1  0
 10 11  1  0
 11 12  1  0
 12 13  2  0
 13 14  1  0
 14 15  2  0
 15 16  1  0
 16 17  2  0
 14 18  1  0
 17 18  1  0
 11 19  2  0
 18 19  1  0
  7 20  1  0
  4 21  1  0
 20 21  1  0
M  END
