piperidine-amides-31586-covalent
     RDKit          3D

 28 30  0  0  0  0  0  0  0  0999 V2000
    7.2320   -4.1720   19.7960 C   0  0  0  0  0  0  0  0  0  0  0  0
    6.0430   -4.0490   20.4420 C   0  0  0  0  0  0  0  0  0  0  0  0
    5.0190   -4.1500   19.7140 O   0  0  0  0  0  0  0  0  0  0  0  0
    6.0510   -3.9470   21.8070 N   0  0  0  0  0  0  0  0  0  0  0  0
    5.8360   -5.2330   22.4770 C   0  0  0  0  0  0  0  0  0  0  0  0
    4.8950   -4.6800   23.5920 C   0  0  0  0  0  0  0  0  0  0  0  0
    5.7240   -3.6410   24.3200 C   0  0  0  0  0  0  0  0  0  0  0  0
    4.8760   -2.9170   25.4700 C   0  0  0  0  0  0  0  0  0  0  0  0
    3.6990   -2.7380   25.2210 O   0  0  0  0  0  0  0  0  0  0  0  0
    5.7850   -2.7820   26.2870 N   0  0  0  0  0  0  0  0  0  0  0  0
    7.0300   -3.0460   26.5170 C   0  0  0  0  0  0  0  0  0  0  0  0
    8.2700   -2.7660   26.3330 C   0  0  0  0  0  0  0  0  0  0  0  0
    8.9700   -3.8120   26.9770 C   0  0  0  0  0  0  0  0  0  0  0  0
    8.2800   -4.9520   27.7660 C   0  0  0  0  0  0  0  0  0  0  0  0
    9.5560   -5.5360   27.9360 C   0  0  0  0  0  0  0  0  0  0  0  0
   10.5610   -4.9890   28.6130 O   0  0  0  0  0  0  0  0  0  0  0  0
    9.7510   -6.5080   27.2840 O   0  0  0  0  0  0  0  0  0  0  0  0
    9.4060   -6.1030   26.0450 C   0  0  0  0  0  0  0  0  0  0  0  0
   10.0800   -4.9120   25.7900 C   0  0  0  0  0  0  0  0  0  0  0  0
    6.9140   -5.3380   28.1620 C   0  0  0  0  0  0  0  0  0  0  0  0
    7.3980   -4.2240   27.3540 C   0  0  0  0  0  0  0  0  0  0  0  0
    5.9720   -4.3330   27.4980 N   0  0  0  0  0  0  0  0  0  0  0  0
    5.5180   -3.2790   28.3300 C   0  0  0  0  0  0  0  0  0  0  0  0
    5.2940   -3.0580   29.6660 O   0  0  0  0  0  0  0  0  0  0  0  0
    5.2830   -2.2440   27.5350 C   0  0  2  0  0  0  0  0  0  0  0  0
    4.0220   -1.7570   27.4360 C   0  0  0  0  0  0  0  0  0  0  0  0
    6.6090   -2.6760   23.5710 C   0  0  0  0  0  0  0  0  0  0  0  0
    7.1070   -3.1870   22.3850 C   0  0  0  0  0  0  0  0  0  0  0  0
  1  2  1  0
  2  3  2  0
  2  4  1  0
  4  5  1  0
  5  6  1  0
  6  7  1  0
  7  8  1  0
  8  9  2  0
  8 10  1  0
 10 11  1  0
 11 12  2  0
 12 13  1  0
 13 14  2  0
 14 15  1  0
 15 16  2  0
 15 17  1  0
 17 18  1  0
 18 19  1  0
 14 20  1  0
 11 21  1  0
 20 21  2  0
 21 22  1  0
 22 23  1  0
 23 24  2  0
 10 25  1  0
 23 25  1  0
 25 26  1  6
  7 27  1  0
  4 28  1  0
 27 28  1  0
M  END
