piperidine-amides-4280-covalent
     RDKit          3D

 26 27  0  0  0  0  0  0  0  0999 V2000
    7.0980   -3.2920   19.2090 C   0  0  0  0  0  0  0  0  0  0  0  0
    6.3360   -4.0500   20.2160 C   0  0  0  0  0  0  0  0  0  0  0  0
    5.2350   -4.5250   19.8610 O   0  0  0  0  0  0  0  0  0  0  0  0
    6.8490   -4.2860   21.5060 N   0  0  0  0  0  0  0  0  0  0  0  0
    7.5850   -3.2440   22.1140 C   0  0  0  0  0  0  0  0  0  0  0  0
    7.2510   -3.1160   23.5020 C   0  0  0  0  0  0  0  0  0  0  0  0
    5.9150   -3.5920   23.8350 C   0  0  0  0  0  0  0  0  0  0  0  0
    5.6790   -3.4130   25.2970 C   0  0  0  0  0  0  0  0  0  0  0  0
    4.5930   -2.9290   25.6700 O   0  0  0  0  0  0  0  0  0  0  0  0
    6.6670   -3.7620   26.2440 N   0  0  0  0  0  0  0  0  0  0  0  0
    6.5500   -4.3960   27.5110 C   0  0  2  0  0  0  0  0  0  0  0  0
    6.8170   -5.8170   27.6410 C   0  0  0  0  0  0  0  0  0  0  0  0
    5.4620   -6.5650   27.4900 C   0  0  0  0  0  0  0  0  0  0  0  0
    4.7600   -6.8800   28.6380 C   0  0  0  0  0  0  0  0  0  0  0  0
    5.9530   -7.0770   29.5860 C   0  0  0  0  0  0  0  0  0  0  0  0
    5.5330   -7.4470   31.0090 C   0  0  0  0  0  0  0  0  0  0  0  0
    4.0010   -7.5630   31.2540 C   0  0  0  0  0  0  0  0  0  0  0  0
    3.5550   -7.9850   32.8900 Cl  0  0  0  0  0  0  0  0  0  0  0  0
    2.9260   -7.3500   30.2400 C   0  0  0  0  0  0  0  0  0  0  0  0
    3.4410   -6.9960   28.9010 C   0  0  0  0  0  0  0  0  0  0  0  0
    5.2350   -4.0950   28.1430 C   0  0  0  0  0  0  0  0  0  0  0  0
    4.0480   -4.4680   27.3230 C   0  0  0  0  0  0  0  0  0  0  0  0
    5.2080   -4.4540   29.4710 C   0  0  0  0  0  0  0  0  0  0  0  0
    4.8990   -2.6210   28.0460 C   0  0  0  0  0  0  0  0  0  0  0  0
    5.7100   -5.0230   23.4280 C   0  0  0  0  0  0  0  0  0  0  0  0
    6.4540   -5.4220   22.3100 C   0  0  0  0  0  0  0  0  0  0  0  0
  1  2  1  0
  2  3  2  0
  2  4  1  0
  4  5  1  0
  5  6  1  0
  6  7  1  0
  7  8  1  0
  8  9  2  0
  8 10  1  0
 10 11  1  0
 11 12  1  6
 12 13  1  0
 13 14  1  0
 14 15  2  0
 15 16  1  0
 16 17  2  0
 17 18  1  0
 17 19  1  0
 14 20  1  0
 19 20  2  0
 11 21  1  0
 21 22  1  0
 21 23  1  0
 21 24  1  0
  7 25  1  0
  4 26  1  0
 25 26  1  0
M  END
