piperidine-amides-205-covalent
     RDKit          3D

 21 23  0  0  0  0  0  0  0  0999 V2000
    7.0570   -3.3760   19.2880 C   0  0  0  0  0  0  0  0  0  0  0  0
    6.3800   -4.1220   20.3190 C   0  0  0  0  0  0  0  0  0  0  0  0
    5.3680   -4.8060   19.9710 O   0  0  0  0  0  0  0  0  0  0  0  0
    6.8170   -4.1650   21.6580 N   0  0  0  0  0  0  0  0  0  0  0  0
    6.6630   -5.4310   22.3900 C   0  0  0  0  0  0  0  0  0  0  0  0
    5.5920   -4.9590   23.4390 C   0  0  0  0  0  0  0  0  0  0  0  0
    6.1070   -3.6650   24.0500 C   0  0  0  0  0  0  0  0  0  0  0  0
    5.8870   -3.7120   25.6220 C   0  0  0  0  0  0  0  0  0  0  0  0
    5.7660   -4.8620   25.9760 O   0  0  0  0  0  0  0  0  0  0  0  0
    5.8580   -2.5490   26.1230 N   0  0  0  0  0  0  0  0  0  0  0  0
    5.7400   -1.3340   26.7320 C   0  0  2  0  0  0  0  0  0  0  0  0
    6.1070   -0.1500   26.7400 C   0  0  0  0  0  0  0  0  0  0  0  0
    6.9050   -0.9270   27.6930 C   0  0  1  0  0  0  0  0  0  0  0  0
    6.6490   -1.0850   29.1520 C   0  0  0  0  0  0  0  0  0  0  0  0
    6.4960    0.4080   29.4010 C   0  0  0  0  0  0  0  0  0  0  0  0
    5.1210    0.1390   29.6330 C   0  0  0  0  0  0  0  0  0  0  0  0
    4.7850   -0.4270   30.8870 C   0  0  0  0  0  0  0  0  0  0  0  0
    4.3440   -1.3880   29.7550 C   0  0  0  0  0  0  0  0  0  0  0  0
    5.5680   -2.0630   29.0530 C   0  0  0  0  0  0  0  0  0  0  0  0
    7.5550   -3.3480   23.6310 C   0  0  0  0  0  0  0  0  0  0  0  0
    7.6080   -3.1190   22.2780 C   0  0  0  0  0  0  0  0  0  0  0  0
  1  2  1  0
  2  3  2  0
  2  4  1  0
  4  5  1  0
  5  6  1  0
  6  7  1  0
  7  8  1  0
  8  9  2  0
  8 10  1  0
 11 10  1  6
 11 12  1  0
 11 13  1  0
 12 13  1  0
 13 14  1  1
 14 15  1  0
 15 16  1  0
 16 17  1  0
 17 18  1  0
 14 19  1  0
 18 19  1  0
  7 20  1  0
  4 21  1  0
 20 21  1  0
M  END
