piperidine-amides-10825-covalent
     RDKit          3D

 22 23  0  0  0  0  0  0  0  0999 V2000
    7.1220   -3.2560   19.1800 C   0  0  0  0  0  0  0  0  0  0  0  0
    6.3520   -3.9730   20.1990 C   0  0  0  0  0  0  0  0  0  0  0  0
    5.2950   -4.5400   19.8840 O   0  0  0  0  0  0  0  0  0  0  0  0
    6.8140   -4.0710   21.5210 N   0  0  0  0  0  0  0  0  0  0  0  0
    7.6760   -3.0800   22.1140 C   0  0  0  0  0  0  0  0  0  0  0  0
    6.9760   -2.6240   23.3640 C   0  0  0  0  0  0  0  0  0  0  0  0
    6.6380   -3.7860   24.2450 C   0  0  0  0  0  0  0  0  0  0  0  0
    5.8380   -3.3750   25.4280 C   0  0  0  0  0  0  0  0  0  0  0  0
    4.5860   -3.2060   25.3360 O   0  0  0  0  0  0  0  0  0  0  0  0
    6.4270   -3.1400   26.6880 N   0  0  0  0  0  0  0  0  0  0  0  0
    6.0890   -3.8960   27.9280 C   0  0  0  0  0  0  0  0  0  0  0  0
    5.5290   -5.2670   27.6910 C   0  0  2  0  0  0  0  0  0  0  0  0
    6.1240   -6.3850   28.4600 C   0  0  0  0  0  0  0  0  0  0  0  0
    5.5780   -5.6090   26.3900 N   0  0  0  0  0  0  0  0  0  0  0  0
    4.4930   -6.5380   25.9300 C   0  0  0  0  0  0  0  0  0  0  0  0
    3.6390   -7.2260   26.9890 C   0  0  0  0  0  0  0  0  0  0  0  0
    2.5470   -8.1570   26.5770 C   0  0  0  0  0  0  0  0  0  0  0  0
    2.3120   -8.3940   25.2520 C   0  0  0  0  0  0  0  0  0  0  0  0
    3.0830   -7.7750   24.2860 C   0  0  0  0  0  0  0  0  0  0  0  0
    4.1990   -6.8260   24.6220 C   0  0  0  0  0  0  0  0  0  0  0  0
    5.9230   -4.9250   23.5710 C   0  0  0  0  0  0  0  0  0  0  0  0
    6.6030   -5.2840   22.2720 C   0  0  0  0  0  0  0  0  0  0  0  0
  1  2  1  0
  2  3  2  0
  2  4  1  0
  4  5  1  0
  5  6  1  0
  6  7  1  0
  7  8  1  0
  8  9  2  0
  8 10  1  0
 10 11  1  0
 11 12  1  0
 12 13  1  1
 12 14  1  0
 14 15  1  0
 15 16  2  0
 16 17  1  0
 17 18  2  0
 18 19  1  0
 15 20  1  0
 19 20  2  0
  7 21  1  0
  4 22  1  0
 21 22  1  0
M  END
