piperidine-amides-623-covalent
     RDKit          3D

 26 28  0  0  0  0  0  0  0  0999 V2000
    7.1260   -3.3800   19.2640 C   0  0  0  0  0  0  0  0  0  0  0  0
    6.3830   -4.0820   20.2810 C   0  0  0  0  0  0  0  0  0  0  0  0
    5.2910   -4.6160   19.9260 O   0  0  0  0  0  0  0  0  0  0  0  0
    6.8520   -4.2520   21.6040 N   0  0  0  0  0  0  0  0  0  0  0  0
    7.7560   -3.2400   22.1760 C   0  0  0  0  0  0  0  0  0  0  0  0
    6.7690   -2.6150   23.2170 C   0  0  0  0  0  0  0  0  0  0  0  0
    6.4370   -3.7320   24.1840 C   0  0  0  0  0  0  0  0  0  0  0  0
    5.6060   -3.1230   25.3940 C   0  0  0  0  0  0  0  0  0  0  0  0
    4.7960   -2.3180   24.9580 O   0  0  0  0  0  0  0  0  0  0  0  0
    5.9580   -3.6150   26.5220 N   0  0  0  0  0  0  0  0  0  0  0  0
    6.2100   -4.0680   27.7920 C   0  0  2  0  0  0  0  0  0  0  0  0
    6.5650   -5.2280   28.4310 C   0  0  0  0  0  0  0  0  0  0  0  0
    5.0070   -3.6820   28.6020 C   0  0  0  0  0  0  0  0  0  0  0  0
    4.9290   -2.5210   29.3350 N   0  0  0  0  0  0  0  0  0  0  0  0
    3.7340   -2.4800   29.9440 O   0  0  0  0  0  0  0  0  0  0  0  0
    3.1440   -3.6440   29.5310 C   0  0  0  0  0  0  0  0  0  0  0  0
    1.7500   -4.1780   29.8910 C   0  0  0  0  0  0  0  0  0  0  0  0
    2.2750   -5.4110   30.3140 C   0  0  0  0  0  0  0  0  0  0  0  0
    2.3720   -6.3870   29.2370 C   0  0  0  0  0  0  0  0  0  0  0  0
    2.9680   -7.5800   30.0390 C   0  0  0  0  0  0  0  0  0  0  0  0
    3.3340   -7.6630   31.5360 C   0  0  0  0  0  0  0  0  0  0  0  0
    3.1120   -6.5720   32.2380 C   0  0  0  0  0  0  0  0  0  0  0  0
    2.6010   -5.4670   31.6750 C   0  0  0  0  0  0  0  0  0  0  0  0
    3.8710   -4.3490   28.7500 N   0  0  0  0  0  0  0  0  0  0  0  0
    5.8300   -4.9840   23.5440 C   0  0  0  0  0  0  0  0  0  0  0  0
    6.5000   -5.3930   22.4090 C   0  0  0  0  0  0  0  0  0  0  0  0
  1  2  1  0
  2  3  2  0
  2  4  1  0
  4  5  1  0
  5  6  1  0
  6  7  1  0
  7  8  1  0
  8  9  2  0
  8 10  1  0
 10 11  1  0
 11 12  1  6
 11 13  1  0
 13 14  2  0
 14 15  1  0
 15 16  1  0
 16 17  1  0
 17 18  1  0
 18 19  2  0
 19 20  1  0
 20 21  2  0
 21 22  1  0
 18 23  1  0
 22 23  2  0
 13 24  1  0
 16 24  2  0
  7 25  1  0
  4 26  1  0
 25 26  1  0
M  END
