piperidine-amides-12898-covalent
     RDKit          3D

 21 22  0  0  0  0  0  0  0  0999 V2000
    7.0450   -3.3660   19.3320 C   0  0  0  0  0  0  0  0  0  0  0  0
    6.3810   -4.1770   20.3810 C   0  0  0  0  0  0  0  0  0  0  0  0
    5.4160   -4.8700   19.9960 O   0  0  0  0  0  0  0  0  0  0  0  0
    6.8450   -4.1860   21.7170 N   0  0  0  0  0  0  0  0  0  0  0  0
    6.5710   -5.3300   22.5380 C   0  0  0  0  0  0  0  0  0  0  0  0
    5.9890   -4.9890   23.8420 C   0  0  0  0  0  0  0  0  0  0  0  0
    6.1300   -3.5560   24.1500 C   0  0  0  0  0  0  0  0  0  0  0  0
    5.7430   -3.2300   25.5630 C   0  0  0  0  0  0  0  0  0  0  0  0
    4.5610   -3.4700   25.8710 O   0  0  0  0  0  0  0  0  0  0  0  0
    6.6050   -2.6530   26.5400 N   0  0  0  0  0  0  0  0  0  0  0  0
    6.4050   -1.2590   27.0480 C   0  0  0  0  0  0  0  0  0  0  0  0
    5.7210   -0.4130   25.9780 C   0  0  0  0  0  0  0  0  0  0  0  0
    5.6860    0.7950   26.7760 N   0  0  0  0  0  0  0  0  0  0  0  0
    6.0920    1.2220   28.0910 C   0  0  0  0  0  0  0  0  0  0  0  0
    5.8350    2.8640   28.6580 Cl  0  0  0  0  0  0  0  0  0  0  0  0
    6.6740    0.2920   28.8410 C   0  0  0  0  0  0  0  0  0  0  0  0
    6.8750   -0.9590   28.4250 C   0  0  0  0  0  0  0  0  0  0  0  0
    7.4700   -1.8110   29.2750 C   0  0  0  0  0  0  0  0  0  0  0  0
    7.2660   -1.1870   30.5250 O   0  0  0  0  0  0  0  0  0  0  0  0
    7.4150   -2.9620   23.6760 C   0  0  0  0  0  0  0  0  0  0  0  0
    7.5630   -3.0610   22.3070 C   0  0  0  0  0  0  0  0  0  0  0  0
  1  2  1  0
  2  3  2  0
  2  4  1  0
  4  5  1  0
  5  6  1  0
  6  7  1  0
  7  8  1  0
  8  9  2  0
  8 10  1  0
 10 11  1  0
 11 12  2  0
 12 13  1  0
 13 14  2  0
 14 15  1  0
 14 16  1  0
 11 17  1  0
 16 17  2  0
 17 18  1  0
 18 19  1  0
  7 20  1  0
  4 21  1  0
 20 21  1  0
M  END
