piperidine-amides-16210-covalent
     RDKit          3D

 19 20  0  0  0  0  0  0  0  0999 V2000
    7.0860   -3.3480   19.3040 C   0  0  0  0  0  0  0  0  0  0  0  0
    6.3240   -4.1510   20.2890 C   0  0  0  0  0  0  0  0  0  0  0  0
    5.2700   -4.6500   19.9140 O   0  0  0  0  0  0  0  0  0  0  0  0
    6.8450   -4.3500   21.5610 N   0  0  0  0  0  0  0  0  0  0  0  0
    6.6090   -5.5570   22.3180 C   0  0  0  0  0  0  0  0  0  0  0  0
    5.8500   -5.2410   23.5830 C   0  0  0  0  0  0  0  0  0  0  0  0
    5.9490   -3.7480   23.9010 C   0  0  0  0  0  0  0  0  0  0  0  0
    5.4840   -3.5130   25.2840 C   0  0  0  0  0  0  0  0  0  0  0  0
    4.3380   -3.0830   25.4480 O   0  0  0  0  0  0  0  0  0  0  0  0
    6.2830   -3.7640   26.4140 N   0  0  0  0  0  0  0  0  0  0  0  0
    7.0770   -4.9820   26.3170 C   0  0  0  0  0  0  0  0  0  0  0  0
    7.2670   -5.6170   27.6730 C   0  0  0  0  0  0  0  0  0  0  0  0
    6.8080   -5.0160   28.7780 C   0  0  0  0  0  0  0  0  0  0  0  0
    5.7690   -4.1950   28.5470 C   0  0  0  0  0  0  0  0  0  0  0  0
    6.0940   -3.1810   27.7040 C   0  0  2  0  0  0  0  0  0  0  0  0
    5.3030   -1.8880   27.6420 C   0  0  0  0  0  0  0  0  0  0  0  0
    4.0540   -1.9140   28.2190 O   0  0  0  0  0  0  0  0  0  0  0  0
    7.2980   -3.2220   23.6190 C   0  0  0  0  0  0  0  0  0  0  0  0
    7.6070   -3.2840   22.1710 C   0  0  0  0  0  0  0  0  0  0  0  0
  1  2  1  0
  2  3  2  0
  2  4  1  0
  4  5  1  0
  5  6  1  0
  6  7  1  0
  7  8  1  0
  8  9  2  0
  8 10  1  0
 10 11  1  0
 11 12  1  0
 12 13  1  0
 13 14  1  0
 10 15  1  0
 14 15  1  0
 15 16  1  6
 16 17  1  0
  7 18  1  0
  4 19  1  0
 18 19  1  0
M  END
