piperidine-amides-24863-covalent
     RDKit          3D

 24 25  0  0  0  0  0  0  0  0999 V2000
    7.1310   -3.3350   19.3280 C   0  0  0  0  0  0  0  0  0  0  0  0
    6.4040   -4.1480   20.3070 C   0  0  0  0  0  0  0  0  0  0  0  0
    5.3710   -4.7720   19.9720 O   0  0  0  0  0  0  0  0  0  0  0  0
    6.9090   -4.2680   21.6080 N   0  0  0  0  0  0  0  0  0  0  0  0
    7.7210   -3.2000   22.1400 C   0  0  0  0  0  0  0  0  0  0  0  0
    6.9490   -2.6560   23.3370 C   0  0  0  0  0  0  0  0  0  0  0  0
    6.7830   -3.8110   24.2990 C   0  0  0  0  0  0  0  0  0  0  0  0
    6.0230   -3.3260   25.4690 C   0  0  0  0  0  0  0  0  0  0  0  0
    4.7860   -3.5330   25.4820 O   0  0  0  0  0  0  0  0  0  0  0  0
    6.6620   -2.6170   26.5300 N   0  0  0  0  0  0  0  0  0  0  0  0
    7.1290   -3.3040   27.7170 C   0  0  0  0  0  0  0  0  0  0  0  0
    7.1240   -4.7910   27.4830 C   0  0  0  0  0  0  0  0  0  0  0  0
    6.8490   -5.5510   28.6470 O   0  0  0  0  0  0  0  0  0  0  0  0
    7.3970   -5.1830   26.1540 O   0  0  0  0  0  0  0  0  0  0  0  0
    8.7010   -5.4710   25.7970 C   0  0  0  0  0  0  0  0  0  0  0  0
    9.2500   -6.2060   26.7960 C   0  0  0  0  0  0  0  0  0  0  0  0
    6.1110   -1.5620   27.3820 C   0  0  0  0  0  0  0  0  0  0  0  0
    7.1400   -1.4030   28.2710 C   0  0  0  0  0  0  0  0  0  0  0  0
    6.9300   -0.4150   29.4120 C   0  0  0  0  0  0  0  0  0  0  0  0
    6.6530    0.1810   28.0380 C   0  0  0  0  0  0  0  0  0  0  0  0
    5.2900    0.7120   27.6980 C   0  0  0  0  0  0  0  0  0  0  0  0
    5.6960   -0.3800   26.8070 C   0  0  0  0  0  0  0  0  0  0  0  0
    5.9800   -4.9170   23.6490 C   0  0  0  0  0  0  0  0  0  0  0  0
    6.4650   -5.3310   22.4370 C   0  0  0  0  0  0  0  0  0  0  0  0
  1  2  1  0
  2  3  2  0
  2  4  1  0
  4  5  1  0
  5  6  1  0
  6  7  1  0
  7  8  1  0
  8  9  2  0
  8 10  1  0
 10 11  1  0
 11 12  1  0
 12 13  2  0
 12 14  1  0
 14 15  1  0
 15 16  1  0
 10 17  1  0
 17 18  1  0
 18 19  1  0
 19 20  1  0
 20 21  1  0
 17 22  1  0
 21 22  1  0
  7 23  1  0
  4 24  1  0
 23 24  1  0
M  END
