piperidine-amides-11959-covalent
     RDKit          3D

 26 28  0  0  0  0  0  0  0  0999 V2000
    7.0990   -3.3540   19.3620 C   0  0  0  0  0  0  0  0  0  0  0  0
    6.3590   -4.1600   20.3220 C   0  0  0  0  0  0  0  0  0  0  0  0
    5.3520   -4.7740   19.9670 O   0  0  0  0  0  0  0  0  0  0  0  0
    6.8470   -4.2730   21.6680 N   0  0  0  0  0  0  0  0  0  0  0  0
    7.7150   -3.2480   22.1930 C   0  0  0  0  0  0  0  0  0  0  0  0
    7.4580   -3.0450   23.6560 C   0  0  0  0  0  0  0  0  0  0  0  0
    6.0720   -3.5890   23.9460 C   0  0  0  0  0  0  0  0  0  0  0  0
    5.6200   -3.2110   25.3140 C   0  0  0  0  0  0  0  0  0  0  0  0
    4.4210   -3.2310   25.6520 O   0  0  0  0  0  0  0  0  0  0  0  0
    6.6070   -2.8270   26.2430 N   0  0  0  0  0  0  0  0  0  0  0  0
    6.4890   -1.5940   27.0010 C   0  0  0  0  0  0  0  0  0  0  0  0
    6.9950   -1.4570   28.4170 C   0  0  0  0  0  0  0  0  0  0  0  0
    6.8640   -0.2660   29.1110 C   0  0  0  0  0  0  0  0  0  0  0  0
    7.4760   -0.0330   30.9060 Br  0  0  0  0  0  0  0  0  0  0  0  0
    6.2580    0.8400   28.5010 C   0  0  0  0  0  0  0  0  0  0  0  0
    5.7570    0.8430   27.2180 C   0  0  0  0  0  0  0  0  0  0  0  0
    5.8450   -0.3580   26.4140 C   0  0  0  0  0  0  0  0  0  0  0  0
    5.3690   -0.3390   25.2280 O   0  0  0  0  0  0  0  0  0  0  0  0
    6.2200    0.2850   24.3070 C   0  0  0  0  0  0  0  0  0  0  0  0
    5.5040    1.3630   23.8220 C   0  0  2  0  0  0  0  0  0  0  0  0
    5.0410    1.3070   22.4920 C   0  0  0  0  0  0  0  0  0  0  0  0
    5.4230    2.5090   21.7980 C   0  0  0  0  0  0  0  0  0  0  0  0
    6.1030    3.2220   22.7170 O   0  0  0  0  0  0  0  0  0  0  0  0
    6.2190    2.5650   23.9510 C   0  0  0  0  0  0  0  0  0  0  0  0
    6.0550   -5.0840   23.7760 C   0  0  0  0  0  0  0  0  0  0  0  0
    6.5440   -5.4500   22.4080 C   0  0  0  0  0  0  0  0  0  0  0  0
  1  2  1  0
  2  3  2  0
  2  4  1  0
  4  5  1  0
  5  6  1  0
  6  7  1  0
  7  8  1  0
  8  9  2  0
  8 10  1  0
 10 11  1  0
 11 12  2  0
 12 13  1  0
 13 14  1  0
 13 15  2  0
 15 16  1  0
 11 17  1  0
 16 17  2  0
 17 18  1  0
 18 19  1  0
 20 19  1  6
 20 21  1  0
 21 22  1  0
 22 23  1  0
 20 24  1  0
 23 24  1  0
  7 25  1  0
  4 26  1  0
 25 26  1  0
M  END
