piperidine-amides-32264-covalent
     RDKit          3D

 29 31  0  0  0  0  0  0  0  0999 V2000
    7.0700   -3.3350   19.3110 C   0  0  0  0  0  0  0  0  0  0  0  0
    6.3800   -4.2060   20.3040 C   0  0  0  0  0  0  0  0  0  0  0  0
    5.3370   -4.7840   19.9620 O   0  0  0  0  0  0  0  0  0  0  0  0
    6.9490   -4.4050   21.5780 N   0  0  0  0  0  0  0  0  0  0  0  0
    6.5960   -5.5350   22.3920 C   0  0  0  0  0  0  0  0  0  0  0  0
    5.8110   -4.9740   23.5840 C   0  0  0  0  0  0  0  0  0  0  0  0
    6.6560   -3.9220   24.2480 C   0  0  0  0  0  0  0  0  0  0  0  0
    6.0490   -3.3880   25.4870 C   0  0  0  0  0  0  0  0  0  0  0  0
    4.8200   -3.2260   25.4720 O   0  0  0  0  0  0  0  0  0  0  0  0
    6.8660   -3.0840   26.5870 N   0  0  0  0  0  0  0  0  0  0  0  0
    7.6970   -4.0420   27.2390 C   0  0  0  0  0  0  0  0  0  0  0  0
    6.7620   -1.7940   27.2060 C   0  0  0  0  0  0  0  0  0  0  0  0
    7.3450   -1.5420   28.4680 C   0  0  0  0  0  0  0  0  0  0  0  0
    7.2580   -0.3240   29.0900 C   0  0  0  0  0  0  0  0  0  0  0  0
    7.8340    0.0140   30.4100 C   0  0  0  0  0  0  0  0  0  0  0  0
    6.9290    0.8770   31.0720 N   0  0  0  0  0  0  0  0  0  0  0  0
    5.6280    0.3590   31.3930 C   0  0  0  0  0  0  0  0  0  0  0  0
    7.4600    1.8980   31.8930 C   0  0  0  0  0  0  0  0  0  0  0  0
    8.6060    1.4040   32.4680 C   0  0  0  0  0  0  0  0  0  0  0  0
    8.6900    1.0100   33.8810 C   0  0  0  0  0  0  0  0  0  0  0  0
   10.1250    0.4880   34.1900 C   0  0  0  0  0  0  0  0  0  0  0  0
   11.3950    0.2510   33.5990 C   0  0  0  0  0  0  0  0  0  0  0  0
   10.9760    0.7470   32.1930 C   0  0  0  0  0  0  0  0  0  0  0  0
    9.6890    1.2680   31.7190 C   0  0  0  0  0  0  0  0  0  0  0  0
    6.6030    0.7380   28.5290 C   0  0  0  0  0  0  0  0  0  0  0  0
    5.9990    0.4760   27.2130 C   0  0  0  0  0  0  0  0  0  0  0  0
    6.0990   -0.7280   26.6290 N   0  0  0  0  0  0  0  0  0  0  0  0
    7.0130   -2.7990   23.2960 C   0  0  0  0  0  0  0  0  0  0  0  0
    7.6760   -3.3270   22.2340 C   0  0  0  0  0  0  0  0  0  0  0  0
  1  2  1  0
  2  3  2  0
  2  4  1  0
  4  5  1  0
  5  6  1  0
  6  7  1  0
  7  8  1  0
  8  9  2  0
  8 10  1  0
 10 11  1  0
 10 12  1  0
 12 13  2  0
 13 14  1  0
 14 15  1  0
 15 16  1  0
 16 17  1  0
 16 18  1  0
 18 19  1  0
 19 20  2  0
 20 21  1  0
 21 22  2  0
 22 23  1  0
 19 24  1  0
 23 24  2  0
 14 25  2  0
 25 26  1  0
 12 27  1  0
 26 27  2  0
  7 28  1  0
  4 29  1  0
 28 29  1  0
M  END
