piperidine-amides-3539-covalent
     RDKit          3D

 19 19  0  0  0  0  0  0  0  0999 V2000
    7.1120   -3.2650   19.1390 C   0  0  0  0  0  0  0  0  0  0  0  0
    6.3240   -3.9960   20.1280 C   0  0  0  0  0  0  0  0  0  0  0  0
    5.2250   -4.4510   19.8350 O   0  0  0  0  0  0  0  0  0  0  0  0
    6.8560   -4.2510   21.4290 N   0  0  0  0  0  0  0  0  0  0  0  0
    7.6900   -3.2710   22.0820 C   0  0  0  0  0  0  0  0  0  0  0  0
    7.0230   -2.7800   23.3180 C   0  0  0  0  0  0  0  0  0  0  0  0
    6.5670   -4.0010   24.0860 C   0  0  0  0  0  0  0  0  0  0  0  0
    5.8350   -3.5450   25.2730 C   0  0  0  0  0  0  0  0  0  0  0  0
    4.5910   -3.5390   25.3770 O   0  0  0  0  0  0  0  0  0  0  0  0
    6.6530   -3.0850   26.3070 N   0  0  0  0  0  0  0  0  0  0  0  0
    6.3740   -3.3890   27.6760 C   0  0  2  0  0  0  0  0  0  0  0  0
    5.3830   -4.5260   27.7680 C   0  0  0  0  0  0  0  0  0  0  0  0
    5.6950   -5.7490   27.2000 C   0  0  0  0  0  0  0  0  0  0  0  0
    5.9760   -2.1160   28.2570 C   0  0  2  0  0  0  0  0  0  0  0  0
    6.3460   -0.9980   27.4810 O   0  0  0  0  0  0  0  0  0  0  0  0
    6.2900   -1.9160   29.5670 C   0  0  0  0  0  0  0  0  0  0  0  0
    7.4790   -1.1180   29.8530 C   0  0  0  0  0  0  0  0  0  0  0  0
    5.7610   -4.9900   23.2950 C   0  0  0  0  0  0  0  0  0  0  0  0
    6.4570   -5.4330   22.1950 C   0  0  0  0  0  0  0  0  0  0  0  0
  1  2  1  0
  2  3  2  0
  2  4  1  0
  4  5  1  0
  5  6  1  0
  6  7  1  0
  7  8  1  0
  8  9  2  0
  8 10  1  0
 10 11  1  0
 11 12  1  6
 12 13  1  0
 11 14  1  0
 14 15  1  6
 14 16  1  0
 16 17  1  0
  7 18  1  0
  4 19  1  0
 18 19  1  0
M  END
