piperidine-amides-24527-covalent
     RDKit          3D

 24 26  0  0  0  0  0  0  0  0999 V2000
    7.1020   -3.3640   19.3690 C   0  0  0  0  0  0  0  0  0  0  0  0
    6.4050   -4.2320   20.3210 C   0  0  0  0  0  0  0  0  0  0  0  0
    5.3600   -4.8270   19.9780 O   0  0  0  0  0  0  0  0  0  0  0  0
    6.9390   -4.4540   21.5950 N   0  0  0  0  0  0  0  0  0  0  0  0
    6.4840   -5.5940   22.3320 C   0  0  0  0  0  0  0  0  0  0  0  0
    5.5210   -5.0030   23.3610 C   0  0  0  0  0  0  0  0  0  0  0  0
    6.3370   -4.0710   24.2380 C   0  0  0  0  0  0  0  0  0  0  0  0
    5.4290   -3.3860   25.1890 C   0  0  0  0  0  0  0  0  0  0  0  0
    4.7000   -2.4870   24.7380 O   0  0  0  0  0  0  0  0  0  0  0  0
    5.3900   -3.7260   26.5640 N   0  0  0  0  0  0  0  0  0  0  0  0
    6.4210   -3.2800   27.3580 C   0  0  0  0  0  0  0  0  0  0  0  0
    6.6300   -4.3940   28.3600 C   0  0  0  0  0  0  0  0  0  0  0  0
    5.6370   -4.5130   29.2530 C   0  0  2  0  0  0  0  0  0  0  0  0
    5.5920   -5.6610   29.9880 C   0  0  0  0  0  0  0  0  0  0  0  0
    4.6420   -5.8510   30.9810 O   0  0  0  0  0  0  0  0  0  0  0  0
    6.4820   -6.6420   29.7480 O   0  0  0  0  0  0  0  0  0  0  0  0
    5.9300   -7.8970   29.7090 C   0  0  0  0  0  0  0  0  0  0  0  0
    4.4060   -4.1640   28.7010 C   0  0  0  0  0  0  0  0  0  0  0  0
    4.1330   -3.6540   27.2870 C   0  0  0  0  0  0  0  0  0  0  0  0
    3.6530   -4.9120   27.6060 C   0  0  0  0  0  0  0  0  0  0  0  0
    2.2580   -4.5680   27.2370 C   0  0  0  0  0  0  0  0  0  0  0  0
    2.9490   -3.3090   26.5520 C   0  0  0  0  0  0  0  0  0  0  0  0
    7.0200   -3.0020   23.4190 C   0  0  0  0  0  0  0  0  0  0  0  0
    7.6170   -3.3900   22.2550 C   0  0  0  0  0  0  0  0  0  0  0  0
  1  2  1  0
  2  3  2  0
  2  4  1  0
  4  5  1  0
  5  6  1  0
  6  7  1  0
  7  8  1  0
  8  9  2  0
  8 10  1  0
 10 11  1  0
 11 12  1  0
 12 13  1  0
 13 14  1  6
 14 15  2  0
 14 16  1  0
 16 17  1  0
 13 18  1  0
 19 10  1  0
 18 19  1  0
 19 20  1  0
 20 21  1  0
 19 22  1  0
 21 22  1  0
  7 23  1  0
  4 24  1  0
 23 24  1  0
M  END
