piperidine-amides-1312-covalent
     RDKit          3D

 22 22  0  0  0  0  0  0  0  0999 V2000
    7.1440   -3.2750   19.2430 C   0  0  0  0  0  0  0  0  0  0  0  0
    6.3200   -4.0190   20.2290 C   0  0  0  0  0  0  0  0  0  0  0  0
    5.2420   -4.5170   19.8690 O   0  0  0  0  0  0  0  0  0  0  0  0
    6.8050   -4.1920   21.5380 N   0  0  0  0  0  0  0  0  0  0  0  0
    6.6590   -5.4380   22.2490 C   0  0  0  0  0  0  0  0  0  0  0  0
    5.8620   -5.1470   23.5290 C   0  0  0  0  0  0  0  0  0  0  0  0
    6.0820   -3.7190   23.9000 C   0  0  0  0  0  0  0  0  0  0  0  0
    5.7190   -3.4170   25.3030 C   0  0  0  0  0  0  0  0  0  0  0  0
    4.5460   -3.0850   25.5030 O   0  0  0  0  0  0  0  0  0  0  0  0
    6.6780   -3.5050   26.3190 N   0  0  0  0  0  0  0  0  0  0  0  0
    7.1130   -4.6410   27.0560 C   0  0  0  0  0  0  0  0  0  0  0  0
    7.9280   -4.3460   28.0960 C   0  0  0  0  0  0  0  0  0  0  0  0
    8.0050   -2.9660   28.3680 C   0  0  0  0  0  0  0  0  0  0  0  0
    7.8460   -5.6440   26.3760 C   0  0  0  0  0  0  0  0  0  0  0  0
    9.3100   -5.7120   26.5800 C   0  0  0  0  0  0  0  0  0  0  0  0
    6.0300   -5.4060   27.5270 C   0  0  0  0  0  0  0  0  0  0  0  0
    4.5640   -4.9740   27.4700 C   0  0  0  0  0  0  0  0  0  0  0  0
    4.3830   -3.6420   27.7950 O   0  0  0  0  0  0  0  0  0  0  0  0
    3.5330   -5.8400   27.1450 O   0  0  0  0  0  0  0  0  0  0  0  0
    3.7580   -7.2300   27.2530 C   0  0  0  0  0  0  0  0  0  0  0  0
    7.4500   -3.2030   23.6240 C   0  0  0  0  0  0  0  0  0  0  0  0
    7.6370   -3.1620   22.1260 C   0  0  0  0  0  0  0  0  0  0  0  0
  1  2  1  0
  2  3  2  0
  2  4  1  0
  4  5  1  0
  5  6  1  0
  6  7  1  0
  7  8  1  0
  8  9  2  0
  8 10  1  0
 11 10  1  0
 11 12  1  0
 12 13  1  0
 11 14  1  0
 14 15  1  0
 11 16  1  0
 16 17  1  0
 17 18  2  0
 17 19  1  0
 19 20  1  0
  7 21  1  0
  4 22  1  0
 21 22  1  0
M  END
