piperidine-amides-966-covalent
     RDKit          3D

 24 26  0  0  0  0  0  0  0  0999 V2000
    7.1450   -3.3390   19.2860 C   0  0  0  0  0  0  0  0  0  0  0  0
    6.4400   -4.2020   20.2660 C   0  0  0  0  0  0  0  0  0  0  0  0
    5.3570   -4.7240   19.9490 O   0  0  0  0  0  0  0  0  0  0  0  0
    7.0600   -4.4550   21.5010 N   0  0  0  0  0  0  0  0  0  0  0  0
    7.7770   -3.4150   22.1830 C   0  0  0  0  0  0  0  0  0  0  0  0
    6.7350   -2.7720   23.0800 C   0  0  0  0  0  0  0  0  0  0  0  0
    6.3270   -3.8020   24.0810 C   0  0  0  0  0  0  0  0  0  0  0  0
    5.5600   -3.1670   25.1440 C   0  0  0  0  0  0  0  0  0  0  0  0
    4.3890   -2.8590   24.8960 O   0  0  0  0  0  0  0  0  0  0  0  0
    6.1730   -2.9610   26.3520 N   0  0  0  0  0  0  0  0  0  0  0  0
    6.2270   -1.7640   27.0850 C   0  0  0  0  0  0  0  0  0  0  0  0
    6.3420   -0.4520   26.6570 C   0  0  0  0  0  0  0  0  0  0  0  0
    6.3890    0.6500   27.5520 C   0  0  0  0  0  0  0  0  0  0  0  0
    6.4910    1.8940   27.0160 F   0  0  0  0  0  0  0  0  0  0  0  0
    6.3360    0.4550   28.9170 C   0  0  0  0  0  0  0  0  0  0  0  0
    6.2090   -0.9330   29.4160 C   0  0  0  0  0  0  0  0  0  0  0  0
    6.1410   -2.0700   28.4130 C   0  0  0  0  0  0  0  0  0  0  0  0
    5.9620   -3.4670   28.7330 N   0  0  0  0  0  0  0  0  0  0  0  0
    6.9320   -4.4670   28.9570 C   0  0  0  0  0  0  0  0  0  0  0  0
    6.2670   -5.6200   29.1970 C   0  0  0  0  0  0  0  0  0  0  0  0
    4.8110   -5.5440   29.1710 C   0  0  0  0  0  0  0  0  0  0  0  0
    4.6540   -4.0540   28.8510 C   0  0  0  0  0  0  0  0  0  0  0  0
    5.6500   -4.9260   23.4100 C   0  0  0  0  0  0  0  0  0  0  0  0
    6.5550   -5.5080   22.3200 C   0  0  0  0  0  0  0  0  0  0  0  0
  1  2  1  0
  2  3  2  0
  2  4  1  0
  4  5  1  0
  5  6  1  0
  6  7  1  0
  7  8  1  0
  8  9  2  0
  8 10  1  0
 10 11  1  0
 11 12  2  0
 12 13  1  0
 13 14  1  0
 13 15  2  0
 15 16  1  0
 11 17  1  0
 16 17  2  0
 17 18  1  0
 18 19  1  0
 19 20  2  0
 20 21  1  0
 18 22  1  0
 21 22  2  0
  7 23  1  0
  4 24  1  0
 23 24  1  0
M  END
