piperidine-amides-19084-covalent
     RDKit          3D

 22 24  0  0  0  0  0  0  0  0999 V2000
    7.0730   -3.4000   19.3540 C   0  0  0  0  0  0  0  0  0  0  0  0
    6.4140   -4.2020   20.3560 C   0  0  0  0  0  0  0  0  0  0  0  0
    5.3690   -4.8260   19.9880 O   0  0  0  0  0  0  0  0  0  0  0  0
    6.9040   -4.3780   21.6760 N   0  0  0  0  0  0  0  0  0  0  0  0
    6.5390   -5.6190   22.3780 C   0  0  0  0  0  0  0  0  0  0  0  0
    5.4830   -5.0020   23.3640 C   0  0  0  0  0  0  0  0  0  0  0  0
    6.2700   -4.0060   24.2010 C   0  0  0  0  0  0  0  0  0  0  0  0
    5.3670   -3.4350   25.4350 C   0  0  0  0  0  0  0  0  0  0  0  0
    4.4210   -2.8270   24.9390 O   0  0  0  0  0  0  0  0  0  0  0  0
    5.8000   -3.7300   26.6510 N   0  0  0  0  0  0  0  0  0  0  0  0
    6.2830   -4.2090   27.8510 C   0  0  0  0  0  0  0  0  0  0  0  0
    6.6620   -5.3890   28.4230 C   0  0  0  0  0  0  0  0  0  0  0  0
    5.6050   -5.8780   29.1830 C   0  0  0  0  0  0  0  0  0  0  0  0
    4.3840   -5.0330   29.0900 C   0  0  0  0  0  0  0  0  0  0  0  0
    5.0760   -4.2080   27.9870 C   0  0  0  0  0  0  0  0  0  0  0  0
    5.3120   -5.0760   26.9190 C   0  0  0  0  0  0  0  0  0  0  0  0
    5.9390   -4.8310   25.6250 C   0  0  0  0  0  0  0  0  0  0  0  0
    6.3110   -3.2520   25.7400 C   0  0  0  0  0  0  0  0  0  0  0  0
    6.0640   -2.2270   26.9080 C   0  0  0  0  0  0  0  0  0  0  0  0
    5.4830   -2.9260   27.8100 C   0  0  0  0  0  0  0  0  0  0  0  0
    6.9080   -2.8860   23.3660 C   0  0  0  0  0  0  0  0  0  0  0  0
    7.6910   -3.3810   22.3640 C   0  0  0  0  0  0  0  0  0  0  0  0
  1  2  1  0
  2  3  2  0
  2  4  1  0
  4  5  1  0
  5  6  1  0
  6  7  1  0
  7  8  1  0
  8  9  2  0
  8 10  1  0
 10 11  1  0
 11 12  1  0
 12 13  1  0
 13 14  1  0
 14 15  1  0
 15 16  1  0
 16 17  2  0
 17 18  1  0
 18 19  2  0
 10 20  1  0
 15 20  2  0
 19 20  1  0
  7 21  1  0
  4 22  1  0
 21 22  1  0
M  END
