piperidine-amides-13076-covalent
     RDKit          3D

 20 20  0  0  0  0  0  0  0  0999 V2000
    7.0810   -3.2590   19.1370 C   0  0  0  0  0  0  0  0  0  0  0  0
    6.2980   -3.9740   20.1770 C   0  0  0  0  0  0  0  0  0  0  0  0
    5.2110   -4.4590   19.8280 O   0  0  0  0  0  0  0  0  0  0  0  0
    6.7820   -4.1430   21.4720 N   0  0  0  0  0  0  0  0  0  0  0  0
    7.4310   -3.0500   22.1140 C   0  0  0  0  0  0  0  0  0  0  0  0
    6.8620   -2.6580   23.4070 C   0  0  0  0  0  0  0  0  0  0  0  0
    6.1980   -3.7450   24.1740 C   0  0  0  0  0  0  0  0  0  0  0  0
    5.3840   -3.1790   25.2820 C   0  0  0  0  0  0  0  0  0  0  0  0
    4.2400   -2.7740   25.0190 O   0  0  0  0  0  0  0  0  0  0  0  0
    5.8790   -3.1020   26.6060 N   0  0  0  0  0  0  0  0  0  0  0  0
    5.8990   -4.2840   27.5020 C   0  0  0  0  0  0  0  0  0  0  0  0
    6.9910   -4.2310   28.5000 C   0  0  0  0  0  0  0  0  0  0  0  0
    8.1880   -4.9500   28.1730 C   0  0  0  0  0  0  0  0  0  0  0  0
    8.4830   -4.6060   26.8270 N   0  0  0  0  0  0  0  0  0  0  0  0
    8.2050   -3.3500   26.2250 C   0  0  0  0  0  0  0  0  0  0  0  0
    8.9280   -5.6490   25.9580 C   0  0  0  0  0  0  0  0  0  0  0  0
    8.1690   -5.6440   24.8480 C   0  0  0  0  0  0  0  0  0  0  0  0
    8.1910   -4.5320   24.0670 C   0  0  0  0  0  0  0  0  0  0  0  0
    5.4660   -4.7440   23.3490 C   0  0  0  0  0  0  0  0  0  0  0  0
    6.2220   -5.2080   22.2700 C   0  0  0  0  0  0  0  0  0  0  0  0
  1  2  1  0
  2  3  2  0
  2  4  1  0
  4  5  1  0
  5  6  1  0
  6  7  1  0
  7  8  1  0
  8  9  2  0
  8 10  1  0
 10 11  1  0
 11 12  1  0
 12 13  1  0
 13 14  1  0
 14 15  1  0
 14 16  1  0
 16 17  1  0
 17 18  3  0
  7 19  1  0
  4 20  1  0
 19 20  1  0
M  END
