piperidine-amides-10958-covalent
     RDKit          3D

 21 22  0  0  0  0  0  0  0  0999 V2000
    7.1110   -3.2680   19.2200 C   0  0  0  0  0  0  0  0  0  0  0  0
    6.3510   -4.0240   20.2180 C   0  0  0  0  0  0  0  0  0  0  0  0
    5.2780   -4.5500   19.8840 O   0  0  0  0  0  0  0  0  0  0  0  0
    6.8240   -4.2220   21.5220 N   0  0  0  0  0  0  0  0  0  0  0  0
    6.5640   -5.4270   22.2730 C   0  0  0  0  0  0  0  0  0  0  0  0
    5.8150   -4.9780   23.5000 C   0  0  0  0  0  0  0  0  0  0  0  0
    6.5430   -3.8770   24.2160 C   0  0  0  0  0  0  0  0  0  0  0  0
    5.8060   -3.4080   25.4150 C   0  0  0  0  0  0  0  0  0  0  0  0
    4.5520   -3.2310   25.3570 O   0  0  0  0  0  0  0  0  0  0  0  0
    6.4420   -3.1240   26.6470 N   0  0  0  0  0  0  0  0  0  0  0  0
    6.2120   -3.9490   27.8680 C   0  0  2  0  0  0  0  0  0  0  0  0
    5.9680   -5.3720   27.5030 C   0  0  0  0  0  0  0  0  0  0  0  0
    4.9930   -3.3960   28.6280 C   0  0  0  0  0  0  0  0  0  0  0  0
    3.9040   -4.4150   28.6500 C   0  0  0  0  0  0  0  0  0  0  0  0
    2.6300   -4.0130   29.3720 C   0  0  0  0  0  0  0  0  0  0  0  0
    2.5620   -2.6630   29.9900 N   0  0  0  0  0  0  0  0  0  0  0  0
    3.7420   -1.8040   29.8590 C   0  0  0  0  0  0  0  0  0  0  0  0
    4.8930   -2.1590   29.2100 C   0  0  0  0  0  0  0  0  0  0  0  0
    6.3150   -0.9150   29.1480 Br  0  0  0  0  0  0  0  0  0  0  0  0
    6.8150   -2.7070   23.3120 C   0  0  0  0  0  0  0  0  0  0  0  0
    7.6480   -3.2130   22.1640 C   0  0  0  0  0  0  0  0  0  0  0  0
  1  2  1  0
  2  3  2  0
  2  4  1  0
  4  5  1  0
  5  6  1  0
  6  7  1  0
  7  8  1  0
  8  9  2  0
  8 10  1  0
 10 11  1  0
 11 12  1  6
 11 13  1  0
 13 14  2  0
 14 15  1  0
 15 16  2  0
 16 17  1  0
 13 18  1  0
 17 18  2  0
 18 19  1  0
  7 20  1  0
  4 21  1  0
 20 21  1  0
M  END
