piperidine-amides-11026-covalent
     RDKit          3D

 21 21  0  0  0  0  0  0  0  0999 V2000
    7.1110   -3.2700   19.2070 C   0  0  0  0  0  0  0  0  0  0  0  0
    6.3460   -4.0240   20.2050 C   0  0  0  0  0  0  0  0  0  0  0  0
    5.2680   -4.5360   19.8770 O   0  0  0  0  0  0  0  0  0  0  0  0
    6.8260   -4.2370   21.5070 N   0  0  0  0  0  0  0  0  0  0  0  0
    6.4910   -5.4330   22.2290 C   0  0  0  0  0  0  0  0  0  0  0  0
    5.7910   -4.9400   23.4680 C   0  0  0  0  0  0  0  0  0  0  0  0
    6.5730   -3.8550   24.1610 C   0  0  0  0  0  0  0  0  0  0  0  0
    5.8740   -3.3250   25.3610 C   0  0  0  0  0  0  0  0  0  0  0  0
    4.6210   -3.1410   25.3370 O   0  0  0  0  0  0  0  0  0  0  0  0
    6.5520   -2.9820   26.5540 N   0  0  0  0  0  0  0  0  0  0  0  0
    6.2310   -3.6080   27.8660 C   0  0  0  0  0  0  0  0  0  0  0  0
    5.7280   -4.9930   27.6930 C   0  0  0  0  0  0  0  0  0  0  0  0
    4.5250   -5.3550   28.4820 C   0  0  1  0  0  0  0  0  0  0  0  0
    3.6190   -4.6010   28.0760 O   0  0  0  0  0  0  0  0  0  0  0  0
    2.8290   -4.0800   29.0990 C   0  0  0  0  0  0  0  0  0  0  0  0
    3.9810   -6.7480   28.5290 C   0  0  0  0  0  0  0  0  0  0  0  0
    3.3640   -6.9790   27.2510 F   0  0  0  0  0  0  0  0  0  0  0  0
    3.1250   -6.9670   29.5410 F   0  0  0  0  0  0  0  0  0  0  0  0
    4.9880   -7.7130   28.5310 F   0  0  0  0  0  0  0  0  0  0  0  0
    6.8350   -2.7320   23.2220 C   0  0  0  0  0  0  0  0  0  0  0  0
    7.5320   -3.1520   22.1230 C   0  0  0  0  0  0  0  0  0  0  0  0
  1  2  1  0
  2  3  2  0
  2  4  1  0
  4  5  1  0
  5  6  1  0
  6  7  1  0
  7  8  1  0
  8  9  2  0
  8 10  1  0
 10 11  1  0
 11 12  1  0
 13 12  1  6
 13 14  1  0
 14 15  1  0
 13 16  1  0
 16 17  1  0
 16 18  1  0
 16 19  1  0
  7 20  1  0
  4 21  1  0
 20 21  1  0
M  END
