piperidine-amides-24593-covalent
     RDKit          3D

 23 24  0  0  0  0  0  0  0  0999 V2000
    7.1370   -3.2750   19.2320 C   0  0  0  0  0  0  0  0  0  0  0  0
    6.4140   -4.0680   20.2370 C   0  0  0  0  0  0  0  0  0  0  0  0
    5.3600   -4.6730   19.9370 O   0  0  0  0  0  0  0  0  0  0  0  0
    6.9400   -4.1900   21.5290 N   0  0  0  0  0  0  0  0  0  0  0  0
    7.7670   -3.1020   22.0350 C   0  0  0  0  0  0  0  0  0  0  0  0
    7.4390   -2.9310   23.5180 C   0  0  0  0  0  0  0  0  0  0  0  0
    6.0390   -3.4600   23.6700 C   0  0  0  0  0  0  0  0  0  0  0  0
    5.4870   -3.1040   24.9780 C   0  0  0  0  0  0  0  0  0  0  0  0
    4.3970   -2.5050   25.0170 O   0  0  0  0  0  0  0  0  0  0  0  0
    6.1770   -3.4540   26.1370 N   0  0  0  0  0  0  0  0  0  0  0  0
    6.5440   -2.3860   27.0410 C   0  0  0  0  0  0  0  0  0  0  0  0
    5.3170   -1.5850   27.4210 C   0  0  0  0  0  0  0  0  0  0  0  0
    4.1980   -2.1330   28.0310 C   0  0  0  0  0  0  0  0  0  0  0  0
    3.1750   -1.2750   28.3110 C   0  0  0  0  0  0  0  0  0  0  0  0
    3.4110    0.0200   27.9420 C   0  0  0  0  0  0  0  0  0  0  0  0
    2.4880    1.0200   28.1470 C   0  0  0  0  0  0  0  0  0  0  0  0
    4.9920    0.0880   27.2280 S   0  0  0  0  0  0  0  0  0  0  0  0
    5.8340   -4.8100   26.6070 C   0  0  0  0  0  0  0  0  0  0  0  0
    5.7820   -4.9270   28.0850 C   0  0  0  0  0  0  0  0  0  0  0  0
    6.7890   -4.1450   28.8110 C   0  0  0  0  0  0  0  0  0  0  0  0
    6.9030   -5.6590   28.8070 C   0  0  0  0  0  0  0  0  0  0  0  0
    6.0730   -4.9500   23.5170 C   0  0  0  0  0  0  0  0  0  0  0  0
    6.5900   -5.3260   22.3160 C   0  0  0  0  0  0  0  0  0  0  0  0
  1  2  1  0
  2  3  2  0
  2  4  1  0
  4  5  1  0
  5  6  1  0
  6  7  1  0
  7  8  1  0
  8  9  2  0
  8 10  1  0
 10 11  1  0
 11 12  1  0
 12 13  2  0
 13 14  1  0
 14 15  2  0
 15 16  1  0
 12 17  1  0
 15 17  1  0
 10 18  1  0
 18 19  1  0
 19 20  1  0
 19 21  1  0
  7 22  1  0
  4 23  1  0
 22 23  1  0
M  END
