piperidine-amides-27594-covalent
     RDKit          3D

 26 28  0  0  0  0  0  0  0  0999 V2000
    7.0560   -3.3840   19.4000 C   0  0  0  0  0  0  0  0  0  0  0  0
    6.3630   -4.2140   20.3830 C   0  0  0  0  0  0  0  0  0  0  0  0
    5.3430   -4.8270   19.9720 O   0  0  0  0  0  0  0  0  0  0  0  0
    6.8640   -4.3410   21.6830 N   0  0  0  0  0  0  0  0  0  0  0  0
    6.5980   -5.5120   22.4840 C   0  0  0  0  0  0  0  0  0  0  0  0
    5.8140   -5.0770   23.6960 C   0  0  0  0  0  0  0  0  0  0  0  0
    6.3420   -3.8040   24.3240 C   0  0  0  0  0  0  0  0  0  0  0  0
    5.3180   -3.2190   25.2530 C   0  0  0  0  0  0  0  0  0  0  0  0
    4.3950   -2.5800   24.7330 O   0  0  0  0  0  0  0  0  0  0  0  0
    5.3290   -3.3510   26.6760 N   0  0  0  0  0  0  0  0  0  0  0  0
    6.5030   -3.4870   27.3940 C   0  0  0  0  0  0  0  0  0  0  0  0
    6.5310   -4.8520   28.1220 C   0  0  0  0  0  0  0  0  0  0  0  0
    5.2830   -4.8860   28.9160 N   0  0  0  0  0  0  0  0  0  0  0  0
    4.4370   -5.9140   28.8760 C   0  0  0  0  0  0  0  0  0  0  0  0
    3.8380   -6.2820   27.7320 N   0  0  0  0  0  0  0  0  0  0  0  0
    2.9580   -7.2870   27.5840 C   0  0  0  0  0  0  0  0  0  0  0  0
    2.6920   -7.9590   28.7580 C   0  0  0  0  0  0  0  0  0  0  0  0
    3.1890   -7.7490   30.0030 N   0  0  0  0  0  0  0  0  0  0  0  0
    4.1280   -6.6400   30.0140 C   0  0  0  0  0  0  0  0  0  0  0  0
    4.4810   -6.6340   31.3460 C   0  0  0  0  0  0  0  0  0  0  0  0
    5.4250   -7.1940   32.0930 N   0  0  0  0  0  0  0  0  0  0  0  0
    4.6100   -3.7420   28.9370 C   0  0  0  0  0  0  0  0  0  0  0  0
    4.2670   -3.1470   27.5670 C   0  0  2  0  0  0  0  0  0  0  0  0
    2.9800   -3.5820   26.9000 C   0  0  0  0  0  0  0  0  0  0  0  0
    6.7060   -2.7770   23.2840 C   0  0  0  0  0  0  0  0  0  0  0  0
    7.5990   -3.2710   22.3550 C   0  0  0  0  0  0  0  0  0  0  0  0
  1  2  1  0
  2  3  2  0
  2  4  1  0
  4  5  1  0
  5  6  1  0
  6  7  1  0
  7  8  1  0
  8  9  2  0
  8 10  1  0
 10 11  1  0
 11 12  1  0
 12 13  1  0
 13 14  1  0
 14 15  2  0
 15 16  1  0
 16 17  2  0
 17 18  1  0
 14 19  1  0
 18 19  2  0
 19 20  1  0
 20 21  3  0
 13 22  1  0
 10 23  1  0
 22 23  1  0
 23 24  1  6
  7 25  1  0
  4 26  1  0
 25 26  1  0
M  END
