piperidine-amides-28800-covalent
     RDKit          3D

 26 28  0  0  0  0  0  0  0  0999 V2000
    6.9400   -3.3640   19.4330 C   0  0  0  0  0  0  0  0  0  0  0  0
    6.3130   -4.2480   20.4250 C   0  0  0  0  0  0  0  0  0  0  0  0
    5.4090   -4.9930   20.0050 O   0  0  0  0  0  0  0  0  0  0  0  0
    6.7190   -4.2900   21.8000 N   0  0  0  0  0  0  0  0  0  0  0  0
    6.5120   -5.5390   22.4900 C   0  0  0  0  0  0  0  0  0  0  0  0
    6.3590   -5.3740   23.9900 C   0  0  0  0  0  0  0  0  0  0  0  0
    6.1590   -3.9110   24.3330 C   0  0  0  0  0  0  0  0  0  0  0  0
    5.7530   -3.5940   25.7980 C   0  0  0  0  0  0  0  0  0  0  0  0
    4.9940   -2.6280   25.8590 O   0  0  0  0  0  0  0  0  0  0  0  0
    6.1550   -4.3180   26.9860 N   0  0  0  0  0  0  0  0  0  0  0  0
    5.9120   -3.8660   28.3280 C   0  0  0  0  0  0  0  0  0  0  0  0
    5.0280   -4.6720   29.1380 C   0  0  0  0  0  0  0  0  0  0  0  0
    5.3820   -5.8910   29.7900 C   0  0  0  0  0  0  0  0  0  0  0  0
    6.2830   -6.7380   29.1280 N   0  0  0  0  0  0  0  0  0  0  0  0
    6.0980   -8.1850   29.5040 C   0  0  0  0  0  0  0  0  0  0  0  0
    7.1300   -9.2180   30.2690 C   0  0  0  0  0  0  0  0  0  0  0  0
    6.8610   -8.7420   31.5150 O   0  0  0  0  0  0  0  0  0  0  0  0
    7.6270  -10.7340   30.1700 N   0  0  0  0  0  0  0  0  0  0  0  0
    8.6740  -11.1820   29.4470 C   0  0  0  0  0  0  0  0  0  0  0  0
    9.6420  -12.0720   30.1950 C   0  0  0  0  0  0  0  0  0  0  0  0
    8.9860  -12.4250   31.5350 C   0  0  0  0  0  0  0  0  0  0  0  0
    7.5680  -11.7010   31.4570 C   0  0  0  0  0  0  0  0  0  0  0  0
    6.9920   -6.2260   28.0170 C   0  0  0  0  0  0  0  0  0  0  0  0
    6.2530   -5.7300   26.9330 C   0  0  0  0  0  0  0  0  0  0  0  0
    7.3040   -3.0700   23.8510 C   0  0  0  0  0  0  0  0  0  0  0  0
    7.5770   -3.2760   22.3750 C   0  0  0  0  0  0  0  0  0  0  0  0
  1  2  1  0
  2  3  2  0
  2  4  1  0
  4  5  1  0
  5  6  1  0
  6  7  1  0
  7  8  1  0
  8  9  2  0
  8 10  1  0
 10 11  1  0
 11 12  1  0
 12 13  1  0
 13 14  1  0
 14 15  1  0
 15 16  1  0
 16 17  2  0
 16 18  1  0
 18 19  1  0
 19 20  1  0
 20 21  1  0
 18 22  1  0
 21 22  1  0
 14 23  1  0
 10 24  1  0
 23 24  1  0
  7 25  1  0
  4 26  1  0
 25 26  1  0
M  END
