piperidine-amides-3527-covalent
     RDKit          3D

 19 20  0  0  0  0  0  0  0  0999 V2000
    7.1240   -3.2530   19.2150 C   0  0  0  0  0  0  0  0  0  0  0  0
    6.3400   -3.9930   20.2020 C   0  0  0  0  0  0  0  0  0  0  0  0
    5.2880   -4.5400   19.8770 O   0  0  0  0  0  0  0  0  0  0  0  0
    6.8230   -4.1200   21.5460 N   0  0  0  0  0  0  0  0  0  0  0  0
    7.6920   -3.1060   22.0800 C   0  0  0  0  0  0  0  0  0  0  0  0
    7.2680   -2.7880   23.4740 C   0  0  0  0  0  0  0  0  0  0  0  0
    5.9310   -3.4870   23.6890 C   0  0  0  0  0  0  0  0  0  0  0  0
    5.3370   -3.1180   25.0020 C   0  0  0  0  0  0  0  0  0  0  0  0
    4.1210   -2.8970   25.1460 O   0  0  0  0  0  0  0  0  0  0  0  0
    6.1690   -3.0250   26.1350 N   0  0  0  0  0  0  0  0  0  0  0  0
    6.0110   -4.0520   27.1210 C   0  0  0  0  0  0  0  0  0  0  0  0
    7.3480   -4.6770   27.2760 C   0  0  2  0  0  0  0  0  0  0  0  0
    8.0910   -4.3200   28.3390 C   0  0  0  0  0  0  0  0  0  0  0  0
    8.0780   -4.3190   25.9680 C   0  0  0  0  0  0  0  0  0  0  0  0
    8.3620   -5.6190   25.9280 C   0  0  1  0  0  0  0  0  0  0  0  0
    9.6490   -6.0640   26.4130 C   0  0  0  0  0  0  0  0  0  0  0  0
    7.5520   -6.0050   26.9640 C   0  0  0  0  0  0  0  0  0  0  0  0
    6.1400   -4.9960   23.6090 C   0  0  0  0  0  0  0  0  0  0  0  0
    6.4170   -5.3110   22.2710 C   0  0  0  0  0  0  0  0  0  0  0  0
  1  2  1  0
  2  3  2  0
  2  4  1  0
  4  5  1  0
  5  6  1  0
  6  7  1  0
  7  8  1  0
  8  9  2  0
  8 10  1  0
 10 11  1  0
 12 11  1  0
 12 13  1  1
 12 14  1  0
 14 15  1  0
 15 16  1  1
 12 17  1  0
 15 17  1  0
  7 18  1  0
  4 19  1  0
 18 19  1  0
M  END
