piperidine-amides-29577-covalent
     RDKit          3D

 26 27  0  0  0  0  0  0  0  0999 V2000
    7.1060   -3.2590   19.2600 C   0  0  0  0  0  0  0  0  0  0  0  0
    6.3450   -4.0370   20.2340 C   0  0  0  0  0  0  0  0  0  0  0  0
    5.2900   -4.5750   19.8970 O   0  0  0  0  0  0  0  0  0  0  0  0
    6.8430   -4.2250   21.5700 N   0  0  0  0  0  0  0  0  0  0  0  0
    6.5390   -5.4370   22.2760 C   0  0  0  0  0  0  0  0  0  0  0  0
    5.9190   -5.0920   23.5970 C   0  0  0  0  0  0  0  0  0  0  0  0
    6.7180   -3.9610   24.2360 C   0  0  0  0  0  0  0  0  0  0  0  0
    6.0040   -3.5130   25.4570 C   0  0  0  0  0  0  0  0  0  0  0  0
    4.7600   -3.5320   25.5220 O   0  0  0  0  0  0  0  0  0  0  0  0
    6.7570   -3.0590   26.5700 N   0  0  0  0  0  0  0  0  0  0  0  0
    7.6220   -4.0060   27.2430 C   0  0  0  0  0  0  0  0  0  0  0  0
    6.9190   -1.6320   26.7230 C   0  0  0  0  0  0  0  0  0  0  0  0
    5.8110   -0.8040   26.8740 C   0  0  0  0  0  0  0  0  0  0  0  0
    6.0120    0.5390   27.2810 C   0  0  0  0  0  0  0  0  0  0  0  0
    4.9890    1.4490   27.4600 C   0  0  0  0  0  0  0  0  0  0  0  0
    3.6150    1.0680   27.2330 C   0  0  0  0  0  0  0  0  0  0  0  0
    2.7020    1.9400   27.4080 O   0  0  0  0  0  0  0  0  0  0  0  0
    2.9000    3.0650   26.6010 C   0  0  0  0  0  0  0  0  0  0  0  0
    3.3500   -0.1880   26.8480 C   0  0  0  0  0  0  0  0  0  0  0  0
    2.1500   -0.5260   26.6490 O   0  0  0  0  0  0  0  0  0  0  0  0
    1.7810   -1.5470   27.4960 C   0  0  0  0  0  0  0  0  0  0  0  0
    0.9590   -2.3630   26.7930 F   0  0  0  0  0  0  0  0  0  0  0  0
    1.0420   -1.0840   28.5300 F   0  0  0  0  0  0  0  0  0  0  0  0
    4.4750   -1.1110   26.6740 C   0  0  0  0  0  0  0  0  0  0  0  0
    6.9500   -2.7830   23.3070 C   0  0  0  0  0  0  0  0  0  0  0  0
    7.6700   -3.2370   22.2100 C   0  0  0  0  0  0  0  0  0  0  0  0
  1  2  1  0
  2  3  2  0
  2  4  1  0
  4  5  1  0
  5  6  1  0
  6  7  1  0
  7  8  1  0
  8  9  2  0
  8 10  1  0
 10 11  1  0
 10 12  1  0
 12 13  1  0
 13 14  2  0
 14 15  1  0
 15 16  2  0
 16 17  1  0
 17 18  1  0
 16 19  1  0
 19 20  1  0
 20 21  1  0
 21 22  1  0
 21 23  1  0
 13 24  1  0
 19 24  2  0
  7 25  1  0
  4 26  1  0
 25 26  1  0
M  END
