piperidine-amides-35291-covalent
     RDKit          3D

 33 35  0  0  0  0  0  0  0  0999 V2000
    7.0470   -3.3300   19.3340 C   0  0  0  0  0  0  0  0  0  0  0  0
    6.3740   -4.1930   20.3380 C   0  0  0  0  0  0  0  0  0  0  0  0
    5.3600   -4.7790   19.9650 O   0  0  0  0  0  0  0  0  0  0  0  0
    6.9130   -4.3600   21.6210 N   0  0  0  0  0  0  0  0  0  0  0  0
    6.7950   -5.6410   22.2780 C   0  0  0  0  0  0  0  0  0  0  0  0
    6.4400   -5.4300   23.7140 C   0  0  0  0  0  0  0  0  0  0  0  0
    6.2320   -3.9430   23.9310 C   0  0  0  0  0  0  0  0  0  0  0  0
    5.5970   -3.7750   25.2480 C   0  0  0  0  0  0  0  0  0  0  0  0
    4.3820   -3.9920   25.3000 O   0  0  0  0  0  0  0  0  0  0  0  0
    6.2080   -3.3500   26.4370 N   0  0  0  0  0  0  0  0  0  0  0  0
    5.4380   -2.2310   26.8910 C   0  0  0  0  0  0  0  0  0  0  0  0
    4.6410   -2.9790   27.8820 C   0  0  0  0  0  0  0  0  0  0  0  0
    5.4370   -3.8200   28.4800 C   0  0  1  0  0  0  0  0  0  0  0  0
    6.0220   -3.0050   29.3580 C   0  0  0  0  0  0  0  0  0  0  0  0
    5.2910   -2.4780   30.4010 O   0  0  0  0  0  0  0  0  0  0  0  0
    7.1920   -2.6470   29.1960 O   0  0  0  0  0  0  0  0  0  0  0  0
    7.6000   -1.3080   29.3640 C   0  0  0  0  0  0  0  0  0  0  0  0
    4.6020   -4.9060   29.1100 C   0  0  0  0  0  0  0  0  0  0  0  0
    5.3340   -6.1660   29.4740 C   0  0  0  0  0  0  0  0  0  0  0  0
    4.2390   -7.2270   29.4980 C   0  0  0  0  0  0  0  0  0  0  0  0
    3.2830   -6.9440   30.3400 N   0  0  0  0  0  0  0  0  0  0  0  0
    2.0230   -7.4540   29.8090 C   0  0  0  0  0  0  0  0  0  0  0  0
    1.8860   -7.8100   28.4750 O   0  0  0  0  0  0  0  0  0  0  0  0
    0.8960   -7.5960   30.6170 O   0  0  0  0  0  0  0  0  0  0  0  0
    0.7930   -8.7390   31.4570 C   0  0  0  0  0  0  0  0  0  0  0  0
    0.6520   -9.9580   30.5590 C   0  0  0  0  0  0  0  0  0  0  0  0
   -0.3150   -8.8960   32.4950 C   0  0  0  0  0  0  0  0  0  0  0  0
    2.0980   -8.8730   32.2410 C   0  0  0  0  0  0  0  0  0  0  0  0
    3.2300   -5.6120   30.8110 C   0  0  0  0  0  0  0  0  0  0  0  0
    3.7310   -4.4080   30.0810 C   0  0  0  0  0  0  0  0  0  0  0  0
    6.3120   -4.3020   27.5600 C   0  0  0  0  0  0  0  0  0  0  0  0
    7.5420   -3.2480   23.6350 C   0  0  0  0  0  0  0  0  0  0  0  0
    7.6980   -3.3160   22.2800 C   0  0  0  0  0  0  0  0  0  0  0  0
  1  2  1  0
  2  3  2  0
  2  4  1  0
  4  5  1  0
  5  6  1  0
  6  7  1  0
  7  8  1  0
  8  9  2  0
  8 10  1  0
 10 11  1  0
 11 12  1  0
 12 13  1  0
 13 14  1  1
 14 15  2  0
 14 16  1  0
 16 17  1  0
 13 18  1  0
 18 19  1  0
 19 20  1  0
 20 21  1  0
 21 22  1  0
 22 23  2  0
 22 24  1  0
 25 24  1  0
 25 26  1  0
 25 27  1  0
 25 28  1  0
 21 29  1  0
 18 30  1  0
 29 30  1  0
 10 31  1  0
 13 31  1  0
  7 32  1  0
  4 33  1  0
 32 33  1  0
M  END
