piperidine-amides-4017-covalent
     RDKit          3D

 28 29  0  0  0  0  0  0  0  0999 V2000
    7.1740   -3.2960   19.2240 C   0  0  0  0  0  0  0  0  0  0  0  0
    6.3920   -4.0220   20.2310 C   0  0  0  0  0  0  0  0  0  0  0  0
    5.2850   -4.4950   19.8720 O   0  0  0  0  0  0  0  0  0  0  0  0
    6.9110   -4.2320   21.5280 N   0  0  0  0  0  0  0  0  0  0  0  0
    7.6840   -3.1860   22.1150 C   0  0  0  0  0  0  0  0  0  0  0  0
    7.2720   -2.8440   23.4600 C   0  0  0  0  0  0  0  0  0  0  0  0
    6.0090   -3.4810   23.8640 C   0  0  0  0  0  0  0  0  0  0  0  0
    5.6370   -3.0650   25.2450 C   0  0  0  0  0  0  0  0  0  0  0  0
    4.4560   -2.7390   25.4770 O   0  0  0  0  0  0  0  0  0  0  0  0
    6.5880   -3.0510   26.2780 N   0  0  0  0  0  0  0  0  0  0  0  0
    6.9370   -4.1270   27.1100 C   0  0  2  0  0  0  0  0  0  0  0  0
    5.9420   -5.0620   27.6140 C   0  0  0  0  0  0  0  0  0  0  0  0
    4.5600   -4.6200   27.1110 C   0  0  0  0  0  0  0  0  0  0  0  0
    6.0830   -6.4690   27.4080 C   0  0  0  0  0  0  0  0  0  0  0  0
    7.3870   -3.5960   28.4510 C   0  0  1  0  0  0  0  0  0  0  0  0
    8.6380   -3.0230   28.4540 O   0  0  0  0  0  0  0  0  0  0  0  0
    6.4550   -2.5730   29.0310 C   0  0  0  0  0  0  0  0  0  0  0  0
    5.2940   -3.4320   29.5130 C   0  0  0  0  0  0  0  0  0  0  0  0
    4.1010   -2.8160   30.1840 C   0  0  0  0  0  0  0  0  0  0  0  0
    4.2110   -1.3050   30.3050 C   0  0  0  0  0  0  0  0  0  0  0  0
    5.4350   -0.5190   29.7820 C   0  0  0  0  0  0  0  0  0  0  0  0
    5.3960    0.9590   29.9800 C   0  0  0  0  0  0  0  0  0  0  0  0
    4.5510    1.5010   29.0380 F   0  0  0  0  0  0  0  0  0  0  0  0
    6.6750    1.5100   29.8760 F   0  0  0  0  0  0  0  0  0  0  0  0
    4.8270    1.2620   31.2100 F   0  0  0  0  0  0  0  0  0  0  0  0
    6.5000   -1.1850   29.1680 C   0  0  0  0  0  0  0  0  0  0  0  0
    5.9620   -4.9570   23.6490 C   0  0  0  0  0  0  0  0  0  0  0  0
    6.4870   -5.3760   22.2960 C   0  0  0  0  0  0  0  0  0  0  0  0
  1  2  1  0
  2  3  2  0
  2  4  1  0
  4  5  1  0
  5  6  1  0
  6  7  1  0
  7  8  1  0
  8  9  2  0
  8 10  1  0
 11 10  1  6
 11 12  1  0
 12 13  1  0
 12 14  1  0
 11 15  1  0
 15 16  1  6
 15 17  1  0
 17 18  2  0
 18 19  1  0
 19 20  2  0
 20 21  1  0
 21 22  1  0
 22 23  1  0
 22 24  1  0
 22 25  1  0
 17 26  1  0
 21 26  2  0
  7 27  1  0
  4 28  1  0
 27 28  1  0
M  END
