piperidine-amides-6666-covalent
     RDKit          3D

 24 25  0  0  0  0  0  0  0  0999 V2000
    7.1670   -3.2980   19.2120 C   0  0  0  0  0  0  0  0  0  0  0  0
    6.3870   -4.0370   20.2100 C   0  0  0  0  0  0  0  0  0  0  0  0
    5.2960   -4.5610   19.8970 O   0  0  0  0  0  0  0  0  0  0  0  0
    6.9050   -4.2090   21.4950 N   0  0  0  0  0  0  0  0  0  0  0  0
    7.7290   -3.1640   22.0530 C   0  0  0  0  0  0  0  0  0  0  0  0
    6.8950   -2.5730   23.1750 C   0  0  0  0  0  0  0  0  0  0  0  0
    6.6260   -3.7120   24.1250 C   0  0  0  0  0  0  0  0  0  0  0  0
    5.8370   -3.1860   25.2400 C   0  0  0  0  0  0  0  0  0  0  0  0
    4.8780   -2.4230   24.9960 O   0  0  0  0  0  0  0  0  0  0  0  0
    6.1730   -3.5680   26.5430 N   0  0  0  0  0  0  0  0  0  0  0  0
    5.6930   -4.8350   26.9910 C   0  0  0  0  0  0  0  0  0  0  0  0
    5.9010   -4.9240   28.4790 C   0  0  0  0  0  0  0  0  0  0  0  0
    6.8100   -5.7520   29.0340 C   0  0  0  0  0  0  0  0  0  0  0  0
    6.1570   -3.5120   28.9600 C   0  0  0  0  0  0  0  0  0  0  0  0
    4.7100   -5.5110   29.0810 N   0  0  0  0  0  0  0  0  0  0  0  0
    4.4150   -6.6770   28.4060 C   0  0  0  0  0  0  0  0  0  0  0  0
    3.1750   -6.5190   27.8540 C   0  0  1  0  0  0  0  0  0  0  0  0
    2.7420   -7.5780   26.8570 C   0  0  0  0  0  0  0  0  0  0  0  0
    2.1080   -6.3140   28.6630 O   0  0  0  0  0  0  0  0  0  0  0  0
    2.3190   -5.0690   29.3160 C   0  0  1  0  0  0  0  0  0  0  0  0
    3.1040   -5.2370   30.5840 C   0  0  0  0  0  0  0  0  0  0  0  0
    3.7300   -4.4690   29.3140 C   0  0  0  0  0  0  0  0  0  0  0  0
    5.8270   -4.8010   23.4570 C   0  0  0  0  0  0  0  0  0  0  0  0
    6.4000   -5.2560   22.3080 C   0  0  0  0  0  0  0  0  0  0  0  0
  1  2  1  0
  2  3  2  0
  2  4  1  0
  4  5  1  0
  5  6  1  0
  6  7  1  0
  7  8  1  0
  8  9  2  0
  8 10  1  0
 10 11  1  0
 12 11  1  0
 12 13  1  0
 12 14  1  0
 12 15  1  0
 15 16  1  0
 16 17  1  0
 17 18  1  1
 17 19  1  0
 19 20  1  0
 20 21  1  1
 15 22  1  0
 20 22  1  0
  7 23  1  0
  4 24  1  0
 23 24  1  0
M  END
