piperidine-amides-870-covalent
     RDKit          3D

 25 26  0  0  0  0  0  0  0  0999 V2000
    7.2060   -3.2950   19.3270 C   0  0  0  0  0  0  0  0  0  0  0  0
    6.3950   -4.0040   20.2890 C   0  0  0  0  0  0  0  0  0  0  0  0
    5.3330   -4.5890   19.9010 O   0  0  0  0  0  0  0  0  0  0  0  0
    6.7840   -4.0920   21.6350 N   0  0  0  0  0  0  0  0  0  0  0  0
    6.6380   -5.4200   22.2810 C   0  0  0  0  0  0  0  0  0  0  0  0
    6.0530   -4.9980   23.6850 C   0  0  0  0  0  0  0  0  0  0  0  0
    6.1660   -3.4950   23.6990 C   0  0  0  0  0  0  0  0  0  0  0  0
    5.4360   -2.8010   24.9160 C   0  0  0  0  0  0  0  0  0  0  0  0
    4.9400   -1.7400   24.5970 O   0  0  0  0  0  0  0  0  0  0  0  0
    5.5510   -3.5430   25.9130 N   0  0  0  0  0  0  0  0  0  0  0  0
    5.5940   -4.3040   27.0070 C   0  0  0  0  0  0  0  0  0  0  0  0
    5.6150   -5.5750   27.4690 C   0  0  2  0  0  0  0  0  0  0  0  0
    4.3940   -6.2080   27.8500 C   0  0  0  0  0  0  0  0  0  0  0  0
    3.1980   -6.3760   27.0050 C   0  0  0  0  0  0  0  0  0  0  0  0
    3.2750   -5.8620   25.7140 F   0  0  0  0  0  0  0  0  0  0  0  0
    2.0030   -7.1010   27.6410 C   0  0  0  0  0  0  0  0  0  0  0  0
    2.1120   -7.5550   28.9640 C   0  0  0  0  0  0  0  0  0  0  0  0
    3.0760   -7.5480   29.9880 C   0  0  0  0  0  0  0  0  0  0  0  0
    4.1680   -6.8120   29.2160 C   0  0  0  0  0  0  0  0  0  0  0  0
    5.3020   -6.6640   30.0550 F   0  0  0  0  0  0  0  0  0  0  0  0
    6.2610   -5.4130   28.7330 N   0  0  0  0  0  0  0  0  0  0  0  0
    7.2650   -6.2480   28.6980 C   0  0  0  0  0  0  0  0  0  0  0  0
    6.7600   -4.0820   28.7970 C   0  0  0  0  0  0  0  0  0  0  0  0
    7.5480   -2.9430   23.4420 C   0  0  0  0  0  0  0  0  0  0  0  0
    7.7560   -3.1350   22.1270 C   0  0  0  0  0  0  0  0  0  0  0  0
  1  2  1  0
  2  3  2  0
  2  4  1  0
  4  5  1  0
  5  6  1  0
  6  7  1  0
  7  8  1  0
  8  9  2  0
  8 10  1  0
 10 11  1  0
 12 11  1  1
 12 13  1  0
 13 14  2  0
 14 15  1  0
 14 16  1  0
 16 17  2  0
 17 18  1  0
 13 19  1  0
 18 19  2  0
 19 20  1  0
 12 21  1  0
 21 22  1  0
 21 23  1  0
  7 24  1  0
  4 25  1  0
 24 25  1  0
M  END
