piperidine-amides-6729-covalent
     RDKit          3D

 23 25  0  0  0  0  0  0  0  0999 V2000
    7.1050   -3.2900   19.2640 C   0  0  0  0  0  0  0  0  0  0  0  0
    6.3970   -4.1150   20.2560 C   0  0  0  0  0  0  0  0  0  0  0  0
    5.3470   -4.7170   19.9460 O   0  0  0  0  0  0  0  0  0  0  0  0
    6.9210   -4.2730   21.5450 N   0  0  0  0  0  0  0  0  0  0  0  0
    7.6850   -3.1920   22.1170 C   0  0  0  0  0  0  0  0  0  0  0  0
    6.8340   -2.6450   23.2580 C   0  0  0  0  0  0  0  0  0  0  0  0
    6.5320   -3.8220   24.1630 C   0  0  0  0  0  0  0  0  0  0  0  0
    5.7670   -3.3420   25.3300 C   0  0  0  0  0  0  0  0  0  0  0  0
    4.5170   -3.3890   25.3010 O   0  0  0  0  0  0  0  0  0  0  0  0
    6.4740   -2.8370   26.4400 N   0  0  0  0  0  0  0  0  0  0  0  0
    5.7900   -2.1940   27.5280 C   0  0  1  0  0  0  0  0  0  0  0  0
    6.2730   -2.7990   28.7730 C   0  0  0  0  0  0  0  0  0  0  0  0
    6.7510   -1.5980   29.0380 C   0  0  2  0  0  0  0  0  0  0  0  0
    6.4340   -0.9350   30.1920 C   0  0  0  0  0  0  0  0  0  0  0  0
    5.2270   -0.7480   30.7770 C   0  0  0  0  0  0  0  0  0  0  0  0
    4.9540   -0.0780   31.9440 C   0  0  0  0  0  0  0  0  0  0  0  0
    5.8610    0.6630   32.9590 C   0  0  0  0  0  0  0  0  0  0  0  0
    5.5240    1.6070   34.5900 Br  0  0  0  0  0  0  0  0  0  0  0  0
    7.1680    0.3750   32.1830 C   0  0  0  0  0  0  0  0  0  0  0  0
    7.3990   -0.3660   30.9070 C   0  0  0  0  0  0  0  0  0  0  0  0
    6.2100   -0.8780   27.9060 C   0  0  0  0  0  0  0  0  0  0  0  0
    5.7060   -4.8470   23.4300 C   0  0  0  0  0  0  0  0  0  0  0  0
    6.4080   -5.3250   22.3600 C   0  0  0  0  0  0  0  0  0  0  0  0
  1  2  1  0
  2  3  2  0
  2  4  1  0
  4  5  1  0
  5  6  1  0
  6  7  1  0
  7  8  1  0
  8  9  2  0
  8 10  1  0
 11 10  1  6
 11 12  1  0
 12 13  1  0
 13 14  1  1
 14 15  2  0
 15 16  1  0
 16 17  2  0
 17 18  1  0
 17 19  1  0
 14 20  1  0
 19 20  2  0
 11 21  1  0
 13 21  1  0
  7 22  1  0
  4 23  1  0
 22 23  1  0
M  END
