piperidine-amides-14201-covalent
     RDKit          3D

 24 25  0  0  0  0  0  0  0  0999 V2000
    7.0290   -3.3340   19.3130 C   0  0  0  0  0  0  0  0  0  0  0  0
    6.3350   -4.1740   20.3270 C   0  0  0  0  0  0  0  0  0  0  0  0
    5.3660   -4.8650   19.9790 O   0  0  0  0  0  0  0  0  0  0  0  0
    6.8270   -4.1970   21.6490 N   0  0  0  0  0  0  0  0  0  0  0  0
    7.7040   -3.1600   22.1590 C   0  0  0  0  0  0  0  0  0  0  0  0
    7.5030   -3.0570   23.6700 C   0  0  0  0  0  0  0  0  0  0  0  0
    6.1390   -3.5700   23.9570 C   0  0  0  0  0  0  0  0  0  0  0  0
    5.6470   -3.2110   25.3040 C   0  0  0  0  0  0  0  0  0  0  0  0
    4.4290   -3.2960   25.4920 O   0  0  0  0  0  0  0  0  0  0  0  0
    6.5560   -2.7980   26.2760 N   0  0  0  0  0  0  0  0  0  0  0  0
    6.5120   -1.6280   27.0780 C   0  0  0  0  0  0  0  0  0  0  0  0
    6.9820   -1.5870   28.3950 C   0  0  0  0  0  0  0  0  0  0  0  0
    6.9660   -0.4530   29.2420 C   0  0  0  0  0  0  0  0  0  0  0  0
    6.4630    0.7490   28.8140 C   0  0  0  0  0  0  0  0  0  0  0  0
    5.9590    0.7560   27.4380 C   0  0  0  0  0  0  0  0  0  0  0  0
    5.3420    1.9300   26.6640 C   0  0  0  0  0  0  0  0  0  0  0  0
    5.2510    1.9120   25.2790 O   0  0  0  0  0  0  0  0  0  0  0  0
    4.8690    3.0450   27.4330 N   0  0  0  0  0  0  0  0  0  0  0  0
    3.4920    3.1850   27.7410 C   0  0  0  0  0  0  0  0  0  0  0  0
    2.7530    2.5460   26.8230 N   0  0  0  0  0  0  0  0  0  0  0  0
    2.9290    3.8650   28.8080 O   0  0  0  0  0  0  0  0  0  0  0  0
    5.9880   -0.4410   26.5760 C   0  0  0  0  0  0  0  0  0  0  0  0
    6.0040   -5.0370   23.7450 C   0  0  0  0  0  0  0  0  0  0  0  0
    6.6510   -5.4110   22.4220 C   0  0  0  0  0  0  0  0  0  0  0  0
  1  2  1  0
  2  3  2  0
  2  4  1  0
  4  5  1  0
  5  6  1  0
  6  7  1  0
  7  8  1  0
  8  9  2  0
  8 10  1  0
 10 11  1  0
 11 12  2  0
 12 13  1  0
 13 14  2  0
 14 15  1  0
 15 16  1  0
 16 17  2  0
 16 18  1  0
 18 19  1  0
 19 20  1  0
 19 21  2  0
 11 22  1  0
 15 22  2  0
  7 23  1  0
  4 24  1  0
 23 24  1  0
M  END
