piperidine-amides-6641-covalent
     RDKit          3D

 24 25  0  0  0  0  0  0  0  0999 V2000
    7.0510   -3.2500   19.2220 C   0  0  0  0  0  0  0  0  0  0  0  0
    6.2730   -4.0220   20.2130 C   0  0  0  0  0  0  0  0  0  0  0  0
    5.2360   -4.6200   19.8810 O   0  0  0  0  0  0  0  0  0  0  0  0
    6.6900   -4.1280   21.5370 N   0  0  0  0  0  0  0  0  0  0  0  0
    7.5620   -3.1210   22.0820 C   0  0  0  0  0  0  0  0  0  0  0  0
    7.0340   -2.7440   23.4650 C   0  0  0  0  0  0  0  0  0  0  0  0
    5.7930   -3.5760   23.7810 C   0  0  0  0  0  0  0  0  0  0  0  0
    5.3890   -3.4000   25.1980 C   0  0  0  0  0  0  0  0  0  0  0  0
    4.1950   -3.1100   25.4260 O   0  0  0  0  0  0  0  0  0  0  0  0
    6.3220   -3.5640   26.2610 N   0  0  0  0  0  0  0  0  0  0  0  0
    6.4250   -4.8240   26.9520 C   0  0  0  0  0  0  0  0  0  0  0  0
    7.2680   -4.6510   28.1950 C   0  0  0  0  0  0  0  0  0  0  0  0
    8.2790   -3.7410   28.2080 C   0  0  0  0  0  0  0  0  0  0  0  0
    7.9750   -2.4080   28.3030 C   0  0  0  0  0  0  0  0  0  0  0  0
    8.3920   -1.5730   27.2850 O   0  0  0  0  0  0  0  0  0  0  0  0
    8.3350   -2.0470   25.9470 C   0  0  0  0  0  0  0  0  0  0  0  0
    8.6230   -3.3620   25.9480 C   0  0  0  0  0  0  0  0  0  0  0  0
    8.2150   -4.2790   24.8470 C   0  0  0  0  0  0  0  0  0  0  0  0
    8.7740   -5.5520   25.3890 C   0  0  0  0  0  0  0  0  0  0  0  0
    9.5310   -6.1920   26.5160 C   0  0  0  0  0  0  0  0  0  0  0  0
    9.7610   -5.0550   27.3640 C   0  0  0  0  0  0  0  0  0  0  0  0
    9.3260   -3.7910   27.0620 C   0  0  0  0  0  0  0  0  0  0  0  0
    6.0150   -5.0820   23.5870 C   0  0  0  0  0  0  0  0  0  0  0  0
    6.5810   -5.3860   22.2280 C   0  0  0  0  0  0  0  0  0  0  0  0
  1  2  1  0
  2  3  2  0
  2  4  1  0
  4  5  1  0
  5  6  1  0
  6  7  1  0
  7  8  1  0
  8  9  2  0
  8 10  1  0
 10 11  1  0
 11 12  1  0
 12 13  1  0
 13 14  1  0
 14 15  1  0
 15 16  1  0
 16 17  1  0
 17 18  2  0
 18 19  1  0
 19 20  2  0
 20 21  1  0
 17 22  1  0
 21 22  2  0
  7 23  1  0
  4 24  1  0
 23 24  1  0
M  END
