piperidine-amides-13744-covalent
     RDKit          3D

 27 29  0  0  0  0  0  0  0  0999 V2000
    7.1620   -3.2900   19.1920 C   0  0  0  0  0  0  0  0  0  0  0  0
    6.3660   -4.0340   20.1990 C   0  0  0  0  0  0  0  0  0  0  0  0
    5.2690   -4.5190   19.8730 O   0  0  0  0  0  0  0  0  0  0  0  0
    6.9210   -4.2220   21.4800 N   0  0  0  0  0  0  0  0  0  0  0  0
    7.7390   -3.2280   22.1200 C   0  0  0  0  0  0  0  0  0  0  0  0
    6.9120   -2.6750   23.2730 C   0  0  0  0  0  0  0  0  0  0  0  0
    6.5000   -3.8150   24.1490 C   0  0  0  0  0  0  0  0  0  0  0  0
    5.6260   -3.3540   25.2350 C   0  0  0  0  0  0  0  0  0  0  0  0
    4.6750   -2.6330   24.9200 O   0  0  0  0  0  0  0  0  0  0  0  0
    5.8960   -3.7300   26.5390 N   0  0  0  0  0  0  0  0  0  0  0  0
    5.9330   -5.0400   27.0470 C   0  0  1  0  0  0  0  0  0  0  0  0
    7.0870   -5.5660   27.5980 C   0  0  0  0  0  0  0  0  0  0  0  0
    7.7710   -6.1710   28.7180 O   0  0  0  0  0  0  0  0  0  0  0  0
    6.1800   -5.7270   28.6370 O   0  0  0  0  0  0  0  0  0  0  0  0
    5.8500   -7.0400   29.1300 C   0  0  0  0  0  0  0  0  0  0  0  0
    4.8760   -5.4120   27.9190 C   0  0  0  0  0  0  0  0  0  0  0  0
    4.9000   -4.7370   29.2430 C   0  0  0  0  0  0  0  0  0  0  0  0
    3.8180   -5.0410   30.2770 C   0  0  0  0  0  0  0  0  0  0  0  0
    2.8430   -6.0640   29.6950 C   0  0  0  0  0  0  0  0  0  0  0  0
    2.9010   -6.6420   28.4350 C   0  0  0  0  0  0  0  0  0  0  0  0
    1.8780   -7.6170   28.0160 C   0  0  0  0  0  0  0  0  0  0  0  0
    2.0950   -8.1570   26.5840 C   0  0  0  0  0  0  0  0  0  0  0  0
    2.9970   -7.9980   25.5270 C   0  0  0  0  0  0  0  0  0  0  0  0
    3.9190   -6.9670   26.2200 C   0  0  0  0  0  0  0  0  0  0  0  0
    3.8970   -6.3190   27.5720 C   0  0  0  0  0  0  0  0  0  0  0  0
    5.7190   -4.8940   23.4150 C   0  0  0  0  0  0  0  0  0  0  0  0
    6.5080   -5.3750   22.2560 C   0  0  0  0  0  0  0  0  0  0  0  0
  1  2  1  0
  2  3  2  0
  2  4  1  0
  4  5  1  0
  5  6  1  0
  6  7  1  0
  7  8  1  0
  8  9  2  0
  8 10  1  0
 11 10  1  1
 11 12  1  0
 12 13  2  0
 12 14  1  0
 14 15  1  0
 11 16  1  0
 16 17  2  0
 17 18  1  0
 18 19  2  0
 19 20  1  0
 20 21  1  0
 21 22  2  0
 22 23  1  0
 23 24  2  0
 16 25  1  0
 20 25  2  0
 24 25  1  0
  7 26  1  0
  4 27  1  0
 26 27  1  0
M  END
