piperidine-amides-12542-covalent
     RDKit          3D

 23 25  0  0  0  0  0  0  0  0999 V2000
    7.0920   -3.3080   19.2180 C   0  0  0  0  0  0  0  0  0  0  0  0
    6.3650   -4.0990   20.2360 C   0  0  0  0  0  0  0  0  0  0  0  0
    5.2740   -4.5820   19.8890 O   0  0  0  0  0  0  0  0  0  0  0  0
    6.9090   -4.3490   21.4990 N   0  0  0  0  0  0  0  0  0  0  0  0
    7.6350   -3.3170   22.1670 C   0  0  0  0  0  0  0  0  0  0  0  0
    7.1450   -2.9680   23.4950 C   0  0  0  0  0  0  0  0  0  0  0  0
    6.4510   -4.0480   24.2190 C   0  0  0  0  0  0  0  0  0  0  0  0
    5.6790   -3.4750   25.3460 C   0  0  0  0  0  0  0  0  0  0  0  0
    4.4340   -3.5060   25.2920 O   0  0  0  0  0  0  0  0  0  0  0  0
    6.3160   -2.8920   26.4510 N   0  0  0  0  0  0  0  0  0  0  0  0
    6.6870   -1.4560   26.4600 C   0  0  0  0  0  0  0  0  0  0  0  0
    6.5750   -0.7320   25.1490 C   0  0  0  0  0  0  0  0  0  0  0  0
    6.2170    0.4860   25.1010 O   0  0  0  0  0  0  0  0  0  0  0  0
    6.8150    1.2450   24.2060 C   0  0  0  0  0  0  0  0  0  0  0  0
    7.0430    2.5940   24.3400 C   0  0  0  0  0  0  0  0  0  0  0  0
    7.6750    3.3570   23.3780 C   0  0  0  0  0  0  0  0  0  0  0  0
    8.1040    2.7650   22.2280 C   0  0  0  0  0  0  0  0  0  0  0  0
    7.8950    1.4260   22.0600 C   0  0  0  0  0  0  0  0  0  0  0  0
    7.2640    0.6860   23.0270 C   0  0  0  0  0  0  0  0  0  0  0  0
    6.7130   -0.7690   27.8740 C   0  0  0  0  0  0  0  0  0  0  0  0
    5.5480   -0.7180   27.2220 C   0  0  0  0  0  0  0  0  0  0  0  0
    5.6010   -4.9180   23.3760 C   0  0  0  0  0  0  0  0  0  0  0  0
    6.4390   -5.4730   22.2710 C   0  0  0  0  0  0  0  0  0  0  0  0
  1  2  1  0
  2  3  2  0
  2  4  1  0
  4  5  1  0
  5  6  1  0
  6  7  1  0
  7  8  1  0
  8  9  2  0
  8 10  1  0
 11 10  1  0
 11 12  1  0
 12 13  1  0
 13 14  1  0
 14 15  2  0
 15 16  1  0
 16 17  2  0
 17 18  1  0
 14 19  1  0
 18 19  2  0
 11 20  1  0
 11 21  1  0
 20 21  1  0
  7 22  1  0
  4 23  1  0
 22 23  1  0
M  END
