piperidine-amides-31758-covalent
     RDKit          3D

 28 31  0  0  0  0  0  0  0  0999 V2000
    6.9800   -3.4070   19.3820 C   0  0  0  0  0  0  0  0  0  0  0  0
    6.2910   -4.2390   20.3520 C   0  0  0  0  0  0  0  0  0  0  0  0
    5.2610   -4.8460   19.9590 O   0  0  0  0  0  0  0  0  0  0  0  0
    6.7160   -4.4620   21.6790 N   0  0  0  0  0  0  0  0  0  0  0  0
    6.5900   -5.8650   22.1470 C   0  0  0  0  0  0  0  0  0  0  0  0
    6.5310   -5.7150   23.7130 C   0  0  0  0  0  0  0  0  0  0  0  0
    6.0600   -4.3250   23.9450 C   0  0  0  0  0  0  0  0  0  0  0  0
    5.0690   -4.1800   25.2060 C   0  0  0  0  0  0  0  0  0  0  0  0
    3.9590   -3.8750   24.8040 O   0  0  0  0  0  0  0  0  0  0  0  0
    5.6370   -4.3860   26.3330 N   0  0  0  0  0  0  0  0  0  0  0  0
    5.9170   -4.9670   27.5280 C   0  0  0  0  0  0  0  0  0  0  0  0
    6.4090   -4.6310   28.7180 C   0  0  0  0  0  0  0  0  0  0  0  0
    6.1150   -3.3000   28.8760 C   0  0  0  0  0  0  0  0  0  0  0  0
    6.5800   -2.4270   27.7950 C   0  0  0  0  0  0  0  0  0  0  0  0
    6.2840   -3.1230   26.4540 C   0  0  0  0  0  0  0  0  0  0  0  0
    6.6780   -2.2740   25.3660 N   0  0  0  0  0  0  0  0  0  0  0  0
    6.9010   -0.9020   25.5280 C   0  0  0  0  0  0  0  0  0  0  0  0
    7.2270   -0.2500   24.3790 N   0  0  0  0  0  0  0  0  0  0  0  0
    8.3130   -0.7140   23.5400 C   0  0  0  0  0  0  0  0  0  0  0  0
    8.8060    0.2610   22.4690 C   0  0  0  0  0  0  0  0  0  0  0  0
    8.2050    1.3550   22.6010 O   0  0  0  0  0  0  0  0  0  0  0  0
    6.8200    1.1570   22.6640 C   0  0  0  0  0  0  0  0  0  0  0  0
    6.5070    0.9300   23.9940 C   0  0  0  0  0  0  0  0  0  0  0  0
    6.7930   -0.2770   26.8460 N   0  0  0  0  0  0  0  0  0  0  0  0
    7.1340   -1.1850   27.9420 C   0  0  0  0  0  0  0  0  0  0  0  0
    7.8620   -0.7630   28.8800 O   0  0  0  0  0  0  0  0  0  0  0  0
    7.1290   -3.2800   23.6620 C   0  0  0  0  0  0  0  0  0  0  0  0
    7.5510   -3.5080   22.3700 C   0  0  0  0  0  0  0  0  0  0  0  0
  1  2  1  0
  2  3  2  0
  2  4  1  0
  4  5  1  0
  5  6  1  0
  6  7  1  0
  7  8  1  0
  8  9  2  0
  8 10  1  0
 10 11  1  0
 11 12  1  0
 12 13  1  0
 13 14  1  0
 10 15  1  0
 14 15  2  0
 15 16  1  0
 16 17  2  0
 17 18  1  0
 18 19  1  0
 19 20  1  0
 20 21  1  0
 21 22  1  0
 18 23  1  0
 22 23  1  0
 17 24  1  0
 14 25  1  0
 24 25  1  0
 25 26  2  0
  7 27  1  0
  4 28  1  0
 27 28  1  0
M  END
