piperidine-amides-2736-covalent
     RDKit          3D

 25 27  0  0  0  0  0  0  0  0999 V2000
    7.0720   -3.3620   19.3220 C   0  0  0  0  0  0  0  0  0  0  0  0
    6.3380   -4.1420   20.3090 C   0  0  0  0  0  0  0  0  0  0  0  0
    5.3310   -4.7550   19.9610 O   0  0  0  0  0  0  0  0  0  0  0  0
    6.8120   -4.2440   21.6620 N   0  0  0  0  0  0  0  0  0  0  0  0
    6.5900   -5.4570   22.4080 C   0  0  0  0  0  0  0  0  0  0  0  0
    6.1180   -5.1400   23.8040 C   0  0  0  0  0  0  0  0  0  0  0  0
    6.0470   -3.6280   23.9590 C   0  0  0  0  0  0  0  0  0  0  0  0
    5.6020   -3.2340   25.3280 C   0  0  0  0  0  0  0  0  0  0  0  0
    4.3980   -3.2330   25.6620 O   0  0  0  0  0  0  0  0  0  0  0  0
    6.5800   -2.8460   26.2680 N   0  0  0  0  0  0  0  0  0  0  0  0
    6.4540   -1.5960   26.9950 C   0  0  0  0  0  0  0  0  0  0  0  0
    7.0160   -1.6420   28.3770 C   0  0  0  0  0  0  0  0  0  0  0  0
    6.9650   -0.5270   29.1660 C   0  0  0  0  0  0  0  0  0  0  0  0
    6.3780    0.6460   28.6620 C   0  0  0  0  0  0  0  0  0  0  0  0
    5.8370    0.7320   27.3770 C   0  0  0  0  0  0  0  0  0  0  0  0
    5.2540    1.9540   26.9290 N   0  0  0  0  0  0  0  0  0  0  0  0
    5.9800    2.8740   26.0970 C   0  0  0  0  0  0  0  0  0  0  0  0
    5.0570    3.3410   25.1880 C   0  0  0  0  0  0  0  0  0  0  0  0
    3.7580    3.5880   25.5790 C   0  0  0  0  0  0  0  0  0  0  0  0
    3.4000    3.2950   26.8860 C   0  0  0  0  0  0  0  0  0  0  0  0
    4.4400    2.6980   27.7270 C   0  0  0  0  0  0  0  0  0  0  0  0
    4.5840    2.8240   28.9490 O   0  0  0  0  0  0  0  0  0  0  0  0
    5.8850   -0.3960   26.5600 C   0  0  0  0  0  0  0  0  0  0  0  0
    7.3690   -3.0060   23.6310 C   0  0  0  0  0  0  0  0  0  0  0  0
    7.6330   -3.1940   22.1790 C   0  0  0  0  0  0  0  0  0  0  0  0
  1  2  1  0
  2  3  2  0
  2  4  1  0
  4  5  1  0
  5  6  1  0
  6  7  1  0
  7  8  1  0
  8  9  2  0
  8 10  1  0
 10 11  1  0
 11 12  2  0
 12 13  1  0
 13 14  2  0
 14 15  1  0
 15 16  1  0
 16 17  1  0
 17 18  1  0
 18 19  1  0
 19 20  1  0
 16 21  1  0
 20 21  1  0
 21 22  2  0
 11 23  1  0
 15 23  2  0
  7 24  1  0
  4 25  1  0
 24 25  1  0
M  END
