piperidine-amides-1221-covalent
     RDKit          3D

 23 24  0  0  0  0  0  0  0  0999 V2000
    7.0560   -3.3250   19.3090 C   0  0  0  0  0  0  0  0  0  0  0  0
    6.3460   -4.1700   20.3070 C   0  0  0  0  0  0  0  0  0  0  0  0
    5.3330   -4.7940   19.9590 O   0  0  0  0  0  0  0  0  0  0  0  0
    6.8660   -4.2710   21.6080 N   0  0  0  0  0  0  0  0  0  0  0  0
    7.6530   -3.2000   22.1760 C   0  0  0  0  0  0  0  0  0  0  0  0
    7.5250   -3.2840   23.6950 C   0  0  0  0  0  0  0  0  0  0  0  0
    6.1320   -3.7190   24.0040 C   0  0  0  0  0  0  0  0  0  0  0  0
    5.6780   -3.2250   25.3180 C   0  0  0  0  0  0  0  0  0  0  0  0
    4.4680   -3.2940   25.5590 O   0  0  0  0  0  0  0  0  0  0  0  0
    6.6270   -2.7170   26.2050 N   0  0  0  0  0  0  0  0  0  0  0  0
    6.5410   -1.5680   27.0330 C   0  0  0  0  0  0  0  0  0  0  0  0
    7.0260   -1.5280   28.3350 C   0  0  0  0  0  0  0  0  0  0  0  0
    6.9590   -0.4010   29.1820 C   0  0  0  0  0  0  0  0  0  0  0  0
    6.3860    0.7800   28.7660 C   0  0  0  0  0  0  0  0  0  0  0  0
    5.8440    0.8200   27.3970 C   0  0  0  0  0  0  0  0  0  0  0  0
    5.9350   -0.4110   26.5130 C   0  0  0  0  0  0  0  0  0  0  0  0
    5.3050   -0.1240   25.1420 C   0  0  0  0  0  0  0  0  0  0  0  0
    6.1220    0.6030   24.2870 C   0  0  0  0  0  0  0  0  0  0  0  0
    5.8890    1.9250   24.1560 N   0  0  0  0  0  0  0  0  0  0  0  0
    4.5100    2.1740   24.3650 C   0  0  0  0  0  0  0  0  0  0  0  0
    6.8600    2.5590   24.9670 C   0  0  0  0  0  0  0  0  0  0  0  0
    6.1010   -5.1680   23.7910 C   0  0  0  0  0  0  0  0  0  0  0  0
    6.6410   -5.4690   22.3810 C   0  0  0  0  0  0  0  0  0  0  0  0
  1  2  1  0
  2  3  2  0
  2  4  1  0
  4  5  1  0
  5  6  1  0
  6  7  1  0
  7  8  1  0
  8  9  2  0
  8 10  1  0
 10 11  1  0
 11 12  2  0
 12 13  1  0
 13 14  2  0
 14 15  1  0
 11 16  1  0
 15 16  2  0
 16 17  1  0
 17 18  1  0
 18 19  1  0
 19 20  1  0
 19 21  1  0
  7 22  1  0
  4 23  1  0
 22 23  1  0
M  END
