piperidine-amides-3063-covalent
     RDKit          3D

 23 25  0  0  0  0  0  0  0  0999 V2000
    7.0720   -3.3370   19.3400 C   0  0  0  0  0  0  0  0  0  0  0  0
    6.3930   -4.1810   20.3190 C   0  0  0  0  0  0  0  0  0  0  0  0
    5.4030   -4.8340   19.9830 O   0  0  0  0  0  0  0  0  0  0  0  0
    6.9060   -4.2860   21.6600 N   0  0  0  0  0  0  0  0  0  0  0  0
    7.7140   -3.2280   22.2110 C   0  0  0  0  0  0  0  0  0  0  0  0
    7.0260   -2.6200   23.3950 C   0  0  0  0  0  0  0  0  0  0  0  0
    6.5090   -3.7420   24.2740 C   0  0  0  0  0  0  0  0  0  0  0  0
    5.6820   -3.1710   25.3820 C   0  0  0  0  0  0  0  0  0  0  0  0
    4.4740   -2.9130   25.2240 O   0  0  0  0  0  0  0  0  0  0  0  0
    6.2640   -2.9180   26.6550 N   0  0  0  0  0  0  0  0  0  0  0  0
    6.7060   -1.5730   27.0100 C   0  0  1  0  0  0  0  0  0  0  0  0
    5.6240   -0.5880   26.6350 C   0  0  0  0  0  0  0  0  0  0  0  0
    5.5770    0.6250   27.3080 C   0  0  0  0  0  0  0  0  0  0  0  0
    5.9420    0.6810   28.6510 C   0  0  0  0  0  0  0  0  0  0  0  0
    5.5230    1.7230   29.4910 C   0  0  0  0  0  0  0  0  0  0  0  0
    5.9460    1.7090   30.8850 C   0  0  0  0  0  0  0  0  0  0  0  0
    5.4420    3.0650   32.1210 Br  0  0  0  0  0  0  0  0  0  0  0  0
    6.7290    0.6980   31.3340 C   0  0  0  0  0  0  0  0  0  0  0  0
    7.1230   -0.2990   30.5090 C   0  0  0  0  0  0  0  0  0  0  0  0
    6.7410   -0.3270   29.1700 C   0  0  0  0  0  0  0  0  0  0  0  0
    7.1990   -1.4240   28.3300 C   0  0  0  0  0  0  0  0  0  0  0  0
    5.7290   -4.8110   23.5120 C   0  0  0  0  0  0  0  0  0  0  0  0
    6.5300   -5.3700   22.5170 C   0  0  0  0  0  0  0  0  0  0  0  0
  1  2  1  0
  2  3  2  0
  2  4  1  0
  4  5  1  0
  5  6  1  0
  6  7  1  0
  7  8  1  0
  8  9  2  0
  8 10  1  0
 11 10  1  1
 11 12  1  0
 12 13  1  0
 13 14  1  0
 14 15  2  0
 15 16  1  0
 16 17  1  0
 16 18  2  0
 18 19  1  0
 14 20  1  0
 19 20  2  0
 11 21  1  0
 20 21  1  0
  7 22  1  0
  4 23  1  0
 22 23  1  0
M  END
