piperidine-amides-1104-covalent
     RDKit          3D

 23 25  0  0  0  0  0  0  0  0999 V2000
    7.1140   -3.3420   19.3030 C   0  0  0  0  0  0  0  0  0  0  0  0
    6.3600   -4.1390   20.3000 C   0  0  0  0  0  0  0  0  0  0  0  0
    5.3180   -4.7160   19.9460 O   0  0  0  0  0  0  0  0  0  0  0  0
    6.8860   -4.2630   21.6050 N   0  0  0  0  0  0  0  0  0  0  0  0
    7.7320   -3.2450   22.1810 C   0  0  0  0  0  0  0  0  0  0  0  0
    6.9550   -2.6590   23.3510 C   0  0  0  0  0  0  0  0  0  0  0  0
    6.5310   -3.8140   24.1900 C   0  0  0  0  0  0  0  0  0  0  0  0
    5.7220   -3.3770   25.3500 C   0  0  0  0  0  0  0  0  0  0  0  0
    4.4960   -3.3740   25.1830 O   0  0  0  0  0  0  0  0  0  0  0  0
    6.3230   -2.9870   26.5500 N   0  0  0  0  0  0  0  0  0  0  0  0
    6.2550   -1.6650   27.0740 C   0  0  0  0  0  0  0  0  0  0  0  0
    6.4450   -0.4970   26.3710 C   0  0  0  0  0  0  0  0  0  0  0  0
    6.3580    0.7920   26.9670 C   0  0  0  0  0  0  0  0  0  0  0  0
    6.0750    0.9780   28.2980 C   0  0  0  0  0  0  0  0  0  0  0  0
    5.8460   -0.2170   29.1130 C   0  0  0  0  0  0  0  0  0  0  0  0
    5.4800   -0.2130   30.5860 C   0  0  0  0  0  0  0  0  0  0  0  0
    4.9230   -1.5580   30.9940 C   0  0  0  0  0  0  0  0  0  0  0  0
    4.8760   -2.5520   30.0380 C   0  0  0  0  0  0  0  0  0  0  0  0
    3.8120   -3.3970   30.2680 O   0  0  0  0  0  0  0  0  0  0  0  0
    5.7540   -2.6930   29.0140 N   0  0  0  0  0  0  0  0  0  0  0  0
    5.9510   -1.4010   28.4600 C   0  0  0  0  0  0  0  0  0  0  0  0
    5.7830   -4.9040   23.4830 C   0  0  0  0  0  0  0  0  0  0  0  0
    6.5430   -5.3710   22.4410 C   0  0  0  0  0  0  0  0  0  0  0  0
  1  2  1  0
  2  3  2  0
  2  4  1  0
  4  5  1  0
  5  6  1  0
  6  7  1  0
  7  8  1  0
  8  9  2  0
  8 10  1  0
 10 11  1  0
 11 12  2  0
 12 13  1  0
 13 14  2  0
 14 15  1  0
 15 16  1  0
 16 17  2  0
 17 18  1  0
 18 19  2  0
 18 20  1  0
 11 21  1  0
 15 21  2  0
 20 21  1  0
  7 22  1  0
  4 23  1  0
 22 23  1  0
M  END
