piperidine-amides-11561-covalent
     RDKit          3D

 21 22  0  0  0  0  0  0  0  0999 V2000
    7.1450   -3.2870   19.2270 C   0  0  0  0  0  0  0  0  0  0  0  0
    6.3350   -3.9970   20.2150 C   0  0  0  0  0  0  0  0  0  0  0  0
    5.2600   -4.5080   19.8670 O   0  0  0  0  0  0  0  0  0  0  0  0
    6.7790   -4.1620   21.5300 N   0  0  0  0  0  0  0  0  0  0  0  0
    6.5280   -5.3650   22.2870 C   0  0  0  0  0  0  0  0  0  0  0  0
    5.7890   -4.9140   23.5210 C   0  0  0  0  0  0  0  0  0  0  0  0
    6.5020   -3.7900   24.2240 C   0  0  0  0  0  0  0  0  0  0  0  0
    5.7050   -3.2130   25.3340 C   0  0  0  0  0  0  0  0  0  0  0  0
    5.4160   -1.9850   25.3510 O   0  0  0  0  0  0  0  0  0  0  0  0
    5.2030   -3.9830   26.3930 N   0  0  0  0  0  0  0  0  0  0  0  0
    5.8260   -4.0210   27.7310 C   0  0  0  0  0  0  0  0  0  0  0  0
    5.7960   -5.4450   28.1340 C   0  0  0  0  0  0  0  0  0  0  0  0
    6.8250   -5.8880   29.0720 C   0  0  0  0  0  0  0  0  0  0  0  0
    5.9620   -6.3310   26.9500 C   0  0  0  0  0  0  0  0  0  0  0  0
    4.5430   -5.9230   28.7760 C   0  0  0  0  0  0  0  0  0  0  0  0
    3.3120   -5.1430   28.8870 C   0  0  0  0  0  0  0  0  0  0  0  0
    2.3610   -5.8720   29.5110 C   0  0  0  0  0  0  0  0  0  0  0  0
    2.9930   -7.1050   29.7820 C   0  0  0  0  0  0  0  0  0  0  0  0
    4.4550   -7.1880   29.3200 C   0  0  0  0  0  0  0  0  0  0  0  0
    6.9260   -2.6540   23.3420 C   0  0  0  0  0  0  0  0  0  0  0  0
    7.6490   -3.1790   22.1380 C   0  0  0  0  0  0  0  0  0  0  0  0
  1  2  1  0
  2  3  2  0
  2  4  1  0
  4  5  1  0
  5  6  1  0
  6  7  1  0
  7  8  1  0
  8  9  2  0
  8 10  1  0
 10 11  1  0
 12 11  1  0
 12 13  1  0
 12 14  1  0
 12 15  1  0
 15 16  2  0
 16 17  1  0
 17 18  1  0
 15 19  1  0
 18 19  1  0
  7 20  1  0
  4 21  1  0
 20 21  1  0
M  END
