piperidine-amides-11626-covalent
     RDKit          3D

 31 34  0  0  0  0  0  0  0  0999 V2000
    7.1080   -3.3130   19.3140 C   0  0  0  0  0  0  0  0  0  0  0  0
    6.3200   -4.0780   20.2710 C   0  0  0  0  0  0  0  0  0  0  0  0
    5.2870   -4.6370   19.9110 O   0  0  0  0  0  0  0  0  0  0  0  0
    6.7800   -4.2180   21.6220 N   0  0  0  0  0  0  0  0  0  0  0  0
    7.6410   -3.1980   22.1790 C   0  0  0  0  0  0  0  0  0  0  0  0
    7.2130   -2.8710   23.5750 C   0  0  0  0  0  0  0  0  0  0  0  0
    5.8280   -3.4580   23.7620 C   0  0  0  0  0  0  0  0  0  0  0  0
    5.1510   -2.9450   24.9950 C   0  0  0  0  0  0  0  0  0  0  0  0
    4.3720   -1.9780   24.9540 O   0  0  0  0  0  0  0  0  0  0  0  0
    5.3680   -3.5580   26.2510 N   0  0  0  0  0  0  0  0  0  0  0  0
    4.7170   -2.9980   27.4330 C   0  0  0  0  0  0  0  0  0  0  0  0
    5.4040   -3.6850   28.5600 C   0  0  2  0  0  0  0  0  0  0  0  0
    6.5330   -4.0090   27.9520 C   0  0  0  0  0  0  0  0  0  0  0  0
    7.0610   -3.0500   27.0830 C   0  0  0  0  0  0  0  0  0  0  0  0
    8.1750   -3.3540   26.3840 C   0  0  0  0  0  0  0  0  0  0  0  0
    8.8080   -4.6320   26.5240 C   0  0  0  0  0  0  0  0  0  0  0  0
   10.1000   -5.3630   25.8450 S   0  0  0  0  0  0  0  0  0  0  0  0
    9.3920   -6.6630   26.5740 C   0  0  0  0  0  0  0  0  0  0  0  0
    8.2350   -5.4700   27.4120 C   0  0  0  0  0  0  0  0  0  0  0  0
    7.1240   -5.1880   28.1220 C   0  0  0  0  0  0  0  0  0  0  0  0
    4.8180   -4.7510   29.1760 N   0  0  0  0  0  0  0  0  0  0  0  0
    4.9120   -5.8570   28.3870 C   0  0  0  0  0  0  0  0  0  0  0  0
    4.3350   -7.0820   28.6770 C   0  0  0  0  0  0  0  0  0  0  0  0
    3.1260   -6.9770   29.3480 C   0  0  0  0  0  0  0  0  0  0  0  0
    1.8850   -8.1140   29.7660 S   0  0  0  0  0  0  0  0  0  0  0  0
    0.7710   -7.1300   30.5770 C   0  0  0  0  0  0  0  0  0  0  0  0
    1.4090   -5.7710   30.5280 C   0  0  0  0  0  0  0  0  0  0  0  0
    2.7290   -5.7420   29.8270 C   0  0  0  0  0  0  0  0  0  0  0  0
    3.5320   -4.4870   29.6680 C   0  0  0  0  0  0  0  0  0  0  0  0
    5.8490   -4.9820   23.7020 C   0  0  0  0  0  0  0  0  0  0  0  0
    6.5250   -5.4050   22.4080 C   0  0  0  0  0  0  0  0  0  0  0  0
  1  2  1  0
  2  3  2  0
  2  4  1  0
  4  5  1  0
  5  6  1  0
  6  7  1  0
  7  8  1  0
  8  9  2  0
  8 10  1  0
 10 11  1  0
 12 11  1  6
 12 13  1  0
 13 14  2  0
 14 15  1  0
 15 16  2  0
 16 17  1  0
 17 18  1  0
 16 19  1  0
 13 20  1  0
 19 20  2  0
 12 21  1  0
 21 22  1  0
 22 23  1  0
 23 24  1  0
 24 25  1  0
 25 26  1  0
 26 27  2  0
 24 28  2  0
 27 28  1  0
 21 29  1  0
 28 29  1  0
  7 30  1  0
  4 31  1  0
 30 31  1  0
M  END
