piperidine-amides-6448-covalent
     RDKit          3D

 20 21  0  0  0  0  0  0  0  0999 V2000
    7.0920   -3.3220   19.3310 C   0  0  0  0  0  0  0  0  0  0  0  0
    6.3970   -4.1760   20.3020 C   0  0  0  0  0  0  0  0  0  0  0  0
    5.3640   -4.7970   19.9700 O   0  0  0  0  0  0  0  0  0  0  0  0
    6.9130   -4.3530   21.5920 N   0  0  0  0  0  0  0  0  0  0  0  0
    7.7210   -3.3130   22.1940 C   0  0  0  0  0  0  0  0  0  0  0  0
    6.8570   -2.6860   23.2800 C   0  0  0  0  0  0  0  0  0  0  0  0
    6.4940   -3.8170   24.2070 C   0  0  0  0  0  0  0  0  0  0  0  0
    5.7600   -3.2550   25.3530 C   0  0  0  0  0  0  0  0  0  0  0  0
    4.5100   -3.2410   25.3240 O   0  0  0  0  0  0  0  0  0  0  0  0
    6.5010   -2.7440   26.4410 N   0  0  0  0  0  0  0  0  0  0  0  0
    6.0060   -1.6750   27.2620 C   0  0  2  0  0  0  0  0  0  0  0  0
    5.8450   -0.4220   26.4450 C   0  0  0  0  0  0  0  0  0  0  0  0
    5.8230    0.7440   27.1490 C   0  0  0  0  0  0  0  0  0  0  0  0
    5.8260    0.6340   28.5150 C   0  0  0  0  0  0  0  0  0  0  0  0
    6.6740   -0.2280   29.2200 C   0  0  2  0  0  0  0  0  0  0  0  0
    7.6420    0.4110   29.9010 O   0  0  0  0  0  0  0  0  0  0  0  0
    8.4800   -0.2050   30.7870 C   0  0  0  0  0  0  0  0  0  0  0  0
    7.0230   -1.3960   28.2800 C   0  0  0  0  0  0  0  0  0  0  0  0
    5.7470   -4.9300   23.5390 C   0  0  0  0  0  0  0  0  0  0  0  0
    6.5520   -5.4890   22.4100 C   0  0  0  0  0  0  0  0  0  0  0  0
  1  2  1  0
  2  3  2  0
  2  4  1  0
  4  5  1  0
  5  6  1  0
  6  7  1  0
  7  8  1  0
  8  9  2  0
  8 10  1  0
 11 10  1  6
 11 12  1  0
 12 13  1  0
 13 14  1  0
 14 15  1  0
 15 16  1  6
 16 17  1  0
 11 18  1  0
 15 18  1  0
  7 19  1  0
  4 20  1  0
 19 20  1  0
M  END
