piperidine-amides-12023-covalent
     RDKit          3D

 25 26  0  0  0  0  0  0  0  0999 V2000
    7.0890   -3.3070   19.2610 C   0  0  0  0  0  0  0  0  0  0  0  0
    6.3650   -4.0870   20.2570 C   0  0  0  0  0  0  0  0  0  0  0  0
    5.3240   -4.6590   19.9350 O   0  0  0  0  0  0  0  0  0  0  0  0
    6.9000   -4.2360   21.5860 N   0  0  0  0  0  0  0  0  0  0  0  0
    7.6880   -3.1570   22.1590 C   0  0  0  0  0  0  0  0  0  0  0  0
    7.3880   -2.9280   23.6250 C   0  0  0  0  0  0  0  0  0  0  0  0
    6.0670   -3.5990   23.9470 C   0  0  0  0  0  0  0  0  0  0  0  0
    5.5810   -3.2300   25.3030 C   0  0  0  0  0  0  0  0  0  0  0  0
    4.3650   -3.1830   25.5660 O   0  0  0  0  0  0  0  0  0  0  0  0
    6.5080   -2.9240   26.3210 N   0  0  0  0  0  0  0  0  0  0  0  0
    6.5490   -1.5750   26.8350 C   0  0  0  0  0  0  0  0  0  0  0  0
    5.8090   -1.5600   28.1530 C   0  0  0  0  0  0  0  0  0  0  0  0
    5.1510   -2.6740   28.6890 C   0  0  0  0  0  0  0  0  0  0  0  0
    4.4660   -2.6310   29.9170 C   0  0  0  0  0  0  0  0  0  0  0  0
    3.8670   -3.8100   30.3040 F   0  0  0  0  0  0  0  0  0  0  0  0
    4.4100   -1.4880   30.6550 C   0  0  0  0  0  0  0  0  0  0  0  0
    3.7500   -1.2500   31.9370 C   0  0  0  0  0  0  0  0  0  0  0  0
    3.2860   -2.4050   32.5330 F   0  0  0  0  0  0  0  0  0  0  0  0
    4.6490   -0.6130   32.7860 F   0  0  0  0  0  0  0  0  0  0  0  0
    2.6750   -0.3390   31.7180 F   0  0  0  0  0  0  0  0  0  0  0  0
    5.0120   -0.3650   30.2290 C   0  0  0  0  0  0  0  0  0  0  0  0
    5.6920   -0.3710   29.0290 C   0  0  0  0  0  0  0  0  0  0  0  0
    6.2540    0.8340   28.7180 F   0  0  0  0  0  0  0  0  0  0  0  0
    6.0340   -5.0500   23.6680 C   0  0  0  0  0  0  0  0  0  0  0  0
    6.5430   -5.3870   22.3430 C   0  0  0  0  0  0  0  0  0  0  0  0
  1  2  1  0
  2  3  2  0
  2  4  1  0
  4  5  1  0
  5  6  1  0
  6  7  1  0
  7  8  1  0
  8  9  2  0
  8 10  1  0
 10 11  1  0
 11 12  1  0
 12 13  2  0
 13 14  1  0
 14 15  1  0
 14 16  2  0
 16 17  1  0
 17 18  1  0
 17 19  1  0
 17 20  1  0
 16 21  1  0
 12 22  1  0
 21 22  2  0
 22 23  1  0
  7 24  1  0
  4 25  1  0
 24 25  1  0
M  END
