piperidine-amides-30313-covalent
     RDKit          3D

 27 29  0  0  0  0  0  0  0  0999 V2000
    7.0710   -3.3680   19.3190 C   0  0  0  0  0  0  0  0  0  0  0  0
    6.4050   -4.2260   20.2880 C   0  0  0  0  0  0  0  0  0  0  0  0
    5.3670   -4.8080   19.9760 O   0  0  0  0  0  0  0  0  0  0  0  0
    7.0010   -4.4570   21.5780 N   0  0  0  0  0  0  0  0  0  0  0  0
    7.6950   -3.3990   22.2590 C   0  0  0  0  0  0  0  0  0  0  0  0
    6.8480   -2.8770   23.3840 C   0  0  0  0  0  0  0  0  0  0  0  0
    6.3480   -4.0350   24.2400 C   0  0  0  0  0  0  0  0  0  0  0  0
    5.3280   -3.5220   25.2000 C   0  0  0  0  0  0  0  0  0  0  0  0
    4.3570   -2.8610   24.8070 O   0  0  0  0  0  0  0  0  0  0  0  0
    5.4470   -3.7630   26.5810 N   0  0  0  0  0  0  0  0  0  0  0  0
    6.4500   -3.0280   27.2030 C   0  0  0  0  0  0  0  0  0  0  0  0
    6.7890   -3.9120   28.3650 C   0  0  0  0  0  0  0  0  0  0  0  0
    5.7680   -4.0550   29.1840 C   0  0  0  0  0  0  0  0  0  0  0  0
    5.5860   -2.7500   29.7540 N   0  0  0  0  0  0  0  0  0  0  0  0
    6.5540   -1.6910   29.6190 C   0  0  0  0  0  0  0  0  0  0  0  0
    6.0470   -0.6370   30.2680 C   0  0  0  0  0  0  0  0  0  0  0  0
    6.4960    0.7260   30.5180 C   0  0  0  0  0  0  0  0  0  0  0  0
    7.5070    1.1860   29.8860 O   0  0  0  0  0  0  0  0  0  0  0  0
    5.8400    1.5230   31.4310 O   0  0  0  0  0  0  0  0  0  0  0  0
    6.1290    2.8610   31.7130 C   0  0  0  0  0  0  0  0  0  0  0  0
    6.4690    3.4800   30.5280 C   0  0  0  0  0  0  0  0  0  0  0  0
    4.7560   -1.0820   30.7950 C   0  0  0  0  0  0  0  0  0  0  0  0
    4.4890   -2.3750   30.4710 N   0  0  0  0  0  0  0  0  0  0  0  0
    4.6280   -4.5310   28.6510 C   0  0  0  0  0  0  0  0  0  0  0  0
    4.3100   -4.1470   27.3440 C   0  0  0  0  0  0  0  0  0  0  0  0
    5.6940   -5.1350   23.4400 C   0  0  0  0  0  0  0  0  0  0  0  0
    6.5530   -5.5750   22.3070 C   0  0  0  0  0  0  0  0  0  0  0  0
  1  2  1  0
  2  3  2  0
  2  4  1  0
  4  5  1  0
  5  6  1  0
  6  7  1  0
  7  8  1  0
  8  9  2  0
  8 10  1  0
 10 11  1  0
 11 12  1  0
 12 13  1  0
 13 14  1  0
 14 15  1  0
 15 16  2  0
 16 17  1  0
 17 18  2  0
 17 19  1  0
 19 20  1  0
 20 21  1  0
 16 22  1  0
 14 23  1  0
 22 23  2  0
 13 24  1  0
 10 25  1  0
 24 25  1  0
  7 26  1  0
  4 27  1  0
 26 27  1  0
M  END
