piperidine-amides-3648-covalent
     RDKit          3D

 17 17  0  0  0  0  0  0  0  0999 V2000
    7.1490   -3.2690   19.2190 C   0  0  0  0  0  0  0  0  0  0  0  0
    6.3750   -4.0110   20.2260 C   0  0  0  0  0  0  0  0  0  0  0  0
    5.2790   -4.4960   19.8650 O   0  0  0  0  0  0  0  0  0  0  0  0
    6.8790   -4.2240   21.5270 N   0  0  0  0  0  0  0  0  0  0  0  0
    6.3460   -5.3130   22.2580 C   0  0  0  0  0  0  0  0  0  0  0  0
    5.9080   -4.9530   23.6030 C   0  0  0  0  0  0  0  0  0  0  0  0
    6.5400   -3.7360   24.1630 C   0  0  0  0  0  0  0  0  0  0  0  0
    5.8180   -3.2630   25.3880 C   0  0  0  0  0  0  0  0  0  0  0  0
    4.5950   -3.0340   25.3300 O   0  0  0  0  0  0  0  0  0  0  0  0
    6.5040   -3.0640   26.5990 N   0  0  0  0  0  0  0  0  0  0  0  0
    6.2100   -3.5740   27.8930 C   0  0  0  0  0  0  0  0  0  0  0  0
    6.2290   -4.9910   28.2600 C   0  0  0  0  0  0  0  0  0  0  0  0
    5.7620   -5.8440   27.0770 C   0  0  0  0  0  0  0  0  0  0  0  0
    4.5880   -6.5470   27.2530 C   0  0  0  0  0  0  0  0  0  0  0  0
    4.7180   -7.3160   28.5720 C   0  0  0  0  0  0  0  0  0  0  0  0
    6.6970   -2.5990   23.2280 C   0  0  0  0  0  0  0  0  0  0  0  0
    7.6270   -3.1530   22.1520 C   0  0  0  0  0  0  0  0  0  0  0  0
  1  2  1  0
  2  3  2  0
  2  4  1  0
  4  5  1  0
  5  6  1  0
  6  7  1  0
  7  8  1  0
  8  9  2  0
  8 10  1  0
 10 11  1  0
 11 12  1  0
 12 13  1  0
 13 14  1  0
 14 15  2  3
  7 16  1  0
  4 17  1  0
 16 17  1  0
M  END
