piperidine-amides-30205-covalent
     RDKit          3D

 27 29  0  0  0  0  0  0  0  0999 V2000
    6.9960   -3.3690   19.4610 C   0  0  0  0  0  0  0  0  0  0  0  0
    6.3420   -4.2610   20.4200 C   0  0  0  0  0  0  0  0  0  0  0  0
    5.4270   -4.9840   20.0150 O   0  0  0  0  0  0  0  0  0  0  0  0
    6.7650   -4.3360   21.8080 N   0  0  0  0  0  0  0  0  0  0  0  0
    7.6160   -3.3040   22.3840 C   0  0  0  0  0  0  0  0  0  0  0  0
    7.1800   -2.9570   23.7890 C   0  0  0  0  0  0  0  0  0  0  0  0
    5.8140   -3.5880   23.9880 C   0  0  0  0  0  0  0  0  0  0  0  0
    5.0240   -3.0240   25.1700 C   0  0  0  0  0  0  0  0  0  0  0  0
    4.2240   -2.1070   24.9650 O   0  0  0  0  0  0  0  0  0  0  0  0
    5.1070   -3.4490   26.5390 N   0  0  0  0  0  0  0  0  0  0  0  0
    6.2270   -4.1950   26.7750 C   0  0  0  0  0  0  0  0  0  0  0  0
    6.4670   -4.5880   28.2280 C   0  0  0  0  0  0  0  0  0  0  0  0
    5.5360   -4.2510   29.1280 C   0  0  0  0  0  0  0  0  0  0  0  0
    4.9670   -5.4030   29.7640 N   0  0  0  0  0  0  0  0  0  0  0  0
    4.0080   -5.1140   30.7970 C   0  0  0  0  0  0  0  0  0  0  0  0
    3.6490   -3.7890   31.0890 O   0  0  0  0  0  0  0  0  0  0  0  0
    3.4790   -6.1910   31.4660 C   0  0  0  0  0  0  0  0  0  0  0  0
    3.1250   -6.3710   32.8110 O   0  0  0  0  0  0  0  0  0  0  0  0
    2.6430   -7.6190   32.9720 C   0  0  0  0  0  0  0  0  0  0  0  0
    2.2460   -7.9600   34.2430 C   0  0  0  0  0  0  0  0  0  0  0  0
    2.6680   -8.2580   31.8080 C   0  0  0  0  0  0  0  0  0  0  0  0
    3.1690   -7.4900   30.7780 C   0  0  0  0  0  0  0  0  0  0  0  0
    3.3520   -7.8520   29.3700 C   0  0  0  0  0  0  0  0  0  0  0  0
    4.4810   -3.5170   28.7130 C   0  0  0  0  0  0  0  0  0  0  0  0
    4.7790   -2.6270   27.6850 C   0  0  0  0  0  0  0  0  0  0  0  0
    5.9450   -5.0950   23.9690 C   0  0  0  0  0  0  0  0  0  0  0  0
    6.5300   -5.5280   22.5990 C   0  0  0  0  0  0  0  0  0  0  0  0
  1  2  1  0
  2  3  2  0
  2  4  1  0
  4  5  1  0
  5  6  1  0
  6  7  1  0
  7  8  1  0
  8  9  2  0
  8 10  1  0
 10 11  1  0
 11 12  1  0
 12 13  1  0
 13 14  1  0
 14 15  1  0
 15 16  2  0
 15 17  1  0
 17 18  1  0
 18 19  1  0
 19 20  1  0
 19 21  2  0
 17 22  2  0
 21 22  1  0
 22 23  1  0
 13 24  1  0
 10 25  1  0
 24 25  1  0
  7 26  1  0
  4 27  1  0
 26 27  1  0
M  END
