piperidine-amides-15013-covalent
     RDKit          3D

 21 22  0  0  0  0  0  0  0  0999 V2000
    7.0940   -3.3070   19.3080 C   0  0  0  0  0  0  0  0  0  0  0  0
    6.3350   -4.0730   20.2960 C   0  0  0  0  0  0  0  0  0  0  0  0
    5.2880   -4.6220   19.9140 O   0  0  0  0  0  0  0  0  0  0  0  0
    6.8090   -4.2300   21.6280 N   0  0  0  0  0  0  0  0  0  0  0  0
    6.5770   -5.4630   22.3320 C   0  0  0  0  0  0  0  0  0  0  0  0
    6.1180   -5.1820   23.7410 C   0  0  0  0  0  0  0  0  0  0  0  0
    5.9700   -3.6820   23.8630 C   0  0  0  0  0  0  0  0  0  0  0  0
    5.5020   -3.2800   25.2350 C   0  0  0  0  0  0  0  0  0  0  0  0
    4.2840   -3.2170   25.3690 O   0  0  0  0  0  0  0  0  0  0  0  0
    6.4140   -3.0040   26.2450 N   0  0  0  0  0  0  0  0  0  0  0  0
    6.5810   -1.6910   26.7780 C   0  0  2  0  0  0  0  0  0  0  0  0
    6.8000   -1.5620   28.1350 C   0  0  0  0  0  0  0  0  0  0  0  0
    5.7340   -0.7810   28.3760 C   0  0  2  0  0  0  0  0  0  0  0  0
    4.7410   -1.2630   29.2800 N   0  0  0  0  0  0  0  0  0  0  0  0
    4.5310   -0.1650   30.6100 S   0  0  0  0  0  0  0  0  0  0  0  0
    4.4340    1.5090   30.1320 C   0  0  0  0  0  0  0  0  0  0  0  0
    3.2400   -0.5350   31.3000 O   0  0  0  0  0  0  0  0  0  0  0  0
    5.6100   -0.3950   31.6170 O   0  0  0  0  0  0  0  0  0  0  0  0
    5.2630   -0.9380   26.8710 C   0  0  0  0  0  0  0  0  0  0  0  0
    7.2310   -2.9300   23.5740 C   0  0  0  0  0  0  0  0  0  0  0  0
    7.6520   -3.1460   22.1710 C   0  0  0  0  0  0  0  0  0  0  0  0
  1  2  1  0
  2  3  2  0
  2  4  1  0
  4  5  1  0
  5  6  1  0
  6  7  1  0
  7  8  1  0
  8  9  2  0
  8 10  1  0
 11 10  1  1
 11 12  1  0
 12 13  1  0
 13 14  1  1
 15 14  1  0
 15 16  1  0
 15 17  2  0
 15 18  2  0
 11 19  1  0
 13 19  1  0
  7 20  1  0
  4 21  1  0
 20 21  1  0
M  END
