piperidine-amides-13542-covalent
     RDKit          3D

 21 23  0  0  0  0  0  0  0  0999 V2000
    7.1110   -3.2950   19.2780 C   0  0  0  0  0  0  0  0  0  0  0  0
    6.3140   -4.0520   20.2840 C   0  0  0  0  0  0  0  0  0  0  0  0
    5.2820   -4.6360   19.9190 O   0  0  0  0  0  0  0  0  0  0  0  0
    6.7850   -4.1160   21.6120 N   0  0  0  0  0  0  0  0  0  0  0  0
    7.7000   -3.1070   22.1140 C   0  0  0  0  0  0  0  0  0  0  0  0
    7.5090   -3.0000   23.6230 C   0  0  0  0  0  0  0  0  0  0  0  0
    6.1650   -3.5670   23.8990 C   0  0  0  0  0  0  0  0  0  0  0  0
    5.6650   -3.3180   25.2690 C   0  0  0  0  0  0  0  0  0  0  0  0
    4.4760   -3.5840   25.4650 O   0  0  0  0  0  0  0  0  0  0  0  0
    6.5090   -2.8060   26.2620 N   0  0  0  0  0  0  0  0  0  0  0  0
    6.4870   -1.5010   26.8260 C   0  0  0  0  0  0  0  0  0  0  0  0
    5.3630   -0.9010   27.3580 C   0  0  2  0  0  0  0  0  0  0  0  0
    5.2800   -0.4430   28.5240 C   0  0  1  0  0  0  0  0  0  0  0  0
    4.7390    0.7900   28.8200 C   0  0  0  0  0  0  0  0  0  0  0  0
    3.9050    1.5130   27.8260 C   0  0  0  0  0  0  0  0  0  0  0  0
    2.5050    0.9140   27.6500 C   0  0  0  0  0  0  0  0  0  0  0  0
    2.6800   -0.3760   26.8420 C   0  0  0  0  0  0  0  0  0  0  0  0
    3.1020   -1.5010   27.5270 C   0  0  0  0  0  0  0  0  0  0  0  0
    4.4460   -1.5920   28.1730 C   0  0  1  0  0  0  0  0  0  0  0  0
    6.0310   -5.0250   23.5850 C   0  0  0  0  0  0  0  0  0  0  0  0
    6.6310   -5.3240   22.3850 C   0  0  0  0  0  0  0  0  0  0  0  0
  1  2  1  0
  2  3  2  0
  2  4  1  0
  4  5  1  0
  5  6  1  0
  6  7  1  0
  7  8  1  0
  8  9  2  0
  8 10  1  0
 10 11  1  0
 12 11  1  1
 12 13  1  0
 13 14  1  6
 14 15  1  0
 15 16  1  0
 16 17  1  0
 17 18  1  0
 12 19  1  0
 13 19  1  0
 19 18  1  6
  7 20  1  0
  4 21  1  0
 20 21  1  0
M  END
