piperidine-amides-10053-covalent
     RDKit          3D

 25 27  0  0  0  0  0  0  0  0999 V2000
    7.0640   -3.2820   19.2350 C   0  0  0  0  0  0  0  0  0  0  0  0
    6.3410   -4.0410   20.2610 C   0  0  0  0  0  0  0  0  0  0  0  0
    5.2770   -4.6020   19.8960 O   0  0  0  0  0  0  0  0  0  0  0  0
    6.8450   -4.1580   21.5580 N   0  0  0  0  0  0  0  0  0  0  0  0
    6.5080   -5.2850   22.3950 C   0  0  0  0  0  0  0  0  0  0  0  0
    5.7630   -4.7670   23.5990 C   0  0  0  0  0  0  0  0  0  0  0  0
    6.5440   -3.6920   24.3130 C   0  0  0  0  0  0  0  0  0  0  0  0
    5.8050   -3.2050   25.5160 C   0  0  0  0  0  0  0  0  0  0  0  0
    4.9490   -2.3100   25.3430 O   0  0  0  0  0  0  0  0  0  0  0  0
    5.9790   -3.7170   26.8360 N   0  0  0  0  0  0  0  0  0  0  0  0
    5.3090   -4.9590   27.1380 C   0  0  1  0  0  0  0  0  0  0  0  0
    6.1520   -6.1130   26.7200 C   0  0  0  0  0  0  0  0  0  0  0  0
    4.8690   -5.3390   28.4960 C   0  0  0  0  0  0  0  0  0  0  0  0
    5.5370   -6.2440   29.2930 C   0  0  0  0  0  0  0  0  0  0  0  0
    4.9470   -6.4770   30.5000 N   0  0  0  0  0  0  0  0  0  0  0  0
    5.4170   -7.3180   31.4220 C   0  0  0  0  0  0  0  0  0  0  0  0
    3.8250   -5.7140   30.5720 C   0  0  0  0  0  0  0  0  0  0  0  0
    2.8620   -5.5740   31.5840 C   0  0  0  0  0  0  0  0  0  0  0  0
    1.6000   -4.7130   31.6630 C   0  0  0  0  0  0  0  0  0  0  0  0
    0.4580   -4.6350   33.0240 Cl  0  0  0  0  0  0  0  0  0  0  0  0
    1.4960   -3.9330   30.3620 C   0  0  0  0  0  0  0  0  0  0  0  0
    2.4780   -4.0300   29.2450 C   0  0  0  0  0  0  0  0  0  0  0  0
    3.6840   -4.9190   29.2940 C   0  0  0  0  0  0  0  0  0  0  0  0
    6.9000   -2.5760   23.4090 C   0  0  0  0  0  0  0  0  0  0  0  0
    7.5610   -3.0480   22.1340 C   0  0  0  0  0  0  0  0  0  0  0  0
  1  2  1  0
  2  3  2  0
  2  4  1  0
  4  5  1  0
  5  6  1  0
  6  7  1  0
  7  8  1  0
  8  9  2  0
  8 10  1  0
 10 11  1  0
 11 12  1  1
 11 13  1  0
 13 14  2  0
 14 15  1  0
 15 16  1  0
 15 17  1  0
 17 18  1  0
 18 19  2  0
 19 20  1  0
 19 21  1  0
 21 22  2  0
 13 23  1  0
 17 23  2  0
 22 23  1  0
  7 24  1  0
  4 25  1  0
 24 25  1  0
M  END
