piperidine-amides-31282-covalent
     RDKit          3D

 27 29  0  0  0  0  0  0  0  0999 V2000
    7.0380   -3.4080   19.3670 C   0  0  0  0  0  0  0  0  0  0  0  0
    6.4030   -4.2090   20.3920 C   0  0  0  0  0  0  0  0  0  0  0  0
    5.4160   -4.9170   20.0090 O   0  0  0  0  0  0  0  0  0  0  0  0
    6.8410   -4.2890   21.7430 N   0  0  0  0  0  0  0  0  0  0  0  0
    7.7400   -3.2620   22.2920 C   0  0  0  0  0  0  0  0  0  0  0  0
    6.7320   -2.6110   23.3060 C   0  0  0  0  0  0  0  0  0  0  0  0
    6.2770   -3.6760   24.2930 C   0  0  0  0  0  0  0  0  0  0  0  0
    5.0230   -3.1260   25.1400 C   0  0  0  0  0  0  0  0  0  0  0  0
    4.0630   -3.0450   24.4020 O   0  0  0  0  0  0  0  0  0  0  0  0
    5.2730   -2.8980   26.3810 N   0  0  0  0  0  0  0  0  0  0  0  0
    5.2230   -2.3760   27.6310 C   0  0  0  0  0  0  0  0  0  0  0  0
    5.6000   -2.9710   28.7740 C   0  0  0  0  0  0  0  0  0  0  0  0
    6.1560   -4.1050   28.2240 C   0  0  1  0  0  0  0  0  0  0  0  0
    7.3530   -4.2780   28.8860 O   0  0  0  0  0  0  0  0  0  0  0  0
    5.4190   -5.3310   28.5440 C   0  0  0  0  0  0  0  0  0  0  0  0
    6.2250   -6.5210   28.9020 C   0  0  0  0  0  0  0  0  0  0  0  0
    5.2780   -7.5600   29.1800 C   0  0  0  0  0  0  0  0  0  0  0  0
    3.8140   -7.7500   29.2060 C   0  0  0  0  0  0  0  0  0  0  0  0
    3.2030   -6.3720   28.7930 C   0  0  0  0  0  0  0  0  0  0  0  0
    1.6450   -6.2290   28.7210 C   0  0  0  0  0  0  0  0  0  0  0  0
    1.2420   -4.9160   28.9850 F   0  0  0  0  0  0  0  0  0  0  0  0
    1.0900   -6.5290   27.5230 F   0  0  0  0  0  0  0  0  0  0  0  0
    1.0260   -6.9870   29.7310 F   0  0  0  0  0  0  0  0  0  0  0  0
    3.9630   -5.1720   28.4640 C   0  0  0  0  0  0  0  0  0  0  0  0
    6.1910   -3.9360   26.7730 C   0  0  0  0  0  0  0  0  0  0  0  0
    6.0470   -5.1170   23.7730 C   0  0  0  0  0  0  0  0  0  0  0  0
    6.6190   -5.4470   22.5520 C   0  0  0  0  0  0  0  0  0  0  0  0
  1  2  1  0
  2  3  2  0
  2  4  1  0
  4  5  1  0
  5  6  1  0
  6  7  1  0
  7  8  1  0
  8  9  2  0
  8 10  1  0
 10 11  1  0
 11 12  1  0
 12 13  1  0
 13 14  1  1
 13 15  1  0
 15 16  2  0
 16 17  1  0
 17 18  2  0
 18 19  1  0
 19 20  1  0
 20 21  1  0
 20 22  1  0
 20 23  1  0
 15 24  1  0
 19 24  2  0
 10 25  1  0
 13 25  1  0
  7 26  1  0
  4 27  1  0
 26 27  1  0
M  END
