piperidine-amides-3131-covalent
     RDKit          3D

 23 24  0  0  0  0  0  0  0  0999 V2000
    7.0500   -3.3370   19.3480 C   0  0  0  0  0  0  0  0  0  0  0  0
    6.3470   -4.1680   20.3220 C   0  0  0  0  0  0  0  0  0  0  0  0
    5.3730   -4.8350   19.9750 O   0  0  0  0  0  0  0  0  0  0  0  0
    6.8140   -4.2440   21.6770 N   0  0  0  0  0  0  0  0  0  0  0  0
    7.7150   -3.2280   22.1690 C   0  0  0  0  0  0  0  0  0  0  0  0
    7.4090   -2.9310   23.6000 C   0  0  0  0  0  0  0  0  0  0  0  0
    6.0830   -3.5980   23.9090 C   0  0  0  0  0  0  0  0  0  0  0  0
    5.6510   -3.1880   25.2750 C   0  0  0  0  0  0  0  0  0  0  0  0
    4.4550   -3.1660   25.6260 O   0  0  0  0  0  0  0  0  0  0  0  0
    6.6560   -2.8180   26.1910 N   0  0  0  0  0  0  0  0  0  0  0  0
    6.5450   -1.6280   27.0140 C   0  0  0  0  0  0  0  0  0  0  0  0
    7.0700   -1.6040   28.4210 C   0  0  0  0  0  0  0  0  0  0  0  0
    6.9760   -0.4820   29.2180 C   0  0  0  0  0  0  0  0  0  0  0  0
    6.3750    0.6890   28.7280 C   0  0  0  0  0  0  0  0  0  0  0  0
    5.8620    0.7570   27.4440 C   0  0  0  0  0  0  0  0  0  0  0  0
    5.9010   -0.3550   26.5020 C   0  0  0  0  0  0  0  0  0  0  0  0
    5.4130   -0.3570   25.2120 C   0  0  0  0  0  0  0  0  0  0  0  0
    5.3100    0.8390   24.5170 C   0  0  0  0  0  0  0  0  0  0  0  0
    5.7170    1.9530   25.2270 O   0  0  0  0  0  0  0  0  0  0  0  0
    4.8270    0.9200   23.2000 N   0  0  0  0  0  0  0  0  0  0  0  0
    5.7410    0.8020   22.2110 C   0  0  0  0  0  0  0  0  0  0  0  0
    6.0330   -5.0400   23.7010 C   0  0  0  0  0  0  0  0  0  0  0  0
    6.6160   -5.4170   22.4930 C   0  0  0  0  0  0  0  0  0  0  0  0
  1  2  1  0
  2  3  2  0
  2  4  1  0
  4  5  1  0
  5  6  1  0
  6  7  1  0
  7  8  1  0
  8  9  2  0
  8 10  1  0
 10 11  1  0
 11 12  2  0
 12 13  1  0
 13 14  2  0
 14 15  1  0
 11 16  1  0
 15 16  2  0
 16 17  1  0
 17 18  1  0
 18 19  2  0
 18 20  1  0
 20 21  1  0
  7 22  1  0
  4 23  1  0
 22 23  1  0
M  END
