piperidine-amides-23284-covalent
     RDKit          3D

 24 26  0  0  0  0  0  0  0  0999 V2000
    7.1170   -3.2840   19.2590 C   0  0  0  0  0  0  0  0  0  0  0  0
    6.4050   -4.0580   20.2910 C   0  0  0  0  0  0  0  0  0  0  0  0
    5.3650   -4.6670   19.9360 O   0  0  0  0  0  0  0  0  0  0  0  0
    6.9100   -4.1450   21.6160 N   0  0  0  0  0  0  0  0  0  0  0  0
    7.6760   -3.0700   22.1230 C   0  0  0  0  0  0  0  0  0  0  0  0
    7.4940   -2.8100   23.5440 C   0  0  0  0  0  0  0  0  0  0  0  0
    6.5660   -3.7080   24.2750 C   0  0  0  0  0  0  0  0  0  0  0  0
    5.5700   -2.8620   25.0240 C   0  0  0  0  0  0  0  0  0  0  0  0
    4.6080   -2.3860   24.4020 O   0  0  0  0  0  0  0  0  0  0  0  0
    5.6320   -2.5910   26.4070 N   0  0  0  0  0  0  0  0  0  0  0  0
    5.0210   -3.4830   27.2920 C   0  0  0  0  0  0  0  0  0  0  0  0
    5.2800   -4.8810   27.1080 C   0  0  0  0  0  0  0  0  0  0  0  0
    6.7000   -4.9500   27.5380 C   0  0  0  0  0  0  0  0  0  0  0  0
    7.2360   -3.9540   28.2890 C   0  0  0  0  0  0  0  0  0  0  0  0
    8.6970   -4.2080   28.6430 C   0  0  0  0  0  0  0  0  0  0  0  0
    9.3510   -5.4580   28.1840 C   0  0  0  0  0  0  0  0  0  0  0  0
    8.4850   -6.3370   27.3500 C   0  0  0  0  0  0  0  0  0  0  0  0
    7.1870   -6.1540   27.0010 N   0  0  0  0  0  0  0  0  0  0  0  0
    5.6720   -1.3070   27.0450 C   0  0  0  0  0  0  0  0  0  0  0  0
    4.6990   -1.0040   28.1380 C   0  0  0  0  0  0  0  0  0  0  0  0
    5.8230   -0.8920   29.1170 C   0  0  0  0  0  0  0  0  0  0  0  0
    6.8610   -1.1000   28.0310 C   0  0  0  0  0  0  0  0  0  0  0  0
    5.8120   -4.7150   23.4320 C   0  0  0  0  0  0  0  0  0  0  0  0
    6.6370   -5.2610   22.4610 C   0  0  0  0  0  0  0  0  0  0  0  0
  1  2  1  0
  2  3  2  0
  2  4  1  0
  4  5  1  0
  5  6  1  0
  6  7  1  0
  7  8  1  0
  8  9  2  0
  8 10  1  0
 10 11  1  0
 11 12  1  0
 12 13  1  0
 13 14  2  0
 14 15  1  0
 15 16  2  0
 16 17  1  0
 13 18  1  0
 17 18  2  0
 10 19  1  0
 19 20  1  0
 20 21  1  0
 19 22  1  0
 21 22  1  0
  7 23  1  0
  4 24  1  0
 23 24  1  0
M  END
