piperidine-amides-21689-covalent
     RDKit          3D

 21 21  0  0  0  0  0  0  0  0999 V2000
    7.1160   -3.2790   19.2280 C   0  0  0  0  0  0  0  0  0  0  0  0
    6.3930   -4.0390   20.2510 C   0  0  0  0  0  0  0  0  0  0  0  0
    5.3020   -4.5620   19.8920 O   0  0  0  0  0  0  0  0  0  0  0  0
    6.9400   -4.2070   21.5250 N   0  0  0  0  0  0  0  0  0  0  0  0
    7.7190   -3.1820   22.1750 C   0  0  0  0  0  0  0  0  0  0  0  0
    7.0480   -2.8100   23.4660 C   0  0  0  0  0  0  0  0  0  0  0  0
    6.5880   -4.0030   24.2800 C   0  0  0  0  0  0  0  0  0  0  0  0
    5.6520   -3.5340   25.3260 C   0  0  0  0  0  0  0  0  0  0  0  0
    4.6810   -2.8440   24.9410 O   0  0  0  0  0  0  0  0  0  0  0  0
    5.7480   -3.7850   26.7110 N   0  0  0  0  0  0  0  0  0  0  0  0
    5.2110   -2.7770   27.6020 C   0  0  0  0  0  0  0  0  0  0  0  0
    6.4710   -4.9410   27.2350 C   0  0  2  0  0  0  0  0  0  0  0  0
    7.3900   -5.4170   26.3490 C   0  0  0  0  0  0  0  0  0  0  0  0
    5.5860   -6.0600   27.6440 C   0  0  1  0  0  0  0  0  0  0  0  0
    6.3900   -6.3060   28.7600 C   0  0  0  0  0  0  0  0  0  0  0  0
    4.0070   -6.0160   28.2840 S   0  0  0  0  0  0  0  0  0  0  0  0
    3.7780   -7.6830   28.4930 C   0  0  0  0  0  0  0  0  0  0  0  0
    3.9330   -5.3290   29.6000 O   0  0  0  0  0  0  0  0  0  0  0  0
    3.0690   -5.4870   27.2600 O   0  0  0  0  0  0  0  0  0  0  0  0
    5.7800   -5.0270   23.4810 C   0  0  0  0  0  0  0  0  0  0  0  0
    6.5490   -5.4060   22.2480 C   0  0  0  0  0  0  0  0  0  0  0  0
  1  2  1  0
  2  3  2  0
  2  4  1  0
  4  5  1  0
  5  6  1  0
  6  7  1  0
  7  8  1  0
  8  9  2  0
  8 10  1  0
 10 11  1  0
 10 12  1  0
 12 13  1  6
 12 14  1  0
 14 15  1  1
 14 16  1  0
 16 17  1  0
 16 18  2  0
 16 19  2  0
  7 20  1  0
  4 21  1  0
 20 21  1  0
M  END
