piperidine-amides-27863-covalent
     RDKit          3D

 26 28  0  0  0  0  0  0  0  0999 V2000
    7.0550   -3.3310   19.3170 C   0  0  0  0  0  0  0  0  0  0  0  0
    6.3850   -4.1860   20.3230 C   0  0  0  0  0  0  0  0  0  0  0  0
    5.3510   -4.7770   19.9580 O   0  0  0  0  0  0  0  0  0  0  0  0
    6.9250   -4.3530   21.6100 N   0  0  0  0  0  0  0  0  0  0  0  0
    6.5880   -5.5040   22.3740 C   0  0  0  0  0  0  0  0  0  0  0  0
    5.9210   -5.1700   23.6360 C   0  0  0  0  0  0  0  0  0  0  0  0
    5.8020   -3.7180   23.8650 C   0  0  0  0  0  0  0  0  0  0  0  0
    5.2910   -3.4420   25.2370 C   0  0  0  0  0  0  0  0  0  0  0  0
    4.0780   -3.5950   25.4480 O   0  0  0  0  0  0  0  0  0  0  0  0
    6.1280   -3.0120   26.2700 N   0  0  0  0  0  0  0  0  0  0  0  0
    7.0860   -3.9630   26.8540 C   0  0  0  0  0  0  0  0  0  0  0  0
    8.4180   -3.7530   26.2610 C   0  0  0  0  0  0  0  0  0  0  0  0
    9.4510   -4.7340   26.5240 C   0  0  0  0  0  0  0  0  0  0  0  0
   10.6670   -4.4900   25.9790 C   0  0  0  0  0  0  0  0  0  0  0  0
   10.8860   -3.3750   25.2310 C   0  0  0  0  0  0  0  0  0  0  0  0
   12.0700   -3.0760   24.6970 C   0  0  0  0  0  0  0  0  0  0  0  0
   12.1110   -2.3990   23.4650 O   0  0  0  0  0  0  0  0  0  0  0  0
   13.1850   -3.4630   25.4300 O   0  0  0  0  0  0  0  0  0  0  0  0
   13.9880   -2.3710   25.5110 C   0  0  0  0  0  0  0  0  0  0  0  0
    9.9560   -2.4470   24.9530 C   0  0  0  0  0  0  0  0  0  0  0  0
    8.6840   -2.6190   25.4670 C   0  0  0  0  0  0  0  0  0  0  0  0
    6.5140   -1.6220   26.2200 C   0  0  0  0  0  0  0  0  0  0  0  0
    5.9220   -0.7610   27.1110 C   0  0  0  0  0  0  0  0  0  0  0  0
    5.4910   -0.5490   25.6480 C   0  0  0  0  0  0  0  0  0  0  0  0
    6.9840   -2.9090   23.5290 C   0  0  0  0  0  0  0  0  0  0  0  0
    7.7020   -3.3100   22.2550 C   0  0  0  0  0  0  0  0  0  0  0  0
  1  2  1  0
  2  3  2  0
  2  4  1  0
  4  5  1  0
  5  6  1  0
  6  7  1  0
  7  8  1  0
  8  9  2  0
  8 10  1  0
 10 11  1  0
 11 12  1  0
 12 13  2  0
 13 14  1  0
 14 15  2  0
 15 16  1  0
 16 17  2  0
 16 18  1  0
 18 19  1  0
 15 20  1  0
 12 21  1  0
 20 21  2  0
 10 22  1  0
 22 23  1  0
 22 24  1  0
 23 24  1  0
  7 25  1  0
  4 26  1  0
 25 26  1  0
M  END
