piperidine-amides-12693-covalent
     RDKit          3D

 22 22  0  0  0  0  0  0  0  0999 V2000
    7.0730   -3.3000   19.2870 C   0  0  0  0  0  0  0  0  0  0  0  0
    6.3760   -4.1120   20.3120 C   0  0  0  0  0  0  0  0  0  0  0  0
    5.3350   -4.6860   19.9360 O   0  0  0  0  0  0  0  0  0  0  0  0
    6.8880   -4.2610   21.6210 N   0  0  0  0  0  0  0  0  0  0  0  0
    7.6440   -3.2030   22.2300 C   0  0  0  0  0  0  0  0  0  0  0  0
    7.2080   -2.8800   23.5900 C   0  0  0  0  0  0  0  0  0  0  0  0
    5.9910   -3.6210   23.9780 C   0  0  0  0  0  0  0  0  0  0  0  0
    5.5540   -3.3540   25.3810 C   0  0  0  0  0  0  0  0  0  0  0  0
    4.3470   -3.1010   25.5580 O   0  0  0  0  0  0  0  0  0  0  0  0
    6.4240   -3.3710   26.4890 N   0  0  0  0  0  0  0  0  0  0  0  0
    6.1450   -4.1180   27.7560 C   0  0  0  0  0  0  0  0  0  0  0  0
    6.0190   -5.6070   27.5860 C   0  0  0  0  0  0  0  0  0  0  0  0
    5.0400   -6.3300   28.3980 C   0  0  0  0  0  0  0  0  0  0  0  0
    5.4560   -6.8870   29.5890 C   0  0  0  0  0  0  0  0  0  0  0  0
    4.3840   -7.6610   30.0730 N   0  0  0  0  0  0  0  0  0  0  0  0
    3.2390   -6.9860   30.6610 C   0  0  0  0  0  0  0  0  0  0  0  0
    2.6710   -7.6660   31.6970 C   0  0  0  0  0  0  0  0  0  0  0  0
    3.4610   -8.1840   32.6950 F   0  0  0  0  0  0  0  0  0  0  0  0
    1.8060   -6.7490   32.3370 F   0  0  0  0  0  0  0  0  0  0  0  0
    1.8400   -8.6180   31.2020 F   0  0  0  0  0  0  0  0  0  0  0  0
    5.9910   -5.0820   23.6360 C   0  0  0  0  0  0  0  0  0  0  0  0
    6.6170   -5.4060   22.4550 C   0  0  0  0  0  0  0  0  0  0  0  0
  1  2  1  0
  2  3  2  0
  2  4  1  0
  4  5  1  0
  5  6  1  0
  6  7  1  0
  7  8  1  0
  8  9  2  0
  8 10  1  0
 10 11  1  0
 11 12  1  0
 12 13  1  0
 13 14  1  0
 14 15  1  0
 15 16  1  0
 16 17  1  0
 17 18  1  0
 17 19  1  0
 17 20  1  0
  7 21  1  0
  4 22  1  0
 21 22  1  0
M  END
