piperidine-amides-6493-covalent
     RDKit          3D

 25 27  0  0  0  0  0  0  0  0999 V2000
    7.0860   -3.3210   19.2780 C   0  0  0  0  0  0  0  0  0  0  0  0
    6.4010   -4.1510   20.2790 C   0  0  0  0  0  0  0  0  0  0  0  0
    5.3650   -4.7800   19.9680 O   0  0  0  0  0  0  0  0  0  0  0  0
    6.9270   -4.2940   21.5670 N   0  0  0  0  0  0  0  0  0  0  0  0
    6.5380   -5.4280   22.3700 C   0  0  0  0  0  0  0  0  0  0  0  0
    5.6500   -4.8650   23.4850 C   0  0  0  0  0  0  0  0  0  0  0  0
    6.5080   -3.8760   24.2450 C   0  0  0  0  0  0  0  0  0  0  0  0
    5.7720   -3.2950   25.3840 C   0  0  0  0  0  0  0  0  0  0  0  0
    4.5450   -3.0930   25.2580 O   0  0  0  0  0  0  0  0  0  0  0  0
    6.4570   -2.9760   26.5790 N   0  0  0  0  0  0  0  0  0  0  0  0
    6.3530   -1.6700   27.1670 C   0  0  0  0  0  0  0  0  0  0  0  0
    7.0630   -1.5820   28.4940 C   0  0  0  0  0  0  0  0  0  0  0  0
    7.0700   -0.4150   29.2000 C   0  0  0  0  0  0  0  0  0  0  0  0
    6.4130    0.6820   28.6810 C   0  0  0  0  0  0  0  0  0  0  0  0
    5.7360    0.6540   27.4520 C   0  0  0  0  0  0  0  0  0  0  0  0
    5.1050    1.7640   26.9960 O   0  0  0  0  0  0  0  0  0  0  0  0
    3.8070    2.0930   27.3050 C   0  0  0  0  0  0  0  0  0  0  0  0
    3.3960    3.4270   26.7070 C   0  0  2  0  0  0  0  0  0  0  0  0
    2.2950    2.4800   27.0390 C   0  0  0  0  0  0  0  0  0  0  0  0
    1.0650    2.6760   26.1650 C   0  0  0  0  0  0  0  0  0  0  0  0
    2.2120    2.7860   25.2000 C   0  0  0  0  0  0  0  0  0  0  0  0
    3.2620    3.6750   25.4290 O   0  0  0  0  0  0  0  0  0  0  0  0
    5.7350   -0.5240   26.7430 C   0  0  0  0  0  0  0  0  0  0  0  0
    6.8670   -2.7190   23.3270 C   0  0  0  0  0  0  0  0  0  0  0  0
    7.6930   -3.2330   22.1890 C   0  0  0  0  0  0  0  0  0  0  0  0
  1  2  1  0
  2  3  2  0
  2  4  1  0
  4  5  1  0
  5  6  1  0
  6  7  1  0
  7  8  1  0
  8  9  2  0
  8 10  1  0
 10 11  1  0
 11 12  2  0
 12 13  1  0
 13 14  2  0
 14 15  1  0
 15 16  1  0
 16 17  1  0
 18 17  1  6
 18 19  1  0
 19 20  1  0
 20 21  1  0
 18 22  1  0
 21 22  1  0
 11 23  1  0
 15 23  2  0
  7 24  1  0
  4 25  1  0
 24 25  1  0
M  END
