piperidine-amides-31085-covalent
     RDKit          3D

 26 28  0  0  0  0  0  0  0  0999 V2000
    7.0490   -3.3460   19.3830 C   0  0  0  0  0  0  0  0  0  0  0  0
    6.3670   -4.2010   20.3570 C   0  0  0  0  0  0  0  0  0  0  0  0
    5.3660   -4.8340   19.9830 O   0  0  0  0  0  0  0  0  0  0  0  0
    6.8380   -4.3840   21.6780 N   0  0  0  0  0  0  0  0  0  0  0  0
    6.6750   -5.6570   22.3510 C   0  0  0  0  0  0  0  0  0  0  0  0
    6.4170   -5.3880   23.8180 C   0  0  0  0  0  0  0  0  0  0  0  0
    6.1930   -3.9400   24.1240 C   0  0  0  0  0  0  0  0  0  0  0  0
    5.5970   -3.6760   25.4740 C   0  0  0  0  0  0  0  0  0  0  0  0
    4.3590   -3.4140   25.5210 O   0  0  0  0  0  0  0  0  0  0  0  0
    6.2500   -3.6580   26.7390 N   0  0  0  0  0  0  0  0  0  0  0  0
    6.3420   -2.3060   27.3400 C   0  0  0  0  0  0  0  0  0  0  0  0
    6.1750   -2.4670   28.8020 C   0  0  0  0  0  0  0  0  0  0  0  0
    5.5040   -3.8840   29.3740 S   0  0  0  0  0  0  0  0  0  0  0  0
    5.7510   -4.5740   27.7850 C   0  0  2  0  0  0  0  0  0  0  0  0
    6.5850   -5.7280   28.2300 C   0  0  0  0  0  0  0  0  0  0  0  0
    5.3000   -6.4390   28.3010 C   0  0  1  0  0  0  0  0  0  0  0  0
    4.8810   -6.5930   29.7210 C   0  0  0  0  0  0  0  0  0  0  0  0
    5.8150   -6.2920   30.6760 O   0  0  0  0  0  0  0  0  0  0  0  0
    3.7740   -6.9860   30.1560 O   0  0  0  0  0  0  0  0  0  0  0  0
    3.0410   -6.4120   31.1950 C   0  0  0  0  0  0  0  0  0  0  0  0
    3.1310   -5.0140   31.2350 C   0  0  0  0  0  0  0  0  0  0  0  0
    3.7250   -5.7140   32.3840 C   0  0  0  0  0  0  0  0  0  0  0  0
    3.3540   -7.1500   32.5430 C   0  0  0  0  0  0  0  0  0  0  0  0
    4.4740   -5.3440   27.6130 C   0  0  0  0  0  0  0  0  0  0  0  0
    7.4090   -3.1760   23.7270 C   0  0  0  0  0  0  0  0  0  0  0  0
    7.5860   -3.2950   22.2600 C   0  0  0  0  0  0  0  0  0  0  0  0
  1  2  1  0
  2  3  2  0
  2  4  1  0
  4  5  1  0
  5  6  1  0
  6  7  1  0
  7  8  1  0
  8  9  2  0
  8 10  1  0
 10 11  1  0
 11 12  1  0
 12 13  1  0
 10 14  1  0
 14 13  1  0
 14 15  1  1
 15 16  1  0
 16 17  1  1
 17 18  2  0
 17 19  1  0
 20 19  1  0
 20 21  1  0
 20 22  1  0
 20 23  1  0
 14 24  1  0
 16 24  1  0
  7 25  1  0
  4 26  1  0
 25 26  1  0
M  END
