piperidine-amides-29618-covalent
     RDKit          3D

 27 29  0  0  0  0  0  0  0  0999 V2000
    7.1480   -3.2590   19.2230 C   0  0  0  0  0  0  0  0  0  0  0  0
    6.3690   -4.0070   20.2020 C   0  0  0  0  0  0  0  0  0  0  0  0
    5.3000   -4.5300   19.8810 O   0  0  0  0  0  0  0  0  0  0  0  0
    6.8810   -4.1840   21.5260 N   0  0  0  0  0  0  0  0  0  0  0  0
    6.5240   -5.3390   22.3000 C   0  0  0  0  0  0  0  0  0  0  0  0
    5.7400   -4.9130   23.5080 C   0  0  0  0  0  0  0  0  0  0  0  0
    6.5410   -3.8430   24.2380 C   0  0  0  0  0  0  0  0  0  0  0  0
    5.7520   -3.3160   25.3830 C   0  0  0  0  0  0  0  0  0  0  0  0
    4.5280   -3.1080   25.2970 O   0  0  0  0  0  0  0  0  0  0  0  0
    6.4120   -3.0240   26.6020 N   0  0  0  0  0  0  0  0  0  0  0  0
    6.7870   -1.6450   26.7900 C   0  0  0  0  0  0  0  0  0  0  0  0
    6.2020   -3.9060   27.7360 C   0  0  0  0  0  0  0  0  0  0  0  0
    5.8440   -5.2320   27.5400 C   0  0  0  0  0  0  0  0  0  0  0  0
    4.6250   -5.5250   28.2380 N   0  0  0  0  0  0  0  0  0  0  0  0
    3.4210   -5.5960   27.5030 C   0  0  0  0  0  0  0  0  0  0  0  0
    3.4220   -5.9650   26.1480 O   0  0  0  0  0  0  0  0  0  0  0  0
    2.2750   -5.2870   28.2050 C   0  0  0  0  0  0  0  0  0  0  0  0
    1.0720   -4.6330   27.7220 C   0  0  0  0  0  0  0  0  0  0  0  0
    2.2620   -5.6570   29.6310 N   0  0  0  0  0  0  0  0  0  0  0  0
    3.3690   -6.2750   30.1440 C   0  0  0  0  0  0  0  0  0  0  0  0
    3.3890   -6.9760   31.3400 C   0  0  0  0  0  0  0  0  0  0  0  0
    4.5080   -7.5950   31.8520 C   0  0  0  0  0  0  0  0  0  0  0  0
    5.7400   -7.5170   31.1080 C   0  0  0  0  0  0  0  0  0  0  0  0
    5.7760   -6.8320   29.9160 C   0  0  0  0  0  0  0  0  0  0  0  0
    4.5980   -6.2270   29.4580 C   0  0  0  0  0  0  0  0  0  0  0  0
    6.8610   -2.6730   23.3400 C   0  0  0  0  0  0  0  0  0  0  0  0
    7.6830   -3.1630   22.1530 C   0  0  0  0  0  0  0  0  0  0  0  0
  1  2  1  0
  2  3  2  0
  2  4  1  0
  4  5  1  0
  5  6  1  0
  6  7  1  0
  7  8  1  0
  8  9  2  0
  8 10  1  0
 10 11  1  0
 10 12  1  0
 12 13  1  0
 13 14  1  0
 14 15  1  0
 15 16  2  0
 15 17  1  0
 17 18  1  0
 17 19  2  0
 19 20  1  0
 20 21  1  0
 21 22  2  0
 22 23  1  0
 23 24  2  0
 14 25  1  0
 20 25  2  0
 24 25  1  0
  7 26  1  0
  4 27  1  0
 26 27  1  0
M  END
