piperidine-amides-12867-covalent
     RDKit          3D

 21 22  0  0  0  0  0  0  0  0999 V2000
    7.1020   -3.2650   19.1760 C   0  0  0  0  0  0  0  0  0  0  0  0
    6.3370   -4.0050   20.2020 C   0  0  0  0  0  0  0  0  0  0  0  0
    5.2400   -4.4690   19.8480 O   0  0  0  0  0  0  0  0  0  0  0  0
    6.8540   -4.2290   21.4820 N   0  0  0  0  0  0  0  0  0  0  0  0
    6.6260   -5.4890   22.0960 C   0  0  0  0  0  0  0  0  0  0  0  0
    6.0350   -5.3420   23.4090 C   0  0  0  0  0  0  0  0  0  0  0  0
    5.8360   -3.9360   23.7840 C   0  0  0  0  0  0  0  0  0  0  0  0
    5.2800   -3.8820   25.1490 C   0  0  0  0  0  0  0  0  0  0  0  0
    4.2110   -3.2640   25.3120 O   0  0  0  0  0  0  0  0  0  0  0  0
    5.9220   -4.5210   26.2200 N   0  0  0  0  0  0  0  0  0  0  0  0
    6.9740   -3.8290   26.9550 C   0  0  2  0  0  0  0  0  0  0  0  0
    7.2100   -4.2640   28.2980 C   0  0  0  0  0  0  0  0  0  0  0  0
    6.9490   -2.9140   28.6320 C   0  0  1  0  0  0  0  0  0  0  0  0
    5.8840   -2.5810   29.4410 C   0  0  0  0  0  0  0  0  0  0  0  0
    7.9850   -2.2770   29.0320 O   0  0  0  0  0  0  0  0  0  0  0  0
    7.7620   -1.1360   29.6220 C   0  0  0  0  0  0  0  0  0  0  0  0
    6.6460   -2.4160   27.2320 C   0  0  0  0  0  0  0  0  0  0  0  0
    7.4560   -1.5330   26.6650 C   0  0  0  0  0  0  0  0  0  0  0  0
    5.3230   -2.1320   26.9570 C   0  0  0  0  0  0  0  0  0  0  0  0
    7.1090   -3.1380   23.6150 C   0  0  0  0  0  0  0  0  0  0  0  0
    7.6230   -3.2400   22.2210 C   0  0  0  0  0  0  0  0  0  0  0  0
  1  2  1  0
  2  3  2  0
  2  4  1  0
  4  5  1  0
  5  6  1  0
  6  7  1  0
  7  8  1  0
  8  9  2  0
  8 10  1  0
 11 10  1  1
 11 12  1  0
 12 13  1  0
 13 14  1  1
 13 15  1  0
 15 16  1  0
 11 17  1  0
 13 17  1  0
 17 18  1  0
 17 19  1  0
  7 20  1  0
  4 21  1  0
 20 21  1  0
M  END
