piperidine-amides-3753-covalent
     RDKit          3D

 26 28  0  0  0  0  0  0  0  0999 V2000
    7.0920   -3.3730   19.3270 C   0  0  0  0  0  0  0  0  0  0  0  0
    6.4100   -4.1880   20.3390 C   0  0  0  0  0  0  0  0  0  0  0  0
    5.3600   -4.7680   19.9700 O   0  0  0  0  0  0  0  0  0  0  0  0
    6.9590   -4.3600   21.6410 N   0  0  0  0  0  0  0  0  0  0  0  0
    7.6120   -3.2520   22.2480 C   0  0  0  0  0  0  0  0  0  0  0  0
    7.2050   -2.9240   23.6150 C   0  0  0  0  0  0  0  0  0  0  0  0
    6.2980   -3.8610   24.3350 C   0  0  0  0  0  0  0  0  0  0  0  0
    5.4110   -3.1240   25.3060 C   0  0  0  0  0  0  0  0  0  0  0  0
    4.2970   -2.7400   24.9140 O   0  0  0  0  0  0  0  0  0  0  0  0
    5.7840   -2.8650   26.6480 N   0  0  0  0  0  0  0  0  0  0  0  0
    5.9090   -1.6180   27.3500 C   0  0  1  0  0  0  0  0  0  0  0  0
    7.2050   -1.1080   27.5180 C   0  0  0  0  0  0  0  0  0  0  0  0
    7.4870   -1.4160   28.9430 C   0  0  0  0  0  0  0  0  0  0  0  0
    6.4320   -0.2650   29.4580 S   0  0  0  0  0  0  0  0  0  0  0  0
    5.7570   -0.7580   30.7090 O   0  0  0  0  0  0  0  0  0  0  0  0
    7.2520    0.9420   29.7320 O   0  0  0  0  0  0  0  0  0  0  0  0
    5.2440    0.0660   28.1160 C   0  0  1  0  0  0  0  0  0  0  0  0
    5.3780   -0.4040   26.5900 C   0  0  0  0  0  0  0  0  0  0  0  0
    3.7610   -0.2330   28.5280 C   0  0  0  0  0  0  0  0  0  0  0  0
    3.5580    1.2240   28.4200 C   0  0  1  0  0  0  0  0  0  0  0  0
    2.9340    2.0520   29.5230 C   0  0  0  0  0  0  0  0  0  0  0  0
    2.9400    1.6180   30.8770 N   0  0  0  0  0  0  0  0  0  0  0  0
    2.3110    3.3010   29.2590 O   0  0  0  0  0  0  0  0  0  0  0  0
    5.0230    1.4620   28.2270 C   0  0  0  0  0  0  0  0  0  0  0  0
    5.4310   -4.7160   23.3910 C   0  0  0  0  0  0  0  0  0  0  0  0
    6.3590   -5.4090   22.4620 C   0  0  0  0  0  0  0  0  0  0  0  0
  1  2  1  0
  2  3  2  0
  2  4  1  0
  4  5  1  0
  5  6  1  0
  6  7  1  0
  7  8  1  0
  8  9  2  0
  8 10  1  0
 11 10  1  6
 11 12  1  0
 12 13  1  0
 14 13  1  0
 14 15  2  0
 14 16  2  0
 14 17  1  0
 11 18  1  0
 17 18  1  6
 17 19  1  0
 19 20  1  0
 20 21  1  1
 21 22  1  0
 21 23  2  0
 17 24  1  0
 20 24  1  0
  7 25  1  0
  4 26  1  0
 25 26  1  0
M  END
