piperidine-amides-4031-covalent
     RDKit          3D

 28 28  0  0  0  0  0  0  0  0999 V2000
    7.0490   -3.2580   19.1920 C   0  0  0  0  0  0  0  0  0  0  0  0
    6.2750   -4.0280   20.1880 C   0  0  0  0  0  0  0  0  0  0  0  0
    5.1850   -4.5070   19.8350 O   0  0  0  0  0  0  0  0  0  0  0  0
    6.7700   -4.2580   21.4830 N   0  0  0  0  0  0  0  0  0  0  0  0
    7.2900   -3.1160   22.1290 C   0  0  0  0  0  0  0  0  0  0  0  0
    6.5390   -2.7300   23.3150 C   0  0  0  0  0  0  0  0  0  0  0  0
    6.1260   -3.8720   24.1400 C   0  0  0  0  0  0  0  0  0  0  0  0
    5.1890   -3.4240   25.2170 C   0  0  0  0  0  0  0  0  0  0  0  0
    4.1090   -2.8840   24.9240 O   0  0  0  0  0  0  0  0  0  0  0  0
    5.5190   -3.6110   26.5730 N   0  0  0  0  0  0  0  0  0  0  0  0
    6.1660   -4.7150   27.1550 C   0  0  0  0  0  0  0  0  0  0  0  0
    7.2010   -4.5490   28.1420 C   0  0  1  0  0  0  0  0  0  0  0  0
    8.4520   -5.3300   27.7030 C   0  0  0  0  0  0  0  0  0  0  0  0
    8.8810   -5.1180   26.4010 C   0  0  0  0  0  0  0  0  0  0  0  0
    9.6000   -6.0640   25.7210 O   0  0  0  0  0  0  0  0  0  0  0  0
    8.5810   -4.0170   25.8970 O   0  0  0  0  0  0  0  0  0  0  0  0
    8.8500   -3.6910   24.5300 C   0  0  0  0  0  0  0  0  0  0  0  0
    8.6630   -2.2000   24.3470 C   0  0  0  0  0  0  0  0  0  0  0  0
    9.6820   -1.4810   24.0440 O   0  0  0  0  0  0  0  0  0  0  0  0
   10.1990   -1.5450   22.7790 C   0  0  0  0  0  0  0  0  0  0  0  0
   11.4660   -0.7220   22.6490 C   0  0  0  0  0  0  0  0  0  0  0  0
    9.1830   -1.0840   21.7630 C   0  0  0  0  0  0  0  0  0  0  0  0
    7.8690   -3.1870   28.1670 C   0  0  0  0  0  0  0  0  0  0  0  0
    7.0750   -2.0350   28.6990 C   0  0  0  0  0  0  0  0  0  0  0  0
    7.7330   -1.2220   29.6190 C   0  0  0  0  0  0  0  0  0  0  0  0
    6.4970   -1.3410   27.6620 C   0  0  0  0  0  0  0  0  0  0  0  0
    5.5050   -4.9410   23.2950 C   0  0  0  0  0  0  0  0  0  0  0  0
    6.3430   -5.3960   22.2670 C   0  0  0  0  0  0  0  0  0  0  0  0
  1  2  1  0
  2  3  2  0
  2  4  1  0
  4  5  1  0
  5  6  1  0
  6  7  1  0
  7  8  1  0
  8  9  2  0
  8 10  1  0
 10 11  1  0
 12 11  1  6
 12 13  1  0
 13 14  1  0
 14 15  2  0
 14 16  1  0
 16 17  1  0
 17 18  1  0
 18 19  1  0
 19 20  1  0
 20 21  1  0
 20 22  1  0
 12 23  1  0
 23 24  1  0
 24 25  1  0
 24 26  1  0
  7 27  1  0
  4 28  1  0
 27 28  1  0
M  END
