piperidine-amides-23857-covalent
     RDKit          3D

 24 26  0  0  0  0  0  0  0  0999 V2000
    7.1190   -3.3530   19.3210 C   0  0  0  0  0  0  0  0  0  0  0  0
    6.3980   -4.1470   20.3220 C   0  0  0  0  0  0  0  0  0  0  0  0
    5.3460   -4.7180   19.9510 O   0  0  0  0  0  0  0  0  0  0  0  0
    6.9240   -4.2930   21.6280 N   0  0  0  0  0  0  0  0  0  0  0  0
    6.6030   -5.4720   22.3660 C   0  0  0  0  0  0  0  0  0  0  0  0
    6.0810   -5.1500   23.6790 C   0  0  0  0  0  0  0  0  0  0  0  0
    6.2610   -3.7240   23.9670 C   0  0  0  0  0  0  0  0  0  0  0  0
    5.8180   -3.3260   25.3420 C   0  0  0  0  0  0  0  0  0  0  0  0
    4.9500   -2.4370   25.4480 O   0  0  0  0  0  0  0  0  0  0  0  0
    6.3120   -3.9160   26.5190 N   0  0  0  0  0  0  0  0  0  0  0  0
    7.6160   -4.3440   26.7980 C   0  0  0  0  0  0  0  0  0  0  0  0
    7.7360   -4.7420   28.1820 C   0  0  0  0  0  0  0  0  0  0  0  0
    6.3220   -4.3700   28.7210 C   0  0  0  0  0  0  0  0  0  0  0  0
    5.5210   -3.8370   27.7190 C   0  0  2  0  0  0  0  0  0  0  0  0
    4.5460   -5.0030   27.9960 C   0  0  0  0  0  0  0  0  0  0  0  0
    4.3780   -5.3380   26.5450 C   0  0  0  0  0  0  0  0  0  0  0  0
    2.9520   -5.8270   26.8640 C   0  0  0  0  0  0  0  0  0  0  0  0
    1.8910   -4.9090   26.6440 N   0  0  0  0  0  0  0  0  0  0  0  0
    1.9580   -3.8730   25.7080 C   0  0  0  0  0  0  0  0  0  0  0  0
    0.6870   -3.1610   25.7900 C   0  0  0  0  0  0  0  0  0  0  0  0
   -0.0890   -3.9040   26.8580 C   0  0  0  0  0  0  0  0  0  0  0  0
    0.7000   -4.9400   27.3230 N   0  0  0  0  0  0  0  0  0  0  0  0
    7.6580   -3.3390   23.6180 C   0  0  0  0  0  0  0  0  0  0  0  0
    7.7130   -3.2140   22.2240 C   0  0  0  0  0  0  0  0  0  0  0  0
  1  2  1  0
  2  3  2  0
  2  4  1  0
  4  5  1  0
  5  6  1  0
  6  7  1  0
  7  8  1  0
  8  9  2  0
  8 10  1  0
 10 11  1  0
 11 12  1  0
 12 13  1  0
 10 14  1  0
 13 14  1  0
 14 15  1  6
 15 16  1  0
 16 17  1  0
 17 18  1  0
 18 19  1  0
 19 20  2  0
 20 21  1  0
 18 22  1  0
 21 22  2  0
  7 23  1  0
  4 24  1  0
 23 24  1  0
M  END
