piperidine-amides-14185-covalent
     RDKit          3D

 24 26  0  0  0  0  0  0  0  0999 V2000
    7.1240   -3.3540   19.3240 C   0  0  0  0  0  0  0  0  0  0  0  0
    6.3850   -4.1800   20.3050 C   0  0  0  0  0  0  0  0  0  0  0  0
    5.3270   -4.7290   19.9550 O   0  0  0  0  0  0  0  0  0  0  0  0
    6.9470   -4.3710   21.5840 N   0  0  0  0  0  0  0  0  0  0  0  0
    7.6500   -3.3120   22.2580 C   0  0  0  0  0  0  0  0  0  0  0  0
    6.6860   -2.8010   23.3300 C   0  0  0  0  0  0  0  0  0  0  0  0
    6.3760   -3.9310   24.2600 C   0  0  0  0  0  0  0  0  0  0  0  0
    5.6720   -3.4450   25.4720 C   0  0  0  0  0  0  0  0  0  0  0  0
    4.4380   -3.5180   25.4320 O   0  0  0  0  0  0  0  0  0  0  0  0
    6.3610   -2.9200   26.5770 N   0  0  0  0  0  0  0  0  0  0  0  0
    6.4010   -1.5460   26.9360 C   0  0  0  0  0  0  0  0  0  0  0  0
    6.9320   -0.7480   27.9630 C   0  0  0  0  0  0  0  0  0  0  0  0
    7.1420   -1.6730   28.5870 N   0  0  0  0  0  0  0  0  0  0  0  0
    5.9410   -0.8640   28.0240 N   0  0  0  0  0  0  0  0  0  0  0  0
    6.0170   -1.5520   29.3000 C   0  0  0  0  0  0  0  0  0  0  0  0
    4.7880   -2.1800   29.3830 C   0  0  0  0  0  0  0  0  0  0  0  0
    4.0880   -1.6540   30.5840 C   0  0  0  0  0  0  0  0  0  0  0  0
    4.9390   -0.5900   31.2720 C   0  0  0  0  0  0  0  0  0  0  0  0
    6.1800   -0.6810   30.3860 C   0  0  0  0  0  0  0  0  0  0  0  0
    6.1870   -0.5650   26.5440 C   0  0  0  0  0  0  0  0  0  0  0  0
    5.8450    0.2710   25.3640 C   0  0  0  0  0  0  0  0  0  0  0  0
    5.9180    1.5220   26.2200 C   0  0  0  0  0  0  0  0  0  0  0  0
    5.6460   -4.9800   23.5210 C   0  0  0  0  0  0  0  0  0  0  0  0
    6.5440   -5.4850   22.3770 C   0  0  0  0  0  0  0  0  0  0  0  0
  1  2  1  0
  2  3  2  0
  2  4  1  0
  4  5  1  0
  5  6  1  0
  6  7  1  0
  7  8  1  0
  8  9  2  0
  8 10  1  0
 10 11  1  0
 11 12  1  0
 12 13  2  0
 13 14  1  0
 14 15  1  0
 15 16  1  0
 16 17  1  0
 17 18  1  0
 15 19  1  0
 18 19  1  0
 11 20  2  0
 14 20  1  0
 20 21  1  0
 21 22  1  0
  7 23  1  0
  4 24  1  0
 23 24  1  0
M  END
