piperidine-amides-12409-covalent
     RDKit          3D

 24 26  0  0  0  0  0  0  0  0999 V2000
    7.1160   -3.3110   19.2190 C   0  0  0  0  0  0  0  0  0  0  0  0
    6.3120   -4.0120   20.2130 C   0  0  0  0  0  0  0  0  0  0  0  0
    5.2640   -4.5640   19.8850 O   0  0  0  0  0  0  0  0  0  0  0  0
    6.7690   -4.0970   21.5650 N   0  0  0  0  0  0  0  0  0  0  0  0
    7.6950   -3.1100   22.0630 C   0  0  0  0  0  0  0  0  0  0  0  0
    7.6500   -3.0450   23.5580 C   0  0  0  0  0  0  0  0  0  0  0  0
    6.2920   -3.5490   24.0100 C   0  0  0  0  0  0  0  0  0  0  0  0
    6.1300   -3.3020   25.4620 C   0  0  0  0  0  0  0  0  0  0  0  0
    5.0070   -3.1980   26.0000 O   0  0  0  0  0  0  0  0  0  0  0  0
    7.3180   -3.1650   26.2340 N   0  0  0  0  0  0  0  0  0  0  0  0
    7.4060   -3.8080   27.5240 C   0  0  0  0  0  0  0  0  0  0  0  0
    7.3120   -5.2980   27.3290 C   0  0  0  0  0  0  0  0  0  0  0  0
    6.2230   -5.9350   27.8970 C   0  0  0  0  0  0  0  0  0  0  0  0
    5.1280   -6.4370   27.1450 C   0  0  0  0  0  0  0  0  0  0  0  0
    4.0230   -7.0730   27.7300 C   0  0  0  0  0  0  0  0  0  0  0  0
    3.9460   -7.2540   29.1730 C   0  0  0  0  0  0  0  0  0  0  0  0
    2.8800   -7.8610   29.7350 N   0  0  0  0  0  0  0  0  0  0  0  0
    2.7820   -8.0550   31.1610 C   0  0  0  0  0  0  0  0  0  0  0  0
    3.8230   -7.5940   31.9300 C   0  0  0  0  0  0  0  0  0  0  0  0
    4.9260   -6.9660   31.3730 C   0  0  0  0  0  0  0  0  0  0  0  0
    5.0260   -6.7670   29.9240 C   0  0  0  0  0  0  0  0  0  0  0  0
    6.0420   -6.1660   29.2380 C   0  0  0  0  0  0  0  0  0  0  0  0
    6.1320   -5.0180   23.7070 C   0  0  0  0  0  0  0  0  0  0  0  0
    6.4910   -5.2890   22.2840 C   0  0  0  0  0  0  0  0  0  0  0  0
  1  2  1  0
  2  3  2  0
  2  4  1  0
  4  5  1  0
  5  6  1  0
  6  7  1  0
  7  8  1  0
  8  9  2  0
  8 10  1  0
 10 11  1  0
 11 12  1  0
 12 13  1  0
 13 14  2  0
 14 15  1  0
 15 16  2  0
 16 17  1  0
 17 18  2  0
 18 19  1  0
 19 20  2  0
 16 21  1  0
 20 21  1  0
 13 22  1  0
 21 22  2  0
  7 23  1  0
  4 24  1  0
 23 24  1  0
M  END
