piperidine-amides-25489-covalent
     RDKit          3D

 25 26  0  0  0  0  0  0  0  0999 V2000
    7.0880   -3.2800   19.2190 C   0  0  0  0  0  0  0  0  0  0  0  0
    6.3470   -4.0630   20.2410 C   0  0  0  0  0  0  0  0  0  0  0  0
    5.2810   -4.5610   19.8890 O   0  0  0  0  0  0  0  0  0  0  0  0
    6.8830   -4.2600   21.5170 N   0  0  0  0  0  0  0  0  0  0  0  0
    6.5740   -5.4260   22.2970 C   0  0  0  0  0  0  0  0  0  0  0  0
    5.8540   -5.0070   23.5510 C   0  0  0  0  0  0  0  0  0  0  0  0
    6.6500   -3.9240   24.2960 C   0  0  0  0  0  0  0  0  0  0  0  0
    5.8730   -3.5200   25.4790 C   0  0  0  0  0  0  0  0  0  0  0  0
    4.6360   -3.5990   25.4570 O   0  0  0  0  0  0  0  0  0  0  0  0
    6.5270   -3.0250   26.6200 N   0  0  0  0  0  0  0  0  0  0  0  0
    6.4900   -3.7950   27.8550 C   0  0  0  0  0  0  0  0  0  0  0  0
    6.8870   -5.2370   27.6020 C   0  0  0  0  0  0  0  0  0  0  0  0
    6.2010   -6.0470   28.4860 O   0  0  0  0  0  0  0  0  0  0  0  0
    5.2870   -6.9710   28.1930 C   0  0  0  0  0  0  0  0  0  0  0  0
    6.6780   -1.6220   26.7750 C   0  0  0  0  0  0  0  0  0  0  0  0
    5.4900   -0.9580   26.8740 C   0  0  0  0  0  0  0  0  0  0  0  0
    4.6910   -0.5400   25.6300 C   0  0  0  0  0  0  0  0  0  0  0  0
    3.3960    0.1820   25.9160 C   0  0  0  0  0  0  0  0  0  0  0  0
    2.9840    0.4380   27.3330 C   0  0  0  0  0  0  0  0  0  0  0  0
    1.6820    1.1610   27.4440 C   0  0  0  0  0  0  0  0  0  0  0  0
    1.8490    2.1160   28.4660 N   0  0  0  0  0  0  0  0  0  0  0  0
    3.7320    0.0480   28.5660 C   0  0  0  0  0  0  0  0  0  0  0  0
    5.0240   -0.6730   28.2770 C   0  0  0  0  0  0  0  0  0  0  0  0
    6.8550   -2.7390   23.3760 C   0  0  0  0  0  0  0  0  0  0  0  0
    7.6300   -3.2190   22.1860 C   0  0  0  0  0  0  0  0  0  0  0  0
  1  2  1  0
  2  3  2  0
  2  4  1  0
  4  5  1  0
  5  6  1  0
  6  7  1  0
  7  8  1  0
  8  9  2  0
  8 10  1  0
 10 11  1  0
 11 12  1  0
 12 13  1  0
 13 14  1  0
 10 15  1  0
 15 16  1  0
 16 17  2  0
 17 18  1  0
 18 19  2  0
 19 20  1  0
 20 21  3  0
 19 22  1  0
 16 23  1  0
 22 23  2  0
  7 24  1  0
  4 25  1  0
 24 25  1  0
M  END
