piperidine-amides-23540-covalent
     RDKit          3D

 24 25  0  0  0  0  0  0  0  0999 V2000
    7.0750   -3.3270   19.3010 C   0  0  0  0  0  0  0  0  0  0  0  0
    6.3960   -4.1570   20.3100 C   0  0  0  0  0  0  0  0  0  0  0  0
    5.3420   -4.7370   19.9540 O   0  0  0  0  0  0  0  0  0  0  0  0
    6.9390   -4.3420   21.6050 N   0  0  0  0  0  0  0  0  0  0  0  0
    6.4560   -5.4150   22.3960 C   0  0  0  0  0  0  0  0  0  0  0  0
    6.0130   -5.0160   23.7330 C   0  0  0  0  0  0  0  0  0  0  0  0
    6.7710   -3.9080   24.3680 C   0  0  0  0  0  0  0  0  0  0  0  0
    6.0580   -3.4110   25.5910 C   0  0  0  0  0  0  0  0  0  0  0  0
    4.8070   -3.3510   25.5920 O   0  0  0  0  0  0  0  0  0  0  0  0
    6.7750   -2.9950   26.7390 N   0  0  0  0  0  0  0  0  0  0  0  0
    7.5180   -3.7990   27.6480 C   0  0  0  0  0  0  0  0  0  0  0  0
    6.4540   -1.6560   27.2260 C   0  0  0  0  0  0  0  0  0  0  0  0
    5.5360   -0.9290   26.6280 N   0  0  0  0  0  0  0  0  0  0  0  0
    4.8990    0.3820   26.7310 C   0  0  0  0  0  0  0  0  0  0  0  0
    5.5620    0.9490   27.8760 C   0  0  0  0  0  0  0  0  0  0  0  0
    5.1130    2.1840   28.1580 N   0  0  0  0  0  0  0  0  0  0  0  0
    4.9510    3.1190   27.2270 O   0  0  0  0  0  0  0  0  0  0  0  0
    4.8450    2.4850   29.4620 O   0  0  0  0  0  0  0  0  0  0  0  0
    6.6690    0.3270   28.7620 C   0  0  0  0  0  0  0  0  0  0  0  0
    7.0430   -1.0000   28.3300 C   0  0  0  0  0  0  0  0  0  0  0  0
    8.0870   -1.2260   29.3750 C   0  0  0  0  0  0  0  0  0  0  0  0
    9.0240   -1.1860   30.3050 N   0  0  0  0  0  0  0  0  0  0  0  0
    7.0810   -2.7610   23.4360 C   0  0  0  0  0  0  0  0  0  0  0  0
    7.7780   -3.3320   22.2230 C   0  0  0  0  0  0  0  0  0  0  0  0
  1  2  1  0
  2  3  2  0
  2  4  1  0
  4  5  1  0
  5  6  1  0
  6  7  1  0
  7  8  1  0
  8  9  2  0
  8 10  1  0
 10 11  1  0
 10 12  1  0
 12 13  2  0
 13 14  1  0
 14 15  2  0
 15 16  1  0
 16 17  2  0
 16 18  1  0
 15 19  1  0
 12 20  1  0
 19 20  2  0
 20 21  1  0
 21 22  3  0
  7 23  1  0
  4 24  1  0
 23 24  1  0
M  CHG  2  16   1  18  -1
M  END
