piperidine-amides-23639-covalent
     RDKit          3D

 24 26  0  0  0  0  0  0  0  0999 V2000
    7.0430   -3.3710   19.3450 C   0  0  0  0  0  0  0  0  0  0  0  0
    6.4210   -4.2390   20.3590 C   0  0  0  0  0  0  0  0  0  0  0  0
    5.3920   -4.8580   19.9920 O   0  0  0  0  0  0  0  0  0  0  0  0
    6.9850   -4.4240   21.6580 N   0  0  0  0  0  0  0  0  0  0  0  0
    6.5140   -5.4900   22.4510 C   0  0  0  0  0  0  0  0  0  0  0  0
    6.0750   -5.0950   23.7970 C   0  0  0  0  0  0  0  0  0  0  0  0
    6.3940   -3.7180   24.2820 C   0  0  0  0  0  0  0  0  0  0  0  0
    5.2620   -3.2040   25.1530 C   0  0  0  0  0  0  0  0  0  0  0  0
    4.1620   -3.0040   24.6280 O   0  0  0  0  0  0  0  0  0  0  0  0
    5.3840   -2.9420   26.5410 N   0  0  0  0  0  0  0  0  0  0  0  0
    6.5100   -3.1450   27.2480 C   0  0  0  0  0  0  0  0  0  0  0  0
    6.4510   -4.2480   28.2020 C   0  0  0  0  0  0  0  0  0  0  0  0
    5.3490   -4.4340   28.9470 N   0  0  0  0  0  0  0  0  0  0  0  0
    5.1550   -5.4730   29.9100 C   0  0  0  0  0  0  0  0  0  0  0  0
    4.0910   -5.2910   30.7860 C   0  0  0  0  0  0  0  0  0  0  0  0
    3.8800   -6.4260   31.8650 C   0  0  0  0  0  0  0  0  0  0  0  0
    4.7960   -7.6480   31.9310 C   0  0  0  0  0  0  0  0  0  0  0  0
    5.8740   -7.6260   30.8740 C   0  0  0  0  0  0  0  0  0  0  0  0
    6.0710   -6.5860   29.8810 C   0  0  0  0  0  0  0  0  0  0  0  0
    7.0820   -6.6030   28.9160 O   0  0  0  0  0  0  0  0  0  0  0  0
    4.3500   -3.5860   28.7600 C   0  0  0  0  0  0  0  0  0  0  0  0
    4.1960   -3.0510   27.3220 C   0  0  0  0  0  0  0  0  0  0  0  0
    6.7140   -2.7620   23.1670 C   0  0  0  0  0  0  0  0  0  0  0  0
    7.6760   -3.3740   22.3640 C   0  0  0  0  0  0  0  0  0  0  0  0
  1  2  1  0
  2  3  2  0
  2  4  1  0
  4  5  1  0
  5  6  1  0
  6  7  1  0
  7  8  1  0
  8  9  2  0
  8 10  1  0
 10 11  1  0
 11 12  1  0
 12 13  1  0
 13 14  1  0
 14 15  2  0
 15 16  1  0
 16 17  2  0
 17 18  1  0
 14 19  1  0
 18 19  2  0
 19 20  1  0
 13 21  1  0
 10 22  1  0
 21 22  1  0
  7 23  1  0
  4 24  1  0
 23 24  1  0
M  END
