piperidine-amides-35016-covalent
     RDKit          3D

 33 36  0  0  0  0  0  0  0  0999 V2000
    7.0920   -3.3500   19.2650 C   0  0  0  0  0  0  0  0  0  0  0  0
    6.3090   -4.1640   20.2280 C   0  0  0  0  0  0  0  0  0  0  0  0
    5.2140   -4.5710   19.8670 O   0  0  0  0  0  0  0  0  0  0  0  0
    6.8440   -4.4880   21.4610 N   0  0  0  0  0  0  0  0  0  0  0  0
    6.1880   -5.4710   22.2720 C   0  0  0  0  0  0  0  0  0  0  0  0
    5.3850   -4.7350   23.3110 C   0  0  0  0  0  0  0  0  0  0  0  0
    6.3110   -3.7070   23.9730 C   0  0  0  0  0  0  0  0  0  0  0  0
    5.6440   -2.9990   25.0650 C   0  0  0  0  0  0  0  0  0  0  0  0
    4.4430   -2.6900   25.0380 O   0  0  0  0  0  0  0  0  0  0  0  0
    6.4680   -2.7240   26.1360 N   0  0  0  0  0  0  0  0  0  0  0  0
    6.2490   -1.6340   27.0610 C   0  0  0  0  0  0  0  0  0  0  0  0
    6.1540   -0.2520   26.4240 C   0  0  0  0  0  0  0  0  0  0  0  0
    5.9780    0.8870   27.1470 C   0  0  0  0  0  0  0  0  0  0  0  0
    5.9060    0.6360   28.4460 C   0  0  0  0  0  0  0  0  0  0  0  0
    5.7560    1.2690   29.6480 C   0  0  0  0  0  0  0  0  0  0  0  0
    5.9620   -0.5480   29.2150 C   0  0  0  0  0  0  0  0  0  0  0  0
    6.1400   -1.8870   28.5680 C   0  0  0  0  0  0  0  0  0  0  0  0
    7.0350   -3.8920   26.6790 C   0  0  0  0  0  0  0  0  0  0  0  0
    6.1940   -4.6250   27.5700 C   0  0  0  0  0  0  0  0  0  0  0  0
    7.0130   -5.7400   27.9700 C   0  0  0  0  0  0  0  0  0  0  0  0
    6.4620   -6.7570   28.9510 C   0  0  0  0  0  0  0  0  0  0  0  0
    8.2960   -5.6300   27.2920 N   0  0  0  0  0  0  0  0  0  0  0  0
    8.2480   -4.4780   26.5250 N   0  0  0  0  0  0  0  0  0  0  0  0
    9.2660   -3.9990   25.7520 C   0  0  0  0  0  0  0  0  0  0  0  0
    8.7700   -3.1080   24.8130 N   0  0  0  0  0  0  0  0  0  0  0  0
    9.6060   -2.4000   23.8860 C   0  0  0  0  0  0  0  0  0  0  0  0
    9.2370   -1.6990   22.7630 O   0  0  0  0  0  0  0  0  0  0  0  0
   10.9330   -2.4280   24.1720 C   0  0  0  0  0  0  0  0  0  0  0  0
   11.5000   -3.3650   25.1750 C   0  0  0  0  0  0  0  0  0  0  0  0
   13.0360   -3.2650   25.3910 C   0  0  0  0  0  0  0  0  0  0  0  0
   10.6240   -4.2100   25.8030 N   0  0  0  0  0  0  0  0  0  0  0  0
    6.8240   -2.7560   22.9250 C   0  0  0  0  0  0  0  0  0  0  0  0
    7.6340   -3.5200   22.1710 C   0  0  0  0  0  0  0  0  0  0  0  0
  1  2  1  0
  2  3  2  0
  2  4  1  0
  4  5  1  0
  5  6  1  0
  6  7  1  0
  7  8  1  0
  8  9  2  0
  8 10  1  0
 10 11  1  0
 11 12  2  0
 12 13  1  0
 13 14  2  0
 14 15  1  0
 14 16  1  0
 11 17  1  0
 16 17  2  0
 10 18  1  0
 18 19  2  0
 19 20  1  0
 20 21  1  0
 20 22  2  0
 18 23  1  0
 22 23  1  0
 23 24  1  0
 24 25  2  0
 25 26  1  0
 26 27  2  0
 26 28  1  0
 28 29  2  0
 29 30  1  0
 24 31  1  0
 29 31  1  0
  7 32  1  0
  4 33  1  0
 32 33  1  0
M  END
