piperidine-amides-2687-covalent
     RDKit          3D

 25 27  0  0  0  0  0  0  0  0999 V2000
    7.0770   -3.2960   19.2970 C   0  0  0  0  0  0  0  0  0  0  0  0
    6.3530   -4.1020   20.2780 C   0  0  0  0  0  0  0  0  0  0  0  0
    5.3390   -4.7140   19.9430 O   0  0  0  0  0  0  0  0  0  0  0  0
    6.8420   -4.2250   21.6260 N   0  0  0  0  0  0  0  0  0  0  0  0
    7.7010   -3.1980   22.1740 C   0  0  0  0  0  0  0  0  0  0  0  0
    7.3550   -2.9260   23.6100 C   0  0  0  0  0  0  0  0  0  0  0  0
    6.0710   -3.6830   23.8890 C   0  0  0  0  0  0  0  0  0  0  0  0
    5.5400   -3.3480   25.2400 C   0  0  0  0  0  0  0  0  0  0  0  0
    4.3200   -3.3590   25.4780 O   0  0  0  0  0  0  0  0  0  0  0  0
    6.4260   -3.0060   26.2850 N   0  0  0  0  0  0  0  0  0  0  0  0
    6.6130   -1.6100   26.5910 C   0  0  0  0  0  0  0  0  0  0  0  0
    6.1890   -1.3810   28.0200 C   0  0  0  0  0  0  0  0  0  0  0  0
    6.0610   -0.2890   28.7830 N   0  0  0  0  0  0  0  0  0  0  0  0
    5.6340   -0.6800   30.0090 C   0  0  0  0  0  0  0  0  0  0  0  0
    5.3830    0.1840   31.0810 C   0  0  0  0  0  0  0  0  0  0  0  0
    4.8950   -0.2980   32.2930 C   0  0  0  0  0  0  0  0  0  0  0  0
    4.6500    0.6300   33.3750 C   0  0  0  0  0  0  0  0  0  0  0  0
    4.8810    1.9600   33.2460 C   0  0  0  0  0  0  0  0  0  0  0  0
    5.3610    2.4280   32.0490 C   0  0  0  0  0  0  0  0  0  0  0  0
    5.5630    3.7710   32.0090 F   0  0  0  0  0  0  0  0  0  0  0  0
    5.6110    1.5560   30.9780 C   0  0  0  0  0  0  0  0  0  0  0  0
    5.5080   -2.0240   29.9690 N   0  0  0  0  0  0  0  0  0  0  0  0
    5.8400   -2.4660   28.7750 O   0  0  0  0  0  0  0  0  0  0  0  0
    6.1290   -5.1120   23.6560 C   0  0  0  0  0  0  0  0  0  0  0  0
    6.6280   -5.4260   22.4000 C   0  0  0  0  0  0  0  0  0  0  0  0
  1  2  1  0
  2  3  2  0
  2  4  1  0
  4  5  1  0
  5  6  1  0
  6  7  1  0
  7  8  1  0
  8  9  2  0
  8 10  1  0
 10 11  1  0
 11 12  1  0
 12 13  2  0
 13 14  1  0
 14 15  1  0
 15 16  2  0
 16 17  1  0
 17 18  2  0
 18 19  1  0
 19 20  1  0
 15 21  1  0
 19 21  2  0
 14 22  2  0
 12 23  1  0
 22 23  1  0
  7 24  1  0
  4 25  1  0
 24 25  1  0
M  END
