piperidine-amides-6508-covalent
     RDKit          3D

 24 25  0  0  0  0  0  0  0  0999 V2000
    7.1480   -3.2750   19.2450 C   0  0  0  0  0  0  0  0  0  0  0  0
    6.4180   -4.0740   20.2400 C   0  0  0  0  0  0  0  0  0  0  0  0
    5.3550   -4.6530   19.9330 O   0  0  0  0  0  0  0  0  0  0  0  0
    6.9490   -4.2370   21.5250 N   0  0  0  0  0  0  0  0  0  0  0  0
    7.7560   -3.1790   22.0760 C   0  0  0  0  0  0  0  0  0  0  0  0
    6.9160   -2.5760   23.1910 C   0  0  0  0  0  0  0  0  0  0  0  0
    6.6150   -3.7150   24.1350 C   0  0  0  0  0  0  0  0  0  0  0  0
    5.7880   -3.1910   25.2220 C   0  0  0  0  0  0  0  0  0  0  0  0
    4.7700   -2.5280   24.9420 O   0  0  0  0  0  0  0  0  0  0  0  0
    6.1620   -3.4640   26.5450 N   0  0  0  0  0  0  0  0  0  0  0  0
    5.6400   -4.6570   27.1180 C   0  0  0  0  0  0  0  0  0  0  0  0
    5.8570   -4.6140   28.6050 C   0  0  0  0  0  0  0  0  0  0  0  0
    6.7140   -5.5110   29.1460 C   0  0  0  0  0  0  0  0  0  0  0  0
    6.4010   -3.2300   28.9040 C   0  0  0  0  0  0  0  0  0  0  0  0
    4.6290   -4.6460   29.3820 C   0  0  0  0  0  0  0  0  0  0  0  0
    4.1150   -3.5050   29.8370 C   0  0  0  0  0  0  0  0  0  0  0  0
    2.9100   -3.1680   30.6500 C   0  0  0  0  0  0  0  0  0  0  0  0
    2.3890   -4.6210   30.8290 C   0  0  0  0  0  0  0  0  0  0  0  0
    0.7880   -4.6810   31.8610 Br  0  0  0  0  0  0  0  0  0  0  0  0
    2.7880   -6.0560   30.4120 C   0  0  0  0  0  0  0  0  0  0  0  0
    4.0150   -5.8140   29.6470 C   0  0  0  0  0  0  0  0  0  0  0  0
    4.7630   -7.2590   29.0040 Cl  0  0  0  0  0  0  0  0  0  0  0  0
    5.8330   -4.8120   23.4520 C   0  0  0  0  0  0  0  0  0  0  0  0
    6.4600   -5.2900   22.3390 C   0  0  0  0  0  0  0  0  0  0  0  0
  1  2  1  0
  2  3  2  0
  2  4  1  0
  4  5  1  0
  5  6  1  0
  6  7  1  0
  7  8  1  0
  8  9  2  0
  8 10  1  0
 10 11  1  0
 12 11  1  0
 12 13  1  0
 12 14  1  0
 12 15  1  0
 15 16  2  0
 16 17  1  0
 17 18  2  0
 18 19  1  0
 18 20  1  0
 15 21  1  0
 20 21  2  0
 21 22  1  0
  7 23  1  0
  4 24  1  0
 23 24  1  0
M  END
