piperidine-amides-33747-covalent
     RDKit          3D

 30 32  0  0  0  0  0  0  0  0999 V2000
    7.0580   -3.3650   19.3800 C   0  0  0  0  0  0  0  0  0  0  0  0
    6.4100   -4.2470   20.3640 C   0  0  0  0  0  0  0  0  0  0  0  0
    5.3770   -4.8520   19.9820 O   0  0  0  0  0  0  0  0  0  0  0  0
    6.9600   -4.4400   21.6580 N   0  0  0  0  0  0  0  0  0  0  0  0
    6.4440   -5.5130   22.4490 C   0  0  0  0  0  0  0  0  0  0  0  0
    5.6220   -5.1070   23.6050 C   0  0  0  0  0  0  0  0  0  0  0  0
    5.7030   -3.6640   23.9590 C   0  0  0  0  0  0  0  0  0  0  0  0
    5.0860   -3.3110   25.3080 C   0  0  0  0  0  0  0  0  0  0  0  0
    3.9610   -2.7960   25.2630 O   0  0  0  0  0  0  0  0  0  0  0  0
    5.6280   -3.4930   26.6130 N   0  0  0  0  0  0  0  0  0  0  0  0
    5.1350   -2.9350   27.8040 C   0  0  0  0  0  0  0  0  0  0  0  0
    5.4810   -3.5760   29.0790 C   0  0  1  0  0  0  0  0  0  0  0  0
    4.2950   -4.4120   29.6010 C   0  0  0  0  0  0  0  0  0  0  0  0
    3.4690   -3.7030   30.4470 C   0  0  0  0  0  0  0  0  0  0  0  0
    2.8890   -5.0720   30.8160 C   0  0  0  0  0  0  0  0  0  0  0  0
    2.9580   -5.4640   32.1500 O   0  0  0  0  0  0  0  0  0  0  0  0
    2.3170   -5.8910   29.8740 O   0  0  0  0  0  0  0  0  0  0  0  0
    2.8300   -7.0880   29.9500 C   0  0  0  0  0  0  0  0  0  0  0  0
    2.4010   -7.8550   28.6930 C   0  0  0  0  0  0  0  0  0  0  0  0
    1.9940   -8.1970   30.2400 C   0  0  0  0  0  0  0  0  0  0  0  0
    4.2540   -7.3940   29.5990 C   0  0  0  0  0  0  0  0  0  0  0  0
    6.2790   -4.8680   29.0410 C   0  0  0  0  0  0  0  0  0  0  0  0
    7.0260   -5.1290   27.8110 C   0  0  0  0  0  0  0  0  0  0  0  0
    8.0870   -6.0330   27.7350 C   0  0  0  0  0  0  0  0  0  0  0  0
    8.7700   -6.2770   26.5570 C   0  0  0  0  0  0  0  0  0  0  0  0
    8.3010   -5.5280   25.3470 C   0  0  0  0  0  0  0  0  0  0  0  0
    7.3110   -4.6640   25.4030 C   0  0  0  0  0  0  0  0  0  0  0  0
    6.6460   -4.4420   26.6760 C   0  0  0  0  0  0  0  0  0  0  0  0
    7.0500   -3.1260   23.7220 C   0  0  0  0  0  0  0  0  0  0  0  0
    7.6070   -3.3810   22.3780 C   0  0  0  0  0  0  0  0  0  0  0  0
  1  2  1  0
  2  3  2  0
  2  4  1  0
  4  5  1  0
  5  6  1  0
  6  7  1  0
  7  8  1  0
  8  9  2  0
  8 10  1  0
 10 11  1  0
 11 12  1  0
 12 13  1  6
 13 14  1  0
 14 15  1  0
 15 16  2  0
 15 17  1  0
 18 17  1  0
 18 19  1  0
 18 20  1  0
 18 21  1  0
 12 22  1  0
 22 23  1  0
 23 24  2  0
 24 25  1  0
 25 26  2  0
 26 27  1  0
 10 28  1  0
 23 28  1  0
 27 28  2  0
  7 29  1  0
  4 30  1  0
 29 30  1  0
M  END
