piperidine-amides-30032-covalent
     RDKit          3D

 27 29  0  0  0  0  0  0  0  0999 V2000
    7.0740   -3.3840   19.4240 C   0  0  0  0  0  0  0  0  0  0  0  0
    6.3810   -4.2430   20.3730 C   0  0  0  0  0  0  0  0  0  0  0  0
    5.4030   -4.8900   19.9980 O   0  0  0  0  0  0  0  0  0  0  0  0
    6.8690   -4.3650   21.7230 N   0  0  0  0  0  0  0  0  0  0  0  0
    7.7160   -3.3240   22.2780 C   0  0  0  0  0  0  0  0  0  0  0  0
    7.3500   -3.0570   23.7070 C   0  0  0  0  0  0  0  0  0  0  0  0
    5.9970   -3.7010   23.8840 C   0  0  0  0  0  0  0  0  0  0  0  0
    5.2920   -3.2080   25.1080 C   0  0  0  0  0  0  0  0  0  0  0  0
    4.4630   -2.2940   25.0170 O   0  0  0  0  0  0  0  0  0  0  0  0
    5.4950   -3.7230   26.4030 N   0  0  0  0  0  0  0  0  0  0  0  0
    4.2780   -3.9940   27.1160 C   0  0  0  0  0  0  0  0  0  0  0  0
    4.4910   -3.5980   28.5460 C   0  0  0  0  0  0  0  0  0  0  0  0
    5.5710   -3.9980   29.1820 N   0  0  0  0  0  0  0  0  0  0  0  0
    5.2620   -5.1360   29.8000 C   0  0  0  0  0  0  0  0  0  0  0  0
    5.9070   -6.3530   29.8130 C   0  0  0  0  0  0  0  0  0  0  0  0
    5.3260   -7.3410   30.5680 C   0  0  0  0  0  0  0  0  0  0  0  0
    4.0820   -7.1640   31.3410 C   0  0  0  0  0  0  0  0  0  0  0  0
    3.3560   -8.0190   32.1460 C   0  0  0  0  0  0  0  0  0  0  0  0
    4.2260   -8.3980   33.1370 N   0  0  0  0  0  0  0  0  0  0  0  0
    5.5720   -7.8420   33.1770 C   0  0  0  0  0  0  0  0  0  0  0  0
    3.7710   -9.2360   34.0960 C   0  0  0  0  0  0  0  0  0  0  0  0
    3.5400   -5.8480   31.2180 C   0  0  0  0  0  0  0  0  0  0  0  0
    4.1160   -4.9120   30.4870 N   0  0  0  0  0  0  0  0  0  0  0  0
    6.6360   -4.1330   28.2920 C   0  0  0  0  0  0  0  0  0  0  0  0
    6.4370   -3.1650   27.3010 C   0  0  0  0  0  0  0  0  0  0  0  0
    6.1140   -5.2010   23.8420 C   0  0  0  0  0  0  0  0  0  0  0  0
    6.6880   -5.5970   22.4660 C   0  0  0  0  0  0  0  0  0  0  0  0
  1  2  1  0
  2  3  2  0
  2  4  1  0
  4  5  1  0
  5  6  1  0
  6  7  1  0
  7  8  1  0
  8  9  2  0
  8 10  1  0
 10 11  1  0
 11 12  1  0
 12 13  1  0
 13 14  1  0
 14 15  2  0
 15 16  1  0
 16 17  2  0
 17 18  1  0
 18 19  1  0
 19 20  1  0
 19 21  1  0
 17 22  1  0
 14 23  1  0
 22 23  2  0
 13 24  1  0
 10 25  1  0
 24 25  1  0
  7 26  1  0
  4 27  1  0
 26 27  1  0
M  END
