piperidine-amides-21567-covalent
     RDKit          3D

 23 24  0  0  0  0  0  0  0  0999 V2000
    7.0740   -3.2710   19.2120 C   0  0  0  0  0  0  0  0  0  0  0  0
    6.3350   -4.0250   20.2330 C   0  0  0  0  0  0  0  0  0  0  0  0
    5.2520   -4.5460   19.8720 O   0  0  0  0  0  0  0  0  0  0  0  0
    6.8490   -4.1890   21.5210 N   0  0  0  0  0  0  0  0  0  0  0  0
    6.5850   -5.3920   22.2690 C   0  0  0  0  0  0  0  0  0  0  0  0
    5.9240   -4.9890   23.5580 C   0  0  0  0  0  0  0  0  0  0  0  0
    6.6380   -3.8370   24.2150 C   0  0  0  0  0  0  0  0  0  0  0  0
    5.8420   -3.3160   25.3560 C   0  0  0  0  0  0  0  0  0  0  0  0
    4.6150   -3.1400   25.1750 O   0  0  0  0  0  0  0  0  0  0  0  0
    6.3800   -3.0000   26.6240 N   0  0  0  0  0  0  0  0  0  0  0  0
    6.7600   -1.6310   26.8730 C   0  0  0  0  0  0  0  0  0  0  0  0
    6.1650   -3.9110   27.7360 C   0  0  0  0  0  0  0  0  0  0  0  0
    5.7660   -5.1530   27.2880 C   0  0  0  0  0  0  0  0  0  0  0  0
    4.3620   -5.3380   27.2190 O   0  0  0  0  0  0  0  0  0  0  0  0
    3.6740   -6.2230   27.9660 C   0  0  0  0  0  0  0  0  0  0  0  0
    2.3640   -6.5350   27.6530 C   0  0  0  0  0  0  0  0  0  0  0  0
    1.5900   -7.4300   28.3650 C   0  0  0  0  0  0  0  0  0  0  0  0
    2.0150   -8.1270   29.4770 C   0  0  0  0  0  0  0  0  0  0  0  0
    1.1250   -9.0930   30.2190 C   0  0  0  0  0  0  0  0  0  0  0  0
    3.3090   -7.8670   29.8460 C   0  0  0  0  0  0  0  0  0  0  0  0
    4.1560   -6.8890   29.0650 C   0  0  0  0  0  0  0  0  0  0  0  0
    6.8740   -2.7030   23.2610 C   0  0  0  0  0  0  0  0  0  0  0  0
    7.6270   -3.1510   22.2020 C   0  0  0  0  0  0  0  0  0  0  0  0
  1  2  1  0
  2  3  2  0
  2  4  1  0
  4  5  1  0
  5  6  1  0
  6  7  1  0
  7  8  1  0
  8  9  2  0
  8 10  1  0
 10 11  1  0
 10 12  1  0
 12 13  1  0
 13 14  1  0
 14 15  1  0
 15 16  2  0
 16 17  1  0
 17 18  2  0
 18 19  1  0
 18 20  1  0
 15 21  1  0
 20 21  2  0
  7 22  1  0
  4 23  1  0
 22 23  1  0
M  END
