piperidine-amides-12529-covalent
     RDKit          3D

 23 24  0  0  0  0  0  0  0  0999 V2000
    7.1420   -3.2270   19.1360 C   0  0  0  0  0  0  0  0  0  0  0  0
    6.3220   -3.9650   20.1260 C   0  0  0  0  0  0  0  0  0  0  0  0
    5.1920   -4.3330   19.7700 O   0  0  0  0  0  0  0  0  0  0  0  0
    6.8160   -4.2870   21.3870 N   0  0  0  0  0  0  0  0  0  0  0  0
    7.5380   -3.2990   22.1290 C   0  0  0  0  0  0  0  0  0  0  0  0
    7.4540   -3.3680   23.5890 C   0  0  0  0  0  0  0  0  0  0  0  0
    6.4370   -4.2740   24.1800 C   0  0  0  0  0  0  0  0  0  0  0  0
    5.8040   -3.5870   25.3230 C   0  0  0  0  0  0  0  0  0  0  0  0
    4.5600   -3.5440   25.4160 O   0  0  0  0  0  0  0  0  0  0  0  0
    6.6330   -2.9810   26.2700 N   0  0  0  0  0  0  0  0  0  0  0  0
    6.4640   -3.0760   27.7290 C   0  0  0  0  0  0  0  0  0  0  0  0
    6.7470   -1.7150   28.2390 C   0  0  1  0  0  0  0  0  0  0  0  0
    7.6770   -1.5150   29.3270 C   0  0  0  0  0  0  0  0  0  0  0  0
    6.7230   -0.7320   27.4490 O   0  0  0  0  0  0  0  0  0  0  0  0
    6.2800   -1.1690   29.5250 C   0  0  0  0  0  0  0  0  0  0  0  0
    7.2000   -0.5760   30.3790 C   0  0  0  0  0  0  0  0  0  0  0  0
    6.8160   -0.0520   31.5740 C   0  0  0  0  0  0  0  0  0  0  0  0
    5.5100   -0.1020   31.9620 C   0  0  0  0  0  0  0  0  0  0  0  0
    4.5680   -0.6760   31.1590 C   0  0  0  0  0  0  0  0  0  0  0  0
    2.8840   -0.7600   31.6180 Cl  0  0  0  0  0  0  0  0  0  0  0  0
    4.9660   -1.2090   29.9320 C   0  0  0  0  0  0  0  0  0  0  0  0
    5.4710   -4.8620   23.2450 C   0  0  0  0  0  0  0  0  0  0  0  0
    6.2820   -5.4230   22.1160 C   0  0  0  0  0  0  0  0  0  0  0  0
  1  2  1  0
  2  3  2  0
  2  4  1  0
  4  5  1  0
  5  6  1  0
  6  7  1  0
  7  8  1  0
  8  9  2  0
  8 10  1  0
 10 11  1  0
 11 12  1  0
 12 13  1  1
 12 14  1  0
 12 15  1  0
 15 16  2  0
 16 17  1  0
 17 18  2  0
 18 19  1  0
 19 20  1  0
 15 21  1  0
 19 21  2  0
  7 22  1  0
  4 23  1  0
 22 23  1  0
M  END
