piperidine-amides-34269-covalent
     RDKit          3D

 30 32  0  0  0  0  0  0  0  0999 V2000
    7.0170   -3.3500   19.3780 C   0  0  0  0  0  0  0  0  0  0  0  0
    6.3840   -4.2220   20.3820 C   0  0  0  0  0  0  0  0  0  0  0  0
    5.4370   -4.9620   20.0150 O   0  0  0  0  0  0  0  0  0  0  0  0
    6.8410   -4.2730   21.7220 N   0  0  0  0  0  0  0  0  0  0  0  0
    6.6630   -5.5140   22.4620 C   0  0  0  0  0  0  0  0  0  0  0  0
    6.0970   -5.1710   23.8550 C   0  0  0  0  0  0  0  0  0  0  0  0
    5.9230   -3.6740   23.8630 C   0  0  0  0  0  0  0  0  0  0  0  0
    5.0180   -3.1540   24.9430 C   0  0  0  0  0  0  0  0  0  0  0  0
    3.8800   -2.8610   24.5540 O   0  0  0  0  0  0  0  0  0  0  0  0
    5.2900   -2.9820   26.3310 N   0  0  0  0  0  0  0  0  0  0  0  0
    6.5610   -3.0920   26.8380 C   0  0  0  0  0  0  0  0  0  0  0  0
    6.3320   -4.1450   27.9370 C   0  0  0  0  0  0  0  0  0  0  0  0
    5.0070   -4.4570   28.0980 C   0  0  1  0  0  0  0  0  0  0  0  0
    4.5780   -5.7540   27.9380 C   0  0  0  0  0  0  0  0  0  0  0  0
    4.8360   -6.4670   26.7790 O   0  0  0  0  0  0  0  0  0  0  0  0
    3.8610   -6.3110   29.0310 N   0  0  0  0  0  0  0  0  0  0  0  0
    3.6190   -7.6620   29.1760 C   0  0  0  0  0  0  0  0  0  0  0  0
    2.6620   -7.7020   30.1620 C   0  0  0  0  0  0  0  0  0  0  0  0
    2.9940   -8.1000   31.5890 C   0  0  0  0  0  0  0  0  0  0  0  0
    1.6290   -7.9900   32.2490 C   0  0  0  0  0  0  0  0  0  0  0  0
    0.1890   -7.6450   31.9690 C   0  0  0  0  0  0  0  0  0  0  0  0
    0.2680   -7.3280   30.5500 C   0  0  0  0  0  0  0  0  0  0  0  0
    1.3740   -7.3480   29.7150 C   0  0  0  0  0  0  0  0  0  0  0  0
    5.5790   -4.0750   29.2640 C   0  0  0  0  0  0  0  0  0  0  0  0
    4.5590   -3.7250   30.1030 F   0  0  0  0  0  0  0  0  0  0  0  0
    6.4600   -3.0350   29.0620 F   0  0  0  0  0  0  0  0  0  0  0  0
    6.1990   -5.1710   29.7770 F   0  0  0  0  0  0  0  0  0  0  0  0
    4.3740   -3.3650   27.3340 C   0  0  0  0  0  0  0  0  0  0  0  0
    7.2340   -2.9500   23.7330 C   0  0  0  0  0  0  0  0  0  0  0  0
    7.6590   -3.1920   22.2690 C   0  0  0  0  0  0  0  0  0  0  0  0
  1  2  1  0
  2  3  2  0
  2  4  1  0
  4  5  1  0
  5  6  1  0
  6  7  1  0
  7  8  1  0
  8  9  2  0
  8 10  1  0
 10 11  1  0
 11 12  1  0
 12 13  1  0
 13 14  1  1
 14 15  2  0
 14 16  1  0
 16 17  1  0
 17 18  1  0
 18 19  2  0
 19 20  1  0
 20 21  2  0
 21 22  1  0
 18 23  1  0
 22 23  2  0
 13 24  1  0
 24 25  1  0
 24 26  1  0
 24 27  1  0
 10 28  1  0
 13 28  1  0
  7 29  1  0
  4 30  1  0
 29 30  1  0
M  END
