piperidine-amides-9994-covalent
     RDKit          3D

 26 27  0  0  0  0  0  0  0  0999 V2000
    7.0460   -3.3530   19.3440 C   0  0  0  0  0  0  0  0  0  0  0  0
    6.3440   -4.1550   20.3510 C   0  0  0  0  0  0  0  0  0  0  0  0
    5.3330   -4.7910   19.9600 O   0  0  0  0  0  0  0  0  0  0  0  0
    6.8180   -4.2300   21.6630 N   0  0  0  0  0  0  0  0  0  0  0  0
    7.7040   -3.2130   22.1910 C   0  0  0  0  0  0  0  0  0  0  0  0
    7.3840   -3.0020   23.6370 C   0  0  0  0  0  0  0  0  0  0  0  0
    6.0400   -3.5770   23.9760 C   0  0  0  0  0  0  0  0  0  0  0  0
    5.6400   -3.2390   25.3570 C   0  0  0  0  0  0  0  0  0  0  0  0
    4.4240   -3.2930   25.6400 O   0  0  0  0  0  0  0  0  0  0  0  0
    6.5460   -2.8560   26.3590 N   0  0  0  0  0  0  0  0  0  0  0  0
    6.4330   -1.5900   27.0260 C   0  0  0  0  0  0  0  0  0  0  0  0
    7.0220   -1.5520   28.4230 C   0  0  0  0  0  0  0  0  0  0  0  0
    6.9830   -0.4240   29.1770 C   0  0  0  0  0  0  0  0  0  0  0  0
    6.3940    0.7140   28.6640 C   0  0  0  0  0  0  0  0  0  0  0  0
    6.2890    1.9260   29.3280 C   0  0  0  0  0  0  0  0  0  0  0  0
    5.7920    0.7230   27.2720 C   0  0  0  0  0  0  0  0  0  0  0  0
    5.1940    1.8410   26.7390 C   0  0  0  0  0  0  0  0  0  0  0  0
    5.9420    2.7930   26.0350 O   0  0  0  0  0  0  0  0  0  0  0  0
    3.8740    1.8550   26.9980 N   0  0  0  0  0  0  0  0  0  0  0  0
    3.4770    0.5970   26.7430 C   0  0  0  0  0  0  0  0  0  0  0  0
    2.7990    2.6540   27.4460 C   0  0  0  0  0  0  0  0  0  0  0  0
    1.6170    2.4700   26.5180 C   0  0  0  0  0  0  0  0  0  0  0  0
    2.3210    2.1230   28.8540 C   0  0  0  0  0  0  0  0  0  0  0  0
    5.8450   -0.4340   26.5190 C   0  0  0  0  0  0  0  0  0  0  0  0
    6.0900   -5.0890   23.8030 C   0  0  0  0  0  0  0  0  0  0  0  0
    6.6810   -5.4490   22.4430 C   0  0  0  0  0  0  0  0  0  0  0  0
  1  2  1  0
  2  3  2  0
  2  4  1  0
  4  5  1  0
  5  6  1  0
  6  7  1  0
  7  8  1  0
  8  9  2  0
  8 10  1  0
 10 11  1  0
 11 12  2  0
 12 13  1  0
 13 14  2  0
 14 15  1  0
 14 16  1  0
 16 17  1  0
 17 18  2  0
 17 19  1  0
 19 20  1  0
 19 21  1  0
 21 22  1  0
 21 23  1  0
 11 24  1  0
 16 24  2  0
  7 25  1  0
  4 26  1  0
 25 26  1  0
M  END
