piperidine-amides-6557-covalent
     RDKit          3D

 24 26  0  0  0  0  0  0  0  0999 V2000
    7.1270   -3.2820   19.3370 C   0  0  0  0  0  0  0  0  0  0  0  0
    6.4620   -4.1590   20.3230 C   0  0  0  0  0  0  0  0  0  0  0  0
    5.4640   -4.8570   19.9950 O   0  0  0  0  0  0  0  0  0  0  0  0
    6.9640   -4.2500   21.6390 N   0  0  0  0  0  0  0  0  0  0  0  0
    7.9680   -3.2970   22.0530 C   0  0  0  0  0  0  0  0  0  0  0  0
    7.7330   -2.9590   23.5400 C   0  0  0  0  0  0  0  0  0  0  0  0
    6.3990   -3.5590   23.9200 C   0  0  0  0  0  0  0  0  0  0  0  0
    6.0290   -3.2000   25.2930 C   0  0  0  0  0  0  0  0  0  0  0  0
    5.0130   -3.7570   25.7620 O   0  0  0  0  0  0  0  0  0  0  0  0
    6.7840   -2.2500   26.0520 N   0  0  0  0  0  0  0  0  0  0  0  0
    6.1630   -1.6140   27.1830 C   0  0  1  0  0  0  0  0  0  0  0  0
    7.1140   -1.4660   28.2940 C   0  0  0  0  0  0  0  0  0  0  0  0
    6.7230   -0.3980   29.0840 C   0  0  0  0  0  0  0  0  0  0  0  0
    6.2580    0.8540   28.5360 C   0  0  0  0  0  0  0  0  0  0  0  0
    5.3970    1.0820   27.3690 O   0  0  0  0  0  0  0  0  0  0  0  0
    4.5990    0.0040   26.9080 C   0  0  0  0  0  0  0  0  0  0  0  0
    3.8830    1.0160   26.8390 C   0  0  0  0  0  0  0  0  0  0  0  0
    5.2950    1.3620   27.2870 C   0  0  0  0  0  0  0  0  0  0  0  0
    6.0580    2.8960   27.7060 Cl  0  0  0  0  0  0  0  0  0  0  0  0
    5.8330   -0.2450   27.2430 C   0  0  0  0  0  0  0  0  0  0  0  0
    6.8530    0.6500   27.6710 C   0  0  0  0  0  0  0  0  0  0  0  0
    5.7530   -0.3120   27.2090 C   0  0  0  0  0  0  0  0  0  0  0  0
    6.4680   -5.0590   23.7720 C   0  0  0  0  0  0  0  0  0  0  0  0
    6.5810   -5.3670   22.4460 C   0  0  0  0  0  0  0  0  0  0  0  0
  1  2  1  0
  2  3  2  0
  2  4  1  0
  4  5  1  0
  5  6  1  0
  6  7  1  0
  7  8  1  0
  8  9  2  0
  8 10  1  0
 11 10  1  6
 11 12  1  0
 12 13  1  0
 13 14  1  0
 14 15  1  0
 15 16  1  0
 16 17  1  0
 17 18  2  0
 18 19  1  0
 18 20  1  0
 20 21  2  0
 11 22  1  0
 16 22  2  0
 21 22  1  0
  7 23  1  0
  4 24  1  0
 23 24  1  0
M  END
