piperidine-amides-1338-covalent
     RDKit          3D

 22 23  0  0  0  0  0  0  0  0999 V2000
    7.1480   -3.3000   19.2640 C   0  0  0  0  0  0  0  0  0  0  0  0
    6.3460   -4.0680   20.2540 C   0  0  0  0  0  0  0  0  0  0  0  0
    5.2690   -4.5660   19.8930 O   0  0  0  0  0  0  0  0  0  0  0  0
    6.8580   -4.2640   21.5520 N   0  0  0  0  0  0  0  0  0  0  0  0
    6.5590   -5.4230   22.3490 C   0  0  0  0  0  0  0  0  0  0  0  0
    5.6950   -4.9250   23.5120 C   0  0  0  0  0  0  0  0  0  0  0  0
    6.4470   -3.8370   24.2120 C   0  0  0  0  0  0  0  0  0  0  0  0
    5.6840   -3.2650   25.3510 C   0  0  0  0  0  0  0  0  0  0  0  0
    4.8620   -2.3890   25.0600 O   0  0  0  0  0  0  0  0  0  0  0  0
    5.8890   -3.7000   26.6720 N   0  0  0  0  0  0  0  0  0  0  0  0
    5.8760   -5.0430   27.1480 C   0  0  0  0  0  0  0  0  0  0  0  0
    4.7880   -5.7750   27.5660 C   0  0  0  0  0  0  0  0  0  0  0  0
    5.0030   -6.6550   28.6490 C   0  0  0  0  0  0  0  0  0  0  0  0
    6.1730   -6.8610   29.3430 C   0  0  0  0  0  0  0  0  0  0  0  0
    3.8730   -7.4760   29.1340 C   0  0  0  0  0  0  0  0  0  0  0  0
    2.5070   -7.3790   28.4890 C   0  0  0  0  0  0  0  0  0  0  0  0
    2.4000   -6.4620   27.4130 N   0  0  0  0  0  0  0  0  0  0  0  0
    3.5360   -5.7040   26.9970 C   0  0  0  0  0  0  0  0  0  0  0  0
    3.4750   -4.8030   25.9490 O   0  0  0  0  0  0  0  0  0  0  0  0
    2.1550   -4.5500   25.6420 C   0  0  0  0  0  0  0  0  0  0  0  0
    6.8670   -2.7030   23.3410 C   0  0  0  0  0  0  0  0  0  0  0  0
    7.6540   -3.2230   22.1570 C   0  0  0  0  0  0  0  0  0  0  0  0
  1  2  1  0
  2  3  2  0
  2  4  1  0
  4  5  1  0
  5  6  1  0
  6  7  1  0
  7  8  1  0
  8  9  2  0
  8 10  1  0
 10 11  1  0
 11 12  1  0
 12 13  2  0
 13 14  1  0
 13 15  1  0
 15 16  2  0
 16 17  1  0
 12 18  1  0
 17 18  2  0
 18 19  1  0
 19 20  1  0
  7 21  1  0
  4 22  1  0
 21 22  1  0
M  END
