piperidine-amides-16131-covalent
     RDKit          3D

 19 20  0  0  0  0  0  0  0  0999 V2000
    7.0000   -3.3720   19.3610 C   0  0  0  0  0  0  0  0  0  0  0  0
    6.3710   -4.2550   20.3840 C   0  0  0  0  0  0  0  0  0  0  0  0
    5.4160   -4.9290   20.0000 O   0  0  0  0  0  0  0  0  0  0  0  0
    6.8760   -4.3210   21.6980 N   0  0  0  0  0  0  0  0  0  0  0  0
    6.6740   -5.4820   22.5470 C   0  0  0  0  0  0  0  0  0  0  0  0
    6.1170   -5.0790   23.9060 C   0  0  0  0  0  0  0  0  0  0  0  0
    6.2170   -3.5630   24.0790 C   0  0  0  0  0  0  0  0  0  0  0  0
    5.7630   -3.0840   25.4210 C   0  0  0  0  0  0  0  0  0  0  0  0
    5.4090   -1.9090   25.5010 O   0  0  0  0  0  0  0  0  0  0  0  0
    5.6400   -3.8580   26.5910 N   0  0  0  0  0  0  0  0  0  0  0  0
    4.5380   -3.5120   27.4650 C   0  0  0  0  0  0  0  0  0  0  0  0
    4.1970   -4.7260   28.3160 C   0  0  0  0  0  0  0  0  0  0  0  0
    5.0000   -5.7850   27.9740 O   0  0  0  0  0  0  0  0  0  0  0  0
    6.2860   -5.5730   27.8740 C   0  0  2  0  0  0  0  0  0  0  0  0
    6.8770   -6.0160   28.9800 C   0  0  0  0  0  0  0  0  0  0  0  0
    6.0690   -6.8590   29.6930 C   0  0  0  0  0  0  0  0  0  0  0  0
    6.3610   -4.0920   27.8070 C   0  0  0  0  0  0  0  0  0  0  0  0
    7.5480   -3.0490   23.6640 C   0  0  0  0  0  0  0  0  0  0  0  0
    7.7150   -3.2370   22.1900 C   0  0  0  0  0  0  0  0  0  0  0  0
  1  2  1  0
  2  3  2  0
  2  4  1  0
  4  5  1  0
  5  6  1  0
  6  7  1  0
  7  8  1  0
  8  9  2  0
  8 10  1  0
 10 11  1  0
 11 12  1  0
 12 13  1  0
 13 14  1  0
 14 15  1  1
 15 16  1  0
 10 17  1  0
 14 17  1  0
  7 18  1  0
  4 19  1  0
 18 19  1  0
M  END
