piperidine-amides-32769-covalent
     RDKit          3D

 29 31  0  0  0  0  0  0  0  0999 V2000
    7.0730   -3.3280   19.3540 C   0  0  0  0  0  0  0  0  0  0  0  0
    6.3690   -4.2100   20.3240 C   0  0  0  0  0  0  0  0  0  0  0  0
    5.3270   -4.7830   19.9580 O   0  0  0  0  0  0  0  0  0  0  0  0
    6.9020   -4.4400   21.6130 N   0  0  0  0  0  0  0  0  0  0  0  0
    6.4810   -5.5910   22.3480 C   0  0  0  0  0  0  0  0  0  0  0  0
    5.5130   -5.0430   23.3970 C   0  0  0  0  0  0  0  0  0  0  0  0
    6.3090   -4.1120   24.2470 C   0  0  0  0  0  0  0  0  0  0  0  0
    5.4980   -3.3870   25.2720 C   0  0  0  0  0  0  0  0  0  0  0  0
    4.8720   -2.4100   24.8640 O   0  0  0  0  0  0  0  0  0  0  0  0
    5.4370   -3.7980   26.6170 N   0  0  0  0  0  0  0  0  0  0  0  0
    6.3940   -3.6600   27.6060 C   0  0  0  0  0  0  0  0  0  0  0  0
    6.7820   -4.7630   28.3230 C   0  0  0  0  0  0  0  0  0  0  0  0
    5.7960   -5.2230   29.1270 C   0  0  0  0  0  0  0  0  0  0  0  0
    4.6530   -4.4980   28.9190 C   0  0  0  0  0  0  0  0  0  0  0  0
    3.5290   -4.3940   29.9340 C   0  0  0  0  0  0  0  0  0  0  0  0
    3.6510   -5.0810   31.1600 N   0  0  0  0  0  0  0  0  0  0  0  0
    2.5600   -5.9170   31.5950 C   0  0  0  0  0  0  0  0  0  0  0  0
    1.2290   -5.8480   31.2050 O   0  0  0  0  0  0  0  0  0  0  0  0
    2.8820   -6.8680   32.4880 N   0  0  0  0  0  0  0  0  0  0  0  0
    2.7040   -8.1220   32.0410 C   0  0  0  0  0  0  0  0  0  0  0  0
    1.8750   -8.9420   32.7820 C   0  0  0  0  0  0  0  0  0  0  0  0
    2.2330   -9.3050   34.1730 C   0  0  0  0  0  0  0  0  0  0  0  0
    0.7750   -9.2980   34.5970 C   0  0  0  0  0  0  0  0  0  0  0  0
    2.3650   -3.6930   29.8130 C   0  0  0  0  0  0  0  0  0  0  0  0
    2.1070   -2.9150   28.5480 C   0  0  0  0  0  0  0  0  0  0  0  0
    3.1560   -2.9670   27.4950 C   0  0  0  0  0  0  0  0  0  0  0  0
    4.4550   -3.7770   27.6850 C   0  0  0  0  0  0  0  0  0  0  0  0
    7.0170   -3.0030   23.4790 C   0  0  0  0  0  0  0  0  0  0  0  0
    7.5980   -3.3720   22.2660 C   0  0  0  0  0  0  0  0  0  0  0  0
  1  2  1  0
  2  3  2  0
  2  4  1  0
  4  5  1  0
  5  6  1  0
  6  7  1  0
  7  8  1  0
  8  9  2  0
  8 10  1  0
 10 11  1  0
 11 12  1  0
 12 13  1  0
 13 14  1  0
 14 15  2  0
 15 16  1  0
 16 17  1  0
 17 18  2  0
 17 19  1  0
 19 20  1  0
 20 21  1  0
 21 22  1  0
 22 23  1  0
 15 24  1  0
 24 25  2  0
 25 26  1  0
 10 27  1  0
 14 27  1  0
 26 27  2  0
  7 28  1  0
  4 29  1  0
 28 29  1  0
M  END
