piperidine-amides-19890-covalent
     RDKit          3D

 22 24  0  0  0  0  0  0  0  0999 V2000
    7.0720   -3.3220   19.2620 C   0  0  0  0  0  0  0  0  0  0  0  0
    6.3840   -4.1550   20.2830 C   0  0  0  0  0  0  0  0  0  0  0  0
    5.3410   -4.7080   19.9400 O   0  0  0  0  0  0  0  0  0  0  0  0
    6.9430   -4.3380   21.5470 N   0  0  0  0  0  0  0  0  0  0  0  0
    6.6420   -5.5130   22.3240 C   0  0  0  0  0  0  0  0  0  0  0  0
    5.8290   -5.1040   23.5180 C   0  0  0  0  0  0  0  0  0  0  0  0
    6.5380   -3.9430   24.2190 C   0  0  0  0  0  0  0  0  0  0  0  0
    5.6630   -3.4890   25.3200 C   0  0  0  0  0  0  0  0  0  0  0  0
    4.6520   -2.8310   25.0470 O   0  0  0  0  0  0  0  0  0  0  0  0
    5.9510   -3.7780   26.6650 N   0  0  0  0  0  0  0  0  0  0  0  0
    6.4370   -2.7450   27.4820 C   0  0  0  0  0  0  0  0  0  0  0  0
    6.6550   -3.5000   28.7640 C   0  0  0  0  0  0  0  0  0  0  0  0
    5.8180   -4.5120   29.1240 C   0  0  1  0  0  0  0  0  0  0  0  0
    4.4760   -4.2130   29.4910 N   0  0  0  0  0  0  0  0  0  0  0  0
    3.4160   -5.1420   29.2520 C   0  0  0  0  0  0  0  0  0  0  0  0
    2.2360   -4.9290   29.9370 O   0  0  0  0  0  0  0  0  0  0  0  0
    3.5930   -6.1670   28.3950 C   0  0  0  0  0  0  0  0  0  0  0  0
    4.9460   -6.8380   28.4470 C   0  0  0  0  0  0  0  0  0  0  0  0
    5.7980   -5.6220   28.1120 C   0  0  1  0  0  0  0  0  0  0  0  0
    4.9990   -4.5040   27.4610 C   0  0  0  0  0  0  0  0  0  0  0  0
    6.9670   -2.8390   23.3490 C   0  0  0  0  0  0  0  0  0  0  0  0
    7.7100   -3.2710   22.1420 C   0  0  0  0  0  0  0  0  0  0  0  0
  1  2  1  0
  2  3  2  0
  2  4  1  0
  4  5  1  0
  5  6  1  0
  6  7  1  0
  7  8  1  0
  8  9  2  0
  8 10  1  0
 10 11  1  0
 11 12  1  0
 13 12  1  6
 13 14  1  0
 14 15  1  0
 15 16  2  0
 15 17  1  0
 17 18  1  0
 13 19  1  0
 19 18  1  1
 10 20  1  0
 19 20  1  0
  7 21  1  0
  4 22  1  0
 21 22  1  0
M  END
