piperidine-amides-9845-covalent
     RDKit          3D

 27 29  0  0  0  0  0  0  0  0999 V2000
    7.1100   -3.2670   19.1990 C   0  0  0  0  0  0  0  0  0  0  0  0
    6.3790   -4.0150   20.2280 C   0  0  0  0  0  0  0  0  0  0  0  0
    5.2860   -4.5310   19.8760 O   0  0  0  0  0  0  0  0  0  0  0  0
    6.9120   -4.1840   21.5050 N   0  0  0  0  0  0  0  0  0  0  0  0
    7.6710   -3.1440   22.1630 C   0  0  0  0  0  0  0  0  0  0  0  0
    7.4200   -3.2450   23.6470 C   0  0  0  0  0  0  0  0  0  0  0  0
    5.9810   -3.5470   23.9790 C   0  0  0  0  0  0  0  0  0  0  0  0
    5.7770   -3.7250   25.4280 C   0  0  0  0  0  0  0  0  0  0  0  0
    5.4000   -2.7480   26.1140 O   0  0  0  0  0  0  0  0  0  0  0  0
    5.9750   -4.9870   26.0190 N   0  0  0  0  0  0  0  0  0  0  0  0
    6.3040   -5.2060   27.4040 C   0  0  2  0  0  0  0  0  0  0  0  0
    7.6690   -5.8700   27.4410 C   0  0  0  0  0  0  0  0  0  0  0  0
    5.3050   -6.0230   28.1200 C   0  0  0  0  0  0  0  0  0  0  0  0
    5.0560   -6.3790   29.8480 S   0  0  0  0  0  0  0  0  0  0  0  0
    3.6170   -7.4330   29.8750 C   0  0  0  0  0  0  0  0  0  0  0  0
    2.8960   -8.0560   30.8860 C   0  0  0  0  0  0  0  0  0  0  0  0
    1.6580   -8.6440   30.6040 C   0  0  0  0  0  0  0  0  0  0  0  0
    0.8740   -9.2910   31.5440 C   0  0  0  0  0  0  0  0  0  0  0  0
    1.2380   -9.4510   32.9930 C   0  0  0  0  0  0  0  0  0  0  0  0
    2.5840   -8.7980   33.2470 C   0  0  0  0  0  0  0  0  0  0  0  0
    3.3960   -8.1060   32.1830 C   0  0  0  0  0  0  0  0  0  0  0  0
    5.0700   -7.3270   32.6200 Br  0  0  0  0  0  0  0  0  0  0  0  0
    3.3060   -7.5370   28.5690 N   0  0  0  0  0  0  0  0  0  0  0  0
    4.1430   -6.8330   27.5790 C   0  0  0  0  0  0  0  0  0  0  0  0
    3.9210   -6.8730   26.2190 C   0  0  0  0  0  0  0  0  0  0  0  0
    5.5480   -4.8470   23.3040 C   0  0  0  0  0  0  0  0  0  0  0  0
    6.5980   -5.3290   22.3150 C   0  0  0  0  0  0  0  0  0  0  0  0
  1  2  1  0
  2  3  2  0
  2  4  1  0
  4  5  1  0
  5  6  1  0
  6  7  1  0
  7  8  1  0
  8  9  2  0
  8 10  1  0
 10 11  1  0
 11 12  1  6
 11 13  1  0
 13 14  1  0
 14 15  1  0
 15 16  1  0
 16 17  2  0
 17 18  1  0
 18 19  2  0
 19 20  1  0
 16 21  1  0
 20 21  2  0
 21 22  1  0
 15 23  2  0
 13 24  2  0
 23 24  1  0
 24 25  1  0
  7 26  1  0
  4 27  1  0
 26 27  1  0
M  END
