piperidine-amides-12502-covalent
     RDKit          3D

 23 24  0  0  0  0  0  0  0  0999 V2000
    7.1320   -3.2390   19.1400 C   0  0  0  0  0  0  0  0  0  0  0  0
    6.3450   -3.9740   20.1620 C   0  0  0  0  0  0  0  0  0  0  0  0
    5.2380   -4.4250   19.8150 O   0  0  0  0  0  0  0  0  0  0  0  0
    6.8520   -4.1930   21.4410 N   0  0  0  0  0  0  0  0  0  0  0  0
    7.6570   -3.1980   22.0720 C   0  0  0  0  0  0  0  0  0  0  0  0
    7.4470   -3.0110   23.5030 C   0  0  0  0  0  0  0  0  0  0  0  0
    6.6740   -4.0540   24.2150 C   0  0  0  0  0  0  0  0  0  0  0  0
    5.9170   -3.3870   25.2830 C   0  0  0  0  0  0  0  0  0  0  0  0
    4.6740   -3.3020   25.2010 O   0  0  0  0  0  0  0  0  0  0  0  0
    6.6150   -2.8530   26.3640 N   0  0  0  0  0  0  0  0  0  0  0  0
    6.7210   -3.5590   27.6440 C   0  0  1  0  0  0  0  0  0  0  0  0
    7.9050   -4.4700   27.6640 C   0  0  0  0  0  0  0  0  0  0  0  0
    8.6060   -4.6450   28.6860 O   0  0  0  0  0  0  0  0  0  0  0  0
    6.6730   -2.5270   28.7040 C   0  0  0  0  0  0  0  0  0  0  0  0
    7.7250   -1.7390   29.0880 C   0  0  0  0  0  0  0  0  0  0  0  0
    7.6870   -0.7660   30.0730 C   0  0  0  0  0  0  0  0  0  0  0  0
    6.5100   -0.5530   30.7260 C   0  0  0  0  0  0  0  0  0  0  0  0
    5.4280   -1.3130   30.3810 C   0  0  0  0  0  0  0  0  0  0  0  0
    4.1320   -1.2210   30.9600 O   0  0  0  0  0  0  0  0  0  0  0  0
    4.0100   -1.2340   32.3690 C   0  0  0  0  0  0  0  0  0  0  0  0
    5.5130   -2.2820   29.3880 C   0  0  0  0  0  0  0  0  0  0  0  0
    5.7940   -4.9330   23.4110 C   0  0  0  0  0  0  0  0  0  0  0  0
    6.5460   -5.3940   22.1980 C   0  0  0  0  0  0  0  0  0  0  0  0
  1  2  1  0
  2  3  2  0
  2  4  1  0
  4  5  1  0
  5  6  1  0
  6  7  1  0
  7  8  1  0
  8  9  2  0
  8 10  1  0
 10 11  1  0
 11 12  1  6
 12 13  1  0
 11 14  1  0
 14 15  2  0
 15 16  1  0
 16 17  2  0
 17 18  1  0
 18 19  1  0
 19 20  1  0
 14 21  1  0
 18 21  2  0
  7 22  1  0
  4 23  1  0
 22 23  1  0
M  END
