piperidine-amides-32980-covalent
     RDKit          3D

 29 31  0  0  0  0  0  0  0  0999 V2000
    7.0580   -3.3310   19.3390 C   0  0  0  0  0  0  0  0  0  0  0  0
    6.3660   -4.2110   20.3200 C   0  0  0  0  0  0  0  0  0  0  0  0
    5.3290   -4.7920   19.9620 O   0  0  0  0  0  0  0  0  0  0  0  0
    6.9060   -4.4320   21.6070 N   0  0  0  0  0  0  0  0  0  0  0  0
    6.4940   -5.5790   22.3520 C   0  0  0  0  0  0  0  0  0  0  0  0
    5.5440   -5.0230   23.4130 C   0  0  0  0  0  0  0  0  0  0  0  0
    6.3750   -4.1550   24.2960 C   0  0  0  0  0  0  0  0  0  0  0  0
    5.5870   -3.4570   25.3640 C   0  0  0  0  0  0  0  0  0  0  0  0
    5.0370   -2.4100   25.0170 O   0  0  0  0  0  0  0  0  0  0  0  0
    5.4460   -3.9550   26.6840 N   0  0  0  0  0  0  0  0  0  0  0  0
    6.3160   -3.8050   27.7570 C   0  0  0  0  0  0  0  0  0  0  0  0
    6.6880   -4.9260   28.4410 C   0  0  0  0  0  0  0  0  0  0  0  0
    5.6420   -5.5130   29.0380 C   0  0  0  0  0  0  0  0  0  0  0  0
    4.4660   -4.8820   28.7210 C   0  0  2  0  0  0  0  0  0  0  0  0
    3.2690   -5.7470   28.4850 C   0  0  0  0  0  0  0  0  0  0  0  0
    3.3080   -6.5910   27.1970 C   0  0  0  0  0  0  0  0  0  0  0  0
    4.4840   -6.7980   26.4930 O   0  0  0  0  0  0  0  0  0  0  0  0
    2.0750   -7.1680   26.7450 N   0  0  0  0  0  0  0  0  0  0  0  0
    2.0730   -7.9230   25.5430 C   0  0  0  0  0  0  0  0  0  0  0  0
    1.1580   -8.9500   25.6130 C   0  0  0  0  0  0  0  0  0  0  0  0
    1.5300  -10.3580   25.7210 C   0  0  0  0  0  0  0  0  0  0  0  0
    0.3240  -11.3140   25.7820 C   0  0  0  0  0  0  0  0  0  0  0  0
   -1.0910  -11.3200   25.7720 C   0  0  0  0  0  0  0  0  0  0  0  0
   -2.0460  -12.2710   25.8350 F   0  0  0  0  0  0  0  0  0  0  0  0
   -1.2080   -9.7690   25.6580 C   0  0  0  0  0  0  0  0  0  0  0  0
   -0.1570   -8.7140   25.5870 C   0  0  0  0  0  0  0  0  0  0  0  0
    4.4080   -3.8850   27.7100 C   0  0  0  0  0  0  0  0  0  0  0  0
    7.1040   -3.0360   23.5570 C   0  0  0  0  0  0  0  0  0  0  0  0
    7.5480   -3.3370   22.2710 C   0  0  0  0  0  0  0  0  0  0  0  0
  1  2  1  0
  2  3  2  0
  2  4  1  0
  4  5  1  0
  5  6  1  0
  6  7  1  0
  7  8  1  0
  8  9  2  0
  8 10  1  0
 10 11  1  0
 11 12  1  0
 12 13  1  0
 13 14  1  0
 14 15  1  6
 15 16  1  0
 16 17  2  0
 16 18  1  0
 18 19  1  0
 19 20  1  0
 20 21  2  0
 21 22  1  0
 22 23  2  0
 23 24  1  0
 23 25  1  0
 20 26  1  0
 25 26  2  0
 10 27  1  0
 14 27  1  0
  7 28  1  0
  4 29  1  0
 28 29  1  0
M  END
