piperidine-amides-25330-covalent
     RDKit          3D

 25 27  0  0  0  0  0  0  0  0999 V2000
    7.0670   -3.3430   19.3440 C   0  0  0  0  0  0  0  0  0  0  0  0
    6.3960   -4.2120   20.3380 C   0  0  0  0  0  0  0  0  0  0  0  0
    5.3710   -4.7870   19.9700 O   0  0  0  0  0  0  0  0  0  0  0  0
    6.9530   -4.3940   21.6120 N   0  0  0  0  0  0  0  0  0  0  0  0
    6.6640   -5.5470   22.4120 C   0  0  0  0  0  0  0  0  0  0  0  0
    5.8950   -5.1150   23.6310 C   0  0  0  0  0  0  0  0  0  0  0  0
    6.5080   -3.8470   24.2450 C   0  0  0  0  0  0  0  0  0  0  0  0
    5.5030   -3.2290   25.1360 C   0  0  0  0  0  0  0  0  0  0  0  0
    4.7160   -2.4180   24.6540 O   0  0  0  0  0  0  0  0  0  0  0  0
    5.3790   -3.5190   26.5020 N   0  0  0  0  0  0  0  0  0  0  0  0
    6.4210   -3.1400   27.3550 C   0  0  0  0  0  0  0  0  0  0  0  0
    6.4840   -4.2210   28.4330 C   0  0  0  0  0  0  0  0  0  0  0  0
    5.4430   -4.7740   29.1240 C   0  0  0  0  0  0  0  0  0  0  0  0
    5.2800   -5.6970   30.0810 C   0  0  0  0  0  0  0  0  0  0  0  0
    6.0950   -6.7400   30.1720 C   0  0  0  0  0  0  0  0  0  0  0  0
    6.1140   -7.8890   31.1570 C   0  0  0  0  0  0  0  0  0  0  0  0
    4.9900   -7.7620   32.1730 C   0  0  0  0  0  0  0  0  0  0  0  0
    4.0540   -6.5820   32.0720 C   0  0  0  0  0  0  0  0  0  0  0  0
    4.2760   -5.6010   30.9910 C   0  0  0  0  0  0  0  0  0  0  0  0
    3.3550   -4.5490   30.9920 O   0  0  0  0  0  0  0  0  0  0  0  0
    2.1710   -4.8080   31.6190 C   0  0  0  0  0  0  0  0  0  0  0  0
    4.2240   -4.0940   28.6240 C   0  0  0  0  0  0  0  0  0  0  0  0
    4.3080   -3.3130   27.3840 C   0  0  0  0  0  0  0  0  0  0  0  0
    6.8690   -2.8120   23.1940 C   0  0  0  0  0  0  0  0  0  0  0  0
    7.7200   -3.3420   22.2630 C   0  0  0  0  0  0  0  0  0  0  0  0
  1  2  1  0
  2  3  2  0
  2  4  1  0
  4  5  1  0
  5  6  1  0
  6  7  1  0
  7  8  1  0
  8  9  2  0
  8 10  1  0
 10 11  1  0
 11 12  1  0
 12 13  2  0
 13 14  1  0
 14 15  2  0
 15 16  1  0
 16 17  2  0
 17 18  1  0
 14 19  1  0
 18 19  2  0
 19 20  1  0
 20 21  1  0
 13 22  1  0
 10 23  1  0
 22 23  1  0
  7 24  1  0
  4 25  1  0
 24 25  1  0
M  END
