piperidine-amides-5286-covalent
     RDKit          3D

 21 22  0  0  0  0  0  0  0  0999 V2000
    7.1010   -3.2910   19.2740 C   0  0  0  0  0  0  0  0  0  0  0  0
    6.3920   -4.0920   20.2990 C   0  0  0  0  0  0  0  0  0  0  0  0
    5.3400   -4.6490   19.9280 O   0  0  0  0  0  0  0  0  0  0  0  0
    6.9110   -4.2520   21.5980 N   0  0  0  0  0  0  0  0  0  0  0  0
    7.6810   -3.2040   22.2000 C   0  0  0  0  0  0  0  0  0  0  0  0
    7.2450   -2.8710   23.5520 C   0  0  0  0  0  0  0  0  0  0  0  0
    6.0290   -3.6150   23.9310 C   0  0  0  0  0  0  0  0  0  0  0  0
    5.5540   -3.2820   25.3010 C   0  0  0  0  0  0  0  0  0  0  0  0
    4.3950   -2.8430   25.3960 O   0  0  0  0  0  0  0  0  0  0  0  0
    6.3320   -3.4360   26.4620 N   0  0  0  0  0  0  0  0  0  0  0  0
    5.9730   -4.3680   27.5660 C   0  0  0  0  0  0  0  0  0  0  0  0
    6.8540   -4.1970   28.7310 C   0  0  0  0  0  0  0  0  0  0  0  0
    6.0280   -5.7820   27.1360 C   0  0  0  0  0  0  0  0  0  0  0  0
    4.6290   -4.0320   27.9850 C   0  0  0  0  0  0  0  0  0  0  0  0
    3.5560   -3.8910   27.1050 N   0  0  0  0  0  0  0  0  0  0  0  0
    2.4920   -3.5890   27.8000 N   0  0  0  0  0  0  0  0  0  0  0  0
    2.8130   -3.5220   29.1180 C   0  0  0  0  0  0  0  0  0  0  0  0
    1.9700   -3.2350   30.1420 C   0  0  0  0  0  0  0  0  0  0  0  0
    4.1370   -3.8000   29.1970 N   0  0  0  0  0  0  0  0  0  0  0  0
    6.0550   -5.0840   23.6350 C   0  0  0  0  0  0  0  0  0  0  0  0
    6.6300   -5.3990   22.4270 C   0  0  0  0  0  0  0  0  0  0  0  0
  1  2  1  0
  2  3  2  0
  2  4  1  0
  4  5  1  0
  5  6  1  0
  6  7  1  0
  7  8  1  0
  8  9  2  0
  8 10  1  0
 11 10  1  0
 11 12  1  0
 11 13  1  0
 11 14  1  0
 14 15  2  0
 15 16  1  0
 16 17  2  0
 17 18  1  0
 14 19  1  0
 17 19  1  0
  7 20  1  0
  4 21  1  0
 20 21  1  0
M  END
