piperidine-amides-3443-covalent
     RDKit          3D

 21 22  0  0  0  0  0  0  0  0999 V2000
    7.0480   -3.3610   19.3740 C   0  0  0  0  0  0  0  0  0  0  0  0
    6.3190   -4.1950   20.3250 C   0  0  0  0  0  0  0  0  0  0  0  0
    5.3150   -4.7950   19.9630 O   0  0  0  0  0  0  0  0  0  0  0  0
    6.8040   -4.3540   21.6700 N   0  0  0  0  0  0  0  0  0  0  0  0
    6.4670   -5.5280   22.4300 C   0  0  0  0  0  0  0  0  0  0  0  0
    5.6110   -5.1740   23.6300 C   0  0  0  0  0  0  0  0  0  0  0  0
    6.2390   -4.0410   24.4470 C   0  0  0  0  0  0  0  0  0  0  0  0
    5.1970   -3.5520   25.4330 C   0  0  0  0  0  0  0  0  0  0  0  0
    4.1400   -3.0790   24.9760 O   0  0  0  0  0  0  0  0  0  0  0  0
    5.2900   -3.5760   26.8860 N   0  0  0  0  0  0  0  0  0  0  0  0
    6.3160   -4.2820   27.6400 C   0  0  1  0  0  0  0  0  0  0  0  0
    5.9310   -5.7180   27.8640 C   0  0  0  0  0  0  0  0  0  0  0  0
    7.4400   -4.2960   26.7820 C   0  0  0  0  0  0  0  0  0  0  0  0
    8.1710   -5.4940   26.6860 C   0  0  0  0  0  0  0  0  0  0  0  0
    9.2250   -5.5470   25.8530 C   0  0  0  0  0  0  0  0  0  0  0  0
    9.4980   -4.3490   25.1270 C   0  0  0  0  0  0  0  0  0  0  0  0
    8.8000   -3.2030   25.2340 C   0  0  0  0  0  0  0  0  0  0  0  0
    7.7610   -3.1640   26.0740 C   0  0  0  0  0  0  0  0  0  0  0  0
    6.8480   -1.6680   26.2260 Cl  0  0  0  0  0  0  0  0  0  0  0  0
    6.7920   -2.9140   23.6160 C   0  0  0  0  0  0  0  0  0  0  0  0
    7.3880   -3.2440   22.3160 C   0  0  0  0  0  0  0  0  0  0  0  0
  1  2  1  0
  2  3  2  0
  2  4  1  0
  4  5  1  0
  5  6  1  0
  6  7  1  0
  7  8  1  0
  8  9  2  0
  8 10  1  0
 10 11  1  0
 11 12  1  6
 11 13  1  0
 13 14  2  0
 14 15  1  0
 15 16  2  0
 16 17  1  0
 13 18  1  0
 17 18  2  0
 18 19  1  0
  7 20  1  0
  4 21  1  0
 20 21  1  0
M  END
