piperidine-amides-23624-covalent
     RDKit          3D

 24 25  0  0  0  0  0  0  0  0999 V2000
    7.0920   -3.3240   19.2980 C   0  0  0  0  0  0  0  0  0  0  0  0
    6.4080   -4.1540   20.3050 C   0  0  0  0  0  0  0  0  0  0  0  0
    5.3500   -4.7220   19.9470 O   0  0  0  0  0  0  0  0  0  0  0  0
    6.9500   -4.3510   21.6010 N   0  0  0  0  0  0  0  0  0  0  0  0
    7.6380   -3.2550   22.1950 C   0  0  0  0  0  0  0  0  0  0  0  0
    7.3400   -3.0000   23.6010 C   0  0  0  0  0  0  0  0  0  0  0  0
    6.4650   -3.9740   24.2870 C   0  0  0  0  0  0  0  0  0  0  0  0
    5.7060   -3.3140   25.4060 C   0  0  0  0  0  0  0  0  0  0  0  0
    4.5690   -2.8660   25.1640 O   0  0  0  0  0  0  0  0  0  0  0  0
    6.2180   -3.1740   26.7200 N   0  0  0  0  0  0  0  0  0  0  0  0
    6.1520   -4.1810   27.7320 C   0  0  0  0  0  0  0  0  0  0  0  0
    6.0570   -5.6030   27.4120 C   0  0  0  0  0  0  0  0  0  0  0  0
    4.6640   -6.1070   27.8340 C   0  0  0  0  0  0  0  0  0  0  0  0
    4.5850   -7.3700   28.5660 N   0  0  0  0  0  0  0  0  0  0  0  0
    3.5340   -5.3770   27.5320 O   0  0  0  0  0  0  0  0  0  0  0  0
    6.3120   -1.8330   27.2440 C   0  0  0  0  0  0  0  0  0  0  0  0
    6.9960   -1.7440   28.6440 C   0  0  0  0  0  0  0  0  0  0  0  0
    7.1250   -0.3580   29.2960 C   0  0  0  0  0  0  0  0  0  0  0  0
    6.5540    0.8060   28.4680 C   0  0  0  0  0  0  0  0  0  0  0  0
    5.9110    0.7450   27.1440 C   0  0  0  0  0  0  0  0  0  0  0  0
    5.3990    1.9900   26.4440 C   0  0  0  0  0  0  0  0  0  0  0  0
    5.7980   -0.5820   26.5450 C   0  0  0  0  0  0  0  0  0  0  0  0
    5.5690   -4.7000   23.3330 C   0  0  0  0  0  0  0  0  0  0  0  0
    6.4320   -5.3740   22.4720 C   0  0  0  0  0  0  0  0  0  0  0  0
  1  2  1  0
  2  3  2  0
  2  4  1  0
  4  5  1  0
  5  6  1  0
  6  7  1  0
  7  8  1  0
  8  9  2  0
  8 10  1  0
 10 11  1  0
 11 12  1  0
 12 13  1  0
 13 14  1  0
 13 15  2  0
 10 16  1  0
 16 17  2  0
 17 18  1  0
 18 19  2  0
 19 20  1  0
 20 21  1  0
 16 22  1  0
 20 22  2  0
  7 23  1  0
  4 24  1  0
 23 24  1  0
M  END
