piperidine-amides-27848-covalent
     RDKit          3D

 26 28  0  0  0  0  0  0  0  0999 V2000
    7.0730   -3.3710   19.3440 C   0  0  0  0  0  0  0  0  0  0  0  0
    6.3880   -4.2030   20.3530 C   0  0  0  0  0  0  0  0  0  0  0  0
    5.3730   -4.8320   19.9770 O   0  0  0  0  0  0  0  0  0  0  0  0
    6.9050   -4.3000   21.6560 N   0  0  0  0  0  0  0  0  0  0  0  0
    6.5720   -5.3990   22.4930 C   0  0  0  0  0  0  0  0  0  0  0  0
    6.2240   -5.0480   23.8880 C   0  0  0  0  0  0  0  0  0  0  0  0
    6.4900   -3.6520   24.3570 C   0  0  0  0  0  0  0  0  0  0  0  0
    5.3620   -3.1910   25.2150 C   0  0  0  0  0  0  0  0  0  0  0  0
    4.3330   -2.8240   24.6350 O   0  0  0  0  0  0  0  0  0  0  0  0
    5.3980   -3.1570   26.6330 N   0  0  0  0  0  0  0  0  0  0  0  0
    4.7290   -4.1510   27.4720 C   0  0  2  0  0  0  0  0  0  0  0  0
    3.3770   -3.6260   27.8510 C   0  0  0  0  0  0  0  0  0  0  0  0
    2.9410   -3.3800   29.2130 C   0  0  0  0  0  0  0  0  0  0  0  0
    1.6780   -2.8960   29.4300 C   0  0  0  0  0  0  0  0  0  0  0  0
    0.8090   -2.6360   28.3890 C   0  0  0  0  0  0  0  0  0  0  0  0
    1.1720   -2.8530   27.0810 C   0  0  0  0  0  0  0  0  0  0  0  0
    2.4050   -3.3360   26.7130 C   0  0  0  0  0  0  0  0  0  0  0  0
    5.5490   -4.5160   28.5390 C   0  0  0  0  0  0  0  0  0  0  0  0
    6.5720   -3.5770   28.5300 C   0  0  0  0  0  0  0  0  0  0  0  0
    6.5190   -2.6470   27.3360 C   0  0  2  0  0  0  0  0  0  0  0  0
    6.3800   -1.2000   27.8240 C   0  0  0  0  0  0  0  0  0  0  0  0
    5.2850   -0.5480   27.3000 O   0  0  0  0  0  0  0  0  0  0  0  0
    7.1500   -0.5560   28.6470 O   0  0  0  0  0  0  0  0  0  0  0  0
    7.6550   -1.1550   29.8130 C   0  0  0  0  0  0  0  0  0  0  0  0
    6.8420   -2.6700   23.3240 C   0  0  0  0  0  0  0  0  0  0  0  0
    7.7030   -3.2440   22.2350 C   0  0  0  0  0  0  0  0  0  0  0  0
  1  2  1  0
  2  3  2  0
  2  4  1  0
  4  5  1  0
  5  6  1  0
  6  7  1  0
  7  8  1  0
  8  9  2  0
  8 10  1  0
 10 11  1  0
 11 12  1  1
 12 13  2  0
 13 14  1  0
 14 15  2  0
 15 16  1  0
 12 17  1  0
 16 17  2  0
 11 18  1  0
 18 19  1  0
 10 20  1  0
 19 20  1  0
 20 21  1  1
 21 22  2  0
 21 23  1  0
 23 24  1  0
  7 25  1  0
  4 26  1  0
 25 26  1  0
M  END
