piperidine-amides-26972-covalent
     RDKit          3D

 24 26  0  0  0  0  0  0  0  0999 V2000
    7.0250   -3.3780   19.3690 C   0  0  0  0  0  0  0  0  0  0  0  0
    6.3910   -4.2430   20.3700 C   0  0  0  0  0  0  0  0  0  0  0  0
    5.3670   -4.8650   19.9840 O   0  0  0  0  0  0  0  0  0  0  0  0
    6.9300   -4.4010   21.6580 N   0  0  0  0  0  0  0  0  0  0  0  0
    6.5470   -5.5040   22.4970 C   0  0  0  0  0  0  0  0  0  0  0  0
    5.6580   -4.9740   23.5990 C   0  0  0  0  0  0  0  0  0  0  0  0
    6.2350   -3.7790   24.3320 C   0  0  0  0  0  0  0  0  0  0  0  0
    5.2120   -3.2350   25.2950 C   0  0  0  0  0  0  0  0  0  0  0  0
    4.4130   -2.3810   24.8790 O   0  0  0  0  0  0  0  0  0  0  0  0
    5.1170   -3.6590   26.6490 N   0  0  0  0  0  0  0  0  0  0  0  0
    6.2130   -4.3870   27.0080 C   0  0  0  0  0  0  0  0  0  0  0  0
    6.2030   -5.1050   28.3250 C   0  0  0  0  0  0  0  0  0  0  0  0
    4.8510   -4.9250   28.8230 N   0  0  0  0  0  0  0  0  0  0  0  0
    4.2980   -5.8900   29.5500 C   0  0  0  0  0  0  0  0  0  0  0  0
    4.5790   -6.2890   30.7540 N   0  0  0  0  0  0  0  0  0  0  0  0
    3.7960   -7.3200   31.1610 C   0  0  0  0  0  0  0  0  0  0  0  0
    4.1320   -7.7180   32.4480 C   0  0  0  0  0  0  0  0  0  0  0  0
    5.5030   -7.7990   32.6220 C   0  0  0  0  0  0  0  0  0  0  0  0
    2.8460   -7.7340   30.1950 N   0  0  0  0  0  0  0  0  0  0  0  0
    3.0040   -6.7740   28.7840 S   0  0  0  0  0  0  0  0  0  0  0  0
    4.4180   -3.6580   28.9990 C   0  0  0  0  0  0  0  0  0  0  0  0
    4.4330   -2.9440   27.6510 C   0  0  0  0  0  0  0  0  0  0  0  0
    6.6660   -2.7020   23.3870 C   0  0  0  0  0  0  0  0  0  0  0  0
    7.5390   -3.2210   22.2660 C   0  0  0  0  0  0  0  0  0  0  0  0
  1  2  1  0
  2  3  2  0
  2  4  1  0
  4  5  1  0
  5  6  1  0
  6  7  1  0
  7  8  1  0
  8  9  2  0
  8 10  1  0
 10 11  1  0
 11 12  1  0
 12 13  1  0
 13 14  1  0
 14 15  2  0
 15 16  1  0
 16 17  1  0
 17 18  1  0
 16 19  2  0
 14 20  1  0
 19 20  1  0
 13 21  1  0
 10 22  1  0
 21 22  1  0
  7 23  1  0
  4 24  1  0
 23 24  1  0
M  END
