piperidine-amides-13565-covalent
     RDKit          3D

 30 33  0  0  0  0  0  0  0  0999 V2000
    7.1160   -3.3740   19.3850 C   0  0  0  0  0  0  0  0  0  0  0  0
    6.4200   -4.2440   20.3620 C   0  0  0  0  0  0  0  0  0  0  0  0
    5.3950   -4.8480   19.9950 O   0  0  0  0  0  0  0  0  0  0  0  0
    6.9880   -4.3990   21.6490 N   0  0  0  0  0  0  0  0  0  0  0  0
    7.7990   -3.3950   22.2720 C   0  0  0  0  0  0  0  0  0  0  0  0
    6.8610   -2.6270   23.2000 C   0  0  0  0  0  0  0  0  0  0  0  0
    6.2570   -3.5520   24.2170 C   0  0  0  0  0  0  0  0  0  0  0  0
    5.2450   -2.8270   25.0330 C   0  0  0  0  0  0  0  0  0  0  0  0
    4.1650   -2.6030   24.4950 O   0  0  0  0  0  0  0  0  0  0  0  0
    5.5250   -2.4500   26.3420 N   0  0  0  0  0  0  0  0  0  0  0  0
    5.3390   -1.2130   27.0570 C   0  0  0  0  0  0  0  0  0  0  0  0
    4.6260   -0.0690   26.8510 C   0  0  0  0  0  0  0  0  0  0  0  0
    4.6670    1.0130   27.7840 C   0  0  0  0  0  0  0  0  0  0  0  0
    5.4220    0.9800   28.9590 C   0  0  0  0  0  0  0  0  0  0  0  0
    6.2000   -0.2320   29.2140 C   0  0  0  0  0  0  0  0  0  0  0  0
    6.0780   -1.2850   28.1640 C   0  0  0  0  0  0  0  0  0  0  0  0
    6.8550   -2.4640   28.2630 C   0  0  0  0  0  0  0  0  0  0  0  0
    6.7700   -3.7540   28.8100 C   0  0  0  0  0  0  0  0  0  0  0  0
    7.8550   -4.8280   28.6640 C   0  0  0  0  0  0  0  0  0  0  0  0
    8.9160   -4.1270   27.8390 C   0  0  0  0  0  0  0  0  0  0  0  0
   10.0370   -4.1940   27.2720 C   0  0  0  0  0  0  0  0  0  0  0  0
   11.2970   -4.4630   28.4590 C   0  0  0  0  0  0  0  0  0  0  0  0
   13.2330   -4.4200   27.6130 C   0  0  0  0  0  0  0  0  0  0  0  0
   13.3240   -4.1360   26.0910 C   0  0  0  0  0  0  0  0  0  0  0  0
   11.8320   -3.9890   25.3670 C   0  0  0  0  0  0  0  0  0  0  0  0
   10.3470   -3.9940   25.7690 C   0  0  0  0  0  0  0  0  0  0  0  0
    8.8480   -2.9170   27.3940 C   0  0  0  0  0  0  0  0  0  0  0  0
    7.8420   -2.0930   27.6010 C   0  0  0  0  0  0  0  0  0  0  0  0
    5.6300   -4.8180   23.5870 C   0  0  0  0  0  0  0  0  0  0  0  0
    6.4260   -5.4080   22.4850 C   0  0  0  0  0  0  0  0  0  0  0  0
  1  2  1  0
  2  3  2  0
  2  4  1  0
  4  5  1  0
  5  6  1  0
  6  7  1  0
  7  8  1  0
  8  9  2  0
  8 10  1  0
 10 11  1  0
 11 12  2  0
 12 13  1  0
 13 14  2  0
 14 15  1  0
 11 16  1  0
 15 16  2  0
 16 17  1  0
 17 18  2  0
 18 19  1  0
 19 20  2  0
 20 21  1  0
 21 22  2  0
 22 23  1  0
 23 24  2  0
 24 25  1  0
 21 26  1  0
 25 26  2  0
 20 27  1  0
 17 28  1  0
 27 28  2  0
  7 29  1  0
  4 30  1  0
 29 30  1  0
M  END
