piperidine-amides-31284-covalent
     RDKit          3D

 27 29  0  0  0  0  0  0  0  0999 V2000
    7.0890   -3.4020   19.5110 C   0  0  0  0  0  0  0  0  0  0  0  0
    6.4040   -4.3160   20.3960 C   0  0  0  0  0  0  0  0  0  0  0  0
    5.3560   -4.8990   19.9810 O   0  0  0  0  0  0  0  0  0  0  0  0
    6.8910   -4.6180   21.6800 N   0  0  0  0  0  0  0  0  0  0  0  0
    7.6740   -3.5710   22.3400 C   0  0  0  0  0  0  0  0  0  0  0  0
    6.5030   -2.9240   23.1500 C   0  0  0  0  0  0  0  0  0  0  0  0
    6.1020   -3.9710   24.1680 C   0  0  0  0  0  0  0  0  0  0  0  0
    5.1740   -3.2580   25.2710 C   0  0  0  0  0  0  0  0  0  0  0  0
    4.3860   -2.5310   24.6940 O   0  0  0  0  0  0  0  0  0  0  0  0
    5.4390   -3.5950   26.4820 N   0  0  0  0  0  0  0  0  0  0  0  0
    5.2920   -4.1450   27.7120 C   0  0  0  0  0  0  0  0  0  0  0  0
    6.0560   -4.0720   28.7890 C   0  0  2  0  0  0  0  0  0  0  0  0
    5.6120   -3.0390   29.6200 O   0  0  0  0  0  0  0  0  0  0  0  0
    7.1820   -3.5740   28.1790 C   0  0  0  0  0  0  0  0  0  0  0  0
    6.6430   -2.8430   27.0100 C   0  0  1  0  0  0  0  0  0  0  0  0
    7.6980   -3.2830   26.0670 C   0  0  0  0  0  0  0  0  0  0  0  0
    7.6870   -2.2240   25.1440 C   0  0  0  0  0  0  0  0  0  0  0  0
    8.4200   -1.9630   23.9330 C   0  0  0  0  0  0  0  0  0  0  0  0
    9.2600   -3.2720   23.9660 C   0  0  0  0  0  0  0  0  0  0  0  0
    9.2120   -4.3890   25.0550 C   0  0  0  0  0  0  0  0  0  0  0  0
    8.4520   -4.4010   26.0720 C   0  0  0  0  0  0  0  0  0  0  0  0
    8.4640   -5.4390   26.9730 C   0  0  0  0  0  0  0  0  0  0  0  0
    9.3490   -6.4250   26.7500 F   0  0  0  0  0  0  0  0  0  0  0  0
    7.2310   -6.0480   27.0950 F   0  0  0  0  0  0  0  0  0  0  0  0
    8.6860   -4.9050   28.2350 F   0  0  0  0  0  0  0  0  0  0  0  0
    5.5440   -5.2290   23.5020 C   0  0  0  0  0  0  0  0  0  0  0  0
    6.3690   -5.6990   22.4830 C   0  0  0  0  0  0  0  0  0  0  0  0
  1  2  1  0
  2  3  2  0
  2  4  1  0
  4  5  1  0
  5  6  1  0
  6  7  1  0
  7  8  1  0
  8  9  2  0
  8 10  1  0
 10 11  1  0
 11 12  1  0
 12 13  1  1
 12 14  1  0
 10 15  1  0
 14 15  1  0
 15 16  1  6
 16 17  2  0
 17 18  1  0
 18 19  2  0
 19 20  1  0
 16 21  1  0
 20 21  2  0
 21 22  1  0
 22 23  1  0
 22 24  1  0
 22 25  1  0
  7 26  1  0
  4 27  1  0
 26 27  1  0
M  END
