piperidine-amides-7054-covalent
     RDKit          3D

 21 22  0  0  0  0  0  0  0  0999 V2000
    7.1260   -3.2600   19.2120 C   0  0  0  0  0  0  0  0  0  0  0  0
    6.3800   -4.0460   20.2060 C   0  0  0  0  0  0  0  0  0  0  0  0
    5.3050   -4.6040   19.9020 O   0  0  0  0  0  0  0  0  0  0  0  0
    6.8990   -4.2200   21.4860 N   0  0  0  0  0  0  0  0  0  0  0  0
    6.4750   -5.3570   22.2710 C   0  0  0  0  0  0  0  0  0  0  0  0
    5.5950   -4.7790   23.3780 C   0  0  0  0  0  0  0  0  0  0  0  0
    6.5140   -3.9410   24.2390 C   0  0  0  0  0  0  0  0  0  0  0  0
    5.7580   -3.4270   25.3950 C   0  0  0  0  0  0  0  0  0  0  0  0
    4.5220   -3.2820   25.2740 O   0  0  0  0  0  0  0  0  0  0  0  0
    6.4450   -3.1030   26.5910 N   0  0  0  0  0  0  0  0  0  0  0  0
    6.2280   -3.8370   27.8160 C   0  0  2  0  0  0  0  0  0  0  0  0
    5.8300   -5.2720   27.5040 C   0  0  0  0  0  0  0  0  0  0  0  0
    4.5680   -5.4830   28.1070 O   0  0  0  0  0  0  0  0  0  0  0  0
    5.2110   -3.0960   28.6020 C   0  0  0  0  0  0  0  0  0  0  0  0
    3.8320   -3.4550   28.4770 N   0  0  0  0  0  0  0  0  0  0  0  0
    3.1170   -2.6370   29.2820 N   0  0  0  0  0  0  0  0  0  0  0  0
    4.0360   -1.8410   29.8480 C   0  0  0  0  0  0  0  0  0  0  0  0
    5.2640   -2.1020   29.4630 N   0  0  0  0  0  0  0  0  0  0  0  0
    6.3490   -1.4040   29.9150 C   0  0  0  0  0  0  0  0  0  0  0  0
    7.1610   -2.8150   23.5130 C   0  0  0  0  0  0  0  0  0  0  0  0
    7.6420   -3.1680   22.1330 C   0  0  0  0  0  0  0  0  0  0  0  0
  1  2  1  0
  2  3  2  0
  2  4  1  0
  4  5  1  0
  5  6  1  0
  6  7  1  0
  7  8  1  0
  8  9  2  0
  8 10  1  0
 10 11  1  0
 11 12  1  6
 12 13  1  0
 11 14  1  0
 14 15  2  0
 15 16  1  0
 16 17  2  0
 14 18  1  0
 17 18  1  0
 18 19  1  0
  7 20  1  0
  4 21  1  0
 20 21  1  0
M  END
