piperidine-amides-35080-covalent
     RDKit          3D

 28 30  0  0  0  0  0  0  0  0999 V2000
    7.0600   -3.2800   19.2740 C   0  0  0  0  0  0  0  0  0  0  0  0
    6.3370   -4.0740   20.3030 C   0  0  0  0  0  0  0  0  0  0  0  0
    5.3210   -4.6560   19.9260 O   0  0  0  0  0  0  0  0  0  0  0  0
    6.8220   -4.1770   21.6170 N   0  0  0  0  0  0  0  0  0  0  0  0
    6.6810   -5.3980   22.3750 C   0  0  0  0  0  0  0  0  0  0  0  0
    6.0760   -5.1000   23.7250 C   0  0  0  0  0  0  0  0  0  0  0  0
    6.0610   -3.5920   23.9780 C   0  0  0  0  0  0  0  0  0  0  0  0
    5.5100   -3.3460   25.3350 C   0  0  0  0  0  0  0  0  0  0  0  0
    4.2970   -3.5140   25.5040 O   0  0  0  0  0  0  0  0  0  0  0  0
    6.3060   -2.9160   26.4180 N   0  0  0  0  0  0  0  0  0  0  0  0
    6.7100   -1.5280   26.3940 C   0  0  0  0  0  0  0  0  0  0  0  0
    6.1840   -0.8340   27.6320 C   0  0  0  0  0  0  0  0  0  0  0  0
    4.9040   -0.3480   27.5460 C   0  0  0  0  0  0  0  0  0  0  0  0
    4.3000    0.2820   28.5160 C   0  0  0  0  0  0  0  0  0  0  0  0
    4.9910    0.4430   29.6240 C   0  0  0  0  0  0  0  0  0  0  0  0
    6.3900   -0.0020   29.9320 C   0  0  0  0  0  0  0  0  0  0  0  0
    7.1990    0.3530   31.6220 Br  0  0  0  0  0  0  0  0  0  0  0  0
    7.1380   -0.7590   28.8160 C   0  0  0  0  0  0  0  0  0  0  0  0
    6.0960   -3.4460   27.7530 C   0  0  0  0  0  0  0  0  0  0  0  0
    4.9560   -4.3700   28.0470 C   0  0  0  0  0  0  0  0  0  0  0  0
    3.7890   -3.6420   27.7900 O   0  0  0  0  0  0  0  0  0  0  0  0
    4.9950   -4.6380   29.5230 C   0  0  0  0  0  0  0  0  0  0  0  0
    4.8970   -6.0760   29.9980 C   0  0  0  0  0  0  0  0  0  0  0  0
    5.4760   -7.0650   29.0690 C   0  0  0  0  0  0  0  0  0  0  0  0
    5.6150   -6.6010   27.6470 C   0  0  0  0  0  0  0  0  0  0  0  0
    4.8930   -5.5020   27.2680 C   0  0  0  0  0  0  0  0  0  0  0  0
    7.4120   -3.0360   23.6800 C   0  0  0  0  0  0  0  0  0  0  0  0
    7.7090   -3.1350   22.1800 C   0  0  0  0  0  0  0  0  0  0  0  0
  1  2  1  0
  2  3  2  0
  2  4  1  0
  4  5  1  0
  5  6  1  0
  6  7  1  0
  7  8  1  0
  8  9  2  0
  8 10  1  0
 10 11  1  0
 11 12  1  0
 12 13  2  0
 13 14  1  0
 14 15  2  0
 15 16  1  0
 16 17  1  0
 12 18  1  0
 16 18  2  0
 10 19  1  0
 19 20  1  0
 20 21  1  0
 20 22  1  0
 22 23  1  0
 23 24  1  0
 24 25  1  0
 20 26  1  0
 25 26  1  0
  7 27  1  0
  4 28  1  0
 27 28  1  0
M  END
