piperidine-amides-10419-covalent
     RDKit          3D

 24 25  0  0  0  0  0  0  0  0999 V2000
    7.1080   -3.3020   19.3140 C   0  0  0  0  0  0  0  0  0  0  0  0
    6.3530   -4.0680   20.3090 C   0  0  0  0  0  0  0  0  0  0  0  0
    5.2800   -4.5840   19.9050 O   0  0  0  0  0  0  0  0  0  0  0  0
    6.8420   -4.2470   21.6130 N   0  0  0  0  0  0  0  0  0  0  0  0
    6.5980   -5.4580   22.3660 C   0  0  0  0  0  0  0  0  0  0  0  0
    6.1060   -5.0930   23.7470 C   0  0  0  0  0  0  0  0  0  0  0  0
    6.0320   -3.6010   23.9560 C   0  0  0  0  0  0  0  0  0  0  0  0
    5.6360   -3.2870   25.3530 C   0  0  0  0  0  0  0  0  0  0  0  0
    4.4250   -3.3890   25.6320 O   0  0  0  0  0  0  0  0  0  0  0  0
    6.5300   -2.8690   26.3610 N   0  0  0  0  0  0  0  0  0  0  0  0
    6.3750   -3.2260   27.7630 C   0  0  0  0  0  0  0  0  0  0  0  0
    4.9480   -3.5200   28.2160 C   0  0  0  0  0  0  0  0  0  0  0  0
    4.3140   -4.7210   27.9490 C   0  0  0  0  0  0  0  0  0  0  0  0
    3.0250   -5.0200   28.3530 C   0  0  0  0  0  0  0  0  0  0  0  0
    2.2480   -6.5450   28.0030 Cl  0  0  0  0  0  0  0  0  0  0  0  0
    2.3210   -4.0690   29.0660 C   0  0  0  0  0  0  0  0  0  0  0  0
    2.9370   -2.8680   29.3410 C   0  0  0  0  0  0  0  0  0  0  0  0
    4.2210   -2.5810   28.9330 C   0  0  0  0  0  0  0  0  0  0  0  0
    4.7770   -1.3310   29.2590 O   0  0  0  0  0  0  0  0  0  0  0  0
    4.6640   -0.1820   29.9420 C   0  0  0  0  0  0  0  0  0  0  0  0
    5.4760    0.7350   29.3650 F   0  0  0  0  0  0  0  0  0  0  0  0
    5.0000   -0.3830   31.2580 F   0  0  0  0  0  0  0  0  0  0  0  0
    7.3280   -2.9540   23.6180 C   0  0  0  0  0  0  0  0  0  0  0  0
    7.6700   -3.1630   22.1640 C   0  0  0  0  0  0  0  0  0  0  0  0
  1  2  1  0
  2  3  2  0
  2  4  1  0
  4  5  1  0
  5  6  1  0
  6  7  1  0
  7  8  1  0
  8  9  2  0
  8 10  1  0
 10 11  1  0
 11 12  1  0
 12 13  2  0
 13 14  1  0
 14 15  1  0
 14 16  2  0
 16 17  1  0
 12 18  1  0
 17 18  2  0
 18 19  1  0
 19 20  1  0
 20 21  1  0
 20 22  1  0
  7 23  1  0
  4 24  1  0
 23 24  1  0
M  END
