piperidine-amides-6506-covalent
     RDKit          3D

 24 25  0  0  0  0  0  0  0  0999 V2000
    7.0260   -3.3160   19.3200 C   0  0  0  0  0  0  0  0  0  0  0  0
    6.3390   -4.1530   20.3220 C   0  0  0  0  0  0  0  0  0  0  0  0
    5.3620   -4.8510   19.9780 O   0  0  0  0  0  0  0  0  0  0  0  0
    6.7850   -4.2090   21.6490 N   0  0  0  0  0  0  0  0  0  0  0  0
    7.6450   -3.1580   22.1680 C   0  0  0  0  0  0  0  0  0  0  0  0
    7.4710   -3.0820   23.6850 C   0  0  0  0  0  0  0  0  0  0  0  0
    6.0770   -3.5790   23.9790 C   0  0  0  0  0  0  0  0  0  0  0  0
    5.6430   -3.2570   25.3530 C   0  0  0  0  0  0  0  0  0  0  0  0
    4.4170   -3.3010   25.6230 O   0  0  0  0  0  0  0  0  0  0  0  0
    6.6040   -2.9010   26.3270 N   0  0  0  0  0  0  0  0  0  0  0  0
    6.5150   -1.6670   27.0570 C   0  0  0  0  0  0  0  0  0  0  0  0
    7.0500   -1.6110   28.4580 C   0  0  0  0  0  0  0  0  0  0  0  0
    6.9810   -0.4600   29.1810 C   0  0  0  0  0  0  0  0  0  0  0  0
    6.4100    0.6600   28.6090 C   0  0  0  0  0  0  0  0  0  0  0  0
    5.8860    0.6970   27.3050 C   0  0  0  0  0  0  0  0  0  0  0  0
    5.1900    2.1830   26.7010 S   0  0  0  0  0  0  0  0  0  0  0  0
    6.2190    3.8620   27.8740 F   0  0  0  0  0  0  0  0  0  0  0  0
    3.3660    2.7930   26.8030 F   0  0  0  0  0  0  0  0  0  0  0  0
    6.3310    3.5400   25.8700 F   0  0  0  0  0  0  0  0  0  0  0  0
    4.4720    2.8620   28.5600 F   0  0  0  0  0  0  0  0  0  0  0  0
    4.7720    2.2330   25.2940 F   0  0  0  0  0  0  0  0  0  0  0  0
    5.9140   -0.4260   26.4960 C   0  0  0  0  0  0  0  0  0  0  0  0
    6.0840   -5.0980   23.7880 C   0  0  0  0  0  0  0  0  0  0  0  0
    6.6660   -5.4200   22.4400 C   0  0  0  0  0  0  0  0  0  0  0  0
  1  2  1  0
  2  3  2  0
  2  4  1  0
  4  5  1  0
  5  6  1  0
  6  7  1  0
  7  8  1  0
  8  9  2  0
  8 10  1  0
 10 11  1  0
 11 12  2  0
 12 13  1  0
 13 14  2  0
 14 15  1  0
 15 16  1  0
 16 17  1  0
 16 18  1  0
 16 19  1  0
 16 20  1  0
 16 21  1  0
 11 22  1  0
 15 22  2  0
  7 23  1  0
  4 24  1  0
 23 24  1  0
M  END
