piperidine-amides-3992-covalent
     RDKit          3D

 29 31  0  0  0  0  0  0  0  0999 V2000
    7.0540   -3.3550   19.3030 C   0  0  0  0  0  0  0  0  0  0  0  0
    6.3940   -4.1790   20.3280 C   0  0  0  0  0  0  0  0  0  0  0  0
    5.3620   -4.7940   19.9720 O   0  0  0  0  0  0  0  0  0  0  0  0
    6.9410   -4.3090   21.6340 N   0  0  0  0  0  0  0  0  0  0  0  0
    6.5900   -5.4410   22.4200 C   0  0  0  0  0  0  0  0  0  0  0  0
    6.0300   -5.0870   23.7180 C   0  0  0  0  0  0  0  0  0  0  0  0
    6.0140   -3.6350   23.9750 C   0  0  0  0  0  0  0  0  0  0  0  0
    5.5560   -3.2930   25.3600 C   0  0  0  0  0  0  0  0  0  0  0  0
    4.3450   -3.3630   25.6290 O   0  0  0  0  0  0  0  0  0  0  0  0
    6.4530   -2.8910   26.3640 N   0  0  0  0  0  0  0  0  0  0  0  0
    6.4540   -1.7030   27.1320 C   0  0  0  0  0  0  0  0  0  0  0  0
    7.0010   -1.5770   28.4760 C   0  0  0  0  0  0  0  0  0  0  0  0
    6.9700   -0.2510   29.2450 C   0  0  0  0  0  0  0  0  0  0  0  0
    6.4300    0.9130   28.7350 C   0  0  0  0  0  0  0  0  0  0  0  0
    5.8550    0.7650   27.3200 C   0  0  0  0  0  0  0  0  0  0  0  0
    5.3150    1.9410   26.8120 O   0  0  0  0  0  0  0  0  0  0  0  0
    4.4450    2.5090   27.7400 C   0  0  0  0  0  0  0  0  0  0  0  0
    3.7380    1.4610   28.6040 C   0  0  0  0  0  0  0  0  0  0  0  0
    3.2950    0.1270   28.0680 C   0  0  0  0  0  0  0  0  0  0  0  0
    2.6140   -0.8050   29.0280 C   0  0  0  0  0  0  0  0  0  0  0  0
    2.3800   -0.4180   30.4850 C   0  0  0  0  0  0  0  0  0  0  0  0
    2.8820    0.9450   30.8420 C   0  0  0  0  0  0  0  0  0  0  0  0
    2.7930    1.5340   32.0920 O   0  0  0  0  0  0  0  0  0  0  0  0
    2.4250    2.9080   32.2580 C   0  0  0  0  0  0  0  0  0  0  0  0
    3.5140    1.7920   29.9290 C   0  0  0  0  0  0  0  0  0  0  0  0
    5.8780   -0.4220   26.6200 C   0  0  0  0  0  0  0  0  0  0  0  0
    5.3230   -0.4190   25.3450 C   0  0  0  0  0  0  0  0  0  0  0  0
    7.3940   -3.0940   23.6860 C   0  0  0  0  0  0  0  0  0  0  0  0
    7.6830   -3.1990   22.2000 C   0  0  0  0  0  0  0  0  0  0  0  0
  1  2  1  0
  2  3  2  0
  2  4  1  0
  4  5  1  0
  5  6  1  0
  6  7  1  0
  7  8  1  0
  8  9  2  0
  8 10  1  0
 10 11  1  0
 11 12  2  0
 12 13  1  0
 13 14  2  0
 14 15  1  0
 15 16  1  0
 16 17  1  0
 17 18  1  0
 18 19  2  0
 19 20  1  0
 20 21  2  0
 21 22  1  0
 22 23  1  0
 23 24  1  0
 18 25  1  0
 22 25  2  0
 11 26  1  0
 15 26  2  0
 26 27  1  0
  7 28  1  0
  4 29  1  0
 28 29  1  0
M  END
