piperidine-amides-4444-covalent
     RDKit          3D

 25 26  0  0  0  0  0  0  0  0999 V2000
    7.0980   -3.2860   19.1860 C   0  0  0  0  0  0  0  0  0  0  0  0
    6.3580   -4.0260   20.2260 C   0  0  0  0  0  0  0  0  0  0  0  0
    5.2770   -4.5600   19.8860 O   0  0  0  0  0  0  0  0  0  0  0  0
    6.8760   -4.1630   21.5290 N   0  0  0  0  0  0  0  0  0  0  0  0
    6.4240   -5.2520   22.3240 C   0  0  0  0  0  0  0  0  0  0  0  0
    5.7740   -4.8270   23.5540 C   0  0  0  0  0  0  0  0  0  0  0  0
    6.1330   -3.4550   23.9450 C   0  0  0  0  0  0  0  0  0  0  0  0
    5.8800   -3.1970   25.4030 C   0  0  0  0  0  0  0  0  0  0  0  0
    4.7470   -2.8150   25.7550 O   0  0  0  0  0  0  0  0  0  0  0  0
    6.8890   -3.3810   26.3850 N   0  0  0  0  0  0  0  0  0  0  0  0
    7.3870   -4.6120   26.8840 C   0  0  1  0  0  0  0  0  0  0  0  0
    7.9850   -4.6620   28.2160 C   0  0  0  0  0  0  0  0  0  0  0  0
    6.1790   -5.5140   26.9830 C   0  0  0  0  0  0  0  0  0  0  0  0
    5.8080   -6.1670   28.1440 C   0  0  0  0  0  0  0  0  0  0  0  0
    4.3690   -6.4780   27.6710 C   0  0  0  0  0  0  0  0  0  0  0  0
    3.5590   -7.2410   28.7090 C   0  0  0  0  0  0  0  0  0  0  0  0
    4.3540   -7.5290   29.9940 C   0  0  0  0  0  0  0  0  0  0  0  0
    5.7530   -7.1970   30.3870 C   0  0  0  0  0  0  0  0  0  0  0  0
    6.4470   -6.4540   29.2980 C   0  0  0  0  0  0  0  0  0  0  0  0
    8.4030   -5.1290   25.8940 C   0  0  0  0  0  0  0  0  0  0  0  0
    7.8930   -5.7590   24.7750 F   0  0  0  0  0  0  0  0  0  0  0  0
    9.1250   -4.0740   25.5050 F   0  0  0  0  0  0  0  0  0  0  0  0
    9.3520   -5.9770   26.4830 F   0  0  0  0  0  0  0  0  0  0  0  0
    7.5440   -3.1570   23.5320 C   0  0  0  0  0  0  0  0  0  0  0  0
    7.5990   -3.0520   22.1420 C   0  0  0  0  0  0  0  0  0  0  0  0
  1  2  1  0
  2  3  2  0
  2  4  1  0
  4  5  1  0
  5  6  1  0
  6  7  1  0
  7  8  1  0
  8  9  2  0
  8 10  1  0
 11 10  1  0
 11 12  1  1
 11 13  1  0
 13 14  1  0
 14 15  2  0
 15 16  1  0
 16 17  2  0
 17 18  1  0
 14 19  1  0
 18 19  2  0
 11 20  1  0
 20 21  1  0
 20 22  1  0
 20 23  1  0
  7 24  1  0
  4 25  1  0
 24 25  1  0
M  END
