piperidine-amides-2345-covalent
     RDKit          3D

 27 28  0  0  0  0  0  0  0  0999 V2000
    7.0620   -3.3330   19.2620 C   0  0  0  0  0  0  0  0  0  0  0  0
    6.3840   -4.1630   20.2900 C   0  0  0  0  0  0  0  0  0  0  0  0
    5.3540   -4.7440   19.9520 O   0  0  0  0  0  0  0  0  0  0  0  0
    6.9500   -4.2970   21.5580 N   0  0  0  0  0  0  0  0  0  0  0  0
    7.6650   -3.2020   22.1510 C   0  0  0  0  0  0  0  0  0  0  0  0
    6.8360   -2.6690   23.2730 C   0  0  0  0  0  0  0  0  0  0  0  0
    6.5980   -3.7960   24.2740 C   0  0  0  0  0  0  0  0  0  0  0  0
    5.8210   -3.2360   25.3970 C   0  0  0  0  0  0  0  0  0  0  0  0
    4.6410   -2.9090   25.2200 O   0  0  0  0  0  0  0  0  0  0  0  0
    6.4050   -3.0920   26.6640 N   0  0  0  0  0  0  0  0  0  0  0  0
    6.4160   -1.7980   27.3080 C   0  0  0  0  0  0  0  0  0  0  0  0
    5.7480   -0.5440   26.7850 C   0  0  0  0  0  0  0  0  0  0  0  0
    5.7050    0.7230   27.3400 C   0  0  0  0  0  0  0  0  0  0  0  0
    6.3430    0.9370   28.5410 C   0  0  0  0  0  0  0  0  0  0  0  0
    6.3130    2.1850   29.1150 C   0  0  0  0  0  0  0  0  0  0  0  0
    5.9150    3.3070   28.4540 O   0  0  0  0  0  0  0  0  0  0  0  0
    6.7190    2.2190   30.4290 O   0  0  0  0  0  0  0  0  0  0  0  0
    5.8990    1.7940   31.4940 C   0  0  0  0  0  0  0  0  0  0  0  0
    6.6820    1.9410   32.7640 C   0  0  0  0  0  0  0  0  0  0  0  0
    5.6020    1.5130   33.7260 C   0  0  0  0  0  0  0  0  0  0  0  0
    6.1680    0.1810   34.1010 C   0  0  0  0  0  0  0  0  0  0  0  0
    7.2270    0.2930   35.1450 C   0  0  0  0  0  0  0  0  0  0  0  0
    8.5100   -0.5000   34.9690 C   0  0  0  0  0  0  0  0  0  0  0  0
    7.0820   -0.1590   29.2590 C   0  0  0  0  0  0  0  0  0  0  0  0
    7.1240   -1.5210   28.6560 C   0  0  0  0  0  0  0  0  0  0  0  0
    5.8220   -4.9120   23.6100 C   0  0  0  0  0  0  0  0  0  0  0  0
    6.5090   -5.3990   22.3600 C   0  0  0  0  0  0  0  0  0  0  0  0
  1  2  1  0
  2  3  2  0
  2  4  1  0
  4  5  1  0
  5  6  1  0
  6  7  1  0
  7  8  1  0
  8  9  2  0
  8 10  1  0
 10 11  1  0
 11 12  2  0
 12 13  1  0
 13 14  2  0
 14 15  1  0
 15 16  2  0
 15 17  1  0
 17 18  1  0
 18 19  1  0
 19 20  1  0
 20 21  1  0
 21 22  1  0
 22 23  1  0
 14 24  1  0
 11 25  1  0
 24 25  2  0
  7 26  1  0
  4 27  1  0
 26 27  1  0
M  END
