piperidine-amides-35369-covalent
     RDKit          3D

 34 37  0  0  0  0  0  0  0  0999 V2000
    7.0520   -3.3410   19.3310 C   0  0  0  0  0  0  0  0  0  0  0  0
    6.4050   -4.1830   20.3750 C   0  0  0  0  0  0  0  0  0  0  0  0
    5.4460   -4.8640   19.9990 O   0  0  0  0  0  0  0  0  0  0  0  0
    6.8990   -4.2140   21.6940 N   0  0  0  0  0  0  0  0  0  0  0  0
    6.6440   -5.3500   22.5610 C   0  0  0  0  0  0  0  0  0  0  0  0
    6.0130   -4.8700   23.8440 C   0  0  0  0  0  0  0  0  0  0  0  0
    6.2530   -3.3640   23.9410 C   0  0  0  0  0  0  0  0  0  0  0  0
    5.7520   -2.7830   25.2150 C   0  0  0  0  0  0  0  0  0  0  0  0
    4.8980   -1.8950   25.1430 O   0  0  0  0  0  0  0  0  0  0  0  0
    6.1630   -3.2300   26.4870 N   0  0  0  0  0  0  0  0  0  0  0  0
    5.5430   -4.5340   26.7370 C   0  0  0  0  0  0  0  0  0  0  0  0
    4.9270   -4.6990   28.1180 C   0  0  0  0  0  0  0  0  0  0  0  0
    3.6840   -3.9080   28.3590 N   0  0  0  0  0  0  0  0  0  0  0  0
    3.4230   -4.3420   29.7410 C   0  0  0  0  0  0  0  0  0  0  0  0
    4.3900   -5.2030   30.0800 C   0  0  0  0  0  0  0  0  0  0  0  0
    5.3150   -5.4610   29.1610 N   0  0  0  0  0  0  0  0  0  0  0  0
    6.4680   -6.3210   29.1880 C   0  0  0  0  0  0  0  0  0  0  0  0
    5.9130   -2.8200   27.8610 C   0  0  2  0  0  0  0  0  0  0  0  0
    5.0540   -1.6560   27.8280 C   0  0  0  0  0  0  0  0  0  0  0  0
    6.1860   -1.4040   28.6530 C   0  0  0  0  0  0  0  0  0  0  0  0
    6.9350   -0.6370   27.7030 C   0  0  0  0  0  0  0  0  0  0  0  0
    6.4940    0.7680   27.9990 C   0  0  0  0  0  0  0  0  0  0  0  0
    6.3360    1.2780   29.2400 N   0  0  0  0  0  0  0  0  0  0  0  0
    6.7790    2.6550   29.2340 C   0  0  0  0  0  0  0  0  0  0  0  0
    7.5040    3.1450   30.3140 O   0  0  0  0  0  0  0  0  0  0  0  0
    6.5100    3.4750   28.2240 O   0  0  0  0  0  0  0  0  0  0  0  0
    7.5010    4.1910   27.4950 C   0  0  0  0  0  0  0  0  0  0  0  0
    7.8500    3.6240   26.1420 C   0  0  0  0  0  0  0  0  0  0  0  0
    8.7210    4.3990   28.3220 C   0  0  0  0  0  0  0  0  0  0  0  0
    7.0020    5.5950   27.2480 C   0  0  0  0  0  0  0  0  0  0  0  0
    6.5360    0.3960   30.3750 C   0  0  0  0  0  0  0  0  0  0  0  0
    6.1810   -1.0460   30.0000 C   0  0  0  0  0  0  0  0  0  0  0  0
    7.6440   -2.9330   23.6130 C   0  0  0  0  0  0  0  0  0  0  0  0
    7.8090   -3.1390   22.1070 C   0  0  0  0  0  0  0  0  0  0  0  0
  1  2  1  0
  2  3  2  0
  2  4  1  0
  4  5  1  0
  5  6  1  0
  6  7  1  0
  7  8  1  0
  8  9  2  0
  8 10  1  0
 10 11  1  0
 11 12  1  0
 12 13  2  0
 13 14  1  0
 14 15  2  0
 12 16  1  0
 15 16  1  0
 16 17  1  0
 18 10  1  6
 18 19  1  0
 18 20  1  0
 20 19  1  0
 20 21  1  0
 21 22  1  0
 22 23  1  0
 23 24  1  0
 24 25  2  0
 24 26  1  0
 27 26  1  0
 27 28  1  0
 27 29  1  0
 27 30  1  0
 23 31  1  0
 20 32  1  0
 31 32  1  0
  7 33  1  0
  4 34  1  0
 33 34  1  0
M  END
