piperidine-amides-24657-covalent
     RDKit          3D

 23 24  0  0  0  0  0  0  0  0999 V2000
    7.1070   -3.2810   19.2720 C   0  0  0  0  0  0  0  0  0  0  0  0
    6.3280   -4.0280   20.2700 C   0  0  0  0  0  0  0  0  0  0  0  0
    5.2920   -4.6260   19.9160 O   0  0  0  0  0  0  0  0  0  0  0  0
    6.7570   -4.1270   21.6040 N   0  0  0  0  0  0  0  0  0  0  0  0
    6.6200   -5.4090   22.2700 C   0  0  0  0  0  0  0  0  0  0  0  0
    6.1180   -5.1580   23.7020 C   0  0  0  0  0  0  0  0  0  0  0  0
    6.0250   -3.6610   23.8960 C   0  0  0  0  0  0  0  0  0  0  0  0
    5.5590   -3.3470   25.2700 C   0  0  0  0  0  0  0  0  0  0  0  0
    4.3280   -3.3600   25.4720 O   0  0  0  0  0  0  0  0  0  0  0  0
    6.4550   -3.0230   26.3190 N   0  0  0  0  0  0  0  0  0  0  0  0
    6.9190   -1.6610   26.3250 C   0  0  0  0  0  0  0  0  0  0  0  0
    6.2030   -3.5980   27.6350 C   0  0  0  0  0  0  0  0  0  0  0  0
    6.1380   -4.9730   27.5760 C   0  0  0  0  0  0  0  0  0  0  0  0
    6.7060   -5.7180   28.4240 O   0  0  0  0  0  0  0  0  0  0  0  0
    5.3840   -5.4890   26.5090 N   0  0  0  0  0  0  0  0  0  0  0  0
    4.1070   -6.0050   26.7700 C   0  0  0  0  0  0  0  0  0  0  0  0
    3.4060   -6.2200   25.5870 C   0  0  0  0  0  0  0  0  0  0  0  0
    2.3790   -5.4830   25.1690 C   0  0  0  0  0  0  0  0  0  0  0  0
    1.6080   -5.7190   23.8680 C   0  0  0  0  0  0  0  0  0  0  0  0
    2.5050   -6.9550   23.4890 C   0  0  0  0  0  0  0  0  0  0  0  0
    3.7910   -7.4700   24.5240 S   0  0  0  0  0  0  0  0  0  0  0  0
    7.2640   -2.9360   23.5780 C   0  0  0  0  0  0  0  0  0  0  0  0
    7.6130   -3.1310   22.1760 C   0  0  0  0  0  0  0  0  0  0  0  0
  1  2  1  0
  2  3  2  0
  2  4  1  0
  4  5  1  0
  5  6  1  0
  6  7  1  0
  7  8  1  0
  8  9  2  0
  8 10  1  0
 10 11  1  0
 10 12  1  0
 12 13  1  0
 13 14  2  0
 13 15  1  0
 15 16  1  0
 16 17  1  0
 17 18  2  0
 18 19  1  0
 19 20  2  0
 17 21  1  0
 20 21  1  0
  7 22  1  0
  4 23  1  0
 22 23  1  0
M  END
