piperidine-amides-13630-covalent
     RDKit          3D

 28 29  0  0  0  0  0  0  0  0999 V2000
    7.0900   -3.3040   19.3210 C   0  0  0  0  0  0  0  0  0  0  0  0
    6.3910   -4.1560   20.3200 C   0  0  0  0  0  0  0  0  0  0  0  0
    5.3620   -4.7610   19.9630 O   0  0  0  0  0  0  0  0  0  0  0  0
    6.9230   -4.2990   21.6240 N   0  0  0  0  0  0  0  0  0  0  0  0
    6.5520   -5.3850   22.4760 C   0  0  0  0  0  0  0  0  0  0  0  0
    5.5630   -4.7980   23.4890 C   0  0  0  0  0  0  0  0  0  0  0  0
    6.2170   -3.6940   24.2900 C   0  0  0  0  0  0  0  0  0  0  0  0
    5.2140   -2.9680   25.1260 C   0  0  0  0  0  0  0  0  0  0  0  0
    4.3070   -2.4220   24.5030 O   0  0  0  0  0  0  0  0  0  0  0  0
    5.2720   -2.8990   26.5310 N   0  0  0  0  0  0  0  0  0  0  0  0
    6.0510   -3.7230   27.3420 C   0  0  1  0  0  0  0  0  0  0  0  0
    6.2730   -3.5260   28.6800 C   0  0  0  0  0  0  0  0  0  0  0  0
    6.0610   -2.3040   29.3240 C   0  0  0  0  0  0  0  0  0  0  0  0
    7.0990   -1.3990   29.4610 C   0  0  0  0  0  0  0  0  0  0  0  0
    6.8950   -0.0990   30.1560 C   0  0  0  0  0  0  0  0  0  0  0  0
    5.5400    0.2800   30.7370 C   0  0  0  0  0  0  0  0  0  0  0  0
    5.1870    1.4440   31.4080 O   0  0  0  0  0  0  0  0  0  0  0  0
    4.5320   -0.8330   30.4890 C   0  0  0  0  0  0  0  0  0  0  0  0
    4.8190   -2.0100   29.8300 C   0  0  0  0  0  0  0  0  0  0  0  0
    5.7910   -5.1520   27.2000 C   0  0  0  0  0  0  0  0  0  0  0  0
    5.1120   -5.6930   26.1010 O   0  0  0  0  0  0  0  0  0  0  0  0
    6.2270   -5.9850   28.1810 O   0  0  0  0  0  0  0  0  0  0  0  0
    5.3460   -6.5980   29.0660 C   0  0  0  0  0  0  0  0  0  0  0  0
    4.1900   -6.8650   28.3820 C   0  0  0  0  0  0  0  0  0  0  0  0
    4.2050   -5.8120   29.5810 C   0  0  0  0  0  0  0  0  0  0  0  0
    5.7050   -7.7570   29.6770 C   0  0  0  0  0  0  0  0  0  0  0  0
    6.9000   -2.6370   23.4220 C   0  0  0  0  0  0  0  0  0  0  0  0
    7.6380   -3.1920   22.2540 C   0  0  0  0  0  0  0  0  0  0  0  0
  1  2  1  0
  2  3  2  0
  2  4  1  0
  4  5  1  0
  5  6  1  0
  6  7  1  0
  7  8  1  0
  8  9  2  0
  8 10  1  0
 10 11  1  0
 11 12  1  1
 12 13  1  0
 13 14  2  0
 14 15  1  0
 15 16  2  0
 16 17  1  0
 16 18  1  0
 13 19  1  0
 18 19  2  0
 11 20  1  0
 20 21  2  0
 20 22  1  0
 23 22  1  0
 23 24  1  0
 23 25  1  0
 23 26  1  0
  7 27  1  0
  4 28  1  0
 27 28  1  0
M  END
