piperidine-amides-2416-covalent
     RDKit          3D

 27 29  0  0  0  0  0  0  0  0999 V2000
    7.0440   -3.2930   19.3110 C   0  0  0  0  0  0  0  0  0  0  0  0
    6.3630   -4.1290   20.3340 C   0  0  0  0  0  0  0  0  0  0  0  0
    5.3700   -4.7560   19.9600 O   0  0  0  0  0  0  0  0  0  0  0  0
    6.8720   -4.2180   21.6410 N   0  0  0  0  0  0  0  0  0  0  0  0
    7.6530   -3.1460   22.2220 C   0  0  0  0  0  0  0  0  0  0  0  0
    7.3020   -2.9730   23.6800 C   0  0  0  0  0  0  0  0  0  0  0  0
    5.9590   -3.6580   23.9600 C   0  0  0  0  0  0  0  0  0  0  0  0
    5.4560   -3.3200   25.3230 C   0  0  0  0  0  0  0  0  0  0  0  0
    4.3450   -2.7830   25.4100 O   0  0  0  0  0  0  0  0  0  0  0  0
    6.1700   -3.5690   26.5160 N   0  0  0  0  0  0  0  0  0  0  0  0
    6.0960   -4.8760   27.1520 C   0  0  0  0  0  0  0  0  0  0  0  0
    4.7450   -5.0980   27.7920 C   0  0  1  0  0  0  0  0  0  0  0  0
    3.8630   -6.0350   27.2560 C   0  0  0  0  0  0  0  0  0  0  0  0
    3.5560   -6.9780   28.1700 C   0  0  0  0  0  0  0  0  0  0  0  0
    4.1910   -6.5360   29.3470 N   0  0  0  0  0  0  0  0  0  0  0  0
    4.0690   -7.3640   30.5260 C   0  0  0  0  0  0  0  0  0  0  0  0
    2.9730   -8.1060   30.8380 O   0  0  0  0  0  0  0  0  0  0  0  0
    5.2480   -7.4260   31.4910 C   0  0  0  0  0  0  0  0  0  0  0  0
    4.4290   -7.9060   32.6580 C   0  0  0  0  0  0  0  0  0  0  0  0
    5.3310   -8.8570   33.4460 C   0  0  0  0  0  0  0  0  0  0  0  0
    4.7010   -9.4660   34.6730 C   0  0  0  0  0  0  0  0  0  0  0  0
    3.3010   -9.1270   35.0410 C   0  0  0  0  0  0  0  0  0  0  0  0
    2.5200   -8.1760   34.1860 C   0  0  0  0  0  0  0  0  0  0  0  0
    3.1200   -7.5710   32.9810 C   0  0  0  0  0  0  0  0  0  0  0  0
    4.8780   -5.3260   29.1830 C   0  0  0  0  0  0  0  0  0  0  0  0
    6.1500   -5.1410   23.7710 C   0  0  0  0  0  0  0  0  0  0  0  0
    6.6110   -5.4340   22.3600 C   0  0  0  0  0  0  0  0  0  0  0  0
  1  2  1  0
  2  3  2  0
  2  4  1  0
  4  5  1  0
  5  6  1  0
  6  7  1  0
  7  8  1  0
  8  9  2  0
  8 10  1  0
 10 11  1  0
 12 11  1  6
 12 13  1  0
 13 14  1  0
 14 15  1  0
 15 16  1  0
 16 17  2  0
 16 18  1  0
 18 19  1  0
 19 20  2  0
 20 21  1  0
 21 22  2  0
 22 23  1  0
 19 24  1  0
 23 24  2  0
 12 25  1  0
 15 25  1  0
  7 26  1  0
  4 27  1  0
 26 27  1  0
M  END
