piperidine-amides-3460-covalent
     RDKit          3D

 20 21  0  0  0  0  0  0  0  0999 V2000
    7.1270   -3.2980   19.2160 C   0  0  0  0  0  0  0  0  0  0  0  0
    6.3190   -4.0170   20.1920 C   0  0  0  0  0  0  0  0  0  0  0  0
    5.2370   -4.4970   19.8660 O   0  0  0  0  0  0  0  0  0  0  0  0
    6.8200   -4.2350   21.5140 N   0  0  0  0  0  0  0  0  0  0  0  0
    6.4100   -5.3860   22.2680 C   0  0  0  0  0  0  0  0  0  0  0  0
    5.6650   -4.9310   23.4920 C   0  0  0  0  0  0  0  0  0  0  0  0
    6.5020   -3.8420   24.1400 C   0  0  0  0  0  0  0  0  0  0  0  0
    5.8310   -3.2750   25.3340 C   0  0  0  0  0  0  0  0  0  0  0  0
    4.5930   -3.2540   25.4930 O   0  0  0  0  0  0  0  0  0  0  0  0
    6.6850   -2.7240   26.3020 N   0  0  0  0  0  0  0  0  0  0  0  0
    6.2670   -2.5420   27.6680 C   0  0  0  0  0  0  0  0  0  0  0  0
    5.4720   -3.7150   28.1570 C   0  0  0  0  0  0  0  0  0  0  0  0
    4.2110   -3.7730   28.7370 C   0  0  0  0  0  0  0  0  0  0  0  0
    3.8530   -5.1130   29.0650 N   0  0  0  0  0  0  0  0  0  0  0  0
    4.9980   -5.8530   28.6380 C   0  0  0  0  0  0  0  0  0  0  0  0
    4.9890   -7.2070   28.8260 C   0  0  0  0  0  0  0  0  0  0  0  0
    5.8730   -7.6460   29.8950 C   0  0  0  0  0  0  0  0  0  0  0  0
    5.9660   -5.0040   28.0870 O   0  0  0  0  0  0  0  0  0  0  0  0
    6.8890   -2.7210   23.2170 C   0  0  0  0  0  0  0  0  0  0  0  0
    7.6470   -3.2510   22.2080 C   0  0  0  0  0  0  0  0  0  0  0  0
  1  2  1  0
  2  3  2  0
  2  4  1  0
  4  5  1  0
  5  6  1  0
  6  7  1  0
  7  8  1  0
  8  9  2  0
  8 10  1  0
 10 11  1  0
 11 12  1  0
 12 13  2  0
 13 14  1  0
 14 15  2  0
 15 16  1  0
 16 17  1  0
 12 18  1  0
 15 18  1  0
  7 19  1  0
  4 20  1  0
 19 20  1  0
M  END
