piperidine-amides-25520-covalent
     RDKit          3D

 24 26  0  0  0  0  0  0  0  0999 V2000
    7.0580   -3.3010   19.3010 C   0  0  0  0  0  0  0  0  0  0  0  0
    6.3560   -4.1370   20.3070 C   0  0  0  0  0  0  0  0  0  0  0  0
    5.3240   -4.6920   19.9350 O   0  0  0  0  0  0  0  0  0  0  0  0
    6.8760   -4.3260   21.5920 N   0  0  0  0  0  0  0  0  0  0  0  0
    6.5220   -5.4910   22.3520 C   0  0  0  0  0  0  0  0  0  0  0  0
    5.5330   -5.0940   23.4200 C   0  0  0  0  0  0  0  0  0  0  0  0
    5.6760   -3.5880   23.7170 C   0  0  0  0  0  0  0  0  0  0  0  0
    4.9550   -3.2390   24.9800 C   0  0  0  0  0  0  0  0  0  0  0  0
    4.1690   -2.2950   24.9670 O   0  0  0  0  0  0  0  0  0  0  0  0
    5.1330   -3.9190   26.1920 N   0  0  0  0  0  0  0  0  0  0  0  0
    5.4810   -3.0070   27.2780 C   0  0  0  0  0  0  0  0  0  0  0  0
    5.6650   -3.7840   28.5460 C   0  0  0  0  0  0  0  0  0  0  0  0
    5.7240   -5.1190   28.5160 C   0  0  0  0  0  0  0  0  0  0  0  0
    6.5070   -5.6390   27.5620 C   0  0  0  0  0  0  0  0  0  0  0  0
    7.4450   -6.5720   27.6900 C   0  0  0  0  0  0  0  0  0  0  0  0
    8.4940   -7.1810   26.4380 C   0  0  0  0  0  0  0  0  0  0  0  0
   10.0320   -8.9630   26.4230 S   0  0  0  0  0  0  0  0  0  0  0  0
    9.7420  -10.6700   27.8860 C   0  0  0  0  0  0  0  0  0  0  0  0
    9.5950  -11.6960   28.9210 N   0  0  0  0  0  0  0  0  0  0  0  0
    7.9680   -6.3110   24.7040 C   0  0  0  0  0  0  0  0  0  0  0  0
    6.7690   -5.2820   24.8620 C   0  0  0  0  0  0  0  0  0  0  0  0
    6.1260   -4.9520   26.2180 C   0  0  0  0  0  0  0  0  0  0  0  0
    7.0390   -2.9980   23.5800 C   0  0  0  0  0  0  0  0  0  0  0  0
    7.6660   -3.3010   22.2610 C   0  0  0  0  0  0  0  0  0  0  0  0
  1  2  1  0
  2  3  2  0
  2  4  1  0
  4  5  1  0
  5  6  1  0
  6  7  1  0
  7  8  1  0
  8  9  2  0
  8 10  1  0
 10 11  1  0
 11 12  1  0
 12 13  1  0
 13 14  1  0
 14 15  2  0
 15 16  1  0
 16 17  1  0
 17 18  1  0
 18 19  3  0
 16 20  2  0
 20 21  1  0
 10 22  1  0
 14 22  1  0
 21 22  2  0
  7 23  1  0
  4 24  1  0
 23 24  1  0
M  END
