piperidine-amides-21726-covalent
     RDKit          3D

 23 25  0  0  0  0  0  0  0  0999 V2000
    7.0690   -3.3380   19.2950 C   0  0  0  0  0  0  0  0  0  0  0  0
    6.4000   -4.1660   20.3050 C   0  0  0  0  0  0  0  0  0  0  0  0
    5.3490   -4.7580   19.9520 O   0  0  0  0  0  0  0  0  0  0  0  0
    6.9550   -4.3140   21.5790 N   0  0  0  0  0  0  0  0  0  0  0  0
    6.7970   -5.5440   22.3250 C   0  0  0  0  0  0  0  0  0  0  0  0
    6.1670   -5.1930   23.6340 C   0  0  0  0  0  0  0  0  0  0  0  0
    6.2000   -3.7070   23.8140 C   0  0  0  0  0  0  0  0  0  0  0  0
    5.6200   -3.3250   25.1020 C   0  0  0  0  0  0  0  0  0  0  0  0
    4.7360   -2.4410   25.1090 O   0  0  0  0  0  0  0  0  0  0  0  0
    5.9790   -3.8950   26.3170 N   0  0  0  0  0  0  0  0  0  0  0  0
    5.0070   -4.7970   26.9560 C   0  0  0  0  0  0  0  0  0  0  0  0
    4.8230   -4.6540   28.5070 C   0  0  0  0  0  0  0  0  0  0  0  0
    6.1130   -4.3730   29.1550 N   0  0  0  0  0  0  0  0  0  0  0  0
    6.9310   -5.4070   29.1070 C   0  0  0  0  0  0  0  0  0  0  0  0
    6.5270   -3.1690   28.7310 C   0  0  0  0  0  0  0  0  0  0  0  0
    6.9810   -2.0650   29.3530 C   0  0  0  0  0  0  0  0  0  0  0  0
    7.1100   -1.4080   28.3160 C   0  0  0  0  0  0  0  0  0  0  0  0
    6.6360   -2.8160   28.4400 C   0  0  0  0  0  0  0  0  0  0  0  0
    6.0990   -4.2430   28.0130 C   0  0  0  0  0  0  0  0  0  0  0  0
    5.7300   -4.9790   26.9360 F   0  0  0  0  0  0  0  0  0  0  0  0
    6.4120   -3.0800   27.3250 C   0  0  0  0  0  0  0  0  0  0  0  0
    7.6170   -3.1790   23.6140 C   0  0  0  0  0  0  0  0  0  0  0  0
    7.8000   -3.2350   22.1140 C   0  0  0  0  0  0  0  0  0  0  0  0
  1  2  1  0
  2  3  2  0
  2  4  1  0
  4  5  1  0
  5  6  1  0
  6  7  1  0
  7  8  1  0
  8  9  2  0
  8 10  1  0
 10 11  1  0
 11 12  1  0
 12 13  1  0
 13 14  1  0
 13 15  1  0
 15 16  2  0
 16 17  1  0
 17 18  2  0
 18 19  1  0
 19 20  1  0
 10 21  1  0
 15 21  1  0
 19 21  2  0
  7 22  1  0
  4 23  1  0
 22 23  1  0
M  END
