piperidine-amides-9173-covalent
     RDKit          3D

 20 21  0  0  0  0  0  0  0  0999 V2000
    7.1070   -3.2790   19.2010 C   0  0  0  0  0  0  0  0  0  0  0  0
    6.3600   -4.0330   20.2120 C   0  0  0  0  0  0  0  0  0  0  0  0
    5.2890   -4.5740   19.8920 O   0  0  0  0  0  0  0  0  0  0  0  0
    6.8550   -4.2040   21.5110 N   0  0  0  0  0  0  0  0  0  0  0  0
    7.7040   -3.2350   22.1610 C   0  0  0  0  0  0  0  0  0  0  0  0
    6.8990   -2.6930   23.3060 C   0  0  0  0  0  0  0  0  0  0  0  0
    6.2990   -3.7810   24.1590 C   0  0  0  0  0  0  0  0  0  0  0  0
    5.3960   -3.2420   25.2070 C   0  0  0  0  0  0  0  0  0  0  0  0
    4.2350   -3.7220   25.3600 O   0  0  0  0  0  0  0  0  0  0  0  0
    5.7480   -2.1800   26.0700 N   0  0  0  0  0  0  0  0  0  0  0  0
    6.5550   -2.4070   27.2780 C   0  0  0  0  0  0  0  0  0  0  0  0
    7.9330   -2.1420   26.8580 C   0  0  0  0  0  0  0  0  0  0  0  0
    8.5480   -3.1020   25.9650 C   0  0  0  0  0  0  0  0  0  0  0  0
    9.1400   -4.1210   26.8450 C   0  0  2  0  0  0  0  0  0  0  0  0
    9.8380   -5.2490   26.2290 C   0  0  0  0  0  0  0  0  0  0  0  0
    9.2420   -6.3890   26.7890 C   0  0  0  0  0  0  0  0  0  0  0  0
    8.2280   -6.0670   27.6360 C   0  0  0  0  0  0  0  0  0  0  0  0
    7.9420   -4.6860   27.6010 C   0  0  0  0  0  0  0  0  0  0  0  0
    5.4930   -4.8180   23.3480 C   0  0  0  0  0  0  0  0  0  0  0  0
    6.4250   -5.3570   22.2600 C   0  0  0  0  0  0  0  0  0  0  0  0
  1  2  1  0
  2  3  2  0
  2  4  1  0
  4  5  1  0
  5  6  1  0
  6  7  1  0
  7  8  1  0
  8  9  2  0
  8 10  1  0
 10 11  1  0
 11 12  1  0
 12 13  1  0
 14 13  1  6
 14 15  1  0
 15 16  2  0
 16 17  1  0
 14 18  1  0
 17 18  1  0
  7 19  1  0
  4 20  1  0
 19 20  1  0
M  END
