piperidine-amides-33835-covalent
     RDKit          3D

 29 32  0  0  0  0  0  0  0  0999 V2000
    7.0880   -3.3780   19.3710 C   0  0  0  0  0  0  0  0  0  0  0  0
    6.4020   -4.2190   20.3630 C   0  0  0  0  0  0  0  0  0  0  0  0
    5.3680   -4.8190   19.9780 O   0  0  0  0  0  0  0  0  0  0  0  0
    6.9320   -4.3800   21.6730 N   0  0  0  0  0  0  0  0  0  0  0  0
    6.4930   -5.4800   22.4520 C   0  0  0  0  0  0  0  0  0  0  0  0
    6.0560   -5.1160   23.8060 C   0  0  0  0  0  0  0  0  0  0  0  0
    6.5280   -3.8110   24.3310 C   0  0  0  0  0  0  0  0  0  0  0  0
    5.5520   -3.2490   25.3470 C   0  0  0  0  0  0  0  0  0  0  0  0
    4.8360   -2.3010   24.9990 O   0  0  0  0  0  0  0  0  0  0  0  0
    5.3680   -3.7420   26.6710 N   0  0  0  0  0  0  0  0  0  0  0  0
    4.1550   -3.8570   27.3370 C   0  0  0  0  0  0  0  0  0  0  0  0
    4.2550   -4.3150   28.7080 C   0  0  0  0  0  0  0  0  0  0  0  0
    5.3550   -4.9090   29.1390 N   0  0  0  0  0  0  0  0  0  0  0  0
    5.4060   -6.1480   29.8810 C   0  0  0  0  0  0  0  0  0  0  0  0
    4.6470   -5.9880   31.0410 C   0  0  0  0  0  0  0  0  0  0  0  0
    4.9310   -7.3750   31.5330 C   0  0  0  0  0  0  0  0  0  0  0  0
    4.2360   -7.5560   32.8510 C   0  0  0  0  0  0  0  0  0  0  0  0
    3.8680   -6.1260   33.1940 C   0  0  0  0  0  0  0  0  0  0  0  0
    3.1360   -5.8960   34.4830 C   0  0  0  0  0  0  0  0  0  0  0  0
    2.7950   -7.0850   35.3820 C   0  0  0  0  0  0  0  0  0  0  0  0
    1.9350   -6.8420   36.9040 Cl  0  0  0  0  0  0  0  0  0  0  0  0
    3.2080   -8.5240   34.9620 C   0  0  0  0  0  0  0  0  0  0  0  0
    3.9320   -8.6230   33.6590 C   0  0  0  0  0  0  0  0  0  0  0  0
    5.7430   -8.0950   30.6560 N   0  0  0  0  0  0  0  0  0  0  0  0
    6.0440   -7.3420   29.6110 N   0  0  0  0  0  0  0  0  0  0  0  0
    6.5510   -4.6310   28.4430 C   0  0  0  0  0  0  0  0  0  0  0  0
    6.3560   -3.4780   27.6540 C   0  0  0  0  0  0  0  0  0  0  0  0
    6.7410   -2.7970   23.2530 C   0  0  0  0  0  0  0  0  0  0  0  0
    7.6480   -3.3250   22.3390 C   0  0  0  0  0  0  0  0  0  0  0  0
  1  2  1  0
  2  3  2  0
  2  4  1  0
  4  5  1  0
  5  6  1  0
  6  7  1  0
  7  8  1  0
  8  9  2  0
  8 10  1  0
 10 11  1  0
 11 12  1  0
 12 13  1  0
 13 14  1  0
 14 15  2  0
 15 16  1  0
 16 17  1  0
 17 18  2  0
 18 19  1  0
 19 20  2  0
 20 21  1  0
 20 22  1  0
 17 23  1  0
 22 23  2  0
 16 24  2  0
 14 25  1  0
 24 25  1  0
 13 26  1  0
 10 27  1  0
 26 27  1  0
  7 28  1  0
  4 29  1  0
 28 29  1  0
M  END
