piperidine-amides-12260-covalent
     RDKit          3D

 24 26  0  0  0  0  0  0  0  0999 V2000
    7.1030   -3.3180   19.2490 C   0  0  0  0  0  0  0  0  0  0  0  0
    6.3130   -4.0450   20.2360 C   0  0  0  0  0  0  0  0  0  0  0  0
    5.2610   -4.5730   19.8970 O   0  0  0  0  0  0  0  0  0  0  0  0
    6.7930   -4.1970   21.5820 N   0  0  0  0  0  0  0  0  0  0  0  0
    7.6370   -3.1890   22.1770 C   0  0  0  0  0  0  0  0  0  0  0  0
    7.0730   -2.7490   23.4980 C   0  0  0  0  0  0  0  0  0  0  0  0
    6.4910   -3.9520   24.2260 C   0  0  0  0  0  0  0  0  0  0  0  0
    5.7430   -3.4860   25.4310 C   0  0  0  0  0  0  0  0  0  0  0  0
    4.5060   -3.3430   25.4210 O   0  0  0  0  0  0  0  0  0  0  0  0
    6.4760   -3.1790   26.6060 N   0  0  0  0  0  0  0  0  0  0  0  0
    5.9770   -3.4860   27.9420 C   0  0  2  0  0  0  0  0  0  0  0  0
    6.6150   -4.7320   28.5010 C   0  0  0  0  0  0  0  0  0  0  0  0
    4.5190   -3.7390   27.9940 C   0  0  0  0  0  0  0  0  0  0  0  0
    3.5190   -2.8170   27.5740 C   0  0  0  0  0  0  0  0  0  0  0  0
    2.1690   -3.2620   27.7180 N   0  0  0  0  0  0  0  0  0  0  0  0
    2.4190   -4.4400   28.2230 N   0  0  0  0  0  0  0  0  0  0  0  0
    1.3560   -5.1820   28.5070 C   0  0  0  0  0  0  0  0  0  0  0  0
    1.4630   -6.6340   28.4100 C   0  0  0  0  0  0  0  0  0  0  0  0
    0.6200   -7.5010   29.1100 C   0  0  0  0  0  0  0  0  0  0  0  0
    1.5910   -8.1090   29.8150 C   0  0  0  0  0  0  0  0  0  0  0  0
    2.4670   -7.2770   29.1740 C   0  0  0  0  0  0  0  0  0  0  0  0
    3.7970   -4.8180   28.4260 C   0  0  0  0  0  0  0  0  0  0  0  0
    5.6060   -4.8270   23.3530 C   0  0  0  0  0  0  0  0  0  0  0  0
    6.4410   -5.3430   22.3680 C   0  0  0  0  0  0  0  0  0  0  0  0
  1  2  1  0
  2  3  2  0
  2  4  1  0
  4  5  1  0
  5  6  1  0
  6  7  1  0
  7  8  1  0
  8  9  2  0
  8 10  1  0
 10 11  1  0
 11 12  1  6
 11 13  1  0
 13 14  1  0
 14 15  2  0
 15 16  1  0
 16 17  1  0
 17 18  1  0
 18 19  1  0
 19 20  1  0
 18 21  1  0
 20 21  1  0
 13 22  2  0
 16 22  1  0
  7 23  1  0
  4 24  1  0
 23 24  1  0
M  END
