piperidine-amides-34315-covalent
     RDKit          3D

 26 28  0  0  0  0  0  0  0  0999 V2000
    7.0190   -3.3820   19.4220 C   0  0  0  0  0  0  0  0  0  0  0  0
    6.3250   -4.2410   20.3980 C   0  0  0  0  0  0  0  0  0  0  0  0
    5.3870   -4.9690   20.0070 O   0  0  0  0  0  0  0  0  0  0  0  0
    6.7240   -4.2870   21.7470 N   0  0  0  0  0  0  0  0  0  0  0  0
    6.6170   -5.5460   22.4690 C   0  0  0  0  0  0  0  0  0  0  0  0
    6.1710   -5.2730   23.9270 C   0  0  0  0  0  0  0  0  0  0  0  0
    6.0250   -3.7740   24.0760 C   0  0  0  0  0  0  0  0  0  0  0  0
    5.5650   -3.2710   25.4150 C   0  0  0  0  0  0  0  0  0  0  0  0
    5.1580   -2.0960   25.4260 O   0  0  0  0  0  0  0  0  0  0  0  0
    5.5220   -4.0180   26.6400 N   0  0  0  0  0  0  0  0  0  0  0  0
    4.3650   -3.8450   27.4690 C   0  0  0  0  0  0  0  0  0  0  0  0
    4.6520   -4.4090   28.8630 C   0  0  0  0  0  0  0  0  0  0  0  0
    5.4530   -5.5990   28.6910 N   0  0  0  0  0  0  0  0  0  0  0  0
    5.7660   -6.6440   29.6500 C   0  0  0  0  0  0  0  0  0  0  0  0
    4.6520   -7.1260   30.2790 C   0  0  0  0  0  0  0  0  0  0  0  0
    4.5160   -7.2680   31.6230 C   0  0  0  0  0  0  0  0  0  0  0  0
    3.3760   -7.7670   32.2120 C   0  0  0  0  0  0  0  0  0  0  0  0
    2.0140   -8.2810   31.6810 C   0  0  0  0  0  0  0  0  0  0  0  0
    0.4560   -8.9710   32.5510 Br  0  0  0  0  0  0  0  0  0  0  0  0
    2.3280   -8.0530   30.1870 C   0  0  0  0  0  0  0  0  0  0  0  0
    1.3170   -8.4020   29.3510 F   0  0  0  0  0  0  0  0  0  0  0  0
    3.5820   -7.5100   29.5880 C   0  0  0  0  0  0  0  0  0  0  0  0
    6.7420   -5.1430   28.2640 C   0  0  0  0  0  0  0  0  0  0  0  0
    6.4480   -3.8730   27.7200 C   0  0  0  0  0  0  0  0  0  0  0  0
    7.3600   -3.1210   23.7390 C   0  0  0  0  0  0  0  0  0  0  0  0
    7.6200   -3.2670   22.2630 C   0  0  0  0  0  0  0  0  0  0  0  0
  1  2  1  0
  2  3  2  0
  2  4  1  0
  4  5  1  0
  5  6  1  0
  6  7  1  0
  7  8  1  0
  8  9  2  0
  8 10  1  0
 10 11  1  0
 11 12  1  0
 12 13  1  0
 13 14  1  0
 14 15  1  0
 15 16  2  0
 16 17  1  0
 17 18  2  0
 18 19  1  0
 18 20  1  0
 20 21  1  0
 15 22  1  0
 20 22  2  0
 13 23  1  0
 10 24  1  0
 23 24  1  0
  7 25  1  0
  4 26  1  0
 25 26  1  0
M  END
