piperidine-amides-30751-covalent
     RDKit          3D

 23 25  0  0  0  0  0  0  0  0999 V2000
    7.0690   -3.3500   19.3520 C   0  0  0  0  0  0  0  0  0  0  0  0
    6.3910   -4.2060   20.3290 C   0  0  0  0  0  0  0  0  0  0  0  0
    5.3700   -4.8170   19.9760 O   0  0  0  0  0  0  0  0  0  0  0  0
    6.8930   -4.4030   21.6310 N   0  0  0  0  0  0  0  0  0  0  0  0
    6.6410   -5.6020   22.3870 C   0  0  0  0  0  0  0  0  0  0  0  0
    5.7790   -5.1660   23.5460 C   0  0  0  0  0  0  0  0  0  0  0  0
    6.3250   -3.9680   24.2780 C   0  0  0  0  0  0  0  0  0  0  0  0
    5.3130   -3.4070   25.2180 C   0  0  0  0  0  0  0  0  0  0  0  0
    4.3060   -2.8240   24.7390 O   0  0  0  0  0  0  0  0  0  0  0  0
    5.3680   -3.4670   26.6330 N   0  0  0  0  0  0  0  0  0  0  0  0
    4.3320   -4.1230   27.4470 C   0  0  0  0  0  0  0  0  0  0  0  0
    5.1130   -4.4790   28.6310 C   0  0  0  0  0  0  0  0  0  0  0  0
    6.4930   -4.1680   28.3080 C   0  0  0  0  0  0  0  0  0  0  0  0
    6.4570   -2.9840   27.3430 C   0  0  2  0  0  0  0  0  0  0  0  0
    6.2750   -1.7010   28.1380 C   0  0  0  0  0  0  0  0  0  0  0  0
    5.1070   -0.9240   27.6380 C   0  0  0  0  0  0  0  0  0  0  0  0
    4.7600    0.3120   28.2620 N   0  0  0  0  0  0  0  0  0  0  0  0
    5.5670    0.6510   29.2810 C   0  0  0  0  0  0  0  0  0  0  0  0
    6.6700   -0.0260   29.7960 C   0  0  0  0  0  0  0  0  0  0  0  0
    7.5960    0.7640   31.2850 Br  0  0  0  0  0  0  0  0  0  0  0  0
    7.0950   -1.3400   29.1790 C   0  0  0  0  0  0  0  0  0  0  0  0
    6.8190   -2.8370   23.4070 C   0  0  0  0  0  0  0  0  0  0  0  0
    7.6760   -3.3880   22.2970 C   0  0  0  0  0  0  0  0  0  0  0  0
  1  2  1  0
  2  3  2  0
  2  4  1  0
  4  5  1  0
  5  6  1  0
  6  7  1  0
  7  8  1  0
  8  9  2  0
  8 10  1  0
 10 11  1  0
 11 12  1  0
 12 13  1  0
 10 14  1  0
 13 14  1  0
 14 15  1  1
 15 16  2  0
 16 17  1  0
 17 18  2  0
 18 19  1  0
 19 20  1  0
 15 21  1  0
 19 21  2  0
  7 22  1  0
  4 23  1  0
 22 23  1  0
M  END
