piperidine-amides-2811-covalent
     RDKit          3D

 24 25  0  0  0  0  0  0  0  0999 V2000
    7.0690   -3.2950   19.2190 C   0  0  0  0  0  0  0  0  0  0  0  0
    6.3400   -4.0530   20.2340 C   0  0  0  0  0  0  0  0  0  0  0  0
    5.3030   -4.6390   19.9200 O   0  0  0  0  0  0  0  0  0  0  0  0
    6.8430   -4.1730   21.5770 N   0  0  0  0  0  0  0  0  0  0  0  0
    7.6820   -3.1280   22.1230 C   0  0  0  0  0  0  0  0  0  0  0  0
    7.4140   -2.9910   23.5890 C   0  0  0  0  0  0  0  0  0  0  0  0
    6.0970   -3.6970   23.8280 C   0  0  0  0  0  0  0  0  0  0  0  0
    5.5420   -3.4190   25.1770 C   0  0  0  0  0  0  0  0  0  0  0  0
    4.3280   -3.2160   25.3540 O   0  0  0  0  0  0  0  0  0  0  0  0
    6.4040   -3.3820   26.2910 N   0  0  0  0  0  0  0  0  0  0  0  0
    5.7950   -3.5070   27.5880 C   0  0  1  0  0  0  0  0  0  0  0  0
    6.4850   -4.5630   28.4250 C   0  0  0  0  0  0  0  0  0  0  0  0
    5.8760   -2.1980   28.2760 C   0  0  0  0  0  0  0  0  0  0  0  0
    6.3170   -2.1400   29.6400 N   0  0  0  0  0  0  0  0  0  0  0  0
    6.3940   -0.8620   30.2780 C   0  0  0  0  0  0  0  0  0  0  0  0
    6.0520    0.2870   29.6250 C   0  0  0  0  0  0  0  0  0  0  0  0
    5.5970    0.2560   28.2530 C   0  0  0  0  0  0  0  0  0  0  0  0
    5.2140    1.3310   27.4720 C   0  0  0  0  0  0  0  0  0  0  0  0
    5.5060    1.3680   26.1600 F   0  0  0  0  0  0  0  0  0  0  0  0
    3.8640    1.5330   27.5990 F   0  0  0  0  0  0  0  0  0  0  0  0
    5.8250    2.4320   28.0920 F   0  0  0  0  0  0  0  0  0  0  0  0
    5.5620   -0.9980   27.7290 N   0  0  0  0  0  0  0  0  0  0  0  0
    6.3330   -5.1870   23.6420 C   0  0  0  0  0  0  0  0  0  0  0  0
    6.5340   -5.4140   22.2760 C   0  0  0  0  0  0  0  0  0  0  0  0
  1  2  1  0
  2  3  2  0
  2  4  1  0
  4  5  1  0
  5  6  1  0
  6  7  1  0
  7  8  1  0
  8  9  2  0
  8 10  1  0
 10 11  1  0
 11 12  1  1
 11 13  1  0
 13 14  2  0
 14 15  1  0
 15 16  2  0
 16 17  1  0
 17 18  1  0
 18 19  1  0
 18 20  1  0
 18 21  1  0
 13 22  1  0
 17 22  2  0
  7 23  1  0
  4 24  1  0
 23 24  1  0
M  END
