piperidine-amides-19135-covalent
     RDKit          3D

 22 24  0  0  0  0  0  0  0  0999 V2000
    7.0320   -3.4330   19.4580 C   0  0  0  0  0  0  0  0  0  0  0  0
    6.3230   -4.1990   20.4580 C   0  0  0  0  0  0  0  0  0  0  0  0
    5.3920   -4.9440   20.0160 O   0  0  0  0  0  0  0  0  0  0  0  0
    6.6310   -4.2030   21.8520 N   0  0  0  0  0  0  0  0  0  0  0  0
    6.5500   -5.5430   22.5000 C   0  0  0  0  0  0  0  0  0  0  0  0
    6.0570   -5.2190   23.9720 C   0  0  0  0  0  0  0  0  0  0  0  0
    5.8400   -3.7310   24.0170 C   0  0  0  0  0  0  0  0  0  0  0  0
    4.8030   -3.1660   25.1480 C   0  0  0  0  0  0  0  0  0  0  0  0
    3.7350   -3.0140   24.5960 O   0  0  0  0  0  0  0  0  0  0  0  0
    5.2600   -2.9930   26.3410 N   0  0  0  0  0  0  0  0  0  0  0  0
    5.4270   -2.4780   27.5850 C   0  0  0  0  0  0  0  0  0  0  0  0
    5.8630   -3.0490   28.6940 C   0  0  0  0  0  0  0  0  0  0  0  0
    6.2770   -4.2360   28.1650 C   0  0  1  0  0  0  0  0  0  0  0  0
    5.4570   -5.3680   28.6270 C   0  0  0  0  0  0  0  0  0  0  0  0
    4.8450   -6.0070   27.3690 C   0  0  0  0  0  0  0  0  0  0  0  0
    4.0010   -7.1310   27.7320 C   0  0  0  0  0  0  0  0  0  0  0  0
    3.6330   -7.7470   28.9990 C   0  0  0  0  0  0  0  0  0  0  0  0
    4.4770   -6.7610   29.7370 C   0  0  0  0  0  0  0  0  0  0  0  0
    5.1610   -5.9010   29.8400 N   0  0  0  0  0  0  0  0  0  0  0  0
    6.2680   -3.9300   26.6460 C   0  0  0  0  0  0  0  0  0  0  0  0
    7.1650   -2.9980   23.7780 C   0  0  0  0  0  0  0  0  0  0  0  0
    7.5200   -3.1840   22.4460 C   0  0  0  0  0  0  0  0  0  0  0  0
  1  2  1  0
  2  3  2  0
  2  4  1  0
  4  5  1  0
  5  6  1  0
  6  7  1  0
  7  8  1  0
  8  9  2  0
  8 10  1  0
 10 11  1  0
 11 12  1  0
 12 13  1  0
 13 14  1  6
 14 15  2  0
 15 16  1  0
 16 17  2  0
 17 18  1  0
 14 19  1  0
 18 19  2  0
 10 20  1  0
 13 20  1  0
  7 21  1  0
  4 22  1  0
 21 22  1  0
M  END
