piperidine-amides-24528-covalent
     RDKit          3D

 24 26  0  0  0  0  0  0  0  0999 V2000
    7.0350   -3.3810   19.3850 C   0  0  0  0  0  0  0  0  0  0  0  0
    6.3430   -4.2540   20.3420 C   0  0  0  0  0  0  0  0  0  0  0  0
    5.3330   -4.8910   19.9830 O   0  0  0  0  0  0  0  0  0  0  0  0
    6.8360   -4.4210   21.6410 N   0  0  0  0  0  0  0  0  0  0  0  0
    6.5610   -5.6710   22.3300 C   0  0  0  0  0  0  0  0  0  0  0  0
    6.0520   -5.3590   23.7550 C   0  0  0  0  0  0  0  0  0  0  0  0
    5.8690   -3.8660   23.8460 C   0  0  0  0  0  0  0  0  0  0  0  0
    5.3310   -3.4180   25.1580 C   0  0  0  0  0  0  0  0  0  0  0  0
    4.6630   -2.3710   25.1670 O   0  0  0  0  0  0  0  0  0  0  0  0
    5.5470   -4.1300   26.3620 N   0  0  0  0  0  0  0  0  0  0  0  0
    6.8600   -4.3020   26.7100 C   0  0  0  0  0  0  0  0  0  0  0  0
    6.9850   -5.4750   27.6390 C   0  0  0  0  0  0  0  0  0  0  0  0
    6.4080   -5.4240   28.8780 C   0  0  2  0  0  0  0  0  0  0  0  0
    5.8420   -6.5960   29.3370 C   0  0  0  0  0  0  0  0  0  0  0  0
    5.1770   -6.6200   30.5730 C   0  0  0  0  0  0  0  0  0  0  0  0
    5.8820   -6.6450   31.7420 O   0  0  0  0  0  0  0  0  0  0  0  0
    3.7970   -6.6220   30.6280 O   0  0  0  0  0  0  0  0  0  0  0  0
    3.0580   -7.8320   30.5510 C   0  0  0  0  0  0  0  0  0  0  0  0
    5.3740   -4.4910   28.8810 C   0  0  0  0  0  0  0  0  0  0  0  0
    5.0190   -3.6950   27.6350 C   0  0  0  0  0  0  0  0  0  0  0  0
    5.0620   -2.2070   27.7310 C   0  0  0  0  0  0  0  0  0  0  0  0
    3.7520   -2.8450   27.5870 C   0  0  0  0  0  0  0  0  0  0  0  0
    7.1960   -3.2520   23.5680 C   0  0  0  0  0  0  0  0  0  0  0  0
    7.5300   -3.3380   22.2620 C   0  0  0  0  0  0  0  0  0  0  0  0
  1  2  1  0
  2  3  2  0
  2  4  1  0
  4  5  1  0
  5  6  1  0
  6  7  1  0
  7  8  1  0
  8  9  2  0
  8 10  1  0
 10 11  1  0
 11 12  1  0
 12 13  1  0
 13 14  1  6
 14 15  1  0
 15 16  2  0
 15 17  1  0
 17 18  1  0
 13 19  1  0
 20 10  1  0
 19 20  1  0
 20 21  1  0
 20 22  1  0
 21 22  1  0
  7 23  1  0
  4 24  1  0
 23 24  1  0
M  END
