piperidine-amides-10557-covalent
     RDKit          3D

 23 25  0  0  0  0  0  0  0  0999 V2000
    7.0870   -3.2760   19.2520 C   0  0  0  0  0  0  0  0  0  0  0  0
    6.3730   -4.0440   20.2790 C   0  0  0  0  0  0  0  0  0  0  0  0
    5.3140   -4.6200   19.9140 O   0  0  0  0  0  0  0  0  0  0  0  0
    6.8910   -4.1500   21.5710 N   0  0  0  0  0  0  0  0  0  0  0  0
    7.7230   -3.1120   22.1570 C   0  0  0  0  0  0  0  0  0  0  0  0
    7.3890   -2.9930   23.6140 C   0  0  0  0  0  0  0  0  0  0  0  0
    6.0530   -3.6160   23.9150 C   0  0  0  0  0  0  0  0  0  0  0  0
    5.6860   -3.3740   25.3190 C   0  0  0  0  0  0  0  0  0  0  0  0
    4.4940   -3.5780   25.6480 O   0  0  0  0  0  0  0  0  0  0  0  0
    6.5930   -2.9210   26.2960 N   0  0  0  0  0  0  0  0  0  0  0  0
    6.1900   -2.7560   27.6660 C   0  0  0  0  0  0  0  0  0  0  0  0
    5.7920   -1.3060   27.9540 C   0  0  0  0  0  0  0  0  0  0  0  0
    4.8150   -0.5860   27.1200 N   0  0  0  0  0  0  0  0  0  0  0  0
    4.7040    0.6280   27.6260 C   0  0  0  0  0  0  0  0  0  0  0  0
    3.9230    1.6680   27.2000 C   0  0  0  0  0  0  0  0  0  0  0  0
    3.9150    2.8890   27.8330 C   0  0  0  0  0  0  0  0  0  0  0  0
    4.7450    3.0160   28.9370 C   0  0  0  0  0  0  0  0  0  0  0  0
    5.5410    1.9750   29.3890 C   0  0  0  0  0  0  0  0  0  0  0  0
    5.4880    0.8080   28.7040 N   0  0  0  0  0  0  0  0  0  0  0  0
    6.2550   -0.3290   29.0580 C   0  0  0  0  0  0  0  0  0  0  0  0
    7.4190   -0.5950   30.3680 Cl  0  0  0  0  0  0  0  0  0  0  0  0
    6.0690   -5.0830   23.6510 C   0  0  0  0  0  0  0  0  0  0  0  0
    6.6010   -5.3990   22.2770 C   0  0  0  0  0  0  0  0  0  0  0  0
  1  2  1  0
  2  3  2  0
  2  4  1  0
  4  5  1  0
  5  6  1  0
  6  7  1  0
  7  8  1  0
  8  9  2  0
  8 10  1  0
 10 11  1  0
 11 12  1  0
 12 13  1  0
 13 14  2  0
 14 15  1  0
 15 16  2  0
 16 17  1  0
 17 18  2  0
 14 19  1  0
 18 19  1  0
 12 20  2  0
 19 20  1  0
 20 21  1  0
  7 22  1  0
  4 23  1  0
 22 23  1  0
M  END
