piperidine-amides-9272-covalent
     RDKit          3D

 19 20  0  0  0  0  0  0  0  0999 V2000
    7.1240   -3.2750   19.2090 C   0  0  0  0  0  0  0  0  0  0  0  0
    6.3710   -4.0200   20.2180 C   0  0  0  0  0  0  0  0  0  0  0  0
    5.3100   -4.5790   19.8980 O   0  0  0  0  0  0  0  0  0  0  0  0
    6.8550   -4.1550   21.5280 N   0  0  0  0  0  0  0  0  0  0  0  0
    7.7230   -3.1720   22.1330 C   0  0  0  0  0  0  0  0  0  0  0  0
    6.9750   -2.6750   23.3360 C   0  0  0  0  0  0  0  0  0  0  0  0
    6.5190   -3.8030   24.2030 C   0  0  0  0  0  0  0  0  0  0  0  0
    5.7540   -3.3260   25.3860 C   0  0  0  0  0  0  0  0  0  0  0  0
    4.5330   -3.0130   25.2590 O   0  0  0  0  0  0  0  0  0  0  0  0
    6.3230   -3.1750   26.6720 N   0  0  0  0  0  0  0  0  0  0  0  0
    6.1360   -4.2240   27.7040 C   0  0  0  0  0  0  0  0  0  0  0  0
    4.7070   -4.2460   28.0950 C   0  0  2  0  0  0  0  0  0  0  0  0
    4.3590   -3.7240   29.4300 C   0  0  0  0  0  0  0  0  0  0  0  0
    3.6300   -4.7890   30.1770 C   0  0  0  0  0  0  0  0  0  0  0  0
    3.5920   -5.9850   29.2660 C   0  0  0  0  0  0  0  0  0  0  0  0
    4.3420   -5.5600   28.0700 N   0  0  0  0  0  0  0  0  0  0  0  0
    5.2030   -6.6780   27.7260 C   0  0  0  0  0  0  0  0  0  0  0  0
    5.7150   -4.8020   23.3930 C   0  0  0  0  0  0  0  0  0  0  0  0
    6.4440   -5.2960   22.3020 C   0  0  0  0  0  0  0  0  0  0  0  0
  1  2  1  0
  2  3  2  0
  2  4  1  0
  4  5  1  0
  5  6  1  0
  6  7  1  0
  7  8  1  0
  8  9  2  0
  8 10  1  0
 10 11  1  0
 12 11  1  1
 12 13  1  0
 13 14  1  0
 14 15  1  0
 12 16  1  0
 15 16  1  0
 16 17  1  0
  7 18  1  0
  4 19  1  0
 18 19  1  0
M  END
