piperidine-amides-28130-covalent
     RDKit          3D

 25 28  0  0  0  0  0  0  0  0999 V2000
    7.0660   -3.3360   19.3400 C   0  0  0  0  0  0  0  0  0  0  0  0
    6.4000   -4.1970   20.3420 C   0  0  0  0  0  0  0  0  0  0  0  0
    5.3620   -4.7810   19.9650 O   0  0  0  0  0  0  0  0  0  0  0  0
    6.9410   -4.3870   21.6270 N   0  0  0  0  0  0  0  0  0  0  0  0
    6.5460   -5.5160   22.3920 C   0  0  0  0  0  0  0  0  0  0  0  0
    5.9430   -5.1710   23.6860 C   0  0  0  0  0  0  0  0  0  0  0  0
    6.5090   -3.9870   24.3800 C   0  0  0  0  0  0  0  0  0  0  0  0
    5.5610   -3.5130   25.4340 C   0  0  0  0  0  0  0  0  0  0  0  0
    4.6720   -2.7110   25.1030 O   0  0  0  0  0  0  0  0  0  0  0  0
    5.6520   -3.9550   26.7720 N   0  0  0  0  0  0  0  0  0  0  0  0
    6.9480   -4.4620   27.2190 C   0  0  0  0  0  0  0  0  0  0  0  0
    6.9740   -5.6640   28.0780 C   0  0  0  0  0  0  0  0  0  0  0  0
    5.9270   -5.5380   29.0210 C   0  0  0  0  0  0  0  0  0  0  0  0
    5.7140   -6.3470   30.1730 N   0  0  0  0  0  0  0  0  0  0  0  0
    4.5460   -5.8550   30.8090 C   0  0  0  0  0  0  0  0  0  0  0  0
    3.9010   -6.2620   31.9470 C   0  0  0  0  0  0  0  0  0  0  0  0
    2.7760   -5.5680   32.3100 C   0  0  0  0  0  0  0  0  0  0  0  0
    2.3080   -4.5040   31.5630 C   0  0  0  0  0  0  0  0  0  0  0  0
    0.8630   -3.6790   32.1050 Cl  0  0  0  0  0  0  0  0  0  0  0  0
    2.9420   -4.0880   30.4220 C   0  0  0  0  0  0  0  0  0  0  0  0
    4.0780   -4.7910   30.0630 C   0  0  0  0  0  0  0  0  0  0  0  0
    4.9950   -4.6170   28.9120 C   0  0  0  0  0  0  0  0  0  0  0  0
    4.8190   -3.5640   27.8500 C   0  0  0  0  0  0  0  0  0  0  0  0
    6.8610   -2.8790   23.3680 C   0  0  0  0  0  0  0  0  0  0  0  0
    7.6850   -3.3580   22.3270 C   0  0  0  0  0  0  0  0  0  0  0  0
  1  2  1  0
  2  3  2  0
  2  4  1  0
  4  5  1  0
  5  6  1  0
  6  7  1  0
  7  8  1  0
  8  9  2  0
  8 10  1  0
 10 11  1  0
 11 12  1  0
 12 13  1  0
 13 14  1  0
 14 15  1  0
 15 16  2  0
 16 17  1  0
 17 18  2  0
 18 19  1  0
 18 20  1  0
 15 21  1  0
 20 21  2  0
 13 22  2  0
 21 22  1  0
 10 23  1  0
 22 23  1  0
  7 24  1  0
  4 25  1  0
 24 25  1  0
M  END
