piperidine-amides-26054-covalent
     RDKit          3D

 25 27  0  0  0  0  0  0  0  0999 V2000
    7.1030   -3.3650   19.3560 C   0  0  0  0  0  0  0  0  0  0  0  0
    6.3730   -4.1780   20.3250 C   0  0  0  0  0  0  0  0  0  0  0  0
    5.3360   -4.7550   19.9600 O   0  0  0  0  0  0  0  0  0  0  0  0
    6.8550   -4.3690   21.6310 N   0  0  0  0  0  0  0  0  0  0  0  0
    6.6420   -5.6190   22.3320 C   0  0  0  0  0  0  0  0  0  0  0  0
    6.3150   -5.2750   23.7690 C   0  0  0  0  0  0  0  0  0  0  0  0
    6.1830   -3.7980   23.9920 C   0  0  0  0  0  0  0  0  0  0  0  0
    5.5860   -3.4130   25.2940 C   0  0  0  0  0  0  0  0  0  0  0  0
    4.5000   -2.7650   25.2980 O   0  0  0  0  0  0  0  0  0  0  0  0
    6.0990   -3.7090   26.5740 N   0  0  0  0  0  0  0  0  0  0  0  0
    6.4780   -2.5480   27.3820 C   0  0  0  0  0  0  0  0  0  0  0  0
    6.8710   -3.0360   28.7120 C   0  0  0  0  0  0  0  0  0  0  0  0
    6.9080   -4.2610   28.8930 O   0  0  0  0  0  0  0  0  0  0  0  0
    5.7500   -4.8710   28.6680 C   0  0  1  0  0  0  0  0  0  0  0  0
    4.5210   -4.5990   29.4930 C   0  0  0  0  0  0  0  0  0  0  0  0
    4.4830   -5.5200   30.4900 O   0  0  0  0  0  0  0  0  0  0  0  0
    3.6480   -5.3530   31.6290 C   0  0  0  0  0  0  0  0  0  0  0  0
    2.8650   -4.0670   31.7890 C   0  0  0  0  0  0  0  0  0  0  0  0
    2.0400   -3.8410   32.8650 C   0  0  0  0  0  0  0  0  0  0  0  0
    1.8140   -4.7030   33.9070 C   0  0  0  0  0  0  0  0  0  0  0  0
    2.5040   -6.0140   33.9140 C   0  0  0  0  0  0  0  0  0  0  0  0
    3.4470   -6.3730   32.7630 C   0  0  0  0  0  0  0  0  0  0  0  0
    5.4090   -4.8160   27.2240 C   0  0  0  0  0  0  0  0  0  0  0  0
    7.4720   -3.1370   23.6460 C   0  0  0  0  0  0  0  0  0  0  0  0
    7.6380   -3.2950   22.1880 C   0  0  0  0  0  0  0  0  0  0  0  0
  1  2  1  0
  2  3  2  0
  2  4  1  0
  4  5  1  0
  5  6  1  0
  6  7  1  0
  7  8  1  0
  8  9  2  0
  8 10  1  0
 10 11  1  0
 11 12  1  0
 12 13  1  0
 13 14  1  0
 14 15  1  1
 15 16  1  0
 16 17  1  0
 17 18  2  0
 18 19  1  0
 19 20  2  0
 20 21  1  0
 17 22  1  0
 21 22  2  0
 10 23  1  0
 14 23  1  0
  7 24  1  0
  4 25  1  0
 24 25  1  0
M  END
