piperidine-amides-1734-covalent
     RDKit          3D

 20 20  0  0  0  0  0  0  0  0999 V2000
    7.0820   -3.2760   19.2650 C   0  0  0  0  0  0  0  0  0  0  0  0
    6.3370   -4.0720   20.2820 C   0  0  0  0  0  0  0  0  0  0  0  0
    5.3140   -4.6840   19.9300 O   0  0  0  0  0  0  0  0  0  0  0  0
    6.8340   -4.1470   21.6040 N   0  0  0  0  0  0  0  0  0  0  0  0
    7.7260   -3.1400   22.1400 C   0  0  0  0  0  0  0  0  0  0  0  0
    7.4660   -3.0680   23.6390 C   0  0  0  0  0  0  0  0  0  0  0  0
    6.1170   -3.6600   23.8170 C   0  0  0  0  0  0  0  0  0  0  0  0
    5.5090   -3.4120   25.1450 C   0  0  0  0  0  0  0  0  0  0  0  0
    4.3150   -3.1020   25.1470 O   0  0  0  0  0  0  0  0  0  0  0  0
    6.2740   -3.5210   26.3070 N   0  0  0  0  0  0  0  0  0  0  0  0
    6.0620   -4.3510   27.4420 C   0  0  1  0  0  0  0  0  0  0  0  0
    6.4520   -3.9790   28.6810 C   0  0  0  0  0  0  0  0  0  0  0  0
    6.7000   -2.6240   28.9510 C   0  0  0  0  0  0  0  0  0  0  0  0
    6.4250   -1.6320   28.0420 C   0  0  0  0  0  0  0  0  0  0  0  0
    4.6480   -4.7080   27.4490 C   0  0  0  0  0  0  0  0  0  0  0  0
    3.7270   -3.8190   27.0820 O   0  0  0  0  0  0  0  0  0  0  0  0
    4.2880   -5.9790   27.8560 O   0  0  0  0  0  0  0  0  0  0  0  0
    5.2870   -6.9370   28.1610 C   0  0  0  0  0  0  0  0  0  0  0  0
    6.0220   -5.1300   23.5350 C   0  0  0  0  0  0  0  0  0  0  0  0
    6.6600   -5.3780   22.3290 C   0  0  0  0  0  0  0  0  0  0  0  0
  1  2  1  0
  2  3  2  0
  2  4  1  0
  4  5  1  0
  5  6  1  0
  6  7  1  0
  7  8  1  0
  8  9  2  0
  8 10  1  0
 10 11  1  0
 11 12  1  1
 12 13  1  0
 13 14  3  0
 11 15  1  0
 15 16  2  0
 15 17  1  0
 17 18  1  0
  7 19  1  0
  4 20  1  0
 19 20  1  0
M  END
