piperidine-amides-10812-covalent
     RDKit          3D

 22 24  0  0  0  0  0  0  0  0999 V2000
    7.0860   -3.3450   19.2980 C   0  0  0  0  0  0  0  0  0  0  0  0
    6.4010   -4.1570   20.3010 C   0  0  0  0  0  0  0  0  0  0  0  0
    5.3820   -4.7900   19.9750 O   0  0  0  0  0  0  0  0  0  0  0  0
    6.9210   -4.2720   21.6030 N   0  0  0  0  0  0  0  0  0  0  0  0
    7.8020   -3.2820   22.1740 C   0  0  0  0  0  0  0  0  0  0  0  0
    7.0790   -2.7830   23.3830 C   0  0  0  0  0  0  0  0  0  0  0  0
    6.4860   -3.9160   24.1690 C   0  0  0  0  0  0  0  0  0  0  0  0
    5.7420   -3.4830   25.3880 C   0  0  0  0  0  0  0  0  0  0  0  0
    4.4790   -3.5000   25.3870 O   0  0  0  0  0  0  0  0  0  0  0  0
    6.3770   -3.0980   26.5930 N   0  0  0  0  0  0  0  0  0  0  0  0
    6.3620   -1.7390   27.2410 C   0  0  0  0  0  0  0  0  0  0  0  0
    7.1060   -1.6980   28.5110 C   0  0  0  0  0  0  0  0  0  0  0  0
    7.2050   -0.4730   29.2970 C   0  0  0  0  0  0  0  0  0  0  0  0
    6.5440    0.7850   28.8200 C   0  0  0  0  0  0  0  0  0  0  0  0
    5.7630    0.8230   27.5270 C   0  0  0  0  0  0  0  0  0  0  0  0
    5.6990   -0.4640   26.7790 C   0  0  0  0  0  0  0  0  0  0  0  0
    4.9840   -0.4600   25.6160 C   0  0  0  0  0  0  0  0  0  0  0  0
    5.1380   -1.3690   24.5800 C   0  0  0  0  0  0  0  0  0  0  0  0
    3.8110   -1.4320   25.4180 C   0  0  0  0  0  0  0  0  0  0  0  0
    3.5020    0.0220   25.7430 C   0  0  0  0  0  0  0  0  0  0  0  0
    5.6270   -4.7790   23.2310 C   0  0  0  0  0  0  0  0  0  0  0  0
    6.3690   -5.3230   22.4500 C   0  0  0  0  0  0  0  0  0  0  0  0
  1  2  1  0
  2  3  2  0
  2  4  1  0
  4  5  1  0
  5  6  1  0
  6  7  1  0
  7  8  1  0
  8  9  2  0
  8 10  1  0
 10 11  1  0
 11 12  2  0
 12 13  1  0
 13 14  2  0
 14 15  1  0
 11 16  1  0
 15 16  2  0
 16 17  1  0
 17 18  1  0
 17 19  1  0
 17 20  1  0
 19 20  1  0
  7 21  1  0
  4 22  1  0
 21 22  1  0
M  END
