piperidine-amides-31814-covalent
     RDKit          3D

 27 29  0  0  0  0  0  0  0  0999 V2000
    7.0860   -3.3390   19.4260 C   0  0  0  0  0  0  0  0  0  0  0  0
    6.3810   -4.1680   20.3820 C   0  0  0  0  0  0  0  0  0  0  0  0
    5.3990   -4.8670   19.9800 O   0  0  0  0  0  0  0  0  0  0  0  0
    6.7670   -4.2390   21.7350 N   0  0  0  0  0  0  0  0  0  0  0  0
    7.7360   -3.2040   22.1870 C   0  0  0  0  0  0  0  0  0  0  0  0
    7.3880   -3.0690   23.7130 C   0  0  0  0  0  0  0  0  0  0  0  0
    6.0090   -3.5920   23.8540 C   0  0  0  0  0  0  0  0  0  0  0  0
    5.2260   -2.9140   25.0730 C   0  0  0  0  0  0  0  0  0  0  0  0
    4.1360   -2.5310   24.6820 O   0  0  0  0  0  0  0  0  0  0  0  0
    5.9020   -2.9400   26.1570 N   0  0  0  0  0  0  0  0  0  0  0  0
    6.5040   -3.4060   27.2600 C   0  0  0  0  0  0  0  0  0  0  0  0
    6.1160   -4.1950   28.3090 C   0  0  2  0  0  0  0  0  0  0  0  0
    7.1500   -5.0300   28.7620 C   0  0  0  0  0  0  0  0  0  0  0  0
    7.5020   -6.0440   27.7920 C   0  0  0  0  0  0  0  0  0  0  0  0
    6.2620   -6.4350   27.3240 O   0  0  0  0  0  0  0  0  0  0  0  0
    5.4030   -5.4980   27.8750 C   0  0  0  0  0  0  0  0  0  0  0  0
    6.1380   -1.6770   26.9640 C   0  0  0  0  0  0  0  0  0  0  0  0
    6.8130   -2.0030   28.2380 C   0  0  0  0  0  0  0  0  0  0  0  0
    6.9280   -0.5910   28.9030 C   0  0  0  0  0  0  0  0  0  0  0  0
    7.6720   -0.4930   30.4790 Cl  0  0  0  0  0  0  0  0  0  0  0  0
    6.4280    0.6970   28.2620 C   0  0  0  0  0  0  0  0  0  0  0  0
    5.8600    0.7030   27.0910 C   0  0  0  0  0  0  0  0  0  0  0  0
    5.6950   -0.4470   26.4150 C   0  0  0  0  0  0  0  0  0  0  0  0
    5.0910   -0.3930   25.1990 C   0  0  0  0  0  0  0  0  0  0  0  0
    4.1320    0.6520   24.9460 N   0  0  0  0  0  0  0  0  0  0  0  0
    5.8690   -5.0660   23.6770 C   0  0  0  0  0  0  0  0  0  0  0  0
    6.5630   -5.4340   22.5170 C   0  0  0  0  0  0  0  0  0  0  0  0
  1  2  1  0
  2  3  2  0
  2  4  1  0
  4  5  1  0
  5  6  1  0
  6  7  1  0
  7  8  1  0
  8  9  2  0
  8 10  1  0
 10 11  1  0
 12 11  1  6
 12 13  1  0
 13 14  1  0
 14 15  1  0
 12 16  1  0
 15 16  1  0
 10 17  1  0
 17 18  2  0
 18 19  1  0
 19 20  1  0
 19 21  2  0
 21 22  1  0
 17 23  1  0
 22 23  2  0
 23 24  1  0
 24 25  3  0
  7 26  1  0
  4 27  1  0
 26 27  1  0
M  END
