piperidine-amides-19397-covalent
     RDKit          3D

 22 24  0  0  0  0  0  0  0  0999 V2000
    7.1160   -3.3140   19.1790 C   0  0  0  0  0  0  0  0  0  0  0  0
    6.3000   -3.9300   20.1970 C   0  0  0  0  0  0  0  0  0  0  0  0
    5.2150   -4.4750   19.8480 O   0  0  0  0  0  0  0  0  0  0  0  0
    6.6800   -4.0010   21.5430 N   0  0  0  0  0  0  0  0  0  0  0  0
    6.6460   -5.3480   22.1460 C   0  0  0  0  0  0  0  0  0  0  0  0
    5.8090   -5.0470   23.4420 C   0  0  0  0  0  0  0  0  0  0  0  0
    6.3110   -3.7300   24.0010 C   0  0  0  0  0  0  0  0  0  0  0  0
    6.3390   -3.7390   25.5770 C   0  0  0  0  0  0  0  0  0  0  0  0
    5.4000   -3.1010   26.0500 O   0  0  0  0  0  0  0  0  0  0  0  0
    7.3710   -4.4420   25.8850 N   0  0  0  0  0  0  0  0  0  0  0  0
    8.4870   -5.1000   25.9200 C   0  0  0  0  0  0  0  0  0  0  0  0
    8.4540   -5.6340   27.0910 C   0  0  0  0  0  0  0  0  0  0  0  0
    7.1740   -4.9460   27.3130 C   0  0  2  0  0  0  0  0  0  0  0  0
    5.9780   -5.7080   27.7250 C   0  0  0  0  0  0  0  0  0  0  0  0
    5.9800   -5.9210   29.1850 C   0  0  0  0  0  0  0  0  0  0  0  0
    4.7630   -6.6550   29.4520 C   0  0  0  0  0  0  0  0  0  0  0  0
    3.6120   -7.2000   28.6880 C   0  0  0  0  0  0  0  0  0  0  0  0
    2.5160   -7.8830   29.1350 F   0  0  0  0  0  0  0  0  0  0  0  0
    3.9290   -6.8090   27.2000 C   0  0  0  0  0  0  0  0  0  0  0  0
    5.1320   -6.0400   26.6580 C   0  0  0  0  0  0  0  0  0  0  0  0
    7.6770   -3.3040   23.4460 C   0  0  0  0  0  0  0  0  0  0  0  0
    7.5950   -3.0390   22.1170 C   0  0  0  0  0  0  0  0  0  0  0  0
  1  2  1  0
  2  3  2  0
  2  4  1  0
  4  5  1  0
  5  6  1  0
  6  7  1  0
  7  8  1  0
  8  9  2  0
  8 10  1  0
 10 11  1  0
 11 12  1  0
 10 13  1  0
 12 13  1  0
 13 14  1  6
 14 15  2  0
 15 16  1  0
 16 17  2  0
 17 18  1  0
 17 19  1  0
 14 20  1  0
 19 20  2  0
  7 21  1  0
  4 22  1  0
 21 22  1  0
M  END
