piperidine-amides-2735-covalent
     RDKit          3D

 25 26  0  0  0  0  0  0  0  0999 V2000
    7.1610   -3.2780   19.2260 C   0  0  0  0  0  0  0  0  0  0  0  0
    6.4210   -4.0570   20.2070 C   0  0  0  0  0  0  0  0  0  0  0  0
    5.3440   -4.5730   19.9030 O   0  0  0  0  0  0  0  0  0  0  0  0
    6.9830   -4.2810   21.5100 N   0  0  0  0  0  0  0  0  0  0  0  0
    6.4360   -5.3250   22.3110 C   0  0  0  0  0  0  0  0  0  0  0  0
    5.4060   -4.7220   23.2280 C   0  0  0  0  0  0  0  0  0  0  0  0
    6.0060   -3.5230   23.9710 C   0  0  0  0  0  0  0  0  0  0  0  0
    4.9210   -2.8630   24.7720 C   0  0  0  0  0  0  0  0  0  0  0  0
    3.8200   -2.5900   24.2860 O   0  0  0  0  0  0  0  0  0  0  0  0
    5.1210   -2.5640   26.1330 N   0  0  0  0  0  0  0  0  0  0  0  0
    5.6920   -3.6270   26.8600 C   0  0  2  0  0  0  0  0  0  0  0  0
    6.4770   -4.2500   25.7870 C   0  0  0  0  0  0  0  0  0  0  0  0
    7.5010   -4.7910   26.3260 C   0  0  0  0  0  0  0  0  0  0  0  0
    7.6910   -4.3040   27.6200 C   0  0  0  0  0  0  0  0  0  0  0  0
    8.6890   -4.7620   28.3190 C   0  0  0  0  0  0  0  0  0  0  0  0
    9.4830   -5.7050   27.7150 C   0  0  0  0  0  0  0  0  0  0  0  0
    9.3340   -6.1760   26.5030 C   0  0  0  0  0  0  0  0  0  0  0  0
    8.3260   -5.7240   25.7600 C   0  0  0  0  0  0  0  0  0  0  0  0
    5.0250   -4.5130   27.6540 C   0  0  0  0  0  0  0  0  0  0  0  0
    3.7980   -5.0210   27.3290 O   0  0  0  0  0  0  0  0  0  0  0  0
    5.5920   -4.9220   28.8480 O   0  0  0  0  0  0  0  0  0  0  0  0
    5.1350   -5.9980   29.6080 C   0  0  0  0  0  0  0  0  0  0  0  0
    6.0120   -7.0670   29.5680 C   0  0  0  0  0  0  0  0  0  0  0  0
    6.6060   -2.5020   23.0400 C   0  0  0  0  0  0  0  0  0  0  0  0
    7.5920   -3.1710   22.1450 C   0  0  0  0  0  0  0  0  0  0  0  0
  1  2  1  0
  2  3  2  0
  2  4  1  0
  4  5  1  0
  5  6  1  0
  6  7  1  0
  7  8  1  0
  8  9  2  0
  8 10  1  0
 10 11  1  0
 11 12  1  6
 12 13  1  0
 13 14  2  0
 14 15  1  0
 15 16  2  0
 16 17  1  0
 13 18  1  0
 17 18  2  0
 11 19  1  0
 19 20  2  0
 19 21  1  0
 21 22  1  0
 22 23  1  0
  7 24  1  0
  4 25  1  0
 24 25  1  0
M  END
