piperidine-amides-33848-covalent
     RDKit          3D

 29 31  0  0  0  0  0  0  0  0999 V2000
    7.0920   -3.3640   19.3440 C   0  0  0  0  0  0  0  0  0  0  0  0
    6.4450   -4.2240   20.3500 C   0  0  0  0  0  0  0  0  0  0  0  0
    5.4080   -4.8360   19.9880 O   0  0  0  0  0  0  0  0  0  0  0  0
    7.0140   -4.3860   21.6440 N   0  0  0  0  0  0  0  0  0  0  0  0
    6.6350   -5.5240   22.4280 C   0  0  0  0  0  0  0  0  0  0  0  0
    6.1430   -5.1630   23.7530 C   0  0  0  0  0  0  0  0  0  0  0  0
    6.1990   -3.7090   23.9560 C   0  0  0  0  0  0  0  0  0  0  0  0
    5.5400   -3.1990   25.1970 C   0  0  0  0  0  0  0  0  0  0  0  0
    4.8640   -2.1650   25.1020 O   0  0  0  0  0  0  0  0  0  0  0  0
    5.5890   -3.7970   26.4570 N   0  0  0  0  0  0  0  0  0  0  0  0
    4.4280   -4.1000   27.1770 C   0  0  0  0  0  0  0  0  0  0  0  0
    4.5010   -4.8670   28.3980 C   0  0  0  0  0  0  0  0  0  0  0  0
    5.6420   -4.3320   29.2450 C   0  0  0  0  0  0  0  0  0  0  0  0
    5.9840   -5.3400   30.1110 F   0  0  0  0  0  0  0  0  0  0  0  0
    5.3700   -3.0590   29.7430 C   0  0  0  0  0  0  0  0  0  0  0  0
    4.0190   -2.9970   30.4630 C   0  0  0  0  0  0  0  0  0  0  0  0
    3.7680   -1.5760   30.9920 C   0  0  0  0  0  0  0  0  0  0  0  0
    4.9210   -0.5650   30.6720 C   0  0  0  0  0  0  0  0  0  0  0  0
    6.2390   -0.6880   29.9500 C   0  0  0  0  0  0  0  0  0  0  0  0
    7.1250    0.4170   29.7930 O   0  0  0  0  0  0  0  0  0  0  0  0
    6.7310    1.6640   30.3580 C   0  0  0  0  0  0  0  0  0  0  0  0
    6.6010    1.4740   31.7060 F   0  0  0  0  0  0  0  0  0  0  0  0
    5.5360    2.1110   29.8900 F   0  0  0  0  0  0  0  0  0  0  0  0
    7.6500    2.6250   30.0630 F   0  0  0  0  0  0  0  0  0  0  0  0
    6.4740   -2.0510   29.4490 C   0  0  0  0  0  0  0  0  0  0  0  0
    6.6870   -4.3510   28.4180 C   0  0  0  0  0  0  0  0  0  0  0  0
    6.4110   -3.3210   27.5050 C   0  0  0  0  0  0  0  0  0  0  0  0
    7.5280   -3.1300   23.6660 C   0  0  0  0  0  0  0  0  0  0  0  0
    7.8020   -3.2940   22.1950 C   0  0  0  0  0  0  0  0  0  0  0  0
  1  2  1  0
  2  3  2  0
  2  4  1  0
  4  5  1  0
  5  6  1  0
  6  7  1  0
  7  8  1  0
  8  9  2  0
  8 10  1  0
 10 11  1  0
 11 12  1  0
 12 13  1  0
 13 14  1  0
 13 15  1  0
 15 16  2  0
 16 17  1  0
 17 18  2  0
 18 19  1  0
 19 20  1  0
 20 21  1  0
 21 22  1  0
 21 23  1  0
 21 24  1  0
 15 25  1  0
 19 25  2  0
 13 26  1  0
 10 27  1  0
 26 27  1  0
  7 28  1  0
  4 29  1  0
 28 29  1  0
M  END
