piperidine-amides-23923-covalent
     RDKit          3D

 23 25  0  0  0  0  0  0  0  0999 V2000
    7.0760   -3.3270   19.3250 C   0  0  0  0  0  0  0  0  0  0  0  0
    6.4090   -4.1560   20.3460 C   0  0  0  0  0  0  0  0  0  0  0  0
    5.3850   -4.7820   19.9710 O   0  0  0  0  0  0  0  0  0  0  0  0
    6.9200   -4.2940   21.6700 N   0  0  0  0  0  0  0  0  0  0  0  0
    7.7370   -3.2520   22.2110 C   0  0  0  0  0  0  0  0  0  0  0  0
    7.3880   -2.9530   23.5770 C   0  0  0  0  0  0  0  0  0  0  0  0
    6.1390   -3.6350   23.9190 C   0  0  0  0  0  0  0  0  0  0  0  0
    5.4970   -3.1150   25.1730 C   0  0  0  0  0  0  0  0  0  0  0  0
    4.3610   -2.6190   25.0660 O   0  0  0  0  0  0  0  0  0  0  0  0
    6.0620   -3.1480   26.4640 N   0  0  0  0  0  0  0  0  0  0  0  0
    6.2870   -1.9510   27.2230 C   0  0  0  0  0  0  0  0  0  0  0  0
    6.9800   -1.8380   28.4640 C   0  0  0  0  0  0  0  0  0  0  0  0
    7.1510   -0.5040   29.2120 C   0  0  0  0  0  0  0  0  0  0  0  0
    6.5980    0.6710   28.6440 C   0  0  0  0  0  0  0  0  0  0  0  0
    5.8340    0.6260   27.2850 C   0  0  0  0  0  0  0  0  0  0  0  0
    5.7340   -0.7200   26.6600 C   0  0  0  0  0  0  0  0  0  0  0  0
    5.6300   -4.3100   27.2200 C   0  0  1  0  0  0  0  0  0  0  0  0
    5.5920   -3.9230   28.7010 C   0  0  0  0  0  0  0  0  0  0  0  0
    4.1650   -3.5550   29.0120 C   0  0  0  0  0  0  0  0  0  0  0  0
    3.1060   -4.0840   27.7810 S   0  0  0  0  0  0  0  0  0  0  0  0
    4.3160   -4.8860   26.7760 C   0  0  0  0  0  0  0  0  0  0  0  0
    6.2990   -5.1230   23.8220 C   0  0  0  0  0  0  0  0  0  0  0  0
    6.6110   -5.4650   22.4860 C   0  0  0  0  0  0  0  0  0  0  0  0
  1  2  1  0
  2  3  2  0
  2  4  1  0
  4  5  1  0
  5  6  1  0
  6  7  1  0
  7  8  1  0
  8  9  2  0
  8 10  1  0
 10 11  1  0
 11 12  2  0
 12 13  1  0
 13 14  2  0
 14 15  1  0
 11 16  1  0
 15 16  2  0
 17 10  1  6
 17 18  1  0
 18 19  1  0
 19 20  1  0
 17 21  1  0
 20 21  1  0
  7 22  1  0
  4 23  1  0
 22 23  1  0
M  END
