piperidine-amides-19576-covalent
     RDKit          3D

 22 24  0  0  0  0  0  0  0  0999 V2000
    7.1350   -3.3690   19.4800 C   0  0  0  0  0  0  0  0  0  0  0  0
    6.4570   -4.2320   20.4180 C   0  0  0  0  0  0  0  0  0  0  0  0
    5.4490   -4.8980   20.0030 O   0  0  0  0  0  0  0  0  0  0  0  0
    6.9100   -4.3800   21.7520 N   0  0  0  0  0  0  0  0  0  0  0  0
    6.4590   -5.5620   22.5020 C   0  0  0  0  0  0  0  0  0  0  0  0
    5.4880   -4.8410   23.5170 C   0  0  0  0  0  0  0  0  0  0  0  0
    6.3120   -3.8230   24.2900 C   0  0  0  0  0  0  0  0  0  0  0  0
    5.4110   -3.2690   25.4950 C   0  0  0  0  0  0  0  0  0  0  0  0
    4.5390   -2.5680   25.0090 O   0  0  0  0  0  0  0  0  0  0  0  0
    5.7650   -3.6610   26.6730 N   0  0  0  0  0  0  0  0  0  0  0  0
    6.3870   -4.0690   27.7800 C   0  0  0  0  0  0  0  0  0  0  0  0
    6.6140   -5.2730   28.3610 C   0  0  0  0  0  0  0  0  0  0  0  0
    5.3060   -5.4690   28.9170 N   0  0  0  0  0  0  0  0  0  0  0  0
    5.1130   -6.1520   30.0580 C   0  0  0  0  0  0  0  0  0  0  0  0
    5.8280   -7.3620   30.3690 C   0  0  0  0  0  0  0  0  0  0  0  0
    5.3440   -7.7090   31.5900 N   0  0  0  0  0  0  0  0  0  0  0  0
    4.3900   -6.8500   32.0920 N   0  0  0  0  0  0  0  0  0  0  0  0
    4.1810   -5.7760   31.1100 C   0  0  0  0  0  0  0  0  0  0  0  0
    4.8790   -4.1080   28.9100 C   0  0  0  0  0  0  0  0  0  0  0  0
    4.6250   -3.6480   27.5750 C   0  0  0  0  0  0  0  0  0  0  0  0
    7.0590   -2.8320   23.5480 C   0  0  0  0  0  0  0  0  0  0  0  0
    7.8400   -3.5570   22.4130 C   0  0  0  0  0  0  0  0  0  0  0  0
  1  2  1  0
  2  3  2  0
  2  4  1  0
  4  5  1  0
  5  6  1  0
  6  7  1  0
  7  8  1  0
  8  9  2  0
  8 10  1  0
 10 11  1  0
 11 12  1  0
 12 13  1  0
 13 14  1  0
 14 15  1  0
 15 16  2  0
 16 17  1  0
 14 18  2  0
 17 18  1  0
 13 19  1  0
 10 20  1  0
 19 20  1  0
  7 21  1  0
  4 22  1  0
 21 22  1  0
M  END
