piperidine-amides-1185-covalent
     RDKit          3D

 23 24  0  0  0  0  0  0  0  0999 V2000
    7.0780   -3.2700   19.2380 C   0  0  0  0  0  0  0  0  0  0  0  0
    6.3220   -4.0590   20.2560 C   0  0  0  0  0  0  0  0  0  0  0  0
    5.2760   -4.6240   19.9080 O   0  0  0  0  0  0  0  0  0  0  0  0
    6.8240   -4.1930   21.5730 N   0  0  0  0  0  0  0  0  0  0  0  0
    6.6200   -5.4270   22.3030 C   0  0  0  0  0  0  0  0  0  0  0  0
    6.2940   -5.1190   23.7800 C   0  0  0  0  0  0  0  0  0  0  0  0
    6.1890   -3.6440   23.9830 C   0  0  0  0  0  0  0  0  0  0  0  0
    5.5830   -3.2890   25.2920 C   0  0  0  0  0  0  0  0  0  0  0  0
    4.4160   -2.8900   25.2520 O   0  0  0  0  0  0  0  0  0  0  0  0
    6.3040   -3.4110   26.4850 N   0  0  0  0  0  0  0  0  0  0  0  0
    5.7640   -3.7200   27.7630 C   0  0  2  0  0  0  0  0  0  0  0  0
    5.7390   -2.7590   28.7430 C   0  0  0  0  0  0  0  0  0  0  0  0
    7.0170   -2.0890   28.8860 N   0  0  0  0  0  0  0  0  0  0  0  0
    7.3170   -1.0720   29.7820 C   0  0  0  0  0  0  0  0  0  0  0  0
    6.3260   -0.6350   30.6260 C   0  0  0  0  0  0  0  0  0  0  0  0
    4.9920   -1.2740   30.5370 C   0  0  0  0  0  0  0  0  0  0  0  0
    4.6710   -2.3950   29.5510 C   0  0  0  0  0  0  0  0  0  0  0  0
    3.2660   -2.9920   29.5380 C   0  0  0  0  0  0  0  0  0  0  0  0
    6.0750   -4.9710   28.3010 C   0  0  0  0  0  0  0  0  0  0  0  0
    5.4420   -5.3680   29.5740 C   0  0  0  0  0  0  0  0  0  0  0  0
    5.9660   -5.9560   27.3190 C   0  0  0  0  0  0  0  0  0  0  0  0
    7.5030   -3.0890   23.6750 C   0  0  0  0  0  0  0  0  0  0  0  0
    7.6480   -3.1570   22.1490 C   0  0  0  0  0  0  0  0  0  0  0  0
  1  2  1  0
  2  3  2  0
  2  4  1  0
  4  5  1  0
  5  6  1  0
  6  7  1  0
  7  8  1  0
  8  9  2  0
  8 10  1  0
 11 10  1  6
 11 12  1  0
 12 13  2  0
 13 14  1  0
 14 15  2  0
 15 16  1  0
 12 17  1  0
 16 17  2  0
 17 18  1  0
 11 19  1  0
 19 20  1  0
 19 21  1  0
  7 22  1  0
  4 23  1  0
 22 23  1  0
M  END
