piperidine-amides-33331-covalent
     RDKit          3D

 29 31  0  0  0  0  0  0  0  0999 V2000
    7.1060   -3.3780   19.3820 C   0  0  0  0  0  0  0  0  0  0  0  0
    6.4070   -4.2110   20.3680 C   0  0  0  0  0  0  0  0  0  0  0  0
    5.3620   -4.7870   19.9730 O   0  0  0  0  0  0  0  0  0  0  0  0
    6.9300   -4.4030   21.6760 N   0  0  0  0  0  0  0  0  0  0  0  0
    6.4060   -5.4500   22.4670 C   0  0  0  0  0  0  0  0  0  0  0  0
    5.7430   -5.0100   23.7020 C   0  0  0  0  0  0  0  0  0  0  0  0
    6.2110   -3.7370   24.3260 C   0  0  0  0  0  0  0  0  0  0  0  0
    5.1640   -3.1830   25.2800 C   0  0  0  0  0  0  0  0  0  0  0  0
    4.0590   -2.8490   24.8360 O   0  0  0  0  0  0  0  0  0  0  0  0
    5.4190   -3.0560   26.6650 N   0  0  0  0  0  0  0  0  0  0  0  0
    6.4980   -3.6410   27.1840 C   0  0  0  0  0  0  0  0  0  0  0  0
    6.3200   -5.0670   27.4400 C   0  0  0  0  0  0  0  0  0  0  0  0
    5.1600   -5.4760   27.8960 N   0  0  0  0  0  0  0  0  0  0  0  0
    5.0940   -6.4490   28.9280 C   0  0  0  0  0  0  0  0  0  0  0  0
    4.7870   -7.7450   28.5980 O   0  0  0  0  0  0  0  0  0  0  0  0
    5.3230   -6.0120   30.2150 C   0  0  2  0  0  0  0  0  0  0  0  0
    4.3540   -6.5290   30.9840 N   0  0  0  0  0  0  0  0  0  0  0  0
    4.6310   -7.0230   32.3340 C   0  0  0  0  0  0  0  0  0  0  0  0
    5.9600   -6.8980   32.6800 O   0  0  0  0  0  0  0  0  0  0  0  0
    3.6960   -7.5610   33.1940 O   0  0  0  0  0  0  0  0  0  0  0  0
    3.8320   -8.8400   33.7750 C   0  0  0  0  0  0  0  0  0  0  0  0
    3.5070   -8.8730   35.2790 C   0  0  0  0  0  0  0  0  0  0  0  0
    2.6490   -9.5870   34.0480 C   0  0  0  0  0  0  0  0  0  0  0  0
    5.2040   -9.3600   34.0780 C   0  0  0  0  0  0  0  0  0  0  0  0
    5.1670   -4.5450   29.6900 C   0  0  0  0  0  0  0  0  0  0  0  0
    4.5140   -4.4610   28.3750 C   0  0  1  0  0  0  0  0  0  0  0  0
    4.4780   -3.1860   27.7560 C   0  0  0  0  0  0  0  0  0  0  0  0
    6.7530   -2.7120   23.3810 C   0  0  0  0  0  0  0  0  0  0  0  0
    7.6340   -3.3290   22.3230 C   0  0  0  0  0  0  0  0  0  0  0  0
  1  2  1  0
  2  3  2  0
  2  4  1  0
  4  5  1  0
  5  6  1  0
  6  7  1  0
  7  8  1  0
  8  9  2  0
  8 10  1  0
 10 11  1  0
 11 12  1  0
 12 13  1  0
 13 14  1  0
 14 15  2  0
 14 16  1  0
 16 17  1  1
 17 18  1  0
 18 19  2  0
 18 20  1  0
 21 20  1  0
 21 22  1  0
 21 23  1  0
 21 24  1  0
 16 25  1  0
 13 26  1  0
 26 25  1  1
 10 27  1  0
 26 27  1  0
  7 28  1  0
  4 29  1  0
 28 29  1  0
M  END
