piperidine-amides-13177-covalent
     RDKit          3D

 19 20  0  0  0  0  0  0  0  0999 V2000
    7.1040   -3.3170   19.2390 C   0  0  0  0  0  0  0  0  0  0  0  0
    6.3610   -4.0650   20.2760 C   0  0  0  0  0  0  0  0  0  0  0  0
    5.2880   -4.5820   19.9050 O   0  0  0  0  0  0  0  0  0  0  0  0
    6.8710   -4.2260   21.5780 N   0  0  0  0  0  0  0  0  0  0  0  0
    7.6580   -3.1890   22.1760 C   0  0  0  0  0  0  0  0  0  0  0  0
    7.2330   -2.8570   23.5330 C   0  0  0  0  0  0  0  0  0  0  0  0
    6.0020   -3.5730   23.9140 C   0  0  0  0  0  0  0  0  0  0  0  0
    5.5860   -3.2870   25.3110 C   0  0  0  0  0  0  0  0  0  0  0  0
    4.3960   -3.4980   25.6070 O   0  0  0  0  0  0  0  0  0  0  0  0
    6.4790   -2.7900   26.2780 N   0  0  0  0  0  0  0  0  0  0  0  0
    6.3470   -1.4380   26.8720 C   0  0  1  0  0  0  0  0  0  0  0  0
    4.9910   -0.9800   27.0540 C   0  0  0  0  0  0  0  0  0  0  0  0
    5.3330   -0.7770   28.4210 C   0  0  1  0  0  0  0  0  0  0  0  0
    4.7190   -1.5240   29.4030 C   0  0  0  0  0  0  0  0  0  0  0  0
    4.6170   -0.9910   30.5290 O   0  0  0  0  0  0  0  0  0  0  0  0
    5.7340   -0.4680   30.9460 C   0  0  0  0  0  0  0  0  0  0  0  0
    6.7650   -1.3060   28.2890 C   0  0  0  0  0  0  0  0  0  0  0  0
    5.9830   -5.0400   23.5910 C   0  0  0  0  0  0  0  0  0  0  0  0
    6.5940   -5.3720   22.4100 C   0  0  0  0  0  0  0  0  0  0  0  0
  1  2  1  0
  2  3  2  0
  2  4  1  0
  4  5  1  0
  5  6  1  0
  6  7  1  0
  7  8  1  0
  8  9  2  0
  8 10  1  0
 11 10  1  1
 11 12  1  0
 12 13  1  0
 13 14  1  1
 14 15  1  0
 15 16  1  0
 11 17  1  0
 13 17  1  0
  7 18  1  0
  4 19  1  0
 18 19  1  0
M  END
