piperidine-amides-14008-covalent
     RDKit          3D

 25 26  0  0  0  0  0  0  0  0999 V2000
    7.0870   -3.3160   19.2410 C   0  0  0  0  0  0  0  0  0  0  0  0
    6.3690   -4.1420   20.2490 C   0  0  0  0  0  0  0  0  0  0  0  0
    5.3110   -4.7090   19.9330 O   0  0  0  0  0  0  0  0  0  0  0  0
    6.9420   -4.3070   21.5210 N   0  0  0  0  0  0  0  0  0  0  0  0
    6.6260   -5.4370   22.3610 C   0  0  0  0  0  0  0  0  0  0  0  0
    5.7540   -4.9030   23.5000 C   0  0  0  0  0  0  0  0  0  0  0  0
    6.5510   -3.8490   24.1900 C   0  0  0  0  0  0  0  0  0  0  0  0
    5.8550   -3.2440   25.3400 C   0  0  0  0  0  0  0  0  0  0  0  0
    4.6220   -3.3350   25.3320 O   0  0  0  0  0  0  0  0  0  0  0  0
    6.5770   -2.6000   26.3530 N   0  0  0  0  0  0  0  0  0  0  0  0
    6.0120   -1.7510   27.3400 C   0  0  0  0  0  0  0  0  0  0  0  0
    4.8770   -2.2430   27.9540 C   0  0  0  0  0  0  0  0  0  0  0  0
    5.0550   -2.8310   29.2180 C   0  0  0  0  0  0  0  0  0  0  0  0
    4.9830   -4.2100   29.3560 O   0  0  0  0  0  0  0  0  0  0  0  0
    5.3000   -2.0990   30.3530 O   0  0  0  0  0  0  0  0  0  0  0  0
    4.2980   -1.3480   31.0410 C   0  0  0  0  0  0  0  0  0  0  0  0
    3.3660   -0.7410   30.0560 C   0  0  0  0  0  0  0  0  0  0  0  0
    4.9160   -0.2790   31.6720 C   0  0  0  0  0  0  0  0  0  0  0  0
    3.7510   -2.0760   32.0680 C   0  0  0  0  0  0  0  0  0  0  0  0
    5.7310   -0.4620   26.8470 C   0  0  0  0  0  0  0  0  0  0  0  0
    5.8810    0.7070   27.7880 C   0  0  0  0  0  0  0  0  0  0  0  0
    6.6100   -0.1660   28.7900 C   0  0  0  0  0  0  0  0  0  0  0  0
    6.9430   -1.3610   28.2760 C   0  0  0  0  0  0  0  0  0  0  0  0
    7.0000   -2.7200   23.3310 C   0  0  0  0  0  0  0  0  0  0  0  0
    7.7110   -3.2250   22.1150 C   0  0  0  0  0  0  0  0  0  0  0  0
  1  2  1  0
  2  3  2  0
  2  4  1  0
  4  5  1  0
  5  6  1  0
  6  7  1  0
  7  8  1  0
  8  9  2  0
  8 10  1  0
 11 10  1  0
 11 12  1  0
 12 13  1  0
 13 14  2  0
 13 15  1  0
 16 15  1  0
 16 17  1  0
 16 18  1  0
 16 19  1  0
 11 20  1  0
 20 21  1  0
 21 22  1  0
 11 23  1  0
 22 23  1  0
  7 24  1  0
  4 25  1  0
 24 25  1  0
M  END
