piperidine-amides-35651-covalent
     RDKit          3D

 39 42  0  0  0  0  0  0  0  0999 V2000
    7.0220   -3.3770   19.4360 C   0  0  0  0  0  0  0  0  0  0  0  0
    6.3700   -4.3090   20.3940 C   0  0  0  0  0  0  0  0  0  0  0  0
    5.3700   -4.8950   19.9880 O   0  0  0  0  0  0  0  0  0  0  0  0
    6.9040   -4.5390   21.6740 N   0  0  0  0  0  0  0  0  0  0  0  0
    6.4570   -5.6470   22.4750 C   0  0  0  0  0  0  0  0  0  0  0  0
    6.4340   -5.2430   23.9350 C   0  0  0  0  0  0  0  0  0  0  0  0
    5.9850   -3.7850   24.1130 C   0  0  0  0  0  0  0  0  0  0  0  0
    6.2260   -3.2770   25.4900 C   0  0  0  0  0  0  0  0  0  0  0  0
    7.1670   -2.5300   25.6260 O   0  0  0  0  0  0  0  0  0  0  0  0
    5.4160   -3.4960   26.6340 N   0  0  0  0  0  0  0  0  0  0  0  0
    5.7160   -4.4550   27.6980 C   0  0  0  0  0  0  0  0  0  0  0  0
    6.4630   -5.3910   27.9370 C   0  0  0  0  0  0  0  0  0  0  0  0
    6.7650   -6.2890   28.9000 C   0  0  0  0  0  0  0  0  0  0  0  0
    7.5940   -7.1530   28.6300 O   0  0  0  0  0  0  0  0  0  0  0  0
    6.2070   -6.2760   30.1520 O   0  0  0  0  0  0  0  0  0  0  0  0
    5.4940   -7.4050   30.6500 C   0  0  0  0  0  0  0  0  0  0  0  0
    4.7690   -7.8460   29.5800 C   0  0  0  0  0  0  0  0  0  0  0  0
    5.2200   -4.6040   28.8170 C   0  0  0  0  0  0  0  0  0  0  0  0
    5.0080   -5.0970   29.9920 N   0  0  0  0  0  0  0  0  0  0  0  0
    5.6190   -5.1210   28.9680 N   0  0  0  0  0  0  0  0  0  0  0  0
    4.6000   -4.0750   29.0020 C   0  0  1  0  0  0  0  0  0  0  0  0
    3.6890   -4.2050   30.2460 C   0  0  0  0  0  0  0  0  0  0  0  0
    3.9700   -5.3300   30.9730 F   0  0  0  0  0  0  0  0  0  0  0  0
    3.7380   -3.1630   31.1080 F   0  0  0  0  0  0  0  0  0  0  0  0
    2.3410   -4.2950   29.5840 C   0  0  0  0  0  0  0  0  0  0  0  0
    1.3820   -4.6090   30.5140 F   0  0  0  0  0  0  0  0  0  0  0  0
    2.3990   -5.2960   28.6330 F   0  0  0  0  0  0  0  0  0  0  0  0
    2.0670   -3.0650   28.9750 F   0  0  0  0  0  0  0  0  0  0  0  0
    5.3360   -2.9080   28.8970 C   0  0  0  0  0  0  0  0  0  0  0  0
    5.0420   -2.3850   27.5040 C   0  0  2  0  0  0  0  0  0  0  0  0
    3.6100   -2.0210   27.2940 C   0  0  0  0  0  0  0  0  0  0  0  0
    2.9930   -0.8350   28.0220 C   0  0  0  0  0  0  0  0  0  0  0  0
    1.6560   -0.5120   27.8300 C   0  0  0  0  0  0  0  0  0  0  0  0
    0.7380   -1.2870   26.9130 C   0  0  0  0  0  0  0  0  0  0  0  0
   -0.5680   -0.9340   26.7580 F   0  0  0  0  0  0  0  0  0  0  0  0
    1.3870   -2.4640   26.1970 C   0  0  0  0  0  0  0  0  0  0  0  0
    2.8460   -2.7680   26.4450 C   0  0  0  0  0  0  0  0  0  0  0  0
    6.5880   -2.7590   23.1700 C   0  0  0  0  0  0  0  0  0  0  0  0
    7.6310   -3.4790   22.3210 C   0  0  0  0  0  0  0  0  0  0  0  0
  1  2  1  0
  2  3  2  0
  2  4  1  0
  4  5  1  0
  5  6  1  0
  6  7  1  0
  7  8  1  0
  8  9  2  0
  8 10  1  0
 10 11  1  0
 11 12  2  0
 12 13  1  0
 13 14  2  0
 13 15  1  0
 15 16  1  0
 16 17  1  0
 12 18  1  0
 18 19  2  0
 11 20  1  0
 19 20  1  0
 20 21  1  0
 21 22  1  1
 22 23  1  0
 22 24  1  0
 22 25  1  0
 25 26  1  0
 25 27  1  0
 25 28  1  0
 21 29  1  0
 10 30  1  0
 29 30  1  0
 30 31  1  1
 31 32  2  0
 32 33  1  0
 33 34  2  0
 34 35  1  0
 34 36  1  0
 31 37  1  0
 36 37  2  0
  7 38  1  0
  4 39  1  0
 38 39  1  0
M  END
