piperidine-amides-29483-covalent
     RDKit          3D

 27 30  0  0  0  0  0  0  0  0999 V2000
    7.1070   -3.3750   19.3660 C   0  0  0  0  0  0  0  0  0  0  0  0
    6.4240   -4.2270   20.3330 C   0  0  0  0  0  0  0  0  0  0  0  0
    5.3740   -4.7860   19.9730 O   0  0  0  0  0  0  0  0  0  0  0  0
    6.9960   -4.4510   21.6160 N   0  0  0  0  0  0  0  0  0  0  0  0
    7.7230   -3.3980   22.2590 C   0  0  0  0  0  0  0  0  0  0  0  0
    6.9410   -2.8780   23.4260 C   0  0  0  0  0  0  0  0  0  0  0  0
    6.6040   -4.0290   24.3640 C   0  0  0  0  0  0  0  0  0  0  0  0
    5.7730   -3.5010   25.4940 C   0  0  0  0  0  0  0  0  0  0  0  0
    4.8110   -2.8080   25.1720 O   0  0  0  0  0  0  0  0  0  0  0  0
    6.1090   -3.8190   26.8060 N   0  0  0  0  0  0  0  0  0  0  0  0
    5.4070   -3.2850   27.9100 C   0  0  0  0  0  0  0  0  0  0  0  0
    4.5520   -4.1890   28.5010 C   0  0  0  0  0  0  0  0  0  0  0  0
    5.3790   -5.2360   29.1210 N   0  0  0  0  0  0  0  0  0  0  0  0
    4.9100   -6.1350   30.1170 C   0  0  0  0  0  0  0  0  0  0  0  0
    5.6080   -7.2450   30.5400 C   0  0  0  0  0  0  0  0  0  0  0  0
    5.3350   -7.5110   31.9500 C   0  0  0  0  0  0  0  0  0  0  0  0
    6.0480   -8.6050   32.2340 N   0  0  0  0  0  0  0  0  0  0  0  0
    6.2090   -9.3440   33.3890 C   0  0  0  0  0  0  0  0  0  0  0  0
    7.1110  -10.5500   33.5280 C   0  0  0  0  0  0  0  0  0  0  0  0
    7.8210  -10.9120   32.2230 C   0  0  0  0  0  0  0  0  0  0  0  0
    7.5270  -10.0240   30.9630 C   0  0  0  0  0  0  0  0  0  0  0  0
    6.6860   -8.8910   31.0090 C   0  0  0  0  0  0  0  0  0  0  0  0
    6.4260   -8.0710   29.9250 N   0  0  0  0  0  0  0  0  0  0  0  0
    6.6490   -5.5080   28.4700 C   0  0  0  0  0  0  0  0  0  0  0  0
    6.7730   -5.0640   27.0230 C   0  0  0  0  0  0  0  0  0  0  0  0
    5.8220   -5.1160   23.6010 C   0  0  0  0  0  0  0  0  0  0  0  0
    6.6230   -5.5750   22.4030 C   0  0  0  0  0  0  0  0  0  0  0  0
  1  2  1  0
  2  3  2  0
  2  4  1  0
  4  5  1  0
  5  6  1  0
  6  7  1  0
  7  8  1  0
  8  9  2  0
  8 10  1  0
 10 11  1  0
 11 12  1  0
 12 13  1  0
 13 14  1  0
 14 15  1  0
 15 16  2  0
 16 17  1  0
 17 18  1  0
 18 19  2  0
 19 20  1  0
 20 21  2  0
 17 22  1  0
 21 22  1  0
 15 23  1  0
 22 23  2  0
 13 24  1  0
 10 25  1  0
 24 25  1  0
  7 26  1  0
  4 27  1  0
 26 27  1  0
M  END
