piperidine-amides-30824-covalent
     RDKit          3D

 25 27  0  0  0  0  0  0  0  0999 V2000
    7.0530   -3.3410   19.3370 C   0  0  0  0  0  0  0  0  0  0  0  0
    6.3720   -4.1670   20.3410 C   0  0  0  0  0  0  0  0  0  0  0  0
    5.3840   -4.8300   19.9810 O   0  0  0  0  0  0  0  0  0  0  0  0
    6.8240   -4.2700   21.6780 N   0  0  0  0  0  0  0  0  0  0  0  0
    6.6600   -5.4680   22.4590 C   0  0  0  0  0  0  0  0  0  0  0  0
    5.9160   -5.0380   23.7010 C   0  0  0  0  0  0  0  0  0  0  0  0
    6.5280   -3.8570   24.4170 C   0  0  0  0  0  0  0  0  0  0  0  0
    5.4960   -3.1670   25.2420 C   0  0  0  0  0  0  0  0  0  0  0  0
    4.4650   -2.7050   24.6730 O   0  0  0  0  0  0  0  0  0  0  0  0
    5.5510   -2.9640   26.6440 N   0  0  0  0  0  0  0  0  0  0  0  0
    5.3560   -4.1590   27.5270 C   0  0  0  0  0  0  0  0  0  0  0  0
    6.3480   -5.4510   28.0250 S   0  0  0  0  0  0  0  0  0  0  0  0
    5.2400   -6.2370   28.9720 N   0  0  0  0  0  0  0  0  0  0  0  0
    4.0780   -5.5660   28.9520 C   0  0  0  0  0  0  0  0  0  0  0  0
    2.7460   -6.2680   29.9210 Cl  0  0  0  0  0  0  0  0  0  0  0  0
    3.9400   -4.2970   28.1510 C   0  0  0  0  0  0  0  0  0  0  0  0
    2.8260   -3.3120   27.9030 C   0  0  0  0  0  0  0  0  0  0  0  0
    1.4690   -3.7180   27.9030 N   0  0  0  0  0  0  0  0  0  0  0  0
    5.2880   -1.6580   27.2750 C   0  0  0  0  0  0  0  0  0  0  0  0
    5.9160   -0.5150   26.5670 C   0  0  0  0  0  0  0  0  0  0  0  0
    6.1440    0.4620   27.4880 C   0  0  0  0  0  0  0  0  0  0  0  0
    6.1670   -0.2150   28.7120 C   0  0  0  0  0  0  0  0  0  0  0  0
    5.4600   -1.5720   28.6540 C   0  0  0  0  0  0  0  0  0  0  0  0
    7.1250   -2.7720   23.5430 C   0  0  0  0  0  0  0  0  0  0  0  0
    7.7070   -3.2780   22.2440 C   0  0  0  0  0  0  0  0  0  0  0  0
  1  2  1  0
  2  3  2  0
  2  4  1  0
  4  5  1  0
  5  6  1  0
  6  7  1  0
  7  8  1  0
  8  9  2  0
  8 10  1  0
 10 11  1  0
 11 12  1  0
 12 13  1  0
 13 14  2  0
 14 15  1  0
 11 16  2  0
 14 16  1  0
 16 17  1  0
 17 18  3  0
 10 19  1  0
 19 20  1  0
 20 21  1  0
 21 22  1  0
 19 23  1  0
 22 23  1  0
  7 24  1  0
  4 25  1  0
 24 25  1  0
M  END
