piperidine-amides-10369-covalent
     RDKit          3D

 24 26  0  0  0  0  0  0  0  0999 V2000
    7.1070   -3.2450   19.1750 C   0  0  0  0  0  0  0  0  0  0  0  0
    6.3420   -3.9800   20.1840 C   0  0  0  0  0  0  0  0  0  0  0  0
    5.2350   -4.4510   19.8320 O   0  0  0  0  0  0  0  0  0  0  0  0
    6.8650   -4.1860   21.4560 N   0  0  0  0  0  0  0  0  0  0  0  0
    7.5940   -3.1510   22.1560 C   0  0  0  0  0  0  0  0  0  0  0  0
    6.8410   -2.8010   23.4100 C   0  0  0  0  0  0  0  0  0  0  0  0
    6.5430   -4.0470   24.1930 C   0  0  0  0  0  0  0  0  0  0  0  0
    5.7950   -3.7650   25.4440 C   0  0  0  0  0  0  0  0  0  0  0  0
    5.1030   -2.7250   25.5070 O   0  0  0  0  0  0  0  0  0  0  0  0
    5.8060   -4.6690   26.5330 N   0  0  0  0  0  0  0  0  0  0  0  0
    6.1900   -4.3830   27.9040 C   0  0  0  0  0  0  0  0  0  0  0  0
    6.4460   -2.9340   28.3130 C   0  0  0  0  0  0  0  0  0  0  0  0
    6.2530   -1.7960   27.5650 C   0  0  0  0  0  0  0  0  0  0  0  0
    6.5940   -1.3900   26.3110 C   0  0  0  0  0  0  0  0  0  0  0  0
    6.2250   -0.1360   25.8570 C   0  0  0  0  0  0  0  0  0  0  0  0
    5.5260    0.6620   26.7000 N   0  0  0  0  0  0  0  0  0  0  0  0
    5.1110    0.4240   27.9660 C   0  0  0  0  0  0  0  0  0  0  0  0
    4.3880    1.3340   28.7510 C   0  0  0  0  0  0  0  0  0  0  0  0
    3.8680    1.1880   30.1730 C   0  0  0  0  0  0  0  0  0  0  0  0
    4.2230   -0.1580   30.7490 C   0  0  0  0  0  0  0  0  0  0  0  0
    4.9870   -1.1630   29.9660 C   0  0  0  0  0  0  0  0  0  0  0  0
    5.4770   -0.9530   28.5500 C   0  0  0  0  0  0  0  0  0  0  0  0
    5.7850   -5.0510   23.4130 C   0  0  0  0  0  0  0  0  0  0  0  0
    6.5040   -5.3920   22.1370 C   0  0  0  0  0  0  0  0  0  0  0  0
  1  2  1  0
  2  3  2  0
  2  4  1  0
  4  5  1  0
  5  6  1  0
  6  7  1  0
  7  8  1  0
  8  9  2  0
  8 10  1  0
 10 11  1  0
 11 12  1  0
 12 13  1  0
 13 14  2  0
 14 15  1  0
 15 16  2  0
 16 17  1  0
 17 18  1  0
 18 19  2  0
 19 20  1  0
 20 21  2  0
 13 22  1  0
 17 22  2  0
 21 22  1  0
  7 23  1  0
  4 24  1  0
 23 24  1  0
M  END
