piperidine-amides-8383-covalent
     RDKit          3D

 24 25  0  0  0  0  0  0  0  0999 V2000
    7.0960   -3.2650   19.2020 C   0  0  0  0  0  0  0  0  0  0  0  0
    6.3670   -4.0240   20.2140 C   0  0  0  0  0  0  0  0  0  0  0  0
    5.2950   -4.5630   19.8880 O   0  0  0  0  0  0  0  0  0  0  0  0
    6.9030   -4.1820   21.5130 N   0  0  0  0  0  0  0  0  0  0  0  0
    6.5780   -5.3580   22.2660 C   0  0  0  0  0  0  0  0  0  0  0  0
    5.8150   -4.9510   23.4890 C   0  0  0  0  0  0  0  0  0  0  0  0
    6.6150   -3.8400   24.1300 C   0  0  0  0  0  0  0  0  0  0  0  0
    5.8170   -3.2160   25.2310 C   0  0  0  0  0  0  0  0  0  0  0  0
    4.6940   -2.8310   24.9190 O   0  0  0  0  0  0  0  0  0  0  0  0
    6.3830   -3.1180   26.5050 N   0  0  0  0  0  0  0  0  0  0  0  0
    5.9860   -3.9500   27.5940 C   0  0  0  0  0  0  0  0  0  0  0  0
    4.5970   -3.9630   27.8520 C   0  0  2  0  0  0  0  0  0  0  0  0
    3.8780   -4.2490   26.8730 O   0  0  0  0  0  0  0  0  0  0  0  0
    4.0700   -2.7300   28.1810 C   0  0  0  0  0  0  0  0  0  0  0  0
    3.9850   -2.2900   29.4920 C   0  0  0  0  0  0  0  0  0  0  0  0
    2.9410   -3.1920   30.0780 C   0  0  0  0  0  0  0  0  0  0  0  0
    3.2080   -4.6980   29.8540 C   0  0  1  0  0  0  0  0  0  0  0  0
    1.9500   -5.4660   29.6300 C   0  0  0  0  0  0  0  0  0  0  0  0
    1.4420   -5.7560   30.8920 F   0  0  0  0  0  0  0  0  0  0  0  0
    1.0650   -4.7330   28.8930 F   0  0  0  0  0  0  0  0  0  0  0  0
    2.2990   -6.6390   28.9630 F   0  0  0  0  0  0  0  0  0  0  0  0
    4.2590   -4.9420   28.7890 C   0  0  0  0  0  0  0  0  0  0  0  0
    7.0280   -2.7400   23.2510 C   0  0  0  0  0  0  0  0  0  0  0  0
    7.7170   -3.1650   22.1480 C   0  0  0  0  0  0  0  0  0  0  0  0
  1  2  1  0
  2  3  2  0
  2  4  1  0
  4  5  1  0
  5  6  1  0
  6  7  1  0
  7  8  1  0
  8  9  2  0
  8 10  1  0
 10 11  1  0
 11 12  1  0
 12 13  1  6
 12 14  1  0
 14 15  1  0
 15 16  1  0
 16 17  1  0
 17 18  1  6
 18 19  1  0
 18 20  1  0
 18 21  1  0
 12 22  1  0
 17 22  1  0
  7 23  1  0
  4 24  1  0
 23 24  1  0
M  END
