piperidine-amides-31182-covalent
     RDKit          3D

 27 28  0  0  0  0  0  0  0  0999 V2000
    7.0800   -3.3210   19.3270 C   0  0  0  0  0  0  0  0  0  0  0  0
    6.3430   -4.1090   20.3180 C   0  0  0  0  0  0  0  0  0  0  0  0
    5.3110   -4.6900   19.9420 O   0  0  0  0  0  0  0  0  0  0  0  0
    6.7830   -4.2770   21.6500 N   0  0  0  0  0  0  0  0  0  0  0  0
    6.5590   -5.5210   22.3620 C   0  0  0  0  0  0  0  0  0  0  0  0
    6.2570   -5.1850   23.8110 C   0  0  0  0  0  0  0  0  0  0  0  0
    6.0490   -3.7170   24.0640 C   0  0  0  0  0  0  0  0  0  0  0  0
    5.4690   -3.3750   25.4030 C   0  0  0  0  0  0  0  0  0  0  0  0
    4.2760   -2.9550   25.4440 O   0  0  0  0  0  0  0  0  0  0  0  0
    6.1190   -3.4590   26.6710 N   0  0  0  0  0  0  0  0  0  0  0  0
    6.5000   -2.2040   27.3680 C   0  0  0  0  0  0  0  0  0  0  0  0
    6.1030   -4.7180   27.4840 C   0  0  0  0  0  0  0  0  0  0  0  0
    4.9810   -4.9220   28.4240 C   0  0  2  0  0  0  0  0  0  0  0  0
    5.4660   -5.9060   29.4750 C   0  0  0  0  0  0  0  0  0  0  0  0
    4.4670   -6.0870   30.4760 N   0  0  0  0  0  0  0  0  0  0  0  0
    4.9560   -7.0370   31.4950 C   0  0  0  0  0  0  0  0  0  0  0  0
    4.1920   -8.2210   31.5040 O   0  0  0  0  0  0  0  0  0  0  0  0
    5.9370   -6.8280   32.3360 O   0  0  0  0  0  0  0  0  0  0  0  0
    5.7430   -7.0960   33.6980 C   0  0  0  0  0  0  0  0  0  0  0  0
    5.8820   -8.1810   34.5300 C   0  0  0  0  0  0  0  0  0  0  0  0
    6.7580   -6.8670   34.8200 C   0  0  0  0  0  0  0  0  0  0  0  0
    4.3650   -6.7830   34.2640 C   0  0  0  0  0  0  0  0  0  0  0  0
    3.2890   -6.4610   29.7270 C   0  0  0  0  0  0  0  0  0  0  0  0
    3.0620   -6.2110   28.2480 C   0  0  0  0  0  0  0  0  0  0  0  0
    3.7110   -5.1970   27.9350 O   0  0  0  0  0  0  0  0  0  0  0  0
    7.2920   -2.9890   23.6670 C   0  0  0  0  0  0  0  0  0  0  0  0
    7.5580   -3.2130   22.2290 C   0  0  0  0  0  0  0  0  0  0  0  0
  1  2  1  0
  2  3  2  0
  2  4  1  0
  4  5  1  0
  5  6  1  0
  6  7  1  0
  7  8  1  0
  8  9  2  0
  8 10  1  0
 10 11  1  0
 10 12  1  0
 13 12  1  6
 13 14  1  0
 14 15  1  0
 15 16  1  0
 16 17  2  0
 16 18  1  0
 19 18  1  0
 19 20  1  0
 19 21  1  0
 19 22  1  0
 15 23  1  0
 23 24  1  0
 13 25  1  0
 24 25  1  0
  7 26  1  0
  4 27  1  0
 26 27  1  0
M  END
