piperidine-amides-11252-covalent
     RDKit          3D

 19 20  0  0  0  0  0  0  0  0999 V2000
    7.0790   -3.2580   19.1790 C   0  0  0  0  0  0  0  0  0  0  0  0
    6.2920   -3.9840   20.1840 C   0  0  0  0  0  0  0  0  0  0  0  0
    5.2320   -4.5370   19.8630 O   0  0  0  0  0  0  0  0  0  0  0  0
    6.7310   -4.1020   21.5040 N   0  0  0  0  0  0  0  0  0  0  0  0
    7.6120   -3.1340   22.1050 C   0  0  0  0  0  0  0  0  0  0  0  0
    7.2750   -3.1230   23.5600 C   0  0  0  0  0  0  0  0  0  0  0  0
    5.9130   -3.6430   23.8750 C   0  0  0  0  0  0  0  0  0  0  0  0
    5.6360   -3.4920   25.3210 C   0  0  0  0  0  0  0  0  0  0  0  0
    4.5030   -3.1030   25.7180 O   0  0  0  0  0  0  0  0  0  0  0  0
    6.6260   -3.7580   26.2940 N   0  0  0  0  0  0  0  0  0  0  0  0
    6.3380   -4.4150   27.5960 C   0  0  2  0  0  0  0  0  0  0  0  0
    7.3710   -5.4470   27.8480 C   0  0  0  0  0  0  0  0  0  0  0  0
    8.2250   -6.0430   26.8050 C   0  0  0  0  0  0  0  0  0  0  0  0
    4.9430   -5.0050   27.7100 C   0  0  0  0  0  0  0  0  0  0  0  0
    5.1140   -6.3560   27.0590 C   0  0  0  0  0  0  0  0  0  0  0  0
    4.5540   -6.9530   28.2300 C   0  0  0  0  0  0  0  0  0  0  0  0
    4.3280   -5.8000   28.9330 C   0  0  0  0  0  0  0  0  0  0  0  0
    5.7670   -5.0920   23.4690 C   0  0  0  0  0  0  0  0  0  0  0  0
    6.5540   -5.3620   22.2040 C   0  0  0  0  0  0  0  0  0  0  0  0
  1  2  1  0
  2  3  2  0
  2  4  1  0
  4  5  1  0
  5  6  1  0
  6  7  1  0
  7  8  1  0
  8  9  2  0
  8 10  1  0
 10 11  1  0
 11 12  1  6
 12 13  2  3
 11 14  1  0
 14 15  1  0
 15 16  1  0
 14 17  1  0
 16 17  1  0
  7 18  1  0
  4 19  1  0
 18 19  1  0
M  END
