piperidine-amides-31265-covalent
     RDKit          3D

 25 27  0  0  0  0  0  0  0  0999 V2000
    7.1010   -3.3500   19.3230 C   0  0  0  0  0  0  0  0  0  0  0  0
    6.3630   -4.1560   20.2910 C   0  0  0  0  0  0  0  0  0  0  0  0
    5.3010   -4.6900   19.9360 O   0  0  0  0  0  0  0  0  0  0  0  0
    6.8520   -4.4010   21.5840 N   0  0  0  0  0  0  0  0  0  0  0  0
    6.5560   -5.6070   22.3050 C   0  0  0  0  0  0  0  0  0  0  0  0
    5.8660   -5.1180   23.5420 C   0  0  0  0  0  0  0  0  0  0  0  0
    6.6050   -3.9720   24.1780 C   0  0  0  0  0  0  0  0  0  0  0  0
    5.9460   -3.4940   25.4310 C   0  0  0  0  0  0  0  0  0  0  0  0
    5.1080   -2.5460   25.3890 O   0  0  0  0  0  0  0  0  0  0  0  0
    6.1820   -4.0840   26.7060 N   0  0  0  0  0  0  0  0  0  0  0  0
    5.9220   -3.3560   27.9640 C   0  0  0  0  0  0  0  0  0  0  0  0
    4.8320   -4.0650   28.6860 C   0  0  0  0  0  0  0  0  0  0  0  0
    5.2460   -5.2810   29.1240 N   0  0  0  0  0  0  0  0  0  0  0  0
    4.6690   -6.0360   30.1770 C   0  0  0  0  0  0  0  0  0  0  0  0
    5.6670   -6.9620   30.8050 C   0  0  0  0  0  0  0  0  0  0  0  0
    5.1840   -7.8090   31.9510 C   0  0  0  0  0  0  0  0  0  0  0  0
    3.7600   -7.6200   32.3050 C   0  0  0  0  0  0  0  0  0  0  0  0
    2.9070   -6.7510   31.6720 C   0  0  0  0  0  0  0  0  0  0  0  0
    1.2520   -6.6790   32.2490 Cl  0  0  0  0  0  0  0  0  0  0  0  0
    3.3540   -5.9500   30.6040 C   0  0  0  0  0  0  0  0  0  0  0  0
    2.2500   -4.8390   29.8140 Cl  0  0  0  0  0  0  0  0  0  0  0  0
    5.1250   -5.8530   27.9200 C   0  0  0  0  0  0  0  0  0  0  0  0
    6.0890   -5.5280   26.8270 C   0  0  0  0  0  0  0  0  0  0  0  0
    6.7990   -2.8630   23.1310 C   0  0  0  0  0  0  0  0  0  0  0  0
    7.5320   -3.3040   22.2810 C   0  0  0  0  0  0  0  0  0  0  0  0
  1  2  1  0
  2  3  2  0
  2  4  1  0
  4  5  1  0
  5  6  1  0
  6  7  1  0
  7  8  1  0
  8  9  2  0
  8 10  1  0
 10 11  1  0
 11 12  1  0
 12 13  1  0
 13 14  1  0
 14 15  2  0
 15 16  1  0
 16 17  2  0
 17 18  1  0
 18 19  1  0
 14 20  1  0
 18 20  2  0
 20 21  1  0
 13 22  1  0
 10 23  1  0
 22 23  1  0
  7 24  1  0
  4 25  1  0
 24 25  1  0
M  END
