piperidine-amides-4058-covalent
     RDKit          3D

 28 29  0  0  0  0  0  0  0  0999 V2000
    7.1120   -3.2720   19.1970 C   0  0  0  0  0  0  0  0  0  0  0  0
    6.3700   -4.0280   20.2240 C   0  0  0  0  0  0  0  0  0  0  0  0
    5.2820   -4.5420   19.8780 O   0  0  0  0  0  0  0  0  0  0  0  0
    6.8940   -4.2050   21.5260 N   0  0  0  0  0  0  0  0  0  0  0  0
    7.5990   -3.1210   22.1140 C   0  0  0  0  0  0  0  0  0  0  0  0
    7.2650   -2.8440   23.5010 C   0  0  0  0  0  0  0  0  0  0  0  0
    6.5510   -3.9200   24.2310 C   0  0  0  0  0  0  0  0  0  0  0  0
    5.7650   -3.3420   25.3700 C   0  0  0  0  0  0  0  0  0  0  0  0
    4.6750   -2.7870   25.1340 O   0  0  0  0  0  0  0  0  0  0  0  0
    6.2240   -3.4190   26.7000 N   0  0  0  0  0  0  0  0  0  0  0  0
    6.3860   -4.5790   27.4970 C   0  0  2  0  0  0  0  0  0  0  0  0
    7.1000   -5.7190   26.9670 C   0  0  0  0  0  0  0  0  0  0  0  0
    8.5490   -5.3110   26.9410 C   0  0  0  0  0  0  0  0  0  0  0  0
    9.0550   -5.1290   28.1970 F   0  0  0  0  0  0  0  0  0  0  0  0
    9.2980   -6.2200   26.2590 F   0  0  0  0  0  0  0  0  0  0  0  0
    8.5960   -4.1060   26.2660 F   0  0  0  0  0  0  0  0  0  0  0  0
    5.0930   -5.2280   27.8890 C   0  0  0  0  0  0  0  0  0  0  0  0
    4.2890   -4.3810   28.8930 C   0  0  0  0  0  0  0  0  0  0  0  0
    2.9500   -4.9690   29.3560 C   0  0  0  0  0  0  0  0  0  0  0  0
    2.5330   -6.3510   28.7730 C   0  0  0  0  0  0  0  0  0  0  0  0
    1.2270   -6.9980   29.1770 C   0  0  0  0  0  0  0  0  0  0  0  0
    0.6260   -7.6380   28.0980 F   0  0  0  0  0  0  0  0  0  0  0  0
    0.3120   -6.0220   29.5530 F   0  0  0  0  0  0  0  0  0  0  0  0
    1.4410   -7.8970   30.2070 F   0  0  0  0  0  0  0  0  0  0  0  0
    3.3050   -7.1910   27.7930 C   0  0  0  0  0  0  0  0  0  0  0  0
    4.6020   -6.5650   27.3800 C   0  0  0  0  0  0  0  0  0  0  0  0
    5.6810   -4.7300   23.3100 C   0  0  0  0  0  0  0  0  0  0  0  0
    6.5200   -5.3210   22.3660 C   0  0  0  0  0  0  0  0  0  0  0  0
  1  2  1  0
  2  3  2  0
  2  4  1  0
  4  5  1  0
  5  6  1  0
  6  7  1  0
  7  8  1  0
  8  9  2  0
  8 10  1  0
 10 11  1  0
 11 12  1  6
 12 13  1  0
 13 14  1  0
 13 15  1  0
 13 16  1  0
 11 17  1  0
 17 18  2  0
 18 19  1  0
 19 20  2  0
 20 21  1  0
 21 22  1  0
 21 23  1  0
 21 24  1  0
 20 25  1  0
 17 26  1  0
 25 26  2  0
  7 27  1  0
  4 28  1  0
 27 28  1  0
M  END
