piperidine-amides-2356-covalent
     RDKit          3D

 27 29  0  0  0  0  0  0  0  0999 V2000
    7.0590   -3.2870   19.3010 C   0  0  0  0  0  0  0  0  0  0  0  0
    6.3740   -4.1120   20.3310 C   0  0  0  0  0  0  0  0  0  0  0  0
    5.3900   -4.7560   19.9620 O   0  0  0  0  0  0  0  0  0  0  0  0
    6.8710   -4.1650   21.6460 N   0  0  0  0  0  0  0  0  0  0  0  0
    7.7790   -3.1630   22.1630 C   0  0  0  0  0  0  0  0  0  0  0  0
    7.4260   -2.8860   23.5910 C   0  0  0  0  0  0  0  0  0  0  0  0
    6.0500   -3.4850   23.8300 C   0  0  0  0  0  0  0  0  0  0  0  0
    5.5640   -3.1340   25.1830 C   0  0  0  0  0  0  0  0  0  0  0  0
    4.4450   -2.6190   25.2940 O   0  0  0  0  0  0  0  0  0  0  0  0
    6.3150   -3.3720   26.3420 N   0  0  0  0  0  0  0  0  0  0  0  0
    5.8130   -4.3910   27.2330 C   0  0  0  0  0  0  0  0  0  0  0  0
    6.3160   -4.1310   28.6340 C   0  0  0  0  0  0  0  0  0  0  0  0
    5.4920   -4.9860   29.5000 N   0  0  0  0  0  0  0  0  0  0  0  0
    5.8250   -6.3500   29.0710 C   0  0  0  0  0  0  0  0  0  0  0  0
    5.4010   -7.2070   30.0280 C   0  0  0  0  0  0  0  0  0  0  0  0
    4.3630   -6.9190   30.8350 N   0  0  0  0  0  0  0  0  0  0  0  0
    4.0110   -7.7130   31.9980 C   0  0  0  0  0  0  0  0  0  0  0  0
    2.5970   -8.2730   32.0700 C   0  0  0  0  0  0  0  0  0  0  0  0
    2.2920   -9.0860   33.2850 C   0  0  0  0  0  0  0  0  0  0  0  0
    3.3280   -9.3160   34.3390 C   0  0  0  0  0  0  0  0  0  0  0  0
    4.6890   -8.7430   34.2060 C   0  0  0  0  0  0  0  0  0  0  0  0
    5.8550   -9.0570   35.4770 Cl  0  0  0  0  0  0  0  0  0  0  0  0
    5.0980   -7.9120   33.0320 C   0  0  0  0  0  0  0  0  0  0  0  0
    3.4990   -5.9250   30.3240 C   0  0  0  0  0  0  0  0  0  0  0  0
    4.1080   -4.6930   29.7520 C   0  0  0  0  0  0  0  0  0  0  0  0
    6.0800   -5.0020   23.6640 C   0  0  0  0  0  0  0  0  0  0  0  0
    6.6710   -5.3580   22.4580 C   0  0  0  0  0  0  0  0  0  0  0  0
  1  2  1  0
  2  3  2  0
  2  4  1  0
  4  5  1  0
  5  6  1  0
  6  7  1  0
  7  8  1  0
  8  9  2  0
  8 10  1  0
 10 11  1  0
 11 12  1  0
 12 13  1  0
 13 14  1  0
 14 15  1  0
 15 16  1  0
 16 17  1  0
 17 18  2  0
 18 19  1  0
 19 20  2  0
 20 21  1  0
 21 22  1  0
 17 23  1  0
 21 23  2  0
 16 24  1  0
 13 25  1  0
 24 25  1  0
  7 26  1  0
  4 27  1  0
 26 27  1  0
M  END
