piperidine-amides-1495-covalent
     RDKit          3D

 21 23  0  0  0  0  0  0  0  0999 V2000
    7.0470   -3.3200   19.3490 C   0  0  0  0  0  0  0  0  0  0  0  0
    6.3360   -4.1810   20.3360 C   0  0  0  0  0  0  0  0  0  0  0  0
    5.3430   -4.8230   19.9660 O   0  0  0  0  0  0  0  0  0  0  0  0
    6.8200   -4.2870   21.6580 N   0  0  0  0  0  0  0  0  0  0  0  0
    6.6520   -5.5200   22.3830 C   0  0  0  0  0  0  0  0  0  0  0  0
    6.1300   -5.1820   23.7830 C   0  0  0  0  0  0  0  0  0  0  0  0
    6.1090   -3.6960   23.9410 C   0  0  0  0  0  0  0  0  0  0  0  0
    5.6660   -3.2730   25.2910 C   0  0  0  0  0  0  0  0  0  0  0  0
    4.4520   -3.3370   25.5430 O   0  0  0  0  0  0  0  0  0  0  0  0
    6.6090   -2.8160   26.2090 N   0  0  0  0  0  0  0  0  0  0  0  0
    6.5400   -1.6560   27.0210 C   0  0  0  0  0  0  0  0  0  0  0  0
    6.9900   -1.5750   28.3470 C   0  0  0  0  0  0  0  0  0  0  0  0
    6.9330   -0.4160   29.1920 C   0  0  0  0  0  0  0  0  0  0  0  0
    6.4030    0.7940   28.7620 C   0  0  0  0  0  0  0  0  0  0  0  0
    6.3580    1.9010   29.5950 N   0  0  0  0  0  0  0  0  0  0  0  0
    5.6540    3.1820   28.7300 S   0  0  0  0  0  0  0  0  0  0  0  0
    5.4830    2.1180   27.3320 C   0  0  0  0  0  0  0  0  0  0  0  0
    5.9690    0.6780   27.4480 C   0  0  0  0  0  0  0  0  0  0  0  0
    5.9940   -0.4810   26.5130 C   0  0  0  0  0  0  0  0  0  0  0  0
    7.4880   -3.1110   23.6290 C   0  0  0  0  0  0  0  0  0  0  0  0
    7.5810   -3.1580   22.1560 C   0  0  0  0  0  0  0  0  0  0  0  0
  1  2  1  0
  2  3  2  0
  2  4  1  0
  4  5  1  0
  5  6  1  0
  6  7  1  0
  7  8  1  0
  8  9  2  0
  8 10  1  0
 10 11  1  0
 11 12  1  0
 12 13  2  0
 13 14  1  0
 14 15  2  0
 15 16  1  0
 16 17  1  0
 14 18  1  0
 17 18  2  0
 11 19  2  0
 18 19  1  0
  7 20  1  0
  4 21  1  0
 20 21  1  0
M  END
