piperidine-amides-34109-covalent
     RDKit          3D

 28 30  0  0  0  0  0  0  0  0999 V2000
    7.0710   -3.3210   19.3220 C   0  0  0  0  0  0  0  0  0  0  0  0
    6.3920   -4.1870   20.2990 C   0  0  0  0  0  0  0  0  0  0  0  0
    5.3700   -4.8240   19.9730 O   0  0  0  0  0  0  0  0  0  0  0  0
    6.9140   -4.3440   21.5900 N   0  0  0  0  0  0  0  0  0  0  0  0
    6.5590   -5.5170   22.3490 C   0  0  0  0  0  0  0  0  0  0  0  0
    5.6840   -5.0080   23.4990 C   0  0  0  0  0  0  0  0  0  0  0  0
    6.5550   -4.0440   24.2750 C   0  0  0  0  0  0  0  0  0  0  0  0
    5.7810   -3.5240   25.4380 C   0  0  0  0  0  0  0  0  0  0  0  0
    4.7140   -2.9350   25.1750 O   0  0  0  0  0  0  0  0  0  0  0  0
    6.2070   -3.6770   26.8010 N   0  0  0  0  0  0  0  0  0  0  0  0
    5.6180   -2.8010   27.8270 C   0  0  0  0  0  0  0  0  0  0  0  0
    5.1420   -3.7580   28.8590 C   0  0  2  0  0  0  0  0  0  0  0  0
    5.2310   -4.9030   28.3080 C   0  0  1  0  0  0  0  0  0  0  0  0
    6.4040   -4.8060   27.7500 C   0  0  0  0  0  0  0  0  0  0  0  0
    4.9360   -5.8050   29.2260 C   0  0  0  0  0  0  0  0  0  0  0  0
    5.8270   -5.6750   30.2550 F   0  0  0  0  0  0  0  0  0  0  0  0
    5.1690   -7.0710   28.7590 F   0  0  0  0  0  0  0  0  0  0  0  0
    3.6250   -5.6340   29.6900 C   0  0  0  0  0  0  0  0  0  0  0  0
    3.4920   -6.7930   30.4570 F   0  0  0  0  0  0  0  0  0  0  0  0
    2.8520   -5.9730   28.6270 F   0  0  0  0  0  0  0  0  0  0  0  0
    3.0660   -4.3710   30.4160 C   0  0  0  0  0  0  0  0  0  0  0  0
    3.6250   -4.0770   31.6390 F   0  0  0  0  0  0  0  0  0  0  0  0
    1.6770   -4.3720   30.4510 F   0  0  0  0  0  0  0  0  0  0  0  0
    3.6130   -3.6570   29.1700 C   0  0  0  0  0  0  0  0  0  0  0  0
    2.8920   -3.9920   28.0160 F   0  0  0  0  0  0  0  0  0  0  0  0
    3.3250   -2.3180   29.3550 F   0  0  0  0  0  0  0  0  0  0  0  0
    7.0330   -2.8810   23.5010 C   0  0  0  0  0  0  0  0  0  0  0  0
    7.6250   -3.2840   22.2260 C   0  0  0  0  0  0  0  0  0  0  0  0
  1  2  1  0
  2  3  2  0
  2  4  1  0
  4  5  1  0
  5  6  1  0
  6  7  1  0
  7  8  1  0
  8  9  2  0
  8 10  1  0
 10 11  1  0
 12 11  1  6
 12 13  1  0
 10 14  1  0
 13 14  1  1
 13 15  1  0
 15 16  1  0
 15 17  1  0
 15 18  1  0
 18 19  1  0
 18 20  1  0
 18 21  1  0
 21 22  1  0
 21 23  1  0
 12 24  1  0
 21 24  1  0
 24 25  1  0
 24 26  1  0
  7 27  1  0
  4 28  1  0
 27 28  1  0
M  END
