piperidine-amides-7035-covalent
     RDKit          3D

 22 23  0  0  0  0  0  0  0  0999 V2000
    7.0520   -3.3680   19.3830 C   0  0  0  0  0  0  0  0  0  0  0  0
    6.3340   -4.2160   20.3410 C   0  0  0  0  0  0  0  0  0  0  0  0
    5.3190   -4.8410   19.9730 O   0  0  0  0  0  0  0  0  0  0  0  0
    6.8040   -4.3780   21.6530 N   0  0  0  0  0  0  0  0  0  0  0  0
    7.5130   -3.3060   22.3080 C   0  0  0  0  0  0  0  0  0  0  0  0
    6.5330   -2.6340   23.2890 C   0  0  0  0  0  0  0  0  0  0  0  0
    5.5840   -3.6890   23.8540 C   0  0  0  0  0  0  0  0  0  0  0  0
    5.1400   -3.2940   25.2290 C   0  0  0  0  0  0  0  0  0  0  0  0
    4.7600   -2.1150   25.3720 O   0  0  0  0  0  0  0  0  0  0  0  0
    5.1050   -4.1910   26.3420 N   0  0  0  0  0  0  0  0  0  0  0  0
    6.0930   -4.1180   27.3860 C   0  0  1  0  0  0  0  0  0  0  0  0
    5.9580   -5.3260   28.2890 C   0  0  0  0  0  0  0  0  0  0  0  0
    7.3060   -4.2540   26.6510 C   0  0  0  0  0  0  0  0  0  0  0  0
    8.0410   -5.3330   26.6690 C   0  0  0  0  0  0  0  0  0  0  0  0
    9.1050   -5.2820   25.9060 C   0  0  0  0  0  0  0  0  0  0  0  0
    9.8930   -6.3770   25.9070 F   0  0  0  0  0  0  0  0  0  0  0  0
    9.4390   -4.2130   25.1450 C   0  0  0  0  0  0  0  0  0  0  0  0
    8.7610   -2.8450   24.9630 C   0  0  0  0  0  0  0  0  0  0  0  0
    7.6110   -3.1500   25.9170 C   0  0  0  0  0  0  0  0  0  0  0  0
    6.7800   -2.0140   25.9640 F   0  0  0  0  0  0  0  0  0  0  0  0
    6.0800   -5.0800   23.7960 C   0  0  0  0  0  0  0  0  0  0  0  0
    6.4300   -5.5010   22.4360 C   0  0  0  0  0  0  0  0  0  0  0  0
  1  2  1  0
  2  3  2  0
  2  4  1  0
  4  5  1  0
  5  6  1  0
  6  7  1  0
  7  8  1  0
  8  9  2  0
  8 10  1  0
 10 11  1  0
 11 12  1  1
 11 13  1  0
 13 14  2  0
 14 15  1  0
 15 16  1  0
 15 17  2  0
 17 18  1  0
 13 19  1  0
 18 19  2  0
 19 20  1  0
  7 21  1  0
  4 22  1  0
 21 22  1  0
M  END
