piperidine-amides-11722-covalent
     RDKit          3D

 29 31  0  0  0  0  0  0  0  0999 V2000
    7.1110   -3.2840   19.1860 C   0  0  0  0  0  0  0  0  0  0  0  0
    6.3470   -4.0150   20.1910 C   0  0  0  0  0  0  0  0  0  0  0  0
    5.2740   -4.5280   19.8800 O   0  0  0  0  0  0  0  0  0  0  0  0
    6.8630   -4.1980   21.5160 N   0  0  0  0  0  0  0  0  0  0  0  0
    6.4910   -5.3500   22.2900 C   0  0  0  0  0  0  0  0  0  0  0  0
    5.7840   -4.9030   23.5350 C   0  0  0  0  0  0  0  0  0  0  0  0
    6.6000   -3.7850   24.1740 C   0  0  0  0  0  0  0  0  0  0  0  0
    5.8420   -3.2290   25.3290 C   0  0  0  0  0  0  0  0  0  0  0  0
    4.6240   -2.9760   25.2680 O   0  0  0  0  0  0  0  0  0  0  0  0
    6.5360   -2.9720   26.5360 N   0  0  0  0  0  0  0  0  0  0  0  0
    6.2260   -3.7280   27.7340 C   0  0  0  0  0  0  0  0  0  0  0  0
    5.4080   -4.9400   27.3540 C   0  0  2  0  0  0  0  0  0  0  0  0
    4.0490   -4.6840   27.4150 C   0  0  0  0  0  0  0  0  0  0  0  0
    3.1530   -4.9250   26.3630 C   0  0  0  0  0  0  0  0  0  0  0  0
    2.1120   -4.0670   26.0840 C   0  0  0  0  0  0  0  0  0  0  0  0
    1.2350   -4.4040   24.9830 C   0  0  0  0  0  0  0  0  0  0  0  0
    1.3460   -5.5150   24.1770 C   0  0  0  0  0  0  0  0  0  0  0  0
    0.5150   -5.8460   23.1270 C   0  0  0  0  0  0  0  0  0  0  0  0
    0.6840   -6.9770   22.3590 C   0  0  0  0  0  0  0  0  0  0  0  0
    1.7810   -7.8800   22.6450 C   0  0  0  0  0  0  0  0  0  0  0  0
    2.6260   -7.5690   23.6930 C   0  0  0  0  0  0  0  0  0  0  0  0
    2.4110   -6.4050   24.4470 C   0  0  0  0  0  0  0  0  0  0  0  0
    3.3210   -6.0580   25.5890 C   0  0  0  0  0  0  0  0  0  0  0  0
    5.6720   -6.0760   28.0760 C   0  0  0  0  0  0  0  0  0  0  0  0
    5.5560   -7.2060   27.5140 O   0  0  0  0  0  0  0  0  0  0  0  0
    6.0370   -6.1070   29.4130 O   0  0  0  0  0  0  0  0  0  0  0  0
    5.8300   -7.2970   30.1740 C   0  0  0  0  0  0  0  0  0  0  0  0
    6.9740   -2.6620   23.2680 C   0  0  0  0  0  0  0  0  0  0  0  0
    7.6120   -3.1440   22.1350 C   0  0  0  0  0  0  0  0  0  0  0  0
  1  2  1  0
  2  3  2  0
  2  4  1  0
  4  5  1  0
  5  6  1  0
  6  7  1  0
  7  8  1  0
  8  9  2  0
  8 10  1  0
 10 11  1  0
 12 11  1  1
 12 13  1  0
 13 14  1  0
 14 15  2  0
 15 16  1  0
 16 17  2  0
 17 18  1  0
 18 19  2  0
 19 20  1  0
 20 21  2  0
 17 22  1  0
 21 22  1  0
 14 23  1  0
 22 23  2  0
 12 24  1  0
 24 25  2  0
 24 26  1  0
 26 27  1  0
  7 28  1  0
  4 29  1  0
 28 29  1  0
M  END
