piperidine-amides-19305-covalent
     RDKit          3D

 22 23  0  0  0  0  0  0  0  0999 V2000
    7.1350   -3.3610   19.4430 C   0  0  0  0  0  0  0  0  0  0  0  0
    6.4750   -4.2230   20.3970 C   0  0  0  0  0  0  0  0  0  0  0  0
    5.4560   -4.8820   20.0050 O   0  0  0  0  0  0  0  0  0  0  0  0
    6.9720   -4.3740   21.7190 N   0  0  0  0  0  0  0  0  0  0  0  0
    6.5890   -5.5670   22.4940 C   0  0  0  0  0  0  0  0  0  0  0  0
    5.7190   -4.8850   23.6240 C   0  0  0  0  0  0  0  0  0  0  0  0
    6.4950   -3.7050   24.2040 C   0  0  0  0  0  0  0  0  0  0  0  0
    5.6610   -3.0630   25.3960 C   0  0  0  0  0  0  0  0  0  0  0  0
    4.7040   -2.4580   24.9350 O   0  0  0  0  0  0  0  0  0  0  0  0
    6.1760   -3.3500   26.5220 N   0  0  0  0  0  0  0  0  0  0  0  0
    6.5690   -4.1760   27.5390 C   0  0  0  0  0  0  0  0  0  0  0  0
    6.2930   -2.0880   27.1890 C   0  0  0  0  0  0  0  0  0  0  0  0
    6.9310   -1.9460   28.4940 C   0  0  0  0  0  0  0  0  0  0  0  0
    7.1430   -0.7600   29.3580 C   0  0  0  0  0  0  0  0  0  0  0  0
    6.5070    0.2860   28.5110 C   0  0  0  0  0  0  0  0  0  0  0  0
    6.4700    1.6040   28.9540 C   0  0  0  0  0  0  0  0  0  0  0  0
    5.2170    2.2500   28.9800 N   0  0  0  0  0  0  0  0  0  0  0  0
    7.5870    2.0380   29.2790 O   0  0  0  0  0  0  0  0  0  0  0  0
    5.8170    0.5340   27.2390 C   0  0  0  0  0  0  0  0  0  0  0  0
    5.7090   -0.8050   26.5110 C   0  0  0  0  0  0  0  0  0  0  0  0
    6.9400   -2.7220   23.1640 C   0  0  0  0  0  0  0  0  0  0  0  0
    7.7930   -3.3800   22.3350 C   0  0  0  0  0  0  0  0  0  0  0  0
  1  2  1  0
  2  3  2  0
  2  4  1  0
  4  5  1  0
  5  6  1  0
  6  7  1  0
  7  8  1  0
  8  9  2  0
  8 10  1  0
 10 11  1  0
 10 12  1  0
 12 13  2  0
 13 14  1  0
 14 15  2  0
 15 16  1  0
 16 17  1  0
 16 18  2  0
 15 19  1  0
 12 20  1  0
 19 20  2  0
  7 21  1  0
  4 22  1  0
 21 22  1  0
M  END
