piperidine-amides-1473-covalent
     RDKit          3D

 22 23  0  0  0  0  0  0  0  0999 V2000
    7.0820   -3.3310   19.3320 C   0  0  0  0  0  0  0  0  0  0  0  0
    6.3210   -4.1340   20.3280 C   0  0  0  0  0  0  0  0  0  0  0  0
    5.3250   -4.7780   19.9580 O   0  0  0  0  0  0  0  0  0  0  0  0
    6.7890   -4.1700   21.6570 N   0  0  0  0  0  0  0  0  0  0  0  0
    7.6940   -3.1590   22.1630 C   0  0  0  0  0  0  0  0  0  0  0  0
    7.4780   -3.0280   23.6670 C   0  0  0  0  0  0  0  0  0  0  0  0
    6.1380   -3.5970   23.9650 C   0  0  0  0  0  0  0  0  0  0  0  0
    5.6520   -3.2270   25.3110 C   0  0  0  0  0  0  0  0  0  0  0  0
    4.4370   -3.3300   25.5170 O   0  0  0  0  0  0  0  0  0  0  0  0
    6.5730   -2.7880   26.2590 N   0  0  0  0  0  0  0  0  0  0  0  0
    6.5110   -1.6300   27.0830 C   0  0  0  0  0  0  0  0  0  0  0  0
    7.0090   -1.5900   28.3570 C   0  0  0  0  0  0  0  0  0  0  0  0
    6.9560   -0.4600   29.1780 C   0  0  0  0  0  0  0  0  0  0  0  0
    6.3920    0.7360   28.7850 C   0  0  0  0  0  0  0  0  0  0  0  0
    6.2840    1.8620   29.4740 O   0  0  0  0  0  0  0  0  0  0  0  0
    5.0300    2.1530   29.7190 C   0  0  0  0  0  0  0  0  0  0  0  0
    5.8650    0.7740   27.4990 C   0  0  0  0  0  0  0  0  0  0  0  0
    5.9210   -0.4580   26.5990 C   0  0  0  0  0  0  0  0  0  0  0  0
    5.3760   -0.3400   25.3370 O   0  0  0  0  0  0  0  0  0  0  0  0
    3.9830   -0.4450   25.1780 C   0  0  0  0  0  0  0  0  0  0  0  0
    6.0610   -5.0720   23.7790 C   0  0  0  0  0  0  0  0  0  0  0  0
    6.6290   -5.4010   22.4090 C   0  0  0  0  0  0  0  0  0  0  0  0
  1  2  1  0
  2  3  2  0
  2  4  1  0
  4  5  1  0
  5  6  1  0
  6  7  1  0
  7  8  1  0
  8  9  2  0
  8 10  1  0
 10 11  1  0
 11 12  2  0
 12 13  1  0
 13 14  2  0
 14 15  1  0
 15 16  1  0
 14 17  1  0
 11 18  1  0
 17 18  2  0
 18 19  1  0
 19 20  1  0
  7 21  1  0
  4 22  1  0
 21 22  1  0
M  END
