piperidine-amides-32934-covalent
     RDKit          3D

 23 24  0  0  0  0  0  0  0  0999 V2000
    7.0830   -3.3210   19.3090 C   0  0  0  0  0  0  0  0  0  0  0  0
    6.3460   -4.1370   20.3090 C   0  0  0  0  0  0  0  0  0  0  0  0
    5.3360   -4.7660   19.9580 O   0  0  0  0  0  0  0  0  0  0  0  0
    6.8430   -4.2090   21.6220 N   0  0  0  0  0  0  0  0  0  0  0  0
    7.6910   -3.1670   22.1780 C   0  0  0  0  0  0  0  0  0  0  0  0
    7.5460   -3.1850   23.6960 C   0  0  0  0  0  0  0  0  0  0  0  0
    6.1680   -3.6600   23.9690 C   0  0  0  0  0  0  0  0  0  0  0  0
    5.6880   -3.3790   25.3330 C   0  0  0  0  0  0  0  0  0  0  0  0
    4.4850   -3.5720   25.5370 O   0  0  0  0  0  0  0  0  0  0  0  0
    6.5640   -2.9030   26.3130 N   0  0  0  0  0  0  0  0  0  0  0  0
    6.3970   -1.5740   26.8890 C   0  0  0  0  0  0  0  0  0  0  0  0
    5.6130   -0.5440   26.5550 C   0  0  0  0  0  0  0  0  0  0  0  0
    5.5880    0.6820   27.2610 C   0  0  0  0  0  0  0  0  0  0  0  0
    4.3590    1.9430   26.5330 Br  0  0  0  0  0  0  0  0  0  0  0  0
    6.2930    1.1570   28.4020 C   0  0  0  0  0  0  0  0  0  0  0  0
    7.0390    0.0120   28.6080 N   0  0  0  0  0  0  0  0  0  0  0  0
    7.1640   -1.1950   28.0320 C   0  0  0  0  0  0  0  0  0  0  0  0
    8.3040   -2.2460   28.7510 Cl  0  0  0  0  0  0  0  0  0  0  0  0
    7.4300   -3.8290   27.0850 C   0  0  0  0  0  0  0  0  0  0  0  0
    6.5590   -4.8540   27.8230 C   0  0  0  0  0  0  0  0  0  0  0  0
    8.3740   -4.4750   26.2600 C   0  0  0  0  0  0  0  0  0  0  0  0
    5.9630   -5.0970   23.6640 C   0  0  0  0  0  0  0  0  0  0  0  0
    6.6540   -5.4430   22.3610 C   0  0  0  0  0  0  0  0  0  0  0  0
  1  2  1  0
  2  3  2  0
  2  4  1  0
  4  5  1  0
  5  6  1  0
  6  7  1  0
  7  8  1  0
  8  9  2  0
  8 10  1  0
 10 11  1  0
 11 12  2  0
 12 13  1  0
 13 14  1  0
 13 15  2  0
 15 16  1  0
 11 17  1  0
 16 17  2  0
 17 18  1  0
 10 19  1  0
 19 20  1  0
 19 21  1  0
  7 22  1  0
  4 23  1  0
 22 23  1  0
M  END
