piperidine-amides-14-covalent
     RDKit          3D

 21 22  0  0  0  0  0  0  0  0999 V2000
    7.0290   -3.3640   19.3230 C   0  0  0  0  0  0  0  0  0  0  0  0
    6.3300   -4.1100   20.3480 C   0  0  0  0  0  0  0  0  0  0  0  0
    5.3370   -4.8020   19.9690 O   0  0  0  0  0  0  0  0  0  0  0  0
    6.7060   -4.1560   21.7120 N   0  0  0  0  0  0  0  0  0  0  0  0
    6.7200   -5.5240   22.2890 C   0  0  0  0  0  0  0  0  0  0  0  0
    6.2480   -5.3000   23.7770 C   0  0  0  0  0  0  0  0  0  0  0  0
    6.1930   -3.8140   24.0210 C   0  0  0  0  0  0  0  0  0  0  0  0
    5.5140   -3.5220   25.4350 C   0  0  0  0  0  0  0  0  0  0  0  0
    4.5640   -4.2690   25.5880 O   0  0  0  0  0  0  0  0  0  0  0  0
    6.0980   -2.5830   26.0620 N   0  0  0  0  0  0  0  0  0  0  0  0
    6.6200   -1.5630   26.7930 C   0  0  2  0  0  0  0  0  0  0  0  0
    7.0810   -1.3160   28.0740 C   0  0  0  0  0  0  0  0  0  0  0  0
    6.4020   -0.2710   28.7700 C   0  0  2  0  0  0  0  0  0  0  0  0
    5.3780   -0.7120   29.7400 C   0  0  0  0  0  0  0  0  0  0  0  0
    5.3480    0.2240   30.7750 O   0  0  0  0  0  0  0  0  0  0  0  0
    5.7860    0.5690   27.6750 C   0  0  1  0  0  0  0  0  0  0  0  0
    6.5970    1.4510   27.2960 O   0  0  0  0  0  0  0  0  0  0  0  0
    5.6660   -0.3940   26.6880 C   0  0  1  0  0  0  0  0  0  0  0  0
    5.8120    0.2710   25.4690 O   0  0  0  0  0  0  0  0  0  0  0  0
    7.5050   -3.1290   23.7420 C   0  0  0  0  0  0  0  0  0  0  0  0
    7.6470   -3.1510   22.2200 C   0  0  0  0  0  0  0  0  0  0  0  0
  1  2  1  0
  2  3  2  0
  2  4  1  0
  4  5  1  0
  5  6  1  0
  6  7  1  0
  7  8  1  0
  8  9  2  0
  8 10  1  0
 11 10  1  1
 11 12  1  0
 12 13  1  0
 13 14  1  1
 14 15  1  0
 13 16  1  0
 16 17  1  6
 11 18  1  0
 16 18  1  0
 18 19  1  6
  7 20  1  0
  4 21  1  0
 20 21  1  0
M  END
