piperidine-amides-31080-covalent
     RDKit          3D

 27 28  0  0  0  0  0  0  0  0999 V2000
    7.0580   -3.3290   19.2930 C   0  0  0  0  0  0  0  0  0  0  0  0
    6.3650   -4.1310   20.3020 C   0  0  0  0  0  0  0  0  0  0  0  0
    5.3720   -4.8000   19.9710 O   0  0  0  0  0  0  0  0  0  0  0  0
    6.8410   -4.1860   21.6220 N   0  0  0  0  0  0  0  0  0  0  0  0
    7.6620   -3.1210   22.1600 C   0  0  0  0  0  0  0  0  0  0  0  0
    6.9230   -2.6020   23.3590 C   0  0  0  0  0  0  0  0  0  0  0  0
    6.6890   -3.7160   24.3150 C   0  0  0  0  0  0  0  0  0  0  0  0
    5.8470   -3.3200   25.4820 C   0  0  0  0  0  0  0  0  0  0  0  0
    4.6160   -3.6130   25.4850 O   0  0  0  0  0  0  0  0  0  0  0  0
    6.3060   -2.6170   26.6290 N   0  0  0  0  0  0  0  0  0  0  0  0
    6.3410   -3.3380   27.9260 C   0  0  0  0  0  0  0  0  0  0  0  0
    6.1990   -2.3210   29.0120 C   0  0  0  0  0  0  0  0  0  0  0  0
    7.3300   -1.3880   29.4080 C   0  0  0  0  0  0  0  0  0  0  0  0
    8.4040   -1.9550   29.3780 O   0  0  0  0  0  0  0  0  0  0  0  0
    7.3430   -0.1190   29.7550 O   0  0  0  0  0  0  0  0  0  0  0  0
    6.9260    0.3770   31.0080 C   0  0  0  0  0  0  0  0  0  0  0  0
    8.0530    0.3780   32.0200 C   0  0  0  0  0  0  0  0  0  0  0  0
    5.6340   -0.2480   31.5380 C   0  0  0  0  0  0  0  0  0  0  0  0
    6.8430    1.8920   31.1050 C   0  0  0  0  0  0  0  0  0  0  0  0
    5.8320   -1.3110   26.9030 C   0  0  0  0  0  0  0  0  0  0  0  0
    6.7000   -0.6500   27.9160 C   0  0  0  0  0  0  0  0  0  0  0  0
    6.3840    0.8150   28.1310 C   0  0  0  0  0  0  0  0  0  0  0  0
    5.7170    1.4420   27.1170 O   0  0  0  0  0  0  0  0  0  0  0  0
    5.0760    0.5850   26.2110 C   0  0  0  0  0  0  0  0  0  0  0  0
    5.8550   -0.2650   25.8010 C   0  0  0  0  0  0  0  0  0  0  0  0
    6.1030   -4.9430   23.7250 C   0  0  0  0  0  0  0  0  0  0  0  0
    6.5730   -5.3000   22.4770 C   0  0  0  0  0  0  0  0  0  0  0  0
  1  2  1  0
  2  3  2  0
  2  4  1  0
  4  5  1  0
  5  6  1  0
  6  7  1  0
  7  8  1  0
  8  9  2  0
  8 10  1  0
 10 11  1  0
 11 12  1  0
 12 13  1  0
 13 14  2  0
 13 15  1  0
 16 15  1  0
 16 17  1  0
 16 18  1  0
 16 19  1  0
 10 20  1  0
 20 21  1  0
 21 22  1  0
 22 23  1  0
 23 24  1  0
 20 25  1  0
 24 25  1  0
  7 26  1  0
  4 27  1  0
 26 27  1  0
M  END
