piperidine-amides-30756-covalent
     RDKit          3D

 26 27  0  0  0  0  0  0  0  0999 V2000
    7.0880   -3.2720   19.1990 C   0  0  0  0  0  0  0  0  0  0  0  0
    6.3340   -4.0040   20.2240 C   0  0  0  0  0  0  0  0  0  0  0  0
    5.2970   -4.6050   19.9030 O   0  0  0  0  0  0  0  0  0  0  0  0
    6.7850   -4.0800   21.5480 N   0  0  0  0  0  0  0  0  0  0  0  0
    7.7270   -3.1160   22.0880 C   0  0  0  0  0  0  0  0  0  0  0  0
    7.6040   -3.2120   23.5730 C   0  0  0  0  0  0  0  0  0  0  0  0
    6.2010   -3.5630   23.9670 C   0  0  0  0  0  0  0  0  0  0  0  0
    5.8840   -3.3560   25.4030 C   0  0  0  0  0  0  0  0  0  0  0  0
    4.6710   -3.3840   25.7790 O   0  0  0  0  0  0  0  0  0  0  0  0
    6.8710   -3.1040   26.4000 N   0  0  0  0  0  0  0  0  0  0  0  0
    7.5420   -4.2100   27.1380 C   0  0  0  0  0  0  0  0  0  0  0  0
    6.5270   -5.1770   27.6360 C   0  0  0  0  0  0  0  0  0  0  0  0
    6.0810   -5.9280   26.5610 F   0  0  0  0  0  0  0  0  0  0  0  0
    5.3760   -4.4950   28.0720 F   0  0  0  0  0  0  0  0  0  0  0  0
    6.9300   -5.9140   28.7040 F   0  0  0  0  0  0  0  0  0  0  0  0
    7.1330   -1.7010   26.7660 C   0  0  2  0  0  0  0  0  0  0  0  0
    8.1540   -1.0690   25.8520 C   0  0  0  0  0  0  0  0  0  0  0  0
    9.4220   -1.2160   26.3370 O   0  0  0  0  0  0  0  0  0  0  0  0
    7.8210   -0.4440   24.6940 O   0  0  0  0  0  0  0  0  0  0  0  0
    6.9800    0.6940   24.6640 C   0  0  0  0  0  0  0  0  0  0  0  0
    7.6500   -1.4710   28.2150 C   0  0  0  0  0  0  0  0  0  0  0  0
    6.7660   -0.9140   29.2280 C   0  0  0  0  0  0  0  0  0  0  0  0
    7.1800    0.3690   29.3000 O   0  0  0  0  0  0  0  0  0  0  0  0
    8.0560    0.0000   28.4100 C   0  0  0  0  0  0  0  0  0  0  0  0
    5.8110   -4.9900   23.5390 C   0  0  0  0  0  0  0  0  0  0  0  0
    6.5790   -5.3300   22.2570 C   0  0  0  0  0  0  0  0  0  0  0  0
  1  2  1  0
  2  3  2  0
  2  4  1  0
  4  5  1  0
  5  6  1  0
  6  7  1  0
  7  8  1  0
  8  9  2  0
  8 10  1  0
 10 11  1  0
 11 12  1  0
 12 13  1  0
 12 14  1  0
 12 15  1  0
 10 16  1  0
 16 17  1  6
 17 18  2  0
 17 19  1  0
 19 20  1  0
 16 21  1  0
 21 22  1  0
 22 23  1  0
 21 24  1  0
 23 24  1  0
  7 25  1  0
  4 26  1  0
 25 26  1  0
M  END
