piperidine-amides-13121-covalent
     RDKit          3D

 23 25  0  0  0  0  0  0  0  0999 V2000
    7.0950   -3.2690   19.2130 C   0  0  0  0  0  0  0  0  0  0  0  0
    6.3950   -4.0690   20.2390 C   0  0  0  0  0  0  0  0  0  0  0  0
    5.3230   -4.6020   19.9030 O   0  0  0  0  0  0  0  0  0  0  0  0
    6.9620   -4.2470   21.5080 N   0  0  0  0  0  0  0  0  0  0  0  0
    7.4850   -3.1250   22.1950 C   0  0  0  0  0  0  0  0  0  0  0  0
    6.6010   -2.6450   23.2650 C   0  0  0  0  0  0  0  0  0  0  0  0
    5.9820   -3.7060   24.1030 C   0  0  0  0  0  0  0  0  0  0  0  0
    4.7480   -3.2140   24.7920 C   0  0  0  0  0  0  0  0  0  0  0  0
    3.6920   -3.8120   24.5500 O   0  0  0  0  0  0  0  0  0  0  0  0
    4.7040   -2.1300   25.6920 N   0  0  0  0  0  0  0  0  0  0  0  0
    4.8840   -2.3190   27.1420 C   0  0  0  0  0  0  0  0  0  0  0  0
    6.3020   -2.4800   27.2910 C   0  0  0  0  0  0  0  0  0  0  0  0
    6.8490   -3.0690   28.4790 C   0  0  0  0  0  0  0  0  0  0  0  0
    8.0860   -3.6060   28.2770 C   0  0  0  0  0  0  0  0  0  0  0  0
    8.2670   -3.4990   26.8730 N   0  0  0  0  0  0  0  0  0  0  0  0
    7.9270   -4.5810   25.9980 C   0  0  0  0  0  0  0  0  0  0  0  0
    8.2960   -5.7360   26.5290 C   0  0  0  0  0  0  0  0  0  0  0  0
    8.9360   -5.8120   27.5270 C   0  0  0  0  0  0  0  0  0  0  0  0
    9.6000   -6.3300   26.3780 C   0  0  0  0  0  0  0  0  0  0  0  0
    8.2640   -2.3100   26.1160 C   0  0  0  0  0  0  0  0  0  0  0  0
    7.1340   -1.6050   26.6910 C   0  0  0  0  0  0  0  0  0  0  0  0
    5.5970   -4.9580   23.3660 C   0  0  0  0  0  0  0  0  0  0  0  0
    6.5960   -5.3740   22.3180 C   0  0  0  0  0  0  0  0  0  0  0  0
  1  2  1  0
  2  3  2  0
  2  4  1  0
  4  5  1  0
  5  6  1  0
  6  7  1  0
  7  8  1  0
  8  9  2  0
  8 10  1  0
 10 11  1  0
 11 12  1  0
 12 13  1  0
 13 14  1  0
 14 15  1  0
 15 16  1  0
 16 17  1  0
 17 18  1  0
 17 19  1  0
 18 19  1  0
 15 20  1  0
 12 21  1  0
 20 21  1  0
  7 22  1  0
  4 23  1  0
 22 23  1  0
M  END
