piperidine-amides-30930-covalent
     RDKit          3D

 27 28  0  0  0  0  0  0  0  0999 V2000
    7.0210   -3.3290   19.3980 C   0  0  0  0  0  0  0  0  0  0  0  0
    6.3650   -4.1660   20.4130 C   0  0  0  0  0  0  0  0  0  0  0  0
    5.4520   -4.9170   20.0150 O   0  0  0  0  0  0  0  0  0  0  0  0
    6.7490   -4.1750   21.7920 N   0  0  0  0  0  0  0  0  0  0  0  0
    7.5730   -3.1220   22.3950 C   0  0  0  0  0  0  0  0  0  0  0  0
    7.0550   -2.8130   23.8070 C   0  0  0  0  0  0  0  0  0  0  0  0
    5.7820   -3.5600   24.0780 C   0  0  0  0  0  0  0  0  0  0  0  0
    4.9550   -3.2640   25.3300 C   0  0  0  0  0  0  0  0  0  0  0  0
    3.7070   -3.3440   25.1830 O   0  0  0  0  0  0  0  0  0  0  0  0
    5.3220   -2.8970   26.6810 N   0  0  0  0  0  0  0  0  0  0  0  0
    6.5830   -3.2070   27.2140 C   0  0  0  0  0  0  0  0  0  0  0  0
    6.4520   -4.4660   28.0470 C   0  0  0  0  0  0  0  0  0  0  0  0
    5.2800   -4.6520   28.9310 C   0  0  0  0  0  0  0  0  0  0  0  0
    4.9690   -6.0640   29.4230 C   0  0  1  0  0  0  0  0  0  0  0  0
    5.2030   -6.9160   28.1920 C   0  0  0  0  0  0  0  0  0  0  0  0
    5.8070   -6.3730   30.5230 N   0  0  0  0  0  0  0  0  0  0  0  0
    5.3350   -6.7780   31.8390 C   0  0  0  0  0  0  0  0  0  0  0  0
    4.0570   -7.1780   32.1160 O   0  0  0  0  0  0  0  0  0  0  0  0
    6.1420   -6.7650   32.8110 O   0  0  0  0  0  0  0  0  0  0  0  0
    5.8670   -7.1070   34.1410 C   0  0  0  0  0  0  0  0  0  0  0  0
    6.9290   -6.8180   35.0190 C   0  0  0  0  0  0  0  0  0  0  0  0
    5.7120   -6.0330   35.2340 C   0  0  0  0  0  0  0  0  0  0  0  0
    4.4660   -6.5600   34.5840 C   0  0  0  0  0  0  0  0  0  0  0  0
    4.2890   -4.2560   27.8970 C   0  0  0  0  0  0  0  0  0  0  0  0
    4.3330   -3.0730   27.6900 C   0  0  0  0  0  0  0  0  0  0  0  0
    5.9000   -5.0110   23.8440 C   0  0  0  0  0  0  0  0  0  0  0  0
    6.4800   -5.3180   22.6200 C   0  0  0  0  0  0  0  0  0  0  0  0
  1  2  1  0
  2  3  2  0
  2  4  1  0
  4  5  1  0
  5  6  1  0
  6  7  1  0
  7  8  1  0
  8  9  2  0
  8 10  1  0
 10 11  1  0
 11 12  1  0
 12 13  1  0
 13 14  1  0
 14 15  1  6
 14 16  1  0
 16 17  1  0
 17 18  2  0
 17 19  1  0
 20 19  1  0
 20 21  1  0
 20 22  1  0
 20 23  1  0
 13 24  1  0
 10 25  1  0
 24 25  1  0
  7 26  1  0
  4 27  1  0
 26 27  1  0
M  END
