piperidine-amides-30309-covalent
     RDKit          3D

 27 29  0  0  0  0  0  0  0  0999 V2000
    7.0300   -3.3980   19.4570 C   0  0  0  0  0  0  0  0  0  0  0  0
    6.3400   -4.2430   20.4280 C   0  0  0  0  0  0  0  0  0  0  0  0
    5.4200   -4.9550   20.0190 O   0  0  0  0  0  0  0  0  0  0  0  0
    6.7450   -4.2880   21.8230 N   0  0  0  0  0  0  0  0  0  0  0  0
    7.6330   -3.2770   22.3680 C   0  0  0  0  0  0  0  0  0  0  0  0
    7.1880   -2.9080   23.7570 C   0  0  0  0  0  0  0  0  0  0  0  0
    5.8570   -3.6140   23.9310 C   0  0  0  0  0  0  0  0  0  0  0  0
    4.9710   -3.0600   25.0430 C   0  0  0  0  0  0  0  0  0  0  0  0
    3.9640   -2.4090   24.7490 O   0  0  0  0  0  0  0  0  0  0  0  0
    5.1850   -3.2340   26.4440 N   0  0  0  0  0  0  0  0  0  0  0  0
    6.2370   -4.0480   26.7320 C   0  0  0  0  0  0  0  0  0  0  0  0
    6.4880   -4.2420   28.2180 C   0  0  0  0  0  0  0  0  0  0  0  0
    5.5710   -3.8330   29.1280 C   0  0  0  0  0  0  0  0  0  0  0  0
    4.8360   -4.8610   29.6700 C   0  0  0  0  0  0  0  0  0  0  0  0
    4.0360   -4.7750   30.7890 N   0  0  0  0  0  0  0  0  0  0  0  0
    3.5550   -6.0450   30.9010 C   0  0  0  0  0  0  0  0  0  0  0  0
    2.6640   -6.4920   31.9510 N   0  0  0  0  0  0  0  0  0  0  0  0
    3.4790   -7.1290   32.9150 C   0  0  0  0  0  0  0  0  0  0  0  0
    4.8370   -7.3470   32.7770 C   0  0  0  0  0  0  0  0  0  0  0  0
    2.9410   -7.5390   33.9980 O   0  0  0  0  0  0  0  0  0  0  0  0
    4.0460   -6.8030   29.8930 N   0  0  0  0  0  0  0  0  0  0  0  0
    3.6980   -8.1730   29.7730 C   0  0  0  0  0  0  0  0  0  0  0  0
    4.8540   -6.0590   29.1160 N   0  0  0  0  0  0  0  0  0  0  0  0
    4.8060   -2.8390   28.6570 C   0  0  0  0  0  0  0  0  0  0  0  0
    5.2580   -2.1930   27.4280 C   0  0  0  0  0  0  0  0  0  0  0  0
    6.0160   -5.1290   23.8820 C   0  0  0  0  0  0  0  0  0  0  0  0
    6.5120   -5.4870   22.6070 C   0  0  0  0  0  0  0  0  0  0  0  0
  1  2  1  0
  2  3  2  0
  2  4  1  0
  4  5  1  0
  5  6  1  0
  6  7  1  0
  7  8  1  0
  8  9  2  0
  8 10  1  0
 10 11  1  0
 11 12  1  0
 12 13  1  0
 13 14  1  0
 14 15  1  0
 15 16  2  0
 16 17  1  0
 17 18  1  0
 18 19  1  0
 18 20  2  0
 16 21  1  0
 21 22  1  0
 14 23  2  0
 21 23  1  0
 13 24  1  0
 10 25  1  0
 24 25  1  0
  7 26  1  0
  4 27  1  0
 26 27  1  0
M  END
