piperidine-amides-4898-covalent
     RDKit          3D

 23 24  0  0  0  0  0  0  0  0999 V2000
    7.0960   -3.2480   19.1710 C   0  0  0  0  0  0  0  0  0  0  0  0
    6.3170   -3.9950   20.1890 C   0  0  0  0  0  0  0  0  0  0  0  0
    5.2290   -4.4770   19.8350 O   0  0  0  0  0  0  0  0  0  0  0  0
    6.8210   -4.1860   21.4730 N   0  0  0  0  0  0  0  0  0  0  0  0
    7.4660   -3.0980   22.1310 C   0  0  0  0  0  0  0  0  0  0  0  0
    6.7500   -2.6130   23.3080 C   0  0  0  0  0  0  0  0  0  0  0  0
    6.2440   -3.7000   24.1740 C   0  0  0  0  0  0  0  0  0  0  0  0
    5.4650   -3.1670   25.3280 C   0  0  0  0  0  0  0  0  0  0  0  0
    4.2870   -2.8150   25.1380 O   0  0  0  0  0  0  0  0  0  0  0  0
    6.0420   -3.0770   26.6130 N   0  0  0  0  0  0  0  0  0  0  0  0
    6.9900   -4.1130   27.0600 C   0  0  0  0  0  0  0  0  0  0  0  0
    7.8490   -4.4970   25.9130 C   0  0  2  0  0  0  0  0  0  0  0  0
    8.4470   -3.4070   25.1500 C   0  0  0  0  0  0  0  0  0  0  0  0
    7.7050   -5.6250   25.3300 O   0  0  0  0  0  0  0  0  0  0  0  0
    9.2660   -4.2320   25.8210 C   0  0  0  0  0  0  0  0  0  0  0  0
    9.9010   -3.4690   24.8650 C   0  0  0  0  0  0  0  0  0  0  0  0
   11.2370   -3.4550   25.1070 C   0  0  0  0  0  0  0  0  0  0  0  0
   12.2120   -2.8100   24.4030 C   0  0  0  0  0  0  0  0  0  0  0  0
   11.4660   -4.2470   26.2510 O   0  0  0  0  0  0  0  0  0  0  0  0
   10.1710   -4.6980   26.6670 C   0  0  0  0  0  0  0  0  0  0  0  0
    9.7640   -5.4680   27.7250 C   0  0  0  0  0  0  0  0  0  0  0  0
    5.5510   -4.7940   23.4540 C   0  0  0  0  0  0  0  0  0  0  0  0
    6.3930   -5.3050   22.3050 C   0  0  0  0  0  0  0  0  0  0  0  0
  1  2  1  0
  2  3  2  0
  2  4  1  0
  4  5  1  0
  5  6  1  0
  6  7  1  0
  7  8  1  0
  8  9  2  0
  8 10  1  0
 10 11  1  0
 11 12  1  0
 12 13  1  6
 12 14  1  0
 12 15  1  0
 15 16  1  0
 16 17  2  0
 17 18  1  0
 17 19  1  0
 15 20  2  0
 19 20  1  0
 20 21  1  0
  7 22  1  0
  4 23  1  0
 22 23  1  0
M  END
