piperidine-amides-2726-covalent
     RDKit          3D

 25 27  0  0  0  0  0  0  0  0999 V2000
    7.1140   -3.3710   19.2850 C   0  0  0  0  0  0  0  0  0  0  0  0
    6.3950   -4.1670   20.2630 C   0  0  0  0  0  0  0  0  0  0  0  0
    5.3370   -4.7130   19.9510 O   0  0  0  0  0  0  0  0  0  0  0  0
    6.9620   -4.3760   21.5620 N   0  0  0  0  0  0  0  0  0  0  0  0
    6.5580   -5.5030   22.3440 C   0  0  0  0  0  0  0  0  0  0  0  0
    5.8040   -5.0130   23.5470 C   0  0  0  0  0  0  0  0  0  0  0  0
    6.5100   -3.7760   24.0930 C   0  0  0  0  0  0  0  0  0  0  0  0
    5.6680   -3.1490   25.1290 C   0  0  0  0  0  0  0  0  0  0  0  0
    4.5230   -2.7140   24.9090 O   0  0  0  0  0  0  0  0  0  0  0  0
    6.2000   -3.0650   26.4130 N   0  0  0  0  0  0  0  0  0  0  0  0
    6.2710   -1.7810   27.0590 C   0  0  0  0  0  0  0  0  0  0  0  0
    6.0810   -0.4170   26.4690 C   0  0  0  0  0  0  0  0  0  0  0  0
    6.1920    0.7130   27.2630 C   0  0  0  0  0  0  0  0  0  0  0  0
    6.4910    0.5940   28.6390 C   0  0  0  0  0  0  0  0  0  0  0  0
    6.6760   -0.6450   29.2320 C   0  0  0  0  0  0  0  0  0  0  0  0
    6.5750   -1.8920   28.4990 C   0  0  0  0  0  0  0  0  0  0  0  0
    6.7110   -3.5430   28.8660 S   0  0  0  0  0  0  0  0  0  0  0  0
    5.0970   -3.9920   29.1410 C   0  0  0  0  0  0  0  0  0  0  0  0
    5.1820   -5.3150   29.5320 C   0  0  2  0  0  0  0  0  0  0  0  0
    4.2400   -6.2000   29.3340 C   0  0  0  0  0  0  0  0  0  0  0  0
    4.2310   -5.9930   30.6670 C   0  0  0  0  0  0  0  0  0  0  0  0
    2.8000   -5.1990   31.3270 Cl  0  0  0  0  0  0  0  0  0  0  0  0
    5.0260   -7.2070   31.7180 Cl  0  0  0  0  0  0  0  0  0  0  0  0
    6.8760   -2.7310   23.0630 C   0  0  0  0  0  0  0  0  0  0  0  0
    7.7460   -3.3520   22.1940 C   0  0  0  0  0  0  0  0  0  0  0  0
  1  2  1  0
  2  3  2  0
  2  4  1  0
  4  5  1  0
  5  6  1  0
  6  7  1  0
  7  8  1  0
  8  9  2  0
  8 10  1  0
 10 11  1  0
 11 12  2  0
 12 13  1  0
 13 14  2  0
 14 15  1  0
 11 16  1  0
 15 16  2  0
 16 17  1  0
 17 18  1  0
 19 18  1  6
 19 20  1  0
 19 21  1  0
 20 21  1  0
 21 22  1  0
 21 23  1  0
  7 24  1  0
  4 25  1  0
 24 25  1  0
M  END
