piperidine-amides-26831-covalent
     RDKit          3D

 25 27  0  0  0  0  0  0  0  0999 V2000
    7.1020   -3.2800   19.2280 C   0  0  0  0  0  0  0  0  0  0  0  0
    6.3680   -4.0340   20.2490 C   0  0  0  0  0  0  0  0  0  0  0  0
    5.2850   -4.5560   19.8910 O   0  0  0  0  0  0  0  0  0  0  0  0
    6.9030   -4.1890   21.5270 N   0  0  0  0  0  0  0  0  0  0  0  0
    6.6380   -5.3580   22.3350 C   0  0  0  0  0  0  0  0  0  0  0  0
    5.9030   -4.9050   23.5660 C   0  0  0  0  0  0  0  0  0  0  0  0
    6.5730   -3.7470   24.2750 C   0  0  0  0  0  0  0  0  0  0  0  0
    5.6710   -3.2780   25.3500 C   0  0  0  0  0  0  0  0  0  0  0  0
    4.4490   -3.2530   25.0890 O   0  0  0  0  0  0  0  0  0  0  0  0
    6.0610   -2.8640   26.6450 N   0  0  0  0  0  0  0  0  0  0  0  0
    5.3040   -1.7790   27.2280 C   0  0  0  0  0  0  0  0  0  0  0  0
    5.1430   -2.5510   28.4290 C   0  0  0  0  0  0  0  0  0  0  0  0
    5.4990   -1.7480   29.6150 N   0  0  0  0  0  0  0  0  0  0  0  0
    6.2580   -0.6650   29.5020 C   0  0  0  0  0  0  0  0  0  0  0  0
    6.8580   -0.2140   30.6600 C   0  0  0  0  0  0  0  0  0  0  0  0
    6.0000    0.1680   31.6250 N   0  0  0  0  0  0  0  0  0  0  0  0
    6.6540    0.6840   32.7860 C   0  0  0  0  0  0  0  0  0  0  0  0
    7.9630    0.2630   32.9460 C   0  0  0  0  0  0  0  0  0  0  0  0
    6.6000    2.0360   32.5570 C   0  0  0  0  0  0  0  0  0  0  0  0
    5.8220    0.2860   33.8120 C   0  0  0  0  0  0  0  0  0  0  0  0
    4.8250   -0.4890   31.6280 C   0  0  0  0  0  0  0  0  0  0  0  0
    4.4020   -1.4380   30.5260 C   0  0  0  0  0  0  0  0  0  0  0  0
    6.0560   -3.5360   28.0310 C   0  0  0  0  0  0  0  0  0  0  0  0
    6.9290   -2.6150   23.3800 C   0  0  0  0  0  0  0  0  0  0  0  0
    7.6080   -3.0930   22.1250 C   0  0  0  0  0  0  0  0  0  0  0  0
  1  2  1  0
  2  3  2  0
  2  4  1  0
  4  5  1  0
  5  6  1  0
  6  7  1  0
  7  8  1  0
  8  9  2  0
  8 10  1  0
 10 11  1  0
 11 12  1  0
 12 13  1  0
 13 14  1  0
 14 15  1  0
 15 16  1  0
 16 17  1  0
 17 18  1  0
 17 19  1  0
 17 20  1  0
 16 21  1  0
 13 22  1  0
 21 22  1  0
 10 23  1  0
 12 23  1  0
  7 24  1  0
  4 25  1  0
 24 25  1  0
M  END
