piperidine-amides-15266-covalent
     RDKit          3D

 19 19  0  0  0  0  0  0  0  0999 V2000
    7.1470   -3.2490   19.1880 C   0  0  0  0  0  0  0  0  0  0  0  0
    6.3720   -4.0150   20.1770 C   0  0  0  0  0  0  0  0  0  0  0  0
    5.2780   -4.5290   19.8720 O   0  0  0  0  0  0  0  0  0  0  0  0
    6.8810   -4.2210   21.4570 N   0  0  0  0  0  0  0  0  0  0  0  0
    7.6480   -3.1740   22.1000 C   0  0  0  0  0  0  0  0  0  0  0  0
    6.7600   -2.6030   23.2040 C   0  0  0  0  0  0  0  0  0  0  0  0
    6.6050   -3.7290   24.1870 C   0  0  0  0  0  0  0  0  0  0  0  0
    5.8280   -3.2590   25.3470 C   0  0  0  0  0  0  0  0  0  0  0  0
    4.7120   -2.7380   25.1410 O   0  0  0  0  0  0  0  0  0  0  0  0
    6.3600   -3.4100   26.6480 N   0  0  0  0  0  0  0  0  0  0  0  0
    5.8570   -4.4400   27.5120 C   0  0  2  0  0  0  0  0  0  0  0  0
    5.9720   -5.7560   26.7820 C   0  0  0  0  0  0  0  0  0  0  0  0
    4.4130   -4.1420   27.7060 C   0  0  0  0  0  0  0  0  0  0  0  0
    3.6660   -4.9930   28.2710 O   0  0  0  0  0  0  0  0  0  0  0  0
    6.4910   -4.5110   28.8170 C   0  0  0  0  0  0  0  0  0  0  0  0
    6.1250   -5.4720   29.7040 O   0  0  0  0  0  0  0  0  0  0  0  0
    6.3810   -6.7720   29.3470 C   0  0  0  0  0  0  0  0  0  0  0  0
    5.9740   -4.9410   23.5920 C   0  0  0  0  0  0  0  0  0  0  0  0
    6.4730   -5.3590   22.2340 C   0  0  0  0  0  0  0  0  0  0  0  0
  1  2  1  0
  2  3  2  0
  2  4  1  0
  4  5  1  0
  5  6  1  0
  6  7  1  0
  7  8  1  0
  8  9  2  0
  8 10  1  0
 11 10  1  0
 11 12  1  6
 11 13  1  0
 13 14  1  0
 11 15  1  0
 15 16  1  0
 16 17  1  0
  7 18  1  0
  4 19  1  0
 18 19  1  0
M  END
