piperidine-amides-8599-covalent
     RDKit          3D

 23 25  0  0  0  0  0  0  0  0999 V2000
    7.0200   -3.3420   19.3690 C   0  0  0  0  0  0  0  0  0  0  0  0
    6.3790   -4.1980   20.3670 C   0  0  0  0  0  0  0  0  0  0  0  0
    5.3970   -4.8680   19.9910 O   0  0  0  0  0  0  0  0  0  0  0  0
    6.8840   -4.2870   21.7000 N   0  0  0  0  0  0  0  0  0  0  0  0
    7.6700   -3.1890   22.2330 C   0  0  0  0  0  0  0  0  0  0  0  0
    7.4530   -3.0360   23.7160 C   0  0  0  0  0  0  0  0  0  0  0  0
    6.0790   -3.5950   23.9920 C   0  0  0  0  0  0  0  0  0  0  0  0
    5.5060   -3.1920   25.3310 C   0  0  0  0  0  0  0  0  0  0  0  0
    4.2800   -3.1630   25.3740 O   0  0  0  0  0  0  0  0  0  0  0  0
    6.3300   -2.8930   26.4190 N   0  0  0  0  0  0  0  0  0  0  0  0
    6.7800   -1.5630   26.7450 C   0  0  2  0  0  0  0  0  0  0  0  0
    7.1380   -1.3920   28.1760 C   0  0  0  0  0  0  0  0  0  0  0  0
    7.1210   -0.7400   29.3600 C   0  0  0  0  0  0  0  0  0  0  0  0
    6.3450    0.4330   29.2280 C   0  0  0  0  0  0  0  0  0  0  0  0
    6.2960    1.1970   30.5170 C   0  0  0  0  0  0  0  0  0  0  0  0
    5.7780    0.6560   27.9450 C   0  0  0  0  0  0  0  0  0  0  0  0
    6.1390   -0.4390   26.9790 C   0  0  0  0  0  0  0  0  0  0  0  0
    6.4820   -0.2450   28.3620 C   0  0  0  0  0  0  0  0  0  0  0  0
    5.6710    0.5130   27.3970 C   0  0  0  0  0  0  0  0  0  0  0  0
    5.6270   -0.5120   26.4820 C   0  0  1  0  0  0  0  0  0  0  0  0
    5.5600   -0.0840   25.1640 C   0  0  0  0  0  0  0  0  0  0  0  0
    6.0660   -5.0740   23.8430 C   0  0  0  0  0  0  0  0  0  0  0  0
    6.6350   -5.4580   22.5040 C   0  0  0  0  0  0  0  0  0  0  0  0
  1  2  1  0
  2  3  2  0
  2  4  1  0
  4  5  1  0
  5  6  1  0
  6  7  1  0
  7  8  1  0
  8  9  2  0
  8 10  1  0
 11 10  1  1
 11 12  1  0
 12 13  2  0
 13 14  1  0
 14 15  1  0
 14 16  2  0
 16 17  1  0
 12 18  1  0
 17 18  2  0
 18 19  1  0
 11 20  1  0
 19 20  1  0
 20 21  1  6
  7 22  1  0
  4 23  1  0
 22 23  1  0
M  END
