piperidine-amides-12477-covalent
     RDKit          3D

 23 24  0  0  0  0  0  0  0  0999 V2000
    7.1580   -3.2820   19.2390 C   0  0  0  0  0  0  0  0  0  0  0  0
    6.3410   -4.0180   20.1900 C   0  0  0  0  0  0  0  0  0  0  0  0
    5.2520   -4.4760   19.8530 O   0  0  0  0  0  0  0  0  0  0  0  0
    6.8440   -4.2740   21.5020 N   0  0  0  0  0  0  0  0  0  0  0  0
    7.6240   -3.2710   22.1840 C   0  0  0  0  0  0  0  0  0  0  0  0
    6.9170   -2.8200   23.4280 C   0  0  0  0  0  0  0  0  0  0  0  0
    6.2700   -4.0240   24.1000 C   0  0  0  0  0  0  0  0  0  0  0  0
    5.3770   -3.5290   25.1730 C   0  0  0  0  0  0  0  0  0  0  0  0
    4.3090   -2.9340   24.9450 O   0  0  0  0  0  0  0  0  0  0  0  0
    5.7610   -3.7360   26.5020 N   0  0  0  0  0  0  0  0  0  0  0  0
    5.5090   -5.0180   27.1360 C   0  0  2  0  0  0  0  0  0  0  0  0
    4.1570   -5.1310   27.6440 C   0  0  0  0  0  0  0  0  0  0  0  0
    4.7270   -5.2940   28.8590 C   0  0  1  0  0  0  0  0  0  0  0  0
    4.8190   -6.5450   29.5100 C   0  0  0  0  0  0  0  0  0  0  0  0
    4.6540   -6.5410   30.8890 C   0  0  0  0  0  0  0  0  0  0  0  0
    5.6480   -6.6240   31.6590 O   0  0  0  0  0  0  0  0  0  0  0  0
    3.4220   -6.4480   31.5020 O   0  0  0  0  0  0  0  0  0  0  0  0
    3.2880   -5.7690   32.6670 C   0  0  0  0  0  0  0  0  0  0  0  0
    6.0780   -5.1850   28.4080 C   0  0  0  0  0  0  0  0  0  0  0  0
    6.9350   -6.2500   28.5380 C   0  0  0  0  0  0  0  0  0  0  0  0
    6.7360   -3.9140   28.8510 C   0  0  0  0  0  0  0  0  0  0  0  0
    5.5750   -4.9830   23.2600 C   0  0  0  0  0  0  0  0  0  0  0  0
    6.4160   -5.4090   22.2560 C   0  0  0  0  0  0  0  0  0  0  0  0
  1  2  1  0
  2  3  2  0
  2  4  1  0
  4  5  1  0
  5  6  1  0
  6  7  1  0
  7  8  1  0
  8  9  2  0
  8 10  1  0
 11 10  1  1
 11 12  1  0
 12 13  1  0
 13 14  1  6
 14 15  1  0
 15 16  2  0
 15 17  1  0
 17 18  1  0
 11 19  1  0
 13 19  1  0
 19 20  1  0
 19 21  1  0
  7 22  1  0
  4 23  1  0
 22 23  1  0
M  END
