piperidine-amides-14528-covalent
     RDKit          3D

 23 24  0  0  0  0  0  0  0  0999 V2000
    7.1280   -3.2800   19.2340 C   0  0  0  0  0  0  0  0  0  0  0  0
    6.4020   -4.0650   20.2300 C   0  0  0  0  0  0  0  0  0  0  0  0
    5.3140   -4.5660   19.8970 O   0  0  0  0  0  0  0  0  0  0  0  0
    6.9630   -4.2950   21.5120 N   0  0  0  0  0  0  0  0  0  0  0  0
    6.5520   -5.4520   22.2450 C   0  0  0  0  0  0  0  0  0  0  0  0
    5.7550   -5.0020   23.4300 C   0  0  0  0  0  0  0  0  0  0  0  0
    6.5710   -3.9200   24.1030 C   0  0  0  0  0  0  0  0  0  0  0  0
    5.7840   -3.3250   25.2210 C   0  0  0  0  0  0  0  0  0  0  0  0
    4.6750   -2.8860   24.9370 O   0  0  0  0  0  0  0  0  0  0  0  0
    6.3510   -3.3120   26.4770 N   0  0  0  0  0  0  0  0  0  0  0  0
    5.8830   -4.1620   27.5120 C   0  0  1  0  0  0  0  0  0  0  0  0
    5.9480   -5.5650   27.3780 C   0  0  0  0  0  0  0  0  0  0  0  0
    6.5880   -3.7920   28.7330 C   0  0  0  0  0  0  0  0  0  0  0  0
    7.0670   -2.5040   28.8110 O   0  0  0  0  0  0  0  0  0  0  0  0
    4.4650   -3.7430   27.7760 C   0  0  0  0  0  0  0  0  0  0  0  0
    4.2670   -2.7310   28.8370 C   0  0  0  0  0  0  0  0  0  0  0  0
    2.8940   -2.1780   29.2480 C   0  0  0  0  0  0  0  0  0  0  0  0
    1.6980   -2.7020   28.5220 C   0  0  0  0  0  0  0  0  0  0  0  0
    1.8870   -3.7420   27.4260 C   0  0  0  0  0  0  0  0  0  0  0  0
    0.7970   -4.1970   26.7880 N   0  0  0  0  0  0  0  0  0  0  0  0
    3.3400   -4.2100   27.1200 C   0  0  0  0  0  0  0  0  0  0  0  0
    6.8330   -2.7900   23.1440 C   0  0  0  0  0  0  0  0  0  0  0  0
    7.7090   -3.2710   22.2050 C   0  0  0  0  0  0  0  0  0  0  0  0
  1  2  1  0
  2  3  2  0
  2  4  1  0
  4  5  1  0
  5  6  1  0
  6  7  1  0
  7  8  1  0
  8  9  2  0
  8 10  1  0
 11 10  1  0
 11 12  1  6
 11 13  1  0
 13 14  1  0
 11 15  1  0
 15 16  2  0
 16 17  1  0
 17 18  2  0
 18 19  1  0
 19 20  1  0
 15 21  1  0
 19 21  2  0
  7 22  1  0
  4 23  1  0
 22 23  1  0
M  END
