piperidine-amides-24495-covalent
     RDKit          3D

 24 25  0  0  0  0  0  0  0  0999 V2000
    7.0710   -3.2840   19.2260 C   0  0  0  0  0  0  0  0  0  0  0  0
    6.3300   -4.0700   20.2280 C   0  0  0  0  0  0  0  0  0  0  0  0
    5.2830   -4.6710   19.9150 O   0  0  0  0  0  0  0  0  0  0  0  0
    6.8130   -4.1930   21.5300 N   0  0  0  0  0  0  0  0  0  0  0  0
    7.5770   -3.0950   22.0810 C   0  0  0  0  0  0  0  0  0  0  0  0
    7.3390   -3.1070   23.5870 C   0  0  0  0  0  0  0  0  0  0  0  0
    5.9500   -3.6240   23.8140 C   0  0  0  0  0  0  0  0  0  0  0  0
    5.5170   -3.3650   25.2020 C   0  0  0  0  0  0  0  0  0  0  0  0
    4.2890   -3.3560   25.4200 O   0  0  0  0  0  0  0  0  0  0  0  0
    6.4470   -3.1090   26.2430 N   0  0  0  0  0  0  0  0  0  0  0  0
    6.6780   -1.7280   26.5650 C   0  0  0  0  0  0  0  0  0  0  0  0
    6.4260   -4.0180   27.3730 C   0  0  2  0  0  0  0  0  0  0  0  0
    6.7970   -5.2530   26.9110 C   0  0  0  0  0  0  0  0  0  0  0  0
    6.4020   -6.2470   27.5650 O   0  0  0  0  0  0  0  0  0  0  0  0
    6.8710   -6.2990   28.8370 C   0  0  0  0  0  0  0  0  0  0  0  0
    5.0930   -4.1010   27.9320 C   0  0  0  0  0  0  0  0  0  0  0  0
    4.7460   -3.2420   28.8780 C   0  0  0  0  0  0  0  0  0  0  0  0
    3.4950   -3.0300   29.6640 C   0  0  0  0  0  0  0  0  0  0  0  0
    2.6810   -4.1790   29.0120 C   0  0  0  0  0  0  0  0  0  0  0  0
    1.4460   -4.2110   29.5750 F   0  0  0  0  0  0  0  0  0  0  0  0
    2.8540   -5.2760   27.9360 C   0  0  0  0  0  0  0  0  0  0  0  0
    4.2300   -5.0370   27.4950 C   0  0  0  0  0  0  0  0  0  0  0  0
    5.9540   -5.0940   23.5180 C   0  0  0  0  0  0  0  0  0  0  0  0
    6.4730   -5.3570   22.2850 C   0  0  0  0  0  0  0  0  0  0  0  0
  1  2  1  0
  2  3  2  0
  2  4  1  0
  4  5  1  0
  5  6  1  0
  6  7  1  0
  7  8  1  0
  8  9  2  0
  8 10  1  0
 10 11  1  0
 10 12  1  0
 12 13  1  6
 13 14  1  0
 14 15  1  0
 12 16  1  0
 16 17  2  0
 17 18  1  0
 18 19  2  0
 19 20  1  0
 19 21  1  0
 16 22  1  0
 21 22  2  0
  7 23  1  0
  4 24  1  0
 23 24  1  0
M  END
