piperidine-amides-10073-covalent
     RDKit          3D

 26 28  0  0  0  0  0  0  0  0999 V2000
    7.1420   -3.2670   19.1640 C   0  0  0  0  0  0  0  0  0  0  0  0
    6.4030   -4.0020   20.1950 C   0  0  0  0  0  0  0  0  0  0  0  0
    5.2970   -4.5020   19.8620 O   0  0  0  0  0  0  0  0  0  0  0  0
    6.9590   -4.1670   21.4590 N   0  0  0  0  0  0  0  0  0  0  0  0
    7.7310   -3.1030   22.0490 C   0  0  0  0  0  0  0  0  0  0  0  0
    6.9330   -2.5590   23.1890 C   0  0  0  0  0  0  0  0  0  0  0  0
    6.5470   -3.6410   24.1600 C   0  0  0  0  0  0  0  0  0  0  0  0
    5.7600   -3.0290   25.2480 C   0  0  0  0  0  0  0  0  0  0  0  0
    4.5150   -2.9760   25.1230 O   0  0  0  0  0  0  0  0  0  0  0  0
    6.3410   -2.5120   26.4220 N   0  0  0  0  0  0  0  0  0  0  0  0
    5.7410   -2.8140   27.6940 C   0  0  1  0  0  0  0  0  0  0  0  0
    6.1210   -4.2120   28.1150 C   0  0  0  0  0  0  0  0  0  0  0  0
    7.1770   -4.7990   27.5490 C   0  0  0  0  0  0  0  0  0  0  0  0
    8.3120   -5.1520   28.1800 C   0  0  0  0  0  0  0  0  0  0  0  0
    9.3350   -5.7310   27.4880 C   0  0  0  0  0  0  0  0  0  0  0  0
    9.2760   -5.9770   26.1470 C   0  0  0  0  0  0  0  0  0  0  0  0
    8.1650   -5.6520   25.4500 C   0  0  0  0  0  0  0  0  0  0  0  0
    7.0530   -5.0280   26.2120 C   0  0  0  0  0  0  0  0  0  0  0  0
    6.1270   -1.9520   28.8120 C   0  0  0  0  0  0  0  0  0  0  0  0
    5.1900   -1.2850   29.7910 C   0  0  0  0  0  0  0  0  0  0  0  0
    5.6590   -0.4010   30.9230 C   0  0  0  0  0  0  0  0  0  0  0  0
    6.9990   -0.1630   31.1140 C   0  0  0  0  0  0  0  0  0  0  0  0
    8.0040   -0.8040   30.1670 C   0  0  0  0  0  0  0  0  0  0  0  0
    7.4640   -1.6880   29.0380 C   0  0  0  0  0  0  0  0  0  0  0  0
    5.8320   -4.7810   23.4910 C   0  0  0  0  0  0  0  0  0  0  0  0
    6.5040   -5.2550   22.2650 C   0  0  0  0  0  0  0  0  0  0  0  0
  1  2  1  0
  2  3  2  0
  2  4  1  0
  4  5  1  0
  5  6  1  0
  6  7  1  0
  7  8  1  0
  8  9  2  0
  8 10  1  0
 10 11  1  0
 11 12  1  1
 12 13  1  0
 13 14  2  0
 14 15  1  0
 15 16  2  0
 16 17  1  0
 13 18  1  0
 17 18  2  0
 11 19  1  0
 19 20  2  0
 20 21  1  0
 21 22  2  0
 22 23  1  0
 19 24  1  0
 23 24  2  0
  7 25  1  0
  4 26  1  0
 25 26  1  0
M  END
