piperidine-amides-29024-covalent
     RDKit          3D

 25 27  0  0  0  0  0  0  0  0999 V2000
    7.0590   -3.3970   19.4470 C   0  0  0  0  0  0  0  0  0  0  0  0
    6.3870   -4.2730   20.4000 C   0  0  0  0  0  0  0  0  0  0  0  0
    5.3920   -4.9060   19.9990 O   0  0  0  0  0  0  0  0  0  0  0  0
    6.8970   -4.4190   21.7210 N   0  0  0  0  0  0  0  0  0  0  0  0
    6.5550   -5.6020   22.4730 C   0  0  0  0  0  0  0  0  0  0  0  0
    6.2740   -5.2630   23.9290 C   0  0  0  0  0  0  0  0  0  0  0  0
    6.1270   -3.7640   24.0010 C   0  0  0  0  0  0  0  0  0  0  0  0
    5.5620   -3.1860   25.2790 C   0  0  0  0  0  0  0  0  0  0  0  0
    5.1250   -2.0560   25.1380 O   0  0  0  0  0  0  0  0  0  0  0  0
    5.4800   -3.8370   26.5130 N   0  0  0  0  0  0  0  0  0  0  0  0
    6.3820   -3.5090   27.5440 C   0  0  0  0  0  0  0  0  0  0  0  0
    6.6870   -4.5610   28.4310 C   0  0  0  0  0  0  0  0  0  0  0  0
    5.6780   -4.7400   29.2850 C   0  0  0  0  0  0  0  0  0  0  0  0
    5.8150   -5.8810   30.0410 O   0  0  0  0  0  0  0  0  0  0  0  0
    5.1220   -6.4190   31.0560 C   0  0  0  0  0  0  0  0  0  0  0  0
    5.6990   -7.6390   31.6440 C   0  0  0  0  0  0  0  0  0  0  0  0
    4.9230   -8.2610   32.8280 C   0  0  0  0  0  0  0  0  0  0  0  0
    3.6600   -7.5870   33.2750 C   0  0  0  0  0  0  0  0  0  0  0  0
    2.7240   -8.2300   34.6050 Cl  0  0  0  0  0  0  0  0  0  0  0  0
    3.2390   -6.3330   32.5240 C   0  0  0  0  0  0  0  0  0  0  0  0
    3.9450   -5.8250   31.5000 N   0  0  0  0  0  0  0  0  0  0  0  0
    4.5090   -4.7160   28.5970 C   0  0  0  0  0  0  0  0  0  0  0  0
    4.5340   -3.7410   27.6150 C   0  0  0  0  0  0  0  0  0  0  0  0
    7.4660   -3.1760   23.7200 C   0  0  0  0  0  0  0  0  0  0  0  0
    7.6850   -3.3230   22.2470 C   0  0  0  0  0  0  0  0  0  0  0  0
  1  2  1  0
  2  3  2  0
  2  4  1  0
  4  5  1  0
  5  6  1  0
  6  7  1  0
  7  8  1  0
  8  9  2  0
  8 10  1  0
 10 11  1  0
 11 12  1  0
 12 13  1  0
 13 14  1  0
 14 15  1  0
 15 16  2  0
 16 17  1  0
 17 18  2  0
 18 19  1  0
 18 20  1  0
 15 21  1  0
 20 21  2  0
 13 22  1  0
 10 23  1  0
 22 23  1  0
  7 24  1  0
  4 25  1  0
 24 25  1  0
M  END
