piperidine-amides-2146-covalent
     RDKit          3D

 26 28  0  0  0  0  0  0  0  0999 V2000
    7.0880   -3.3210   19.2700 C   0  0  0  0  0  0  0  0  0  0  0  0
    6.4120   -4.1600   20.2960 C   0  0  0  0  0  0  0  0  0  0  0  0
    5.3680   -4.7110   19.9510 O   0  0  0  0  0  0  0  0  0  0  0  0
    6.9850   -4.3460   21.5650 N   0  0  0  0  0  0  0  0  0  0  0  0
    6.5880   -5.4450   22.3910 C   0  0  0  0  0  0  0  0  0  0  0  0
    5.7460   -4.9180   23.5300 C   0  0  0  0  0  0  0  0  0  0  0  0
    6.3970   -3.7260   24.2730 C   0  0  0  0  0  0  0  0  0  0  0  0
    5.3130   -3.0870   25.0470 C   0  0  0  0  0  0  0  0  0  0  0  0
    4.5800   -2.2740   24.4790 O   0  0  0  0  0  0  0  0  0  0  0  0
    5.0510   -3.3720   26.3980 N   0  0  0  0  0  0  0  0  0  0  0  0
    6.0620   -3.1690   27.3850 C   0  0  2  0  0  0  0  0  0  0  0  0
    5.9320   -4.3620   28.2920 C   0  0  0  0  0  0  0  0  0  0  0  0
    6.9340   -5.2800   28.1800 C   0  0  0  0  0  0  0  0  0  0  0  0
    7.0050   -6.3670   28.8680 C   0  0  0  0  0  0  0  0  0  0  0  0
    6.0450   -6.6010   29.7270 C   0  0  0  0  0  0  0  0  0  0  0  0
    4.8730   -5.7130   29.9780 C   0  0  0  0  0  0  0  0  0  0  0  0
    4.7150   -4.4060   29.2080 C   0  0  0  0  0  0  0  0  0  0  0  0
    5.7650   -1.9610   28.2960 C   0  0  0  0  0  0  0  0  0  0  0  0
    6.4990   -0.7200   27.8990 C   0  0  0  0  0  0  0  0  0  0  0  0
    6.6590   -0.7300   26.5150 O   0  0  0  0  0  0  0  0  0  0  0  0
    4.2890   -1.5510   28.0490 C   0  0  0  0  0  0  0  0  0  0  0  0
    3.7600   -1.1400   29.4060 C   0  0  0  0  0  0  0  0  0  0  0  0
    4.6810   -1.5830   30.4350 C   0  0  0  0  0  0  0  0  0  0  0  0
    5.8040   -2.1950   29.6690 C   0  0  0  0  0  0  0  0  0  0  0  0
    6.8780   -2.6780   23.2870 C   0  0  0  0  0  0  0  0  0  0  0  0
    7.6790   -3.2500   22.1560 C   0  0  0  0  0  0  0  0  0  0  0  0
  1  2  1  0
  2  3  2  0
  2  4  1  0
  4  5  1  0
  5  6  1  0
  6  7  1  0
  7  8  1  0
  8  9  2  0
  8 10  1  0
 11 10  1  6
 11 12  1  0
 12 13  2  0
 13 14  1  0
 14 15  2  0
 15 16  1  0
 12 17  1  0
 16 17  2  0
 11 18  1  0
 18 19  1  0
 19 20  1  0
 18 21  1  0
 21 22  1  0
 22 23  1  0
 18 24  1  0
 23 24  1  0
  7 25  1  0
  4 26  1  0
 25 26  1  0
M  END
