piperidine-amides-28139-covalent
     RDKit          3D

 24 25  0  0  0  0  0  0  0  0999 V2000
    7.0390   -3.3560   19.3010 C   0  0  0  0  0  0  0  0  0  0  0  0
    6.3750   -4.1760   20.3410 C   0  0  0  0  0  0  0  0  0  0  0  0
    5.3640   -4.8090   19.9700 O   0  0  0  0  0  0  0  0  0  0  0  0
    6.8860   -4.2770   21.6470 N   0  0  0  0  0  0  0  0  0  0  0  0
    6.5850   -5.4170   22.4440 C   0  0  0  0  0  0  0  0  0  0  0  0
    6.3740   -5.1410   23.8770 C   0  0  0  0  0  0  0  0  0  0  0  0
    6.5590   -3.7360   24.3430 C   0  0  0  0  0  0  0  0  0  0  0  0
    5.3930   -3.3080   25.1730 C   0  0  0  0  0  0  0  0  0  0  0  0
    4.3990   -2.8770   24.5720 O   0  0  0  0  0  0  0  0  0  0  0  0
    5.3480   -3.3680   26.5900 N   0  0  0  0  0  0  0  0  0  0  0  0
    6.2990   -4.0840   27.4080 C   0  0  0  0  0  0  0  0  0  0  0  0
    5.7840   -4.1670   28.7600 C   0  0  0  0  0  0  0  0  0  0  0  0
    4.5160   -3.4720   28.8000 C   0  0  0  0  0  0  0  0  0  0  0  0
    4.2280   -2.4270   29.6650 C   0  0  0  0  0  0  0  0  0  0  0  0
    3.5730   -2.7440   30.8090 F   0  0  0  0  0  0  0  0  0  0  0  0
    3.4870   -1.4200   29.1110 F   0  0  0  0  0  0  0  0  0  0  0  0
    5.3650   -1.7430   30.0230 F   0  0  0  0  0  0  0  0  0  0  0  0
    3.4270   -4.5410   29.0600 C   0  0  0  0  0  0  0  0  0  0  0  0
    3.3960   -5.4580   28.0280 F   0  0  0  0  0  0  0  0  0  0  0  0
    2.1660   -3.9850   29.1270 F   0  0  0  0  0  0  0  0  0  0  0  0
    3.6200   -5.2110   30.2520 F   0  0  0  0  0  0  0  0  0  0  0  0
    4.2770   -2.9230   27.4410 C   0  0  0  0  0  0  0  0  0  0  0  0
    6.8950   -2.7150   23.2990 C   0  0  0  0  0  0  0  0  0  0  0  0
    7.6520   -3.2540   22.3020 C   0  0  0  0  0  0  0  0  0  0  0  0
  1  2  1  0
  2  3  2  0
  2  4  1  0
  4  5  1  0
  5  6  1  0
  6  7  1  0
  7  8  1  0
  8  9  2  0
  8 10  1  0
 10 11  1  0
 11 12  1  0
 13 12  1  0
 13 14  1  0
 14 15  1  0
 14 16  1  0
 14 17  1  0
 13 18  1  0
 18 19  1  0
 18 20  1  0
 18 21  1  0
 10 22  1  0
 13 22  1  0
  7 23  1  0
  4 24  1  0
 23 24  1  0
M  END
