piperidine-amides-25992-covalent
     RDKit          3D

 19 20  0  0  0  0  0  0  0  0999 V2000
    7.0410   -3.3360   19.3140 C   0  0  0  0  0  0  0  0  0  0  0  0
    6.3200   -4.1510   20.2950 C   0  0  0  0  0  0  0  0  0  0  0  0
    5.3080   -4.7710   19.9500 O   0  0  0  0  0  0  0  0  0  0  0  0
    6.7820   -4.2780   21.6110 N   0  0  0  0  0  0  0  0  0  0  0  0
    7.6270   -3.2590   22.1960 C   0  0  0  0  0  0  0  0  0  0  0  0
    7.2530   -3.1650   23.6420 C   0  0  0  0  0  0  0  0  0  0  0  0
    5.9230   -3.7380   23.9350 C   0  0  0  0  0  0  0  0  0  0  0  0
    5.4980   -3.4360   25.3210 C   0  0  0  0  0  0  0  0  0  0  0  0
    4.2710   -3.2730   25.5790 O   0  0  0  0  0  0  0  0  0  0  0  0
    6.3870   -3.2980   26.4100 N   0  0  0  0  0  0  0  0  0  0  0  0
    6.6890   -4.5020   27.2240 C   0  0  0  0  0  0  0  0  0  0  0  0
    6.3770   -2.0000   27.1250 C   0  0  0  0  0  0  0  0  0  0  0  0
    6.7230   -1.7880   28.4110 N   0  0  0  0  0  0  0  0  0  0  0  0
    6.6720   -0.5190   28.9990 C   0  0  0  0  0  0  0  0  0  0  0  0
    6.2020    0.5250   28.0490 C   0  0  0  0  0  0  0  0  0  0  0  0
    6.0020    2.3760   28.5030 Br  0  0  0  0  0  0  0  0  0  0  0  0
    5.9330   -0.4400   26.5580 S   0  0  0  0  0  0  0  0  0  0  0  0
    5.7750   -5.1670   23.5590 C   0  0  0  0  0  0  0  0  0  0  0  0
    6.6010   -5.4860   22.3690 C   0  0  0  0  0  0  0  0  0  0  0  0
  1  2  1  0
  2  3  2  0
  2  4  1  0
  4  5  1  0
  5  6  1  0
  6  7  1  0
  7  8  1  0
  8  9  2  0
  8 10  1  0
 10 11  1  0
 10 12  1  0
 12 13  2  0
 13 14  1  0
 14 15  2  0
 15 16  1  0
 12 17  1  0
 15 17  1  0
  7 18  1  0
  4 19  1  0
 18 19  1  0
M  END
