piperidine-amides-25109-covalent
     RDKit          3D

 25 27  0  0  0  0  0  0  0  0999 V2000
    7.0320   -3.3480   19.3780 C   0  0  0  0  0  0  0  0  0  0  0  0
    6.3820   -4.2590   20.3560 C   0  0  0  0  0  0  0  0  0  0  0  0
    5.3680   -4.8400   19.9770 O   0  0  0  0  0  0  0  0  0  0  0  0
    6.9410   -4.4720   21.6230 N   0  0  0  0  0  0  0  0  0  0  0  0
    6.6320   -5.6480   22.3930 C   0  0  0  0  0  0  0  0  0  0  0  0
    6.3460   -5.2350   23.8110 C   0  0  0  0  0  0  0  0  0  0  0  0
    5.7360   -3.8330   23.8310 C   0  0  0  0  0  0  0  0  0  0  0  0
    5.1990   -3.4990   25.1750 C   0  0  0  0  0  0  0  0  0  0  0  0
    4.4450   -2.5310   25.2880 O   0  0  0  0  0  0  0  0  0  0  0  0
    5.5160   -4.2400   26.3270 N   0  0  0  0  0  0  0  0  0  0  0  0
    6.8980   -4.3710   26.5070 C   0  0  0  0  0  0  0  0  0  0  0  0
    7.1520   -5.4310   27.5560 C   0  0  0  0  0  0  0  0  0  0  0  0
    6.6130   -5.2480   28.7710 C   0  0  0  0  0  0  0  0  0  0  0  0
    5.3590   -4.7660   28.6700 C   0  0  1  0  0  0  0  0  0  0  0  0
    4.3670   -5.6700   28.9390 C   0  0  0  0  0  0  0  0  0  0  0  0
    4.2820   -6.4380   27.8750 N   0  0  0  0  0  0  0  0  0  0  0  0
    4.5330   -4.6240   29.8410 C   0  0  0  0  0  0  0  0  0  0  0  0
    4.1660   -5.7290   30.7980 C   0  0  0  0  0  0  0  0  0  0  0  0
    3.2890   -5.4070   31.9850 C   0  0  0  0  0  0  0  0  0  0  0  0
    2.8440   -3.9910   32.1210 C   0  0  0  0  0  0  0  0  0  0  0  0
    3.2000   -2.8990   31.1810 C   0  0  0  0  0  0  0  0  0  0  0  0
    4.0560   -3.3120   30.0590 N   0  0  0  0  0  0  0  0  0  0  0  0
    5.1050   -3.8290   27.6980 C   0  0  0  0  0  0  0  0  0  0  0  0
    6.7500   -2.8000   23.3800 C   0  0  0  0  0  0  0  0  0  0  0  0
    7.6380   -3.4220   22.3370 C   0  0  0  0  0  0  0  0  0  0  0  0
  1  2  1  0
  2  3  2  0
  2  4  1  0
  4  5  1  0
  5  6  1  0
  6  7  1  0
  7  8  1  0
  8  9  2  0
  8 10  1  0
 10 11  1  0
 11 12  1  0
 12 13  1  0
 13 14  1  0
 14 15  1  6
 15 16  3  0
 14 17  1  0
 17 18  2  0
 18 19  1  0
 19 20  2  0
 20 21  1  0
 17 22  1  0
 21 22  2  0
 10 23  1  0
 14 23  1  0
  7 24  1  0
  4 25  1  0
 24 25  1  0
M  END
