piperidine-amides-27127-covalent
     RDKit          3D

 25 26  0  0  0  0  0  0  0  0999 V2000
    7.0440   -3.2760   19.1640 C   0  0  0  0  0  0  0  0  0  0  0  0
    6.1890   -4.0140   20.1020 C   0  0  0  0  0  0  0  0  0  0  0  0
    5.0490   -4.3280   19.7260 O   0  0  0  0  0  0  0  0  0  0  0  0
    6.6670   -4.3720   21.3420 N   0  0  0  0  0  0  0  0  0  0  0  0
    6.1830   -5.5520   22.0460 C   0  0  0  0  0  0  0  0  0  0  0  0
    5.6240   -5.1370   23.3890 C   0  0  0  0  0  0  0  0  0  0  0  0
    6.5660   -4.1610   24.0240 C   0  0  0  0  0  0  0  0  0  0  0  0
    6.1000   -3.5070   25.2420 C   0  0  0  0  0  0  0  0  0  0  0  0
    4.9200   -3.6590   25.6390 O   0  0  0  0  0  0  0  0  0  0  0  0
    6.9930   -2.6880   25.9420 N   0  0  0  0  0  0  0  0  0  0  0  0
    6.4460   -1.5850   26.6940 C   0  0  0  0  0  0  0  0  0  0  0  0
    8.4140   -2.7550   25.5750 C   0  0  0  0  0  0  0  0  0  0  0  0
    8.6340   -2.6050   24.2130 C   0  0  0  0  0  0  0  0  0  0  0  0
    8.8060   -1.3420   23.6710 C   0  0  0  0  0  0  0  0  0  0  0  0
   10.0830   -0.7850   23.7340 C   0  0  0  0  0  0  0  0  0  0  0  0
   10.9780   -1.3100   22.8940 N   0  0  0  0  0  0  0  0  0  0  0  0
   12.2340   -1.4720   23.3160 C   0  0  0  0  0  0  0  0  0  0  0  0
   12.3890   -2.2510   24.4360 C   0  0  0  0  0  0  0  0  0  0  0  0
   11.2940   -2.4560   25.2800 O   0  0  0  0  0  0  0  0  0  0  0  0
   13.5640   -2.8140   24.7240 N   0  0  0  0  0  0  0  0  0  0  0  0
   13.6320   -3.5800   25.9080 C   0  0  0  0  0  0  0  0  0  0  0  0
   10.5020   -2.5500   22.4330 C   0  0  0  0  0  0  0  0  0  0  0  0
    9.6620   -3.2060   23.5210 C   0  0  0  0  0  0  0  0  0  0  0  0
    6.7880   -3.0320   23.0810 C   0  0  0  0  0  0  0  0  0  0  0  0
    7.5500   -3.4740   22.0550 C   0  0  0  0  0  0  0  0  0  0  0  0
  1  2  1  0
  2  3  2  0
  2  4  1  0
  4  5  1  0
  5  6  1  0
  6  7  1  0
  7  8  1  0
  8  9  2  0
  8 10  1  0
 10 11  1  0
 10 12  1  0
 12 13  1  0
 13 14  1  0
 14 15  1  0
 15 16  1  0
 16 17  1  0
 17 18  1  0
 18 19  2  0
 18 20  1  0
 20 21  1  0
 16 22  1  0
 13 23  1  0
 22 23  1  0
  7 24  1  0
  4 25  1  0
 24 25  1  0
M  END
