piperidine-amides-9130-covalent
     RDKit          3D

 21 22  0  0  0  0  0  0  0  0999 V2000
    7.0980   -3.3260   19.2650 C   0  0  0  0  0  0  0  0  0  0  0  0
    6.3990   -4.1350   20.2630 C   0  0  0  0  0  0  0  0  0  0  0  0
    5.3510   -4.7200   19.9480 O   0  0  0  0  0  0  0  0  0  0  0  0
    6.9170   -4.3170   21.5560 N   0  0  0  0  0  0  0  0  0  0  0  0
    6.6260   -5.4900   22.3390 C   0  0  0  0  0  0  0  0  0  0  0  0
    5.8620   -4.9910   23.5380 C   0  0  0  0  0  0  0  0  0  0  0  0
    6.5370   -3.8120   24.1870 C   0  0  0  0  0  0  0  0  0  0  0  0
    5.7810   -3.2470   25.3190 C   0  0  0  0  0  0  0  0  0  0  0  0
    4.5180   -3.1580   25.2710 O   0  0  0  0  0  0  0  0  0  0  0  0
    6.4010   -2.7920   26.4940 N   0  0  0  0  0  0  0  0  0  0  0  0
    6.2790   -1.3620   26.8640 C   0  0  0  0  0  0  0  0  0  0  0  0
    5.7140   -0.3360   25.9860 C   0  0  0  0  0  0  0  0  0  0  0  0
    5.6330    1.0520   26.4730 C   0  0  0  0  0  0  0  0  0  0  0  0
    6.1200    1.4220   27.8460 C   0  0  0  0  0  0  0  0  0  0  0  0
    6.7050    0.3900   28.7610 C   0  0  0  0  0  0  0  0  0  0  0  0
    6.7440   -0.9650   28.1820 C   0  0  0  0  0  0  0  0  0  0  0  0
    7.2730   -1.8920   29.0280 N   0  0  0  0  0  0  0  0  0  0  0  0
    6.2870   -2.7340   29.3980 C   0  0  0  0  0  0  0  0  0  0  0  0
    8.0080   -1.1870   30.0520 C   0  0  0  0  0  0  0  0  0  0  0  0
    6.8240   -2.6680   23.2210 C   0  0  0  0  0  0  0  0  0  0  0  0
    7.7100   -3.2550   22.1370 C   0  0  0  0  0  0  0  0  0  0  0  0
  1  2  1  0
  2  3  2  0
  2  4  1  0
  4  5  1  0
  5  6  1  0
  6  7  1  0
  7  8  1  0
  8  9  2  0
  8 10  1  0
 10 11  1  0
 11 12  2  0
 12 13  1  0
 13 14  2  0
 14 15  1  0
 11 16  1  0
 15 16  2  0
 16 17  1  0
 17 18  1  0
 17 19  1  0
  7 20  1  0
  4 21  1  0
 20 21  1  0
M  END
