piperidine-amides-30926-covalent
     RDKit          3D

 27 28  0  0  0  0  0  0  0  0999 V2000
    7.0250   -3.3620   19.3900 C   0  0  0  0  0  0  0  0  0  0  0  0
    6.3650   -4.2140   20.3850 C   0  0  0  0  0  0  0  0  0  0  0  0
    5.4220   -4.9320   20.0070 O   0  0  0  0  0  0  0  0  0  0  0  0
    6.8010   -4.2640   21.7290 N   0  0  0  0  0  0  0  0  0  0  0  0
    7.6310   -3.2330   22.3110 C   0  0  0  0  0  0  0  0  0  0  0  0
    6.8410   -2.6590   23.4610 C   0  0  0  0  0  0  0  0  0  0  0  0
    6.4040   -3.7160   24.4370 C   0  0  0  0  0  0  0  0  0  0  0  0
    5.3580   -3.2020   25.3980 C   0  0  0  0  0  0  0  0  0  0  0  0
    4.4650   -2.4560   24.9160 O   0  0  0  0  0  0  0  0  0  0  0  0
    5.2140   -3.4470   26.8280 N   0  0  0  0  0  0  0  0  0  0  0  0
    4.2310   -2.6990   27.5990 C   0  0  0  0  0  0  0  0  0  0  0  0
    4.5970   -2.8330   29.0300 C   0  0  2  0  0  0  0  0  0  0  0  0
    5.8660   -2.1770   29.4080 C   0  0  0  0  0  0  0  0  0  0  0  0
    4.8130   -4.2680   29.4110 C   0  0  0  0  0  0  0  0  0  0  0  0
    4.7640   -5.3190   28.4620 N   0  0  0  0  0  0  0  0  0  0  0  0
    3.5020   -5.3240   27.7310 C   0  0  0  0  0  0  0  0  0  0  0  0
    3.5680   -4.8540   26.4040 O   0  0  0  0  0  0  0  0  0  0  0  0
    2.4360   -5.7620   28.2800 O   0  0  0  0  0  0  0  0  0  0  0  0
    2.6430   -6.7180   29.2780 C   0  0  0  0  0  0  0  0  0  0  0  0
    3.5350   -7.7460   29.4780 C   0  0  0  0  0  0  0  0  0  0  0  0
    1.9970   -8.0890   29.3380 C   0  0  0  0  0  0  0  0  0  0  0  0
    2.8670   -6.2200   30.6990 C   0  0  0  0  0  0  0  0  0  0  0  0
    6.0590   -5.2710   27.9030 C   0  0  2  0  0  0  0  0  0  0  0  0
    7.0930   -5.7690   28.8510 C   0  0  0  0  0  0  0  0  0  0  0  0
    6.3030   -3.9280   27.5810 C   0  0  0  0  0  0  0  0  0  0  0  0
    5.9320   -4.9940   23.8230 C   0  0  0  0  0  0  0  0  0  0  0  0
    6.4930   -5.3550   22.6010 C   0  0  0  0  0  0  0  0  0  0  0  0
  1  2  1  0
  2  3  2  0
  2  4  1  0
  4  5  1  0
  5  6  1  0
  6  7  1  0
  7  8  1  0
  8  9  2  0
  8 10  1  0
 10 11  1  0
 11 12  1  0
 12 13  1  6
 12 14  1  0
 14 15  1  0
 15 16  1  0
 16 17  2  0
 16 18  1  0
 19 18  1  0
 19 20  1  0
 19 21  1  0
 19 22  1  0
 15 23  1  0
 23 24  1  1
 10 25  1  0
 23 25  1  0
  7 26  1  0
  4 27  1  0
 26 27  1  0
M  END
