piperidine-amides-1932-covalent
     RDKit          3D

 20 21  0  0  0  0  0  0  0  0999 V2000
    7.1010   -3.2620   19.2430 C   0  0  0  0  0  0  0  0  0  0  0  0
    6.3500   -4.0520   20.2530 C   0  0  0  0  0  0  0  0  0  0  0  0
    5.2970   -4.5680   19.8900 O   0  0  0  0  0  0  0  0  0  0  0  0
    6.8640   -4.2230   21.5360 N   0  0  0  0  0  0  0  0  0  0  0  0
    6.6660   -5.4420   22.2780 C   0  0  0  0  0  0  0  0  0  0  0  0
    6.0690   -5.1340   23.6270 C   0  0  0  0  0  0  0  0  0  0  0  0
    6.0770   -3.6260   23.8760 C   0  0  0  0  0  0  0  0  0  0  0  0
    5.6410   -3.4030   25.2580 C   0  0  0  0  0  0  0  0  0  0  0  0
    4.4480   -3.5750   25.5480 O   0  0  0  0  0  0  0  0  0  0  0  0
    6.5570   -2.9970   26.2370 N   0  0  0  0  0  0  0  0  0  0  0  0
    6.1420   -3.0110   27.6160 C   0  0  0  0  0  0  0  0  0  0  0  0
    5.9050   -1.5480   27.9750 C   0  0  0  0  0  0  0  0  0  0  0  0
    6.1380   -0.6780   26.4390 Cl  0  0  0  0  0  0  0  0  0  0  0  0
    6.7170   -0.8410   28.8460 C   0  0  0  0  0  0  0  0  0  0  0  0
    6.2700   -0.8310   30.1260 C   0  0  0  0  0  0  0  0  0  0  0  0
    5.3800   -1.8530   30.3330 O   0  0  0  0  0  0  0  0  0  0  0  0
    4.9250   -2.3280   29.1410 C   0  0  0  0  0  0  0  0  0  0  0  0
    4.4700   -1.1760   28.2830 C   0  0  0  0  0  0  0  0  0  0  0  0
    7.3940   -3.0030   23.5540 C   0  0  0  0  0  0  0  0  0  0  0  0
    7.7100   -3.1920   22.1100 C   0  0  0  0  0  0  0  0  0  0  0  0
  1  2  1  0
  2  3  2  0
  2  4  1  0
  4  5  1  0
  5  6  1  0
  6  7  1  0
  7  8  1  0
  8  9  2  0
  8 10  1  0
 10 11  1  0
 11 12  1  0
 12 13  1  0
 12 14  1  0
 14 15  1  0
 15 16  1  0
 16 17  1  0
 12 18  1  0
 17 18  1  0
  7 19  1  0
  4 20  1  0
 19 20  1  0
M  END
