piperidine-amides-17182-covalent
     RDKit          3D

 20 21  0  0  0  0  0  0  0  0999 V2000
    7.1380   -3.3580   19.3380 C   0  0  0  0  0  0  0  0  0  0  0  0
    6.4120   -4.1650   20.3220 C   0  0  0  0  0  0  0  0  0  0  0  0
    5.3380   -4.6930   19.9440 O   0  0  0  0  0  0  0  0  0  0  0  0
    6.9580   -4.3790   21.6110 N   0  0  0  0  0  0  0  0  0  0  0  0
    6.5150   -5.4930   22.3650 C   0  0  0  0  0  0  0  0  0  0  0  0
    6.0290   -5.1480   23.7030 C   0  0  0  0  0  0  0  0  0  0  0  0
    6.6970   -4.0100   24.3820 C   0  0  0  0  0  0  0  0  0  0  0  0
    5.8710   -3.5770   25.5580 C   0  0  0  0  0  0  0  0  0  0  0  0
    4.7240   -3.1420   25.3290 O   0  0  0  0  0  0  0  0  0  0  0  0
    6.2990   -3.6240   26.9090 N   0  0  0  0  0  0  0  0  0  0  0  0
    5.6400   -2.9870   27.9550 C   0  0  0  0  0  0  0  0  0  0  0  0
    5.5650   -3.7430   29.1900 C   0  0  0  0  0  0  0  0  0  0  0  0
    6.5600   -4.9170   29.0550 C   0  0  1  0  0  0  0  0  0  0  0  0
    6.1570   -6.2000   29.4230 C   0  0  0  0  0  0  0  0  0  0  0  0
    5.9940   -6.3480   30.8000 O   0  0  0  0  0  0  0  0  0  0  0  0
    6.0760   -5.8340   27.9100 C   0  0  0  0  0  0  0  0  0  0  0  0
    6.9850   -4.7280   27.5440 C   0  0  1  0  0  0  0  0  0  0  0  0
    7.5790   -5.7120   26.5450 C   0  0  0  0  0  0  0  0  0  0  0  0
    6.9610   -2.8390   23.4640 C   0  0  0  0  0  0  0  0  0  0  0  0
    7.7330   -3.3500   22.2670 C   0  0  0  0  0  0  0  0  0  0  0  0
  1  2  1  0
  2  3  2  0
  2  4  1  0
  4  5  1  0
  5  6  1  0
  6  7  1  0
  7  8  1  0
  8  9  2  0
  8 10  1  0
 10 11  1  0
 11 12  1  0
 12 13  1  0
 13 14  1  1
 14 15  1  0
 13 16  1  0
 10 17  1  0
 16 17  1  0
 17 18  1  6
  7 19  1  0
  4 20  1  0
 19 20  1  0
M  END
