piperidine-amides-2157-covalent
     RDKit          3D

 31 34  0  0  0  0  0  0  0  0999 V2000
    7.0920   -3.2950   19.2360 C   0  0  0  0  0  0  0  0  0  0  0  0
    6.3160   -4.0330   20.2650 C   0  0  0  0  0  0  0  0  0  0  0  0
    5.2850   -4.5900   19.8990 O   0  0  0  0  0  0  0  0  0  0  0  0
    6.7990   -4.1020   21.5770 N   0  0  0  0  0  0  0  0  0  0  0  0
    7.7260   -3.1210   22.0760 C   0  0  0  0  0  0  0  0  0  0  0  0
    7.2870   -2.7320   23.4420 C   0  0  0  0  0  0  0  0  0  0  0  0
    5.9700   -3.4470   23.7150 C   0  0  0  0  0  0  0  0  0  0  0  0
    5.4420   -2.9800   25.0110 C   0  0  0  0  0  0  0  0  0  0  0  0
    4.2900   -3.2930   25.3410 O   0  0  0  0  0  0  0  0  0  0  0  0
    6.2070   -2.1860   25.8820 N   0  0  0  0  0  0  0  0  0  0  0  0
    6.4350   -2.7340   27.1830 C   0  0  0  0  0  0  0  0  0  0  0  0
    7.3790   -3.8530   26.9240 C   0  0  0  0  0  0  0  0  0  0  0  0
    8.2910   -3.6150   25.9060 C   0  0  0  0  0  0  0  0  0  0  0  0
    9.2060   -4.4860   25.5290 C   0  0  0  0  0  0  0  0  0  0  0  0
    9.2000   -5.5960   26.2090 C   0  0  0  0  0  0  0  0  0  0  0  0
    8.3300   -6.0380   27.3130 C   0  0  0  0  0  0  0  0  0  0  0  0
    7.2480   -5.1000   27.7670 C   0  0  0  0  0  0  0  0  0  0  0  0
    6.2980   -5.5200   28.8690 C   0  0  0  0  0  0  0  0  0  0  0  0
    5.3370   -4.4230   29.1730 C   0  0  0  0  0  0  0  0  0  0  0  0
    4.3130   -4.6910   30.2330 C   0  0  0  0  0  0  0  0  0  0  0  0
    4.2410   -6.0190   30.9860 C   0  0  0  0  0  0  0  0  0  0  0  0
    3.2370   -6.3200   32.0490 C   0  0  0  0  0  0  0  0  0  0  0  0
    3.9470   -6.9800   33.1360 N   0  0  0  0  0  0  0  0  0  0  0  0
    4.6640   -6.3740   34.1910 C   0  0  0  0  0  0  0  0  0  0  0  0
    5.1900   -7.3570   35.0090 C   0  0  0  0  0  0  0  0  0  0  0  0
    4.8140   -8.5370   34.4870 N   0  0  0  0  0  0  0  0  0  0  0  0
    4.0300   -8.2890   33.3040 C   0  0  0  0  0  0  0  0  0  0  0  0
    5.1640   -6.9730   30.6460 C   0  0  0  0  0  0  0  0  0  0  0  0
    6.2050   -6.7200   29.5720 C   0  0  0  0  0  0  0  0  0  0  0  0
    5.9670   -4.9600   23.6330 C   0  0  0  0  0  0  0  0  0  0  0  0
    6.6010   -5.3530   22.2810 C   0  0  0  0  0  0  0  0  0  0  0  0
  1  2  1  0
  2  3  2  0
  2  4  1  0
  4  5  1  0
  5  6  1  0
  6  7  1  0
  7  8  1  0
  8  9  2  0
  8 10  1  0
 10 11  1  0
 11 12  1  0
 12 13  2  0
 13 14  1  0
 14 15  2  0
 15 16  1  0
 12 17  1  0
 16 17  2  0
 17 18  1  0
 18 19  2  0
 19 20  1  0
 20 21  2  0
 21 22  1  0
 22 23  1  0
 23 24  1  0
 24 25  2  0
 25 26  1  0
 23 27  1  0
 26 27  2  0
 21 28  1  0
 18 29  1  0
 28 29  2  0
  7 30  1  0
  4 31  1  0
 30 31  1  0
M  END
