piperidine-amides-15103-covalent
     RDKit          3D

 20 21  0  0  0  0  0  0  0  0999 V2000
    7.0660   -3.3710   19.3790 C   0  0  0  0  0  0  0  0  0  0  0  0
    6.3890   -4.2060   20.3680 C   0  0  0  0  0  0  0  0  0  0  0  0
    5.3990   -4.8620   19.9900 O   0  0  0  0  0  0  0  0  0  0  0  0
    6.8880   -4.2860   21.6960 N   0  0  0  0  0  0  0  0  0  0  0  0
    7.7050   -3.2070   22.2070 C   0  0  0  0  0  0  0  0  0  0  0  0
    7.4530   -2.9900   23.6740 C   0  0  0  0  0  0  0  0  0  0  0  0
    6.0880   -3.5530   23.9510 C   0  0  0  0  0  0  0  0  0  0  0  0
    5.6390   -3.2520   25.3540 C   0  0  0  0  0  0  0  0  0  0  0  0
    4.4540   -3.4590   25.5930 O   0  0  0  0  0  0  0  0  0  0  0  0
    6.5640   -2.7600   26.2700 N   0  0  0  0  0  0  0  0  0  0  0  0
    6.4050   -1.4840   26.9010 C   0  0  0  0  0  0  0  0  0  0  0  0
    5.7920   -0.4550   26.1820 C   0  0  0  0  0  0  0  0  0  0  0  0
    6.0110    0.3960   27.4300 N   0  0  0  0  0  0  0  0  0  0  0  0
    6.4340    0.7400   28.7800 C   0  0  0  0  0  0  0  0  0  0  0  0
    5.6960    2.2160   28.1260 Cl  0  0  0  0  0  0  0  0  0  0  0  0
    6.9360   -0.5130   29.0230 C   0  0  0  0  0  0  0  0  0  0  0  0
    7.4780   -0.4630   30.4150 C   0  0  0  0  0  0  0  0  0  0  0  0
    6.9450   -1.5550   28.2100 C   0  0  0  0  0  0  0  0  0  0  0  0
    5.9960   -5.0260   23.7630 C   0  0  0  0  0  0  0  0  0  0  0  0
    6.5630   -5.4550   22.4410 C   0  0  0  0  0  0  0  0  0  0  0  0
  1  2  1  0
  2  3  2  0
  2  4  1  0
  4  5  1  0
  5  6  1  0
  6  7  1  0
  7  8  1  0
  8  9  2  0
  8 10  1  0
 10 11  1  0
 11 12  2  0
 12 13  1  0
 13 14  2  0
 14 15  1  0
 14 16  1  0
 16 17  1  0
 11 18  1  0
 16 18  2  0
  7 19  1  0
  4 20  1  0
 19 20  1  0
M  END
