piperidine-amides-11090-covalent
     RDKit          3D

 21 22  0  0  0  0  0  0  0  0999 V2000
    7.0910   -3.2720   19.2490 C   0  0  0  0  0  0  0  0  0  0  0  0
    6.3440   -4.0280   20.2590 C   0  0  0  0  0  0  0  0  0  0  0  0
    5.3070   -4.6180   19.9130 O   0  0  0  0  0  0  0  0  0  0  0  0
    6.7890   -4.1500   21.5950 N   0  0  0  0  0  0  0  0  0  0  0  0
    6.6550   -5.3850   22.3400 C   0  0  0  0  0  0  0  0  0  0  0  0
    6.0880   -5.0180   23.6920 C   0  0  0  0  0  0  0  0  0  0  0  0
    6.0720   -3.5360   23.9000 C   0  0  0  0  0  0  0  0  0  0  0  0
    5.6070   -3.1240   25.2490 C   0  0  0  0  0  0  0  0  0  0  0  0
    4.4170   -2.7240   25.4040 O   0  0  0  0  0  0  0  0  0  0  0  0
    6.4040   -3.1560   26.4110 N   0  0  0  0  0  0  0  0  0  0  0  0
    6.0140   -4.0450   27.5230 C   0  0  0  0  0  0  0  0  0  0  0  0
    5.5810   -5.3180   26.8970 C   0  0  0  0  0  0  0  0  0  0  0  0
    4.9800   -6.3740   27.7120 C   0  0  0  0  0  0  0  0  0  0  0  0
    3.7950   -7.1290   27.2780 C   0  0  0  0  0  0  0  0  0  0  0  0
    3.1520   -6.8320   25.9400 C   0  0  0  0  0  0  0  0  0  0  0  0
    3.5220   -8.0400   28.3170 N   0  0  0  0  0  0  0  0  0  0  0  0
    4.3660   -7.9930   29.3470 N   0  0  0  0  0  0  0  0  0  0  0  0
    5.2640   -7.0200   29.0710 C   0  0  0  0  0  0  0  0  0  0  0  0
    6.2400   -6.7470   29.9490 C   0  0  0  0  0  0  0  0  0  0  0  0
    7.4170   -2.9400   23.6020 C   0  0  0  0  0  0  0  0  0  0  0  0
    7.7060   -3.1440   22.1310 C   0  0  0  0  0  0  0  0  0  0  0  0
  1  2  1  0
  2  3  2  0
  2  4  1  0
  4  5  1  0
  5  6  1  0
  6  7  1  0
  7  8  1  0
  8  9  2  0
  8 10  1  0
 10 11  1  0
 11 12  1  0
 12 13  1  0
 13 14  1  0
 14 15  1  0
 14 16  2  0
 16 17  1  0
 13 18  2  0
 17 18  1  0
 18 19  1  0
  7 20  1  0
  4 21  1  0
 20 21  1  0
M  END
