piperidine-amides-1984-covalent
     RDKit          3D

 24 26  0  0  0  0  0  0  0  0999 V2000
    7.0850   -3.3030   19.2370 C   0  0  0  0  0  0  0  0  0  0  0  0
    6.3890   -4.1170   20.2700 C   0  0  0  0  0  0  0  0  0  0  0  0
    5.3370   -4.6530   19.9270 O   0  0  0  0  0  0  0  0  0  0  0  0
    6.9530   -4.2940   21.5390 N   0  0  0  0  0  0  0  0  0  0  0  0
    7.6960   -3.2560   22.1990 C   0  0  0  0  0  0  0  0  0  0  0  0
    6.8470   -2.6780   23.2900 C   0  0  0  0  0  0  0  0  0  0  0  0
    6.3040   -3.7740   24.2180 C   0  0  0  0  0  0  0  0  0  0  0  0
    5.3440   -3.1210   25.1270 C   0  0  0  0  0  0  0  0  0  0  0  0
    4.5100   -2.3490   24.6530 O   0  0  0  0  0  0  0  0  0  0  0  0
    5.3390   -3.3460   26.5130 N   0  0  0  0  0  0  0  0  0  0  0  0
    6.2990   -2.6670   27.3230 C   0  0  1  0  0  0  0  0  0  0  0  0
    5.7820   -1.4550   27.8870 C   0  0  0  0  0  0  0  0  0  0  0  0
    6.1590   -1.6180   29.1760 C   0  0  1  0  0  0  0  0  0  0  0  0
    7.3030   -1.0190   29.6110 C   0  0  0  0  0  0  0  0  0  0  0  0
    7.1940    0.3080   29.2540 O   0  0  0  0  0  0  0  0  0  0  0  0
    4.9790   -1.2930   30.1010 C   0  0  0  0  0  0  0  0  0  0  0  0
    5.4080   -0.3500   31.2180 C   0  0  0  0  0  0  0  0  0  0  0  0
    4.3160    0.0170   32.1730 C   0  0  0  0  0  0  0  0  0  0  0  0
    2.9290   -0.5220   32.0020 C   0  0  0  0  0  0  0  0  0  0  0  0
    2.6330   -1.4380   30.8670 C   0  0  0  0  0  0  0  0  0  0  0  0
    3.6200   -1.8910   29.8400 C   0  0  0  0  0  0  0  0  0  0  0  0
    6.5220   -3.0980   28.7680 C   0  0  0  0  0  0  0  0  0  0  0  0
    5.6030   -4.8740   23.4310 C   0  0  0  0  0  0  0  0  0  0  0  0
    6.5500   -5.3910   22.3820 C   0  0  0  0  0  0  0  0  0  0  0  0
  1  2  1  0
  2  3  2  0
  2  4  1  0
  4  5  1  0
  5  6  1  0
  6  7  1  0
  7  8  1  0
  8  9  2  0
  8 10  1  0
 11 10  1  1
 11 12  1  0
 12 13  1  0
 13 14  1  1
 14 15  1  0
 13 16  1  0
 16 17  2  0
 17 18  1  0
 18 19  2  0
 19 20  1  0
 16 21  1  0
 20 21  2  0
 11 22  1  0
 13 22  1  0
  7 23  1  0
  4 24  1  0
 23 24  1  0
M  END
