piperidine-amides-33517-covalent
     RDKit          3D

 25 26  0  0  0  0  0  0  0  0999 V2000
    7.1290   -3.2880   19.2570 C   0  0  0  0  0  0  0  0  0  0  0  0
    6.4170   -4.0710   20.2770 C   0  0  0  0  0  0  0  0  0  0  0  0
    5.3460   -4.6260   19.9210 O   0  0  0  0  0  0  0  0  0  0  0  0
    6.9540   -4.2320   21.5800 N   0  0  0  0  0  0  0  0  0  0  0  0
    6.5990   -5.3930   22.3230 C   0  0  0  0  0  0  0  0  0  0  0  0
    6.0410   -5.0380   23.6110 C   0  0  0  0  0  0  0  0  0  0  0  0
    6.1370   -3.5900   23.8340 C   0  0  0  0  0  0  0  0  0  0  0  0
    5.5280   -3.1670   25.1350 C   0  0  0  0  0  0  0  0  0  0  0  0
    4.2850   -3.1220   25.2050 O   0  0  0  0  0  0  0  0  0  0  0  0
    6.2570   -2.8230   26.2880 N   0  0  0  0  0  0  0  0  0  0  0  0
    5.8570   -3.2950   27.5450 C   0  0  0  0  0  0  0  0  0  0  0  0
    6.5570   -4.3360   28.2540 C   0  0  0  0  0  0  0  0  0  0  0  0
    7.1120   -4.9490   29.2060 O   0  0  0  0  0  0  0  0  0  0  0  0
    6.4050   -3.4200   29.2880 O   0  0  0  0  0  0  0  0  0  0  0  0
    6.8850   -2.0710   29.2130 C   0  0  0  0  0  0  0  0  0  0  0  0
    6.8480   -1.5100   26.2890 C   0  0  0  0  0  0  0  0  0  0  0  0
    5.7790   -0.4270   26.4850 C   0  0  0  0  0  0  0  0  0  0  0  0
    6.0370    0.5450   25.3960 C   0  0  0  0  0  0  0  0  0  0  0  0
    4.9690    1.6470   25.5840 C   0  0  0  0  0  0  0  0  0  0  0  0
    3.8480    1.8250   26.6060 C   0  0  0  0  0  0  0  0  0  0  0  0
    3.7220    0.7310   27.6600 C   0  0  0  0  0  0  0  0  0  0  0  0
    2.3840    0.7680   29.0270 Br  0  0  0  0  0  0  0  0  0  0  0  0
    4.7340   -0.3990   27.5550 C   0  0  0  0  0  0  0  0  0  0  0  0
    7.5360   -3.1390   23.5880 C   0  0  0  0  0  0  0  0  0  0  0  0
    7.7460   -3.1710   22.2020 C   0  0  0  0  0  0  0  0  0  0  0  0
  1  2  1  0
  2  3  2  0
  2  4  1  0
  4  5  1  0
  5  6  1  0
  6  7  1  0
  7  8  1  0
  8  9  2  0
  8 10  1  0
 10 11  1  0
 11 12  1  0
 12 13  2  0
 12 14  1  0
 14 15  1  0
 10 16  1  0
 16 17  1  0
 17 18  2  0
 18 19  1  0
 19 20  2  0
 20 21  1  0
 21 22  1  0
 17 23  1  0
 21 23  2  0
  7 24  1  0
  4 25  1  0
 24 25  1  0
M  END
