piperidine-amides-35008-covalent
     RDKit          3D

 28 30  0  0  0  0  0  0  0  0999 V2000
    7.0120   -3.3550   19.3760 C   0  0  0  0  0  0  0  0  0  0  0  0
    6.3610   -4.2400   20.3790 C   0  0  0  0  0  0  0  0  0  0  0  0
    5.3850   -4.8780   19.9870 O   0  0  0  0  0  0  0  0  0  0  0  0
    6.8680   -4.3650   21.6840 N   0  0  0  0  0  0  0  0  0  0  0  0
    6.5650   -5.4940   22.5170 C   0  0  0  0  0  0  0  0  0  0  0  0
    5.6700   -5.0560   23.6530 C   0  0  0  0  0  0  0  0  0  0  0  0
    6.2560   -3.8160   24.3490 C   0  0  0  0  0  0  0  0  0  0  0  0
    5.2360   -3.2990   25.3240 C   0  0  0  0  0  0  0  0  0  0  0  0
    4.4020   -2.4820   24.9310 O   0  0  0  0  0  0  0  0  0  0  0  0
    5.2070   -3.7230   26.6840 N   0  0  0  0  0  0  0  0  0  0  0  0
    4.4850   -3.0170   27.7060 C   0  0  0  0  0  0  0  0  0  0  0  0
    4.0110   -4.0560   28.7240 C   0  0  0  0  0  0  0  0  0  0  0  0
    5.1840   -4.6230   29.3850 N   0  0  0  0  0  0  0  0  0  0  0  0
    5.1880   -6.3340   29.1550 S   0  0  0  0  0  0  0  0  0  0  0  0
    6.6350   -6.6870   29.1010 O   0  0  0  0  0  0  0  0  0  0  0  0
    4.5710   -6.6380   27.8210 O   0  0  0  0  0  0  0  0  0  0  0  0
    4.3250   -7.1760   30.5480 C   0  0  0  0  0  0  0  0  0  0  0  0
    5.2220   -7.3370   31.5170 C   0  0  0  0  0  0  0  0  0  0  0  0
    4.7770   -7.9190   32.5900 C   0  0  0  0  0  0  0  0  0  0  0  0
    3.4250   -8.4150   32.8590 C   0  0  0  0  0  0  0  0  0  0  0  0
    2.4560   -8.2020   31.7120 C   0  0  0  0  0  0  0  0  0  0  0  0
    0.7700   -8.7170   31.7950 Cl  0  0  0  0  0  0  0  0  0  0  0  0
    2.8410   -7.5120   30.3490 C   0  0  0  0  0  0  0  0  0  0  0  0
    1.7950   -7.2260   28.9750 Cl  0  0  0  0  0  0  0  0  0  0  0  0
    6.3970   -4.1250   28.8170 C   0  0  0  0  0  0  0  0  0  0  0  0
    6.3960   -4.0730   27.3500 C   0  0  0  0  0  0  0  0  0  0  0  0
    6.8250   -2.7760   23.4530 C   0  0  0  0  0  0  0  0  0  0  0  0
    7.6310   -3.3030   22.3110 C   0  0  0  0  0  0  0  0  0  0  0  0
  1  2  1  0
  2  3  2  0
  2  4  1  0
  4  5  1  0
  5  6  1  0
  6  7  1  0
  7  8  1  0
  8  9  2  0
  8 10  1  0
 10 11  1  0
 11 12  1  0
 12 13  1  0
 13 14  1  0
 14 15  2  0
 14 16  2  0
 14 17  1  0
 17 18  2  0
 18 19  1  0
 19 20  2  0
 20 21  1  0
 21 22  1  0
 17 23  1  0
 21 23  2  0
 23 24  1  0
 13 25  1  0
 10 26  1  0
 25 26  1  0
  7 27  1  0
  4 28  1  0
 27 28  1  0
M  END
