piperidine-amides-25133-covalent
     RDKit          3D

 24 25  0  0  0  0  0  0  0  0999 V2000
    7.1330   -3.3260   19.2840 C   0  0  0  0  0  0  0  0  0  0  0  0
    6.3900   -4.1420   20.2740 C   0  0  0  0  0  0  0  0  0  0  0  0
    5.3210   -4.6260   19.9150 O   0  0  0  0  0  0  0  0  0  0  0  0
    6.9440   -4.3790   21.5280 N   0  0  0  0  0  0  0  0  0  0  0  0
    6.6110   -5.5650   22.2560 C   0  0  0  0  0  0  0  0  0  0  0  0
    5.8150   -5.1480   23.4510 C   0  0  0  0  0  0  0  0  0  0  0  0
    6.5580   -4.0470   24.2110 C   0  0  0  0  0  0  0  0  0  0  0  0
    5.7080   -3.7080   25.3620 C   0  0  0  0  0  0  0  0  0  0  0  0
    4.5810   -3.2440   25.1440 O   0  0  0  0  0  0  0  0  0  0  0  0
    6.1320   -3.8830   26.6870 N   0  0  0  0  0  0  0  0  0  0  0  0
    6.0030   -5.1760   27.3310 C   0  0  0  0  0  0  0  0  0  0  0  0
    5.9720   -4.6920   28.7400 C   0  0  0  0  0  0  0  0  0  0  0  0
    5.2380   -3.5460   28.8440 C   0  0  1  0  0  0  0  0  0  0  0  0
    3.8810   -3.6650   28.6960 C   0  0  0  0  0  0  0  0  0  0  0  0
    3.5470   -4.9040   28.1990 C   0  0  0  0  0  0  0  0  0  0  0  0
    3.7000   -5.8430   29.1820 O   0  0  0  0  0  0  0  0  0  0  0  0
    3.9610   -7.1350   28.8310 C   0  0  0  0  0  0  0  0  0  0  0  0
    5.4090   -2.5570   29.9310 C   0  0  0  0  0  0  0  0  0  0  0  0
    6.6030   -1.8900   29.7980 O   0  0  0  0  0  0  0  0  0  0  0  0
    4.5710   -2.2280   30.9680 O   0  0  0  0  0  0  0  0  0  0  0  0
    3.5750   -3.0990   31.4830 C   0  0  0  0  0  0  0  0  0  0  0  0
    5.6390   -2.8370   27.5540 C   0  0  0  0  0  0  0  0  0  0  0  0
    6.8930   -2.8440   23.3850 C   0  0  0  0  0  0  0  0  0  0  0  0
    7.6860   -3.3370   22.1990 C   0  0  0  0  0  0  0  0  0  0  0  0
  1  2  1  0
  2  3  2  0
  2  4  1  0
  4  5  1  0
  5  6  1  0
  6  7  1  0
  7  8  1  0
  8  9  2  0
  8 10  1  0
 10 11  1  0
 11 12  1  0
 12 13  1  0
 13 14  1  6
 14 15  1  0
 15 16  1  0
 16 17  1  0
 13 18  1  0
 18 19  2  0
 18 20  1  0
 20 21  1  0
 10 22  1  0
 13 22  1  0
  7 23  1  0
  4 24  1  0
 23 24  1  0
M  END
