piperidine-amides-10207-covalent
     RDKit          3D

 25 26  0  0  0  0  0  0  0  0999 V2000
    7.0870   -3.3180   19.2720 C   0  0  0  0  0  0  0  0  0  0  0  0
    6.3790   -4.1190   20.2750 C   0  0  0  0  0  0  0  0  0  0  0  0
    5.2940   -4.6340   19.9130 O   0  0  0  0  0  0  0  0  0  0  0  0
    6.9340   -4.3400   21.5350 N   0  0  0  0  0  0  0  0  0  0  0  0
    6.5480   -5.4640   22.3490 C   0  0  0  0  0  0  0  0  0  0  0  0
    5.8200   -4.9300   23.5500 C   0  0  0  0  0  0  0  0  0  0  0  0
    6.6040   -3.8310   24.2230 C   0  0  0  0  0  0  0  0  0  0  0  0
    5.8440   -3.3020   25.3720 C   0  0  0  0  0  0  0  0  0  0  0  0
    4.6100   -3.1290   25.2400 O   0  0  0  0  0  0  0  0  0  0  0  0
    6.4450   -2.9850   26.5990 N   0  0  0  0  0  0  0  0  0  0  0  0
    6.3780   -1.6680   27.1760 C   0  0  0  0  0  0  0  0  0  0  0  0
    7.0460   -1.5500   28.5290 C   0  0  0  0  0  0  0  0  0  0  0  0
    7.0770   -0.3790   29.2360 C   0  0  0  0  0  0  0  0  0  0  0  0
    6.4870    0.7740   28.7410 C   0  0  0  0  0  0  0  0  0  0  0  0
    6.5340    1.9100   29.4650 N   0  0  0  0  0  0  0  0  0  0  0  0
    6.1940    1.9220   31.1130 S   0  0  0  0  0  0  0  0  0  0  0  0
    5.9900    0.2270   31.6800 C   0  0  0  0  0  0  0  0  0  0  0  0
    4.9090    2.6360   31.3250 O   0  0  0  0  0  0  0  0  0  0  0  0
    7.3550    2.5940   31.7580 O   0  0  0  0  0  0  0  0  0  0  0  0
    5.7960    0.7530   27.3960 C   0  0  0  0  0  0  0  0  0  0  0  0
    5.2150    1.9260   26.9350 O   0  0  0  0  0  0  0  0  0  0  0  0
    3.8290    1.9510   26.5980 C   0  0  0  0  0  0  0  0  0  0  0  0
    5.7630   -0.5580   26.6000 C   0  0  0  0  0  0  0  0  0  0  0  0
    6.9070   -2.7090   23.3080 C   0  0  0  0  0  0  0  0  0  0  0  0
    7.6570   -3.2000   22.1060 C   0  0  0  0  0  0  0  0  0  0  0  0
  1  2  1  0
  2  3  2  0
  2  4  1  0
  4  5  1  0
  5  6  1  0
  6  7  1  0
  7  8  1  0
  8  9  2  0
  8 10  1  0
 10 11  1  0
 11 12  2  0
 12 13  1  0
 13 14  2  0
 14 15  1  0
 16 15  1  0
 16 17  1  0
 16 18  2  0
 16 19  2  0
 14 20  1  0
 20 21  1  0
 21 22  1  0
 11 23  1  0
 20 23  2  0
  7 24  1  0
  4 25  1  0
 24 25  1  0
M  END
