piperidine-amides-30701-covalent
     RDKit          3D

 27 29  0  0  0  0  0  0  0  0999 V2000
    7.1400   -3.3350   19.2480 C   0  0  0  0  0  0  0  0  0  0  0  0
    6.3700   -4.0790   20.2390 C   0  0  0  0  0  0  0  0  0  0  0  0
    5.3030   -4.6230   19.9130 O   0  0  0  0  0  0  0  0  0  0  0  0
    6.8660   -4.2250   21.5350 N   0  0  0  0  0  0  0  0  0  0  0  0
    7.7450   -3.2300   22.1070 C   0  0  0  0  0  0  0  0  0  0  0  0
    7.0210   -2.7230   23.3050 C   0  0  0  0  0  0  0  0  0  0  0  0
    6.6840   -3.8600   24.1980 C   0  0  0  0  0  0  0  0  0  0  0  0
    5.7730   -3.4240   25.2740 C   0  0  0  0  0  0  0  0  0  0  0  0
    4.7440   -2.7440   24.9880 O   0  0  0  0  0  0  0  0  0  0  0  0
    5.9610   -3.7180   26.6320 N   0  0  0  0  0  0  0  0  0  0  0  0
    6.4330   -2.6670   27.4800 C   0  0  0  0  0  0  0  0  0  0  0  0
    6.7100   -3.3460   28.7440 C   0  0  0  0  0  0  0  0  0  0  0  0
    5.6480   -4.1770   29.3240 C   0  0  1  0  0  0  0  0  0  0  0  0
    4.4320   -3.5180   29.8960 C   0  0  0  0  0  0  0  0  0  0  0  0
    3.4340   -4.6480   29.7750 C   0  0  0  0  0  0  0  0  0  0  0  0
    4.0700   -5.6020   28.8410 N   0  0  0  0  0  0  0  0  0  0  0  0
    2.9520   -6.2070   28.1290 C   0  0  0  0  0  0  0  0  0  0  0  0
    3.0900   -6.8440   26.9270 O   0  0  0  0  0  0  0  0  0  0  0  0
    1.7800   -6.1780   28.5760 O   0  0  0  0  0  0  0  0  0  0  0  0
    1.0050   -5.0230   28.6990 C   0  0  0  0  0  0  0  0  0  0  0  0
    0.4410   -4.8620   29.9730 C   0  0  0  0  0  0  0  0  0  0  0  0
   -0.5280   -5.1090   28.8780 C   0  0  0  0  0  0  0  0  0  0  0  0
    0.0120   -4.8670   27.4910 C   0  0  0  0  0  0  0  0  0  0  0  0
    5.2350   -5.0550   28.2070 C   0  0  1  0  0  0  0  0  0  0  0  0
    4.9010   -4.4690   27.2080 C   0  0  0  0  0  0  0  0  0  0  0  0
    6.0980   -5.0650   23.5670 C   0  0  0  0  0  0  0  0  0  0  0  0
    6.5880   -5.3800   22.3220 C   0  0  0  0  0  0  0  0  0  0  0  0
  1  2  1  0
  2  3  2  0
  2  4  1  0
  4  5  1  0
  5  6  1  0
  6  7  1  0
  7  8  1  0
  8  9  2  0
  8 10  1  0
 10 11  1  0
 11 12  1  0
 13 12  1  6
 13 14  1  0
 14 15  1  0
 15 16  1  0
 16 17  1  0
 17 18  2  0
 17 19  1  0
 20 19  1  0
 20 21  1  0
 20 22  1  0
 20 23  1  0
 13 24  1  0
 16 24  1  0
 10 25  1  0
 24 25  1  6
  7 26  1  0
  4 27  1  0
 26 27  1  0
M  END
