piperidine-amides-19408-covalent
     RDKit          3D

 22 24  0  0  0  0  0  0  0  0999 V2000
    7.1280   -3.3460   19.2240 C   0  0  0  0  0  0  0  0  0  0  0  0
    6.3560   -4.0220   20.2300 C   0  0  0  0  0  0  0  0  0  0  0  0
    5.2450   -4.5190   19.8820 O   0  0  0  0  0  0  0  0  0  0  0  0
    6.8290   -4.2180   21.5420 N   0  0  0  0  0  0  0  0  0  0  0  0
    6.3990   -5.4320   22.2550 C   0  0  0  0  0  0  0  0  0  0  0  0
    5.3900   -4.7460   23.2450 C   0  0  0  0  0  0  0  0  0  0  0  0
    6.2710   -3.8860   24.1140 C   0  0  0  0  0  0  0  0  0  0  0  0
    5.4830   -3.3100   25.3650 C   0  0  0  0  0  0  0  0  0  0  0  0
    4.6550   -4.1050   25.7780 O   0  0  0  0  0  0  0  0  0  0  0  0
    5.9230   -2.1480   25.6050 N   0  0  0  0  0  0  0  0  0  0  0  0
    6.6320   -1.0460   25.6530 C   0  0  0  0  0  0  0  0  0  0  0  0
    6.0190   -0.1430   26.3080 C   0  0  0  0  0  0  0  0  0  0  0  0
    6.1670   -0.0620   27.7140 C   0  0  0  0  0  0  0  0  0  0  0  0
    6.8640   -1.0760   28.5320 C   0  0  0  0  0  0  0  0  0  0  0  0
    6.8950   -0.7520   30.0280 C   0  0  0  0  0  0  0  0  0  0  0  0
    6.2900    0.4150   30.4860 C   0  0  0  0  0  0  0  0  0  0  0  0
    5.5890    1.4950   29.9380 C   0  0  0  0  0  0  0  0  0  0  0  0
    5.0340    2.5990   30.5160 F   0  0  0  0  0  0  0  0  0  0  0  0
    5.5990    1.1130   28.4590 C   0  0  0  0  0  0  0  0  0  0  0  0
    5.0120   -1.2850   26.4620 C   0  0  0  0  0  0  0  0  0  0  0  0
    6.9640   -2.7640   23.3190 C   0  0  0  0  0  0  0  0  0  0  0  0
    7.6540   -3.2460   22.2430 C   0  0  0  0  0  0  0  0  0  0  0  0
  1  2  1  0
  2  3  2  0
  2  4  1  0
  4  5  1  0
  5  6  1  0
  6  7  1  0
  7  8  1  0
  8  9  2  0
  8 10  1  0
 10 11  1  0
 11 12  1  0
 12 13  1  0
 13 14  2  0
 14 15  1  0
 15 16  2  0
 16 17  1  0
 17 18  1  0
 13 19  1  0
 17 19  2  0
 10 20  1  0
 12 20  1  0
  7 21  1  0
  4 22  1  0
 21 22  1  0
M  END
