piperidine-amides-15284-covalent
     RDKit          3D

 18 19  0  0  0  0  0  0  0  0999 V2000
    7.0630   -3.3300   19.3050 C   0  0  0  0  0  0  0  0  0  0  0  0
    6.3930   -4.1720   20.3070 C   0  0  0  0  0  0  0  0  0  0  0  0
    5.3830   -4.8370   19.9830 O   0  0  0  0  0  0  0  0  0  0  0  0
    6.9010   -4.2770   21.6100 N   0  0  0  0  0  0  0  0  0  0  0  0
    7.7040   -3.1770   22.1480 C   0  0  0  0  0  0  0  0  0  0  0  0
    7.5300   -3.0860   23.6710 C   0  0  0  0  0  0  0  0  0  0  0  0
    6.1540   -3.6160   23.9910 C   0  0  0  0  0  0  0  0  0  0  0  0
    5.7600   -3.2540   25.3640 C   0  0  0  0  0  0  0  0  0  0  0  0
    4.6280   -3.6170   25.7560 O   0  0  0  0  0  0  0  0  0  0  0  0
    6.6290   -2.5030   26.1900 N   0  0  0  0  0  0  0  0  0  0  0  0
    6.0570   -1.6310   27.1810 C   0  0  1  0  0  0  0  0  0  0  0  0
    7.0470   -1.3950   28.2890 C   0  0  0  0  0  0  0  0  0  0  0  0
    6.7370   -0.4320   29.1990 C   0  0  0  0  0  0  0  0  0  0  0  0
    6.2360    0.7610   28.7160 C   0  0  0  0  0  0  0  0  0  0  0  0
    5.4660    0.6840   27.5130 N   0  0  0  0  0  0  0  0  0  0  0  0
    5.7020   -0.3070   26.5740 C   0  0  0  0  0  0  0  0  0  0  0  0
    6.0690   -5.0700   23.7410 C   0  0  0  0  0  0  0  0  0  0  0  0
    6.6570   -5.4520   22.4150 C   0  0  0  0  0  0  0  0  0  0  0  0
  1  2  1  0
  2  3  2  0
  2  4  1  0
  4  5  1  0
  5  6  1  0
  6  7  1  0
  7  8  1  0
  8  9  2  0
  8 10  1  0
 11 10  1  6
 11 12  1  0
 12 13  1  0
 13 14  1  0
 14 15  1  0
 11 16  1  0
 15 16  1  0
  7 17  1  0
  4 18  1  0
 17 18  1  0
M  END
