piperidine-amides-32371-covalent
     RDKit          3D

 28 29  0  0  0  0  0  0  0  0999 V2000
    7.0320   -3.3310   19.3230 C   0  0  0  0  0  0  0  0  0  0  0  0
    6.3750   -4.2460   20.2930 C   0  0  0  0  0  0  0  0  0  0  0  0
    5.3320   -4.8250   19.9620 O   0  0  0  0  0  0  0  0  0  0  0  0
    6.9820   -4.4920   21.5390 N   0  0  0  0  0  0  0  0  0  0  0  0
    6.6250   -5.6450   22.3110 C   0  0  0  0  0  0  0  0  0  0  0  0
    5.6980   -5.1210   23.4070 C   0  0  0  0  0  0  0  0  0  0  0  0
    6.4730   -4.1610   24.2500 C   0  0  0  0  0  0  0  0  0  0  0  0
    5.6540   -3.5860   25.3360 C   0  0  0  0  0  0  0  0  0  0  0  0
    4.7920   -2.7670   25.0000 O   0  0  0  0  0  0  0  0  0  0  0  0
    5.8450   -3.9680   26.6620 N   0  0  0  0  0  0  0  0  0  0  0  0
    4.8730   -3.8540   27.6650 C   0  0  0  0  0  0  0  0  0  0  0  0
    5.1690   -4.3290   28.9050 C   0  0  0  0  0  0  0  0  0  0  0  0
    6.1530   -5.3170   28.9640 C   0  0  0  0  0  0  0  0  0  0  0  0
    7.1640   -5.1490   28.0800 C   0  0  0  0  0  0  0  0  0  0  0  0
    7.1340   -3.9410   27.2200 C   0  0  1  0  0  0  0  0  0  0  0  0
    8.2270   -3.8560   26.2100 C   0  0  0  0  0  0  0  0  0  0  0  0
    9.3180   -4.6540   26.8980 C   0  0  0  0  0  0  0  0  0  0  0  0
   10.4300   -4.7470   26.2640 N   0  0  0  0  0  0  0  0  0  0  0  0
   10.0320   -5.7070   25.4880 C   0  0  0  0  0  0  0  0  0  0  0  0
   10.6170   -3.5810   25.4580 C   0  0  0  0  0  0  0  0  0  0  0  0
   10.3790   -2.3910   25.7210 O   0  0  0  0  0  0  0  0  0  0  0  0
   11.1470   -3.6300   24.1670 O   0  0  0  0  0  0  0  0  0  0  0  0
   12.0650   -2.6280   23.7130 C   0  0  0  0  0  0  0  0  0  0  0  0
   12.4520   -1.5110   24.3960 C   0  0  0  0  0  0  0  0  0  0  0  0
   13.4730   -2.5940   24.1420 C   0  0  0  0  0  0  0  0  0  0  0  0
   11.8420   -2.2310   22.4060 C   0  0  0  0  0  0  0  0  0  0  0  0
    7.0170   -2.9810   23.4550 C   0  0  0  0  0  0  0  0  0  0  0  0
    7.6990   -3.4160   22.2120 C   0  0  0  0  0  0  0  0  0  0  0  0
  1  2  1  0
  2  3  2  0
  2  4  1  0
  4  5  1  0
  5  6  1  0
  6  7  1  0
  7  8  1  0
  8  9  2  0
  8 10  1  0
 10 11  1  0
 11 12  1  0
 12 13  1  0
 13 14  1  0
 10 15  1  0
 14 15  1  0
 15 16  1  6
 16 17  1  0
 17 18  1  0
 18 19  1  0
 18 20  1  0
 20 21  2  0
 20 22  1  0
 23 22  1  0
 23 24  1  0
 23 25  1  0
 23 26  1  0
  7 27  1  0
  4 28  1  0
 27 28  1  0
M  END
