piperidine-amides-34303-covalent
     RDKit          3D

 23 25  0  0  0  0  0  0  0  0999 V2000
    7.0630   -3.3270   19.3070 C   0  0  0  0  0  0  0  0  0  0  0  0
    6.2810   -4.1450   20.2380 C   0  0  0  0  0  0  0  0  0  0  0  0
    5.2200   -4.6870   19.8960 O   0  0  0  0  0  0  0  0  0  0  0  0
    6.7530   -4.3600   21.5130 N   0  0  0  0  0  0  0  0  0  0  0  0
    6.3490   -5.5900   22.1480 C   0  0  0  0  0  0  0  0  0  0  0  0
    5.1880   -5.2350   23.0910 C   0  0  0  0  0  0  0  0  0  0  0  0
    5.6210   -4.0450   23.9160 C   0  0  0  0  0  0  0  0  0  0  0  0
    4.5750   -3.7060   24.9220 C   0  0  0  0  0  0  0  0  0  0  0  0
    3.6260   -2.9670   24.6240 O   0  0  0  0  0  0  0  0  0  0  0  0
    4.7490   -4.2430   26.2050 N   0  0  0  0  0  0  0  0  0  0  0  0
    3.9680   -3.9360   27.4020 C   0  0  0  0  0  0  0  0  0  0  0  0
    4.6510   -4.7660   28.4650 C   0  0  0  0  0  0  0  0  0  0  0  0
    5.8510   -4.9920   27.9680 C   0  0  0  0  0  0  0  0  0  0  0  0
    5.8710   -4.0690   26.9610 C   0  0  1  0  0  0  0  0  0  0  0  0
    6.6690   -4.0850   25.8580 C   0  0  0  0  0  0  0  0  0  0  0  0
    7.1100   -5.2330   25.4720 C   0  0  0  0  0  0  0  0  0  0  0  0
    7.9550   -5.5410   24.3290 C   0  0  0  0  0  0  0  0  0  0  0  0
    8.1740   -4.0990   23.7730 C   0  0  0  0  0  0  0  0  0  0  0  0
    7.7570   -2.6410   24.0830 C   0  0  0  0  0  0  0  0  0  0  0  0
    6.9220   -2.8830   25.2530 C   0  0  0  0  0  0  0  0  0  0  0  0
    6.0420   -1.1350   26.0130 I   0  0  0  0  0  0  0  0  0  0  0  0
    5.9030   -2.8760   23.0090 C   0  0  0  0  0  0  0  0  0  0  0  0
    6.9950   -3.1820   22.2500 C   0  0  0  0  0  0  0  0  0  0  0  0
  1  2  1  0
  2  3  2  0
  2  4  1  0
  4  5  1  0
  5  6  1  0
  6  7  1  0
  7  8  1  0
  8  9  2  0
  8 10  1  0
 10 11  1  0
 11 12  1  0
 12 13  1  0
 10 14  1  0
 13 14  1  0
 14 15  1  6
 15 16  2  0
 16 17  1  0
 17 18  2  0
 18 19  1  0
 15 20  1  0
 19 20  2  0
 20 21  1  0
  7 22  1  0
  4 23  1  0
 22 23  1  0
M  END
