piperidine-amides-4427-covalent
     RDKit          3D

 25 26  0  0  0  0  0  0  0  0999 V2000
    7.0590   -3.3360   19.3430 C   0  0  0  0  0  0  0  0  0  0  0  0
    6.3990   -4.1780   20.3520 C   0  0  0  0  0  0  0  0  0  0  0  0
    5.3790   -4.8090   19.9790 O   0  0  0  0  0  0  0  0  0  0  0  0
    6.9300   -4.3120   21.6660 N   0  0  0  0  0  0  0  0  0  0  0  0
    6.5850   -5.4670   22.4250 C   0  0  0  0  0  0  0  0  0  0  0  0
    6.0430   -5.1340   23.7310 C   0  0  0  0  0  0  0  0  0  0  0  0
    6.1780   -3.7000   24.0350 C   0  0  0  0  0  0  0  0  0  0  0  0
    5.7150   -3.3540   25.4210 C   0  0  0  0  0  0  0  0  0  0  0  0
    4.5180   -3.5390   25.7060 O   0  0  0  0  0  0  0  0  0  0  0  0
    6.5630   -2.8040   26.4070 N   0  0  0  0  0  0  0  0  0  0  0  0
    6.4110   -1.5290   26.9910 C   0  0  0  0  0  0  0  0  0  0  0  0
    5.7790   -0.4040   26.3470 C   0  0  0  0  0  0  0  0  0  0  0  0
    5.7370    0.8440   27.1920 C   0  0  0  0  0  0  0  0  0  0  0  0
    5.2020    2.0770   26.8760 C   0  0  0  0  0  0  0  0  0  0  0  0
    3.8230    2.0720   26.9200 O   0  0  0  0  0  0  0  0  0  0  0  0
    3.2800    0.8020   26.7960 C   0  0  0  0  0  0  0  0  0  0  0  0
    6.2490    1.0410   28.5430 C   0  0  0  0  0  0  0  0  0  0  0  0
    6.9450   -0.0930   29.3200 C   0  0  0  0  0  0  0  0  0  0  0  0
    7.5430   -0.0900   30.7080 C   0  0  0  0  0  0  0  0  0  0  0  0
    8.8710    0.0540   30.9220 O   0  0  0  0  0  0  0  0  0  0  0  0
    6.7420   -0.1980   31.8800 O   0  0  0  0  0  0  0  0  0  0  0  0
    7.3380    0.2370   33.0350 C   0  0  0  0  0  0  0  0  0  0  0  0
    6.9350   -1.2780   28.4060 C   0  0  0  0  0  0  0  0  0  0  0  0
    7.5610   -3.2550   23.6990 C   0  0  0  0  0  0  0  0  0  0  0  0
    7.6500   -3.2070   22.3010 C   0  0  0  0  0  0  0  0  0  0  0  0
  1  2  1  0
  2  3  2  0
  2  4  1  0
  4  5  1  0
  5  6  1  0
  6  7  1  0
  7  8  1  0
  8  9  2  0
  8 10  1  0
 10 11  1  0
 11 12  2  0
 12 13  1  0
 13 14  1  0
 14 15  1  0
 15 16  1  0
 13 17  2  0
 17 18  1  0
 18 19  1  0
 19 20  2  0
 19 21  1  0
 21 22  1  0
 11 23  1  0
 18 23  2  0
  7 24  1  0
  4 25  1  0
 24 25  1  0
M  END
