piperidine-amides-545-covalent
     RDKit          3D

 27 29  0  0  0  0  0  0  0  0999 V2000
    7.0240   -3.3820   19.3340 C   0  0  0  0  0  0  0  0  0  0  0  0
    6.3690   -4.1500   20.3800 C   0  0  0  0  0  0  0  0  0  0  0  0
    5.3940   -4.8760   20.0000 O   0  0  0  0  0  0  0  0  0  0  0  0
    6.7660   -4.1730   21.7510 N   0  0  0  0  0  0  0  0  0  0  0  0
    7.7500   -3.1220   22.1800 C   0  0  0  0  0  0  0  0  0  0  0  0
    7.5670   -3.0280   23.7500 C   0  0  0  0  0  0  0  0  0  0  0  0
    6.2420   -3.6800   23.9830 C   0  0  0  0  0  0  0  0  0  0  0  0
    5.3730   -3.1010   25.1950 C   0  0  0  0  0  0  0  0  0  0  0  0
    4.3050   -2.7420   24.7290 O   0  0  0  0  0  0  0  0  0  0  0  0
    5.9270   -3.1280   26.3540 N   0  0  0  0  0  0  0  0  0  0  0  0
    6.2960   -3.0440   27.6740 C   0  0  0  0  0  0  0  0  0  0  0  0
    6.3140   -2.1820   28.7590 C   0  0  0  0  0  0  0  0  0  0  0  0
    7.4010   -1.3910   29.1830 C   0  0  0  0  0  0  0  0  0  0  0  0
    7.5050   -0.4570   30.3240 C   0  0  0  0  0  0  0  0  0  0  0  0
    6.1760   -0.4070   31.0990 C   0  0  0  0  0  0  0  0  0  0  0  0
    6.0720    0.4250   32.2380 O   0  0  0  0  0  0  0  0  0  0  0  0
    6.9820    0.2580   33.3120 C   0  0  0  0  0  0  0  0  0  0  0  0
    6.3690   -0.5090   34.3570 C   0  0  0  0  0  0  0  0  0  0  0  0
    7.5070   -0.5950   35.4190 C   0  0  0  0  0  0  0  0  0  0  0  0
    8.8990    0.0680   35.2100 C   0  0  0  0  0  0  0  0  0  0  0  0
    9.1670    0.7430   34.0890 C   0  0  0  0  0  0  0  0  0  0  0  0
   10.4080    1.3000   33.9790 F   0  0  0  0  0  0  0  0  0  0  0  0
    8.2240    0.8420   33.1400 C   0  0  0  0  0  0  0  0  0  0  0  0
    5.0520   -1.2300   30.6430 N   0  0  0  0  0  0  0  0  0  0  0  0
    5.0440   -2.1070   29.5290 C   0  0  0  0  0  0  0  0  0  0  0  0
    6.1740   -5.1440   23.7430 C   0  0  0  0  0  0  0  0  0  0  0  0
    6.7050   -5.4270   22.4780 C   0  0  0  0  0  0  0  0  0  0  0  0
  1  2  1  0
  2  3  2  0
  2  4  1  0
  4  5  1  0
  5  6  1  0
  6  7  1  0
  7  8  1  0
  8  9  2  0
  8 10  1  0
 10 11  1  0
 11 12  1  0
 12 13  2  0
 13 14  1  0
 14 15  2  0
 15 16  1  0
 16 17  1  0
 17 18  2  0
 18 19  1  0
 19 20  2  0
 20 21  1  0
 21 22  1  0
 17 23  1  0
 21 23  2  0
 15 24  1  0
 12 25  1  0
 24 25  2  0
  7 26  1  0
  4 27  1  0
 26 27  1  0
M  END
