piperidine-amides-1108-covalent
     RDKit          3D

 23 24  0  0  0  0  0  0  0  0999 V2000
    7.0680   -3.3320   19.2960 C   0  0  0  0  0  0  0  0  0  0  0  0
    6.3750   -4.1890   20.2940 C   0  0  0  0  0  0  0  0  0  0  0  0
    5.3470   -4.7980   19.9620 O   0  0  0  0  0  0  0  0  0  0  0  0
    6.9350   -4.3220   21.5790 N   0  0  0  0  0  0  0  0  0  0  0  0
    7.7440   -3.2820   22.1700 C   0  0  0  0  0  0  0  0  0  0  0  0
    6.9000   -2.6620   23.2710 C   0  0  0  0  0  0  0  0  0  0  0  0
    6.4610   -3.7940   24.1340 C   0  0  0  0  0  0  0  0  0  0  0  0
    5.6080   -3.3370   25.2480 C   0  0  0  0  0  0  0  0  0  0  0  0
    4.3860   -3.3880   25.0690 O   0  0  0  0  0  0  0  0  0  0  0  0
    6.1900   -2.8740   26.4270 N   0  0  0  0  0  0  0  0  0  0  0  0
    5.7480   -1.7840   27.2260 C   0  0  2  0  0  0  0  0  0  0  0  0
    4.4160   -1.4950   27.3820 C   0  0  0  0  0  0  0  0  0  0  0  0
    6.3170   -0.5310   26.6170 C   0  0  0  0  0  0  0  0  0  0  0  0
    5.9510    0.6730   27.1480 C   0  0  0  0  0  0  0  0  0  0  0  0
    6.0780    0.8170   28.6000 C   0  0  0  0  0  0  0  0  0  0  0  0
    6.5660   -0.4260   29.3330 C   0  0  0  0  0  0  0  0  0  0  0  0
    6.5340   -1.6600   28.4030 C   0  0  1  0  0  0  0  0  0  0  0  0
    6.0310   -2.7560   29.0590 C   0  0  0  0  0  0  0  0  0  0  0  0
    6.7740   -3.8980   28.8590 O   0  0  0  0  0  0  0  0  0  0  0  0
    4.8810   -2.7180   29.8260 O   0  0  0  0  0  0  0  0  0  0  0  0
    3.7630   -3.5350   29.6120 C   0  0  0  0  0  0  0  0  0  0  0  0
    5.7700   -4.9180   23.4250 C   0  0  0  0  0  0  0  0  0  0  0  0
    6.5640   -5.4170   22.4260 C   0  0  0  0  0  0  0  0  0  0  0  0
  1  2  1  0
  2  3  2  0
  2  4  1  0
  4  5  1  0
  5  6  1  0
  6  7  1  0
  7  8  1  0
  8  9  2  0
  8 10  1  0
 11 10  1  0
 11 12  1  1
 11 13  1  0
 13 14  1  0
 14 15  1  0
 15 16  1  0
 11 17  1  0
 16 17  1  0
 17 18  1  1
 18 19  2  0
 18 20  1  0
 20 21  1  0
  7 22  1  0
  4 23  1  0
 22 23  1  0
M  END
