piperidine-amides-11331-covalent
     RDKit          3D

 27 29  0  0  0  0  0  0  0  0999 V2000
    7.0400   -3.3390   19.3170 C   0  0  0  0  0  0  0  0  0  0  0  0
    6.3660   -4.1390   20.3450 C   0  0  0  0  0  0  0  0  0  0  0  0
    5.4250   -4.8780   19.9970 O   0  0  0  0  0  0  0  0  0  0  0  0
    6.7900   -4.1060   21.6920 N   0  0  0  0  0  0  0  0  0  0  0  0
    7.7480   -3.1230   22.1520 C   0  0  0  0  0  0  0  0  0  0  0  0
    7.5590   -3.0950   23.6270 C   0  0  0  0  0  0  0  0  0  0  0  0
    6.2000   -3.6240   23.9380 C   0  0  0  0  0  0  0  0  0  0  0  0
    5.7250   -3.2990   25.3070 C   0  0  0  0  0  0  0  0  0  0  0  0
    4.5360   -3.5810   25.6380 O   0  0  0  0  0  0  0  0  0  0  0  0
    6.5180   -2.6610   26.2950 N   0  0  0  0  0  0  0  0  0  0  0  0
    5.8800   -1.7050   27.2350 C   0  0  1  0  0  0  0  0  0  0  0  0
    6.5840   -1.6830   28.5270 C   0  0  0  0  0  0  0  0  0  0  0  0
    6.7500   -0.3010   28.9380 C   0  0  0  0  0  0  0  0  0  0  0  0
    6.4130    0.5850   27.8230 N   0  0  0  0  0  0  0  0  0  0  0  0
    5.3920    1.5260   28.3740 C   0  0  1  0  0  0  0  0  0  0  0  0
    5.8050    2.3500   29.5830 C   0  0  0  0  0  0  0  0  0  0  0  0
    7.1830    2.8940   29.4070 C   0  0  0  0  0  0  0  0  0  0  0  0
    8.0240    3.1020   30.4690 O   0  0  0  0  0  0  0  0  0  0  0  0
    7.4930    3.1600   28.1330 N   0  0  0  0  0  0  0  0  0  0  0  0
    8.4780    4.1500   27.7560 C   0  0  0  0  0  0  0  0  0  0  0  0
    9.4370    4.6550   28.6410 C   0  0  0  0  0  0  0  0  0  0  0  0
    6.4650    3.2560   27.1590 C   0  0  0  0  0  0  0  0  0  0  0  0
    6.5670    3.9770   26.1330 O   0  0  0  0  0  0  0  0  0  0  0  0
    5.3040    2.4810   27.4060 N   0  0  0  0  0  0  0  0  0  0  0  0
    5.8080   -0.2680   26.7830 C   0  0  0  0  0  0  0  0  0  0  0  0
    6.1650   -5.1310   23.6010 C   0  0  0  0  0  0  0  0  0  0  0  0
    6.5970   -5.3400   22.4750 C   0  0  0  0  0  0  0  0  0  0  0  0
  1  2  1  0
  2  3  2  0
  2  4  1  0
  4  5  1  0
  5  6  1  0
  6  7  1  0
  7  8  1  0
  8  9  2  0
  8 10  1  0
 11 10  1  6
 11 12  1  0
 12 13  1  0
 13 14  1  0
 15 14  1  6
 15 16  1  0
 16 17  1  0
 17 18  2  0
 17 19  1  0
 19 20  1  0
 20 21  1  0
 19 22  1  0
 22 23  2  0
 15 24  1  0
 22 24  1  0
 11 25  1  0
 14 25  1  0
  7 26  1  0
  4 27  1  0
 26 27  1  0
M  END
