piperidine-amides-18872-covalent
     RDKit          3D

 21 22  0  0  0  0  0  0  0  0999 V2000
    7.1060   -3.4080   19.2270 C   0  0  0  0  0  0  0  0  0  0  0  0
    6.4480   -4.1520   20.2680 C   0  0  0  0  0  0  0  0  0  0  0  0
    5.3700   -4.7590   19.9710 O   0  0  0  0  0  0  0  0  0  0  0  0
    6.9970   -4.2710   21.5580 N   0  0  0  0  0  0  0  0  0  0  0  0
    6.7040   -5.5030   22.3100 C   0  0  0  0  0  0  0  0  0  0  0  0
    5.7860   -4.8970   23.4330 C   0  0  0  0  0  0  0  0  0  0  0  0
    6.5860   -3.7770   24.0860 C   0  0  0  0  0  0  0  0  0  0  0  0
    5.8530   -3.3930   25.4210 C   0  0  0  0  0  0  0  0  0  0  0  0
    4.7700   -2.8650   25.2000 O   0  0  0  0  0  0  0  0  0  0  0  0
    6.5870   -3.7460   26.3780 N   0  0  0  0  0  0  0  0  0  0  0  0
    7.6650   -4.1780   27.0920 C   0  0  0  0  0  0  0  0  0  0  0  0
    7.9090   -5.1810   27.9780 C   0  0  0  0  0  0  0  0  0  0  0  0
    6.8610   -5.2030   28.8740 O   0  0  0  0  0  0  0  0  0  0  0  0
    6.1950   -4.0050   28.9010 C   0  0  0  0  0  0  0  0  0  0  0  0
    5.6700   -3.8040   27.5530 C   0  0  2  0  0  0  0  0  0  0  0  0
    4.5680   -2.7460   27.7450 C   0  0  0  0  0  0  0  0  0  0  0  0
    5.8150   -2.3190   28.0100 C   0  0  0  0  0  0  0  0  0  0  0  0
    6.3750   -2.2000   29.2990 O   0  0  0  0  0  0  0  0  0  0  0  0
    7.3250   -1.2620   29.6650 C   0  0  0  0  0  0  0  0  0  0  0  0
    7.0480   -2.6890   23.2830 C   0  0  0  0  0  0  0  0  0  0  0  0
    7.8690   -3.3410   22.1580 C   0  0  0  0  0  0  0  0  0  0  0  0
  1  2  1  0
  2  3  2  0
  2  4  1  0
  4  5  1  0
  5  6  1  0
  6  7  1  0
  7  8  1  0
  8  9  2  0
  8 10  1  0
 10 11  1  0
 11 12  1  0
 12 13  1  0
 13 14  1  0
 10 15  1  0
 14 15  1  0
 15 16  1  1
 15 17  1  0
 17 18  1  0
 18 19  1  0
  7 20  1  0
  4 21  1  0
 20 21  1  0
M  END
