piperidine-amides-4986-covalent
     RDKit          3D

 23 24  0  0  0  0  0  0  0  0999 V2000
    7.0810   -3.2900   19.2390 C   0  0  0  0  0  0  0  0  0  0  0  0
    6.3690   -4.0580   20.2860 C   0  0  0  0  0  0  0  0  0  0  0  0
    5.3140   -4.6140   19.9190 O   0  0  0  0  0  0  0  0  0  0  0  0
    6.8760   -4.1990   21.6000 N   0  0  0  0  0  0  0  0  0  0  0  0
    7.6270   -3.1580   22.2310 C   0  0  0  0  0  0  0  0  0  0  0  0
    7.1460   -2.8760   23.5830 C   0  0  0  0  0  0  0  0  0  0  0  0
    5.9270   -3.6450   23.9020 C   0  0  0  0  0  0  0  0  0  0  0  0
    5.3790   -3.3380   25.2530 C   0  0  0  0  0  0  0  0  0  0  0  0
    4.5320   -4.1170   25.7130 O   0  0  0  0  0  0  0  0  0  0  0  0
    5.7470   -2.2130   26.0110 N   0  0  0  0  0  0  0  0  0  0  0  0
    6.6050   -2.3310   27.1990 C   0  0  0  0  0  0  0  0  0  0  0  0
    6.1420   -1.6060   28.4160 C   0  0  0  0  0  0  0  0  0  0  0  0
    4.7770   -1.1770   28.7030 C   0  0  0  0  0  0  0  0  0  0  0  0
    4.3220   -0.5060   29.8180 C   0  0  0  0  0  0  0  0  0  0  0  0
    5.1340   -0.1260   30.8710 C   0  0  0  0  0  0  0  0  0  0  0  0
    4.5730    0.5340   31.9200 C   0  0  0  0  0  0  0  0  0  0  0  0
    5.2060    1.6410   32.4340 F   0  0  0  0  0  0  0  0  0  0  0  0
    4.4940   -0.3960   32.9810 F   0  0  0  0  0  0  0  0  0  0  0  0
    3.2830    0.8310   31.6210 F   0  0  0  0  0  0  0  0  0  0  0  0
    6.5320   -0.5670   30.5740 C   0  0  0  0  0  0  0  0  0  0  0  0
    6.9730   -1.2160   29.4970 N   0  0  0  0  0  0  0  0  0  0  0  0
    6.0170   -5.1070   23.6300 C   0  0  0  0  0  0  0  0  0  0  0  0
    6.5730   -5.3850   22.3650 C   0  0  0  0  0  0  0  0  0  0  0  0
  1  2  1  0
  2  3  2  0
  2  4  1  0
  4  5  1  0
  5  6  1  0
  6  7  1  0
  7  8  1  0
  8  9  2  0
  8 10  1  0
 10 11  1  0
 11 12  1  0
 12 13  2  0
 13 14  1  0
 14 15  2  0
 15 16  1  0
 16 17  1  0
 16 18  1  0
 16 19  1  0
 15 20  1  0
 12 21  1  0
 20 21  2  0
  7 22  1  0
  4 23  1  0
 22 23  1  0
M  END
