piperidine-amides-4521-covalent
     RDKit          3D

 25 26  0  0  0  0  0  0  0  0999 V2000
    7.0530   -3.3160   19.2480 C   0  0  0  0  0  0  0  0  0  0  0  0
    6.3600   -4.0950   20.3020 C   0  0  0  0  0  0  0  0  0  0  0  0
    5.3260   -4.6900   19.9370 O   0  0  0  0  0  0  0  0  0  0  0  0
    6.8640   -4.1930   21.6160 N   0  0  0  0  0  0  0  0  0  0  0  0
    6.6150   -5.3610   22.3980 C   0  0  0  0  0  0  0  0  0  0  0  0
    6.1010   -5.0410   23.7300 C   0  0  0  0  0  0  0  0  0  0  0  0
    6.0500   -3.5900   23.9940 C   0  0  0  0  0  0  0  0  0  0  0  0
    5.6340   -3.2610   25.3940 C   0  0  0  0  0  0  0  0  0  0  0  0
    4.5590   -2.6540   25.5210 O   0  0  0  0  0  0  0  0  0  0  0  0
    6.3800   -3.5850   26.5530 N   0  0  0  0  0  0  0  0  0  0  0  0
    6.3410   -4.9060   27.2410 C   0  0  0  0  0  0  0  0  0  0  0  0
    5.0680   -5.2010   27.9200 C   0  0  0  0  0  0  0  0  0  0  0  0
    4.2610   -6.3080   27.4130 C   0  0  0  0  0  0  0  0  0  0  0  0
    2.8740   -5.9020   27.3350 N   0  0  0  0  0  0  0  0  0  0  0  0
    1.9630   -6.2820   26.3220 C   0  0  0  0  0  0  0  0  0  0  0  0
    2.0720   -7.4410   25.8860 O   0  0  0  0  0  0  0  0  0  0  0  0
    1.0230   -5.3690   25.8810 C   0  0  0  0  0  0  0  0  0  0  0  0
    0.4160   -5.5850   24.6770 C   0  0  0  0  0  0  0  0  0  0  0  0
   -0.5290   -4.7240   24.1780 C   0  0  0  0  0  0  0  0  0  0  0  0
   -0.9180   -3.5970   24.8530 C   0  0  0  0  0  0  0  0  0  0  0  0
   -0.3280   -3.3260   26.0860 C   0  0  0  0  0  0  0  0  0  0  0  0
   -0.8400   -1.7690   27.0580 Br  0  0  0  0  0  0  0  0  0  0  0  0
    0.6820   -4.2610   26.6060 C   0  0  0  0  0  0  0  0  0  0  0  0
    7.2960   -2.8650   23.6130 C   0  0  0  0  0  0  0  0  0  0  0  0
    7.7050   -3.1500   22.1890 C   0  0  0  0  0  0  0  0  0  0  0  0
  1  2  1  0
  2  3  2  0
  2  4  1  0
  4  5  1  0
  5  6  1  0
  6  7  1  0
  7  8  1  0
  8  9  2  0
  8 10  1  0
 10 11  1  0
 11 12  1  0
 12 13  1  0
 13 14  1  0
 14 15  1  0
 15 16  2  0
 15 17  1  0
 17 18  2  0
 18 19  1  0
 19 20  2  0
 20 21  1  0
 21 22  1  0
 17 23  1  0
 21 23  2  0
  7 24  1  0
  4 25  1  0
 24 25  1  0
M  END
