piperidine-amides-35206-covalent
     RDKit          3D

 29 31  0  0  0  0  0  0  0  0999 V2000
    7.0830   -3.2670   19.1920 C   0  0  0  0  0  0  0  0  0  0  0  0
    6.3430   -4.0280   20.2340 C   0  0  0  0  0  0  0  0  0  0  0  0
    5.2970   -4.5730   19.8930 O   0  0  0  0  0  0  0  0  0  0  0  0
    6.8580   -4.1440   21.5270 N   0  0  0  0  0  0  0  0  0  0  0  0
    7.6890   -3.1240   22.1170 C   0  0  0  0  0  0  0  0  0  0  0  0
    7.0700   -2.6410   23.3970 C   0  0  0  0  0  0  0  0  0  0  0  0
    6.5180   -3.8340   24.1760 C   0  0  0  0  0  0  0  0  0  0  0  0
    5.7550   -3.3150   25.3330 C   0  0  0  0  0  0  0  0  0  0  0  0
    4.5240   -3.2260   25.2450 O   0  0  0  0  0  0  0  0  0  0  0  0
    6.3990   -2.9050   26.5260 N   0  0  0  0  0  0  0  0  0  0  0  0
    6.8330   -1.5300   26.5980 C   0  0  0  0  0  0  0  0  0  0  0  0
    6.3510   -3.7030   27.7090 C   0  0  0  0  0  0  0  0  0  0  0  0
    5.1490   -3.6380   28.3600 C   0  0  0  0  0  0  0  0  0  0  0  0
    4.3000   -2.7140   27.8850 C   0  0  0  0  0  0  0  0  0  0  0  0
    3.1080   -2.5590   28.4320 C   0  0  0  0  0  0  0  0  0  0  0  0
    2.6140   -3.3570   29.5760 C   0  0  0  0  0  0  0  0  0  0  0  0
    3.5910   -4.3860   30.0910 C   0  0  0  0  0  0  0  0  0  0  0  0
    2.9990   -5.4470   31.5710 Br  0  0  0  0  0  0  0  0  0  0  0  0
    5.0030   -4.6250   29.5020 C   0  0  0  0  0  0  0  0  0  0  0  0
    5.8090   -5.5990   30.0580 O   0  0  0  0  0  0  0  0  0  0  0  0
    6.1460   -6.7090   29.2770 C   0  0  0  0  0  0  0  0  0  0  0  0
    5.1870   -6.8340   28.1440 C   0  0  0  0  0  0  0  0  0  0  0  0
    5.3980   -6.4160   26.6930 C   0  0  0  0  0  0  0  0  0  0  0  0
    4.2880   -6.6470   25.7330 C   0  0  0  0  0  0  0  0  0  0  0  0
    3.0060   -7.2690   26.1910 C   0  0  0  0  0  0  0  0  0  0  0  0
    2.8700   -7.6230   27.5060 C   0  0  0  0  0  0  0  0  0  0  0  0
    3.9790   -7.4030   28.5090 C   0  0  0  0  0  0  0  0  0  0  0  0
    5.5700   -4.7230   23.3630 C   0  0  0  0  0  0  0  0  0  0  0  0
    6.4790   -5.3020   22.2910 C   0  0  0  0  0  0  0  0  0  0  0  0
  1  2  1  0
  2  3  2  0
  2  4  1  0
  4  5  1  0
  5  6  1  0
  6  7  1  0
  7  8  1  0
  8  9  2  0
  8 10  1  0
 10 11  1  0
 10 12  1  0
 12 13  1  0
 13 14  2  0
 14 15  1  0
 15 16  2  0
 16 17  1  0
 17 18  1  0
 13 19  1  0
 17 19  2  0
 19 20  1  0
 20 21  1  0
 21 22  1  0
 22 23  2  0
 23 24  1  0
 24 25  2  0
 25 26  1  0
 22 27  1  0
 26 27  2  0
  7 28  1  0
  4 29  1  0
 28 29  1  0
M  END
