piperidine-amides-25894-covalent
     RDKit          3D

 25 28  0  0  0  0  0  0  0  0999 V2000
    7.0810   -3.3200   19.3270 C   0  0  0  0  0  0  0  0  0  0  0  0
    6.3910   -4.1820   20.3180 C   0  0  0  0  0  0  0  0  0  0  0  0
    5.3580   -4.7440   19.9550 O   0  0  0  0  0  0  0  0  0  0  0  0
    6.9440   -4.3750   21.5880 N   0  0  0  0  0  0  0  0  0  0  0  0
    6.6780   -5.5540   22.3600 C   0  0  0  0  0  0  0  0  0  0  0  0
    5.7450   -5.1830   23.4740 C   0  0  0  0  0  0  0  0  0  0  0  0
    6.2680   -3.9600   24.2300 C   0  0  0  0  0  0  0  0  0  0  0  0
    5.1250   -3.4440   25.0090 C   0  0  0  0  0  0  0  0  0  0  0  0
    4.0250   -3.3570   24.4660 O   0  0  0  0  0  0  0  0  0  0  0  0
    5.2330   -3.0500   26.3480 N   0  0  0  0  0  0  0  0  0  0  0  0
    6.5530   -2.7970   26.8660 C   0  0  0  0  0  0  0  0  0  0  0  0
    6.5960   -3.1990   28.3480 C   0  0  1  0  0  0  0  0  0  0  0  0
    6.7220   -2.1550   29.2260 C   0  0  0  0  0  0  0  0  0  0  0  0
    5.7830   -1.6150   30.1150 N   0  0  0  0  0  0  0  0  0  0  0  0
    6.3650   -0.5360   30.8150 C   0  0  0  0  0  0  0  0  0  0  0  0
    5.6470    0.1550   31.7470 C   0  0  0  0  0  0  0  0  0  0  0  0
    7.6180   -0.4190   30.3670 N   0  0  0  0  0  0  0  0  0  0  0  0
    7.8380   -1.3660   29.4290 N   0  0  0  0  0  0  0  0  0  0  0  0
    5.2560   -3.7460   28.6180 C   0  0  2  0  0  0  0  0  0  0  0  0
    6.3320   -4.7780   28.6270 C   0  0  0  0  0  0  0  0  0  0  0  0
    5.6780   -5.8600   29.2130 C   0  0  0  0  0  0  0  0  0  0  0  0
    6.0820   -6.0350   27.7390 C   0  0  0  0  0  0  0  0  0  0  0  0
    4.4360   -3.5300   27.4780 C   0  0  0  0  0  0  0  0  0  0  0  0
    6.9450   -2.8930   23.4390 C   0  0  0  0  0  0  0  0  0  0  0  0
    7.7040   -3.3350   22.2450 C   0  0  0  0  0  0  0  0  0  0  0  0
  1  2  1  0
  2  3  2  0
  2  4  1  0
  4  5  1  0
  5  6  1  0
  6  7  1  0
  7  8  1  0
  8  9  2  0
  8 10  1  0
 10 11  1  0
 11 12  1  0
 12 13  1  1
 13 14  2  0
 14 15  1  0
 15 16  1  0
 15 17  2  0
 13 18  1  0
 17 18  1  0
 12 19  1  0
 19 20  1  6
 20 21  1  0
 20 22  1  0
 21 22  1  0
 10 23  1  0
 19 23  1  0
  7 24  1  0
  4 25  1  0
 24 25  1  0
M  END
