piperidine-amides-9947-covalent
     RDKit          3D

 26 28  0  0  0  0  0  0  0  0999 V2000
    6.9850   -3.3480   19.3410 C   0  0  0  0  0  0  0  0  0  0  0  0
    6.3460   -4.1670   20.3810 C   0  0  0  0  0  0  0  0  0  0  0  0
    5.4080   -4.9150   19.9950 O   0  0  0  0  0  0  0  0  0  0  0  0
    6.7870   -4.1280   21.7150 N   0  0  0  0  0  0  0  0  0  0  0  0
    7.5510   -2.9980   22.2070 C   0  0  0  0  0  0  0  0  0  0  0  0
    6.9260   -2.5190   23.4920 C   0  0  0  0  0  0  0  0  0  0  0  0
    6.7650   -3.6610   24.4380 C   0  0  0  0  0  0  0  0  0  0  0  0
    6.0510   -3.2570   25.7120 C   0  0  0  0  0  0  0  0  0  0  0  0
    4.8040   -3.3720   25.6970 O   0  0  0  0  0  0  0  0  0  0  0  0
    6.6410   -2.7320   26.9300 N   0  0  0  0  0  0  0  0  0  0  0  0
    6.4410   -1.3260   27.2540 C   0  0  0  0  0  0  0  0  0  0  0  0
    5.7800   -0.6090   26.1040 C   0  0  0  0  0  0  0  0  0  0  0  0
    5.4840    0.6970   26.1680 C   0  0  0  0  0  0  0  0  0  0  0  0
    5.7890    1.3760   27.2880 C   0  0  0  0  0  0  0  0  0  0  0  0
    6.3810    0.9020   28.4140 C   0  0  0  0  0  0  0  0  0  0  0  0
    6.5480    1.8600   29.3760 C   0  0  0  0  0  0  0  0  0  0  0  0
    7.1080    1.6240   30.5690 C   0  0  0  0  0  0  0  0  0  0  0  0
    7.6300    0.3120   31.0280 C   0  0  0  0  0  0  0  0  0  0  0  0
    8.2820    0.4600   32.6590 S   0  0  0  0  0  0  0  0  0  0  0  0
   10.0090    0.4120   32.5670 N   0  0  0  0  0  0  0  0  0  0  0  0
    7.7980   -0.5640   33.6110 O   0  0  0  0  0  0  0  0  0  0  0  0
    8.0250    1.8230   33.1960 O   0  0  0  0  0  0  0  0  0  0  0  0
    7.4090   -0.7480   29.8760 C   0  0  0  0  0  0  0  0  0  0  0  0
    6.7550   -0.4390   28.5100 C   0  0  0  0  0  0  0  0  0  0  0  0
    5.9720   -4.7750   23.7790 C   0  0  0  0  0  0  0  0  0  0  0  0
    6.6210   -5.2500   22.6440 C   0  0  0  0  0  0  0  0  0  0  0  0
  1  2  1  0
  2  3  2  0
  2  4  1  0
  4  5  1  0
  5  6  1  0
  6  7  1  0
  7  8  1  0
  8  9  2  0
  8 10  1  0
 10 11  1  0
 11 12  2  0
 12 13  1  0
 13 14  2  0
 14 15  1  0
 15 16  1  0
 16 17  2  0
 17 18  1  0
 18 19  1  0
 19 20  1  0
 19 21  2  0
 19 22  2  0
 18 23  2  0
 11 24  1  0
 15 24  2  0
 23 24  1  0
  7 25  1  0
  4 26  1  0
 25 26  1  0
M  END
