piperidine-amides-6888-covalent
     RDKit          3D

 22 24  0  0  0  0  0  0  0  0999 V2000
    7.0510   -3.2930   19.2710 C   0  0  0  0  0  0  0  0  0  0  0  0
    6.3490   -4.0850   20.2930 C   0  0  0  0  0  0  0  0  0  0  0  0
    5.3640   -4.7840   19.9640 O   0  0  0  0  0  0  0  0  0  0  0  0
    6.7840   -4.1050   21.6290 N   0  0  0  0  0  0  0  0  0  0  0  0
    6.7070   -5.3630   22.3450 C   0  0  0  0  0  0  0  0  0  0  0  0
    6.0200   -5.0940   23.6900 C   0  0  0  0  0  0  0  0  0  0  0  0
    6.1200   -3.6070   23.9250 C   0  0  0  0  0  0  0  0  0  0  0  0
    5.6250   -3.2790   25.2780 C   0  0  0  0  0  0  0  0  0  0  0  0
    4.3890   -3.2090   25.4440 O   0  0  0  0  0  0  0  0  0  0  0  0
    6.5340   -3.0260   26.3350 N   0  0  0  0  0  0  0  0  0  0  0  0
    6.3110   -3.5330   27.6720 C   0  0  0  0  0  0  0  0  0  0  0  0
    4.9610   -4.2110   27.8070 C   0  0  0  0  0  0  0  0  0  0  0  0
    3.7760   -3.3830   27.6920 N   0  0  0  0  0  0  0  0  0  0  0  0
    2.5940   -4.0370   27.8290 N   0  0  0  0  0  0  0  0  0  0  0  0
    2.6580   -5.4090   28.0570 C   0  0  0  0  0  0  0  0  0  0  0  0
    1.6250   -6.2980   28.2300 C   0  0  0  0  0  0  0  0  0  0  0  0
    0.6940   -6.3350   27.2190 C   0  0  0  0  0  0  0  0  0  0  0  0
    0.9780   -7.6080   27.0030 C   0  0  0  0  0  0  0  0  0  0  0  0
    2.0570   -7.6630   28.0950 C   0  0  0  0  0  0  0  0  0  0  0  0
    4.3670   -5.7330   28.0740 S   0  0  0  0  0  0  0  0  0  0  0  0
    7.4750   -3.0690   23.6280 C   0  0  0  0  0  0  0  0  0  0  0  0
    7.6590   -3.0590   22.1480 C   0  0  0  0  0  0  0  0  0  0  0  0
  1  2  1  0
  2  3  2  0
  2  4  1  0
  4  5  1  0
  5  6  1  0
  6  7  1  0
  7  8  1  0
  8  9  2  0
  8 10  1  0
 10 11  1  0
 11 12  1  0
 12 13  2  0
 13 14  1  0
 14 15  2  0
 15 16  1  0
 16 17  1  0
 17 18  1  0
 16 19  1  0
 18 19  1  0
 12 20  1  0
 15 20  1  0
  7 21  1  0
  4 22  1  0
 21 22  1  0
M  END
