piperidine-amides-31086-covalent
     RDKit          3D

 28 31  0  0  0  0  0  0  0  0999 V2000
    7.0710   -3.3380   19.3480 C   0  0  0  0  0  0  0  0  0  0  0  0
    6.3930   -4.1690   20.3450 C   0  0  0  0  0  0  0  0  0  0  0  0
    5.4030   -4.8350   19.9850 O   0  0  0  0  0  0  0  0  0  0  0  0
    6.8600   -4.2720   21.6740 N   0  0  0  0  0  0  0  0  0  0  0  0
    6.6140   -5.4810   22.4400 C   0  0  0  0  0  0  0  0  0  0  0  0
    6.1600   -5.0800   23.8330 C   0  0  0  0  0  0  0  0  0  0  0  0
    6.2030   -3.5950   24.0840 C   0  0  0  0  0  0  0  0  0  0  0  0
    5.5770   -3.2080   25.3760 C   0  0  0  0  0  0  0  0  0  0  0  0
    4.3190   -3.1170   25.4260 O   0  0  0  0  0  0  0  0  0  0  0  0
    6.2650   -2.9150   26.5830 N   0  0  0  0  0  0  0  0  0  0  0  0
    6.1330   -3.8890   27.7000 C   0  0  0  0  0  0  0  0  0  0  0  0
    4.6970   -4.1260   27.9620 C   0  0  0  0  0  0  0  0  0  0  0  0
    4.0650   -3.5980   29.1760 C   0  0  0  0  0  0  0  0  0  0  0  0
    2.6040   -3.8540   29.4200 C   0  0  0  0  0  0  0  0  0  0  0  0
    1.8000   -4.6540   28.4120 C   0  0  0  0  0  0  0  0  0  0  0  0
    2.6160   -5.1050   27.2510 C   0  0  0  0  0  0  0  0  0  0  0  0
    3.9500   -4.8460   27.0700 C   0  0  0  0  0  0  0  0  0  0  0  0
    6.6480   -1.5650   26.9230 C   0  0  1  0  0  0  0  0  0  0  0  0
    5.8160   -0.4650   26.3390 C   0  0  0  0  0  0  0  0  0  0  0  0
    5.2780    0.3320   27.4800 C   0  0  0  0  0  0  0  0  0  0  0  0
    5.5580   -0.4310   28.7450 C   0  0  2  0  0  0  0  0  0  0  0  0
    5.2160   -0.9760   29.7620 C   0  0  0  0  0  0  0  0  0  0  0  0
    3.7570   -1.0490   29.4700 C   0  0  0  0  0  0  0  0  0  0  0  0
    5.4800   -0.0380   30.7670 C   0  0  0  0  0  0  0  0  0  0  0  0
    7.0190    0.0030   29.0100 C   0  0  0  0  0  0  0  0  0  0  0  0
    6.6490   -1.1930   28.4160 C   0  0  2  0  0  0  0  0  0  0  0  0
    7.4930   -3.0330   23.7000 C   0  0  0  0  0  0  0  0  0  0  0  0
    7.6740   -3.2270   22.2240 C   0  0  0  0  0  0  0  0  0  0  0  0
  1  2  1  0
  2  3  2  0
  2  4  1  0
  4  5  1  0
  5  6  1  0
  6  7  1  0
  7  8  1  0
  8  9  2  0
  8 10  1  0
 10 11  1  0
 11 12  1  0
 12 13  2  0
 13 14  1  0
 14 15  2  0
 15 16  1  0
 12 17  1  0
 16 17  2  0
 18 10  1  1
 18 19  1  0
 19 20  1  0
 21 20  1  0
 21 22  1  1
 22 23  1  0
 22 24  1  0
 21 25  1  0
 18 26  1  0
 21 26  1  0
 26 25  1  6
  7 27  1  0
  4 28  1  0
 27 28  1  0
M  END
