piperidine-amides-29688-covalent
     RDKit          3D

 27 30  0  0  0  0  0  0  0  0999 V2000
    7.0770   -3.3580   19.3880 C   0  0  0  0  0  0  0  0  0  0  0  0
    6.4050   -4.2390   20.3310 C   0  0  0  0  0  0  0  0  0  0  0  0
    5.3900   -4.8440   19.9860 O   0  0  0  0  0  0  0  0  0  0  0  0
    6.9690   -4.4510   21.6430 N   0  0  0  0  0  0  0  0  0  0  0  0
    7.6980   -3.4060   22.3030 C   0  0  0  0  0  0  0  0  0  0  0  0
    6.8780   -2.8330   23.4250 C   0  0  0  0  0  0  0  0  0  0  0  0
    6.2940   -3.9480   24.2930 C   0  0  0  0  0  0  0  0  0  0  0  0
    5.2680   -3.3550   25.2090 C   0  0  0  0  0  0  0  0  0  0  0  0
    4.3570   -2.6470   24.7640 O   0  0  0  0  0  0  0  0  0  0  0  0
    5.3100   -3.5710   26.6100 N   0  0  0  0  0  0  0  0  0  0  0  0
    6.4760   -3.2130   27.2480 C   0  0  0  0  0  0  0  0  0  0  0  0
    6.6220   -4.3130   28.2760 C   0  0  0  0  0  0  0  0  0  0  0  0
    5.6110   -4.2660   29.1690 C   0  0  0  0  0  0  0  0  0  0  0  0
    5.4240   -5.4550   29.9490 N   0  0  0  0  0  0  0  0  0  0  0  0
    6.0330   -6.7030   29.5340 C   0  0  0  0  0  0  0  0  0  0  0  0
    7.2230   -6.7000   28.8070 O   0  0  0  0  0  0  0  0  0  0  0  0
    5.2630   -7.7320   29.9800 N   0  0  0  0  0  0  0  0  0  0  0  0
    4.2490   -7.1870   30.5940 C   0  0  0  0  0  0  0  0  0  0  0  0
    3.0780   -7.6420   31.2750 C   0  0  0  0  0  0  0  0  0  0  0  0
    2.1510   -6.8550   31.8460 C   0  0  0  0  0  0  0  0  0  0  0  0
    2.2130   -5.4870   31.8460 C   0  0  0  0  0  0  0  0  0  0  0  0
    3.3530   -4.8270   31.1890 N   0  0  0  0  0  0  0  0  0  0  0  0
    4.2660   -5.7090   30.6250 C   0  0  0  0  0  0  0  0  0  0  0  0
    4.4080   -3.8100   28.7400 C   0  0  0  0  0  0  0  0  0  0  0  0
    4.1370   -3.7330   27.3700 C   0  0  0  0  0  0  0  0  0  0  0  0
    5.6250   -5.0430   23.4930 C   0  0  0  0  0  0  0  0  0  0  0  0
    6.4960   -5.5460   22.3910 C   0  0  0  0  0  0  0  0  0  0  0  0
  1  2  1  0
  2  3  2  0
  2  4  1  0
  4  5  1  0
  5  6  1  0
  6  7  1  0
  7  8  1  0
  8  9  2  0
  8 10  1  0
 10 11  1  0
 11 12  1  0
 12 13  1  0
 13 14  1  0
 14 15  1  0
 15 16  2  0
 15 17  1  0
 17 18  1  0
 18 19  1  0
 19 20  2  0
 20 21  1  0
 21 22  2  0
 14 23  1  0
 18 23  2  0
 22 23  1  0
 13 24  1  0
 10 25  1  0
 24 25  1  0
  7 26  1  0
  4 27  1  0
 26 27  1  0
M  END
