piperidine-amides-27967-covalent
     RDKit          3D

 26 28  0  0  0  0  0  0  0  0999 V2000
    7.1010   -3.3310   19.3020 C   0  0  0  0  0  0  0  0  0  0  0  0
    6.4160   -4.1720   20.3080 C   0  0  0  0  0  0  0  0  0  0  0  0
    5.3630   -4.7360   19.9500 O   0  0  0  0  0  0  0  0  0  0  0  0
    6.9820   -4.3470   21.5810 N   0  0  0  0  0  0  0  0  0  0  0  0
    6.5800   -5.4260   22.4150 C   0  0  0  0  0  0  0  0  0  0  0  0
    6.0520   -5.0170   23.7260 C   0  0  0  0  0  0  0  0  0  0  0  0
    6.6680   -3.7980   24.3220 C   0  0  0  0  0  0  0  0  0  0  0  0
    5.9090   -3.3910   25.5300 C   0  0  0  0  0  0  0  0  0  0  0  0
    4.9220   -2.6480   25.3830 O   0  0  0  0  0  0  0  0  0  0  0  0
    6.2980   -3.8570   26.7970 N   0  0  0  0  0  0  0  0  0  0  0  0
    7.0160   -5.1550   26.7820 C   0  0  0  0  0  0  0  0  0  0  0  0
    7.1250   -5.5180   28.1710 C   0  0  0  0  0  0  0  0  0  0  0  0
    6.1120   -4.7570   28.8290 C   0  0  0  0  0  0  0  0  0  0  0  0
    5.4760   -3.7970   28.0550 C   0  0  2  0  0  0  0  0  0  0  0  0
    4.2130   -4.1190   27.6100 C   0  0  0  0  0  0  0  0  0  0  0  0
    3.4490   -3.0050   27.4210 C   0  0  0  0  0  0  0  0  0  0  0  0
    5.5420   -2.6230   28.7590 C   0  0  0  0  0  0  0  0  0  0  0  0
    4.7770   -2.4080   29.8790 C   0  0  0  0  0  0  0  0  0  0  0  0
    4.8130   -1.2250   30.6350 C   0  0  0  0  0  0  0  0  0  0  0  0
    5.6610   -0.0490   30.3550 C   0  0  0  0  0  0  0  0  0  0  0  0
    6.5240   -0.2170   29.1430 C   0  0  0  0  0  0  0  0  0  0  0  0
    7.3000    0.8850   28.9010 O   0  0  0  0  0  0  0  0  0  0  0  0
    6.4810    1.8910   28.4440 C   0  0  0  0  0  0  0  0  0  0  0  0
    6.4750   -1.4890   28.3420 C   0  0  0  0  0  0  0  0  0  0  0  0
    6.9350   -2.7640   23.3310 C   0  0  0  0  0  0  0  0  0  0  0  0
    7.7600   -3.2870   22.2180 C   0  0  0  0  0  0  0  0  0  0  0  0
  1  2  1  0
  2  3  2  0
  2  4  1  0
  4  5  1  0
  5  6  1  0
  6  7  1  0
  7  8  1  0
  8  9  2  0
  8 10  1  0
 10 11  1  0
 11 12  1  0
 12 13  1  0
 10 14  1  0
 13 14  1  0
 14 15  1  6
 15 16  1  0
 14 17  1  0
 17 18  2  0
 18 19  1  0
 19 20  2  0
 20 21  1  0
 21 22  1  0
 22 23  1  0
 17 24  1  0
 21 24  2  0
  7 25  1  0
  4 26  1  0
 25 26  1  0
M  END
