piperidine-amides-11363-covalent
     RDKit          3D

 30 33  0  0  0  0  0  0  0  0999 V2000
    7.1720   -3.1300   18.9260 C   0  0  0  0  0  0  0  0  0  0  0  0
    6.2330   -3.7350   19.8690 C   0  0  0  0  0  0  0  0  0  0  0  0
    5.0780   -4.0050   19.5320 O   0  0  0  0  0  0  0  0  0  0  0  0
    6.6250   -4.0540   21.1470 N   0  0  0  0  0  0  0  0  0  0  0  0
    7.3220   -3.0980   21.9440 C   0  0  0  0  0  0  0  0  0  0  0  0
    6.2850   -2.5490   22.8850 C   0  0  0  0  0  0  0  0  0  0  0  0
    5.2280   -3.5510   23.3390 C   0  0  0  0  0  0  0  0  0  0  0  0
    5.0790   -3.6980   24.8220 C   0  0  0  0  0  0  0  0  0  0  0  0
    3.9220   -3.5620   25.3190 O   0  0  0  0  0  0  0  0  0  0  0  0
    6.1180   -4.0180   25.7510 N   0  0  0  0  0  0  0  0  0  0  0  0
    5.9070   -5.0990   26.7750 C   0  0  0  0  0  0  0  0  0  0  0  0
    6.3800   -4.5580   28.0730 C   0  0  1  0  0  0  0  0  0  0  0  0
    6.5460   -3.0920   27.9230 C   0  0  0  0  0  0  0  0  0  0  0  0
    5.3690   -2.3790   27.5620 N   0  0  0  0  0  0  0  0  0  0  0  0
    5.4820   -2.0450   26.0760 C   0  0  0  0  0  0  0  0  0  0  0  0
    6.4050   -2.8120   25.0930 C   0  0  0  0  0  0  0  0  0  0  0  0
    7.5350   -2.0980   24.5600 C   0  0  0  0  0  0  0  0  0  0  0  0
    7.8290   -3.1050   23.9260 C   0  0  0  0  0  0  0  0  0  0  0  0
    8.1840   -4.0850   23.2570 C   0  0  0  0  0  0  0  0  0  0  0  0
    7.2380   -5.2480   23.4650 C   0  0  0  0  0  0  0  0  0  0  0  0
    6.3030   -4.3530   24.5230 C   0  0  0  0  0  0  0  0  0  0  0  0
    4.2620   -3.0430   28.1190 C   0  0  0  0  0  0  0  0  0  0  0  0
    4.6210   -4.0910   28.5710 C   0  0  0  0  0  0  0  0  0  0  0  0
    5.9340   -4.3630   28.9830 N   0  0  0  0  0  0  0  0  0  0  0  0
    5.9550   -5.6920   29.4360 C   0  0  0  0  0  0  0  0  0  0  0  0
    4.7050   -6.2930   29.3500 C   0  0  0  0  0  0  0  0  0  0  0  0
    4.1700   -5.2380   28.8660 N   0  0  0  0  0  0  0  0  0  0  0  0
    5.5560   -5.1240   29.1110 C   0  0  0  0  0  0  0  0  0  0  0  0
    5.2220   -4.9570   22.8000 C   0  0  0  0  0  0  0  0  0  0  0  0
    6.2750   -5.2850   21.7800 C   0  0  0  0  0  0  0  0  0  0  0  0
  1  2  1  0
  2  3  2  0
  2  4  1  0
  4  5  1  0
  5  6  1  0
  6  7  1  0
  7  8  1  0
  8  9  2  0
  8 10  1  0
 10 11  1  0
 12 11  1  6
 12 13  1  0
 13 14  1  0
 14 15  1  0
 15 16  1  0
 16 17  2  0
 17 18  1  0
 18 19  2  0
 19 20  1  0
 16 21  1  0
 20 21  2  0
 14 22  1  0
 22 23  1  0
 23 24  2  0
 24 25  1  0
 25 26  2  0
 23 27  1  0
 26 27  1  0
 12 28  1  0
 27 28  1  0
  7 29  1  0
  4 30  1  0
 29 30  1  0
M  END
