piperidine-amides-11773-covalent
     RDKit          3D

 28 30  0  0  0  0  0  0  0  0999 V2000
    7.0430   -3.3540   19.3120 C   0  0  0  0  0  0  0  0  0  0  0  0
    6.3630   -4.1730   20.3100 C   0  0  0  0  0  0  0  0  0  0  0  0
    5.3750   -4.8260   19.9820 O   0  0  0  0  0  0  0  0  0  0  0  0
    6.8680   -4.2620   21.6540 N   0  0  0  0  0  0  0  0  0  0  0  0
    7.7150   -3.2090   22.1730 C   0  0  0  0  0  0  0  0  0  0  0  0
    7.3930   -2.9140   23.6030 C   0  0  0  0  0  0  0  0  0  0  0  0
    6.0380   -3.5230   23.8940 C   0  0  0  0  0  0  0  0  0  0  0  0
    5.6180   -3.1990   25.2780 C   0  0  0  0  0  0  0  0  0  0  0  0
    4.4360   -3.2690   25.6600 O   0  0  0  0  0  0  0  0  0  0  0  0
    6.6260   -2.7950   26.1710 N   0  0  0  0  0  0  0  0  0  0  0  0
    6.4290   -1.6320   27.0010 C   0  0  0  0  0  0  0  0  0  0  0  0
    6.9650   -1.7940   28.3940 C   0  0  0  0  0  0  0  0  0  0  0  0
    6.8810   -0.8030   29.3490 C   0  0  0  0  0  0  0  0  0  0  0  0
    6.2790    0.4480   29.1070 C   0  0  0  0  0  0  0  0  0  0  0  0
    6.2380    1.3690   30.1580 O   0  0  0  0  0  0  0  0  0  0  0  0
    6.6610    0.9390   31.4480 C   0  0  0  0  0  0  0  0  0  0  0  0
    8.0440    1.2890   31.7390 C   0  0  0  0  0  0  0  0  0  0  0  0
    8.5990    0.9440   32.9510 C   0  0  0  0  0  0  0  0  0  0  0  0
    7.8510    0.2700   33.8930 C   0  0  0  0  0  0  0  0  0  0  0  0
    6.5250   -0.0830   33.6550 C   0  0  0  0  0  0  0  0  0  0  0  0
    5.8790    0.2540   32.3760 C   0  0  0  0  0  0  0  0  0  0  0  0
    4.5560   -0.1010   32.1310 C   0  0  0  0  0  0  0  0  0  0  0  0
    3.5300    0.8420   31.8640 N   0  0  0  0  0  0  0  0  0  0  0  0
    4.3200   -1.4620   32.1820 O   0  0  0  0  0  0  0  0  0  0  0  0
    5.7260    0.6580   27.7070 C   0  0  0  0  0  0  0  0  0  0  0  0
    5.8280   -0.4160   26.6910 C   0  0  0  0  0  0  0  0  0  0  0  0
    5.9990   -5.0100   23.7390 C   0  0  0  0  0  0  0  0  0  0  0  0
    6.6390   -5.4460   22.4380 C   0  0  0  0  0  0  0  0  0  0  0  0
  1  2  1  0
  2  3  2  0
  2  4  1  0
  4  5  1  0
  5  6  1  0
  6  7  1  0
  7  8  1  0
  8  9  2  0
  8 10  1  0
 10 11  1  0
 11 12  2  0
 12 13  1  0
 13 14  2  0
 14 15  1  0
 15 16  1  0
 16 17  2  0
 17 18  1  0
 18 19  2  0
 19 20  1  0
 16 21  1  0
 20 21  2  0
 21 22  1  0
 22 23  1  0
 22 24  2  0
 14 25  1  0
 11 26  1  0
 25 26  2  0
  7 27  1  0
  4 28  1  0
 27 28  1  0
M  END
