piperidine-amides-838-covalent
     RDKit          3D

 25 27  0  0  0  0  0  0  0  0999 V2000
    7.1040   -3.4200   19.3770 C   0  0  0  0  0  0  0  0  0  0  0  0
    6.4210   -4.1970   20.3770 C   0  0  0  0  0  0  0  0  0  0  0  0
    5.3790   -4.8190   19.9960 O   0  0  0  0  0  0  0  0  0  0  0  0
    6.8990   -4.3450   21.7080 N   0  0  0  0  0  0  0  0  0  0  0  0
    6.4240   -5.4800   22.4900 C   0  0  0  0  0  0  0  0  0  0  0  0
    5.2960   -4.7020   23.2470 C   0  0  0  0  0  0  0  0  0  0  0  0
    5.9090   -3.5110   23.9810 C   0  0  0  0  0  0  0  0  0  0  0  0
    5.9370   -3.7580   25.5440 C   0  0  0  0  0  0  0  0  0  0  0  0
    5.7490   -4.9300   25.7870 O   0  0  0  0  0  0  0  0  0  0  0  0
    6.1260   -2.6580   26.1430 N   0  0  0  0  0  0  0  0  0  0  0  0
    6.1790   -1.4800   26.8170 C   0  0  0  0  0  0  0  0  0  0  0  0
    5.8320   -0.1600   26.6400 C   0  0  0  0  0  0  0  0  0  0  0  0
    5.9770    0.9280   27.5270 C   0  0  0  0  0  0  0  0  0  0  0  0
    6.5400    0.9200   28.8750 C   0  0  0  0  0  0  0  0  0  0  0  0
    6.7030    1.9820   29.7890 N   0  0  0  0  0  0  0  0  0  0  0  0
    5.7930    2.3380   30.8820 C   0  0  0  0  0  0  0  0  0  0  0  0
    5.0460    3.3400   30.2490 C   0  0  0  0  0  0  0  0  0  0  0  0
    5.5260    4.6370   30.5050 C   0  0  0  0  0  0  0  0  0  0  0  0
    5.9570    4.0100   29.1720 C   0  0  0  0  0  0  0  0  0  0  0  0
    7.2390    3.1260   29.3340 C   0  0  0  0  0  0  0  0  0  0  0  0
    6.9260   -0.5490   29.0630 C   0  0  0  0  0  0  0  0  0  0  0  0
    7.4840   -0.7930   30.2840 F   0  0  0  0  0  0  0  0  0  0  0  0
    6.7940   -1.6210   28.2130 C   0  0  0  0  0  0  0  0  0  0  0  0
    7.0400   -2.6810   23.3540 C   0  0  0  0  0  0  0  0  0  0  0  0
    7.7340   -3.3920   22.3930 C   0  0  0  0  0  0  0  0  0  0  0  0
  1  2  1  0
  2  3  2  0
  2  4  1  0
  4  5  1  0
  5  6  1  0
  6  7  1  0
  7  8  1  0
  8  9  2  0
  8 10  1  0
 10 11  1  0
 11 12  2  0
 12 13  1  0
 13 14  2  0
 14 15  1  0
 15 16  1  0
 16 17  1  0
 17 18  1  0
 18 19  1  0
 15 20  1  0
 19 20  1  0
 14 21  1  0
 21 22  1  0
 11 23  1  0
 21 23  2  0
  7 24  1  0
  4 25  1  0
 24 25  1  0
M  END
