piperidine-amides-29313-covalent
     RDKit          3D

 26 28  0  0  0  0  0  0  0  0999 V2000
    7.0910   -3.3240   19.2580 C   0  0  0  0  0  0  0  0  0  0  0  0
    6.4230   -4.1260   20.2750 C   0  0  0  0  0  0  0  0  0  0  0  0
    5.3860   -4.7390   19.9590 O   0  0  0  0  0  0  0  0  0  0  0  0
    7.0070   -4.2240   21.5590 N   0  0  0  0  0  0  0  0  0  0  0  0
    6.7120   -5.3590   22.3710 C   0  0  0  0  0  0  0  0  0  0  0  0
    5.9560   -4.9140   23.5830 C   0  0  0  0  0  0  0  0  0  0  0  0
    6.6650   -3.7320   24.2470 C   0  0  0  0  0  0  0  0  0  0  0  0
    5.8050   -3.1660   25.3440 C   0  0  0  0  0  0  0  0  0  0  0  0
    4.7150   -2.7260   24.9770 O   0  0  0  0  0  0  0  0  0  0  0  0
    6.2410   -3.1570   26.6720 N   0  0  0  0  0  0  0  0  0  0  0  0
    5.9520   -4.2670   27.5380 C   0  0  0  0  0  0  0  0  0  0  0  0
    5.1360   -5.3100   27.0280 C   0  0  0  0  0  0  0  0  0  0  0  0
    4.8120   -5.4090   25.6880 C   0  0  0  0  0  0  0  0  0  0  0  0
    4.0140   -6.3920   25.0610 C   0  0  0  0  0  0  0  0  0  0  0  0
    3.4580   -7.4470   25.9730 C   0  0  0  0  0  0  0  0  0  0  0  0
    3.8000   -7.3570   27.4620 C   0  0  0  0  0  0  0  0  0  0  0  0
    4.6500   -6.2520   27.8970 C   0  0  0  0  0  0  0  0  0  0  0  0
    4.9170   -6.2700   29.3680 C   0  0  0  0  0  0  0  0  0  0  0  0
    4.6850   -7.4410   30.0570 F   0  0  0  0  0  0  0  0  0  0  0  0
    4.0170   -5.3690   29.8910 F   0  0  0  0  0  0  0  0  0  0  0  0
    6.1750   -5.8020   29.6250 F   0  0  0  0  0  0  0  0  0  0  0  0
    5.9690   -1.8900   27.3740 C   0  0  0  0  0  0  0  0  0  0  0  0
    6.7870   -1.0580   27.7560 C   0  0  0  0  0  0  0  0  0  0  0  0
    6.1160   -0.6720   26.5720 C   0  0  0  0  0  0  0  0  0  0  0  0
    6.9870   -2.6110   23.3220 C   0  0  0  0  0  0  0  0  0  0  0  0
    7.7200   -3.1230   22.1320 C   0  0  0  0  0  0  0  0  0  0  0  0
  1  2  1  0
  2  3  2  0
  2  4  1  0
  4  5  1  0
  5  6  1  0
  6  7  1  0
  7  8  1  0
  8  9  2  0
  8 10  1  0
 10 11  1  0
 11 12  1  0
 12 13  2  0
 13 14  1  0
 14 15  2  0
 15 16  1  0
 12 17  1  0
 16 17  2  0
 17 18  1  0
 18 19  1  0
 18 20  1  0
 18 21  1  0
 10 22  1  0
 22 23  1  0
 22 24  1  0
 23 24  1  0
  7 25  1  0
  4 26  1  0
 25 26  1  0
M  END
