piperidine-amides-32782-covalent
     RDKit          3D

 27 29  0  0  0  0  0  0  0  0999 V2000
    7.2130   -4.1380   19.7970 C   0  0  0  0  0  0  0  0  0  0  0  0
    5.9900   -4.0100   20.4680 C   0  0  0  0  0  0  0  0  0  0  0  0
    4.9980   -4.1840   19.7490 O   0  0  0  0  0  0  0  0  0  0  0  0
    6.0730   -3.8040   21.8450 N   0  0  0  0  0  0  0  0  0  0  0  0
    7.2300   -3.1070   22.3410 C   0  0  0  0  0  0  0  0  0  0  0  0
    6.8170   -2.4860   23.6750 C   0  0  0  0  0  0  0  0  0  0  0  0
    6.4720   -3.5500   24.6780 C   0  0  0  0  0  0  0  0  0  0  0  0
    5.2660   -3.1960   25.4920 C   0  0  0  0  0  0  0  0  0  0  0  0
    4.2530   -2.9990   24.8270 O   0  0  0  0  0  0  0  0  0  0  0  0
    5.2370   -3.0950   26.9180 N   0  0  0  0  0  0  0  0  0  0  0  0
    4.2200   -3.5490   27.7170 C   0  0  0  0  0  0  0  0  0  0  0  0
    4.3760   -4.7750   28.2920 C   0  0  0  0  0  0  0  0  0  0  0  0
    5.3950   -4.7470   29.3280 N   0  0  0  0  0  0  0  0  0  0  0  0
    5.1160   -6.2560   30.1120 S   0  0  0  0  0  0  0  0  0  0  0  0
    6.0090   -6.5740   31.3110 O   0  0  0  0  0  0  0  0  0  0  0  0
    5.3380   -7.3100   29.0780 O   0  0  0  0  0  0  0  0  0  0  0  0
    3.4530   -6.3840   30.5720 N   0  0  0  0  0  0  0  0  0  0  0  0
    2.8950   -7.6410   30.1080 C   0  0  0  0  0  0  0  0  0  0  0  0
    2.1420   -8.1430   31.1390 C   0  0  0  0  0  0  0  0  0  0  0  0
    0.9030   -8.9150   30.8550 C   0  0  0  0  0  0  0  0  0  0  0  0
    0.1360   -8.5550   29.5750 C   0  0  0  0  0  0  0  0  0  0  0  0
    1.1880   -8.1550   28.5390 C   0  0  0  0  0  0  0  0  0  0  0  0
    2.2640   -7.3730   28.9180 C   0  0  0  0  0  0  0  0  0  0  0  0
    6.4700   -4.5530   28.3760 C   0  0  0  0  0  0  0  0  0  0  0  0
    6.4870   -3.2460   27.5200 C   0  0  0  0  0  0  0  0  0  0  0  0
    6.4660   -4.8840   24.0190 C   0  0  0  0  0  0  0  0  0  0  0  0
    5.6370   -4.8520   22.7130 C   0  0  0  0  0  0  0  0  0  0  0  0
  1  2  1  0
  2  3  2  0
  2  4  1  0
  4  5  1  0
  5  6  1  0
  6  7  1  0
  7  8  1  0
  8  9  2  0
  8 10  1  0
 10 11  1  0
 11 12  1  0
 12 13  1  0
 13 14  1  0
 14 15  2  0
 14 16  2  0
 14 17  1  0
 17 18  1  0
 18 19  1  0
 19 20  1  0
 20 21  1  0
 21 22  1  0
 18 23  1  0
 22 23  1  0
 13 24  1  0
 10 25  1  0
 24 25  1  0
  7 26  1  0
  4 27  1  0
 26 27  1  0
M  END
