piperidine-amides-24425-covalent
     RDKit          3D

 23 24  0  0  0  0  0  0  0  0999 V2000
    7.1370   -3.3490   19.2560 C   0  0  0  0  0  0  0  0  0  0  0  0
    6.4080   -4.1340   20.2520 C   0  0  0  0  0  0  0  0  0  0  0  0
    5.3450   -4.7190   19.9540 O   0  0  0  0  0  0  0  0  0  0  0  0
    6.9560   -4.2790   21.5260 N   0  0  0  0  0  0  0  0  0  0  0  0
    6.6510   -5.4440   22.3160 C   0  0  0  0  0  0  0  0  0  0  0  0
    5.8380   -4.9310   23.5040 C   0  0  0  0  0  0  0  0  0  0  0  0
    6.6470   -3.8230   24.1550 C   0  0  0  0  0  0  0  0  0  0  0  0
    5.8640   -3.2760   25.2620 C   0  0  0  0  0  0  0  0  0  0  0  0
    5.0580   -2.3570   25.0270 O   0  0  0  0  0  0  0  0  0  0  0  0
    6.0060   -3.8120   26.5390 N   0  0  0  0  0  0  0  0  0  0  0  0
    5.0320   -4.7700   26.8720 C   0  0  0  0  0  0  0  0  0  0  0  0
    5.5030   -5.5310   28.0670 C   0  0  0  0  0  0  0  0  0  0  0  0
    5.8040   -4.8460   29.1780 C   0  0  0  0  0  0  0  0  0  0  0  0
    6.1900   -5.5830   30.1260 O   0  0  0  0  0  0  0  0  0  0  0  0
    6.1290   -6.9260   29.8920 C   0  0  0  0  0  0  0  0  0  0  0  0
    4.6880   -4.1900   29.6470 C   0  0  0  0  0  0  0  0  0  0  0  0
    4.1150   -4.9270   30.6650 F   0  0  0  0  0  0  0  0  0  0  0  0
    4.8620   -2.9000   30.0840 F   0  0  0  0  0  0  0  0  0  0  0  0
    3.7490   -4.1590   28.6400 F   0  0  0  0  0  0  0  0  0  0  0  0
    6.6250   -3.7790   28.8180 C   0  0  0  0  0  0  0  0  0  0  0  0
    6.3700   -2.9040   27.6070 C   0  0  0  0  0  0  0  0  0  0  0  0
    7.0680   -2.7280   23.2470 C   0  0  0  0  0  0  0  0  0  0  0  0
    7.8220   -3.2730   22.1030 C   0  0  0  0  0  0  0  0  0  0  0  0
  1  2  1  0
  2  3  2  0
  2  4  1  0
  4  5  1  0
  5  6  1  0
  6  7  1  0
  7  8  1  0
  8  9  2  0
  8 10  1  0
 10 11  1  0
 11 12  1  0
 12 13  1  0
 13 14  1  0
 14 15  1  0
 13 16  1  0
 16 17  1  0
 16 18  1  0
 16 19  1  0
 13 20  1  0
 10 21  1  0
 20 21  1  0
  7 22  1  0
  4 23  1  0
 22 23  1  0
M  END
