piperidine-amides-17257-covalent
     RDKit          3D

 19 21  0  0  0  0  0  0  0  0999 V2000
    7.1200   -3.3490   19.3070 C   0  0  0  0  0  0  0  0  0  0  0  0
    6.4460   -4.2020   20.2990 C   0  0  0  0  0  0  0  0  0  0  0  0
    5.3670   -4.7360   19.9550 O   0  0  0  0  0  0  0  0  0  0  0  0
    7.0420   -4.4590   21.5590 N   0  0  0  0  0  0  0  0  0  0  0  0
    6.5500   -5.5460   22.3220 C   0  0  0  0  0  0  0  0  0  0  0  0
    5.9640   -5.1620   23.6030 C   0  0  0  0  0  0  0  0  0  0  0  0
    6.5550   -3.9890   24.2980 C   0  0  0  0  0  0  0  0  0  0  0  0
    5.6130   -3.4400   25.3190 C   0  0  0  0  0  0  0  0  0  0  0  0
    4.8850   -2.4810   25.0120 O   0  0  0  0  0  0  0  0  0  0  0  0
    5.5230   -3.9540   26.6150 N   0  0  0  0  0  0  0  0  0  0  0  0
    5.0690   -5.2170   27.0630 C   0  0  0  0  0  0  0  0  0  0  0  0
    5.8350   -5.8640   28.1640 C   0  0  0  0  0  0  0  0  0  0  0  0
    7.2010   -4.7640   28.5100 S   0  0  0  0  0  0  0  0  0  0  0  0
    6.3960   -3.5220   27.5960 C   0  0  0  0  0  0  0  0  0  0  0  0
    5.7310   -3.3080   28.7580 C   0  0  0  0  0  0  0  0  0  0  0  0
    6.8140   -2.2860   29.0480 C   0  0  0  0  0  0  0  0  0  0  0  0
    6.6440   -2.0460   27.6280 C   0  0  0  0  0  0  0  0  0  0  0  0
    6.8800   -2.8650   23.3110 C   0  0  0  0  0  0  0  0  0  0  0  0
    7.7890   -3.4610   22.2790 C   0  0  0  0  0  0  0  0  0  0  0  0
  1  2  1  0
  2  3  2  0
  2  4  1  0
  4  5  1  0
  5  6  1  0
  6  7  1  0
  7  8  1  0
  8  9  2  0
  8 10  1  0
 10 11  1  0
 11 12  1  0
 12 13  1  0
 10 14  1  0
 14 13  1  0
 14 15  1  0
 15 16  1  0
 14 17  1  0
 16 17  1  0
  7 18  1  0
  4 19  1  0
 18 19  1  0
M  END
