piperidine-amides-285-covalent
     RDKit          3D

 29 30  0  0  0  0  0  0  0  0999 V2000
    7.1620   -3.3130   19.3740 C   0  0  0  0  0  0  0  0  0  0  0  0
    6.4370   -4.1120   20.3300 C   0  0  0  0  0  0  0  0  0  0  0  0
    5.3860   -4.7250   19.9530 O   0  0  0  0  0  0  0  0  0  0  0  0
    6.9000   -4.2620   21.6470 N   0  0  0  0  0  0  0  0  0  0  0  0
    6.6460   -5.5380   22.3330 C   0  0  0  0  0  0  0  0  0  0  0  0
    5.6260   -4.9990   23.3900 C   0  0  0  0  0  0  0  0  0  0  0  0
    6.3800   -3.9450   24.1680 C   0  0  0  0  0  0  0  0  0  0  0  0
    5.4470   -3.5350   25.3850 C   0  0  0  0  0  0  0  0  0  0  0  0
    4.3670   -4.0870   25.2600 O   0  0  0  0  0  0  0  0  0  0  0  0
    5.9980   -2.7270   26.1970 N   0  0  0  0  0  0  0  0  0  0  0  0
    6.3540   -1.8210   27.1450 C   0  0  0  0  0  0  0  0  0  0  0  0
    6.9980   -1.6320   28.3550 C   0  0  0  0  0  0  0  0  0  0  0  0
    7.1780   -0.4440   29.1220 C   0  0  0  0  0  0  0  0  0  0  0  0
    6.7330    0.9450   28.8610 C   0  0  0  0  0  0  0  0  0  0  0  0
    6.0010    0.8750   27.5350 C   0  0  0  0  0  0  0  0  0  0  0  0
    5.3710    2.4500   27.0050 S   0  0  0  0  0  0  0  0  0  0  0  0
    4.0900    2.7090   27.6840 O   0  0  0  0  0  0  0  0  0  0  0  0
    5.2460    2.3900   25.5160 O   0  0  0  0  0  0  0  0  0  0  0  0
    6.5000    3.7000   27.4810 N   0  0  0  0  0  0  0  0  0  0  0  0
    6.1180    4.3910   28.6660 C   0  0  0  0  0  0  0  0  0  0  0  0
    7.2610    4.7850   29.3870 C   0  0  0  0  0  0  0  0  0  0  0  0
    6.1560    5.8490   29.2990 C   0  0  0  0  0  0  0  0  0  0  0  0
    5.7130    6.3250   30.7230 C   0  0  0  0  0  0  0  0  0  0  0  0
    5.1280    7.5160   30.7660 N   0  0  0  0  0  0  0  0  0  0  0  0
    3.9200    7.6920   31.5280 C   0  0  0  0  0  0  0  0  0  0  0  0
    5.9030    8.6220   30.7180 C   0  0  0  0  0  0  0  0  0  0  0  0
    5.8410   -0.4170   26.7620 C   0  0  0  0  0  0  0  0  0  0  0  0
    6.9850   -2.8060   23.4090 C   0  0  0  0  0  0  0  0  0  0  0  0
    7.6990   -3.2650   22.3040 C   0  0  0  0  0  0  0  0  0  0  0  0
  1  2  1  0
  2  3  2  0
  2  4  1  0
  4  5  1  0
  5  6  1  0
  6  7  1  0
  7  8  1  0
  8  9  2  0
  8 10  1  0
 10 11  1  0
 11 12  2  0
 12 13  1  0
 13 14  2  0
 14 15  1  0
 15 16  1  0
 16 17  2  0
 16 18  2  0
 16 19  1  0
 19 20  1  0
 20 21  1  0
 21 22  1  0
 22 23  1  0
 23 24  1  0
 24 25  1  0
 24 26  1  0
 11 27  1  0
 15 27  2  0
  7 28  1  0
  4 29  1  0
 28 29  1  0
M  END
