piperidine-amides-16116-covalent
     RDKit          3D

 19 20  0  0  0  0  0  0  0  0999 V2000
    7.0560   -3.3430   19.2940 C   0  0  0  0  0  0  0  0  0  0  0  0
    6.3820   -4.1860   20.3160 C   0  0  0  0  0  0  0  0  0  0  0  0
    5.3620   -4.7760   19.9650 O   0  0  0  0  0  0  0  0  0  0  0  0
    6.9380   -4.3280   21.5930 N   0  0  0  0  0  0  0  0  0  0  0  0
    6.5810   -5.4170   22.4620 C   0  0  0  0  0  0  0  0  0  0  0  0
    5.8430   -4.8780   23.6650 C   0  0  0  0  0  0  0  0  0  0  0  0
    6.6360   -3.7340   24.3180 C   0  0  0  0  0  0  0  0  0  0  0  0
    5.8480   -3.2050   25.4650 C   0  0  0  0  0  0  0  0  0  0  0  0
    5.2330   -2.1470   25.3010 O   0  0  0  0  0  0  0  0  0  0  0  0
    5.7020   -3.8440   26.7220 N   0  0  0  0  0  0  0  0  0  0  0  0
    4.6260   -3.4080   27.5770 C   0  0  0  0  0  0  0  0  0  0  0  0
    4.1450   -4.6210   28.3650 C   0  0  0  0  0  0  0  0  0  0  0  0
    4.8760   -5.7370   28.0260 O   0  0  0  0  0  0  0  0  0  0  0  0
    6.1810   -5.6490   27.9710 C   0  0  2  0  0  0  0  0  0  0  0  0
    6.6960   -6.1700   29.0920 C   0  0  0  0  0  0  0  0  0  0  0  0
    5.8460   -6.9990   29.7610 C   0  0  0  0  0  0  0  0  0  0  0  0
    6.4110   -4.1800   27.9300 C   0  0  0  0  0  0  0  0  0  0  0  0
    6.9910   -2.6650   23.3470 C   0  0  0  0  0  0  0  0  0  0  0  0
    7.6980   -3.2320   22.1610 C   0  0  0  0  0  0  0  0  0  0  0  0
  1  2  1  0
  2  3  2  0
  2  4  1  0
  4  5  1  0
  5  6  1  0
  6  7  1  0
  7  8  1  0
  8  9  2  0
  8 10  1  0
 10 11  1  0
 11 12  1  0
 12 13  1  0
 13 14  1  0
 14 15  1  1
 15 16  1  0
 10 17  1  0
 14 17  1  0
  7 18  1  0
  4 19  1  0
 18 19  1  0
M  END
