piperidine-amides-29934-covalent
     RDKit          3D

 27 29  0  0  0  0  0  0  0  0999 V2000
    7.1800   -3.2760   19.2230 C   0  0  0  0  0  0  0  0  0  0  0  0
    6.3600   -3.9870   20.1890 C   0  0  0  0  0  0  0  0  0  0  0  0
    5.2780   -4.4750   19.8590 O   0  0  0  0  0  0  0  0  0  0  0  0
    6.8590   -4.1670   21.5150 N   0  0  0  0  0  0  0  0  0  0  0  0
    6.4920   -5.3260   22.2730 C   0  0  0  0  0  0  0  0  0  0  0  0
    5.7410   -4.8980   23.5020 C   0  0  0  0  0  0  0  0  0  0  0  0
    6.5520   -3.8120   24.1990 C   0  0  0  0  0  0  0  0  0  0  0  0
    5.7830   -3.2280   25.3300 C   0  0  0  0  0  0  0  0  0  0  0  0
    4.5950   -2.8850   25.2050 O   0  0  0  0  0  0  0  0  0  0  0  0
    6.4180   -3.0210   26.5810 N   0  0  0  0  0  0  0  0  0  0  0  0
    6.7560   -1.6520   26.8640 C   0  0  0  0  0  0  0  0  0  0  0  0
    6.1650   -3.9640   27.6540 C   0  0  0  0  0  0  0  0  0  0  0  0
    5.8580   -5.2800   27.3530 C   0  0  0  0  0  0  0  0  0  0  0  0
    4.5280   -5.6360   27.7710 N   0  0  0  0  0  0  0  0  0  0  0  0
    3.5360   -4.6110   27.5810 C   0  0  0  0  0  0  0  0  0  0  0  0
    2.3890   -5.0440   26.9410 C   0  0  0  0  0  0  0  0  0  0  0  0
    2.8530   -5.8440   25.8270 N   0  0  0  0  0  0  0  0  0  0  0  0
    1.8700   -5.8810   24.8110 C   0  0  0  0  0  0  0  0  0  0  0  0
    0.6920   -5.1420   24.7710 C   0  0  0  0  0  0  0  0  0  0  0  0
   -0.2480   -5.2070   23.7520 C   0  0  0  0  0  0  0  0  0  0  0  0
   -0.0400   -6.0560   22.6760 C   0  0  0  0  0  0  0  0  0  0  0  0
    1.1860   -6.8320   22.7110 C   0  0  0  0  0  0  0  0  0  0  0  0
    2.0920   -6.7370   23.7420 C   0  0  0  0  0  0  0  0  0  0  0  0
    3.3930   -7.1030   26.1120 C   0  0  0  0  0  0  0  0  0  0  0  0
    4.1500   -6.9480   27.3880 C   0  0  0  0  0  0  0  0  0  0  0  0
    6.9470   -2.6590   23.3410 C   0  0  0  0  0  0  0  0  0  0  0  0
    7.6700   -3.1530   22.1170 C   0  0  0  0  0  0  0  0  0  0  0  0
  1  2  1  0
  2  3  2  0
  2  4  1  0
  4  5  1  0
  5  6  1  0
  6  7  1  0
  7  8  1  0
  8  9  2  0
  8 10  1  0
 10 11  1  0
 10 12  1  0
 12 13  1  0
 13 14  1  0
 14 15  1  0
 15 16  1  0
 16 17  1  0
 17 18  1  0
 18 19  2  0
 19 20  1  0
 20 21  2  0
 21 22  1  0
 18 23  1  0
 22 23  2  0
 17 24  1  0
 14 25  1  0
 24 25  1  0
  7 26  1  0
  4 27  1  0
 26 27  1  0
M  END
