piperidine-amides-540-covalent
     RDKit          3D

 26 27  0  0  0  0  0  0  0  0999 V2000
    7.2430   -3.2590   19.2360 C   0  0  0  0  0  0  0  0  0  0  0  0
    6.4410   -4.0090   20.1680 C   0  0  0  0  0  0  0  0  0  0  0  0
    5.2860   -4.4090   19.8260 O   0  0  0  0  0  0  0  0  0  0  0  0
    6.9510   -4.3660   21.4170 N   0  0  0  0  0  0  0  0  0  0  0  0
    7.7350   -3.3340   22.1340 C   0  0  0  0  0  0  0  0  0  0  0  0
    6.5730   -2.6420   22.9240 C   0  0  0  0  0  0  0  0  0  0  0  0
    6.0300   -3.7660   23.7670 C   0  0  0  0  0  0  0  0  0  0  0  0
    5.0420   -3.3030   24.9000 C   0  0  0  0  0  0  0  0  0  0  0  0
    4.4500   -2.2660   24.6510 O   0  0  0  0  0  0  0  0  0  0  0  0
    5.1720   -4.1930   25.7630 N   0  0  0  0  0  0  0  0  0  0  0  0
    5.4470   -5.1170   26.6860 C   0  0  0  0  0  0  0  0  0  0  0  0
    6.3300   -5.2880   27.6520 C   0  0  1  0  0  0  0  0  0  0  0  0
    7.3730   -6.1390   27.0520 N   0  0  0  0  0  0  0  0  0  0  0  0
    9.0420   -5.6570   26.9520 S   0  0  0  0  0  0  0  0  0  0  0  0
    9.7670   -6.7190   26.2860 O   0  0  0  0  0  0  0  0  0  0  0  0
    9.5120   -5.4960   28.3510 O   0  0  0  0  0  0  0  0  0  0  0  0
    9.4370   -4.1970   26.0800 N   0  0  0  0  0  0  0  0  0  0  0  0
    8.3630   -3.6160   25.5410 C   0  0  0  0  0  0  0  0  0  0  0  0
   10.6410   -4.3020   25.5210 C   0  0  0  0  0  0  0  0  0  0  0  0
    6.7550   -3.8890   27.9370 C   0  0  0  0  0  0  0  0  0  0  0  0
    8.0110   -3.9500   28.2710 C   0  0  0  0  0  0  0  0  0  0  0  0
    8.6460   -2.7810   28.3840 C   0  0  0  0  0  0  0  0  0  0  0  0
    7.1320   -2.4780   28.0990 C   0  0  0  0  0  0  0  0  0  0  0  0
    5.9580   -3.1460   28.9380 C   0  0  0  0  0  0  0  0  0  0  0  0
    5.3910   -4.8780   22.9300 C   0  0  0  0  0  0  0  0  0  0  0  0
    6.3590   -5.4480   22.1640 C   0  0  0  0  0  0  0  0  0  0  0  0
  1  2  1  0
  2  3  2  0
  2  4  1  0
  4  5  1  0
  5  6  1  0
  6  7  1  0
  7  8  1  0
  8  9  2  0
  8 10  1  0
 10 11  1  0
 12 11  1  6
 12 13  1  0
 14 13  1  0
 14 15  2  0
 14 16  2  0
 14 17  1  0
 17 18  1  0
 17 19  1  0
 12 20  1  0
 20 21  1  0
 21 22  1  0
 22 23  1  0
 20 24  1  0
 23 24  1  0
  7 25  1  0
  4 26  1  0
 25 26  1  0
M  END
