piperidine-amides-24460-covalent
     RDKit          3D

 24 26  0  0  0  0  0  0  0  0999 V2000
    7.0040   -3.3500   19.4230 C   0  0  0  0  0  0  0  0  0  0  0  0
    6.3710   -4.2440   20.4100 C   0  0  0  0  0  0  0  0  0  0  0  0
    5.4300   -4.9740   20.0190 O   0  0  0  0  0  0  0  0  0  0  0  0
    6.8140   -4.3270   21.7570 N   0  0  0  0  0  0  0  0  0  0  0  0
    6.4940   -5.5340   22.4990 C   0  0  0  0  0  0  0  0  0  0  0  0
    5.9740   -5.1200   23.8980 C   0  0  0  0  0  0  0  0  0  0  0  0
    5.7350   -3.6260   23.8420 C   0  0  0  0  0  0  0  0  0  0  0  0
    4.8950   -3.0660   24.9790 C   0  0  0  0  0  0  0  0  0  0  0  0
    3.8210   -2.5520   24.6520 O   0  0  0  0  0  0  0  0  0  0  0  0
    5.2300   -3.0880   26.3580 N   0  0  0  0  0  0  0  0  0  0  0  0
    6.3940   -3.7210   26.6280 C   0  0  0  0  0  0  0  0  0  0  0  0
    6.4260   -3.9850   28.0970 C   0  0  0  0  0  0  0  0  0  0  0  0
    5.1960   -3.7620   28.5420 C   0  0  2  0  0  0  0  0  0  0  0  0
    4.4480   -4.8650   28.8870 C   0  0  0  0  0  0  0  0  0  0  0  0
    3.3980   -4.9040   29.7670 C   0  0  0  0  0  0  0  0  0  0  0  0
    3.0120   -3.7330   30.3920 F   0  0  0  0  0  0  0  0  0  0  0  0
    2.6960   -6.0360   30.0750 C   0  0  0  0  0  0  0  0  0  0  0  0
    2.7990   -7.4920   29.6150 C   0  0  0  0  0  0  0  0  0  0  0  0
    3.9810   -7.3030   28.6550 C   0  0  0  0  0  0  0  0  0  0  0  0
    4.7440   -6.0590   28.3240 C   0  0  0  0  0  0  0  0  0  0  0  0
    5.7490   -6.1560   27.4380 F   0  0  0  0  0  0  0  0  0  0  0  0
    4.4200   -3.0600   27.5970 C   0  0  0  0  0  0  0  0  0  0  0  0
    7.0670   -2.9590   23.6480 C   0  0  0  0  0  0  0  0  0  0  0  0
    7.5110   -3.2260   22.3710 C   0  0  0  0  0  0  0  0  0  0  0  0
  1  2  1  0
  2  3  2  0
  2  4  1  0
  4  5  1  0
  5  6  1  0
  6  7  1  0
  7  8  1  0
  8  9  2  0
  8 10  1  0
 10 11  1  0
 11 12  1  0
 12 13  1  0
 13 14  1  6
 14 15  2  0
 15 16  1  0
 15 17  1  0
 17 18  2  0
 18 19  1  0
 14 20  1  0
 19 20  2  0
 20 21  1  0
 10 22  1  0
 13 22  1  0
  7 23  1  0
  4 24  1  0
 23 24  1  0
M  END
