piperidine-amides-24370-covalent
     RDKit          3D

 23 25  0  0  0  0  0  0  0  0999 V2000
    7.0880   -3.3800   19.3770 C   0  0  0  0  0  0  0  0  0  0  0  0
    6.3950   -4.2300   20.3480 C   0  0  0  0  0  0  0  0  0  0  0  0
    5.3810   -4.8740   19.9960 O   0  0  0  0  0  0  0  0  0  0  0  0
    6.9000   -4.3670   21.6510 N   0  0  0  0  0  0  0  0  0  0  0  0
    6.5550   -5.5110   22.4550 C   0  0  0  0  0  0  0  0  0  0  0  0
    5.8310   -4.9640   23.6930 C   0  0  0  0  0  0  0  0  0  0  0  0
    6.6640   -3.8220   24.2700 C   0  0  0  0  0  0  0  0  0  0  0  0
    5.9460   -3.1420   25.3740 C   0  0  0  0  0  0  0  0  0  0  0  0
    5.4620   -2.0220   25.1260 O   0  0  0  0  0  0  0  0  0  0  0  0
    5.7280   -3.7070   26.6590 N   0  0  0  0  0  0  0  0  0  0  0  0
    4.6800   -3.1750   27.4650 C   0  0  0  0  0  0  0  0  0  0  0  0
    4.1820   -4.3370   28.2830 C   0  0  0  0  0  0  0  0  0  0  0  0
    4.8100   -5.5200   28.0450 C   0  0  0  0  0  0  0  0  0  0  0  0
    6.1260   -5.3960   28.0980 C   0  0  2  0  0  0  0  0  0  0  0  0
    6.7440   -5.9570   29.1750 C   0  0  0  0  0  0  0  0  0  0  0  0
    5.9380   -6.4510   30.2080 C   0  0  0  0  0  0  0  0  0  0  0  0
    6.1320   -7.4960   31.0870 N   0  0  0  0  0  0  0  0  0  0  0  0
    5.1310   -7.6900   31.9800 C   0  0  0  0  0  0  0  0  0  0  0  0
    3.9940   -6.7330   31.8440 C   0  0  0  0  0  0  0  0  0  0  0  0
    4.3590   -5.6920   30.5750 S   0  0  0  0  0  0  0  0  0  0  0  0
    6.3200   -4.0510   27.9270 C   0  0  0  0  0  0  0  0  0  0  0  0
    6.9500   -2.7720   23.2250 C   0  0  0  0  0  0  0  0  0  0  0  0
    7.7460   -3.3640   22.2530 C   0  0  0  0  0  0  0  0  0  0  0  0
  1  2  1  0
  2  3  2  0
  2  4  1  0
  4  5  1  0
  5  6  1  0
  6  7  1  0
  7  8  1  0
  8  9  2  0
  8 10  1  0
 10 11  1  0
 11 12  1  0
 12 13  1  0
 13 14  1  0
 14 15  1  1
 15 16  1  0
 16 17  2  0
 17 18  1  0
 18 19  2  0
 16 20  1  0
 19 20  1  0
 10 21  1  0
 14 21  1  0
  7 22  1  0
  4 23  1  0
 22 23  1  0
M  END
