piperidine-amides-34992-covalent
     RDKit          3D

 32 34  0  0  0  0  0  0  0  0999 V2000
    7.0130   -3.3410   19.4040 C   0  0  0  0  0  0  0  0  0  0  0  0
    6.3720   -4.2280   20.4140 C   0  0  0  0  0  0  0  0  0  0  0  0
    5.4360   -4.9180   20.0060 O   0  0  0  0  0  0  0  0  0  0  0  0
    6.8460   -4.2890   21.7450 N   0  0  0  0  0  0  0  0  0  0  0  0
    7.6840   -3.2440   22.3020 C   0  0  0  0  0  0  0  0  0  0  0  0
    7.2990   -3.0140   23.7390 C   0  0  0  0  0  0  0  0  0  0  0  0
    5.9580   -3.7080   23.9510 C   0  0  0  0  0  0  0  0  0  0  0  0
    5.2490   -3.2100   25.1730 C   0  0  0  0  0  0  0  0  0  0  0  0
    4.1370   -2.7090   24.9960 O   0  0  0  0  0  0  0  0  0  0  0  0
    5.7110   -3.2650   26.5160 N   0  0  0  0  0  0  0  0  0  0  0  0
    5.9640   -1.9370   27.1150 C   0  0  0  0  0  0  0  0  0  0  0  0
    6.7770   -1.9240   28.4020 C   0  0  0  0  0  0  0  0  0  0  0  0
    7.0980   -0.7770   29.1060 C   0  0  0  0  0  0  0  0  0  0  0  0
    6.6610    0.4280   28.6250 C   0  0  0  0  0  0  0  0  0  0  0  0
    5.9320    0.4930   27.4760 C   0  0  0  0  0  0  0  0  0  0  0  0
    5.5500   -0.7070   26.6610 C   0  0  0  0  0  0  0  0  0  0  0  0
    4.7930   -0.5440   25.4940 F   0  0  0  0  0  0  0  0  0  0  0  0
    5.1570   -4.3330   27.3300 C   0  0  0  0  0  0  0  0  0  0  0  0
    4.0840   -4.2650   28.3920 C   0  0  0  0  0  0  0  0  0  0  0  0
    4.0730   -5.7070   28.9040 C   0  0  0  0  0  0  0  0  0  0  0  0
    5.1680   -5.9100   29.8210 N   0  0  0  0  0  0  0  0  0  0  0  0
    5.0860   -6.8160   30.9410 C   0  0  0  0  0  0  0  0  0  0  0  0
    5.9800   -6.8820   31.8630 O   0  0  0  0  0  0  0  0  0  0  0  0
    4.1950   -7.6520   31.2250 O   0  0  0  0  0  0  0  0  0  0  0  0
    3.8460   -7.6990   32.6240 C   0  0  0  0  0  0  0  0  0  0  0  0
    2.7000   -8.6470   32.7120 C   0  0  0  0  0  0  0  0  0  0  0  0
    3.6870   -6.4880   33.2960 C   0  0  0  0  0  0  0  0  0  0  0  0
    5.0000   -8.3640   33.3420 C   0  0  0  0  0  0  0  0  0  0  0  0
    6.1510   -5.1410   29.4090 C   0  0  0  0  0  0  0  0  0  0  0  0
    6.1980   -4.9590   27.9240 C   0  0  0  0  0  0  0  0  0  0  0  0
    6.1960   -5.1990   23.8370 C   0  0  0  0  0  0  0  0  0  0  0  0
    6.6460   -5.4740   22.5650 C   0  0  0  0  0  0  0  0  0  0  0  0
  1  2  1  0
  2  3  2  0
  2  4  1  0
  4  5  1  0
  5  6  1  0
  6  7  1  0
  7  8  1  0
  8  9  2  0
  8 10  1  0
 10 11  1  0
 11 12  2  0
 12 13  1  0
 13 14  2  0
 14 15  1  0
 11 16  1  0
 15 16  2  0
 16 17  1  0
 10 18  1  0
 18 19  1  0
 19 20  1  0
 20 21  1  0
 21 22  1  0
 22 23  2  0
 22 24  1  0
 25 24  1  0
 25 26  1  0
 25 27  1  0
 25 28  1  0
 21 29  1  0
 18 30  1  0
 29 30  1  0
  7 31  1  0
  4 32  1  0
 31 32  1  0
M  END
