piperidine-amides-10704-covalent
     RDKit          3D

 22 23  0  0  0  0  0  0  0  0999 V2000
    7.1090   -3.3130   19.2360 C   0  0  0  0  0  0  0  0  0  0  0  0
    6.3680   -4.0510   20.2590 C   0  0  0  0  0  0  0  0  0  0  0  0
    5.2860   -4.5800   19.8980 O   0  0  0  0  0  0  0  0  0  0  0  0
    6.9070   -4.1780   21.5430 N   0  0  0  0  0  0  0  0  0  0  0  0
    7.6700   -3.1220   22.1520 C   0  0  0  0  0  0  0  0  0  0  0  0
    6.9340   -2.7180   23.3920 C   0  0  0  0  0  0  0  0  0  0  0  0
    6.6750   -3.9000   24.2870 C   0  0  0  0  0  0  0  0  0  0  0  0
    5.8930   -3.4690   25.4660 C   0  0  0  0  0  0  0  0  0  0  0  0
    4.7640   -2.9630   25.2630 O   0  0  0  0  0  0  0  0  0  0  0  0
    6.3450   -3.5910   26.7960 N   0  0  0  0  0  0  0  0  0  0  0  0
    6.8890   -4.8320   27.3100 C   0  0  0  0  0  0  0  0  0  0  0  0
    5.8780   -5.9540   27.4170 C   0  0  0  0  0  0  0  0  0  0  0  0
    4.6560   -5.4180   28.0500 N   0  0  0  0  0  0  0  0  0  0  0  0
    3.4950   -6.0540   27.9440 C   0  0  0  0  0  0  0  0  0  0  0  0
    3.3100   -7.0190   26.9870 C   0  0  0  0  0  0  0  0  0  0  0  0
    2.1410   -7.6830   26.8490 N   0  0  0  0  0  0  0  0  0  0  0  0
    1.1500   -7.2680   27.7980 C   0  0  0  0  0  0  0  0  0  0  0  0
    1.3690   -6.2820   28.7620 C   0  0  0  0  0  0  0  0  0  0  0  0
    0.1110   -5.8210   29.8960 Cl  0  0  0  0  0  0  0  0  0  0  0  0
    2.5590   -5.6890   28.8110 N   0  0  0  0  0  0  0  0  0  0  0  0
    5.8320   -4.9770   23.6030 C   0  0  0  0  0  0  0  0  0  0  0  0
    6.5170   -5.3600   22.3090 C   0  0  0  0  0  0  0  0  0  0  0  0
  1  2  1  0
  2  3  2  0
  2  4  1  0
  4  5  1  0
  5  6  1  0
  6  7  1  0
  7  8  1  0
  8  9  2  0
  8 10  1  0
 10 11  1  0
 11 12  1  0
 12 13  1  0
 13 14  1  0
 14 15  2  0
 15 16  1  0
 16 17  2  0
 17 18  1  0
 18 19  1  0
 14 20  1  0
 18 20  2  0
  7 21  1  0
  4 22  1  0
 21 22  1  0
M  END
