piperidine-amides-35190-covalent
     RDKit          3D

 27 29  0  0  0  0  0  0  0  0999 V2000
    7.1010   -3.3300   19.3360 C   0  0  0  0  0  0  0  0  0  0  0  0
    6.3530   -4.1500   20.3160 C   0  0  0  0  0  0  0  0  0  0  0  0
    5.3130   -4.6770   19.9300 O   0  0  0  0  0  0  0  0  0  0  0  0
    6.8680   -4.3340   21.5980 N   0  0  0  0  0  0  0  0  0  0  0  0
    7.6950   -3.3470   22.2550 C   0  0  0  0  0  0  0  0  0  0  0  0
    6.9770   -2.8020   23.4530 C   0  0  0  0  0  0  0  0  0  0  0  0
    6.4370   -3.9650   24.2780 C   0  0  0  0  0  0  0  0  0  0  0  0
    5.6170   -3.3860   25.3780 C   0  0  0  0  0  0  0  0  0  0  0  0
    4.8950   -2.4160   25.1280 O   0  0  0  0  0  0  0  0  0  0  0  0
    5.6110   -3.9140   26.6900 N   0  0  0  0  0  0  0  0  0  0  0  0
    4.3580   -4.3680   27.2720 C   0  0  0  0  0  0  0  0  0  0  0  0
    4.3530   -4.3830   28.8160 C   0  0  0  0  0  0  0  0  0  0  0  0
    5.5120   -5.1190   29.3250 N   0  0  0  0  0  0  0  0  0  0  0  0
    5.2930   -6.8030   29.0350 S   0  0  0  0  0  0  0  0  0  0  0  0
    6.4730   -7.4490   29.6600 O   0  0  0  0  0  0  0  0  0  0  0  0
    5.3460   -7.0220   27.5510 O   0  0  0  0  0  0  0  0  0  0  0  0
    3.7300   -7.4290   29.7770 C   0  0  0  0  0  0  0  0  0  0  0  0
    2.8450   -7.5860   28.7810 C   0  0  0  0  0  0  0  0  0  0  0  0
    1.6640   -8.0370   29.1330 C   0  0  0  0  0  0  0  0  0  0  0  0
    1.1850   -8.3930   30.4730 C   0  0  0  0  0  0  0  0  0  0  0  0
    2.2600   -8.1760   31.5100 C   0  0  0  0  0  0  0  0  0  0  0  0
    3.7140   -7.6510   31.2980 C   0  0  0  0  0  0  0  0  0  0  0  0
    5.0700   -7.3850   32.6400 Br  0  0  0  0  0  0  0  0  0  0  0  0
    6.6640   -4.6820   28.6160 C   0  0  0  0  0  0  0  0  0  0  0  0
    6.3550   -3.4650   27.8290 C   0  0  0  0  0  0  0  0  0  0  0  0
    5.7550   -5.0400   23.5190 C   0  0  0  0  0  0  0  0  0  0  0  0
    6.5350   -5.5210   22.3490 C   0  0  0  0  0  0  0  0  0  0  0  0
  1  2  1  0
  2  3  2  0
  2  4  1  0
  4  5  1  0
  5  6  1  0
  6  7  1  0
  7  8  1  0
  8  9  2  0
  8 10  1  0
 10 11  1  0
 11 12  1  0
 12 13  1  0
 13 14  1  0
 14 15  2  0
 14 16  2  0
 14 17  1  0
 17 18  2  0
 18 19  1  0
 19 20  2  0
 20 21  1  0
 17 22  1  0
 21 22  2  0
 22 23  1  0
 13 24  1  0
 10 25  1  0
 24 25  1  0
  7 26  1  0
  4 27  1  0
 26 27  1  0
M  END
