piperidine-amides-33859-covalent
     RDKit          3D

 30 32  0  0  0  0  0  0  0  0999 V2000
    6.9740   -3.3910   19.3990 C   0  0  0  0  0  0  0  0  0  0  0  0
    6.4040   -4.3030   20.4090 C   0  0  0  0  0  0  0  0  0  0  0  0
    5.4220   -4.9800   20.0150 O   0  0  0  0  0  0  0  0  0  0  0  0
    6.9500   -4.4480   21.7270 N   0  0  0  0  0  0  0  0  0  0  0  0
    6.4980   -5.5430   22.5260 C   0  0  0  0  0  0  0  0  0  0  0  0
    6.0750   -5.1580   23.8840 C   0  0  0  0  0  0  0  0  0  0  0  0
    6.0340   -3.6940   24.1010 C   0  0  0  0  0  0  0  0  0  0  0  0
    5.3350   -3.1850   25.3570 C   0  0  0  0  0  0  0  0  0  0  0  0
    4.6360   -2.1740   25.2130 O   0  0  0  0  0  0  0  0  0  0  0  0
    5.3650   -3.7190   26.6770 N   0  0  0  0  0  0  0  0  0  0  0  0
    4.2450   -3.9100   27.5230 C   0  0  0  0  0  0  0  0  0  0  0  0
    4.4270   -4.4960   28.8570 C   0  0  0  0  0  0  0  0  0  0  0  0
    5.5290   -5.1630   29.1860 N   0  0  0  0  0  0  0  0  0  0  0  0
    5.6530   -6.6070   29.1550 C   0  0  0  0  0  0  0  0  0  0  0  0
    5.5780   -7.1440   30.4300 C   0  0  0  0  0  0  0  0  0  0  0  0
    6.3100   -8.2580   30.7450 O   0  0  0  0  0  0  0  0  0  0  0  0
    4.7330   -6.4400   31.1950 N   0  0  0  0  0  0  0  0  0  0  0  0
    4.8530   -6.5850   32.6450 C   0  0  0  0  0  0  0  0  0  0  0  0
    4.1480   -5.5950   33.5290 C   0  0  0  0  0  0  0  0  0  0  0  0
    4.4540   -5.9730   34.9940 C   0  0  0  0  0  0  0  0  0  0  0  0
    5.2830   -7.0930   35.5920 C   0  0  0  0  0  0  0  0  0  0  0  0
    5.5470   -7.4130   36.8820 O   0  0  0  0  0  0  0  0  0  0  0  0
    6.1530   -6.4760   37.7620 C   0  0  0  0  0  0  0  0  0  0  0  0
    5.1020   -5.5200   38.3410 C   0  0  0  0  0  0  0  0  0  0  0  0
    5.8740   -7.9440   34.4990 C   0  0  0  0  0  0  0  0  0  0  0  0
    5.5960   -7.5970   33.1970 C   0  0  0  0  0  0  0  0  0  0  0  0
    6.6340   -4.6560   28.3790 C   0  0  0  0  0  0  0  0  0  0  0  0
    6.4700   -3.4290   27.4910 C   0  0  0  0  0  0  0  0  0  0  0  0
    7.3700   -3.0890   23.7790 C   0  0  0  0  0  0  0  0  0  0  0  0
    7.6970   -3.3660   22.3160 C   0  0  0  0  0  0  0  0  0  0  0  0
  1  2  1  0
  2  3  2  0
  2  4  1  0
  4  5  1  0
  5  6  1  0
  6  7  1  0
  7  8  1  0
  8  9  2  0
  8 10  1  0
 10 11  1  0
 11 12  1  0
 12 13  1  0
 13 14  1  0
 14 15  1  0
 15 16  2  0
 15 17  1  0
 17 18  1  0
 18 19  2  0
 19 20  1  0
 20 21  2  0
 21 22  1  0
 22 23  1  0
 23 24  1  0
 21 25  1  0
 18 26  1  0
 25 26  2  0
 13 27  1  0
 10 28  1  0
 27 28  1  0
  7 29  1  0
  4 30  1  0
 29 30  1  0
M  END
