piperidine-amides-10118-covalent
     RDKit          3D

 25 27  0  0  0  0  0  0  0  0999 V2000
    7.0950   -3.3070   19.2900 C   0  0  0  0  0  0  0  0  0  0  0  0
    6.3580   -4.0710   20.3010 C   0  0  0  0  0  0  0  0  0  0  0  0
    5.2930   -4.6150   19.9130 O   0  0  0  0  0  0  0  0  0  0  0  0
    6.8600   -4.2080   21.6040 N   0  0  0  0  0  0  0  0  0  0  0  0
    6.6280   -5.4090   22.3730 C   0  0  0  0  0  0  0  0  0  0  0  0
    6.0570   -5.0390   23.7250 C   0  0  0  0  0  0  0  0  0  0  0  0
    6.0320   -3.5470   23.9610 C   0  0  0  0  0  0  0  0  0  0  0  0
    5.6260   -3.2280   25.3530 C   0  0  0  0  0  0  0  0  0  0  0  0
    4.4000   -3.1130   25.5680 O   0  0  0  0  0  0  0  0  0  0  0  0
    6.5110   -3.0410   26.4370 N   0  0  0  0  0  0  0  0  0  0  0  0
    6.2580   -3.6390   27.7340 C   0  0  2  0  0  0  0  0  0  0  0  0
    5.5180   -4.9560   27.5150 C   0  0  0  0  0  0  0  0  0  0  0  0
    5.7990   -6.1150   28.1780 C   0  0  0  0  0  0  0  0  0  0  0  0
    4.9840   -6.8980   28.6610 C   0  0  0  0  0  0  0  0  0  0  0  0
    5.7810   -6.1560   29.6210 C   0  0  0  0  0  0  0  0  0  0  0  0
    5.7780   -2.8110   28.7620 C   0  0  0  0  0  0  0  0  0  0  0  0
    6.4980   -1.6910   29.1820 C   0  0  0  0  0  0  0  0  0  0  0  0
    6.2170   -0.6390   30.2520 C   0  0  0  0  0  0  0  0  0  0  0  0
    7.0270    0.4050   30.5500 F   0  0  0  0  0  0  0  0  0  0  0  0
    4.8880   -0.9950   30.8960 C   0  0  0  0  0  0  0  0  0  0  0  0
    4.0090   -2.1560   30.5570 C   0  0  0  0  0  0  0  0  0  0  0  0
    2.3750   -2.4380   31.4800 Br  0  0  0  0  0  0  0  0  0  0  0  0
    4.4560   -3.0970   29.4620 C   0  0  0  0  0  0  0  0  0  0  0  0
    7.3150   -2.9010   23.6020 C   0  0  0  0  0  0  0  0  0  0  0  0
    7.6880   -3.1640   22.1630 C   0  0  0  0  0  0  0  0  0  0  0  0
  1  2  1  0
  2  3  2  0
  2  4  1  0
  4  5  1  0
  5  6  1  0
  6  7  1  0
  7  8  1  0
  8  9  2  0
  8 10  1  0
 10 11  1  0
 11 12  1  6
 12 13  1  0
 13 14  1  0
 13 15  1  0
 14 15  1  0
 11 16  1  0
 16 17  2  0
 17 18  1  0
 18 19  1  0
 18 20  2  0
 20 21  1  0
 21 22  1  0
 16 23  1  0
 21 23  2  0
  7 24  1  0
  4 25  1  0
 24 25  1  0
M  END
