piperidine-amides-27426-covalent
     RDKit          3D

 25 26  0  0  0  0  0  0  0  0999 V2000
    7.0790   -3.2550   19.2460 C   0  0  0  0  0  0  0  0  0  0  0  0
    6.3290   -4.0050   20.2620 C   0  0  0  0  0  0  0  0  0  0  0  0
    5.2500   -4.5270   19.8720 O   0  0  0  0  0  0  0  0  0  0  0  0
    6.8140   -4.1730   21.5680 N   0  0  0  0  0  0  0  0  0  0  0  0
    6.6510   -5.4360   22.2470 C   0  0  0  0  0  0  0  0  0  0  0  0
    6.1950   -5.1840   23.6650 C   0  0  0  0  0  0  0  0  0  0  0  0
    6.0450   -3.7170   23.9900 C   0  0  0  0  0  0  0  0  0  0  0  0
    5.5850   -3.5280   25.4050 C   0  0  0  0  0  0  0  0  0  0  0  0
    4.3760   -3.7540   25.6170 O   0  0  0  0  0  0  0  0  0  0  0  0
    6.3710   -3.0870   26.5060 N   0  0  0  0  0  0  0  0  0  0  0  0
    6.2710   -3.7050   27.8370 C   0  0  0  0  0  0  0  0  0  0  0  0
    6.0530   -5.2300   27.9850 C   0  0  2  0  0  0  0  0  0  0  0  0
    7.0610   -5.9400   28.2350 O   0  0  0  0  0  0  0  0  0  0  0  0
    5.3980   -6.0140   27.0710 C   0  0  0  0  0  0  0  0  0  0  0  0
    5.8350   -5.7770   25.8060 O   0  0  0  0  0  0  0  0  0  0  0  0
    6.6580   -1.6690   26.5990 C   0  0  0  0  0  0  0  0  0  0  0  0
    5.5580   -0.9060   26.9940 C   0  0  2  0  0  0  0  0  0  0  0  0
    4.3470   -1.1870   26.3760 C   0  0  0  0  0  0  0  0  0  0  0  0
    3.2790   -0.3430   26.6020 C   0  0  0  0  0  0  0  0  0  0  0  0
    3.5420    1.1260   26.8270 C   0  0  2  0  0  0  0  0  0  0  0  0
    2.8430    1.6530   25.5750 C   0  0  0  0  0  0  0  0  0  0  0  0
    4.8540    1.4620   27.0810 C   0  0  0  0  0  0  0  0  0  0  0  0
    5.9450    0.4120   26.9530 C   0  0  0  0  0  0  0  0  0  0  0  0
    7.2660   -2.9410   23.6410 C   0  0  0  0  0  0  0  0  0  0  0  0
    7.6340   -3.1560   22.1850 C   0  0  0  0  0  0  0  0  0  0  0  0
  1  2  1  0
  2  3  2  0
  2  4  1  0
  4  5  1  0
  5  6  1  0
  6  7  1  0
  7  8  1  0
  8  9  2  0
  8 10  1  0
 10 11  1  0
 11 12  1  0
 12 13  1  6
 12 14  1  0
 14 15  1  0
 10 16  1  0
 17 16  1  6
 17 18  1  0
 18 19  1  0
 19 20  1  0
 20 21  1  6
 20 22  1  0
 17 23  1  0
 22 23  1  0
  7 24  1  0
  4 25  1  0
 24 25  1  0
M  END
