piperidine-amides-10521-covalent
     RDKit          3D

 24 25  0  0  0  0  0  0  0  0999 V2000
    7.0380   -3.3450   19.3340 C   0  0  0  0  0  0  0  0  0  0  0  0
    6.3900   -4.1720   20.3560 C   0  0  0  0  0  0  0  0  0  0  0  0
    5.3830   -4.8330   19.9810 O   0  0  0  0  0  0  0  0  0  0  0  0
    6.9170   -4.2360   21.6530 N   0  0  0  0  0  0  0  0  0  0  0  0
    7.7650   -3.1980   22.1990 C   0  0  0  0  0  0  0  0  0  0  0  0
    7.3850   -2.9610   23.6290 C   0  0  0  0  0  0  0  0  0  0  0  0
    6.0260   -3.5310   23.9330 C   0  0  0  0  0  0  0  0  0  0  0  0
    5.6330   -3.1670   25.3130 C   0  0  0  0  0  0  0  0  0  0  0  0
    4.4140   -3.1210   25.5840 O   0  0  0  0  0  0  0  0  0  0  0  0
    6.5660   -2.8780   26.3190 N   0  0  0  0  0  0  0  0  0  0  0  0
    6.5240   -1.6830   27.1260 C   0  0  0  0  0  0  0  0  0  0  0  0
    5.8780   -0.4190   26.5240 C   0  0  0  0  0  0  0  0  0  0  0  0
    5.7680    0.8080   27.1990 C   0  0  0  0  0  0  0  0  0  0  0  0
    6.2530    0.9670   28.4930 C   0  0  0  0  0  0  0  0  0  0  0  0
    6.2650    2.3000   29.5610 S   0  0  0  0  0  0  0  0  0  0  0  0
    5.5430    3.4570   28.9670 O   0  0  0  0  0  0  0  0  0  0  0  0
    7.6840    2.6070   29.8840 O   0  0  0  0  0  0  0  0  0  0  0  0
    5.4960    2.0070   31.0880 N   0  0  0  0  0  0  0  0  0  0  0  0
    4.9310    0.8090   31.2270 C   0  0  0  0  0  0  0  0  0  0  0  0
    6.8700   -0.2690   29.0310 C   0  0  0  0  0  0  0  0  0  0  0  0
    7.5000   -0.8620   30.0950 C   0  0  0  0  0  0  0  0  0  0  0  0
    7.0400   -1.6260   28.4160 C   0  0  0  0  0  0  0  0  0  0  0  0
    6.0170   -5.0170   23.7700 C   0  0  0  0  0  0  0  0  0  0  0  0
    6.5890   -5.4350   22.4310 C   0  0  0  0  0  0  0  0  0  0  0  0
  1  2  1  0
  2  3  2  0
  2  4  1  0
  4  5  1  0
  5  6  1  0
  6  7  1  0
  7  8  1  0
  8  9  2  0
  8 10  1  0
 10 11  1  0
 11 12  2  0
 12 13  1  0
 13 14  2  0
 14 15  1  0
 15 16  2  0
 15 17  2  0
 15 18  1  0
 18 19  1  0
 14 20  1  0
 20 21  1  0
 11 22  1  0
 20 22  2  0
  7 23  1  0
  4 24  1  0
 23 24  1  0
M  END
