piperidine-amides-32442-covalent
     RDKit          3D

 28 29  0  0  0  0  0  0  0  0999 V2000
    6.9520   -3.3370   19.4630 C   0  0  0  0  0  0  0  0  0  0  0  0
    6.2620   -4.2350   20.4440 C   0  0  0  0  0  0  0  0  0  0  0  0
    5.3700   -4.9710   20.0010 O   0  0  0  0  0  0  0  0  0  0  0  0
    6.6220   -4.2800   21.8270 N   0  0  0  0  0  0  0  0  0  0  0  0
    6.6140   -5.5470   22.5370 C   0  0  0  0  0  0  0  0  0  0  0  0
    6.2060   -5.4010   24.0290 C   0  0  0  0  0  0  0  0  0  0  0  0
    6.0480   -3.9740   24.4270 C   0  0  0  0  0  0  0  0  0  0  0  0
    5.7910   -3.7090   25.9130 C   0  0  0  0  0  0  0  0  0  0  0  0
    5.4960   -2.5330   26.1470 O   0  0  0  0  0  0  0  0  0  0  0  0
    5.8240   -4.7100   26.9750 N   0  0  0  0  0  0  0  0  0  0  0  0
    4.8580   -5.7040   27.2350 C   0  0  0  0  0  0  0  0  0  0  0  0
    4.9550   -6.6630   28.2830 C   0  0  0  0  0  0  0  0  0  0  0  0
    6.0450   -6.6930   29.1950 C   0  0  0  0  0  0  0  0  0  0  0  0
    6.6700   -8.1100   29.0770 N   0  0  0  0  0  0  0  0  0  0  0  0
    7.0660   -9.1430   30.0520 C   0  0  0  0  0  0  0  0  0  0  0  0
    6.7500   -8.8980   31.3250 O   0  0  0  0  0  0  0  0  0  0  0  0
    7.7280  -10.4950   29.7320 O   0  0  0  0  0  0  0  0  0  0  0  0
    9.0750  -11.3200   29.8660 C   0  0  0  0  0  0  0  0  0  0  0  0
    9.2570  -12.3640   30.9930 C   0  0  0  0  0  0  0  0  0  0  0  0
   10.3310  -11.0850   29.6570 C   0  0  0  0  0  0  0  0  0  0  0  0
    9.6290  -11.7080   28.6200 C   0  0  0  0  0  0  0  0  0  0  0  0
    5.5200   -6.3110   30.4090 C   0  0  0  0  0  0  0  0  0  0  0  0
    4.4970   -5.4430   30.4340 N   0  0  0  0  0  0  0  0  0  0  0  0
    6.0180   -6.8190   31.5890 O   0  0  0  0  0  0  0  0  0  0  0  0
    6.8470   -5.6360   28.7520 C   0  0  0  0  0  0  0  0  0  0  0  0
    6.4360   -4.3810   28.2690 C   0  0  0  0  0  0  0  0  0  0  0  0
    7.1670   -3.0950   23.9280 C   0  0  0  0  0  0  0  0  0  0  0  0
    7.4200   -3.2140   22.4290 C   0  0  0  0  0  0  0  0  0  0  0  0
  1  2  1  0
  2  3  2  0
  2  4  1  0
  4  5  1  0
  5  6  1  0
  6  7  1  0
  7  8  1  0
  8  9  2  0
  8 10  1  0
 10 11  1  0
 11 12  1  0
 12 13  1  0
 13 14  1  0
 14 15  1  0
 15 16  2  0
 15 17  1  0
 18 17  1  0
 18 19  1  0
 18 20  1  0
 18 21  1  0
 13 22  1  0
 22 23  1  0
 22 24  2  0
 13 25  1  0
 10 26  1  0
 25 26  1  0
  7 27  1  0
  4 28  1  0
 27 28  1  0
M  END
