piperidine-amides-8584-covalent
     RDKit          3D

 24 25  0  0  0  0  0  0  0  0999 V2000
    7.1250   -3.2730   19.1900 C   0  0  0  0  0  0  0  0  0  0  0  0
    6.3220   -3.9700   20.1880 C   0  0  0  0  0  0  0  0  0  0  0  0
    5.2370   -4.4640   19.8420 O   0  0  0  0  0  0  0  0  0  0  0  0
    6.8170   -4.1200   21.5000 N   0  0  0  0  0  0  0  0  0  0  0  0
    6.5700   -5.3410   22.1950 C   0  0  0  0  0  0  0  0  0  0  0  0
    5.7140   -5.0280   23.3780 C   0  0  0  0  0  0  0  0  0  0  0  0
    6.1360   -3.6590   23.8690 C   0  0  0  0  0  0  0  0  0  0  0  0
    6.1200   -3.6720   25.3580 C   0  0  0  0  0  0  0  0  0  0  0  0
    5.3220   -2.9130   25.9110 O   0  0  0  0  0  0  0  0  0  0  0  0
    7.0120   -4.5770   25.9420 N   0  0  0  0  0  0  0  0  0  0  0  0
    7.5290   -4.5330   27.2700 C   0  0  2  0  0  0  0  0  0  0  0  0
    7.0310   -5.5060   28.1430 C   0  0  0  0  0  0  0  0  0  0  0  0
    7.2150   -3.2130   27.8510 C   0  0  2  0  0  0  0  0  0  0  0  0
    8.3180   -2.7220   28.4970 O   0  0  0  0  0  0  0  0  0  0  0  0
    5.9570   -2.9920   28.4270 C   0  0  0  0  0  0  0  0  0  0  0  0
    6.0650   -1.7760   29.2890 C   0  0  0  0  0  0  0  0  0  0  0  0
    7.2650   -1.1470   29.3570 F   0  0  0  0  0  0  0  0  0  0  0  0
    4.8330   -1.2700   30.0680 C   0  0  0  0  0  0  0  0  0  0  0  0
    3.5360   -2.0000   29.9580 C   0  0  0  0  0  0  0  0  0  0  0  0
    3.5230   -3.2190   29.0600 C   0  0  0  0  0  0  0  0  0  0  0  0
    4.7690   -3.7140   28.2830 C   0  0  0  0  0  0  0  0  0  0  0  0
    4.6670   -5.1410   27.2540 Cl  0  0  0  0  0  0  0  0  0  0  0  0
    7.5690   -3.3760   23.4720 C   0  0  0  0  0  0  0  0  0  0  0  0
    7.5760   -3.0670   22.1320 C   0  0  0  0  0  0  0  0  0  0  0  0
  1  2  1  0
  2  3  2  0
  2  4  1  0
  4  5  1  0
  5  6  1  0
  6  7  1  0
  7  8  1  0
  8  9  2  0
  8 10  1  0
 10 11  1  0
 11 12  1  1
 11 13  1  0
 13 14  1  1
 13 15  1  0
 15 16  2  0
 16 17  1  0
 16 18  1  0
 18 19  2  0
 19 20  1  0
 15 21  1  0
 20 21  2  0
 21 22  1  0
  7 23  1  0
  4 24  1  0
 23 24  1  0
M  END
