piperidine-amides-24951-covalent
     RDKit          3D

 23 24  0  0  0  0  0  0  0  0999 V2000
    7.0320   -3.3180   19.3160 C   0  0  0  0  0  0  0  0  0  0  0  0
    6.3450   -4.1560   20.3180 C   0  0  0  0  0  0  0  0  0  0  0  0
    5.3600   -4.8450   19.9790 O   0  0  0  0  0  0  0  0  0  0  0  0
    6.7990   -4.2280   21.6480 N   0  0  0  0  0  0  0  0  0  0  0  0
    7.6880   -3.1920   22.1450 C   0  0  0  0  0  0  0  0  0  0  0  0
    7.6550   -3.2730   23.6690 C   0  0  0  0  0  0  0  0  0  0  0  0
    6.2430   -3.6780   23.9870 C   0  0  0  0  0  0  0  0  0  0  0  0
    5.9190   -3.3620   25.3920 C   0  0  0  0  0  0  0  0  0  0  0  0
    4.7110   -3.2430   25.6920 O   0  0  0  0  0  0  0  0  0  0  0  0
    6.9530   -3.2010   26.3550 N   0  0  0  0  0  0  0  0  0  0  0  0
    7.8080   -4.3150   26.6700 C   0  0  0  0  0  0  0  0  0  0  0  0
    6.7310   -2.2210   27.4000 C   0  0  0  0  0  0  0  0  0  0  0  0
    5.5470   -1.3970   27.6260 N   0  0  0  0  0  0  0  0  0  0  0  0
    5.6090   -0.5230   28.7490 C   0  0  0  0  0  0  0  0  0  0  0  0
    4.5670    0.3090   29.0830 C   0  0  0  0  0  0  0  0  0  0  0  0
    4.7600    1.6180   29.4970 O   0  0  0  0  0  0  0  0  0  0  0  0
    3.3040   -0.1980   29.0010 O   0  0  0  0  0  0  0  0  0  0  0  0
    2.3860    0.4870   28.2370 C   0  0  0  0  0  0  0  0  0  0  0  0
    1.8830   -0.4200   27.3290 C   0  0  0  0  0  0  0  0  0  0  0  0
    6.7400   -0.5400   29.4850 C   0  0  0  0  0  0  0  0  0  0  0  0
    7.7780   -1.7480   28.6820 S   0  0  0  0  0  0  0  0  0  0  0  0
    5.9370   -5.0960   23.6380 C   0  0  0  0  0  0  0  0  0  0  0  0
    6.7050   -5.4690   22.4010 C   0  0  0  0  0  0  0  0  0  0  0  0
  1  2  1  0
  2  3  2  0
  2  4  1  0
  4  5  1  0
  5  6  1  0
  6  7  1  0
  7  8  1  0
  8  9  2  0
  8 10  1  0
 10 11  1  0
 10 12  1  0
 12 13  2  0
 13 14  1  0
 14 15  1  0
 15 16  2  0
 15 17  1  0
 17 18  1  0
 18 19  1  0
 14 20  2  0
 12 21  1  0
 20 21  1  0
  7 22  1  0
  4 23  1  0
 22 23  1  0
M  END
