piperidine-amides-16182-covalent
     RDKit          3D

 19 20  0  0  0  0  0  0  0  0999 V2000
    7.0990   -3.3230   19.2830 C   0  0  0  0  0  0  0  0  0  0  0  0
    6.3450   -4.1210   20.2800 C   0  0  0  0  0  0  0  0  0  0  0  0
    5.2820   -4.6130   19.9070 O   0  0  0  0  0  0  0  0  0  0  0  0
    6.8800   -4.3350   21.5490 N   0  0  0  0  0  0  0  0  0  0  0  0
    6.5870   -5.5150   22.3100 C   0  0  0  0  0  0  0  0  0  0  0  0
    5.8410   -5.1050   23.5440 C   0  0  0  0  0  0  0  0  0  0  0  0
    6.6580   -4.0740   24.3370 C   0  0  0  0  0  0  0  0  0  0  0  0
    5.8250   -3.6700   25.4860 C   0  0  0  0  0  0  0  0  0  0  0  0
    4.5910   -3.5330   25.3720 O   0  0  0  0  0  0  0  0  0  0  0  0
    6.4020   -3.4310   26.7480 N   0  0  0  0  0  0  0  0  0  0  0  0
    7.7840   -3.7560   26.9350 C   0  0  0  0  0  0  0  0  0  0  0  0
    7.7770   -5.0090   27.7830 C   0  0  2  0  0  0  0  0  0  0  0  0
    7.9270   -6.0590   26.9000 O   0  0  0  0  0  0  0  0  0  0  0  0
    6.7300   -5.2910   28.6140 C   0  0  0  0  0  0  0  0  0  0  0  0
    5.5880   -4.5660   28.4580 C   0  0  0  0  0  0  0  0  0  0  0  0
    5.7230   -3.2880   27.9700 C   0  0  1  0  0  0  0  0  0  0  0  0
    6.2850   -2.1460   28.7910 C   0  0  0  0  0  0  0  0  0  0  0  0
    7.0940   -2.9020   23.5090 C   0  0  0  0  0  0  0  0  0  0  0  0
    7.6670   -3.2940   22.1830 C   0  0  0  0  0  0  0  0  0  0  0  0
  1  2  1  0
  2  3  2  0
  2  4  1  0
  4  5  1  0
  5  6  1  0
  6  7  1  0
  7  8  1  0
  8  9  2  0
  8 10  1  0
 10 11  1  0
 11 12  1  0
 12 13  1  6
 12 14  1  0
 14 15  1  0
 10 16  1  0
 15 16  1  0
 16 17  1  1
  7 18  1  0
  4 19  1  0
 18 19  1  0
M  END
