piperidine-amides-1974-covalent
     RDKit          3D

 20 21  0  0  0  0  0  0  0  0999 V2000
    7.1430   -3.2370   19.1640 C   0  0  0  0  0  0  0  0  0  0  0  0
    6.3670   -3.9870   20.1830 C   0  0  0  0  0  0  0  0  0  0  0  0
    5.2820   -4.4570   19.8470 O   0  0  0  0  0  0  0  0  0  0  0  0
    6.9040   -4.1830   21.4520 N   0  0  0  0  0  0  0  0  0  0  0  0
    7.6650   -3.1580   22.1190 C   0  0  0  0  0  0  0  0  0  0  0  0
    6.9450   -2.7500   23.3710 C   0  0  0  0  0  0  0  0  0  0  0  0
    6.6380   -3.9950   24.1970 C   0  0  0  0  0  0  0  0  0  0  0  0
    5.8360   -3.6330   25.3660 C   0  0  0  0  0  0  0  0  0  0  0  0
    4.9970   -2.7200   25.3210 O   0  0  0  0  0  0  0  0  0  0  0  0
    6.0570   -4.3800   26.5250 N   0  0  0  0  0  0  0  0  0  0  0  0
    5.2450   -4.2190   27.6990 C   0  0  2  0  0  0  0  0  0  0  0  0
    5.0380   -2.7790   28.1430 C   0  0  0  0  0  0  0  0  0  0  0  0
    4.5500   -2.5840   29.5190 N   0  0  0  0  0  0  0  0  0  0  0  0
    5.3070   -1.7640   27.2460 O   0  0  0  0  0  0  0  0  0  0  0  0
    5.7200   -5.1390   28.8210 C   0  0  0  0  0  0  0  0  0  0  0  0
    4.4220   -5.5500   28.9090 C   0  0  2  0  0  0  0  0  0  0  0  0
    4.1710   -6.7460   28.6930 O   0  0  0  0  0  0  0  0  0  0  0  0
    3.9460   -4.8910   27.8680 C   0  0  0  0  0  0  0  0  0  0  0  0
    5.8420   -5.0150   23.4030 C   0  0  0  0  0  0  0  0  0  0  0  0
    6.5740   -5.3670   22.1580 C   0  0  0  0  0  0  0  0  0  0  0  0
  1  2  1  0
  2  3  2  0
  2  4  1  0
  4  5  1  0
  5  6  1  0
  6  7  1  0
  7  8  1  0
  8  9  2  0
  8 10  1  0
 11 10  1  6
 11 12  1  0
 12 13  1  0
 12 14  2  0
 11 15  1  0
 15 16  1  0
 16 17  1  6
 11 18  1  0
 16 18  1  0
  7 19  1  0
  4 20  1  0
 19 20  1  0
M  END
