piperidine-amides-2422-covalent
     RDKit          3D

 27 29  0  0  0  0  0  0  0  0999 V2000
    7.0740   -3.3250   19.2940 C   0  0  0  0  0  0  0  0  0  0  0  0
    6.3940   -4.1750   20.3000 C   0  0  0  0  0  0  0  0  0  0  0  0
    5.3720   -4.7680   19.9590 O   0  0  0  0  0  0  0  0  0  0  0  0
    6.9530   -4.3050   21.5700 N   0  0  0  0  0  0  0  0  0  0  0  0
    7.6790   -3.2170   22.1600 C   0  0  0  0  0  0  0  0  0  0  0  0
    6.8600   -2.6790   23.2870 C   0  0  0  0  0  0  0  0  0  0  0  0
    6.5770   -3.8130   24.2690 C   0  0  0  0  0  0  0  0  0  0  0  0
    5.7900   -3.2360   25.3740 C   0  0  0  0  0  0  0  0  0  0  0  0
    4.6360   -2.8430   25.1540 O   0  0  0  0  0  0  0  0  0  0  0  0
    6.3200   -3.1360   26.6720 N   0  0  0  0  0  0  0  0  0  0  0  0
    6.3660   -1.8380   27.3070 C   0  0  0  0  0  0  0  0  0  0  0  0
    5.8000   -0.5630   26.7380 C   0  0  0  0  0  0  0  0  0  0  0  0
    5.7940    0.7000   27.2760 C   0  0  0  0  0  0  0  0  0  0  0  0
    6.3710    0.8860   28.5070 C   0  0  0  0  0  0  0  0  0  0  0  0
    6.3380    2.1720   29.0040 O   0  0  0  0  0  0  0  0  0  0  0  0
    5.3280    2.3750   29.9200 C   0  0  0  0  0  0  0  0  0  0  0  0
    4.5680    3.6100   29.4840 C   0  0  0  0  0  0  0  0  0  0  0  0
    4.7420    4.6190   30.5920 C   0  0  0  0  0  0  0  0  0  0  0  0
    4.0440    5.9550   30.3510 C   0  0  0  0  0  0  0  0  0  0  0  0
    3.2660    6.1660   29.0860 C   0  0  0  0  0  0  0  0  0  0  0  0
    3.1550    5.1090   28.0570 C   0  0  0  0  0  0  0  0  0  0  0  0
    3.8040    3.7660   28.2010 C   0  0  0  0  0  0  0  0  0  0  0  0
    7.0100   -0.2360   29.2840 C   0  0  0  0  0  0  0  0  0  0  0  0
    7.5700   -0.0250   30.4970 F   0  0  0  0  0  0  0  0  0  0  0  0
    7.0220   -1.6150   28.6980 C   0  0  0  0  0  0  0  0  0  0  0  0
    5.7720   -4.8920   23.5750 C   0  0  0  0  0  0  0  0  0  0  0  0
    6.5160   -5.4060   22.3660 C   0  0  0  0  0  0  0  0  0  0  0  0
  1  2  1  0
  2  3  2  0
  2  4  1  0
  4  5  1  0
  5  6  1  0
  6  7  1  0
  7  8  1  0
  8  9  2  0
  8 10  1  0
 10 11  1  0
 11 12  2  0
 12 13  1  0
 13 14  2  0
 14 15  1  0
 15 16  1  0
 16 17  1  0
 17 18  2  0
 18 19  1  0
 19 20  2  0
 20 21  1  0
 17 22  1  0
 21 22  2  0
 14 23  1  0
 23 24  1  0
 11 25  1  0
 23 25  2  0
  7 26  1  0
  4 27  1  0
 26 27  1  0
M  END
