piperidine-amides-12869-covalent
     RDKit          3D

 21 22  0  0  0  0  0  0  0  0999 V2000
    7.0910   -3.2870   19.1810 C   0  0  0  0  0  0  0  0  0  0  0  0
    6.3650   -4.0400   20.2310 C   0  0  0  0  0  0  0  0  0  0  0  0
    5.2850   -4.5540   19.8870 O   0  0  0  0  0  0  0  0  0  0  0  0
    6.9000   -4.2100   21.5190 N   0  0  0  0  0  0  0  0  0  0  0  0
    6.5070   -5.3310   22.2980 C   0  0  0  0  0  0  0  0  0  0  0  0
    6.0350   -4.9880   23.6480 C   0  0  0  0  0  0  0  0  0  0  0  0
    6.6790   -3.8170   24.3020 C   0  0  0  0  0  0  0  0  0  0  0  0
    5.8440   -3.3140   25.4210 C   0  0  0  0  0  0  0  0  0  0  0  0
    4.7520   -2.7880   25.1290 O   0  0  0  0  0  0  0  0  0  0  0  0
    6.2500   -3.4100   26.7690 N   0  0  0  0  0  0  0  0  0  0  0  0
    6.7980   -4.6550   27.3580 C   0  0  0  0  0  0  0  0  0  0  0  0
    5.7680   -5.6630   27.7040 C   0  0  1  0  0  0  0  0  0  0  0  0
    5.4970   -5.8180   28.9280 O   0  0  0  0  0  0  0  0  0  0  0  0
    6.0770   -6.8400   29.4870 C   0  0  0  0  0  0  0  0  0  0  0  0
    4.4540   -5.7090   27.0580 C   0  0  0  0  0  0  0  0  0  0  0  0
    4.0150   -7.0220   26.9640 C   0  0  0  0  0  0  0  0  0  0  0  0
    2.6940   -7.0860   27.2520 C   0  0  0  0  0  0  0  0  0  0  0  0
    2.2850   -5.8420   27.5780 C   0  0  0  0  0  0  0  0  0  0  0  0
    3.3360   -4.9760   27.4970 C   0  0  0  0  0  0  0  0  0  0  0  0
    6.9270   -2.7050   23.3120 C   0  0  0  0  0  0  0  0  0  0  0  0
    7.7160   -3.2180   22.1790 C   0  0  0  0  0  0  0  0  0  0  0  0
  1  2  1  0
  2  3  2  0
  2  4  1  0
  4  5  1  0
  5  6  1  0
  6  7  1  0
  7  8  1  0
  8  9  2  0
  8 10  1  0
 10 11  1  0
 12 11  1  1
 12 13  1  0
 13 14  1  0
 12 15  1  0
 15 16  1  0
 16 17  1  0
 17 18  1  0
 15 19  1  0
 18 19  1  0
  7 20  1  0
  4 21  1  0
 20 21  1  0
M  END
