piperidine-amides-24797-covalent
     RDKit          3D

 25 27  0  0  0  0  0  0  0  0999 V2000
    7.1040   -3.3350   19.3140 C   0  0  0  0  0  0  0  0  0  0  0  0
    6.4240   -4.1720   20.3110 C   0  0  0  0  0  0  0  0  0  0  0  0
    5.4020   -4.8210   19.9850 O   0  0  0  0  0  0  0  0  0  0  0  0
    6.9400   -4.2900   21.6110 N   0  0  0  0  0  0  0  0  0  0  0  0
    6.4210   -5.3000   22.4980 C   0  0  0  0  0  0  0  0  0  0  0  0
    5.5360   -4.5630   23.5170 C   0  0  0  0  0  0  0  0  0  0  0  0
    6.4100   -3.5420   24.2350 C   0  0  0  0  0  0  0  0  0  0  0  0
    5.6290   -2.7250   25.1960 C   0  0  0  0  0  0  0  0  0  0  0  0
    4.5160   -2.2950   24.8390 O   0  0  0  0  0  0  0  0  0  0  0  0
    6.1470   -2.4970   26.5010 N   0  0  0  0  0  0  0  0  0  0  0  0
    6.0120   -3.5270   27.4080 C   0  0  0  0  0  0  0  0  0  0  0  0
    7.1740   -4.3330   27.0890 C   0  0  0  0  0  0  0  0  0  0  0  0
    8.1360   -4.2240   26.0920 C   0  0  0  0  0  0  0  0  0  0  0  0
    9.1500   -5.1280   25.9860 C   0  0  0  0  0  0  0  0  0  0  0  0
    9.2160   -6.1510   26.8790 C   0  0  0  0  0  0  0  0  0  0  0  0
    8.2820   -6.2400   27.8480 C   0  0  0  0  0  0  0  0  0  0  0  0
    7.3160   -5.4150   27.9780 N   0  0  0  0  0  0  0  0  0  0  0  0
    6.3160   -1.2060   27.1500 C   0  0  0  0  0  0  0  0  0  0  0  0
    5.5810   -0.0280   26.5200 C   0  0  0  0  0  0  0  0  0  0  0  0
    5.6160    1.4120   27.0760 C   0  0  0  0  0  0  0  0  0  0  0  0
    6.4910    0.9520   28.1550 C   0  0  0  0  0  0  0  0  0  0  0  0
    7.1990    0.0600   28.8420 N   0  0  0  0  0  0  0  0  0  0  0  0
    7.0960   -1.1300   28.2740 C   0  0  0  0  0  0  0  0  0  0  0  0
    6.9490   -2.5520   23.2110 C   0  0  0  0  0  0  0  0  0  0  0  0
    7.7810   -3.2620   22.1880 C   0  0  0  0  0  0  0  0  0  0  0  0
  1  2  1  0
  2  3  2  0
  2  4  1  0
  4  5  1  0
  5  6  1  0
  6  7  1  0
  7  8  1  0
  8  9  2  0
  8 10  1  0
 10 11  1  0
 11 12  1  0
 12 13  2  0
 13 14  1  0
 14 15  2  0
 15 16  1  0
 12 17  1  0
 16 17  2  0
 10 18  1  0
 18 19  2  0
 19 20  1  0
 20 21  2  0
 21 22  1  0
 18 23  1  0
 22 23  2  0
  7 24  1  0
  4 25  1  0
 24 25  1  0
M  END
