piperidine-amides-8925-covalent
     RDKit          3D

 22 23  0  0  0  0  0  0  0  0999 V2000
    7.0910   -3.2950   19.2700 C   0  0  0  0  0  0  0  0  0  0  0  0
    6.3900   -4.0950   20.2740 C   0  0  0  0  0  0  0  0  0  0  0  0
    5.3400   -4.6700   19.9310 O   0  0  0  0  0  0  0  0  0  0  0  0
    6.9240   -4.2510   21.5820 N   0  0  0  0  0  0  0  0  0  0  0  0
    7.7050   -3.2020   22.1830 C   0  0  0  0  0  0  0  0  0  0  0  0
    6.8680   -2.5120   23.2120 C   0  0  0  0  0  0  0  0  0  0  0  0
    5.9770   -3.5810   23.7990 C   0  0  0  0  0  0  0  0  0  0  0  0
    5.6890   -3.2670   25.2390 C   0  0  0  0  0  0  0  0  0  0  0  0
    4.5810   -2.7930   25.4790 O   0  0  0  0  0  0  0  0  0  0  0  0
    6.6700   -3.5240   26.1870 N   0  0  0  0  0  0  0  0  0  0  0  0
    6.3820   -4.1450   27.4380 C   0  0  0  0  0  0  0  0  0  0  0  0
    6.4190   -5.5470   27.4200 C   0  0  0  0  0  0  0  0  0  0  0  0
    5.2600   -6.2670   27.6320 C   0  0  0  0  0  0  0  0  0  0  0  0
    4.0540   -5.3310   26.8450 S   0  0  0  0  0  0  0  0  0  0  0  0
    3.2500   -6.5930   25.9440 C   0  0  0  0  0  0  0  0  0  0  0  0
    2.9220   -7.9600   26.3280 C   0  0  0  0  0  0  0  0  0  0  0  0
    2.2070   -8.8850   25.3270 C   0  0  0  0  0  0  0  0  0  0  0  0
    1.9070   -8.2490   23.9970 C   0  0  0  0  0  0  0  0  0  0  0  0
    2.3310   -6.7960   23.7920 C   0  0  0  0  0  0  0  0  0  0  0  0
    2.9610   -6.0260   24.7140 N   0  0  0  0  0  0  0  0  0  0  0  0
    6.4560   -4.9710   23.7190 C   0  0  0  0  0  0  0  0  0  0  0  0
    6.5990   -5.3860   22.4090 C   0  0  0  0  0  0  0  0  0  0  0  0
  1  2  1  0
  2  3  2  0
  2  4  1  0
  4  5  1  0
  5  6  1  0
  6  7  1  0
  7  8  1  0
  8  9  2  0
  8 10  1  0
 10 11  1  0
 11 12  1  0
 12 13  1  0
 13 14  1  0
 14 15  1  0
 15 16  2  0
 16 17  1  0
 17 18  2  0
 18 19  1  0
 15 20  1  0
 19 20  2  0
  7 21  1  0
  4 22  1  0
 21 22  1  0
M  END
