piperidine-amides-8682-covalent
     RDKit          3D

 23 24  0  0  0  0  0  0  0  0999 V2000
    7.0490   -3.2900   19.3080 C   0  0  0  0  0  0  0  0  0  0  0  0
    6.3450   -4.0830   20.3220 C   0  0  0  0  0  0  0  0  0  0  0  0
    5.3670   -4.7560   19.9520 O   0  0  0  0  0  0  0  0  0  0  0  0
    6.7800   -4.1040   21.6780 N   0  0  0  0  0  0  0  0  0  0  0  0
    7.7010   -3.1020   22.1420 C   0  0  0  0  0  0  0  0  0  0  0  0
    7.5330   -2.9920   23.6160 C   0  0  0  0  0  0  0  0  0  0  0  0
    6.1380   -3.5070   23.8460 C   0  0  0  0  0  0  0  0  0  0  0  0
    5.6630   -3.2030   25.2390 C   0  0  0  0  0  0  0  0  0  0  0  0
    4.4560   -3.0300   25.3730 O   0  0  0  0  0  0  0  0  0  0  0  0
    6.6010   -3.1190   26.2630 N   0  0  0  0  0  0  0  0  0  0  0  0
    6.3000   -3.4600   27.6190 C   0  0  0  0  0  0  0  0  0  0  0  0
    5.9670   -4.8000   27.8740 C   0  0  1  0  0  0  0  0  0  0  0  0
    6.7630   -5.4910   28.7560 C   0  0  0  0  0  0  0  0  0  0  0  0
    4.8450   -4.9390   28.4010 O   0  0  0  0  0  0  0  0  0  0  0  0
    4.0880   -5.8790   27.8410 C   0  0  0  0  0  0  0  0  0  0  0  0
    3.3650   -6.7960   28.7430 C   0  0  0  0  0  0  0  0  0  0  0  0
    2.4450   -7.9260   28.2610 C   0  0  0  0  0  0  0  0  0  0  0  0
    2.2840   -8.0920   26.7850 C   0  0  0  0  0  0  0  0  0  0  0  0
    3.0270   -7.1500   25.8530 C   0  0  0  0  0  0  0  0  0  0  0  0
    2.7970   -7.3750   23.9610 Br  0  0  0  0  0  0  0  0  0  0  0  0
    3.9290   -6.0480   26.4810 C   0  0  0  0  0  0  0  0  0  0  0  0
    6.0900   -5.0140   23.6640 C   0  0  0  0  0  0  0  0  0  0  0  0
    6.6790   -5.3310   22.4410 C   0  0  0  0  0  0  0  0  0  0  0  0
  1  2  1  0
  2  3  2  0
  2  4  1  0
  4  5  1  0
  5  6  1  0
  6  7  1  0
  7  8  1  0
  8  9  2  0
  8 10  1  0
 10 11  1  0
 11 12  1  0
 12 13  1  1
 12 14  1  0
 14 15  1  0
 15 16  2  0
 16 17  1  0
 17 18  2  0
 18 19  1  0
 19 20  1  0
 15 21  1  0
 19 21  2  0
  7 22  1  0
  4 23  1  0
 22 23  1  0
M  END
