piperidine-amides-10436-covalent
     RDKit          3D

 24 26  0  0  0  0  0  0  0  0999 V2000
    7.1760   -3.2530   19.1450 C   0  0  0  0  0  0  0  0  0  0  0  0
    6.4030   -3.9840   20.1490 C   0  0  0  0  0  0  0  0  0  0  0  0
    5.2650   -4.4080   19.8210 O   0  0  0  0  0  0  0  0  0  0  0  0
    6.9690   -4.2380   21.3910 N   0  0  0  0  0  0  0  0  0  0  0  0
    7.7750   -3.2370   22.0470 C   0  0  0  0  0  0  0  0  0  0  0  0
    7.0090   -2.7440   23.2210 C   0  0  0  0  0  0  0  0  0  0  0  0
    6.5640   -3.8970   24.0650 C   0  0  0  0  0  0  0  0  0  0  0  0
    5.7620   -3.3600   25.1510 C   0  0  0  0  0  0  0  0  0  0  0  0
    4.5630   -3.0780   24.9460 O   0  0  0  0  0  0  0  0  0  0  0  0
    6.3040   -3.1700   26.4050 N   0  0  0  0  0  0  0  0  0  0  0  0
    5.9490   -4.0710   27.4400 C   0  0  0  0  0  0  0  0  0  0  0  0
    6.3660   -3.5080   28.7600 C   0  0  0  0  0  0  0  0  0  0  0  0
    6.2040   -2.1770   29.1130 C   0  0  1  0  0  0  0  0  0  0  0  0
    6.5700   -1.1030   28.3300 C   0  0  0  0  0  0  0  0  0  0  0  0
    5.9940    0.1330   28.6170 C   0  0  0  0  0  0  0  0  0  0  0  0
    4.8350    0.1200   29.3650 O   0  0  0  0  0  0  0  0  0  0  0  0
    4.0040   -1.0260   29.4040 C   0  0  0  0  0  0  0  0  0  0  0  0
    2.6040   -1.0290   29.5570 C   0  0  0  0  0  0  0  0  0  0  0  0
    1.6200   -2.1870   29.6140 C   0  0  0  0  0  0  0  0  0  0  0  0
    2.3270   -3.5070   29.4780 C   0  0  0  0  0  0  0  0  0  0  0  0
    3.7980   -3.5900   29.3120 C   0  0  0  0  0  0  0  0  0  0  0  0
    4.7130   -2.3840   29.2650 C   0  0  0  0  0  0  0  0  0  0  0  0
    5.7980   -4.9420   23.3480 C   0  0  0  0  0  0  0  0  0  0  0  0
    6.5270   -5.3950   22.1100 C   0  0  0  0  0  0  0  0  0  0  0  0
  1  2  1  0
  2  3  2  0
  2  4  1  0
  4  5  1  0
  5  6  1  0
  6  7  1  0
  7  8  1  0
  8  9  2  0
  8 10  1  0
 10 11  1  0
 11 12  1  0
 13 12  1  6
 13 14  1  0
 14 15  1  0
 15 16  1  0
 16 17  1  0
 17 18  2  0
 18 19  1  0
 19 20  2  0
 20 21  1  0
 13 22  1  0
 17 22  1  0
 21 22  2  0
  7 23  1  0
  4 24  1  0
 23 24  1  0
M  END
