piperidine-amides-6989-covalent
     RDKit          3D

 23 25  0  0  0  0  0  0  0  0999 V2000
    7.1150   -3.3560   19.3150 C   0  0  0  0  0  0  0  0  0  0  0  0
    6.3860   -4.1670   20.2950 C   0  0  0  0  0  0  0  0  0  0  0  0
    5.3380   -4.7620   19.9630 O   0  0  0  0  0  0  0  0  0  0  0  0
    6.8970   -4.3280   21.5870 N   0  0  0  0  0  0  0  0  0  0  0  0
    7.7410   -3.3040   22.1610 C   0  0  0  0  0  0  0  0  0  0  0  0
    6.9210   -2.6710   23.2700 C   0  0  0  0  0  0  0  0  0  0  0  0
    6.6950   -3.7780   24.2610 C   0  0  0  0  0  0  0  0  0  0  0  0
    5.9760   -3.2470   25.4280 C   0  0  0  0  0  0  0  0  0  0  0  0
    4.7700   -3.5500   25.5860 O   0  0  0  0  0  0  0  0  0  0  0  0
    6.6640   -2.3910   26.3220 N   0  0  0  0  0  0  0  0  0  0  0  0
    5.9390   -1.3400   26.9720 C   0  0  1  0  0  0  0  0  0  0  0  0
    6.5580   -1.0580   28.2870 C   0  0  0  0  0  0  0  0  0  0  0  0
    7.1500   -1.6580   29.3460 C   0  0  0  0  0  0  0  0  0  0  0  0
    7.5910   -0.8730   30.4480 C   0  0  0  0  0  0  0  0  0  0  0  0
    7.4720    0.5270   30.5590 C   0  0  0  0  0  0  0  0  0  0  0  0
    6.9010    1.1960   29.5550 C   0  0  0  0  0  0  0  0  0  0  0  0
    6.4660    0.3490   28.4450 C   0  0  0  0  0  0  0  0  0  0  0  0
    5.9300    1.4370   27.6240 C   0  0  0  0  0  0  0  0  0  0  0  0
    4.7520    0.8240   26.8770 C   0  0  0  0  0  0  0  0  0  0  0  0
    5.8720   -0.0500   26.3860 C   0  0  2  0  0  0  0  0  0  0  0  0
    5.6810   -0.1230   25.0020 C   0  0  0  0  0  0  0  0  0  0  0  0
    5.8110   -4.8530   23.6240 C   0  0  0  0  0  0  0  0  0  0  0  0
    6.4960   -5.4400   22.4150 C   0  0  0  0  0  0  0  0  0  0  0  0
  1  2  1  0
  2  3  2  0
  2  4  1  0
  4  5  1  0
  5  6  1  0
  6  7  1  0
  7  8  1  0
  8  9  2  0
  8 10  1  0
 11 10  1  6
 11 12  1  0
 12 13  2  0
 13 14  1  0
 14 15  2  0
 15 16  1  0
 12 17  1  0
 16 17  2  0
 17 18  1  0
 18 19  1  0
 11 20  1  0
 19 20  1  0
 20 21  1  6
  7 22  1  0
  4 23  1  0
 22 23  1  0
M  END
