piperidine-amides-9834-covalent
     RDKit          3D

 27 29  0  0  0  0  0  0  0  0999 V2000
    7.0690   -3.2840   19.2600 C   0  0  0  0  0  0  0  0  0  0  0  0
    6.3690   -4.0580   20.2950 C   0  0  0  0  0  0  0  0  0  0  0  0
    5.3250   -4.6600   19.9260 O   0  0  0  0  0  0  0  0  0  0  0  0
    6.8690   -4.1470   21.6010 N   0  0  0  0  0  0  0  0  0  0  0  0
    7.7370   -3.1210   22.1510 C   0  0  0  0  0  0  0  0  0  0  0  0
    7.4230   -2.9720   23.6080 C   0  0  0  0  0  0  0  0  0  0  0  0
    6.0790   -3.5600   23.9070 C   0  0  0  0  0  0  0  0  0  0  0  0
    5.6300   -3.1980   25.2710 C   0  0  0  0  0  0  0  0  0  0  0  0
    4.4110   -2.9800   25.4300 O   0  0  0  0  0  0  0  0  0  0  0  0
    6.4790   -3.0820   26.3900 N   0  0  0  0  0  0  0  0  0  0  0  0
    6.1300   -3.7050   27.6520 C   0  0  0  0  0  0  0  0  0  0  0  0
    5.9030   -2.6950   28.7690 C   0  0  0  0  0  0  0  0  0  0  0  0
    6.7960   -1.6780   29.0580 C   0  0  0  0  0  0  0  0  0  0  0  0
    6.6000   -0.7580   30.0620 C   0  0  0  0  0  0  0  0  0  0  0  0
    5.4530   -0.8580   30.8170 C   0  0  0  0  0  0  0  0  0  0  0  0
    4.5520   -1.8590   30.5510 C   0  0  0  0  0  0  0  0  0  0  0  0
    4.7540   -2.7790   29.5440 C   0  0  0  0  0  0  0  0  0  0  0  0
    3.7100   -3.8520   29.3150 C   0  0  0  0  0  0  0  0  0  0  0  0
    3.9680   -5.2220   29.6580 N   0  0  0  0  0  0  0  0  0  0  0  0
    5.2470   -5.8340   29.4290 C   0  0  0  0  0  0  0  0  0  0  0  0
    5.2770   -6.9520   30.4200 C   0  0  0  0  0  0  0  0  0  0  0  0
    4.0370   -6.8500   31.2490 C   0  0  0  0  0  0  0  0  0  0  0  0
    3.2600   -5.8130   30.7740 C   0  0  2  0  0  0  0  0  0  0  0  0
    1.9350   -6.3340   30.2450 C   0  0  0  0  0  0  0  0  0  0  0  0
    1.1340   -6.3160   31.2180 O   0  0  0  0  0  0  0  0  0  0  0  0
    6.1180   -5.0510   23.7360 C   0  0  0  0  0  0  0  0  0  0  0  0
    6.6560   -5.3860   22.3340 C   0  0  0  0  0  0  0  0  0  0  0  0
  1  2  1  0
  2  3  2  0
  2  4  1  0
  4  5  1  0
  5  6  1  0
  6  7  1  0
  7  8  1  0
  8  9  2  0
  8 10  1  0
 10 11  1  0
 11 12  1  0
 12 13  2  0
 13 14  1  0
 14 15  2  0
 15 16  1  0
 12 17  1  0
 16 17  2  0
 17 18  1  0
 18 19  1  0
 19 20  1  0
 20 21  1  0
 21 22  1  0
 19 23  1  0
 22 23  1  0
 23 24  1  6
 24 25  1  0
  7 26  1  0
  4 27  1  0
 26 27  1  0
M  END
