piperidine-amides-3971-covalent
     RDKit          3D

 30 33  0  0  0  0  0  0  0  0999 V2000
    7.1170   -3.2930   19.2000 C   0  0  0  0  0  0  0  0  0  0  0  0
    6.3870   -4.0530   20.2290 C   0  0  0  0  0  0  0  0  0  0  0  0
    5.2890   -4.5540   19.8880 O   0  0  0  0  0  0  0  0  0  0  0  0
    6.9350   -4.2600   21.5160 N   0  0  0  0  0  0  0  0  0  0  0  0
    6.4970   -5.3910   22.2610 C   0  0  0  0  0  0  0  0  0  0  0  0
    5.8710   -5.0200   23.5210 C   0  0  0  0  0  0  0  0  0  0  0  0
    5.9170   -3.5650   23.7700 C   0  0  0  0  0  0  0  0  0  0  0  0
    5.4230   -3.1600   25.1210 C   0  0  0  0  0  0  0  0  0  0  0  0
    4.4760   -3.7800   25.6350 O   0  0  0  0  0  0  0  0  0  0  0  0
    5.9840   -2.0700   25.8060 N   0  0  0  0  0  0  0  0  0  0  0  0
    7.0030   -2.0650   26.7670 C   0  0  1  0  0  0  0  0  0  0  0  0
    6.7870   -1.4280   28.0590 C   0  0  0  0  0  0  0  0  0  0  0  0
    5.4290   -0.7840   28.1410 C   0  0  0  0  0  0  0  0  0  0  0  0
    4.9720   -0.1290   29.2380 C   0  0  0  0  0  0  0  0  0  0  0  0
    5.8740   -0.0210   30.4900 C   0  0  0  0  0  0  0  0  0  0  0  0
    5.3140    0.8140   31.9280 Cl  0  0  0  0  0  0  0  0  0  0  0  0
    7.2490   -0.6780   30.3890 C   0  0  0  0  0  0  0  0  0  0  0  0
    7.7610   -1.4230   29.1320 C   0  0  0  0  0  0  0  0  0  0  0  0
    7.3570   -3.4580   26.9960 C   0  0  0  0  0  0  0  0  0  0  0  0
    8.4820   -3.9000   26.0930 C   0  0  0  0  0  0  0  0  0  0  0  0
    9.0060   -5.3180   26.2240 C   0  0  0  0  0  0  0  0  0  0  0  0
    8.2550   -6.0290   27.2700 C   0  0  0  0  0  0  0  0  0  0  0  0
    7.2020   -5.5800   28.0720 C   0  0  0  0  0  0  0  0  0  0  0  0
    6.6170   -6.4430   29.0070 C   0  0  0  0  0  0  0  0  0  0  0  0
    5.4650   -6.0000   29.8920 C   0  0  0  0  0  0  0  0  0  0  0  0
    4.9850   -4.7160   29.7780 C   0  0  0  0  0  0  0  0  0  0  0  0
    5.6290   -3.8050   28.7810 C   0  0  0  0  0  0  0  0  0  0  0  0
    6.7640   -4.2600   27.9080 C   0  0  0  0  0  0  0  0  0  0  0  0
    7.3560   -3.0850   23.6130 C   0  0  0  0  0  0  0  0  0  0  0  0
    7.6620   -3.1410   22.1160 C   0  0  0  0  0  0  0  0  0  0  0  0
  1  2  1  0
  2  3  2  0
  2  4  1  0
  4  5  1  0
  5  6  1  0
  6  7  1  0
  7  8  1  0
  8  9  2  0
  8 10  1  0
 11 10  1  6
 11 12  1  0
 12 13  2  0
 13 14  1  0
 14 15  2  0
 15 16  1  0
 15 17  1  0
 12 18  1  0
 17 18  2  0
 11 19  1  0
 19 20  2  0
 20 21  1  0
 21 22  2  0
 22 23  1  0
 23 24  1  0
 24 25  2  0
 25 26  1  0
 26 27  2  0
 19 28  1  0
 23 28  2  0
 27 28  1  0
  7 29  1  0
  4 30  1  0
 29 30  1  0
M  END
