piperidine-amides-11493-covalent
     RDKit          3D

 25 26  0  0  0  0  0  0  0  0999 V2000
    7.1210   -3.2970   19.2480 C   0  0  0  0  0  0  0  0  0  0  0  0
    6.3450   -4.0180   20.2570 C   0  0  0  0  0  0  0  0  0  0  0  0
    5.3000   -4.5900   19.9090 O   0  0  0  0  0  0  0  0  0  0  0  0
    6.7980   -4.1160   21.5840 N   0  0  0  0  0  0  0  0  0  0  0  0
    7.7640   -3.1740   22.1270 C   0  0  0  0  0  0  0  0  0  0  0  0
    7.4200   -2.9590   23.5760 C   0  0  0  0  0  0  0  0  0  0  0  0
    6.1020   -3.5750   23.9120 C   0  0  0  0  0  0  0  0  0  0  0  0
    5.6770   -3.3460   25.3120 C   0  0  0  0  0  0  0  0  0  0  0  0
    4.4840   -3.5900   25.6530 O   0  0  0  0  0  0  0  0  0  0  0  0
    6.5290   -2.8500   26.3210 N   0  0  0  0  0  0  0  0  0  0  0  0
    6.6760   -1.3950   26.5330 C   0  0  0  0  0  0  0  0  0  0  0  0
    5.6850   -0.9840   27.5480 C   0  0  1  0  0  0  0  0  0  0  0  0
    6.3070   -0.7650   28.8750 C   0  0  0  0  0  0  0  0  0  0  0  0
    6.5330    0.6190   29.3070 N   0  0  0  0  0  0  0  0  0  0  0  0
    6.8460    0.4430   30.7510 C   0  0  0  0  0  0  0  0  0  0  0  0
    8.1870   -0.1080   31.1640 C   0  0  0  0  0  0  0  0  0  0  0  0
    5.7130   -0.0920   31.6430 C   0  0  0  0  0  0  0  0  0  0  0  0
    7.2910    1.7900   31.2950 C   0  0  0  0  0  0  0  0  0  0  0  0
    5.3770    1.4500   29.0560 C   0  0  0  0  0  0  0  0  0  0  0  0
    5.2120    2.6150   29.8100 O   0  0  0  0  0  0  0  0  0  0  0  0
    4.5230    1.0590   28.1090 N   0  0  0  0  0  0  0  0  0  0  0  0
    4.7770    0.0060   27.1960 C   0  0  0  0  0  0  0  0  0  0  0  0
    4.2220   -0.0910   26.0760 O   0  0  0  0  0  0  0  0  0  0  0  0
    6.0160   -5.0500   23.6270 C   0  0  0  0  0  0  0  0  0  0  0  0
    6.6400   -5.3700   22.2940 C   0  0  0  0  0  0  0  0  0  0  0  0
  1  2  1  0
  2  3  2  0
  2  4  1  0
  4  5  1  0
  5  6  1  0
  6  7  1  0
  7  8  1  0
  8  9  2  0
  8 10  1  0
 10 11  1  0
 12 11  1  6
 12 13  1  0
 13 14  1  0
 14 15  1  0
 15 16  1  0
 15 17  1  0
 15 18  1  0
 14 19  1  0
 19 20  2  0
 19 21  1  0
 12 22  1  0
 21 22  1  0
 22 23  2  0
  7 24  1  0
  4 25  1  0
 24 25  1  0
M  END
