piperidine-amides-2763-covalent
     RDKit          3D

 24 26  0  0  0  0  0  0  0  0999 V2000
    7.0050   -3.3180   19.3180 C   0  0  0  0  0  0  0  0  0  0  0  0
    6.2750   -4.1630   20.2570 C   0  0  0  0  0  0  0  0  0  0  0  0
    5.2600   -4.7520   19.9220 O   0  0  0  0  0  0  0  0  0  0  0  0
    6.7550   -4.3290   21.5860 N   0  0  0  0  0  0  0  0  0  0  0  0
    7.0230   -3.1190   22.2650 C   0  0  0  0  0  0  0  0  0  0  0  0
    5.7170   -2.6790   22.8600 C   0  0  0  0  0  0  0  0  0  0  0  0
    5.2740   -3.6650   23.9350 C   0  0  0  0  0  0  0  0  0  0  0  0
    5.7330   -3.1430   25.2510 C   0  0  0  0  0  0  0  0  0  0  0  0
    4.9790   -2.9500   26.2270 O   0  0  0  0  0  0  0  0  0  0  0  0
    7.1050   -2.8820   25.3020 N   0  0  0  0  0  0  0  0  0  0  0  0
    7.6950   -3.4560   24.1310 C   0  0  0  0  0  0  0  0  0  0  0  0
    9.0890   -3.0320   23.7920 C   0  0  0  0  0  0  0  0  0  0  0  0
    9.5030   -1.7500   23.5270 C   0  0  0  0  0  0  0  0  0  0  0  0
    8.7570   -0.5590   23.3730 C   0  0  0  0  0  0  0  0  0  0  0  0
    7.3890   -0.4970   23.4860 C   0  0  0  0  0  0  0  0  0  0  0  0
    9.6060    0.5210   23.0900 O   0  0  0  0  0  0  0  0  0  0  0  0
   10.8380   -0.0610   23.0880 C   0  0  0  0  0  0  0  0  0  0  0  0
   11.9890    0.6550   22.8460 C   0  0  0  0  0  0  0  0  0  0  0  0
   13.1810   -0.0220   22.8640 C   0  0  0  0  0  0  0  0  0  0  0  0
   13.2370   -1.3790   23.1160 C   0  0  0  0  0  0  0  0  0  0  0  0
   12.0090   -2.0810   23.3640 C   0  0  0  0  0  0  0  0  0  0  0  0
   10.8140   -1.4140   23.3470 C   0  0  0  0  0  0  0  0  0  0  0  0
    5.7950   -5.0810   23.7220 C   0  0  0  0  0  0  0  0  0  0  0  0
    6.2180   -5.4220   22.3150 C   0  0  0  0  0  0  0  0  0  0  0  0
  1  2  1  0
  2  3  2  0
  2  4  1  0
  4  5  1  0
  5  6  1  0
  6  7  1  0
  7  8  1  0
  8  9  2  0
  8 10  1  0
 10 11  1  0
 11 12  1  0
 12 13  1  0
 13 14  2  0
 14 15  1  0
 14 16  1  0
 16 17  1  0
 17 18  1  0
 18 19  2  0
 19 20  1  0
 20 21  2  0
 13 22  1  0
 17 22  2  0
 21 22  1  0
  7 23  1  0
  4 24  1  0
 23 24  1  0
M  END
