piperidine-amides-8725-covalent
     RDKit          3D

 23 24  0  0  0  0  0  0  0  0999 V2000
    6.9960   -3.3140   19.3140 C   0  0  0  0  0  0  0  0  0  0  0  0
    6.3190   -4.1240   20.3320 C   0  0  0  0  0  0  0  0  0  0  0  0
    5.3570   -4.8190   19.9670 O   0  0  0  0  0  0  0  0  0  0  0  0
    6.7580   -4.1440   21.6890 N   0  0  0  0  0  0  0  0  0  0  0  0
    7.6610   -3.1310   22.1620 C   0  0  0  0  0  0  0  0  0  0  0  0
    7.4580   -2.9870   23.6330 C   0  0  0  0  0  0  0  0  0  0  0  0
    6.0760   -3.5420   23.8610 C   0  0  0  0  0  0  0  0  0  0  0  0
    5.5750   -3.2380   25.2490 C   0  0  0  0  0  0  0  0  0  0  0  0
    4.4380   -2.7900   25.3150 O   0  0  0  0  0  0  0  0  0  0  0  0
    6.4090   -3.4670   26.3380 N   0  0  0  0  0  0  0  0  0  0  0  0
    5.9580   -3.5060   27.6980 C   0  0  2  0  0  0  0  0  0  0  0  0
    6.4610   -4.4970   28.5670 C   0  0  0  0  0  0  0  0  0  0  0  0
    6.3270   -5.8230   28.2230 C   0  0  0  0  0  0  0  0  0  0  0  0
    4.4720   -3.7270   27.6610 C   0  0  0  0  0  0  0  0  0  0  0  0
    3.9930   -4.8410   26.8060 C   0  0  0  0  0  0  0  0  0  0  0  0
    2.5010   -5.2140   26.6510 C   0  0  0  0  0  0  0  0  0  0  0  0
    2.1970   -6.2720   25.8240 F   0  0  0  0  0  0  0  0  0  0  0  0
    1.4730   -4.4290   27.3910 C   0  0  0  0  0  0  0  0  0  0  0  0
    2.0090   -3.3040   28.2500 C   0  0  0  0  0  0  0  0  0  0  0  0
    3.5270   -2.9840   28.3580 C   0  0  0  0  0  0  0  0  0  0  0  0
    3.8150   -1.9080   29.2030 F   0  0  0  0  0  0  0  0  0  0  0  0
    6.0960   -5.0460   23.6920 C   0  0  0  0  0  0  0  0  0  0  0  0
    6.6470   -5.3690   22.4530 C   0  0  0  0  0  0  0  0  0  0  0  0
  1  2  1  0
  2  3  2  0
  2  4  1  0
  4  5  1  0
  5  6  1  0
  6  7  1  0
  7  8  1  0
  8  9  2  0
  8 10  1  0
 10 11  1  0
 11 12  1  1
 12 13  1  0
 11 14  1  0
 14 15  2  0
 15 16  1  0
 16 17  1  0
 16 18  2  0
 18 19  1  0
 14 20  1  0
 19 20  2  0
 20 21  1  0
  7 22  1  0
  4 23  1  0
 22 23  1  0
M  END
