piperidine-amides-34888-covalent
     RDKit          3D

 32 35  0  0  0  0  0  0  0  0999 V2000
    7.0800   -3.3630   19.3660 C   0  0  0  0  0  0  0  0  0  0  0  0
    6.3960   -4.2170   20.3700 C   0  0  0  0  0  0  0  0  0  0  0  0
    5.4030   -4.8390   19.9850 O   0  0  0  0  0  0  0  0  0  0  0  0
    6.9070   -4.3280   21.6720 N   0  0  0  0  0  0  0  0  0  0  0  0
    6.7540   -5.5560   22.4250 C   0  0  0  0  0  0  0  0  0  0  0  0
    6.1570   -5.2380   23.7670 C   0  0  0  0  0  0  0  0  0  0  0  0
    6.2290   -3.7290   23.9320 C   0  0  0  0  0  0  0  0  0  0  0  0
    5.6420   -3.3030   25.2180 C   0  0  0  0  0  0  0  0  0  0  0  0
    4.7160   -2.4900   25.1900 O   0  0  0  0  0  0  0  0  0  0  0  0
    6.0610   -3.7750   26.4670 N   0  0  0  0  0  0  0  0  0  0  0  0
    6.4980   -2.7530   27.3680 C   0  0  0  0  0  0  0  0  0  0  0  0
    6.7070   -3.4240   28.7000 C   0  0  0  0  0  0  0  0  0  0  0  0
    5.7730   -4.2740   29.1410 C   0  0  0  0  0  0  0  0  0  0  0  0
    4.5910   -3.6240   29.4240 C   0  0  2  0  0  0  0  0  0  0  0  0
    4.8260   -2.4060   29.9530 C   0  0  0  0  0  0  0  0  0  0  0  0
    3.9090   -2.0180   31.1370 C   0  0  0  0  0  0  0  0  0  0  0  0
    3.3830   -3.4190   31.4890 C   0  0  0  0  0  0  0  0  0  0  0  0
    3.7270   -4.2370   30.3430 N   0  0  0  0  0  0  0  0  0  0  0  0
    2.4510   -4.6470   29.8030 C   0  0  0  0  0  0  0  0  0  0  0  0
    2.1700   -4.3700   28.4760 O   0  0  0  0  0  0  0  0  0  0  0  0
    1.3930   -5.3490   30.5900 C   0  0  0  0  0  0  0  0  0  0  0  0
    0.0490   -4.7050   30.4670 C   0  0  0  0  0  0  0  0  0  0  0  0
   -0.9740   -4.9050   29.3610 C   0  0  0  0  0  0  0  0  0  0  0  0
   -2.2640   -4.1520   29.4430 C   0  0  0  0  0  0  0  0  0  0  0  0
   -2.4750   -3.2300   30.6270 C   0  0  0  0  0  0  0  0  0  0  0  0
   -1.5330   -3.0630   31.6200 C   0  0  0  0  0  0  0  0  0  0  0  0
   -1.7370   -2.2400   32.6680 F   0  0  0  0  0  0  0  0  0  0  0  0
   -0.2510   -3.8440   31.4930 C   0  0  0  0  0  0  0  0  0  0  0  0
    5.6360   -5.3390   28.3290 C   0  0  0  0  0  0  0  0  0  0  0  0
    5.1550   -4.7800   26.9930 C   0  0  0  0  0  0  0  0  0  0  0  0
    7.5600   -3.1080   23.6600 C   0  0  0  0  0  0  0  0  0  0  0  0
    7.7550   -3.2320   22.1460 C   0  0  0  0  0  0  0  0  0  0  0  0
  1  2  1  0
  2  3  2  0
  2  4  1  0
  4  5  1  0
  5  6  1  0
  6  7  1  0
  7  8  1  0
  8  9  2  0
  8 10  1  0
 10 11  1  0
 11 12  1  0
 12 13  1  0
 14 13  1  1
 14 15  1  0
 15 16  1  0
 16 17  1  0
 14 18  1  0
 17 18  1  0
 18 19  1  0
 19 20  2  0
 19 21  1  0
 21 22  1  0
 22 23  2  0
 23 24  1  0
 24 25  2  0
 25 26  1  0
 26 27  1  0
 22 28  1  0
 26 28  2  0
 13 29  1  0
 10 30  1  0
 29 30  1  0
  7 31  1  0
  4 32  1  0
 31 32  1  0
M  END
