piperidine-amides-27991-covalent
     RDKit          3D

 26 28  0  0  0  0  0  0  0  0999 V2000
    7.0700   -3.3520   19.3360 C   0  0  0  0  0  0  0  0  0  0  0  0
    6.4370   -4.1980   20.3690 C   0  0  0  0  0  0  0  0  0  0  0  0
    5.4260   -4.8380   19.9960 O   0  0  0  0  0  0  0  0  0  0  0  0
    6.9870   -4.3130   21.6680 N   0  0  0  0  0  0  0  0  0  0  0  0
    6.7490   -5.4910   22.4450 C   0  0  0  0  0  0  0  0  0  0  0  0
    6.2350   -5.1890   23.7770 C   0  0  0  0  0  0  0  0  0  0  0  0
    6.0780   -3.7420   23.9850 C   0  0  0  0  0  0  0  0  0  0  0  0
    5.1270   -3.4730   25.1040 C   0  0  0  0  0  0  0  0  0  0  0  0
    3.9640   -3.8270   24.8670 O   0  0  0  0  0  0  0  0  0  0  0  0
    5.3300   -2.8800   26.3720 N   0  0  0  0  0  0  0  0  0  0  0  0
    4.2060   -3.0030   27.2550 C   0  0  0  0  0  0  0  0  0  0  0  0
    4.4660   -4.2510   27.9610 C   0  0  0  0  0  0  0  0  0  0  0  0
    5.4470   -4.1530   28.9800 C   0  0  0  0  0  0  0  0  0  0  0  0
    5.2740   -3.0700   29.8040 C   0  0  0  0  0  0  0  0  0  0  0  0
    6.2710   -2.3400   29.9440 O   0  0  0  0  0  0  0  0  0  0  0  0
    5.2750   -5.5060   29.7140 C   0  0  0  0  0  0  0  0  0  0  0  0
    4.2360   -6.2350   29.2320 C   0  0  0  0  0  0  0  0  0  0  0  0
    4.3820   -6.8630   28.0260 C   0  0  0  0  0  0  0  0  0  0  0  0
    3.3800   -7.6040   27.4740 C   0  0  0  0  0  0  0  0  0  0  0  0
    2.1620   -7.7430   28.1410 C   0  0  0  0  0  0  0  0  0  0  0  0
    1.8960   -7.1120   29.4520 C   0  0  0  0  0  0  0  0  0  0  0  0
    3.0760   -6.3190   29.9580 C   0  0  0  0  0  0  0  0  0  0  0  0
    6.4820   -4.1830   28.0390 C   0  0  0  0  0  0  0  0  0  0  0  0
    6.5300   -3.0820   27.0850 C   0  0  0  0  0  0  0  0  0  0  0  0
    7.2960   -2.9940   23.7190 C   0  0  0  0  0  0  0  0  0  0  0  0
    7.7750   -3.2340   22.3120 C   0  0  0  0  0  0  0  0  0  0  0  0
  1  2  1  0
  2  3  2  0
  2  4  1  0
  4  5  1  0
  5  6  1  0
  6  7  1  0
  7  8  1  0
  8  9  2  0
  8 10  1  0
 10 11  1  0
 11 12  1  0
 12 13  1  0
 13 14  1  0
 14 15  1  0
 13 16  1  0
 16 17  1  0
 17 18  2  0
 18 19  1  0
 19 20  2  0
 20 21  1  0
 17 22  1  0
 21 22  2  0
 13 23  1  0
 10 24  1  0
 23 24  1  0
  7 25  1  0
  4 26  1  0
 25 26  1  0
M  END
