piperidine-amides-12770-covalent
     RDKit          3D

 22 23  0  0  0  0  0  0  0  0999 V2000
    7.1440   -3.3100   19.2420 C   0  0  0  0  0  0  0  0  0  0  0  0
    6.3650   -4.0700   20.2380 C   0  0  0  0  0  0  0  0  0  0  0  0
    5.2700   -4.5360   19.8730 O   0  0  0  0  0  0  0  0  0  0  0  0
    6.8890   -4.3000   21.5070 N   0  0  0  0  0  0  0  0  0  0  0  0
    7.6540   -3.2650   22.1230 C   0  0  0  0  0  0  0  0  0  0  0  0
    7.2390   -2.9140   23.4700 C   0  0  0  0  0  0  0  0  0  0  0  0
    6.4210   -3.9180   24.1820 C   0  0  0  0  0  0  0  0  0  0  0  0
    5.6640   -3.2460   25.2470 C   0  0  0  0  0  0  0  0  0  0  0  0
    4.4530   -3.0040   25.0890 O   0  0  0  0  0  0  0  0  0  0  0  0
    6.3330   -2.9080   26.4180 N   0  0  0  0  0  0  0  0  0  0  0  0
    6.2950   -1.6030   27.0980 C   0  0  0  0  0  0  0  0  0  0  0  0
    6.2580   -0.3270   26.3530 C   0  0  0  0  0  0  0  0  0  0  0  0
    6.2320    0.9380   27.0770 C   0  0  0  0  0  0  0  0  0  0  0  0
    6.2490    0.8770   28.4600 C   0  0  0  0  0  0  0  0  0  0  0  0
    6.2270    2.1620   29.0380 N   0  0  0  0  0  0  0  0  0  0  0  0
    5.3140    2.4130   30.1360 C   0  0  0  0  0  0  0  0  0  0  0  0
    6.6400    3.0990   28.1550 C   0  0  0  0  0  0  0  0  0  0  0  0
    6.2790   -0.3470   29.0990 C   0  0  0  0  0  0  0  0  0  0  0  0
    6.2930   -1.5580   28.4690 C   0  0  0  0  0  0  0  0  0  0  0  0
    6.2900   -3.1110   29.2280 Cl  0  0  0  0  0  0  0  0  0  0  0  0
    5.5470   -4.7390   23.2760 C   0  0  0  0  0  0  0  0  0  0  0  0
    6.4610   -5.4010   22.3300 C   0  0  0  0  0  0  0  0  0  0  0  0
  1  2  1  0
  2  3  2  0
  2  4  1  0
  4  5  1  0
  5  6  1  0
  6  7  1  0
  7  8  1  0
  8  9  2  0
  8 10  1  0
 10 11  1  0
 11 12  2  0
 12 13  1  0
 13 14  2  0
 14 15  1  0
 15 16  1  0
 15 17  1  0
 14 18  1  0
 11 19  1  0
 18 19  2  0
 19 20  1  0
  7 21  1  0
  4 22  1  0
 21 22  1  0
M  END
