piperidine-amides-27249-covalent
     RDKit          3D

 26 29  0  0  0  0  0  0  0  0999 V2000
    7.0780   -3.3280   19.3090 C   0  0  0  0  0  0  0  0  0  0  0  0
    6.3990   -4.1470   20.3200 C   0  0  0  0  0  0  0  0  0  0  0  0
    5.3500   -4.7390   19.9500 O   0  0  0  0  0  0  0  0  0  0  0  0
    6.9310   -4.2910   21.6050 N   0  0  0  0  0  0  0  0  0  0  0  0
    6.7150   -5.5180   22.3410 C   0  0  0  0  0  0  0  0  0  0  0  0
    6.1330   -5.1720   23.6830 C   0  0  0  0  0  0  0  0  0  0  0  0
    6.1990   -3.6930   23.9540 C   0  0  0  0  0  0  0  0  0  0  0  0
    5.8160   -3.3820   25.3480 C   0  0  0  0  0  0  0  0  0  0  0  0
    4.6580   -2.9450   25.5380 O   0  0  0  0  0  0  0  0  0  0  0  0
    6.6650   -3.5350   26.4610 N   0  0  0  0  0  0  0  0  0  0  0  0
    6.3360   -2.8490   27.7010 C   0  0  0  0  0  0  0  0  0  0  0  0
    6.6820   -3.9500   28.6290 C   0  0  0  0  0  0  0  0  0  0  0  0
    6.8440   -5.0520   27.8980 C   0  0  1  0  0  0  0  0  0  0  0  0
    5.7330   -5.8680   27.8100 C   0  0  0  0  0  0  0  0  0  0  0  0
    5.0300   -6.2580   26.6680 C   0  0  0  0  0  0  0  0  0  0  0  0
    3.9880   -7.0390   26.9790 N   0  0  0  0  0  0  0  0  0  0  0  0
    3.0940   -7.5960   26.1540 C   0  0  0  0  0  0  0  0  0  0  0  0
    4.0570   -7.1240   28.3190 C   0  0  0  0  0  0  0  0  0  0  0  0
    3.0100   -7.9400   29.0660 C   0  0  0  0  0  0  0  0  0  0  0  0
    3.2910   -7.8930   30.5740 C   0  0  0  0  0  0  0  0  0  0  0  0
    4.4510   -7.1310   31.1510 C   0  0  0  0  0  0  0  0  0  0  0  0
    5.3710   -6.3830   30.2330 C   0  0  0  0  0  0  0  0  0  0  0  0
    5.1080   -6.4330   28.8950 C   0  0  0  0  0  0  0  0  0  0  0  0
    7.2920   -4.8650   26.6390 C   0  0  0  0  0  0  0  0  0  0  0  0
    7.5650   -3.1760   23.6550 C   0  0  0  0  0  0  0  0  0  0  0  0
    7.7850   -3.2340   22.1450 C   0  0  0  0  0  0  0  0  0  0  0  0
  1  2  1  0
  2  3  2  0
  2  4  1  0
  4  5  1  0
  5  6  1  0
  6  7  1  0
  7  8  1  0
  8  9  2  0
  8 10  1  0
 10 11  1  0
 11 12  1  0
 12 13  1  0
 13 14  1  6
 14 15  2  0
 15 16  1  0
 16 17  1  0
 16 18  1  0
 18 19  1  0
 19 20  2  0
 20 21  1  0
 21 22  2  0
 14 23  1  0
 18 23  2  0
 22 23  1  0
 10 24  1  0
 13 24  1  0
  7 25  1  0
  4 26  1  0
 25 26  1  0
M  END
