piperidine-amides-2895-covalent
     RDKit          3D

 24 25  0  0  0  0  0  0  0  0999 V2000
    7.1200   -3.2730   19.2560 C   0  0  0  0  0  0  0  0  0  0  0  0
    6.3600   -4.0490   20.2300 C   0  0  0  0  0  0  0  0  0  0  0  0
    5.3060   -4.5900   19.9010 O   0  0  0  0  0  0  0  0  0  0  0  0
    6.8700   -4.2250   21.5600 N   0  0  0  0  0  0  0  0  0  0  0  0
    7.6750   -3.1970   22.1650 C   0  0  0  0  0  0  0  0  0  0  0  0
    7.0330   -2.7120   23.4300 C   0  0  0  0  0  0  0  0  0  0  0  0
    6.5060   -3.9170   24.1910 C   0  0  0  0  0  0  0  0  0  0  0  0
    5.7350   -3.4620   25.3830 C   0  0  0  0  0  0  0  0  0  0  0  0
    4.5630   -3.0510   25.2850 O   0  0  0  0  0  0  0  0  0  0  0  0
    6.3450   -3.4980   26.6650 N   0  0  0  0  0  0  0  0  0  0  0  0
    5.6950   -4.2590   27.7110 C   0  0  1  0  0  0  0  0  0  0  0  0
    6.6900   -5.0160   28.5550 C   0  0  0  0  0  0  0  0  0  0  0  0
    4.9650   -3.3450   28.6230 C   0  0  0  0  0  0  0  0  0  0  0  0
    3.6850   -3.7620   29.1200 C   0  0  0  0  0  0  0  0  0  0  0  0
    2.9630   -2.9450   29.9810 C   0  0  0  0  0  0  0  0  0  0  0  0
    1.7540   -3.4550   30.3840 F   0  0  0  0  0  0  0  0  0  0  0  0
    3.5590   -1.6980   30.3310 C   0  0  0  0  0  0  0  0  0  0  0  0
    4.7520   -1.3060   29.8680 C   0  0  0  0  0  0  0  0  0  0  0  0
    5.4760   -2.1010   29.0180 C   0  0  0  0  0  0  0  0  0  0  0  0
    6.7170   -1.6750   28.5400 N   0  0  0  0  0  0  0  0  0  0  0  0
    6.7240   -0.9360   27.4120 C   0  0  0  0  0  0  0  0  0  0  0  0
    7.4620   -1.1450   29.5380 C   0  0  0  0  0  0  0  0  0  0  0  0
    5.6660   -4.8570   23.3430 C   0  0  0  0  0  0  0  0  0  0  0  0
    6.4880   -5.3620   22.3430 C   0  0  0  0  0  0  0  0  0  0  0  0
  1  2  1  0
  2  3  2  0
  2  4  1  0
  4  5  1  0
  5  6  1  0
  6  7  1  0
  7  8  1  0
  8  9  2  0
  8 10  1  0
 10 11  1  0
 11 12  1  1
 11 13  1  0
 13 14  2  0
 14 15  1  0
 15 16  1  0
 15 17  2  0
 17 18  1  0
 13 19  1  0
 18 19  2  0
 19 20  1  0
 20 21  1  0
 20 22  1  0
  7 23  1  0
  4 24  1  0
 23 24  1  0
M  END
