piperidine-amides-10136-covalent
     RDKit          3D

 25 27  0  0  0  0  0  0  0  0999 V2000
    7.1340   -3.3000   19.2520 C   0  0  0  0  0  0  0  0  0  0  0  0
    6.3630   -4.0320   20.2560 C   0  0  0  0  0  0  0  0  0  0  0  0
    5.2750   -4.5370   19.8810 O   0  0  0  0  0  0  0  0  0  0  0  0
    6.8790   -4.1900   21.5430 N   0  0  0  0  0  0  0  0  0  0  0  0
    7.7180   -3.1990   22.1670 C   0  0  0  0  0  0  0  0  0  0  0  0
    7.0290   -2.7230   23.4110 C   0  0  0  0  0  0  0  0  0  0  0  0
    6.4970   -3.8700   24.2330 C   0  0  0  0  0  0  0  0  0  0  0  0
    5.7490   -3.3480   25.3970 C   0  0  0  0  0  0  0  0  0  0  0  0
    4.5100   -3.5180   25.4040 O   0  0  0  0  0  0  0  0  0  0  0  0
    6.3430   -2.6720   26.4810 N   0  0  0  0  0  0  0  0  0  0  0  0
    6.5340   -1.2410   26.4260 C   0  0  0  0  0  0  0  0  0  0  0  0
    5.4050   -1.0590   27.4370 C   0  0  0  0  0  0  0  0  0  0  0  0
    5.3550    0.1640   28.2390 N   0  0  0  0  0  0  0  0  0  0  0  0
    4.2940    0.0090   28.9790 O   0  0  0  0  0  0  0  0  0  0  0  0
    3.6750   -1.2090   28.7070 C   0  0  0  0  0  0  0  0  0  0  0  0
    2.5250   -1.6510   29.3310 C   0  0  0  0  0  0  0  0  0  0  0  0
    2.3140   -1.6830   30.6810 C   0  0  0  0  0  0  0  0  0  0  0  0
    1.1660   -2.1240   31.2820 C   0  0  0  0  0  0  0  0  0  0  0  0
    0.1400   -2.5700   30.4750 C   0  0  0  0  0  0  0  0  0  0  0  0
    0.1790   -2.6140   28.9470 C   0  0  0  0  0  0  0  0  0  0  0  0
   -1.2630   -3.2380   27.8290 Br  0  0  0  0  0  0  0  0  0  0  0  0
    1.5450   -2.0810   28.4630 C   0  0  0  0  0  0  0  0  0  0  0  0
    4.3250   -1.9170   27.7570 N   0  0  0  0  0  0  0  0  0  0  0  0
    5.6150   -4.8200   23.4090 C   0  0  0  0  0  0  0  0  0  0  0  0
    6.5280   -5.3610   22.3260 C   0  0  0  0  0  0  0  0  0  0  0  0
  1  2  1  0
  2  3  2  0
  2  4  1  0
  4  5  1  0
  5  6  1  0
  6  7  1  0
  7  8  1  0
  8  9  2  0
  8 10  1  0
 10 11  1  0
 11 12  1  0
 12 13  2  0
 13 14  1  0
 14 15  1  0
 15 16  1  0
 16 17  2  0
 17 18  1  0
 18 19  2  0
 19 20  1  0
 20 21  1  0
 16 22  1  0
 20 22  2  0
 12 23  1  0
 15 23  2  0
  7 24  1  0
  4 25  1  0
 24 25  1  0
M  END
