piperidine-amides-23378-covalent
     RDKit          3D

 24 26  0  0  0  0  0  0  0  0999 V2000
    7.0710   -3.3320   19.3130 C   0  0  0  0  0  0  0  0  0  0  0  0
    6.3880   -4.1720   20.3150 C   0  0  0  0  0  0  0  0  0  0  0  0
    5.3400   -4.7530   19.9500 O   0  0  0  0  0  0  0  0  0  0  0  0
    6.9140   -4.3630   21.6180 N   0  0  0  0  0  0  0  0  0  0  0  0
    6.3380   -5.3990   22.4100 C   0  0  0  0  0  0  0  0  0  0  0  0
    5.7520   -4.9190   23.6610 C   0  0  0  0  0  0  0  0  0  0  0  0
    6.4320   -3.7320   24.2150 C   0  0  0  0  0  0  0  0  0  0  0  0
    5.7060   -3.0800   25.3740 C   0  0  0  0  0  0  0  0  0  0  0  0
    4.5810   -2.5700   25.2280 O   0  0  0  0  0  0  0  0  0  0  0  0
    6.3490   -3.0980   26.6280 N   0  0  0  0  0  0  0  0  0  0  0  0
    7.3690   -4.0280   26.6620 C   0  0  0  0  0  0  0  0  0  0  0  0
    8.3910   -4.1130   25.6820 C   0  0  0  0  0  0  0  0  0  0  0  0
    9.4600   -5.2220   25.7600 C   0  0  0  0  0  0  0  0  0  0  0  0
    9.4490   -6.1710   26.7980 C   0  0  0  0  0  0  0  0  0  0  0  0
    8.3950   -6.1280   27.9120 C   0  0  0  0  0  0  0  0  0  0  0  0
    7.5500   -5.0590   27.6350 C   0  0  0  0  0  0  0  0  0  0  0  0
    6.4290   -4.8710   28.6600 C   0  0  0  0  0  0  0  0  0  0  0  0
    5.1660   -4.2160   28.2450 C   0  0  2  0  0  0  0  0  0  0  0  0
    4.3390   -5.0040   27.4150 O   0  0  0  0  0  0  0  0  0  0  0  0
    4.8010   -6.2840   26.9940 C   0  0  0  0  0  0  0  0  0  0  0  0
    5.5080   -2.8470   27.7640 C   0  0  1  0  0  0  0  0  0  0  0  0
    6.0980   -1.9710   28.8110 C   0  0  0  0  0  0  0  0  0  0  0  0
    6.8170   -2.7390   23.1670 C   0  0  0  0  0  0  0  0  0  0  0  0
    7.6760   -3.3190   22.2560 C   0  0  0  0  0  0  0  0  0  0  0  0
  1  2  1  0
  2  3  2  0
  2  4  1  0
  4  5  1  0
  5  6  1  0
  6  7  1  0
  7  8  1  0
  8  9  2  0
  8 10  1  0
 10 11  1  0
 11 12  2  0
 12 13  1  0
 13 14  2  0
 14 15  1  0
 11 16  1  0
 15 16  2  0
 16 17  1  0
 17 18  1  0
 18 19  1  6
 19 20  1  0
 10 21  1  0
 18 21  1  0
 21 22  1  1
  7 23  1  0
  4 24  1  0
 23 24  1  0
M  END
