piperidine-amides-3619-covalent
     RDKit          3D

 18 19  0  0  0  0  0  0  0  0999 V2000
    7.0720   -3.3060   19.2570 C   0  0  0  0  0  0  0  0  0  0  0  0
    6.3550   -4.0680   20.2910 C   0  0  0  0  0  0  0  0  0  0  0  0
    5.3120   -4.6630   19.9270 O   0  0  0  0  0  0  0  0  0  0  0  0
    6.8480   -4.1640   21.6170 N   0  0  0  0  0  0  0  0  0  0  0  0
    6.5760   -5.3420   22.3710 C   0  0  0  0  0  0  0  0  0  0  0  0
    6.0650   -5.0490   23.7010 C   0  0  0  0  0  0  0  0  0  0  0  0
    6.0350   -3.6040   23.9970 C   0  0  0  0  0  0  0  0  0  0  0  0
    5.5080   -3.2530   25.3630 C   0  0  0  0  0  0  0  0  0  0  0  0
    4.3950   -2.7050   25.4390 O   0  0  0  0  0  0  0  0  0  0  0  0
    6.2020   -3.5080   26.5670 N   0  0  0  0  0  0  0  0  0  0  0  0
    6.1570   -4.6630   27.3930 C   0  0  0  0  0  0  0  0  0  0  0  0
    4.9830   -5.1390   28.1040 C   0  0  0  0  0  0  0  0  0  0  0  0
    4.5370   -6.5680   27.7090 C   0  0  0  0  0  0  0  0  0  0  0  0
    4.3930   -7.4140   28.7930 C   0  0  0  0  0  0  0  0  0  0  0  0
    5.7530   -5.5290   29.4460 C   0  0  0  0  0  0  0  0  0  0  0  0
    4.6260   -4.7800   29.6010 C   0  0  0  0  0  0  0  0  0  0  0  0
    7.4090   -3.0030   23.7120 C   0  0  0  0  0  0  0  0  0  0  0  0
    7.6670   -3.1230   22.2190 C   0  0  0  0  0  0  0  0  0  0  0  0
  1  2  1  0
  2  3  2  0
  2  4  1  0
  4  5  1  0
  5  6  1  0
  6  7  1  0
  7  8  1  0
  8  9  2  0
  8 10  1  0
 10 11  1  0
 12 11  1  0
 12 13  1  0
 13 14  1  0
 12 15  1  0
 12 16  1  0
 15 16  1  0
  7 17  1  0
  4 18  1  0
 17 18  1  0
M  END
