piperidine-amides-14667-covalent
     RDKit          3D

 23 25  0  0  0  0  0  0  0  0999 V2000
    7.0630   -3.2880   19.2790 C   0  0  0  0  0  0  0  0  0  0  0  0
    6.3400   -4.0780   20.2780 C   0  0  0  0  0  0  0  0  0  0  0  0
    5.2980   -4.6510   19.9170 O   0  0  0  0  0  0  0  0  0  0  0  0
    6.8340   -4.2200   21.6010 N   0  0  0  0  0  0  0  0  0  0  0  0
    7.6410   -3.1600   22.1500 C   0  0  0  0  0  0  0  0  0  0  0  0
    7.5160   -3.1150   23.6430 C   0  0  0  0  0  0  0  0  0  0  0  0
    6.1550   -3.6780   23.9720 C   0  0  0  0  0  0  0  0  0  0  0  0
    5.7680   -3.3910   25.3890 C   0  0  0  0  0  0  0  0  0  0  0  0
    5.3580   -4.3300   26.0570 O   0  0  0  0  0  0  0  0  0  0  0  0
    5.8700   -2.0850   25.8260 N   0  0  0  0  0  0  0  0  0  0  0  0
    6.5050   -1.6510   27.0220 C   0  0  0  0  0  0  0  0  0  0  0  0
    7.0620   -0.3760   26.8070 C   0  0  1  0  0  0  0  0  0  0  0  0
    6.2200    0.6630   26.4820 C   0  0  0  0  0  0  0  0  0  0  0  0
    6.6780    1.8040   25.8510 C   0  0  0  0  0  0  0  0  0  0  0  0
    7.2680    2.5660   26.9910 C   0  0  0  0  0  0  0  0  0  0  0  0
    7.9210    1.6720   28.0640 C   0  0  0  0  0  0  0  0  0  0  0  0
    8.6410    2.3800   29.1500 C   0  0  0  0  0  0  0  0  0  0  0  0
    9.2930    1.5740   30.2170 C   0  0  0  0  0  0  0  0  0  0  0  0
    9.0990    0.0640   30.0110 C   0  0  0  0  0  0  0  0  0  0  0  0
    8.4050   -0.4840   28.9590 C   0  0  0  0  0  0  0  0  0  0  0  0
    7.8100    0.2770   27.9710 C   0  0  0  0  0  0  0  0  0  0  0  0
    6.0940   -5.1410   23.7120 C   0  0  0  0  0  0  0  0  0  0  0  0
    6.6190   -5.4420   22.3370 C   0  0  0  0  0  0  0  0  0  0  0  0
  1  2  1  0
  2  3  2  0
  2  4  1  0
  4  5  1  0
  5  6  1  0
  6  7  1  0
  7  8  1  0
  8  9  2  0
  8 10  1  0
 10 11  1  0
 12 11  1  1
 12 13  1  0
 13 14  1  0
 14 15  1  0
 15 16  1  0
 16 17  2  0
 17 18  1  0
 18 19  2  0
 19 20  1  0
 12 21  1  0
 16 21  1  0
 20 21  2  0
  7 22  1  0
  4 23  1  0
 22 23  1  0
M  END
