piperidine-amides-31482-covalent
     RDKit          3D

 27 28  0  0  0  0  0  0  0  0999 V2000
    7.1780   -4.0790   19.6330 C   0  0  0  0  0  0  0  0  0  0  0  0
    6.0400   -4.0020   20.3720 C   0  0  0  0  0  0  0  0  0  0  0  0
    4.9850   -4.1470   19.7050 O   0  0  0  0  0  0  0  0  0  0  0  0
    6.1320   -3.9190   21.7440 N   0  0  0  0  0  0  0  0  0  0  0  0
    7.3240   -3.1660   22.1600 C   0  0  0  0  0  0  0  0  0  0  0  0
    6.7530   -2.5450   23.4690 C   0  0  0  0  0  0  0  0  0  0  0  0
    6.3090   -3.7010   24.3410 C   0  0  0  0  0  0  0  0  0  0  0  0
    5.6350   -3.1000   25.6280 C   0  0  0  0  0  0  0  0  0  0  0  0
    4.4540   -2.8540   25.4270 O   0  0  0  0  0  0  0  0  0  0  0  0
    6.5150   -3.0420   26.5280 N   0  0  0  0  0  0  0  0  0  0  0  0
    7.4880   -3.4120   27.3990 C   0  0  0  0  0  0  0  0  0  0  0  0
    8.0590   -4.6100   27.7300 C   0  0  0  0  0  0  0  0  0  0  0  0
    8.4090   -5.3100   26.5600 C   0  0  0  0  0  0  0  0  0  0  0  0
    9.3570   -6.3140   26.7780 F   0  0  0  0  0  0  0  0  0  0  0  0
    9.0700   -4.4290   25.6410 F   0  0  0  0  0  0  0  0  0  0  0  0
    7.3260   -5.8250   25.9480 F   0  0  0  0  0  0  0  0  0  0  0  0
    6.4740   -1.7120   27.2010 C   0  0  0  0  0  0  0  0  0  0  0  0
    7.1220   -1.8150   28.6050 C   0  0  0  0  0  0  0  0  0  0  0  0
    7.0470   -0.5620   29.2120 C   0  0  0  0  0  0  0  0  0  0  0  0
    7.3950    0.0720   30.4150 C   0  0  0  0  0  0  0  0  0  0  0  0
    6.4990    0.7520   28.7720 C   0  0  0  0  0  0  0  0  0  0  0  0
    5.8810    0.7570   27.3530 C   0  0  0  0  0  0  0  0  0  0  0  0
    5.8670   -0.3920   26.6140 C   0  0  0  0  0  0  0  0  0  0  0  0
    5.3560   -0.3690   25.4550 O   0  0  0  0  0  0  0  0  0  0  0  0
    3.9670   -0.4130   25.2180 C   0  0  0  0  0  0  0  0  0  0  0  0
    5.4800   -4.8230   23.7130 C   0  0  0  0  0  0  0  0  0  0  0  0
    5.9520   -5.1370   22.4760 C   0  0  0  0  0  0  0  0  0  0  0  0
  1  2  1  0
  2  3  2  0
  2  4  1  0
  4  5  1  0
  5  6  1  0
  6  7  1  0
  7  8  1  0
  8  9  2  0
  8 10  1  0
 10 11  1  0
 11 12  1  0
 12 13  1  0
 13 14  1  0
 13 15  1  0
 13 16  1  0
 10 17  1  0
 17 18  2  0
 18 19  1  0
 19 20  1  0
 19 21  2  0
 21 22  1  0
 17 23  1  0
 22 23  2  0
 23 24  1  0
 24 25  1  0
  7 26  1  0
  4 27  1  0
 26 27  1  0
M  END
