piperidine-amides-25395-covalent
     RDKit          3D

 25 27  0  0  0  0  0  0  0  0999 V2000
    7.0150   -3.3570   19.3240 C   0  0  0  0  0  0  0  0  0  0  0  0
    6.3320   -4.2310   20.3170 C   0  0  0  0  0  0  0  0  0  0  0  0
    5.3160   -4.8130   19.9540 O   0  0  0  0  0  0  0  0  0  0  0  0
    6.8620   -4.4100   21.5910 N   0  0  0  0  0  0  0  0  0  0  0  0
    6.6040   -5.6230   22.3320 C   0  0  0  0  0  0  0  0  0  0  0  0
    6.1600   -5.3230   23.7510 C   0  0  0  0  0  0  0  0  0  0  0  0
    6.0460   -3.8150   23.9530 C   0  0  0  0  0  0  0  0  0  0  0  0
    5.6690   -3.4350   25.3360 C   0  0  0  0  0  0  0  0  0  0  0  0
    4.7120   -2.6650   25.4720 O   0  0  0  0  0  0  0  0  0  0  0  0
    6.3190   -3.8730   26.5120 N   0  0  0  0  0  0  0  0  0  0  0  0
    7.0820   -5.1000   26.5040 C   0  0  0  0  0  0  0  0  0  0  0  0
    7.0870   -5.3780   27.9760 C   0  0  0  0  0  0  0  0  0  0  0  0
    6.2970   -4.5050   28.6530 C   0  0  0  0  0  0  0  0  0  0  0  0
    5.6220   -3.7380   27.7560 C   0  0  1  0  0  0  0  0  0  0  0  0
    4.9970   -2.5810   28.1340 C   0  0  0  0  0  0  0  0  0  0  0  0
    4.1820   -3.7990   27.6940 C   0  0  0  0  0  0  0  0  0  0  0  0
    3.7200   -4.8820   26.7660 C   0  0  0  0  0  0  0  0  0  0  0  0
    3.6720   -6.1430   27.5950 C   0  0  0  0  0  0  0  0  0  0  0  0
    3.2360   -7.3400   26.8170 C   0  0  0  0  0  0  0  0  0  0  0  0
    2.8990   -7.2310   25.3730 C   0  0  0  0  0  0  0  0  0  0  0  0
    2.9880   -5.8970   24.6610 C   0  0  0  0  0  0  0  0  0  0  0  0
    2.6690   -5.7160   23.2230 C   0  0  0  0  0  0  0  0  0  0  0  0
    3.3980   -4.8180   25.4330 C   0  0  0  0  0  0  0  0  0  0  0  0
    7.3690   -3.2570   23.6130 C   0  0  0  0  0  0  0  0  0  0  0  0
    7.5890   -3.3080   22.1460 C   0  0  0  0  0  0  0  0  0  0  0  0
  1  2  1  0
  2  3  2  0
  2  4  1  0
  4  5  1  0
  5  6  1  0
  6  7  1  0
  7  8  1  0
  8  9  2  0
  8 10  1  0
 10 11  1  0
 11 12  1  0
 12 13  1  0
 10 14  1  0
 13 14  1  0
 14 15  1  1
 14 16  1  0
 16 17  1  0
 17 18  2  0
 18 19  1  0
 19 20  2  0
 20 21  1  0
 21 22  1  0
 17 23  1  0
 21 23  2  0
  7 24  1  0
  4 25  1  0
 24 25  1  0
M  END
