piperidine-amides-5226-covalent
     RDKit          3D

 22 24  0  0  0  0  0  0  0  0999 V2000
    7.0890   -3.3290   19.3410 C   0  0  0  0  0  0  0  0  0  0  0  0
    6.4120   -4.1760   20.3480 C   0  0  0  0  0  0  0  0  0  0  0  0
    5.3800   -4.7690   19.9650 O   0  0  0  0  0  0  0  0  0  0  0  0
    6.9400   -4.3340   21.6440 N   0  0  0  0  0  0  0  0  0  0  0  0
    7.7060   -3.2850   22.2590 C   0  0  0  0  0  0  0  0  0  0  0  0
    7.2980   -2.9690   23.6260 C   0  0  0  0  0  0  0  0  0  0  0  0
    6.0670   -3.6760   24.0210 C   0  0  0  0  0  0  0  0  0  0  0  0
    5.6000   -3.3200   25.3820 C   0  0  0  0  0  0  0  0  0  0  0  0
    4.3850   -3.4590   25.6010 O   0  0  0  0  0  0  0  0  0  0  0  0
    6.4370   -2.8280   26.4040 N   0  0  0  0  0  0  0  0  0  0  0  0
    5.9170   -1.7900   27.3310 C   0  0  0  0  0  0  0  0  0  0  0  0
    4.9040   -2.2590   28.3290 C   0  0  0  0  0  0  0  0  0  0  0  0
    4.4310   -1.4480   29.4330 C   0  0  0  0  0  0  0  0  0  0  0  0
    3.5020   -1.9620   30.2890 C   0  0  0  0  0  0  0  0  0  0  0  0
    3.0010   -3.2350   30.1250 C   0  0  0  0  0  0  0  0  0  0  0  0
    3.4160   -4.0460   29.0970 C   0  0  0  0  0  0  0  0  0  0  0  0
    2.8780   -5.3090   28.9860 F   0  0  0  0  0  0  0  0  0  0  0  0
    4.3500   -3.6670   28.1560 C   0  0  0  0  0  0  0  0  0  0  0  0
    6.1310   -0.3330   27.0890 C   0  0  0  0  0  0  0  0  0  0  0  0
    6.9570   -0.8260   27.8740 C   0  0  0  0  0  0  0  0  0  0  0  0
    6.0820   -5.1370   23.7870 C   0  0  0  0  0  0  0  0  0  0  0  0
    6.6910   -5.5210   22.4610 C   0  0  0  0  0  0  0  0  0  0  0  0
  1  2  1  0
  2  3  2  0
  2  4  1  0
  4  5  1  0
  5  6  1  0
  6  7  1  0
  7  8  1  0
  8  9  2  0
  8 10  1  0
 11 10  1  0
 11 12  1  0
 12 13  2  0
 13 14  1  0
 14 15  2  0
 15 16  1  0
 16 17  1  0
 12 18  1  0
 16 18  2  0
 11 19  1  0
 11 20  1  0
 19 20  1  0
  7 21  1  0
  4 22  1  0
 21 22  1  0
M  END
