piperidine-amides-23482-covalent
     RDKit          3D

 24 26  0  0  0  0  0  0  0  0999 V2000
    6.9900   -3.4240   19.4700 C   0  0  0  0  0  0  0  0  0  0  0  0
    6.3600   -4.3850   20.3990 C   0  0  0  0  0  0  0  0  0  0  0  0
    5.3310   -4.9600   19.9870 O   0  0  0  0  0  0  0  0  0  0  0  0
    6.9210   -4.6840   21.6670 N   0  0  0  0  0  0  0  0  0  0  0  0
    6.3530   -5.6980   22.4660 C   0  0  0  0  0  0  0  0  0  0  0  0
    6.1020   -5.2030   23.8250 C   0  0  0  0  0  0  0  0  0  0  0  0
    5.7010   -3.7750   23.8850 C   0  0  0  0  0  0  0  0  0  0  0  0
    5.3300   -3.2330   25.2700 C   0  0  0  0  0  0  0  0  0  0  0  0
    4.1430   -2.8970   25.4230 O   0  0  0  0  0  0  0  0  0  0  0  0
    6.1660   -3.0860   26.4130 N   0  0  0  0  0  0  0  0  0  0  0  0
    5.6530   -2.9280   27.7150 C   0  0  0  0  0  0  0  0  0  0  0  0
    5.9500   -3.9080   28.7620 C   0  0  0  0  0  0  0  0  0  0  0  0
    6.6560   -5.1770   28.2070 C   0  0  0  0  0  0  0  0  0  0  0  0
    7.6040   -4.9740   27.2220 C   0  0  0  0  0  0  0  0  0  0  0  0
    8.7400   -5.9150   27.2390 C   0  0  0  0  0  0  0  0  0  0  0  0
    9.5790   -5.4660   26.0760 C   0  0  0  0  0  0  0  0  0  0  0  0
    9.3360   -4.4120   25.2390 N   0  0  0  0  0  0  0  0  0  0  0  0
    8.2910   -3.5740   25.2750 C   0  0  0  0  0  0  0  0  0  0  0  0
    8.0930   -2.5140   24.4300 N   0  0  0  0  0  0  0  0  0  0  0  0
    9.1040   -2.3650   23.5600 C   0  0  0  0  0  0  0  0  0  0  0  0
    7.2860   -1.3410   24.8740 C   0  0  0  0  0  0  0  0  0  0  0  0
    7.3310   -3.8530   26.3030 C   0  0  0  0  0  0  0  0  0  0  0  0
    6.5250   -2.8650   22.9910 C   0  0  0  0  0  0  0  0  0  0  0  0
    7.5430   -3.6610   22.4420 C   0  0  0  0  0  0  0  0  0  0  0  0
  1  2  1  0
  2  3  2  0
  2  4  1  0
  4  5  1  0
  5  6  1  0
  6  7  1  0
  7  8  1  0
  8  9  2  0
  8 10  1  0
 10 11  1  0
 11 12  1  0
 12 13  1  0
 13 14  1  0
 14 15  2  0
 15 16  1  0
 16 17  2  0
 17 18  1  0
 18 19  1  0
 19 20  1  0
 19 21  1  0
 10 22  1  0
 14 22  1  0
 18 22  2  0
  7 23  1  0
  4 24  1  0
 23 24  1  0
M  END
