piperidine-amides-33620-covalent
     RDKit          3D

 30 33  0  0  0  0  0  0  0  0999 V2000
    7.1460   -3.2820   19.1770 C   0  0  0  0  0  0  0  0  0  0  0  0
    6.3950   -4.0360   20.1940 C   0  0  0  0  0  0  0  0  0  0  0  0
    5.2730   -4.4810   19.8570 O   0  0  0  0  0  0  0  0  0  0  0  0
    6.9390   -4.3100   21.4680 N   0  0  0  0  0  0  0  0  0  0  0  0
    6.2990   -5.3170   22.2200 C   0  0  0  0  0  0  0  0  0  0  0  0
    5.6430   -4.8160   23.4260 C   0  0  0  0  0  0  0  0  0  0  0  0
    6.3480   -3.7300   24.1670 C   0  0  0  0  0  0  0  0  0  0  0  0
    5.4570   -3.1530   25.2200 C   0  0  0  0  0  0  0  0  0  0  0  0
    4.2190   -3.2360   25.0900 O   0  0  0  0  0  0  0  0  0  0  0  0
    5.9760   -2.5190   26.3600 N   0  0  0  0  0  0  0  0  0  0  0  0
    5.8540   -2.9990   27.6750 C   0  0  0  0  0  0  0  0  0  0  0  0
    6.0270   -4.4100   27.9410 C   0  0  0  0  0  0  0  0  0  0  0  0
    7.4080   -4.5070   28.5320 C   0  0  0  0  0  0  0  0  0  0  0  0
    8.1760   -4.7880   27.3620 N   0  0  0  0  0  0  0  0  0  0  0  0
    8.1770   -3.8000   26.3190 C   0  0  0  0  0  0  0  0  0  0  0  0
    9.0630   -4.3930   25.2610 C   0  0  0  0  0  0  0  0  0  0  0  0
    9.5340   -5.6450   25.6870 N   0  0  0  0  0  0  0  0  0  0  0  0
    9.0260   -5.8750   26.8880 C   0  0  0  0  0  0  0  0  0  0  0  0
    6.6540   -1.2610   26.2150 C   0  0  0  0  0  0  0  0  0  0  0  0
    5.7020   -0.1310   25.8900 C   0  0  0  0  0  0  0  0  0  0  0  0
    4.7430   -0.4390   24.7390 C   0  0  0  0  0  0  0  0  0  0  0  0
    3.7210    0.6250   24.3020 C   0  0  0  0  0  0  0  0  0  0  0  0
    3.7950    1.8800   25.0900 C   0  0  0  0  0  0  0  0  0  0  0  0
    4.6960    2.0460   26.1010 C   0  0  0  0  0  0  0  0  0  0  0  0
    5.6210    1.1150   26.5130 C   0  0  0  0  0  0  0  0  0  0  0  0
    4.6230    3.2750   26.7220 O   0  0  0  0  0  0  0  0  0  0  0  0
    3.5740    3.8630   25.9730 C   0  0  0  0  0  0  0  0  0  0  0  0
    3.0320    3.0300   24.9680 O   0  0  0  0  0  0  0  0  0  0  0  0
    6.8940   -2.6620   23.2620 C   0  0  0  0  0  0  0  0  0  0  0  0
    7.6750   -3.2740   22.1230 C   0  0  0  0  0  0  0  0  0  0  0  0
  1  2  1  0
  2  3  2  0
  2  4  1  0
  4  5  1  0
  5  6  1  0
  6  7  1  0
  7  8  1  0
  8  9  2  0
  8 10  1  0
 10 11  1  0
 11 12  1  0
 12 13  1  0
 13 14  1  0
 14 15  1  0
 15 16  2  0
 16 17  1  0
 14 18  1  0
 17 18  2  0
 10 19  1  0
 19 20  1  0
 20 21  2  0
 21 22  1  0
 22 23  2  0
 23 24  1  0
 20 25  1  0
 24 25  2  0
 24 26  1  0
 26 27  1  0
 23 28  1  0
 27 28  1  0
  7 29  1  0
  4 30  1  0
 29 30  1  0
M  END
