piperidine-amides-8797-covalent
     RDKit          3D

 22 23  0  0  0  0  0  0  0  0999 V2000
    7.0220   -3.3370   19.3260 C   0  0  0  0  0  0  0  0  0  0  0  0
    6.3480   -4.1670   20.3240 C   0  0  0  0  0  0  0  0  0  0  0  0
    5.3490   -4.8130   19.9660 O   0  0  0  0  0  0  0  0  0  0  0  0
    6.8480   -4.2620   21.6440 N   0  0  0  0  0  0  0  0  0  0  0  0
    7.6450   -3.1910   22.1920 C   0  0  0  0  0  0  0  0  0  0  0  0
    6.9350   -2.6040   23.3690 C   0  0  0  0  0  0  0  0  0  0  0  0
    6.5890   -3.7840   24.2280 C   0  0  0  0  0  0  0  0  0  0  0  0
    5.7980   -3.3420   25.4340 C   0  0  0  0  0  0  0  0  0  0  0  0
    4.5660   -3.3360   25.3560 O   0  0  0  0  0  0  0  0  0  0  0  0
    6.5070   -2.9840   26.5790 N   0  0  0  0  0  0  0  0  0  0  0  0
    6.4440   -1.6820   27.1770 C   0  0  0  0  0  0  0  0  0  0  0  0
    6.9240   -1.4590   28.4850 C   0  0  0  0  0  0  0  0  0  0  0  0
    6.8860   -0.2450   29.1220 C   0  0  0  0  0  0  0  0  0  0  0  0
    7.5500   -0.0570   30.8990 Br  0  0  0  0  0  0  0  0  0  0  0  0
    6.3580    0.8470   28.4780 C   0  0  0  0  0  0  0  0  0  0  0  0
    6.4330    2.0350   29.3830 C   0  0  0  0  0  0  0  0  0  0  0  0
    5.8700    0.7510   27.2130 C   0  0  0  0  0  0  0  0  0  0  0  0
    5.8900   -0.5440   26.4910 C   0  0  0  0  0  0  0  0  0  0  0  0
    5.4300   -0.6100   25.3230 O   0  0  0  0  0  0  0  0  0  0  0  0
    4.2030    0.0340   25.1980 C   0  0  0  0  0  0  0  0  0  0  0  0
    5.8580   -4.8760   23.5620 C   0  0  0  0  0  0  0  0  0  0  0  0
    6.5620   -5.3970   22.4970 C   0  0  0  0  0  0  0  0  0  0  0  0
  1  2  1  0
  2  3  2  0
  2  4  1  0
  4  5  1  0
  5  6  1  0
  6  7  1  0
  7  8  1  0
  8  9  2  0
  8 10  1  0
 10 11  1  0
 11 12  2  0
 12 13  1  0
 13 14  1  0
 13 15  2  0
 15 16  1  0
 15 17  1  0
 11 18  1  0
 17 18  2  0
 18 19  1  0
 19 20  1  0
  7 21  1  0
  4 22  1  0
 21 22  1  0
M  END
