piperidine-amides-25933-covalent
     RDKit          3D

 25 28  0  0  0  0  0  0  0  0999 V2000
    7.0880   -3.3460   19.3240 C   0  0  0  0  0  0  0  0  0  0  0  0
    6.4000   -4.1920   20.2960 C   0  0  0  0  0  0  0  0  0  0  0  0
    5.3500   -4.7600   19.9610 O   0  0  0  0  0  0  0  0  0  0  0  0
    6.9300   -4.4410   21.5760 N   0  0  0  0  0  0  0  0  0  0  0  0
    6.6040   -5.6210   22.3230 C   0  0  0  0  0  0  0  0  0  0  0  0
    5.9470   -5.0920   23.5650 C   0  0  0  0  0  0  0  0  0  0  0  0
    6.6670   -3.8970   24.1370 C   0  0  0  0  0  0  0  0  0  0  0  0
    5.9390   -3.3320   25.2970 C   0  0  0  0  0  0  0  0  0  0  0  0
    5.1180   -2.3840   25.1400 O   0  0  0  0  0  0  0  0  0  0  0  0
    6.0760   -3.8280   26.6020 N   0  0  0  0  0  0  0  0  0  0  0  0
    5.8450   -5.2770   26.7380 C   0  0  0  0  0  0  0  0  0  0  0  0
    6.2060   -5.8080   28.0710 C   0  0  0  0  0  0  0  0  0  0  0  0
    5.9850   -4.9350   29.2170 C   0  0  0  0  0  0  0  0  0  0  0  0
    4.6170   -5.2110   29.8060 C   0  0  0  0  0  0  0  0  0  0  0  0
    4.0670   -3.8950   29.8500 N   0  0  0  0  0  0  0  0  0  0  0  0
    2.8740   -3.7180   30.3070 N   0  0  0  0  0  0  0  0  0  0  0  0
    2.5070   -4.9430   30.6210 C   0  0  0  0  0  0  0  0  0  0  0  0
    3.4920   -5.8260   30.3430 N   0  0  0  0  0  0  0  0  0  0  0  0
    3.3380   -7.1380   30.5810 C   0  0  0  0  0  0  0  0  0  0  0  0
    2.5140   -7.7930   31.3100 C   0  0  0  0  0  0  0  0  0  0  0  0
    1.9490   -7.9420   30.1480 C   0  0  0  0  0  0  0  0  0  0  0  0
    6.2850   -3.6320   28.9580 C   0  0  0  0  0  0  0  0  0  0  0  0
    5.6720   -2.9950   27.7250 C   0  0  0  0  0  0  0  0  0  0  0  0
    6.8890   -2.8500   23.0380 C   0  0  0  0  0  0  0  0  0  0  0  0
    7.6380   -3.3500   22.2410 C   0  0  0  0  0  0  0  0  0  0  0  0
  1  2  1  0
  2  3  2  0
  2  4  1  0
  4  5  1  0
  5  6  1  0
  6  7  1  0
  7  8  1  0
  8  9  2  0
  8 10  1  0
 10 11  1  0
 11 12  1  0
 12 13  1  0
 13 14  1  0
 14 15  2  0
 15 16  1  0
 16 17  2  0
 14 18  1  0
 17 18  1  0
 18 19  1  0
 19 20  1  0
 19 21  1  0
 20 21  1  0
 13 22  1  0
 10 23  1  0
 22 23  1  0
  7 24  1  0
  4 25  1  0
 24 25  1  0
M  END
