piperidine-amides-15192-covalent
     RDKit          3D

 19 20  0  0  0  0  0  0  0  0999 V2000
    7.1120   -3.2900   19.2140 C   0  0  0  0  0  0  0  0  0  0  0  0
    6.3920   -4.0850   20.2230 C   0  0  0  0  0  0  0  0  0  0  0  0
    5.3240   -4.6530   19.9260 O   0  0  0  0  0  0  0  0  0  0  0  0
    6.9250   -4.2650   21.5060 N   0  0  0  0  0  0  0  0  0  0  0  0
    7.7280   -3.2330   22.1230 C   0  0  0  0  0  0  0  0  0  0  0  0
    6.8550   -2.6010   23.2000 C   0  0  0  0  0  0  0  0  0  0  0  0
    6.6140   -3.6860   24.2190 C   0  0  0  0  0  0  0  0  0  0  0  0
    5.8370   -3.1370   25.3410 C   0  0  0  0  0  0  0  0  0  0  0  0
    4.6350   -2.8550   25.1560 O   0  0  0  0  0  0  0  0  0  0  0  0
    6.4690   -2.9320   26.5850 N   0  0  0  0  0  0  0  0  0  0  0  0
    6.0820   -3.6880   27.7430 C   0  0  0  0  0  0  0  0  0  0  0  0
    5.4310   -4.9890   27.3100 C   0  0  0  0  0  0  0  0  0  0  0  0
    4.5560   -5.2570   26.2970 C   0  0  0  0  0  0  0  0  0  0  0  0
    4.2540   -6.5730   26.3060 C   0  0  0  0  0  0  0  0  0  0  0  0
    4.8980   -7.2520   27.3110 O   0  0  0  0  0  0  0  0  0  0  0  0
    5.6690   -6.2640   27.9810 C   0  0  0  0  0  0  0  0  0  0  0  0
    6.4400   -6.6340   29.0530 C   0  0  0  0  0  0  0  0  0  0  0  0
    5.8120   -4.8110   23.5530 C   0  0  0  0  0  0  0  0  0  0  0  0
    6.5360   -5.3700   22.3510 C   0  0  0  0  0  0  0  0  0  0  0  0
  1  2  1  0
  2  3  2  0
  2  4  1  0
  4  5  1  0
  5  6  1  0
  6  7  1  0
  7  8  1  0
  8  9  2  0
  8 10  1  0
 10 11  1  0
 11 12  1  0
 12 13  1  0
 13 14  2  0
 14 15  1  0
 12 16  2  0
 15 16  1  0
 16 17  1  0
  7 18  1  0
  4 19  1  0
 18 19  1  0
M  END
