piperidine-amides-19732-covalent
     RDKit          3D

 22 23  0  0  0  0  0  0  0  0999 V2000
    7.1310   -3.2800   19.2100 C   0  0  0  0  0  0  0  0  0  0  0  0
    6.3340   -4.0050   20.2390 C   0  0  0  0  0  0  0  0  0  0  0  0
    5.2810   -4.5200   19.8730 O   0  0  0  0  0  0  0  0  0  0  0  0
    6.8010   -4.1210   21.5490 N   0  0  0  0  0  0  0  0  0  0  0  0
    6.5140   -5.2910   22.3430 C   0  0  0  0  0  0  0  0  0  0  0  0
    5.8060   -4.8800   23.6050 C   0  0  0  0  0  0  0  0  0  0  0  0
    6.5730   -3.7380   24.2720 C   0  0  0  0  0  0  0  0  0  0  0  0
    5.7840   -3.3170   25.4470 C   0  0  0  0  0  0  0  0  0  0  0  0
    4.5480   -3.4050   25.4070 O   0  0  0  0  0  0  0  0  0  0  0  0
    6.4070   -2.8190   26.6150 N   0  0  0  0  0  0  0  0  0  0  0  0
    6.2880   -3.5980   27.8290 C   0  0  0  0  0  0  0  0  0  0  0  0
    6.7730   -1.4410   26.6730 C   0  0  0  0  0  0  0  0  0  0  0  0
    5.6820   -0.6260   26.8160 C   0  0  0  0  0  0  0  0  0  0  0  0
    4.7120   -0.2730   27.8410 N   0  0  0  0  0  0  0  0  0  0  0  0
    3.6860    0.6590   27.5820 C   0  0  0  0  0  0  0  0  0  0  0  0
    3.8810    1.0130   26.3500 C   0  0  0  0  0  0  0  0  0  0  0  0
    4.9550    0.2840   26.0330 N   0  0  0  0  0  0  0  0  0  0  0  0
    5.2400    0.6350   24.6310 C   0  0  0  0  0  0  0  0  0  0  0  0
    6.6370    0.6980   24.0980 C   0  0  0  0  0  0  0  0  0  0  0  0
    5.9940    1.9450   24.6090 C   0  0  0  0  0  0  0  0  0  0  0  0
    6.9340   -2.6110   23.3950 C   0  0  0  0  0  0  0  0  0  0  0  0
    7.5540   -3.0300   22.1170 C   0  0  0  0  0  0  0  0  0  0  0  0
  1  2  1  0
  2  3  2  0
  2  4  1  0
  4  5  1  0
  5  6  1  0
  6  7  1  0
  7  8  1  0
  8  9  2  0
  8 10  1  0
 10 11  1  0
 10 12  1  0
 12 13  1  0
 13 14  2  0
 14 15  1  0
 15 16  2  0
 13 17  1  0
 16 17  1  0
 17 18  1  0
 18 19  1  0
 18 20  1  0
  7 21  1  0
  4 22  1  0
 21 22  1  0
M  END
