piperidine-amides-33886-covalent
     RDKit          3D

 29 31  0  0  0  0  0  0  0  0999 V2000
    7.0780   -3.3070   19.3080 C   0  0  0  0  0  0  0  0  0  0  0  0
    6.3810   -4.0990   20.3360 C   0  0  0  0  0  0  0  0  0  0  0  0
    5.3410   -4.6890   19.9470 O   0  0  0  0  0  0  0  0  0  0  0  0
    6.8700   -4.2470   21.6720 N   0  0  0  0  0  0  0  0  0  0  0  0
    7.5800   -3.1590   22.2800 C   0  0  0  0  0  0  0  0  0  0  0  0
    7.1980   -2.9090   23.6750 C   0  0  0  0  0  0  0  0  0  0  0  0
    5.9780   -3.6390   24.0690 C   0  0  0  0  0  0  0  0  0  0  0  0
    5.3620   -3.2290   25.3910 C   0  0  0  0  0  0  0  0  0  0  0  0
    4.1230   -3.2210   25.4570 O   0  0  0  0  0  0  0  0  0  0  0  0
    6.0750   -2.8420   26.5520 N   0  0  0  0  0  0  0  0  0  0  0  0
    6.7040   -1.6010   26.8030 C   0  0  0  0  0  0  0  0  0  0  0  0
    6.1340   -3.8050   27.6510 C   0  0  0  0  0  0  0  0  0  0  0  0
    5.0000   -4.0490   28.6440 C   0  0  0  0  0  0  0  0  0  0  0  0
    4.2830   -5.2050   28.7720 C   0  0  0  0  0  0  0  0  0  0  0  0
    4.9010   -6.1140   27.6980 C   0  0  0  0  0  0  0  0  0  0  0  0
    3.2890   -5.1890   29.7730 N   0  0  0  0  0  0  0  0  0  0  0  0
    3.4190   -3.9530   30.2810 N   0  0  0  0  0  0  0  0  0  0  0  0
    2.6080   -3.5730   31.2950 C   0  0  0  0  0  0  0  0  0  0  0  0
    1.8130   -4.8880   31.3190 C   0  0  0  0  0  0  0  0  0  0  0  0
    2.4870   -6.1390   31.8380 C   0  0  0  0  0  0  0  0  0  0  0  0
    1.7060   -7.4330   31.8580 C   0  0  0  0  0  0  0  0  0  0  0  0
    0.2620   -7.4380   31.3550 C   0  0  0  0  0  0  0  0  0  0  0  0
   -0.2380   -6.1190   30.8810 C   0  0  0  0  0  0  0  0  0  0  0  0
    0.4780   -4.9140   30.8580 C   0  0  0  0  0  0  0  0  0  0  0  0
   -0.2330   -3.4150   30.2710 Cl  0  0  0  0  0  0  0  0  0  0  0  0
    4.4670   -3.2590   29.5880 C   0  0  0  0  0  0  0  0  0  0  0  0
    4.9130   -1.8470   29.8810 C   0  0  0  0  0  0  0  0  0  0  0  0
    6.1960   -5.1100   23.8950 C   0  0  0  0  0  0  0  0  0  0  0  0
    6.4940   -5.4100   22.4250 C   0  0  0  0  0  0  0  0  0  0  0  0
  1  2  1  0
  2  3  2  0
  2  4  1  0
  4  5  1  0
  5  6  1  0
  6  7  1  0
  7  8  1  0
  8  9  2  0
  8 10  1  0
 10 11  1  0
 10 12  1  0
 12 13  1  0
 13 14  1  0
 14 15  1  0
 14 16  2  0
 16 17  1  0
 17 18  1  0
 18 19  1  0
 19 20  2  0
 20 21  1  0
 21 22  2  0
 22 23  1  0
 19 24  1  0
 23 24  2  0
 24 25  1  0
 13 26  2  0
 17 26  1  0
 26 27  1  0
  7 28  1  0
  4 29  1  0
 28 29  1  0
M  END
