piperidine-amides-21656-covalent
     RDKit          3D

 23 25  0  0  0  0  0  0  0  0999 V2000
    7.0280   -3.3700   19.3920 C   0  0  0  0  0  0  0  0  0  0  0  0
    6.3720   -4.2550   20.3580 C   0  0  0  0  0  0  0  0  0  0  0  0
    5.3270   -4.8260   19.9670 O   0  0  0  0  0  0  0  0  0  0  0  0
    6.9260   -4.4890   21.6220 N   0  0  0  0  0  0  0  0  0  0  0  0
    6.5350   -5.6280   22.4100 C   0  0  0  0  0  0  0  0  0  0  0  0
    5.6540   -5.1380   23.5360 C   0  0  0  0  0  0  0  0  0  0  0  0
    6.2050   -3.9210   24.2470 C   0  0  0  0  0  0  0  0  0  0  0  0
    5.2290   -3.4190   25.2640 C   0  0  0  0  0  0  0  0  0  0  0  0
    4.0490   -3.2930   24.8920 O   0  0  0  0  0  0  0  0  0  0  0  0
    5.5080   -3.0730   26.6120 N   0  0  0  0  0  0  0  0  0  0  0  0
    4.9350   -3.8550   27.6820 C   0  0  0  0  0  0  0  0  0  0  0  0
    5.8940   -3.5610   28.7690 C   0  0  0  0  0  0  0  0  0  0  0  0
    6.8710   -2.7520   28.3120 C   0  0  0  0  0  0  0  0  0  0  0  0
    6.7160   -2.3510   26.9770 C   0  0  1  0  0  0  0  0  0  0  0  0
    7.6100   -2.8580   26.1630 C   0  0  0  0  0  0  0  0  0  0  0  0
    8.2280   -2.6720   24.9730 C   0  0  0  0  0  0  0  0  0  0  0  0
    9.0830   -3.7390   24.8140 N   0  0  0  0  0  0  0  0  0  0  0  0
    8.9450   -4.4890   25.9410 N   0  0  0  0  0  0  0  0  0  0  0  0
    9.6300   -5.6190   26.2320 C   0  0  0  0  0  0  0  0  0  0  0  0
    8.8200   -6.5750   26.8760 C   0  0  0  0  0  0  0  0  0  0  0  0
    8.0820   -4.0150   26.7460 C   0  0  0  0  0  0  0  0  0  0  0  0
    6.5400   -2.8100   23.2260 C   0  0  0  0  0  0  0  0  0  0  0  0
    7.6040   -3.4190   22.3320 C   0  0  0  0  0  0  0  0  0  0  0  0
  1  2  1  0
  2  3  2  0
  2  4  1  0
  4  5  1  0
  5  6  1  0
  6  7  1  0
  7  8  1  0
  8  9  2  0
  8 10  1  0
 10 11  1  0
 11 12  1  0
 12 13  1  0
 10 14  1  0
 13 14  1  0
 14 15  1  6
 15 16  1  0
 16 17  2  0
 17 18  1  0
 18 19  1  0
 19 20  1  0
 15 21  2  0
 18 21  1  0
  7 22  1  0
  4 23  1  0
 22 23  1  0
M  END
