piperidine-amides-19057-covalent
     RDKit          3D

 22 24  0  0  0  0  0  0  0  0999 V2000
    7.1480   -3.3330   19.3990 C   0  0  0  0  0  0  0  0  0  0  0  0
    6.4430   -4.1490   20.3620 C   0  0  0  0  0  0  0  0  0  0  0  0
    5.4180   -4.7990   19.9740 O   0  0  0  0  0  0  0  0  0  0  0  0
    6.8800   -4.2680   21.6980 N   0  0  0  0  0  0  0  0  0  0  0  0
    7.8210   -3.2610   22.2290 C   0  0  0  0  0  0  0  0  0  0  0  0
    6.9730   -2.6970   23.4210 C   0  0  0  0  0  0  0  0  0  0  0  0
    6.5820   -3.8960   24.2550 C   0  0  0  0  0  0  0  0  0  0  0  0
    5.6200   -3.4550   25.4350 C   0  0  0  0  0  0  0  0  0  0  0  0
    4.4700   -3.7680   25.1660 O   0  0  0  0  0  0  0  0  0  0  0  0
    6.2500   -2.8690   26.3730 N   0  0  0  0  0  0  0  0  0  0  0  0
    6.5100   -1.8730   27.2680 C   0  0  0  0  0  0  0  0  0  0  0  0
    7.1230   -1.6270   28.4430 C   0  0  0  0  0  0  0  0  0  0  0  0
    7.1460   -0.3830   29.0880 C   0  0  0  0  0  0  0  0  0  0  0  0
    6.5320    0.8860   28.6360 C   0  0  0  0  0  0  0  0  0  0  0  0
    5.7990    0.7390   27.2810 C   0  0  0  0  0  0  0  0  0  0  0  0
    5.8760   -0.5730   26.7840 C   0  0  0  0  0  0  0  0  0  0  0  0
    7.1180   -3.7560   27.1210 C   0  0  0  0  0  0  0  0  0  0  0  0
    7.8630   -3.0430   28.2420 C   0  0  0  0  0  0  0  0  0  0  0  0
    6.4940   -4.9740   27.6080 C   0  0  0  0  0  0  0  0  0  0  0  0
    7.5900   -5.1640   26.7480 C   0  0  0  0  0  0  0  0  0  0  0  0
    5.9290   -5.0690   23.5140 C   0  0  0  0  0  0  0  0  0  0  0  0
    6.6560   -5.4720   22.4440 C   0  0  0  0  0  0  0  0  0  0  0  0
  1  2  1  0
  2  3  2  0
  2  4  1  0
  4  5  1  0
  5  6  1  0
  6  7  1  0
  7  8  1  0
  8  9  2  0
  8 10  1  0
 10 11  1  0
 11 12  2  0
 12 13  1  0
 13 14  2  0
 14 15  1  0
 11 16  1  0
 15 16  2  0
 17 10  1  0
 17 18  1  0
 17 19  1  0
 17 20  1  0
 19 20  1  0
  7 21  1  0
  4 22  1  0
 21 22  1  0
M  END
