piperidine-amides-14680-covalent
     RDKit          3D

 23 24  0  0  0  0  0  0  0  0999 V2000
    7.0240   -3.3330   19.3350 C   0  0  0  0  0  0  0  0  0  0  0  0
    6.3640   -4.1730   20.3390 C   0  0  0  0  0  0  0  0  0  0  0  0
    5.3970   -4.8660   19.9810 O   0  0  0  0  0  0  0  0  0  0  0  0
    6.8410   -4.2130   21.6750 N   0  0  0  0  0  0  0  0  0  0  0  0
    7.7210   -3.1710   22.1340 C   0  0  0  0  0  0  0  0  0  0  0  0
    7.5870   -3.0580   23.6090 C   0  0  0  0  0  0  0  0  0  0  0  0
    6.1950   -3.5470   23.9030 C   0  0  0  0  0  0  0  0  0  0  0  0
    5.8550   -3.2180   25.3190 C   0  0  0  0  0  0  0  0  0  0  0  0
    4.7750   -3.6200   25.7480 O   0  0  0  0  0  0  0  0  0  0  0  0
    6.7940   -2.4590   26.0090 N   0  0  0  0  0  0  0  0  0  0  0  0
    6.4120   -1.2660   26.6830 C   0  0  0  0  0  0  0  0  0  0  0  0
    5.8260   -0.0860   26.2440 C   0  0  0  0  0  0  0  0  0  0  0  0
    5.6790    0.7920   27.4650 N   0  0  0  0  0  0  0  0  0  0  0  0
    6.1430    0.2020   28.5960 N   0  0  0  0  0  0  0  0  0  0  0  0
    6.1620    0.7300   29.9270 C   0  0  0  0  0  0  0  0  0  0  0  0
    4.9560    0.5150   30.5720 C   0  0  0  0  0  0  0  0  0  0  0  0
    5.2500    0.9210   31.9840 C   0  0  0  0  0  0  0  0  0  0  0  0
    5.0000   -0.2780   32.9260 C   0  0  0  0  0  0  0  0  0  0  0  0
    4.6690    2.1140   32.3450 C   0  0  0  0  0  0  0  0  0  0  0  0
    6.6040   -1.0750   28.1320 C   0  0  0  0  0  0  0  0  0  0  0  0
    7.1940   -1.9860   29.2140 C   0  0  0  0  0  0  0  0  0  0  0  0
    6.1420   -5.0500   23.7180 C   0  0  0  0  0  0  0  0  0  0  0  0
    6.6760   -5.4010   22.4870 C   0  0  0  0  0  0  0  0  0  0  0  0
  1  2  1  0
  2  3  2  0
  2  4  1  0
  4  5  1  0
  5  6  1  0
  6  7  1  0
  7  8  1  0
  8  9  2  0
  8 10  1  0
 10 11  1  0
 11 12  1  0
 12 13  2  0
 13 14  1  0
 14 15  1  0
 15 16  1  0
 16 17  1  0
 17 18  1  0
 17 19  1  0
 11 20  2  0
 14 20  1  0
 20 21  1  0
  7 22  1  0
  4 23  1  0
 22 23  1  0
M  END
