piperidine-amides-32697-covalent
     RDKit          3D

 23 25  0  0  0  0  0  0  0  0999 V2000
    7.0310   -3.3470   19.3480 C   0  0  0  0  0  0  0  0  0  0  0  0
    6.3480   -4.2350   20.3320 C   0  0  0  0  0  0  0  0  0  0  0  0
    5.3400   -4.8650   19.9720 O   0  0  0  0  0  0  0  0  0  0  0  0
    6.8680   -4.3850   21.6330 N   0  0  0  0  0  0  0  0  0  0  0  0
    6.4610   -5.4910   22.4550 C   0  0  0  0  0  0  0  0  0  0  0  0
    5.3910   -4.9490   23.4230 C   0  0  0  0  0  0  0  0  0  0  0  0
    5.9300   -3.7050   24.0880 C   0  0  0  0  0  0  0  0  0  0  0  0
    4.9340   -3.0380   25.0440 C   0  0  0  0  0  0  0  0  0  0  0  0
    3.9350   -2.5130   24.5600 O   0  0  0  0  0  0  0  0  0  0  0  0
    5.1970   -3.0690   26.4300 N   0  0  0  0  0  0  0  0  0  0  0  0
    4.3580   -2.9630   27.5780 C   0  0  0  0  0  0  0  0  0  0  0  0
    4.5230   -3.7260   28.7360 C   0  0  0  0  0  0  0  0  0  0  0  0
    5.7400   -4.3620   28.9920 C   0  0  0  0  0  0  0  0  0  0  0  0
    6.4470   -4.6100   27.9040 C   0  0  0  0  0  0  0  0  0  0  0  0
    7.5360   -5.4850   27.8370 C   0  0  0  0  0  0  0  0  0  0  0  0
    8.2550   -5.6290   26.5400 C   0  0  0  0  0  0  0  0  0  0  0  0
    9.6870   -6.5550   26.4030 Br  0  0  0  0  0  0  0  0  0  0  0  0
    7.7720   -4.8780   25.3510 C   0  0  0  0  0  0  0  0  0  0  0  0
    6.7620   -4.0800   25.4680 C   0  0  0  0  0  0  0  0  0  0  0  0
    6.1860   -3.1380   24.1210 Cl  0  0  0  0  0  0  0  0  0  0  0  0
    6.1510   -3.9840   26.7620 C   0  0  0  0  0  0  0  0  0  0  0  0
    6.5470   -2.6850   23.1250 C   0  0  0  0  0  0  0  0  0  0  0  0
    7.4980   -3.3010   22.3300 C   0  0  0  0  0  0  0  0  0  0  0  0
  1  2  1  0
  2  3  2  0
  2  4  1  0
  4  5  1  0
  5  6  1  0
  6  7  1  0
  7  8  1  0
  8  9  2  0
  8 10  1  0
 10 11  1  0
 11 12  1  0
 12 13  1  0
 13 14  1  0
 14 15  2  0
 15 16  1  0
 16 17  1  0
 16 18  2  0
 18 19  1  0
 19 20  1  0
 10 21  1  0
 14 21  1  0
 19 21  2  0
  7 22  1  0
  4 23  1  0
 22 23  1  0
M  END
