piperidine-amides-10556-covalent
     RDKit          3D

 23 24  0  0  0  0  0  0  0  0999 V2000
    7.0350   -3.2990   19.3010 C   0  0  0  0  0  0  0  0  0  0  0  0
    6.3450   -4.0910   20.3290 C   0  0  0  0  0  0  0  0  0  0  0  0
    5.3230   -4.7200   19.9420 O   0  0  0  0  0  0  0  0  0  0  0  0
    6.8230   -4.1710   21.6450 N   0  0  0  0  0  0  0  0  0  0  0  0
    7.7170   -3.1740   22.2040 C   0  0  0  0  0  0  0  0  0  0  0  0
    7.3510   -2.9970   23.6450 C   0  0  0  0  0  0  0  0  0  0  0  0
    6.0140   -3.6230   23.9180 C   0  0  0  0  0  0  0  0  0  0  0  0
    5.4910   -3.2190   25.2460 C   0  0  0  0  0  0  0  0  0  0  0  0
    5.2090   -2.0190   25.4210 O   0  0  0  0  0  0  0  0  0  0  0  0
    5.2570   -4.1070   26.3150 N   0  0  0  0  0  0  0  0  0  0  0  0
    6.1540   -4.1950   27.4280 C   0  0  0  0  0  0  0  0  0  0  0  0
    5.5310   -4.0280   28.7790 C   0  0  0  0  0  0  0  0  0  0  0  0
    4.1940   -4.1890   29.0400 C   0  0  0  0  0  0  0  0  0  0  0  0
    3.3550   -3.1020   29.1990 C   0  0  0  0  0  0  0  0  0  0  0  0
    2.0110   -3.2860   29.4620 C   0  0  0  0  0  0  0  0  0  0  0  0
    0.8460   -1.7960   29.6830 Br  0  0  0  0  0  0  0  0  0  0  0  0
    1.5390   -4.5790   29.5600 C   0  0  0  0  0  0  0  0  0  0  0  0
    2.3530   -5.6770   29.4070 C   0  0  0  0  0  0  0  0  0  0  0  0
    1.8470   -6.9790   29.5150 O   0  0  0  0  0  0  0  0  0  0  0  0
    2.0910   -8.2910   29.4390 C   0  0  0  0  0  0  0  0  0  0  0  0
    3.6760   -5.4570   29.1470 C   0  0  0  0  0  0  0  0  0  0  0  0
    6.0660   -5.1490   23.7350 C   0  0  0  0  0  0  0  0  0  0  0  0
    6.6890   -5.4340   22.3700 C   0  0  0  0  0  0  0  0  0  0  0  0
  1  2  1  0
  2  3  2  0
  2  4  1  0
  4  5  1  0
  5  6  1  0
  6  7  1  0
  7  8  1  0
  8  9  2  0
  8 10  1  0
 10 11  1  0
 11 12  1  0
 12 13  1  0
 13 14  2  0
 14 15  1  0
 15 16  1  0
 15 17  2  0
 17 18  1  0
 18 19  1  0
 19 20  1  0
 13 21  1  0
 18 21  2  0
  7 22  1  0
  4 23  1  0
 22 23  1  0
M  END
