piperidine-amides-13471-covalent
     RDKit          3D

 29 31  0  0  0  0  0  0  0  0999 V2000
    7.1090   -3.2720   19.2580 C   0  0  0  0  0  0  0  0  0  0  0  0
    6.3520   -4.0580   20.2710 C   0  0  0  0  0  0  0  0  0  0  0  0
    5.3190   -4.6550   19.9250 O   0  0  0  0  0  0  0  0  0  0  0  0
    6.8560   -4.1410   21.5870 N   0  0  0  0  0  0  0  0  0  0  0  0
    7.7040   -3.0990   22.1340 C   0  0  0  0  0  0  0  0  0  0  0  0
    7.5520   -3.0880   23.6580 C   0  0  0  0  0  0  0  0  0  0  0  0
    6.1710   -3.5560   23.9560 C   0  0  0  0  0  0  0  0  0  0  0  0
    5.6880   -3.2590   25.3220 C   0  0  0  0  0  0  0  0  0  0  0  0
    4.4860   -3.4660   25.5220 O   0  0  0  0  0  0  0  0  0  0  0  0
    6.5550   -2.7690   26.3070 N   0  0  0  0  0  0  0  0  0  0  0  0
    6.6060   -1.4410   26.8170 C   0  0  0  0  0  0  0  0  0  0  0  0
    5.8970   -0.9960   27.9110 C   0  0  1  0  0  0  0  0  0  0  0  0
    4.8090   -1.7590   28.3520 C   0  0  0  0  0  0  0  0  0  0  0  0
    4.7390   -1.6490   29.7010 C   0  0  0  0  0  0  0  0  0  0  0  0
    3.8960   -2.1110   30.6130 O   0  0  0  0  0  0  0  0  0  0  0  0
    5.7920   -0.9070   30.0960 N   0  0  0  0  0  0  0  0  0  0  0  0
    5.7500   -0.0360   31.1290 C   0  0  0  0  0  0  0  0  0  0  0  0
    5.0390    1.3020   30.8810 C   0  0  0  0  0  0  0  0  0  0  0  0
    6.9590    0.1080   31.7360 C   0  0  0  0  0  0  0  0  0  0  0  0
    4.8440   -0.5330   32.2120 C   0  0  0  0  0  0  0  0  0  0  0  0
    6.6450   -0.5840   28.9960 C   0  0  2  0  0  0  0  0  0  0  0  0
    6.6560    0.8530   28.4920 C   0  0  0  0  0  0  0  0  0  0  0  0
    5.5400    1.6000   28.2450 C   0  0  0  0  0  0  0  0  0  0  0  0
    5.9180    2.8130   27.8150 N   0  0  0  0  0  0  0  0  0  0  0  0
    7.2260    2.8710   27.7800 N   0  0  0  0  0  0  0  0  0  0  0  0
    8.0850    3.9750   27.3820 C   0  0  0  0  0  0  0  0  0  0  0  0
    7.7100    1.6860   28.1900 C   0  0  0  0  0  0  0  0  0  0  0  0
    6.0600   -5.0390   23.7030 C   0  0  0  0  0  0  0  0  0  0  0  0
    6.6110   -5.3620   22.3590 C   0  0  0  0  0  0  0  0  0  0  0  0
  1  2  1  0
  2  3  2  0
  2  4  1  0
  4  5  1  0
  5  6  1  0
  6  7  1  0
  7  8  1  0
  8  9  2  0
  8 10  1  0
 10 11  1  0
 12 11  1  6
 12 13  1  0
 13 14  1  0
 14 15  2  0
 14 16  1  0
 16 17  1  0
 17 18  1  0
 17 19  1  0
 17 20  1  0
 12 21  1  0
 16 21  1  0
 21 22  1  6
 22 23  1  0
 23 24  2  0
 24 25  1  0
 25 26  1  0
 22 27  2  0
 25 27  1  0
  7 28  1  0
  4 29  1  0
 28 29  1  0
M  END
