piperidine-amides-2793-covalent
     RDKit          3D

 24 25  0  0  0  0  0  0  0  0999 V2000
    7.1310   -3.2740   19.2590 C   0  0  0  0  0  0  0  0  0  0  0  0
    6.3220   -3.9990   20.2300 C   0  0  0  0  0  0  0  0  0  0  0  0
    5.2700   -4.5280   19.8810 O   0  0  0  0  0  0  0  0  0  0  0  0
    6.7850   -4.1390   21.5800 N   0  0  0  0  0  0  0  0  0  0  0  0
    6.4900   -5.3400   22.3060 C   0  0  0  0  0  0  0  0  0  0  0  0
    5.8260   -4.9900   23.6080 C   0  0  0  0  0  0  0  0  0  0  0  0
    6.5850   -3.8370   24.2470 C   0  0  0  0  0  0  0  0  0  0  0  0
    5.8330   -3.4360   25.4740 C   0  0  0  0  0  0  0  0  0  0  0  0
    5.2920   -2.3190   25.6130 O   0  0  0  0  0  0  0  0  0  0  0  0
    5.7020   -4.4100   26.4970 N   0  0  0  0  0  0  0  0  0  0  0  0
    6.0640   -4.1850   27.8880 C   0  0  0  0  0  0  0  0  0  0  0  0
    5.9860   -2.7380   28.2920 C   0  0  0  0  0  0  0  0  0  0  0  0
    6.5540   -1.6990   27.5720 C   0  0  0  0  0  0  0  0  0  0  0  0
    6.4410   -0.3690   28.0190 C   0  0  0  0  0  0  0  0  0  0  0  0
    5.7650   -0.0620   29.1840 C   0  0  0  0  0  0  0  0  0  0  0  0
    5.5670    1.2580   29.7720 C   0  0  0  0  0  0  0  0  0  0  0  0
    5.1630   -0.9960   29.9760 C   0  0  0  0  0  0  0  0  0  0  0  0
    4.3190   -0.6820   31.4080 S   0  0  0  0  0  0  0  0  0  0  0  0
    2.8020    0.1900   31.2600 C   0  0  0  0  0  0  0  0  0  0  0  0
    5.2430    0.0540   32.3160 O   0  0  0  0  0  0  0  0  0  0  0  0
    4.0140   -1.9850   32.0500 O   0  0  0  0  0  0  0  0  0  0  0  0
    5.3180   -2.3960   29.4470 C   0  0  0  0  0  0  0  0  0  0  0  0
    6.8870   -2.7140   23.3780 C   0  0  0  0  0  0  0  0  0  0  0  0
    7.5690   -3.1240   22.2450 C   0  0  0  0  0  0  0  0  0  0  0  0
  1  2  1  0
  2  3  2  0
  2  4  1  0
  4  5  1  0
  5  6  1  0
  6  7  1  0
  7  8  1  0
  8  9  2  0
  8 10  1  0
 10 11  1  0
 11 12  1  0
 12 13  2  0
 13 14  1  0
 14 15  2  0
 15 16  1  0
 15 17  1  0
 17 18  1  0
 18 19  1  0
 18 20  2  0
 18 21  2  0
 12 22  1  0
 17 22  2  0
  7 23  1  0
  4 24  1  0
 23 24  1  0
M  END
