piperidine-amides-30735-covalent
     RDKit          3D

 27 29  0  0  0  0  0  0  0  0999 V2000
    7.0520   -3.3560   19.3620 C   0  0  0  0  0  0  0  0  0  0  0  0
    6.3950   -4.2200   20.3440 C   0  0  0  0  0  0  0  0  0  0  0  0
    5.3880   -4.8580   19.9890 O   0  0  0  0  0  0  0  0  0  0  0  0
    6.8970   -4.3990   21.6500 N   0  0  0  0  0  0  0  0  0  0  0  0
    7.7270   -3.4280   22.3260 C   0  0  0  0  0  0  0  0  0  0  0  0
    6.9340   -2.9210   23.5080 C   0  0  0  0  0  0  0  0  0  0  0  0
    6.2440   -3.9970   24.3200 C   0  0  0  0  0  0  0  0  0  0  0  0
    5.3320   -3.3900   25.3440 C   0  0  0  0  0  0  0  0  0  0  0  0
    4.4660   -2.5590   24.9650 O   0  0  0  0  0  0  0  0  0  0  0  0
    5.3350   -3.6590   26.7460 N   0  0  0  0  0  0  0  0  0  0  0  0
    6.5040   -3.3730   27.4960 C   0  0  0  0  0  0  0  0  0  0  0  0
    6.6950   -4.5810   28.3390 C   0  0  0  0  0  0  0  0  0  0  0  0
    5.5540   -4.9230   29.1580 C   0  0  0  0  0  0  0  0  0  0  0  0
    5.7270   -6.3260   29.7100 C   0  0  0  0  0  0  0  0  0  0  0  0
    4.4590   -6.7370   30.4470 C   0  0  0  0  0  0  0  0  0  0  0  0
    4.6590   -6.4980   31.8860 N   0  0  0  0  0  0  0  0  0  0  0  0
    3.5710   -5.6110   32.2770 C   0  0  0  0  0  0  0  0  0  0  0  0
    3.4850   -5.5690   33.6550 C   0  0  2  0  0  0  0  0  0  0  0  0
    2.9830   -4.3790   34.1910 C   0  0  0  0  0  0  0  0  0  0  0  0
    4.5950   -5.7950   34.2430 O   0  0  0  0  0  0  0  0  0  0  0  0
    5.0230   -7.1290   34.1090 C   0  0  2  0  0  0  0  0  0  0  0  0
    6.4330   -7.0950   34.7150 C   0  0  0  0  0  0  0  0  0  0  0  0
    5.1030   -7.6040   32.6600 C   0  0  0  0  0  0  0  0  0  0  0  0
    4.2840   -4.7070   28.6080 C   0  0  0  0  0  0  0  0  0  0  0  0
    4.2670   -3.5620   27.6440 C   0  0  0  0  0  0  0  0  0  0  0  0
    5.5460   -5.0470   23.4690 C   0  0  0  0  0  0  0  0  0  0  0  0
    6.5090   -5.5500   22.3980 C   0  0  0  0  0  0  0  0  0  0  0  0
  1  2  1  0
  2  3  2  0
  2  4  1  0
  4  5  1  0
  5  6  1  0
  6  7  1  0
  7  8  1  0
  8  9  2  0
  8 10  1  0
 10 11  1  0
 11 12  1  0
 12 13  1  0
 13 14  1  0
 14 15  1  0
 15 16  1  0
 16 17  1  0
 17 18  1  0
 18 19  1  6
 18 20  1  0
 20 21  1  0
 21 22  1  6
 16 23  1  0
 21 23  1  0
 13 24  1  0
 10 25  1  0
 24 25  1  0
  7 26  1  0
  4 27  1  0
 26 27  1  0
M  END
