piperidine-amides-11352-covalent
     RDKit          3D

 22 24  0  0  0  0  0  0  0  0999 V2000
    7.0480   -3.3280   19.2920 C   0  0  0  0  0  0  0  0  0  0  0  0
    6.3630   -4.1300   20.3060 C   0  0  0  0  0  0  0  0  0  0  0  0
    5.3730   -4.8070   19.9720 O   0  0  0  0  0  0  0  0  0  0  0  0
    6.8270   -4.1850   21.6350 N   0  0  0  0  0  0  0  0  0  0  0  0
    7.7310   -3.1790   22.1730 C   0  0  0  0  0  0  0  0  0  0  0  0
    7.4690   -3.1050   23.6520 C   0  0  0  0  0  0  0  0  0  0  0  0
    6.1100   -3.6330   23.9720 C   0  0  0  0  0  0  0  0  0  0  0  0
    5.6590   -3.3400   25.3550 C   0  0  0  0  0  0  0  0  0  0  0  0
    4.4250   -3.3900   25.6280 O   0  0  0  0  0  0  0  0  0  0  0  0
    6.5360   -2.9920   26.4090 N   0  0  0  0  0  0  0  0  0  0  0  0
    6.2170   -1.8200   27.2690 C   0  0  2  0  0  0  0  0  0  0  0  0
    5.0740   -2.0730   28.1410 C   0  0  0  0  0  0  0  0  0  0  0  0
    4.6600   -0.9820   28.5530 O   0  0  0  0  0  0  0  0  0  0  0  0
    5.2000   -0.0130   27.7810 C   0  0  2  0  0  0  0  0  0  0  0  0
    5.9540   -0.5100   26.5560 C   0  0  0  0  0  0  0  0  0  0  0  0
    6.2370    0.6600   28.6530 C   0  0  2  0  0  0  0  0  0  0  0  0
    7.0970    1.3550   28.0120 O   0  0  0  0  0  0  0  0  0  0  0  0
    6.7910   -0.6310   29.1690 C   0  0  2  0  0  0  0  0  0  0  0  0
    7.8850   -0.3450   29.9340 O   0  0  0  0  0  0  0  0  0  0  0  0
    7.3540   -1.4870   28.2370 C   0  0  0  0  0  0  0  0  0  0  0  0
    6.0260   -5.1140   23.7100 C   0  0  0  0  0  0  0  0  0  0  0  0
    6.6850   -5.4250   22.3810 C   0  0  0  0  0  0  0  0  0  0  0  0
  1  2  1  0
  2  3  2  0
  2  4  1  0
  4  5  1  0
  5  6  1  0
  6  7  1  0
  7  8  1  0
  8  9  2  0
  8 10  1  0
 11 10  1  6
 11 12  1  0
 12 13  1  0
 14 13  1  1
 11 15  1  0
 14 15  1  0
 14 16  1  0
 16 17  1  6
 16 18  1  0
 18 19  1  1
 11 20  1  0
 18 20  1  0
  7 21  1  0
  4 22  1  0
 21 22  1  0
M  END
