piperidine-amides-11089-covalent
     RDKit          3D

 20 21  0  0  0  0  0  0  0  0999 V2000
    7.1220   -3.2590   19.1560 C   0  0  0  0  0  0  0  0  0  0  0  0
    6.3510   -3.9730   20.1760 C   0  0  0  0  0  0  0  0  0  0  0  0
    5.2820   -4.5210   19.8710 O   0  0  0  0  0  0  0  0  0  0  0  0
    6.8310   -4.0910   21.4820 N   0  0  0  0  0  0  0  0  0  0  0  0
    7.7500   -3.1480   22.0750 C   0  0  0  0  0  0  0  0  0  0  0  0
    7.0630   -2.6410   23.3010 C   0  0  0  0  0  0  0  0  0  0  0  0
    6.6410   -3.7670   24.1950 C   0  0  0  0  0  0  0  0  0  0  0  0
    5.9200   -3.2560   25.3750 C   0  0  0  0  0  0  0  0  0  0  0  0
    4.6910   -2.9460   25.3030 O   0  0  0  0  0  0  0  0  0  0  0  0
    6.5590   -3.0990   26.6200 N   0  0  0  0  0  0  0  0  0  0  0  0
    6.7530   -4.2880   27.4680 C   0  0  0  0  0  0  0  0  0  0  0  0
    5.4660   -4.7170   28.0800 C   0  0  0  0  0  0  0  0  0  0  0  0
    5.5320   -6.0580   28.0180 N   0  0  0  0  0  0  0  0  0  0  0  0
    4.5580   -6.9290   27.4740 C   0  0  0  0  0  0  0  0  0  0  0  0
    6.0030   -6.8000   29.2240 C   0  0  0  0  0  0  0  0  0  0  0  0
    7.8090   -4.5330   28.3720 C   0  0  0  0  0  0  0  0  0  0  0  0
    8.3870   -5.5890   27.5610 C   0  0  0  0  0  0  0  0  0  0  0  0
    7.3940   -5.4690   26.6510 C   0  0  0  0  0  0  0  0  0  0  0  0
    5.7740   -4.7760   23.4730 C   0  0  0  0  0  0  0  0  0  0  0  0
    6.5160   -5.2730   22.2550 C   0  0  0  0  0  0  0  0  0  0  0  0
  1  2  1  0
  2  3  2  0
  2  4  1  0
  4  5  1  0
  5  6  1  0
  6  7  1  0
  7  8  1  0
  8  9  2  0
  8 10  1  0
 11 10  1  0
 11 12  1  0
 12 13  1  0
 13 14  1  0
 13 15  1  0
 11 16  1  0
 16 17  1  0
 11 18  1  0
 17 18  1  0
  7 19  1  0
  4 20  1  0
 19 20  1  0
M  END
