piperidine-amides-14110-covalent
     RDKit          3D

 25 27  0  0  0  0  0  0  0  0999 V2000
    7.0900   -3.3360   19.3270 C   0  0  0  0  0  0  0  0  0  0  0  0
    6.3990   -4.2010   20.3170 C   0  0  0  0  0  0  0  0  0  0  0  0
    5.3660   -4.8010   19.9720 O   0  0  0  0  0  0  0  0  0  0  0  0
    6.9610   -4.3680   21.6010 N   0  0  0  0  0  0  0  0  0  0  0  0
    6.6560   -5.4900   22.4430 C   0  0  0  0  0  0  0  0  0  0  0  0
    5.7510   -4.9680   23.5650 C   0  0  0  0  0  0  0  0  0  0  0  0
    6.4380   -3.8370   24.2680 C   0  0  0  0  0  0  0  0  0  0  0  0
    5.5010   -3.0500   25.0950 C   0  0  0  0  0  0  0  0  0  0  0  0
    4.8570   -3.6490   25.9580 O   0  0  0  0  0  0  0  0  0  0  0  0
    5.3710   -1.6810   24.8430 N   0  0  0  0  0  0  0  0  0  0  0  0
    5.3810   -0.6060   25.7650 C   0  0  0  0  0  0  0  0  0  0  0  0
    4.8050    0.6360   25.6580 C   0  0  0  0  0  0  0  0  0  0  0  0
    4.8850    1.6530   26.6610 C   0  0  0  0  0  0  0  0  0  0  0  0
    5.5570    1.4850   27.8490 C   0  0  0  0  0  0  0  0  0  0  0  0
    6.1810    0.1980   28.0140 C   0  0  0  0  0  0  0  0  0  0  0  0
    6.0400   -0.8150   26.8940 C   0  0  0  0  0  0  0  0  0  0  0  0
    6.7660   -1.8930   27.3940 C   0  0  0  0  0  0  0  0  0  0  0  0
    7.4830   -1.3930   28.3300 N   0  0  0  0  0  0  0  0  0  0  0  0
    8.0940   -2.3500   28.7310 C   0  0  0  0  0  0  0  0  0  0  0  0
    8.8660   -1.7340   29.7660 C   0  0  0  0  0  0  0  0  0  0  0  0
    7.8190   -3.5480   28.0870 C   0  0  0  0  0  0  0  0  0  0  0  0
    8.3730   -4.7620   28.3560 C   0  0  0  0  0  0  0  0  0  0  0  0
    6.9230   -3.2250   27.1890 N   0  0  0  0  0  0  0  0  0  0  0  0
    7.1040   -2.8090   23.3980 C   0  0  0  0  0  0  0  0  0  0  0  0
    7.8040   -3.3370   22.1820 C   0  0  0  0  0  0  0  0  0  0  0  0
  1  2  1  0
  2  3  2  0
  2  4  1  0
  4  5  1  0
  5  6  1  0
  6  7  1  0
  7  8  1  0
  8  9  2  0
  8 10  1  0
 10 11  1  0
 11 12  2  0
 12 13  1  0
 13 14  2  0
 14 15  1  0
 11 16  1  0
 15 16  2  0
 16 17  1  0
 17 18  2  0
 18 19  1  0
 19 20  1  0
 19 21  2  0
 21 22  1  0
 17 23  1  0
 21 23  1  0
  7 24  1  0
  4 25  1  0
 24 25  1  0
M  END
