piperidine-amides-13283-covalent
     RDKit          3D

 23 24  0  0  0  0  0  0  0  0999 V2000
    7.1250   -3.3090   19.3000 C   0  0  0  0  0  0  0  0  0  0  0  0
    6.3720   -4.0740   20.3170 C   0  0  0  0  0  0  0  0  0  0  0  0
    5.3190   -4.6170   19.9190 O   0  0  0  0  0  0  0  0  0  0  0  0
    6.8580   -4.2120   21.6330 N   0  0  0  0  0  0  0  0  0  0  0  0
    7.6660   -3.1790   22.2160 C   0  0  0  0  0  0  0  0  0  0  0  0
    7.2870   -2.8540   23.5900 C   0  0  0  0  0  0  0  0  0  0  0  0
    6.0600   -3.5620   24.0000 C   0  0  0  0  0  0  0  0  0  0  0  0
    5.5910   -3.2050   25.3720 C   0  0  0  0  0  0  0  0  0  0  0  0
    4.3670   -3.0270   25.5000 O   0  0  0  0  0  0  0  0  0  0  0  0
    6.4330   -3.0600   26.4960 N   0  0  0  0  0  0  0  0  0  0  0  0
    6.3020   -3.9070   27.7180 C   0  0  0  0  0  0  0  0  0  0  0  0
    5.1440   -3.5520   28.5730 C   0  0  0  0  0  0  0  0  0  0  0  0
    4.2570   -4.6020   29.1050 C   0  0  0  0  0  0  0  0  0  0  0  0
    4.5670   -6.2440   28.7350 S   0  0  0  0  0  0  0  0  0  0  0  0
    6.2970   -6.4460   28.9350 C   0  0  0  0  0  0  0  0  0  0  0  0
    3.8330   -7.0170   29.7640 O   0  0  0  0  0  0  0  0  0  0  0  0
    4.1710   -6.5660   27.3470 O   0  0  0  0  0  0  0  0  0  0  0  0
    3.2270   -3.8620   29.9070 C   0  0  0  0  0  0  0  0  0  0  0  0
    3.5980   -2.5070   29.7750 N   0  0  0  0  0  0  0  0  0  0  0  0
    4.6720   -2.3260   29.0300 N   0  0  0  0  0  0  0  0  0  0  0  0
    5.3490   -1.0690   28.6770 C   0  0  0  0  0  0  0  0  0  0  0  0
    6.0450   -5.0370   23.7190 C   0  0  0  0  0  0  0  0  0  0  0  0
    6.5690   -5.3410   22.4860 C   0  0  0  0  0  0  0  0  0  0  0  0
  1  2  1  0
  2  3  2  0
  2  4  1  0
  4  5  1  0
  5  6  1  0
  6  7  1  0
  7  8  1  0
  8  9  2  0
  8 10  1  0
 10 11  1  0
 11 12  1  0
 12 13  2  0
 13 14  1  0
 14 15  1  0
 14 16  2  0
 14 17  2  0
 13 18  1  0
 18 19  2  0
 12 20  1  0
 19 20  1  0
 20 21  1  0
  7 22  1  0
  4 23  1  0
 22 23  1  0
M  END
