piperidine-amides-29552-covalent
     RDKit          3D

 27 30  0  0  0  0  0  0  0  0999 V2000
    7.0650   -3.3920   19.3590 C   0  0  0  0  0  0  0  0  0  0  0  0
    6.3520   -4.2020   20.3320 C   0  0  0  0  0  0  0  0  0  0  0  0
    5.3650   -4.8460   19.9820 O   0  0  0  0  0  0  0  0  0  0  0  0
    6.8420   -4.3010   21.6800 N   0  0  0  0  0  0  0  0  0  0  0  0
    7.7290   -3.2810   22.2030 C   0  0  0  0  0  0  0  0  0  0  0  0
    7.5220   -3.0980   23.6730 C   0  0  0  0  0  0  0  0  0  0  0  0
    6.1780   -3.7160   23.9830 C   0  0  0  0  0  0  0  0  0  0  0  0
    5.6120   -3.2650   25.2900 C   0  0  0  0  0  0  0  0  0  0  0  0
    4.6230   -2.5220   25.3380 O   0  0  0  0  0  0  0  0  0  0  0  0
    6.1640   -3.6770   26.5190 N   0  0  0  0  0  0  0  0  0  0  0  0
    6.1130   -2.7300   27.5920 C   0  0  0  0  0  0  0  0  0  0  0  0
    5.9580   -3.6930   28.7160 C   0  0  0  0  0  0  0  0  0  0  0  0
    5.8300   -4.9950   28.2920 C   0  0  1  0  0  0  0  0  0  0  0  0
    6.7220   -5.8980   28.8780 C   0  0  0  0  0  0  0  0  0  0  0  0
    6.0070   -6.7130   29.7310 C   0  0  0  0  0  0  0  0  0  0  0  0
    4.6490   -6.4500   29.4970 N   0  0  0  0  0  0  0  0  0  0  0  0
    3.7980   -7.5440   29.1220 C   0  0  0  0  0  0  0  0  0  0  0  0
    2.4920   -7.1690   29.3610 C   0  0  0  0  0  0  0  0  0  0  0  0
    2.0400   -5.9400   29.8290 C   0  0  0  0  0  0  0  0  0  0  0  0
    0.7100   -5.6400   30.0400 C   0  0  0  0  0  0  0  0  0  0  0  0
   -0.2880   -6.6540   29.7650 C   0  0  0  0  0  0  0  0  0  0  0  0
    0.1140   -7.8860   29.3020 C   0  0  0  0  0  0  0  0  0  0  0  0
    1.4830   -8.1180   29.1110 C   0  0  0  0  0  0  0  0  0  0  0  0
    4.5180   -5.3230   28.6710 C   0  0  0  0  0  0  0  0  0  0  0  0
    5.8550   -5.0180   26.9080 C   0  0  0  0  0  0  0  0  0  0  0  0
    6.2070   -5.1930   23.7640 C   0  0  0  0  0  0  0  0  0  0  0  0
    6.6820   -5.5520   22.3940 C   0  0  0  0  0  0  0  0  0  0  0  0
  1  2  1  0
  2  3  2  0
  2  4  1  0
  4  5  1  0
  5  6  1  0
  6  7  1  0
  7  8  1  0
  8  9  2  0
  8 10  1  0
 10 11  1  0
 11 12  1  0
 13 12  1  1
 13 14  1  0
 14 15  1  0
 15 16  1  0
 16 17  1  0
 17 18  1  0
 18 19  2  0
 19 20  1  0
 20 21  2  0
 21 22  1  0
 18 23  1  0
 22 23  2  0
 13 24  1  0
 16 24  1  0
 10 25  1  0
 13 25  1  0
  7 26  1  0
  4 27  1  0
 26 27  1  0
M  END
