piperidine-amides-31089-covalent
     RDKit          3D

 26 27  0  0  0  0  0  0  0  0999 V2000
    7.0970   -3.3120   19.2870 C   0  0  0  0  0  0  0  0  0  0  0  0
    6.3620   -4.1180   20.2610 C   0  0  0  0  0  0  0  0  0  0  0  0
    5.3030   -4.6660   19.9220 O   0  0  0  0  0  0  0  0  0  0  0  0
    6.8580   -4.3370   21.5490 N   0  0  0  0  0  0  0  0  0  0  0  0
    6.5690   -5.5590   22.2620 C   0  0  0  0  0  0  0  0  0  0  0  0
    5.7880   -5.1190   23.4670 C   0  0  0  0  0  0  0  0  0  0  0  0
    6.5370   -4.0630   24.2160 C   0  0  0  0  0  0  0  0  0  0  0  0
    5.7140   -3.4680   25.2940 C   0  0  0  0  0  0  0  0  0  0  0  0
    4.9670   -2.4880   25.0360 O   0  0  0  0  0  0  0  0  0  0  0  0
    5.6760   -3.9570   26.6200 N   0  0  0  0  0  0  0  0  0  0  0  0
    4.4840   -4.6250   27.0990 C   0  0  0  0  0  0  0  0  0  0  0  0
    4.8180   -5.1580   28.4350 C   0  0  0  0  0  0  0  0  0  0  0  0
    5.5930   -4.2970   29.3380 C   0  0  0  0  0  0  0  0  0  0  0  0
    4.9220   -3.0480   29.8590 C   0  0  0  0  0  0  0  0  0  0  0  0
    4.3240   -2.6020   28.7150 O   0  0  0  0  0  0  0  0  0  0  0  0
    4.7920   -0.8730   28.9240 Si  0  0  0  0  0  4  0  0  0  0  0  0
    6.7040   -0.9500   28.7490 C   0  0  0  0  0  0  0  0  0  0  0  0
    4.3970   -0.2620   30.5920 C   0  0  0  0  0  0  0  0  0  0  0  0
    4.1410    0.1320   27.5650 C   0  0  0  0  0  0  0  0  0  0  0  0
    4.1550   -0.6090   26.3770 C   0  0  0  0  0  0  0  0  0  0  0  0
    2.8410   -0.5180   27.0570 C   0  0  0  0  0  0  0  0  0  0  0  0
    2.7300    0.6900   27.9620 C   0  0  0  0  0  0  0  0  0  0  0  0
    6.7100   -4.1280   28.4130 C   0  0  0  0  0  0  0  0  0  0  0  0
    6.3680   -3.2650   27.6310 C   0  0  0  0  0  0  0  0  0  0  0  0
    7.0970   -2.9600   23.4140 C   0  0  0  0  0  0  0  0  0  0  0  0
    7.6500   -3.3540   22.2240 C   0  0  0  0  0  0  0  0  0  0  0  0
  1  2  1  0
  2  3  2  0
  2  4  1  0
  4  5  1  0
  5  6  1  0
  6  7  1  0
  7  8  1  0
  8  9  2  0
  8 10  1  0
 10 11  1  0
 11 12  1  0
 12 13  1  0
 13 14  1  0
 14 15  1  0
 16 15  1  0
 16 17  1  0
 16 18  1  0
 16 19  1  0
 19 20  1  0
 19 21  1  0
 19 22  1  0
 13 23  1  0
 10 24  1  0
 23 24  1  0
  7 25  1  0
  4 26  1  0
 25 26  1  0
M  END
