piperidine-amides-8126-covalent
     RDKit          3D

 26 28  0  0  0  0  0  0  0  0999 V2000
    7.2490   -3.3240   19.3220 C   0  0  0  0  0  0  0  0  0  0  0  0
    6.4310   -4.0760   20.2870 C   0  0  0  0  0  0  0  0  0  0  0  0
    5.3520   -4.5640   19.9060 O   0  0  0  0  0  0  0  0  0  0  0  0
    6.8880   -4.2700   21.6090 N   0  0  0  0  0  0  0  0  0  0  0  0
    7.7560   -3.2850   22.1850 C   0  0  0  0  0  0  0  0  0  0  0  0
    7.5890   -3.3250   23.6610 C   0  0  0  0  0  0  0  0  0  0  0  0
    6.1390   -3.6510   23.9030 C   0  0  0  0  0  0  0  0  0  0  0  0
    5.6950   -3.1850   25.2580 C   0  0  0  0  0  0  0  0  0  0  0  0
    4.4960   -3.2630   25.5100 O   0  0  0  0  0  0  0  0  0  0  0  0
    6.6880   -2.7150   26.1020 N   0  0  0  0  0  0  0  0  0  0  0  0
    6.5620   -1.5720   26.9470 C   0  0  0  0  0  0  0  0  0  0  0  0
    7.0220   -1.5560   28.2580 C   0  0  0  0  0  0  0  0  0  0  0  0
    6.9060   -0.4520   29.0680 C   0  0  0  0  0  0  0  0  0  0  0  0
    6.3220    0.7710   28.6970 C   0  0  0  0  0  0  0  0  0  0  0  0
    5.7940    0.8390   27.2820 C   0  0  0  0  0  0  0  0  0  0  0  0
    5.9330   -0.4030   26.3830 C   0  0  0  0  0  0  0  0  0  0  0  0
    5.4530   -0.2250   25.2260 O   0  0  0  0  0  0  0  0  0  0  0  0
    6.3370    0.2130   24.2610 C   0  0  0  0  0  0  0  0  0  0  0  0
    7.5720   -0.5990   23.9720 C   0  0  0  0  0  0  0  0  0  0  0  0
    8.4850   -0.0150   22.8760 C   0  0  0  0  0  0  0  0  0  0  0  0
    8.1950    1.1450   22.2240 C   0  0  0  0  0  0  0  0  0  0  0  0
    7.0660    1.8770   22.4960 C   0  0  0  0  0  0  0  0  0  0  0  0
    6.0860    1.4010   23.5590 C   0  0  0  0  0  0  0  0  0  0  0  0
    4.6480    2.3290   23.9070 Cl  0  0  0  0  0  0  0  0  0  0  0  0
    5.9770   -5.1610   23.6840 C   0  0  0  0  0  0  0  0  0  0  0  0
    6.6140   -5.4750   22.3390 C   0  0  0  0  0  0  0  0  0  0  0  0
  1  2  1  0
  2  3  2  0
  2  4  1  0
  4  5  1  0
  5  6  1  0
  6  7  1  0
  7  8  1  0
  8  9  2  0
  8 10  1  0
 10 11  1  0
 11 12  2  0
 12 13  1  0
 13 14  2  0
 14 15  1  0
 11 16  1  0
 15 16  2  0
 16 17  1  0
 17 18  1  0
 18 19  2  0
 19 20  1  0
 20 21  2  0
 21 22  1  0
 18 23  1  0
 22 23  2  0
 23 24  1  0
  7 25  1  0
  4 26  1  0
 25 26  1  0
M  END
