piperidine-amides-32346-covalent
     RDKit          3D

 28 30  0  0  0  0  0  0  0  0999 V2000
    7.0900   -3.3280   19.2840 C   0  0  0  0  0  0  0  0  0  0  0  0
    6.3900   -4.1740   20.2870 C   0  0  0  0  0  0  0  0  0  0  0  0
    5.3540   -4.7810   19.9600 O   0  0  0  0  0  0  0  0  0  0  0  0
    6.9530   -4.3070   21.5710 N   0  0  0  0  0  0  0  0  0  0  0  0
    6.7240   -5.5040   22.3410 C   0  0  0  0  0  0  0  0  0  0  0  0
    5.8590   -5.1110   23.5450 C   0  0  0  0  0  0  0  0  0  0  0  0
    5.9610   -3.6280   23.7230 C   0  0  0  0  0  0  0  0  0  0  0  0
    5.2800   -3.1250   24.9330 C   0  0  0  0  0  0  0  0  0  0  0  0
    4.6880   -2.0520   24.8300 O   0  0  0  0  0  0  0  0  0  0  0  0
    5.2990   -3.8420   26.1090 N   0  0  0  0  0  0  0  0  0  0  0  0
    4.6780   -5.0590   26.4080 C   0  0  0  0  0  0  0  0  0  0  0  0
    4.8190   -5.4040   27.7100 C   0  0  2  0  0  0  0  0  0  0  0  0
    3.7330   -5.2940   28.5920 C   0  0  0  0  0  0  0  0  0  0  0  0
    2.4550   -5.3140   28.0520 O   0  0  0  0  0  0  0  0  0  0  0  0
    5.8610   -4.4230   28.0570 C   0  0  0  0  0  0  0  0  0  0  0  0
    6.3930   -4.3880   29.4090 C   0  0  0  0  0  0  0  0  0  0  0  0
    7.6870   -4.6720   28.8450 N   0  0  0  0  0  0  0  0  0  0  0  0
    8.3550   -3.5780   28.2430 C   0  0  0  0  0  0  0  0  0  0  0  0
    8.9010   -2.4500   28.8210 O   0  0  0  0  0  0  0  0  0  0  0  0
    8.3210   -3.8370   26.8950 O   0  0  0  0  0  0  0  0  0  0  0  0
    8.0510   -5.1890   26.6140 C   0  0  0  0  0  0  0  0  0  0  0  0
    8.6820   -6.1320   27.4200 C   0  0  0  0  0  0  0  0  0  0  0  0
    8.3360   -5.5570   25.2210 C   0  0  0  0  0  0  0  0  0  0  0  0
    6.5880   -5.5510   26.7040 C   0  0  0  0  0  0  0  0  0  0  0  0
    7.1210   -5.0460   27.7830 C   0  0  0  0  0  0  0  0  0  0  0  0
    5.6000   -3.2650   27.3930 C   0  0  0  0  0  0  0  0  0  0  0  0
    7.3340   -3.0690   23.5950 C   0  0  0  0  0  0  0  0  0  0  0  0
    7.7610   -3.2490   22.1500 C   0  0  0  0  0  0  0  0  0  0  0  0
  1  2  1  0
  2  3  2  0
  2  4  1  0
  4  5  1  0
  5  6  1  0
  6  7  1  0
  7  8  1  0
  8  9  2  0
  8 10  1  0
 10 11  1  0
 11 12  1  0
 12 13  1  1
 13 14  1  0
 12 15  1  0
 15 16  1  0
 16 17  1  0
 17 18  1  0
 18 19  2  0
 18 20  1  0
 21 20  1  0
 21 22  1  0
 21 23  1  0
 21 24  1  0
 15 25  1  0
 17 25  1  0
 10 26  1  0
 15 26  1  0
  7 27  1  0
  4 28  1  0
 27 28  1  0
M  END
