piperidine-amides-11251-covalent
     RDKit          3D

 19 20  0  0  0  0  0  0  0  0999 V2000
    7.1710   -3.2600   19.1690 C   0  0  0  0  0  0  0  0  0  0  0  0
    6.3860   -3.9870   20.1660 C   0  0  0  0  0  0  0  0  0  0  0  0
    5.2890   -4.4740   19.8560 O   0  0  0  0  0  0  0  0  0  0  0  0
    6.8850   -4.1960   21.4520 N   0  0  0  0  0  0  0  0  0  0  0  0
    7.7930   -3.2630   22.0780 C   0  0  0  0  0  0  0  0  0  0  0  0
    7.0100   -2.6590   23.1930 C   0  0  0  0  0  0  0  0  0  0  0  0
    6.4530   -3.7420   24.0560 C   0  0  0  0  0  0  0  0  0  0  0  0
    5.8120   -3.2060   25.2600 C   0  0  0  0  0  0  0  0  0  0  0  0
    4.5520   -3.2030   25.3870 O   0  0  0  0  0  0  0  0  0  0  0  0
    6.5820   -2.6660   26.3110 N   0  0  0  0  0  0  0  0  0  0  0  0
    5.9390   -2.3910   27.5950 C   0  0  0  0  0  0  0  0  0  0  0  0
    6.8090   -2.8480   28.6900 C   0  0  0  0  0  0  0  0  0  0  0  0
    6.9350   -4.0610   28.9250 O   0  0  0  0  0  0  0  0  0  0  0  0
    6.2570   -4.9200   28.1660 C   0  0  0  0  0  0  0  0  0  0  0  0
    6.6230   -6.3560   28.0200 C   0  0  0  0  0  0  0  0  0  0  0  0
    5.3370   -6.8950   28.6310 C   0  0  0  0  0  0  0  0  0  0  0  0
    4.9560   -5.4800   28.7780 C   0  0  0  0  0  0  0  0  0  0  0  0
    5.5530   -4.6450   23.2480 C   0  0  0  0  0  0  0  0  0  0  0  0
    6.2920   -5.2560   22.2330 C   0  0  0  0  0  0  0  0  0  0  0  0
  1  2  1  0
  2  3  2  0
  2  4  1  0
  4  5  1  0
  5  6  1  0
  6  7  1  0
  7  8  1  0
  8  9  2  0
  8 10  1  0
 10 11  1  0
 11 12  1  0
 12 13  1  0
 13 14  1  0
 14 15  1  0
 15 16  1  0
 14 17  1  0
 16 17  1  0
  7 18  1  0
  4 19  1  0
 18 19  1  0
M  END
