piperidine-amides-6962-covalent
     RDKit          3D

 22 23  0  0  0  0  0  0  0  0999 V2000
    7.1220   -3.2980   19.3160 C   0  0  0  0  0  0  0  0  0  0  0  0
    6.3390   -4.0690   20.2930 C   0  0  0  0  0  0  0  0  0  0  0  0
    5.3060   -4.6750   19.9310 O   0  0  0  0  0  0  0  0  0  0  0  0
    6.7690   -4.1690   21.6250 N   0  0  0  0  0  0  0  0  0  0  0  0
    7.6270   -3.1230   22.1710 C   0  0  0  0  0  0  0  0  0  0  0  0
    7.3710   -2.9780   23.6840 C   0  0  0  0  0  0  0  0  0  0  0  0
    6.0350   -3.6220   23.9620 C   0  0  0  0  0  0  0  0  0  0  0  0
    5.5970   -3.3790   25.3530 C   0  0  0  0  0  0  0  0  0  0  0  0
    4.3690   -3.3360   25.5660 O   0  0  0  0  0  0  0  0  0  0  0  0
    6.5350   -3.1930   26.3910 N   0  0  0  0  0  0  0  0  0  0  0  0
    6.3700   -3.8130   27.6900 C   0  0  2  0  0  0  0  0  0  0  0  0
    5.7470   -5.1900   27.5320 C   0  0  0  0  0  0  0  0  0  0  0  0
    5.6720   -2.8500   28.5750 C   0  0  0  0  0  0  0  0  0  0  0  0
    6.3100   -1.8810   29.2450 C   0  0  0  0  0  0  0  0  0  0  0  0
    5.5970   -1.0410   30.0380 C   0  0  0  0  0  0  0  0  0  0  0  0
    6.4080    0.2430   30.9320 Cl  0  0  0  0  0  0  0  0  0  0  0  0
    4.2380   -1.2030   30.1350 C   0  0  0  0  0  0  0  0  0  0  0  0
    3.2700   -2.2130   29.4870 C   0  0  0  0  0  0  0  0  0  0  0  0
    4.3120   -3.0070   28.6760 C   0  0  0  0  0  0  0  0  0  0  0  0
    3.7840   -4.0230   27.9500 F   0  0  0  0  0  0  0  0  0  0  0  0
    6.0280   -5.0630   23.6880 C   0  0  0  0  0  0  0  0  0  0  0  0
    6.5460   -5.3680   22.3620 C   0  0  0  0  0  0  0  0  0  0  0  0
  1  2  1  0
  2  3  2  0
  2  4  1  0
  4  5  1  0
  5  6  1  0
  6  7  1  0
  7  8  1  0
  8  9  2  0
  8 10  1  0
 10 11  1  0
 11 12  1  6
 11 13  1  0
 13 14  2  0
 14 15  1  0
 15 16  1  0
 15 17  2  0
 17 18  1  0
 13 19  1  0
 18 19  2  0
 19 20  1  0
  7 21  1  0
  4 22  1  0
 21 22  1  0
M  END
