piperidine-amides-1812-covalent
     RDKit          3D

 19 21  0  0  0  0  0  0  0  0999 V2000
    7.0350   -3.3420   19.3670 C   0  0  0  0  0  0  0  0  0  0  0  0
    6.3940   -4.2130   20.3870 C   0  0  0  0  0  0  0  0  0  0  0  0
    5.4340   -4.8870   20.0020 O   0  0  0  0  0  0  0  0  0  0  0  0
    6.9120   -4.2640   21.6950 N   0  0  0  0  0  0  0  0  0  0  0  0
    7.7150   -3.1810   22.2390 C   0  0  0  0  0  0  0  0  0  0  0  0
    7.3800   -2.9050   23.6870 C   0  0  0  0  0  0  0  0  0  0  0  0
    6.0200   -3.5200   24.0120 C   0  0  0  0  0  0  0  0  0  0  0  0
    5.5600   -3.1130   25.3680 C   0  0  0  0  0  0  0  0  0  0  0  0
    4.3510   -2.9080   25.5250 O   0  0  0  0  0  0  0  0  0  0  0  0
    6.4200   -2.9610   26.4810 N   0  0  0  0  0  0  0  0  0  0  0  0
    6.7380   -1.6410   27.0220 C   0  0  1  0  0  0  0  0  0  0  0  0
    5.5870   -0.6620   26.7120 C   0  0  0  0  0  0  0  0  0  0  0  0
    5.4380    0.5840   27.3130 C   0  0  0  0  0  0  0  0  0  0  0  0
    6.2060    0.7590   28.4050 C   0  0  1  0  0  0  0  0  0  0  0  0
    6.5190    0.1240   29.4780 C   0  0  0  0  0  0  0  0  0  0  0  0
    5.9880   -0.8310   28.7790 C   0  0  2  0  0  0  0  0  0  0  0  0
    7.1550   -1.6670   28.4940 C   0  0  0  0  0  0  0  0  0  0  0  0
    6.0030   -4.9820   23.8270 C   0  0  0  0  0  0  0  0  0  0  0  0
    6.5510   -5.4000   22.5070 C   0  0  0  0  0  0  0  0  0  0  0  0
  1  2  1  0
  2  3  2  0
  2  4  1  0
  4  5  1  0
  5  6  1  0
  6  7  1  0
  7  8  1  0
  8  9  2  0
  8 10  1  0
 11 10  1  1
 11 12  1  0
 12 13  1  0
 14 13  1  1
 14 15  1  0
 14 16  1  0
 16 15  1  1
 11 17  1  0
 16 17  1  0
  7 18  1  0
  4 19  1  0
 18 19  1  0
M  END
