piperidine-amides-2497-covalent
     RDKit          3D

 26 28  0  0  0  0  0  0  0  0999 V2000
    7.0330   -3.2940   19.3440 C   0  0  0  0  0  0  0  0  0  0  0  0
    6.3250   -4.1210   20.3600 C   0  0  0  0  0  0  0  0  0  0  0  0
    5.3630   -4.7760   19.9620 O   0  0  0  0  0  0  0  0  0  0  0  0
    6.7650   -4.1640   21.6930 N   0  0  0  0  0  0  0  0  0  0  0  0
    7.6540   -3.1680   22.2360 C   0  0  0  0  0  0  0  0  0  0  0  0
    7.3020   -2.9490   23.6760 C   0  0  0  0  0  0  0  0  0  0  0  0
    5.9750   -3.6560   23.9330 C   0  0  0  0  0  0  0  0  0  0  0  0
    5.5190   -3.4130   25.3290 C   0  0  0  0  0  0  0  0  0  0  0  0
    4.3860   -2.9500   25.5060 O   0  0  0  0  0  0  0  0  0  0  0  0
    6.3440   -3.6820   26.4430 N   0  0  0  0  0  0  0  0  0  0  0  0
    5.7660   -3.9870   27.7430 C   0  0  2  0  0  0  0  0  0  0  0  0
    6.7470   -4.7790   28.5820 C   0  0  0  0  0  0  0  0  0  0  0  0
    4.5600   -4.8630   27.7300 C   0  0  0  0  0  0  0  0  0  0  0  0
    3.2980   -4.3450   27.4300 C   0  0  0  0  0  0  0  0  0  0  0  0
    2.3250   -5.3400   27.5070 C   0  0  0  0  0  0  0  0  0  0  0  0
    3.0000   -6.6110   27.8900 C   0  0  0  0  0  0  0  0  0  0  0  0
    2.0560   -7.7610   28.0240 C   0  0  0  0  0  0  0  0  0  0  0  0
    1.9860   -8.0460   29.5120 C   0  0  0  0  0  0  0  0  0  0  0  0
    1.0830   -9.1900   29.8630 C   0  0  0  0  0  0  0  0  0  0  0  0
    0.3370   -9.9520   28.8230 C   0  0  0  0  0  0  0  0  0  0  0  0
   -0.7100  -11.2890   29.2690 Cl  0  0  0  0  0  0  0  0  0  0  0  0
    0.5080   -9.5480   27.3780 C   0  0  0  0  0  0  0  0  0  0  0  0
    1.3970   -8.4190   27.0000 C   0  0  0  0  0  0  0  0  0  0  0  0
    4.7150   -6.7050   28.1510 S   0  0  0  0  0  0  0  0  0  0  0  0
    6.0800   -5.1620   23.6950 C   0  0  0  0  0  0  0  0  0  0  0  0
    6.6630   -5.4030   22.4550 C   0  0  0  0  0  0  0  0  0  0  0  0
  1  2  1  0
  2  3  2  0
  2  4  1  0
  4  5  1  0
  5  6  1  0
  6  7  1  0
  7  8  1  0
  8  9  2  0
  8 10  1  0
 10 11  1  0
 11 12  1  1
 11 13  1  0
 13 14  2  0
 14 15  1  0
 15 16  2  0
 16 17  1  0
 17 18  2  0
 18 19  1  0
 19 20  2  0
 20 21  1  0
 20 22  1  0
 17 23  1  0
 22 23  2  0
 13 24  1  0
 16 24  1  0
  7 25  1  0
  4 26  1  0
 25 26  1  0
M  END
