piperidine-amides-1825-covalent
     RDKit          3D

 18 19  0  0  0  0  0  0  0  0999 V2000
    7.1250   -3.3040   19.2380 C   0  0  0  0  0  0  0  0  0  0  0  0
    6.3120   -4.0310   20.2390 C   0  0  0  0  0  0  0  0  0  0  0  0
    5.2420   -4.4940   19.8620 O   0  0  0  0  0  0  0  0  0  0  0  0
    6.8050   -4.2140   21.5320 N   0  0  0  0  0  0  0  0  0  0  0  0
    6.4250   -5.3630   22.3000 C   0  0  0  0  0  0  0  0  0  0  0  0
    5.7590   -4.8800   23.5580 C   0  0  0  0  0  0  0  0  0  0  0  0
    6.5760   -3.7300   24.1650 C   0  0  0  0  0  0  0  0  0  0  0  0
    5.8500   -3.2640   25.3630 C   0  0  0  0  0  0  0  0  0  0  0  0
    4.6130   -3.2620   25.3640 O   0  0  0  0  0  0  0  0  0  0  0  0
    6.5500   -2.8180   26.5010 N   0  0  0  0  0  0  0  0  0  0  0  0
    6.2350   -3.4050   27.7850 C   0  0  0  0  0  0  0  0  0  0  0  0
    6.0740   -2.2540   28.7640 C   0  0  0  0  0  0  0  0  0  0  0  0
    7.0890   -1.5220   29.3540 C   0  0  0  0  0  0  0  0  0  0  0  0
    6.9500   -0.4580   30.2680 N   0  0  0  0  0  0  0  0  0  0  0  0
    5.2570   -0.4660   30.3160 S   0  0  0  0  0  0  0  0  0  0  0  0
    4.8750   -1.7640   29.2170 N   0  0  0  0  0  0  0  0  0  0  0  0
    6.6610   -2.6190   23.1320 C   0  0  0  0  0  0  0  0  0  0  0  0
    7.4860   -3.1230   22.1710 C   0  0  0  0  0  0  0  0  0  0  0  0
  1  2  1  0
  2  3  2  0
  2  4  1  0
  4  5  1  0
  5  6  1  0
  6  7  1  0
  7  8  1  0
  8  9  2  0
  8 10  1  0
 10 11  1  0
 11 12  1  0
 12 13  1  0
 13 14  2  0
 14 15  1  0
 12 16  2  0
 15 16  1  0
  7 17  1  0
  4 18  1  0
 17 18  1  0
M  END
