piperidine-amides-26131-covalent
     RDKit          3D

 25 27  0  0  0  0  0  0  0  0999 V2000
    7.0430   -3.3560   19.3010 C   0  0  0  0  0  0  0  0  0  0  0  0
    6.2520   -4.1590   20.2350 C   0  0  0  0  0  0  0  0  0  0  0  0
    5.1760   -4.6340   19.8800 O   0  0  0  0  0  0  0  0  0  0  0  0
    6.7240   -4.4430   21.5080 N   0  0  0  0  0  0  0  0  0  0  0  0
    6.4180   -5.6770   22.2130 C   0  0  0  0  0  0  0  0  0  0  0  0
    5.6820   -5.2970   23.4850 C   0  0  0  0  0  0  0  0  0  0  0  0
    6.3820   -4.1980   24.2240 C   0  0  0  0  0  0  0  0  0  0  0  0
    5.5830   -3.6170   25.3330 C   0  0  0  0  0  0  0  0  0  0  0  0
    4.3630   -3.3260   25.1620 O   0  0  0  0  0  0  0  0  0  0  0  0
    6.1200   -3.3630   26.6160 N   0  0  0  0  0  0  0  0  0  0  0  0
    5.2480   -3.5090   27.7800 C   0  0  0  0  0  0  0  0  0  0  0  0
    5.4510   -4.8880   28.2430 C   0  0  0  0  0  0  0  0  0  0  0  0
    6.6410   -5.0320   29.0570 C   0  0  0  0  0  0  0  0  0  0  0  0
    7.9450   -5.2400   28.3360 C   0  0  0  0  0  0  0  0  0  0  0  0
    7.9320   -4.8760   26.8620 C   0  0  0  0  0  0  0  0  0  0  0  0
    7.5230   -3.4480   26.7490 C   0  0  1  0  0  0  0  0  0  0  0  0
    7.8630   -2.7410   25.6160 C   0  0  0  0  0  0  0  0  0  0  0  0
    7.1920   -1.4870   25.3290 C   0  0  0  0  0  0  0  0  0  0  0  0
    7.4410   -0.5800   24.1110 C   0  0  0  0  0  0  0  0  0  0  0  0
    8.4950   -1.0990   23.1760 C   0  0  0  0  0  0  0  0  0  0  0  0
    8.9640   -2.3660   23.7480 C   0  0  0  0  0  0  0  0  0  0  0  0
    9.9160   -2.8760   22.9400 F   0  0  0  0  0  0  0  0  0  0  0  0
    8.8200   -3.1190   24.6630 C   0  0  0  0  0  0  0  0  0  0  0  0
    6.7770   -3.0870   23.3540 C   0  0  0  0  0  0  0  0  0  0  0  0
    7.4250   -3.4520   22.2200 C   0  0  0  0  0  0  0  0  0  0  0  0
  1  2  1  0
  2  3  2  0
  2  4  1  0
  4  5  1  0
  5  6  1  0
  6  7  1  0
  7  8  1  0
  8  9  2  0
  8 10  1  0
 10 11  1  0
 11 12  1  0
 12 13  1  0
 13 14  1  0
 14 15  1  0
 10 16  1  0
 15 16  1  0
 16 17  1  6
 17 18  2  0
 18 19  1  0
 19 20  2  0
 20 21  1  0
 21 22  1  0
 17 23  1  0
 21 23  2  0
  7 24  1  0
  4 25  1  0
 24 25  1  0
M  END
