piperidine-amides-3310-covalent
     RDKit          3D

 22 24  0  0  0  0  0  0  0  0999 V2000
    7.0400   -3.3430   19.3280 C   0  0  0  0  0  0  0  0  0  0  0  0
    6.3660   -4.1360   20.3540 C   0  0  0  0  0  0  0  0  0  0  0  0
    5.4500   -4.8870   20.0090 O   0  0  0  0  0  0  0  0  0  0  0  0
    6.7920   -4.0740   21.7410 N   0  0  0  0  0  0  0  0  0  0  0  0
    7.7310   -3.0530   22.1510 C   0  0  0  0  0  0  0  0  0  0  0  0
    7.7160   -2.9150   23.6440 C   0  0  0  0  0  0  0  0  0  0  0  0
    6.3250   -3.3050   24.0750 C   0  0  0  0  0  0  0  0  0  0  0  0
    6.0210   -2.9400   25.5050 C   0  0  0  0  0  0  0  0  0  0  0  0
    5.1450   -3.5750   26.1240 O   0  0  0  0  0  0  0  0  0  0  0  0
    6.6760   -1.8490   26.1910 N   0  0  0  0  0  0  0  0  0  0  0  0
    5.9850   -1.3190   27.3730 C   0  0  2  0  0  0  0  0  0  0  0  0
    4.7000   -0.5300   26.8620 C   0  0  0  0  0  0  0  0  0  0  0  0
    4.1270   -0.2400   28.0450 C   0  0  0  0  0  0  0  0  0  0  0  0
    5.0740    0.2180   29.0750 C   0  0  0  0  0  0  0  0  0  0  0  0
    6.3930    0.7840   28.6940 C   0  0  0  0  0  0  0  0  0  0  0  0
    6.5950    0.9500   27.2380 C   0  0  0  0  0  0  0  0  0  0  0  0
    5.6960    0.1180   27.4910 C   0  0  0  0  0  0  0  0  0  0  0  0
    5.8610   -0.2060   28.8230 C   0  0  0  0  0  0  0  0  0  0  0  0
    6.3790   -1.3440   28.6610 C   0  0  2  0  0  0  0  0  0  0  0  0
    7.7670   -1.4750   29.0180 C   0  0  0  0  0  0  0  0  0  0  0  0
    6.0050   -4.7790   23.7960 C   0  0  0  0  0  0  0  0  0  0  0  0
    6.6340   -5.2120   22.6130 C   0  0  0  0  0  0  0  0  0  0  0  0
  1  2  1  0
  2  3  2  0
  2  4  1  0
  4  5  1  0
  5  6  1  0
  6  7  1  0
  7  8  1  0
  8  9  2  0
  8 10  1  0
 11 10  1  6
 11 12  1  0
 12 13  2  0
 13 14  1  0
 14 15  2  0
 15 16  1  0
 12 17  1  0
 16 17  2  0
 17 18  1  0
 11 19  1  0
 18 19  1  0
 19 20  1  6
  7 21  1  0
  4 22  1  0
 21 22  1  0
M  END
