piperidine-amides-19359-covalent
     RDKit          3D

 21 22  0  0  0  0  0  0  0  0999 V2000
    7.0490   -3.3380   19.4890 C   0  0  0  0  0  0  0  0  0  0  0  0
    6.3610   -4.1860   20.4470 C   0  0  0  0  0  0  0  0  0  0  0  0
    5.4400   -4.9490   20.0030 O   0  0  0  0  0  0  0  0  0  0  0  0
    6.6800   -4.2230   21.8330 N   0  0  0  0  0  0  0  0  0  0  0  0
    6.6060   -5.5620   22.4720 C   0  0  0  0  0  0  0  0  0  0  0  0
    6.0670   -5.2450   23.9310 C   0  0  0  0  0  0  0  0  0  0  0  0
    5.9010   -3.7420   24.0160 C   0  0  0  0  0  0  0  0  0  0  0  0
    4.8250   -3.1890   25.1040 C   0  0  0  0  0  0  0  0  0  0  0  0
    3.8270   -2.8670   24.4940 O   0  0  0  0  0  0  0  0  0  0  0  0
    5.2020   -3.1940   26.3370 N   0  0  0  0  0  0  0  0  0  0  0  0
    5.3060   -2.8820   27.6860 C   0  0  0  0  0  0  0  0  0  0  0  0
    5.5830   -3.6170   28.7780 C   0  0  0  0  0  0  0  0  0  0  0  0
    6.1330   -4.6330   28.0890 C   0  0  1  0  0  0  0  0  0  0  0  0
    5.3130   -5.8100   27.7110 C   0  0  0  0  0  0  0  0  0  0  0  0
    4.4160   -6.0480   28.7600 O   0  0  0  0  0  0  0  0  0  0  0  0
    3.1200   -5.8820   28.2800 C   0  0  0  0  0  0  0  0  0  0  0  0
    2.2680   -5.8350   29.3940 F   0  0  0  0  0  0  0  0  0  0  0  0
    2.6990   -6.9840   27.5240 F   0  0  0  0  0  0  0  0  0  0  0  0
    6.2870   -4.0900   26.7150 C   0  0  0  0  0  0  0  0  0  0  0  0
    7.2020   -2.9860   23.8410 C   0  0  0  0  0  0  0  0  0  0  0  0
    7.6160   -3.2270   22.3760 C   0  0  0  0  0  0  0  0  0  0  0  0
  1  2  1  0
  2  3  2  0
  2  4  1  0
  4  5  1  0
  5  6  1  0
  6  7  1  0
  7  8  1  0
  8  9  2  0
  8 10  1  0
 10 11  1  0
 11 12  1  0
 12 13  1  0
 13 14  1  6
 14 15  1  0
 15 16  1  0
 16 17  1  0
 16 18  1  0
 10 19  1  0
 13 19  1  0
  7 20  1  0
  4 21  1  0
 20 21  1  0
M  END
