piperidine-amides-15134-covalent
     RDKit          3D

 20 21  0  0  0  0  0  0  0  0999 V2000
    7.0980   -3.3000   19.2780 C   0  0  0  0  0  0  0  0  0  0  0  0
    6.3390   -4.0450   20.2780 C   0  0  0  0  0  0  0  0  0  0  0  0
    5.3040   -4.6290   19.9150 O   0  0  0  0  0  0  0  0  0  0  0  0
    6.8130   -4.1220   21.6130 N   0  0  0  0  0  0  0  0  0  0  0  0
    7.7060   -3.1170   22.1280 C   0  0  0  0  0  0  0  0  0  0  0  0
    7.3990   -2.8470   23.5720 C   0  0  0  0  0  0  0  0  0  0  0  0
    6.0610   -3.4990   23.8280 C   0  0  0  0  0  0  0  0  0  0  0  0
    5.5810   -3.2330   25.2240 C   0  0  0  0  0  0  0  0  0  0  0  0
    4.4470   -2.7750   25.3190 O   0  0  0  0  0  0  0  0  0  0  0  0
    6.4180   -3.5050   26.2920 N   0  0  0  0  0  0  0  0  0  0  0  0
    5.8970   -3.8200   27.5810 C   0  0  2  0  0  0  0  0  0  0  0  0
    6.8090   -4.2000   28.5590 C   0  0  0  0  0  0  0  0  0  0  0  0
    5.0240   -5.0020   27.4240 C   0  0  0  0  0  0  0  0  0  0  0  0
    3.8580   -5.2100   26.6360 N   0  0  0  0  0  0  0  0  0  0  0  0
    3.3920   -6.4200   26.8090 N   0  0  0  0  0  0  0  0  0  0  0  0
    4.1590   -7.0700   27.6650 C   0  0  0  0  0  0  0  0  0  0  0  0
    5.1350   -6.2100   28.0270 N   0  0  0  0  0  0  0  0  0  0  0  0
    6.1000   -6.7450   28.9890 C   0  0  0  0  0  0  0  0  0  0  0  0
    6.0780   -4.9860   23.6440 C   0  0  0  0  0  0  0  0  0  0  0  0
    6.5680   -5.4000   22.3060 C   0  0  0  0  0  0  0  0  0  0  0  0
  1  2  1  0
  2  3  2  0
  2  4  1  0
  4  5  1  0
  5  6  1  0
  6  7  1  0
  7  8  1  0
  8  9  2  0
  8 10  1  0
 10 11  1  0
 11 12  1  1
 11 13  1  0
 13 14  2  0
 14 15  1  0
 15 16  2  0
 13 17  1  0
 16 17  1  0
 17 18  1  0
  7 19  1  0
  4 20  1  0
 19 20  1  0
M  END
