piperidine-amides-2650-covalent
     RDKit          3D

 25 26  0  0  0  0  0  0  0  0999 V2000
    7.0230   -3.3350   19.3080 C   0  0  0  0  0  0  0  0  0  0  0  0
    6.3530   -4.1780   20.3320 C   0  0  0  0  0  0  0  0  0  0  0  0
    5.3610   -4.8070   19.9700 O   0  0  0  0  0  0  0  0  0  0  0  0
    6.8730   -4.2650   21.6280 N   0  0  0  0  0  0  0  0  0  0  0  0
    6.6960   -5.4470   22.4370 C   0  0  0  0  0  0  0  0  0  0  0  0
    6.0530   -5.0700   23.7450 C   0  0  0  0  0  0  0  0  0  0  0  0
    6.0450   -3.5490   23.9140 C   0  0  0  0  0  0  0  0  0  0  0  0
    5.5890   -3.2190   25.2750 C   0  0  0  0  0  0  0  0  0  0  0  0
    4.3770   -3.1910   25.5170 O   0  0  0  0  0  0  0  0  0  0  0  0
    6.5100   -2.9480   26.2910 N   0  0  0  0  0  0  0  0  0  0  0  0
    6.4420   -1.6910   26.9960 C   0  0  0  0  0  0  0  0  0  0  0  0
    6.9570   -1.7320   28.3970 C   0  0  0  0  0  0  0  0  0  0  0  0
    7.0300   -0.7320   29.3070 C   0  0  0  0  0  0  0  0  0  0  0  0
    6.5730    0.4950   28.9180 C   0  0  0  0  0  0  0  0  0  0  0  0
    6.6660    1.4760   29.8750 O   0  0  0  0  0  0  0  0  0  0  0  0
    6.9580    0.8850   31.0900 C   0  0  0  0  0  0  0  0  0  0  0  0
    5.8550    0.1830   31.8590 C   0  0  0  0  0  0  0  0  0  0  0  0
    6.3100    1.6280   32.1570 C   0  0  0  0  0  0  0  0  0  0  0  0
    8.3520    0.7920   31.6100 C   0  0  0  0  0  0  0  0  0  0  0  0
    6.0440    0.7730   27.6520 C   0  0  0  0  0  0  0  0  0  0  0  0
    5.5820    2.1640   27.3620 C   0  0  0  0  0  0  0  0  0  0  0  0
    6.5670    3.1550   27.3040 N   0  0  0  0  0  0  0  0  0  0  0  0
    5.9530   -0.3120   26.6240 C   0  0  0  0  0  0  0  0  0  0  0  0
    7.4270   -3.0050   23.6420 C   0  0  0  0  0  0  0  0  0  0  0  0
    7.6870   -3.1920   22.1780 C   0  0  0  0  0  0  0  0  0  0  0  0
  1  2  1  0
  2  3  2  0
  2  4  1  0
  4  5  1  0
  5  6  1  0
  6  7  1  0
  7  8  1  0
  8  9  2  0
  8 10  1  0
 10 11  1  0
 11 12  2  0
 12 13  1  0
 13 14  2  0
 14 15  1  0
 16 15  1  0
 16 17  1  0
 16 18  1  0
 16 19  1  0
 14 20  1  0
 20 21  1  0
 21 22  3  0
 11 23  1  0
 20 23  2  0
  7 24  1  0
  4 25  1  0
 24 25  1  0
M  END
