piperidine-amides-5344-covalent
     RDKit          3D

 21 22  0  0  0  0  0  0  0  0999 V2000
    7.0470   -3.3480   19.3040 C   0  0  0  0  0  0  0  0  0  0  0  0
    6.3980   -4.1790   20.3470 C   0  0  0  0  0  0  0  0  0  0  0  0
    5.3890   -4.8180   19.9790 O   0  0  0  0  0  0  0  0  0  0  0  0
    6.9180   -4.2920   21.6530 N   0  0  0  0  0  0  0  0  0  0  0  0
    6.6230   -5.4380   22.4320 C   0  0  0  0  0  0  0  0  0  0  0  0
    6.2140   -5.0530   23.7760 C   0  0  0  0  0  0  0  0  0  0  0  0
    6.0020   -3.5940   23.9220 C   0  0  0  0  0  0  0  0  0  0  0  0
    5.6190   -3.2200   25.3070 C   0  0  0  0  0  0  0  0  0  0  0  0
    4.4110   -3.1860   25.5980 O   0  0  0  0  0  0  0  0  0  0  0  0
    6.5930   -2.9100   26.2650 N   0  0  0  0  0  0  0  0  0  0  0  0
    6.5710   -1.6930   27.1120 C   0  0  0  0  0  0  0  0  0  0  0  0
    5.9090   -0.4860   26.5860 C   0  0  0  0  0  0  0  0  0  0  0  0
    5.8520    0.7440   27.3650 C   0  0  0  0  0  0  0  0  0  0  0  0
    6.4300    0.7870   28.6290 C   0  0  0  0  0  0  0  0  0  0  0  0
    6.4070    1.8140   29.3250 O   0  0  0  0  0  0  0  0  0  0  0  0
    5.3130    1.8990   30.0250 C   0  0  0  0  0  0  0  0  0  0  0  0
    7.1000   -0.4510   29.1420 C   0  0  0  0  0  0  0  0  0  0  0  0
    7.6770   -0.4290   30.3740 C   0  0  0  0  0  0  0  0  0  0  0  0
    7.1330   -1.6000   28.3860 C   0  0  0  0  0  0  0  0  0  0  0  0
    7.1930   -2.7740   23.4740 C   0  0  0  0  0  0  0  0  0  0  0  0
    7.8310   -3.3330   22.2530 C   0  0  0  0  0  0  0  0  0  0  0  0
  1  2  1  0
  2  3  2  0
  2  4  1  0
  4  5  1  0
  5  6  1  0
  6  7  1  0
  7  8  1  0
  8  9  2  0
  8 10  1  0
 10 11  1  0
 11 12  2  0
 12 13  1  0
 13 14  2  0
 14 15  1  0
 15 16  1  0
 14 17  1  0
 17 18  1  0
 11 19  1  0
 17 19  2  0
  7 20  1  0
  4 21  1  0
 20 21  1  0
M  END
