piperidine-amides-34931-covalent
     RDKit          3D

 27 28  0  0  0  0  0  0  0  0999 V2000
    7.0730   -3.2720   19.2740 C   0  0  0  0  0  0  0  0  0  0  0  0
    6.3570   -4.0800   20.2990 C   0  0  0  0  0  0  0  0  0  0  0  0
    5.3370   -4.6640   19.9280 O   0  0  0  0  0  0  0  0  0  0  0  0
    6.8560   -4.1890   21.6050 N   0  0  0  0  0  0  0  0  0  0  0  0
    7.7110   -3.1760   22.1880 C   0  0  0  0  0  0  0  0  0  0  0  0
    7.4220   -3.0540   23.6560 C   0  0  0  0  0  0  0  0  0  0  0  0
    6.0440   -3.6600   23.9170 C   0  0  0  0  0  0  0  0  0  0  0  0
    5.5400   -3.2960   25.2630 C   0  0  0  0  0  0  0  0  0  0  0  0
    4.3150   -3.2510   25.4300 O   0  0  0  0  0  0  0  0  0  0  0  0
    6.3840   -2.9990   26.3520 N   0  0  0  0  0  0  0  0  0  0  0  0
    6.8710   -1.6370   26.4840 C   0  0  0  0  0  0  0  0  0  0  0  0
    5.8350   -0.6560   25.9670 C   0  0  0  0  0  0  0  0  0  0  0  0
    6.1040   -0.0970   24.7370 C   0  0  0  0  0  0  0  0  0  0  0  0
    5.3110    0.7720   24.1480 C   0  0  0  0  0  0  0  0  0  0  0  0
    5.7070    1.5300   22.4590 Br  0  0  0  0  0  0  0  0  0  0  0  0
    4.2230    1.0820   24.8160 C   0  0  0  0  0  0  0  0  0  0  0  0
    3.7080    0.6260   26.1440 C   0  0  0  0  0  0  0  0  0  0  0  0
    4.6240   -0.3880   26.8450 C   0  0  0  0  0  0  0  0  0  0  0  0
    4.3190   -0.9310   28.0960 F   0  0  0  0  0  0  0  0  0  0  0  0
    6.1660   -3.6800   27.6130 C   0  0  0  0  0  0  0  0  0  0  0  0
    5.7490   -5.1230   27.6050 C   0  0  0  0  0  0  0  0  0  0  0  0
    5.7240   -5.4900   28.9560 O   0  0  0  0  0  0  0  0  0  0  0  0
    6.3010   -6.6960   29.2440 C   0  0  0  0  0  0  0  0  0  0  0  0
    4.7200   -5.4220   26.9470 O   0  0  0  0  0  0  0  0  0  0  0  0
    4.6080   -6.8440   26.7640 C   0  0  0  0  0  0  0  0  0  0  0  0
    6.1190   -5.1560   23.7310 C   0  0  0  0  0  0  0  0  0  0  0  0
    6.6800   -5.4230   22.3530 C   0  0  0  0  0  0  0  0  0  0  0  0
  1  2  1  0
  2  3  2  0
  2  4  1  0
  4  5  1  0
  5  6  1  0
  6  7  1  0
  7  8  1  0
  8  9  2  0
  8 10  1  0
 10 11  1  0
 11 12  1  0
 12 13  2  0
 13 14  1  0
 14 15  1  0
 14 16  2  0
 16 17  1  0
 12 18  1  0
 17 18  2  0
 18 19  1  0
 10 20  1  0
 20 21  1  0
 21 22  1  0
 22 23  1  0
 21 24  1  0
 24 25  1  0
  7 26  1  0
  4 27  1  0
 26 27  1  0
M  END
