piperidine-amides-25398-covalent
     RDKit          3D

 25 27  0  0  0  0  0  0  0  0999 V2000
    7.0480   -3.3930   19.4530 C   0  0  0  0  0  0  0  0  0  0  0  0
    6.3960   -4.2920   20.4360 C   0  0  0  0  0  0  0  0  0  0  0  0
    5.4330   -4.9410   20.0130 O   0  0  0  0  0  0  0  0  0  0  0  0
    6.8960   -4.4120   21.7500 N   0  0  0  0  0  0  0  0  0  0  0  0
    6.6060   -5.5920   22.5370 C   0  0  0  0  0  0  0  0  0  0  0  0
    6.0680   -5.1970   23.9010 C   0  0  0  0  0  0  0  0  0  0  0  0
    5.8240   -3.6880   23.9300 C   0  0  0  0  0  0  0  0  0  0  0  0
    5.0280   -3.2300   25.1230 C   0  0  0  0  0  0  0  0  0  0  0  0
    3.9490   -2.7010   24.8720 O   0  0  0  0  0  0  0  0  0  0  0  0
    5.3640   -3.3330   26.4970 N   0  0  0  0  0  0  0  0  0  0  0  0
    6.6490   -3.0680   26.9400 C   0  0  0  0  0  0  0  0  0  0  0  0
    6.6230   -4.0790   28.0590 C   0  0  0  0  0  0  0  0  0  0  0  0
    5.3560   -4.3570   28.4130 C   0  0  0  0  0  0  0  0  0  0  0  0
    4.4910   -3.7220   27.5640 C   0  0  1  0  0  0  0  0  0  0  0  0
    3.7930   -2.6990   28.1610 C   0  0  0  0  0  0  0  0  0  0  0  0
    3.6510   -1.3940   27.4010 C   0  0  0  0  0  0  0  0  0  0  0  0
    3.2190   -4.3320   27.1210 C   0  0  0  0  0  0  0  0  0  0  0  0
    1.9410   -3.6340   27.5140 C   0  0  0  0  0  0  0  0  0  0  0  0
    1.4430   -2.6670   26.4910 C   0  0  0  0  0  0  0  0  0  0  0  0
    0.1850   -1.9540   26.8420 C   0  0  0  0  0  0  0  0  0  0  0  0
   -0.4940   -2.2370   28.1640 C   0  0  0  0  0  0  0  0  0  0  0  0
    0.0870   -3.2270   29.1150 C   0  0  0  0  0  0  0  0  0  0  0  0
    1.3710   -3.9380   28.7300 C   0  0  0  0  0  0  0  0  0  0  0  0
    7.1490   -3.0020   23.7270 C   0  0  0  0  0  0  0  0  0  0  0  0
    7.6180   -3.2970   22.3200 C   0  0  0  0  0  0  0  0  0  0  0  0
  1  2  1  0
  2  3  2  0
  2  4  1  0
  4  5  1  0
  5  6  1  0
  6  7  1  0
  7  8  1  0
  8  9  2  0
  8 10  1  0
 10 11  1  0
 11 12  1  0
 12 13  1  0
 10 14  1  0
 13 14  1  0
 14 15  1  1
 15 16  1  0
 14 17  1  0
 17 18  1  0
 18 19  2  0
 19 20  1  0
 20 21  2  0
 21 22  1  0
 18 23  1  0
 22 23  2  0
  7 24  1  0
  4 25  1  0
 24 25  1  0
M  END
