piperidine-amides-23801-covalent
     RDKit          3D

 24 26  0  0  0  0  0  0  0  0999 V2000
    7.1050   -3.3270   19.2560 C   0  0  0  0  0  0  0  0  0  0  0  0
    6.4190   -4.1320   20.2820 C   0  0  0  0  0  0  0  0  0  0  0  0
    5.3430   -4.6760   19.9370 O   0  0  0  0  0  0  0  0  0  0  0  0
    6.9790   -4.3450   21.5740 N   0  0  0  0  0  0  0  0  0  0  0  0
    6.5050   -5.4360   22.3360 C   0  0  0  0  0  0  0  0  0  0  0  0
    6.0900   -5.0720   23.6890 C   0  0  0  0  0  0  0  0  0  0  0  0
    6.5100   -3.7420   24.2040 C   0  0  0  0  0  0  0  0  0  0  0  0
    5.3870   -3.1070   24.9700 C   0  0  0  0  0  0  0  0  0  0  0  0
    4.3550   -2.7740   24.3700 O   0  0  0  0  0  0  0  0  0  0  0  0
    5.4500   -2.8750   26.3480 N   0  0  0  0  0  0  0  0  0  0  0  0
    5.6620   -1.6160   26.9810 C   0  0  0  0  0  0  0  0  0  0  0  0
    6.2130   -0.5050   26.4430 C   0  0  0  0  0  0  0  0  0  0  0  0
    7.1440   -1.3540   27.3890 C   0  0  0  0  0  0  0  0  0  0  0  0
    5.2460   -4.0070   27.1840 C   0  0  1  0  0  0  0  0  0  0  0  0
    4.7410   -5.2890   26.5320 C   0  0  0  0  0  0  0  0  0  0  0  0
    6.6000   -4.3980   27.5580 C   0  0  0  0  0  0  0  0  0  0  0  0
    7.0140   -5.6600   26.8670 C   0  0  0  0  0  0  0  0  0  0  0  0
    8.3460   -6.2310   27.0950 C   0  0  0  0  0  0  0  0  0  0  0  0
    9.1900   -5.4960   28.0170 C   0  0  0  0  0  0  0  0  0  0  0  0
    8.7160   -4.2090   28.6820 C   0  0  0  0  0  0  0  0  0  0  0  0
    7.3820   -3.7400   28.3840 C   0  0  0  0  0  0  0  0  0  0  0  0
    7.0090   -2.5790   29.0170 F   0  0  0  0  0  0  0  0  0  0  0  0
    6.9790   -2.7520   23.1780 C   0  0  0  0  0  0  0  0  0  0  0  0
    7.7740   -3.3490   22.2270 C   0  0  0  0  0  0  0  0  0  0  0  0
  1  2  1  0
  2  3  2  0
  2  4  1  0
  4  5  1  0
  5  6  1  0
  6  7  1  0
  7  8  1  0
  8  9  2  0
  8 10  1  0
 10 11  1  0
 11 12  1  0
 11 13  1  0
 12 13  1  0
 10 14  1  0
 14 15  1  6
 14 16  1  0
 16 17  2  0
 17 18  1  0
 18 19  2  0
 19 20  1  0
 16 21  1  0
 20 21  2  0
 21 22  1  0
  7 23  1  0
  4 24  1  0
 23 24  1  0
M  END
