piperidine-amides-31510-covalent
     RDKit          3D

 28 30  0  0  0  0  0  0  0  0999 V2000
    7.0290   -3.4040   19.3590 C   0  0  0  0  0  0  0  0  0  0  0  0
    6.3800   -4.2190   20.3570 C   0  0  0  0  0  0  0  0  0  0  0  0
    5.3540   -4.8690   19.9900 O   0  0  0  0  0  0  0  0  0  0  0  0
    6.8620   -4.3710   21.6760 N   0  0  0  0  0  0  0  0  0  0  0  0
    6.6030   -5.6670   22.3300 C   0  0  0  0  0  0  0  0  0  0  0  0
    5.5680   -5.1780   23.4020 C   0  0  0  0  0  0  0  0  0  0  0  0
    6.4150   -4.4390   24.4000 C   0  0  0  0  0  0  0  0  0  0  0  0
    5.4880   -3.6580   25.4510 C   0  0  0  0  0  0  0  0  0  0  0  0
    4.6180   -3.0670   24.8280 O   0  0  0  0  0  0  0  0  0  0  0  0
    5.8240   -3.8010   26.6940 N   0  0  0  0  0  0  0  0  0  0  0  0
    6.0730   -3.3980   27.9470 C   0  0  0  0  0  0  0  0  0  0  0  0
    6.1950   -4.1780   29.0040 C   0  0  0  0  0  0  0  0  0  0  0  0
    5.5770   -5.3030   28.5010 C   0  0  2  0  0  0  0  0  0  0  0  0
    5.8800   -6.6130   29.2030 C   0  0  0  0  0  0  0  0  0  0  0  0
    4.9790   -7.1020   30.2370 N   0  0  0  0  0  0  0  0  0  0  0  0
    5.3640   -7.3440   31.6720 C   0  0  0  0  0  0  0  0  0  0  0  0
    6.2800   -6.6100   32.3880 O   0  0  0  0  0  0  0  0  0  0  0  0
    4.7970   -8.3640   32.3450 N   0  0  0  0  0  0  0  0  0  0  0  0
    5.5430   -8.5520   33.4680 C   0  0  0  0  0  0  0  0  0  0  0  0
    5.8250   -9.9560   33.7590 C   0  0  0  0  0  0  0  0  0  0  0  0
    6.6800   -9.8930   35.0560 C   0  0  0  0  0  0  0  0  0  0  0  0
    7.1870   -8.7270   35.9290 C   0  0  0  0  0  0  0  0  0  0  0  0
    6.8510   -7.5220   35.5340 C   0  0  0  0  0  0  0  0  0  0  0  0
    7.1610   -6.3340   36.0840 C   0  0  0  0  0  0  0  0  0  0  0  0
    6.0390   -7.4580   34.3250 C   0  0  0  0  0  0  0  0  0  0  0  0
    5.6220   -5.2540   27.0620 C   0  0  0  0  0  0  0  0  0  0  0  0
    7.5490   -3.6070   23.8590 C   0  0  0  0  0  0  0  0  0  0  0  0
    7.4530   -3.2580   22.3900 C   0  0  0  0  0  0  0  0  0  0  0  0
  1  2  1  0
  2  3  2  0
  2  4  1  0
  4  5  1  0
  5  6  1  0
  6  7  1  0
  7  8  1  0
  8  9  2  0
  8 10  1  0
 10 11  1  0
 11 12  1  0
 12 13  1  0
 13 14  1  1
 14 15  1  0
 15 16  1  0
 16 17  2  0
 16 18  1  0
 18 19  1  0
 19 20  2  0
 20 21  1  0
 21 22  2  0
 22 23  1  0
 23 24  1  0
 19 25  1  0
 23 25  2  0
 10 26  1  0
 13 26  1  0
  7 27  1  0
  4 28  1  0
 27 28  1  0
M  END
