piperidine-amides-30106-covalent
     RDKit          3D

 27 29  0  0  0  0  0  0  0  0999 V2000
    7.0080   -3.3550   19.3130 C   0  0  0  0  0  0  0  0  0  0  0  0
    6.2950   -4.1820   20.2870 C   0  0  0  0  0  0  0  0  0  0  0  0
    5.2900   -4.7990   19.9480 O   0  0  0  0  0  0  0  0  0  0  0  0
    6.7750   -4.3260   21.6210 N   0  0  0  0  0  0  0  0  0  0  0  0
    7.5790   -3.2830   22.2030 C   0  0  0  0  0  0  0  0  0  0  0  0
    7.3200   -3.2150   23.6650 C   0  0  0  0  0  0  0  0  0  0  0  0
    5.9700   -3.8000   23.9230 C   0  0  0  0  0  0  0  0  0  0  0  0
    5.5230   -3.5150   25.3170 C   0  0  0  0  0  0  0  0  0  0  0  0
    4.4060   -3.0130   25.5340 O   0  0  0  0  0  0  0  0  0  0  0  0
    6.3430   -3.7970   26.4400 N   0  0  0  0  0  0  0  0  0  0  0  0
    5.9030   -3.1650   27.6640 C   0  0  0  0  0  0  0  0  0  0  0  0
    6.1370   -4.2500   28.6560 C   0  0  0  0  0  0  0  0  0  0  0  0
    6.9380   -5.2370   28.1360 C   0  0  1  0  0  0  0  0  0  0  0  0
    6.5880   -6.4290   28.3070 O   0  0  0  0  0  0  0  0  0  0  0  0
    5.4050   -6.7710   28.9730 C   0  0  0  0  0  0  0  0  0  0  0  0
    4.3190   -7.3070   28.3140 C   0  0  0  0  0  0  0  0  0  0  0  0
    3.0880   -7.6670   28.9940 C   0  0  0  0  0  0  0  0  0  0  0  0
    3.0340   -7.4580   30.3110 N   0  0  0  0  0  0  0  0  0  0  0  0
    4.1360   -6.9040   31.0440 C   0  0  0  0  0  0  0  0  0  0  0  0
    3.9210   -6.7520   32.3950 C   0  0  0  0  0  0  0  0  0  0  0  0
    2.9120   -7.4710   32.9240 N   0  0  0  0  0  0  0  0  0  0  0  0
    2.9030   -8.8170   33.0450 C   0  0  0  0  0  0  0  0  0  0  0  0
    1.6120   -6.8290   33.1390 C   0  0  0  0  0  0  0  0  0  0  0  0
    5.3010   -6.5730   30.3510 C   0  0  0  0  0  0  0  0  0  0  0  0
    6.9690   -5.0900   26.7310 C   0  0  0  0  0  0  0  0  0  0  0  0
    6.0160   -5.2880   23.6760 C   0  0  0  0  0  0  0  0  0  0  0  0
    6.6610   -5.5880   22.3130 C   0  0  0  0  0  0  0  0  0  0  0  0
  1  2  1  0
  2  3  2  0
  2  4  1  0
  4  5  1  0
  5  6  1  0
  6  7  1  0
  7  8  1  0
  8  9  2  0
  8 10  1  0
 10 11  1  0
 11 12  1  0
 12 13  1  0
 13 14  1  6
 14 15  1  0
 15 16  2  0
 16 17  1  0
 17 18  2  0
 18 19  1  0
 19 20  1  0
 20 21  1  0
 21 22  1  0
 21 23  1  0
 15 24  1  0
 19 24  2  0
 10 25  1  0
 13 25  1  0
  7 26  1  0
  4 27  1  0
 26 27  1  0
M  END
