piperidine-amides-13781-covalent
     RDKit          3D

 27 29  0  0  0  0  0  0  0  0999 V2000
    7.0930   -3.2830   19.2420 C   0  0  0  0  0  0  0  0  0  0  0  0
    6.3540   -4.0690   20.2710 C   0  0  0  0  0  0  0  0  0  0  0  0
    5.3350   -4.6870   19.9340 O   0  0  0  0  0  0  0  0  0  0  0  0
    6.8590   -4.1290   21.5880 N   0  0  0  0  0  0  0  0  0  0  0  0
    7.7230   -3.0880   22.1130 C   0  0  0  0  0  0  0  0  0  0  0  0
    7.5830   -3.0610   23.6350 C   0  0  0  0  0  0  0  0  0  0  0  0
    6.2070   -3.5360   23.9170 C   0  0  0  0  0  0  0  0  0  0  0  0
    5.6740   -3.1490   25.2420 C   0  0  0  0  0  0  0  0  0  0  0  0
    4.4910   -2.7880   25.2480 O   0  0  0  0  0  0  0  0  0  0  0  0
    6.4600   -3.1900   26.4010 N   0  0  0  0  0  0  0  0  0  0  0  0
    6.0540   -3.7200   27.6560 C   0  0  2  0  0  0  0  0  0  0  0  0
    5.1190   -4.7170   27.6190 C   0  0  0  0  0  0  0  0  0  0  0  0
    3.8130   -4.3840   27.1690 C   0  0  0  0  0  0  0  0  0  0  0  0
    2.7680   -5.2840   27.0750 C   0  0  0  0  0  0  0  0  0  0  0  0
    2.9690   -6.6960   27.4500 C   0  0  0  0  0  0  0  0  0  0  0  0
    1.9140   -7.5830   27.3500 F   0  0  0  0  0  0  0  0  0  0  0  0
    4.3420   -7.1290   27.9380 C   0  0  0  0  0  0  0  0  0  0  0  0
    5.3760   -6.0130   27.9810 C   0  0  0  0  0  0  0  0  0  0  0  0
    5.8620   -2.7150   28.6080 C   0  0  0  0  0  0  0  0  0  0  0  0
    6.6250   -1.4550   28.5610 C   0  0  0  0  0  0  0  0  0  0  0  0
    6.2680   -0.4720   29.6940 C   0  0  0  0  0  0  0  0  0  0  0  0
    5.3890   -0.4490   30.7880 C   0  0  0  0  0  0  0  0  0  0  0  0
    4.7340   -1.8420   30.6110 C   0  0  0  0  0  0  0  0  0  0  0  0
    4.9440   -2.9170   29.5990 C   0  0  0  0  0  0  0  0  0  0  0  0
    3.7630   -4.6160   29.8760 I   0  0  0  0  0  0  0  0  0  0  0  0
    6.1080   -5.0340   23.7350 C   0  0  0  0  0  0  0  0  0  0  0  0
    6.6140   -5.3490   22.3720 C   0  0  0  0  0  0  0  0  0  0  0  0
  1  2  1  0
  2  3  2  0
  2  4  1  0
  4  5  1  0
  5  6  1  0
  6  7  1  0
  7  8  1  0
  8  9  2  0
  8 10  1  0
 11 10  1  6
 11 12  1  0
 12 13  2  0
 13 14  1  0
 14 15  2  0
 15 16  1  0
 15 17  1  0
 12 18  1  0
 17 18  2  0
 11 19  1  0
 19 20  2  0
 20 21  1  0
 21 22  2  0
 22 23  1  0
 19 24  1  0
 23 24  2  0
 24 25  1  0
  7 26  1  0
  4 27  1  0
 26 27  1  0
M  END
