piperidine-amides-32209-covalent
     RDKit          3D

 27 28  0  0  0  0  0  0  0  0999 V2000
    7.1320   -3.2620   19.2070 C   0  0  0  0  0  0  0  0  0  0  0  0
    6.3650   -4.0430   20.2130 C   0  0  0  0  0  0  0  0  0  0  0  0
    5.2810   -4.5500   19.8840 O   0  0  0  0  0  0  0  0  0  0  0  0
    6.9150   -4.2420   21.4940 N   0  0  0  0  0  0  0  0  0  0  0  0
    6.5210   -5.3600   22.3000 C   0  0  0  0  0  0  0  0  0  0  0  0
    5.6250   -4.7770   23.3960 C   0  0  0  0  0  0  0  0  0  0  0  0
    6.4520   -3.8070   24.1850 C   0  0  0  0  0  0  0  0  0  0  0  0
    5.7160   -3.2290   25.3300 C   0  0  0  0  0  0  0  0  0  0  0  0
    4.5630   -2.8570   25.0880 O   0  0  0  0  0  0  0  0  0  0  0  0
    6.2960   -3.1340   26.6010 N   0  0  0  0  0  0  0  0  0  0  0  0
    6.1270   -4.1040   27.6240 C   0  0  0  0  0  0  0  0  0  0  0  0
    5.7460   -5.4030   27.3550 C   0  0  0  0  0  0  0  0  0  0  0  0
    5.2750   -5.9640   28.5970 N   0  0  0  0  0  0  0  0  0  0  0  0
    6.1580   -6.5800   29.4610 C   0  0  0  0  0  0  0  0  0  0  0  0
    5.7360   -7.8520   29.7330 C   0  0  0  0  0  0  0  0  0  0  0  0
    3.9600   -6.0770   28.8620 C   0  0  0  0  0  0  0  0  0  0  0  0
    3.2260   -7.3950   28.5830 C   0  0  0  0  0  0  0  0  0  0  0  0
    6.7000   -1.7890   27.0130 C   0  0  0  0  0  0  0  0  0  0  0  0
    5.6640   -0.8950   27.1610 C   0  0  0  0  0  0  0  0  0  0  0  0
    4.5700   -1.0960   28.1230 C   0  0  0  0  0  0  0  0  0  0  0  0
    3.5590    0.0790   28.0660 C   0  0  0  0  0  0  0  0  0  0  0  0
    3.2760    1.3050   27.4240 C   0  0  0  0  0  0  0  0  0  0  0  0
    1.9820    2.4900   27.5710 Cl  0  0  0  0  0  0  0  0  0  0  0  0
    4.5410    1.2170   26.5320 C   0  0  0  0  0  0  0  0  0  0  0  0
    5.6290    0.2120   26.4150 C   0  0  0  0  0  0  0  0  0  0  0  0
    6.9560   -2.6600   23.3380 C   0  0  0  0  0  0  0  0  0  0  0  0
    7.6550   -3.1520   22.1290 C   0  0  0  0  0  0  0  0  0  0  0  0
  1  2  1  0
  2  3  2  0
  2  4  1  0
  4  5  1  0
  5  6  1  0
  6  7  1  0
  7  8  1  0
  8  9  2  0
  8 10  1  0
 10 11  1  0
 11 12  1  0
 12 13  1  0
 13 14  1  0
 14 15  1  0
 13 16  1  0
 16 17  1  0
 10 18  1  0
 18 19  1  0
 19 20  2  0
 20 21  1  0
 21 22  2  0
 22 23  1  0
 22 24  1  0
 19 25  1  0
 24 25  2  0
  7 26  1  0
  4 27  1  0
 26 27  1  0
M  END
