piperidine-amides-3075-covalent
     RDKit          3D

 23 25  0  0  0  0  0  0  0  0999 V2000
    7.1540   -3.2550   19.1340 C   0  0  0  0  0  0  0  0  0  0  0  0
    6.3680   -3.9560   20.1380 C   0  0  0  0  0  0  0  0  0  0  0  0
    5.2780   -4.4420   19.8420 O   0  0  0  0  0  0  0  0  0  0  0  0
    6.8850   -4.1470   21.4560 N   0  0  0  0  0  0  0  0  0  0  0  0
    7.6880   -3.1060   22.0680 C   0  0  0  0  0  0  0  0  0  0  0  0
    6.9440   -2.4000   23.1780 C   0  0  0  0  0  0  0  0  0  0  0  0
    6.3040   -3.4390   24.0850 C   0  0  0  0  0  0  0  0  0  0  0  0
    5.4850   -2.7780   25.1370 C   0  0  0  0  0  0  0  0  0  0  0  0
    4.3690   -2.2830   24.8950 O   0  0  0  0  0  0  0  0  0  0  0  0
    5.9640   -2.7200   26.4670 N   0  0  0  0  0  0  0  0  0  0  0  0
    5.2160   -3.4980   27.4230 C   0  0  0  0  0  0  0  0  0  0  0  0
    5.0980   -4.8440   26.7760 C   0  0  0  0  0  0  0  0  0  0  0  0
    6.2500   -5.2110   26.2020 C   0  0  0  0  0  0  0  0  0  0  0  0
    6.3900   -5.8180   24.9000 N   0  0  0  0  0  0  0  0  0  0  0  0
    7.7080   -5.9750   24.7620 N   0  0  0  0  0  0  0  0  0  0  0  0
    8.4430   -5.5260   25.8910 C   0  0  0  0  0  0  0  0  0  0  0  0
    9.7510   -5.4790   26.2480 C   0  0  0  0  0  0  0  0  0  0  0  0
   10.0100   -4.9170   27.5010 C   0  0  0  0  0  0  0  0  0  0  0  0
    9.0980   -4.4430   28.2900 C   0  0  0  0  0  0  0  0  0  0  0  0
    7.8110   -4.4930   27.9800 C   0  0  0  0  0  0  0  0  0  0  0  0
    7.4560   -5.0780   26.6900 N   0  0  0  0  0  0  0  0  0  0  0  0
    5.5290   -4.4920   23.3660 C   0  0  0  0  0  0  0  0  0  0  0  0
    6.2340   -5.1070   22.2560 C   0  0  0  0  0  0  0  0  0  0  0  0
  1  2  1  0
  2  3  2  0
  2  4  1  0
  4  5  1  0
  5  6  1  0
  6  7  1  0
  7  8  1  0
  8  9  2  0
  8 10  1  0
 10 11  1  0
 11 12  1  0
 12 13  1  0
 13 14  2  0
 14 15  1  0
 15 16  2  0
 16 17  1  0
 17 18  2  0
 18 19  1  0
 19 20  2  0
 13 21  1  0
 16 21  1  0
 20 21  1  0
  7 22  1  0
  4 23  1  0
 22 23  1  0
M  END
