piperidine-amides-8190-covalent
     RDKit          3D

 25 26  0  0  0  0  0  0  0  0999 V2000
    7.0130   -3.3040   19.3340 C   0  0  0  0  0  0  0  0  0  0  0  0
    6.3320   -4.1150   20.3480 C   0  0  0  0  0  0  0  0  0  0  0  0
    5.3620   -4.7950   19.9680 O   0  0  0  0  0  0  0  0  0  0  0  0
    6.7740   -4.1610   21.7050 N   0  0  0  0  0  0  0  0  0  0  0  0
    6.6500   -5.4060   22.4170 C   0  0  0  0  0  0  0  0  0  0  0  0
    6.1140   -5.1480   23.7950 C   0  0  0  0  0  0  0  0  0  0  0  0
    6.0330   -3.6490   23.9370 C   0  0  0  0  0  0  0  0  0  0  0  0
    5.5580   -3.2330   25.3170 C   0  0  0  0  0  0  0  0  0  0  0  0
    4.3530   -3.0130   25.3980 O   0  0  0  0  0  0  0  0  0  0  0  0
    6.4490   -3.1050   26.3950 N   0  0  0  0  0  0  0  0  0  0  0  0
    6.3010   -3.7980   27.6570 C   0  0  2  0  0  0  0  0  0  0  0  0
    5.6180   -5.0180   27.6570 C   0  0  0  0  0  0  0  0  0  0  0  0
    5.0810   -5.5410   26.6600 O   0  0  0  0  0  0  0  0  0  0  0  0
    5.5330   -5.7070   28.8400 O   0  0  0  0  0  0  0  0  0  0  0  0
    6.2190   -6.8120   29.2680 C   0  0  0  0  0  0  0  0  0  0  0  0
    5.7140   -2.8580   28.6690 C   0  0  0  0  0  0  0  0  0  0  0  0
    6.6640   -1.7670   29.0350 C   0  0  0  0  0  0  0  0  0  0  0  0
    6.2580   -0.7050   30.0710 C   0  0  0  0  0  0  0  0  0  0  0  0
    4.9080   -0.7990   30.6870 C   0  0  0  0  0  0  0  0  0  0  0  0
    4.3510    0.0470   31.6330 O   0  0  0  0  0  0  0  0  0  0  0  0
    3.9670   -1.9130   30.2950 C   0  0  0  0  0  0  0  0  0  0  0  0
    2.2310   -1.9810   31.1260 Br  0  0  0  0  0  0  0  0  0  0  0  0
    4.4500   -2.9470   29.2410 C   0  0  0  0  0  0  0  0  0  0  0  0
    7.3970   -3.0640   23.6450 C   0  0  0  0  0  0  0  0  0  0  0  0
    7.6070   -3.1090   22.2720 C   0  0  0  0  0  0  0  0  0  0  0  0
  1  2  1  0
  2  3  2  0
  2  4  1  0
  4  5  1  0
  5  6  1  0
  6  7  1  0
  7  8  1  0
  8  9  2  0
  8 10  1  0
 11 10  1  6
 11 12  1  0
 12 13  2  0
 12 14  1  0
 14 15  1  0
 11 16  1  0
 16 17  2  0
 17 18  1  0
 18 19  2  0
 19 20  1  0
 19 21  1  0
 21 22  1  0
 16 23  1  0
 21 23  2  0
  7 24  1  0
  4 25  1  0
 24 25  1  0
M  END
