piperidine-amides-10599-covalent
     RDKit          3D

 23 25  0  0  0  0  0  0  0  0999 V2000
    7.0110   -3.3930   19.3750 C   0  0  0  0  0  0  0  0  0  0  0  0
    6.3750   -4.2890   20.3460 C   0  0  0  0  0  0  0  0  0  0  0  0
    5.3260   -4.8660   19.9740 O   0  0  0  0  0  0  0  0  0  0  0  0
    6.9670   -4.5080   21.5900 N   0  0  0  0  0  0  0  0  0  0  0  0
    7.6510   -3.4450   22.2610 C   0  0  0  0  0  0  0  0  0  0  0  0
    6.6990   -2.9630   23.2940 C   0  0  0  0  0  0  0  0  0  0  0  0
    6.4270   -4.0390   24.2970 C   0  0  0  0  0  0  0  0  0  0  0  0
    5.5710   -3.4620   25.3610 C   0  0  0  0  0  0  0  0  0  0  0  0
    4.3450   -3.3530   25.1360 O   0  0  0  0  0  0  0  0  0  0  0  0
    6.0590   -3.0360   26.6180 N   0  0  0  0  0  0  0  0  0  0  0  0
    6.6730   -1.7380   26.8040 C   0  0  0  0  0  0  0  0  0  0  0  0
    7.3140   -1.4360   25.4560 C   0  0  0  0  0  0  0  0  0  0  0  0
    8.4810   -2.2050   24.9330 N   0  0  0  0  0  0  0  0  0  0  0  0
    8.8910   -1.7580   23.7460 C   0  0  0  0  0  0  0  0  0  0  0  0
    8.1040   -0.7120   23.3390 C   0  0  0  0  0  0  0  0  0  0  0  0
    6.8160   -0.1550   24.3000 S   0  0  0  0  0  0  0  0  0  0  0  0
    5.5730   -0.7610   27.1610 C   0  0  0  0  0  0  0  0  0  0  0  0
    6.0720    0.4660   27.6060 C   0  0  0  0  0  0  0  0  0  0  0  0
    6.8650    0.4410   28.7580 O   0  0  0  0  0  0  0  0  0  0  0  0
    7.2260   -0.8650   29.1050 C   0  0  0  0  0  0  0  0  0  0  0  0
    7.5320   -1.7730   27.9380 C   0  0  0  0  0  0  0  0  0  0  0  0
    5.7260   -5.1710   23.6150 C   0  0  0  0  0  0  0  0  0  0  0  0
    6.4390   -5.6460   22.3540 C   0  0  0  0  0  0  0  0  0  0  0  0
  1  2  1  0
  2  3  2  0
  2  4  1  0
  4  5  1  0
  5  6  1  0
  6  7  1  0
  7  8  1  0
  8  9  2  0
  8 10  1  0
 11 10  1  0
 11 12  1  0
 12 13  2  0
 13 14  1  0
 14 15  2  0
 12 16  1  0
 15 16  1  0
 11 17  1  0
 17 18  1  0
 18 19  1  0
 19 20  1  0
 11 21  1  0
 20 21  1  0
  7 22  1  0
  4 23  1  0
 22 23  1  0
M  END
