piperidine-amides-31033-covalent
     RDKit          3D

 28 30  0  0  0  0  0  0  0  0999 V2000
    7.0390   -3.3580   19.3550 C   0  0  0  0  0  0  0  0  0  0  0  0
    6.3590   -4.1990   20.3430 C   0  0  0  0  0  0  0  0  0  0  0  0
    5.3670   -4.8530   19.9840 O   0  0  0  0  0  0  0  0  0  0  0  0
    6.8300   -4.3160   21.6620 N   0  0  0  0  0  0  0  0  0  0  0  0
    6.6220   -5.5270   22.4420 C   0  0  0  0  0  0  0  0  0  0  0  0
    5.8590   -5.1170   23.6820 C   0  0  0  0  0  0  0  0  0  0  0  0
    5.9720   -3.6390   23.8700 C   0  0  0  0  0  0  0  0  0  0  0  0
    5.3610   -3.0490   25.0880 C   0  0  0  0  0  0  0  0  0  0  0  0
    4.2970   -2.3830   24.9380 O   0  0  0  0  0  0  0  0  0  0  0  0
    5.7860   -3.1340   26.4400 N   0  0  0  0  0  0  0  0  0  0  0  0
    4.7210   -3.8240   27.2110 C   0  0  0  0  0  0  0  0  0  0  0  0
    5.1220   -5.0370   27.9370 C   0  0  0  0  0  0  0  0  0  0  0  0
    4.0980   -6.0050   28.3660 C   0  0  0  0  0  0  0  0  0  0  0  0
    4.5350   -7.2350   29.1160 C   0  0  0  0  0  0  0  0  0  0  0  0
    6.0050   -7.4470   29.4060 C   0  0  0  0  0  0  0  0  0  0  0  0
    6.8590   -6.3490   28.8770 C   0  0  0  0  0  0  0  0  0  0  0  0
    6.4100   -5.2650   28.2140 C   0  0  0  0  0  0  0  0  0  0  0  0
    7.1670   -4.3580   27.7920 O   0  0  0  0  0  0  0  0  0  0  0  0
    6.1290   -1.9130   27.1310 C   0  0  0  0  0  0  0  0  0  0  0  0
    5.6770   -0.6060   26.5260 C   0  0  0  0  0  0  0  0  0  0  0  0
    6.0160    0.6620   27.2890 C   0  0  0  0  0  0  0  0  0  0  0  0
    6.7740    0.5700   28.5820 C   0  0  0  0  0  0  0  0  0  0  0  0
    7.0610    1.7670   29.2380 O   0  0  0  0  0  0  0  0  0  0  0  0
    7.0320    3.0300   28.6150 C   0  0  0  0  0  0  0  0  0  0  0  0
    7.1250   -0.6910   29.0000 C   0  0  0  0  0  0  0  0  0  0  0  0
    6.8270   -1.8680   28.3270 C   0  0  0  0  0  0  0  0  0  0  0  0
    7.3600   -3.1960   23.6850 C   0  0  0  0  0  0  0  0  0  0  0  0
    7.6820   -3.2680   22.2100 C   0  0  0  0  0  0  0  0  0  0  0  0
  1  2  1  0
  2  3  2  0
  2  4  1  0
  4  5  1  0
  5  6  1  0
  6  7  1  0
  7  8  1  0
  8  9  2  0
  8 10  1  0
 10 11  1  0
 11 12  1  0
 12 13  2  0
 13 14  1  0
 14 15  2  0
 15 16  1  0
 12 17  1  0
 16 17  2  0
 17 18  1  0
 10 19  1  0
 19 20  2  0
 20 21  1  0
 21 22  2  0
 22 23  1  0
 23 24  1  0
 22 25  1  0
 19 26  1  0
 25 26  2  0
  7 27  1  0
  4 28  1  0
 27 28  1  0
M  END
