piperidine-amides-27247-covalent
     RDKit          3D

 25 26  0  0  0  0  0  0  0  0999 V2000
    7.0530   -3.3350   19.3210 C   0  0  0  0  0  0  0  0  0  0  0  0
    6.3860   -4.1780   20.3150 C   0  0  0  0  0  0  0  0  0  0  0  0
    5.3300   -4.7500   19.9490 O   0  0  0  0  0  0  0  0  0  0  0  0
    6.9430   -4.3780   21.5840 N   0  0  0  0  0  0  0  0  0  0  0  0
    6.6550   -5.5830   22.3120 C   0  0  0  0  0  0  0  0  0  0  0  0
    5.8500   -5.1870   23.5190 C   0  0  0  0  0  0  0  0  0  0  0  0
    6.4760   -4.0220   24.2420 C   0  0  0  0  0  0  0  0  0  0  0  0
    5.5370   -3.5360   25.2890 C   0  0  0  0  0  0  0  0  0  0  0  0
    4.6670   -2.6960   24.9880 O   0  0  0  0  0  0  0  0  0  0  0  0
    5.6130   -4.0070   26.6060 N   0  0  0  0  0  0  0  0  0  0  0  0
    6.8960   -4.3990   26.9700 C   0  0  0  0  0  0  0  0  0  0  0  0
    6.9520   -5.7100   27.6750 C   0  0  0  0  0  0  0  0  0  0  0  0
    6.8680   -5.7300   29.0100 C   0  0  0  0  0  0  0  0  0  0  0  0
    5.7080   -5.3600   29.5890 N   0  0  0  0  0  0  0  0  0  0  0  0
    5.1170   -6.2090   30.4680 C   0  0  0  0  0  0  0  0  0  0  0  0
    5.8170   -6.6390   31.5070 O   0  0  0  0  0  0  0  0  0  0  0  0
    3.8160   -6.6630   30.3690 O   0  0  0  0  0  0  0  0  0  0  0  0
    3.1190   -7.1990   31.4640 C   0  0  0  0  0  0  0  0  0  0  0  0
    3.2440   -6.3260   32.5280 C   0  0  0  0  0  0  0  0  0  0  0  0
    3.1780   -4.9560   32.3890 C   0  0  0  0  0  0  0  0  0  0  0  0
    2.0110   -5.5730   33.0650 C   0  0  0  0  0  0  0  0  0  0  0  0
    4.8170   -4.5480   28.8190 C   0  0  0  0  0  0  0  0  0  0  0  0
    5.5180   -3.4950   27.9650 C   0  0  0  0  0  0  0  0  0  0  0  0
    6.7890   -2.8900   23.2990 C   0  0  0  0  0  0  0  0  0  0  0  0
    7.6520   -3.3250   22.3160 C   0  0  0  0  0  0  0  0  0  0  0  0
  1  2  1  0
  2  3  2  0
  2  4  1  0
  4  5  1  0
  5  6  1  0
  6  7  1  0
  7  8  1  0
  8  9  2  0
  8 10  1  0
 10 11  1  0
 11 12  1  0
 12 13  1  0
 13 14  1  0
 14 15  1  0
 15 16  2  0
 15 17  1  0
 17 18  1  0
 18 19  1  0
 19 20  1  0
 19 21  1  0
 14 22  1  0
 10 23  1  0
 22 23  1  0
  7 24  1  0
  4 25  1  0
 24 25  1  0
M  END
