piperidine-amides-3673-covalent
     RDKit          3D

 17 17  0  0  0  0  0  0  0  0999 V2000
    7.1500   -3.2950   19.1860 C   0  0  0  0  0  0  0  0  0  0  0  0
    6.4100   -4.0400   20.2200 C   0  0  0  0  0  0  0  0  0  0  0  0
    5.3020   -4.5230   19.8800 O   0  0  0  0  0  0  0  0  0  0  0  0
    6.9510   -4.2620   21.5100 N   0  0  0  0  0  0  0  0  0  0  0  0
    6.3930   -5.3100   22.2790 C   0  0  0  0  0  0  0  0  0  0  0  0
    5.8510   -4.8680   23.5640 C   0  0  0  0  0  0  0  0  0  0  0  0
    6.5200   -3.6970   24.1890 C   0  0  0  0  0  0  0  0  0  0  0  0
    5.7840   -3.2460   25.4160 C   0  0  0  0  0  0  0  0  0  0  0  0
    4.5590   -3.0380   25.3400 O   0  0  0  0  0  0  0  0  0  0  0  0
    6.4340   -3.0550   26.6500 N   0  0  0  0  0  0  0  0  0  0  0  0
    6.3070   -3.8170   27.8370 C   0  0  0  0  0  0  0  0  0  0  0  0
    6.0910   -5.2620   27.8390 C   0  0  0  0  0  0  0  0  0  0  0  0
    6.0470   -5.8810   26.7350 O   0  0  0  0  0  0  0  0  0  0  0  0
    5.9190   -5.9850   29.0030 O   0  0  0  0  0  0  0  0  0  0  0  0
    5.4290   -7.3180   28.9750 C   0  0  0  0  0  0  0  0  0  0  0  0
    6.6620   -2.6060   23.1540 C   0  0  0  0  0  0  0  0  0  0  0  0
    7.6400   -3.1400   22.1150 C   0  0  0  0  0  0  0  0  0  0  0  0
  1  2  1  0
  2  3  2  0
  2  4  1  0
  4  5  1  0
  5  6  1  0
  6  7  1  0
  7  8  1  0
  8  9  2  0
  8 10  1  0
 10 11  1  0
 11 12  1  0
 12 13  2  0
 12 14  1  0
 14 15  1  0
  7 16  1  0
  4 17  1  0
 16 17  1  0
M  END
