piperidine-amides-12195-covalent
     RDKit          3D

 24 26  0  0  0  0  0  0  0  0999 V2000
    7.1360   -3.2780   19.1770 C   0  0  0  0  0  0  0  0  0  0  0  0
    6.3810   -4.0090   20.1870 C   0  0  0  0  0  0  0  0  0  0  0  0
    5.3080   -4.5280   19.8890 O   0  0  0  0  0  0  0  0  0  0  0  0
    6.9240   -4.1750   21.5050 N   0  0  0  0  0  0  0  0  0  0  0  0
    7.7660   -3.1570   22.0740 C   0  0  0  0  0  0  0  0  0  0  0  0
    7.1480   -2.6340   23.3280 C   0  0  0  0  0  0  0  0  0  0  0  0
    6.6070   -3.8090   24.1220 C   0  0  0  0  0  0  0  0  0  0  0  0
    5.8040   -3.2920   25.2550 C   0  0  0  0  0  0  0  0  0  0  0  0
    5.1730   -2.2190   25.2100 O   0  0  0  0  0  0  0  0  0  0  0  0
    5.7390   -4.0710   26.4190 N   0  0  0  0  0  0  0  0  0  0  0  0
    4.9360   -5.2670   26.3220 C   0  0  2  0  0  0  0  0  0  0  0  0
    3.4570   -5.0220   26.2000 C   0  0  0  0  0  0  0  0  0  0  0  0
    3.1830   -5.4650   27.4570 C   0  0  2  0  0  0  0  0  0  0  0  0
    2.7040   -4.6530   28.2830 O   0  0  0  0  0  0  0  0  0  0  0  0
    1.4850   -4.9590   28.8970 C   0  0  0  0  0  0  0  0  0  0  0  0
    1.5370   -5.8340   29.9620 C   0  0  0  0  0  0  0  0  0  0  0  0
    4.6390   -5.7510   27.7410 C   0  0  0  0  0  0  0  0  0  0  0  0
    5.0070   -4.9470   28.7790 C   0  0  0  0  0  0  0  0  0  0  0  0
    5.1590   -5.5310   30.0110 C   0  0  0  0  0  0  0  0  0  0  0  0
    5.0410   -6.7610   30.1940 O   0  0  0  0  0  0  0  0  0  0  0  0
    5.6070   -7.4240   29.1500 C   0  0  0  0  0  0  0  0  0  0  0  0
    4.8190   -7.1340   27.9550 C   0  0  0  0  0  0  0  0  0  0  0  0
    5.7800   -4.8010   23.3160 C   0  0  0  0  0  0  0  0  0  0  0  0
    6.5790   -5.3090   22.3030 C   0  0  0  0  0  0  0  0  0  0  0  0
  1  2  1  0
  2  3  2  0
  2  4  1  0
  4  5  1  0
  5  6  1  0
  6  7  1  0
  7  8  1  0
  8  9  2  0
  8 10  1  0
 11 10  1  1
 11 12  1  0
 12 13  1  0
 13 14  1  1
 14 15  1  0
 15 16  1  0
 11 17  1  0
 13 17  1  0
 17 18  1  0
 18 19  1  0
 19 20  1  0
 20 21  1  0
 17 22  1  0
 21 22  1  0
  7 23  1  0
  4 24  1  0
 23 24  1  0
M  END
