piperidine-amides-24447-covalent
     RDKit          3D

 24 26  0  0  0  0  0  0  0  0999 V2000
    7.0470   -3.3400   19.4050 C   0  0  0  0  0  0  0  0  0  0  0  0
    6.3810   -4.2280   20.3710 C   0  0  0  0  0  0  0  0  0  0  0  0
    5.4020   -4.9150   20.0010 O   0  0  0  0  0  0  0  0  0  0  0  0
    6.8550   -4.3520   21.6910 N   0  0  0  0  0  0  0  0  0  0  0  0
    6.6300   -5.6090   22.3860 C   0  0  0  0  0  0  0  0  0  0  0  0
    6.2880   -5.2950   23.8570 C   0  0  0  0  0  0  0  0  0  0  0  0
    6.1130   -3.8010   23.9420 C   0  0  0  0  0  0  0  0  0  0  0  0
    5.5800   -3.3240   25.2460 C   0  0  0  0  0  0  0  0  0  0  0  0
    4.6940   -2.4510   25.1940 O   0  0  0  0  0  0  0  0  0  0  0  0
    5.9980   -3.8090   26.5130 N   0  0  0  0  0  0  0  0  0  0  0  0
    6.4260   -2.8130   27.4460 C   0  0  0  0  0  0  0  0  0  0  0  0
    6.6590   -3.6200   28.6820 C   0  0  0  0  0  0  0  0  0  0  0  0
    5.9600   -4.7440   28.6080 C   0  0  1  0  0  0  0  0  0  0  0  0
    6.7640   -5.8280   28.7430 F   0  0  0  0  0  0  0  0  0  0  0  0
    4.8920   -4.7520   29.4610 C   0  0  0  0  0  0  0  0  0  0  0  0
    4.4230   -5.8150   30.1590 C   0  0  0  0  0  0  0  0  0  0  0  0
    3.3520   -5.7440   31.0000 C   0  0  0  0  0  0  0  0  0  0  0  0
    2.4020   -4.6280   31.4290 C   0  0  0  0  0  0  0  0  0  0  0  0
    1.3110   -4.6220   32.3050 F   0  0  0  0  0  0  0  0  0  0  0  0
    3.0200   -3.4900   30.5850 C   0  0  0  0  0  0  0  0  0  0  0  0
    4.2090   -3.6070   29.6620 C   0  0  0  0  0  0  0  0  0  0  0  0
    5.3680   -4.8570   27.3330 C   0  0  0  0  0  0  0  0  0  0  0  0
    7.4130   -3.1460   23.6020 C   0  0  0  0  0  0  0  0  0  0  0  0
    7.6330   -3.2840   22.2630 C   0  0  0  0  0  0  0  0  0  0  0  0
  1  2  1  0
  2  3  2  0
  2  4  1  0
  4  5  1  0
  5  6  1  0
  6  7  1  0
  7  8  1  0
  8  9  2  0
  8 10  1  0
 10 11  1  0
 11 12  1  0
 12 13  1  0
 13 14  1  1
 13 15  1  0
 15 16  2  0
 16 17  1  0
 17 18  2  0
 18 19  1  0
 18 20  1  0
 15 21  1  0
 20 21  2  0
 10 22  1  0
 13 22  1  0
  7 23  1  0
  4 24  1  0
 23 24  1  0
M  END
