piperidine-amides-27002-covalent
     RDKit          3D

 25 26  0  0  0  0  0  0  0  0999 V2000
    7.0080   -3.3520   19.4230 C   0  0  0  0  0  0  0  0  0  0  0  0
    6.3700   -4.2240   20.4220 C   0  0  0  0  0  0  0  0  0  0  0  0
    5.3910   -4.8950   19.9960 O   0  0  0  0  0  0  0  0  0  0  0  0
    6.8450   -4.3210   21.7480 N   0  0  0  0  0  0  0  0  0  0  0  0
    6.5730   -5.4950   22.5670 C   0  0  0  0  0  0  0  0  0  0  0  0
    5.9670   -5.0860   23.9050 C   0  0  0  0  0  0  0  0  0  0  0  0
    5.8490   -3.5910   24.0330 C   0  0  0  0  0  0  0  0  0  0  0  0
    5.1870   -3.0860   25.2890 C   0  0  0  0  0  0  0  0  0  0  0  0
    4.4830   -2.0760   25.1260 O   0  0  0  0  0  0  0  0  0  0  0  0
    5.2300   -3.5740   26.6350 N   0  0  0  0  0  0  0  0  0  0  0  0
    6.4330   -3.4580   27.3630 C   0  0  0  0  0  0  0  0  0  0  0  0
    6.6120   -4.7020   28.2320 C   0  0  0  0  0  0  0  0  0  0  0  0
    5.6230   -5.0270   29.0330 C   0  0  0  0  0  0  0  0  0  0  0  0
    5.1040   -6.3030   29.0290 C   0  0  0  0  0  0  0  0  0  0  0  0
    5.0610   -6.8080   27.8160 O   0  0  0  0  0  0  0  0  0  0  0  0
    4.6820   -6.9250   30.1500 N   0  0  0  0  0  0  0  0  0  0  0  0
    5.5280   -7.4120   31.0530 C   0  0  0  0  0  0  0  0  0  0  0  0
    3.5110   -7.5100   29.8470 C   0  0  0  0  0  0  0  0  0  0  0  0
    2.5520   -7.6890   30.8200 C   0  0  0  0  0  0  0  0  0  0  0  0
    3.0240   -7.9940   32.2240 C   0  0  0  0  0  0  0  0  0  0  0  0
    1.8470   -8.8460   32.6890 C   0  0  0  0  0  0  0  0  0  0  0  0
    4.5280   -4.2440   28.8970 C   0  0  0  0  0  0  0  0  0  0  0  0
    4.6340   -3.0860   27.8890 C   0  0  0  0  0  0  0  0  0  0  0  0
    7.1380   -2.9120   23.7350 C   0  0  0  0  0  0  0  0  0  0  0  0
    7.6120   -3.2440   22.3350 C   0  0  0  0  0  0  0  0  0  0  0  0
  1  2  1  0
  2  3  2  0
  2  4  1  0
  4  5  1  0
  5  6  1  0
  6  7  1  0
  7  8  1  0
  8  9  2  0
  8 10  1  0
 10 11  1  0
 11 12  1  0
 12 13  1  0
 13 14  1  0
 14 15  2  0
 14 16  1  0
 16 17  1  0
 16 18  1  0
 18 19  1  0
 19 20  1  0
 20 21  1  0
 13 22  1  0
 10 23  1  0
 22 23  1  0
  7 24  1  0
  4 25  1  0
 24 25  1  0
M  END
