piperidine-amides-9002-covalent
     RDKit          3D

 21 23  0  0  0  0  0  0  0  0999 V2000
    7.0750   -3.2810   19.2460 C   0  0  0  0  0  0  0  0  0  0  0  0
    6.3490   -4.0430   20.2690 C   0  0  0  0  0  0  0  0  0  0  0  0
    5.3380   -4.6790   19.9340 O   0  0  0  0  0  0  0  0  0  0  0  0
    6.7890   -4.1090   21.6060 N   0  0  0  0  0  0  0  0  0  0  0  0
    7.7090   -3.1370   22.1770 C   0  0  0  0  0  0  0  0  0  0  0  0
    7.3570   -2.9820   23.6320 C   0  0  0  0  0  0  0  0  0  0  0  0
    6.0440   -3.6290   23.9430 C   0  0  0  0  0  0  0  0  0  0  0  0
    5.5440   -3.3490   25.3130 C   0  0  0  0  0  0  0  0  0  0  0  0
    4.3200   -3.5220   25.5760 O   0  0  0  0  0  0  0  0  0  0  0  0
    6.3490   -2.8780   26.3730 N   0  0  0  0  0  0  0  0  0  0  0  0
    6.6340   -1.4350   26.4800 C   0  0  0  0  0  0  0  0  0  0  0  0
    6.4710   -1.0110   27.8940 C   0  0  0  0  0  0  0  0  0  0  0  0
    6.9660   -1.8440   28.8320 N   0  0  0  0  0  0  0  0  0  0  0  0
    6.7020   -1.2560   29.9330 N   0  0  0  0  0  0  0  0  0  0  0  0
    6.0180   -0.0040   29.7340 C   0  0  0  0  0  0  0  0  0  0  0  0
    5.7730    0.3190   28.2690 C   0  0  0  0  0  0  0  0  0  0  0  0
    5.1220    1.4600   27.5110 C   0  0  0  0  0  0  0  0  0  0  0  0
    5.3910    2.5840   28.1770 C   0  0  0  0  0  0  0  0  0  0  0  0
    3.9860    2.3900   28.1800 C   0  0  0  0  0  0  0  0  0  0  0  0
    6.1070   -5.1140   23.7070 C   0  0  0  0  0  0  0  0  0  0  0  0
    6.6520   -5.3720   22.3160 C   0  0  0  0  0  0  0  0  0  0  0  0
  1  2  1  0
  2  3  2  0
  2  4  1  0
  4  5  1  0
  5  6  1  0
  6  7  1  0
  7  8  1  0
  8  9  2  0
  8 10  1  0
 10 11  1  0
 11 12  1  0
 12 13  1  0
 13 14  1  0
 14 15  2  0
 12 16  2  0
 15 16  1  0
 16 17  1  0
 17 18  1  0
 17 19  1  0
 18 19  1  0
  7 20  1  0
  4 21  1  0
 20 21  1  0
M  END
