piperidine-amides-35554-covalent
     RDKit          3D

 37 41  0  0  0  0  0  0  0  0999 V2000
    7.0530   -3.3540   19.4040 C   0  0  0  0  0  0  0  0  0  0  0  0
    6.3520   -4.2000   20.3990 C   0  0  0  0  0  0  0  0  0  0  0  0
    5.3800   -4.8350   19.9860 O   0  0  0  0  0  0  0  0  0  0  0  0
    6.8240   -4.2950   21.7230 N   0  0  0  0  0  0  0  0  0  0  0  0
    6.6230   -5.4860   22.5090 C   0  0  0  0  0  0  0  0  0  0  0  0
    5.9490   -5.1200   23.8070 C   0  0  0  0  0  0  0  0  0  0  0  0
    5.7540   -3.6030   23.8800 C   0  0  0  0  0  0  0  0  0  0  0  0
    4.9750   -3.2840   25.1240 C   0  0  0  0  0  0  0  0  0  0  0  0
    3.8170   -3.6950   25.1750 O   0  0  0  0  0  0  0  0  0  0  0  0
    5.4330   -2.5430   26.2370 N   0  0  0  0  0  0  0  0  0  0  0  0
    6.5350   -3.0370   26.9140 C   0  0  0  0  0  0  0  0  0  0  0  0
    6.1390   -4.2460   27.7430 C   0  0  0  0  0  0  0  0  0  0  0  0
    5.9020   -4.4510   29.0770 C   0  0  0  0  0  0  0  0  0  0  0  0
    5.5880   -5.7430   29.2880 C   0  0  0  0  0  0  0  0  0  0  0  0
    5.6260   -6.3490   28.0830 C   0  0  0  0  0  0  0  0  0  0  0  0
    5.9580   -5.4720   27.1000 O   0  0  0  0  0  0  0  0  0  0  0  0
    5.8750   -1.1730   26.4360 C   0  0  0  0  0  0  0  0  0  0  0  0
    6.8530   -1.1210   27.6260 C   0  0  0  0  0  0  0  0  0  0  0  0
    7.3590    0.2780   27.8870 C   0  0  0  0  0  0  0  0  0  0  0  0
    6.7810    1.2430   26.9450 C   0  0  0  0  0  0  0  0  0  0  0  0
    7.1610    2.5970   27.0810 N   0  0  0  0  0  0  0  0  0  0  0  0
    6.4830    3.3330   26.0780 C   0  0  0  0  0  0  0  0  0  0  0  0
    5.6740    2.2820   25.3480 C   0  0  0  0  0  0  0  0  0  0  0  0
    4.7430    2.4100   24.1870 C   0  0  0  0  0  0  0  0  0  0  0  0
    5.1560    1.9620   22.8040 C   0  0  0  0  0  0  0  0  0  0  0  0
    4.2400    2.0990   21.7830 C   0  0  0  0  0  0  0  0  0  0  0  0
    2.8860    2.6840   22.0860 C   0  0  0  0  0  0  0  0  0  0  0  0
    1.8770    2.8710   21.1620 O   0  0  0  0  0  0  0  0  0  0  0  0
    1.0960    2.6370   20.1460 C   0  0  0  0  0  0  0  0  0  0  0  0
    2.5420    3.0930   23.3880 C   0  0  0  0  0  0  0  0  0  0  0  0
    1.4010    3.5650   23.5330 O   0  0  0  0  0  0  0  0  0  0  0  0
    1.3440    4.9960   23.5410 C   0  0  0  0  0  0  0  0  0  0  0  0
    3.4710    2.9530   24.4240 C   0  0  0  0  0  0  0  0  0  0  0  0
    5.9230    1.1260   25.9300 N   0  0  0  0  0  0  0  0  0  0  0  0
    5.4560   -0.0720   25.6480 N   0  0  0  0  0  0  0  0  0  0  0  0
    7.1200   -2.9810   23.7460 C   0  0  0  0  0  0  0  0  0  0  0  0
    7.6150   -3.2130   22.3160 C   0  0  0  0  0  0  0  0  0  0  0  0
  1  2  1  0
  2  3  2  0
  2  4  1  0
  4  5  1  0
  5  6  1  0
  6  7  1  0
  7  8  1  0
  8  9  2  0
  8 10  1  0
 10 11  1  0
 11 12  1  0
 12 13  2  0
 13 14  1  0
 14 15  2  0
 12 16  1  0
 15 16  1  0
 10 17  1  0
 17 18  1  0
 18 19  2  0
 19 20  1  0
 20 21  2  0
 21 22  1  0
 22 23  2  0
 23 24  1  0
 24 25  2  0
 25 26  1  0
 26 27  2  0
 27 28  1  0
 28 29  1  0
 27 30  1  0
 30 31  1  0
 31 32  1  0
 24 33  1  0
 30 33  2  0
 20 34  1  0
 23 34  1  0
 17 35  2  0
 34 35  1  0
  7 36  1  0
  4 37  1  0
 36 37  1  0
M  END
