piperidine-amides-25557-covalent
     RDKit          3D

 25 27  0  0  0  0  0  0  0  0999 V2000
    7.0180   -3.3170   19.4060 C   0  0  0  0  0  0  0  0  0  0  0  0
    6.3600   -4.2020   20.4070 C   0  0  0  0  0  0  0  0  0  0  0  0
    5.4050   -4.8630   19.9920 O   0  0  0  0  0  0  0  0  0  0  0  0
    6.8280   -4.3140   21.7320 N   0  0  0  0  0  0  0  0  0  0  0  0
    6.7610   -5.5830   22.4030 C   0  0  0  0  0  0  0  0  0  0  0  0
    6.1370   -5.3870   23.7470 C   0  0  0  0  0  0  0  0  0  0  0  0
    5.8490   -3.9050   23.9630 C   0  0  0  0  0  0  0  0  0  0  0  0
    5.1570   -3.7850   25.2960 C   0  0  0  0  0  0  0  0  0  0  0  0
    4.2230   -4.5610   25.4760 O   0  0  0  0  0  0  0  0  0  0  0  0
    5.3990   -2.8800   26.3590 N   0  0  0  0  0  0  0  0  0  0  0  0
    6.6130   -2.9540   27.0670 C   0  0  0  0  0  0  0  0  0  0  0  0
    6.6090   -4.1230   28.0730 C   0  0  0  0  0  0  0  0  0  0  0  0
    5.5510   -3.9030   29.0420 N   0  0  0  0  0  0  0  0  0  0  0  0
    5.3180   -5.2150   29.6250 C   0  0  0  0  0  0  0  0  0  0  0  0
    4.2030   -5.1270   30.3710 C   0  0  0  0  0  0  0  0  0  0  0  0
    3.8430   -6.2290   30.9850 C   0  0  0  0  0  0  0  0  0  0  0  0
    4.4910   -7.5480   30.9680 C   0  0  0  0  0  0  0  0  0  0  0  0
    5.7310   -7.5450   30.1020 C   0  0  0  0  0  0  0  0  0  0  0  0
    6.2950   -6.3440   29.3130 C   0  0  0  0  0  0  0  0  0  0  0  0
    4.3270   -3.5090   28.4400 C   0  0  0  0  0  0  0  0  0  0  0  0
    4.4110   -2.4870   27.3710 C   0  0  1  0  0  0  0  0  0  0  0  0
    4.5790   -1.0410   27.8170 C   0  0  0  0  0  0  0  0  0  0  0  0
    3.8560   -0.6020   29.0430 C   0  0  0  0  0  0  0  0  0  0  0  0
    7.1270   -3.0980   23.7490 C   0  0  0  0  0  0  0  0  0  0  0  0
    7.5570   -3.2320   22.4210 C   0  0  0  0  0  0  0  0  0  0  0  0
  1  2  1  0
  2  3  2  0
  2  4  1  0
  4  5  1  0
  5  6  1  0
  6  7  1  0
  7  8  1  0
  8  9  2  0
  8 10  1  0
 10 11  1  0
 11 12  1  0
 12 13  1  0
 13 14  1  0
 14 15  2  0
 15 16  1  0
 16 17  2  0
 17 18  1  0
 14 19  1  0
 18 19  2  0
 13 20  1  0
 10 21  1  0
 20 21  1  0
 21 22  1  1
 22 23  1  0
  7 24  1  0
  4 25  1  0
 24 25  1  0
M  END
