piperidine-amides-7215-covalent
     RDKit          3D

 21 22  0  0  0  0  0  0  0  0999 V2000
    7.1150   -3.2640   19.1760 C   0  0  0  0  0  0  0  0  0  0  0  0
    6.3800   -4.0040   20.2060 C   0  0  0  0  0  0  0  0  0  0  0  0
    5.2830   -4.5130   19.8660 O   0  0  0  0  0  0  0  0  0  0  0  0
    6.9260   -4.1620   21.4760 N   0  0  0  0  0  0  0  0  0  0  0  0
    7.6940   -3.1150   22.1040 C   0  0  0  0  0  0  0  0  0  0  0  0
    6.9360   -2.6510   23.3100 C   0  0  0  0  0  0  0  0  0  0  0  0
    6.5490   -3.8170   24.1730 C   0  0  0  0  0  0  0  0  0  0  0  0
    5.8090   -3.3550   25.3690 C   0  0  0  0  0  0  0  0  0  0  0  0
    4.5600   -3.3530   25.3100 O   0  0  0  0  0  0  0  0  0  0  0  0
    6.4350   -2.9230   26.5580 N   0  0  0  0  0  0  0  0  0  0  0  0
    6.5060   -1.5210   26.9010 C   0  0  0  0  0  0  0  0  0  0  0  0
    5.2960   -1.0590   27.7070 C   0  0  0  0  0  0  0  0  0  0  0  0
    5.5100   -0.8600   29.1440 N   0  0  0  0  0  0  0  0  0  0  0  0
    4.3290   -0.4650   29.6250 N   0  0  0  0  0  0  0  0  0  0  0  0
    3.4580   -0.4220   28.5840 C   0  0  0  0  0  0  0  0  0  0  0  0
    2.1930   -0.0230   28.9700 C   0  0  0  0  0  0  0  0  0  0  0  0
    1.2360   -1.0120   28.7760 C   0  0  0  0  0  0  0  0  0  0  0  0
    1.6640    1.1260   28.1470 C   0  0  0  0  0  0  0  0  0  0  0  0
    4.0220   -0.7760   27.4140 N   0  0  0  0  0  0  0  0  0  0  0  0
    5.6480   -4.8030   23.4460 C   0  0  0  0  0  0  0  0  0  0  0  0
    6.4130   -5.2930   22.2460 C   0  0  0  0  0  0  0  0  0  0  0  0
  1  2  1  0
  2  3  2  0
  2  4  1  0
  4  5  1  0
  5  6  1  0
  6  7  1  0
  7  8  1  0
  8  9  2  0
  8 10  1  0
 10 11  1  0
 11 12  1  0
 12 13  2  0
 13 14  1  0
 14 15  1  0
 15 16  1  0
 16 17  1  0
 16 18  1  0
 12 19  1  0
 15 19  2  0
  7 20  1  0
  4 21  1  0
 20 21  1  0
M  END
