piperidine-amides-194-covalent
     RDKit          3D

 22 23  0  0  0  0  0  0  0  0999 V2000
    7.0590   -3.3680   19.2970 C   0  0  0  0  0  0  0  0  0  0  0  0
    6.3140   -4.0740   20.3190 C   0  0  0  0  0  0  0  0  0  0  0  0
    5.2810   -4.7010   19.9360 O   0  0  0  0  0  0  0  0  0  0  0  0
    6.6960   -4.1430   21.6780 N   0  0  0  0  0  0  0  0  0  0  0  0
    6.6210   -5.4940   22.3080 C   0  0  0  0  0  0  0  0  0  0  0  0
    6.0330   -5.1860   23.7490 C   0  0  0  0  0  0  0  0  0  0  0  0
    6.1320   -3.6970   23.9150 C   0  0  0  0  0  0  0  0  0  0  0  0
    5.5180   -3.1270   25.2660 C   0  0  0  0  0  0  0  0  0  0  0  0
    5.0790   -1.9990   25.0980 O   0  0  0  0  0  0  0  0  0  0  0  0
    5.6290   -3.9950   26.1890 N   0  0  0  0  0  0  0  0  0  0  0  0
    5.6830   -4.8830   27.2210 C   0  0  0  0  0  0  0  0  0  0  0  0
    5.1100   -5.2910   28.3810 C   0  0  2  0  0  0  0  0  0  0  0  0
    6.0320   -5.7790   29.3470 C   0  0  0  0  0  0  0  0  0  0  0  0
    3.9260   -6.2760   28.2520 C   0  0  0  0  0  0  0  0  0  0  0  0
    3.6740   -6.3930   29.7980 C   0  0  0  0  0  0  0  0  0  0  0  0
    3.6620   -5.0020   30.0860 C   0  0  2  0  0  0  0  0  0  0  0  0
    2.8040   -4.0650   29.4910 C   0  0  0  0  0  0  0  0  0  0  0  0
    4.4240   -4.1820   29.0980 C   0  0  0  0  0  0  0  0  0  0  0  0
    3.5990   -3.8570   27.7940 C   0  0  0  0  0  0  0  0  0  0  0  0
    5.3360   -3.1000   29.5650 C   0  0  0  0  0  0  0  0  0  0  0  0
    7.4790   -3.1130   23.5480 C   0  0  0  0  0  0  0  0  0  0  0  0
    7.6220   -3.1620   22.2050 C   0  0  0  0  0  0  0  0  0  0  0  0
  1  2  1  0
  2  3  2  0
  2  4  1  0
  4  5  1  0
  5  6  1  0
  6  7  1  0
  7  8  1  0
  8  9  2  0
  8 10  1  0
 10 11  1  0
 12 11  1  0
 12 13  1  1
 12 14  1  0
 14 15  1  0
 15 16  1  0
 16 17  1  6
 12 18  1  0
 16 18  1  0
 18 19  1  0
 18 20  1  0
  7 21  1  0
  4 22  1  0
 21 22  1  0
M  END
