piperidine-amides-27276-covalent
     RDKit          3D

 25 26  0  0  0  0  0  0  0  0999 V2000
    7.0580   -3.3310   19.3280 C   0  0  0  0  0  0  0  0  0  0  0  0
    6.3820   -4.1730   20.3160 C   0  0  0  0  0  0  0  0  0  0  0  0
    5.3180   -4.7270   19.9440 O   0  0  0  0  0  0  0  0  0  0  0  0
    6.9390   -4.3880   21.5780 N   0  0  0  0  0  0  0  0  0  0  0  0
    6.6630   -5.6050   22.2900 C   0  0  0  0  0  0  0  0  0  0  0  0
    5.8870   -5.2350   23.5170 C   0  0  0  0  0  0  0  0  0  0  0  0
    6.5060   -4.0710   24.2450 C   0  0  0  0  0  0  0  0  0  0  0  0
    5.5340   -3.5960   25.2570 C   0  0  0  0  0  0  0  0  0  0  0  0
    4.6650   -2.7690   24.9200 O   0  0  0  0  0  0  0  0  0  0  0  0
    5.5660   -4.0500   26.5810 N   0  0  0  0  0  0  0  0  0  0  0  0
    6.8590   -4.2370   27.0960 C   0  0  0  0  0  0  0  0  0  0  0  0
    6.9650   -5.3010   28.1530 C   0  0  0  0  0  0  0  0  0  0  0  0
    5.9910   -5.3360   29.0780 C   0  0  0  0  0  0  0  0  0  0  0  0
    4.8950   -4.5430   28.8140 C   0  0  1  0  0  0  0  0  0  0  0  0
    4.2660   -4.1260   29.9320 N   0  0  0  0  0  0  0  0  0  0  0  0
    3.1400   -4.7200   30.3260 C   0  0  0  0  0  0  0  0  0  0  0  0
    2.0410   -4.6540   29.4980 O   0  0  0  0  0  0  0  0  0  0  0  0
    3.0090   -5.4020   31.5280 O   0  0  0  0  0  0  0  0  0  0  0  0
    2.6260   -6.7450   31.5310 C   0  0  0  0  0  0  0  0  0  0  0  0
    3.1710   -7.5080   32.5460 C   0  0  0  0  0  0  0  0  0  0  0  0
    3.5090   -7.9480   31.1620 C   0  0  0  0  0  0  0  0  0  0  0  0
    1.1640   -6.9670   31.3130 C   0  0  0  0  0  0  0  0  0  0  0  0
    5.1830   -3.5480   27.8890 C   0  0  0  0  0  0  0  0  0  0  0  0
    6.8270   -2.9260   23.3190 C   0  0  0  0  0  0  0  0  0  0  0  0
    7.6710   -3.3540   22.3190 C   0  0  0  0  0  0  0  0  0  0  0  0
  1  2  1  0
  2  3  2  0
  2  4  1  0
  4  5  1  0
  5  6  1  0
  6  7  1  0
  7  8  1  0
  8  9  2  0
  8 10  1  0
 10 11  1  0
 11 12  1  0
 12 13  1  0
 13 14  1  0
 14 15  1  1
 15 16  1  0
 16 17  2  0
 16 18  1  0
 19 18  1  0
 19 20  1  0
 19 21  1  0
 19 22  1  0
 10 23  1  0
 14 23  1  0
  7 24  1  0
  4 25  1  0
 24 25  1  0
M  END
