piperidine-amides-10971-covalent
     RDKit          3D

 21 22  0  0  0  0  0  0  0  0999 V2000
    7.0680   -3.3370   19.3380 C   0  0  0  0  0  0  0  0  0  0  0  0
    6.3820   -4.1610   20.3370 C   0  0  0  0  0  0  0  0  0  0  0  0
    5.3910   -4.8220   19.9810 O   0  0  0  0  0  0  0  0  0  0  0  0
    6.8410   -4.2630   21.6680 N   0  0  0  0  0  0  0  0  0  0  0  0
    6.7020   -5.4830   22.4340 C   0  0  0  0  0  0  0  0  0  0  0  0
    6.0220   -5.1000   23.7250 C   0  0  0  0  0  0  0  0  0  0  0  0
    6.0780   -3.6190   23.9560 C   0  0  0  0  0  0  0  0  0  0  0  0
    5.6420   -3.1930   25.3090 C   0  0  0  0  0  0  0  0  0  0  0  0
    4.4070   -3.0960   25.5700 O   0  0  0  0  0  0  0  0  0  0  0  0
    6.5400   -2.8860   26.3470 N   0  0  0  0  0  0  0  0  0  0  0  0
    6.4750   -1.6160   27.1070 C   0  0  0  0  0  0  0  0  0  0  0  0
    7.0470   -1.6280   28.4720 C   0  0  0  0  0  0  0  0  0  0  0  0
    7.0190   -0.4140   29.2830 C   0  0  0  0  0  0  0  0  0  0  0  0
    6.4010    0.8100   28.6920 C   0  0  0  0  0  0  0  0  0  0  0  0
    5.8370    0.7380   27.2880 C   0  0  0  0  0  0  0  0  0  0  0  0
    5.2680    2.0440   26.8710 C   0  0  0  0  0  0  0  0  0  0  0  0
    4.1820    2.4380   27.6110 C   0  0  0  0  0  0  0  0  0  0  0  0
    3.1030    1.8020   27.3650 O   0  0  0  0  0  0  0  0  0  0  0  0
    5.8480   -0.3950   26.4870 C   0  0  0  0  0  0  0  0  0  0  0  0
    7.4670   -3.0480   23.6740 C   0  0  0  0  0  0  0  0  0  0  0  0
    7.6960   -3.1920   22.1680 C   0  0  0  0  0  0  0  0  0  0  0  0
  1  2  1  0
  2  3  2  0
  2  4  1  0
  4  5  1  0
  5  6  1  0
  6  7  1  0
  7  8  1  0
  8  9  2  0
  8 10  1  0
 10 11  1  0
 11 12  2  0
 12 13  1  0
 13 14  2  0
 14 15  1  0
 15 16  1  0
 16 17  1  0
 17 18  1  0
 11 19  1  0
 15 19  2  0
  7 20  1  0
  4 21  1  0
 20 21  1  0
M  END
