piperidine-amides-15243-covalent
     RDKit          3D

 18 19  0  0  0  0  0  0  0  0999 V2000
    7.1110   -3.2730   19.1810 C   0  0  0  0  0  0  0  0  0  0  0  0
    6.3650   -4.0370   20.1910 C   0  0  0  0  0  0  0  0  0  0  0  0
    5.2890   -4.5970   19.9010 O   0  0  0  0  0  0  0  0  0  0  0  0
    6.8910   -4.1940   21.4740 N   0  0  0  0  0  0  0  0  0  0  0  0
    6.5060   -5.3370   22.2630 C   0  0  0  0  0  0  0  0  0  0  0  0
    5.5850   -4.7910   23.3590 C   0  0  0  0  0  0  0  0  0  0  0  0
    6.4180   -3.8550   24.2180 C   0  0  0  0  0  0  0  0  0  0  0  0
    5.5420   -3.2990   25.2640 C   0  0  0  0  0  0  0  0  0  0  0  0
    4.5330   -2.6560   24.9140 O   0  0  0  0  0  0  0  0  0  0  0  0
    5.8570   -3.5050   26.6220 N   0  0  0  0  0  0  0  0  0  0  0  0
    6.3980   -4.7640   27.0260 C   0  0  0  0  0  0  0  0  0  0  0  0
    7.8770   -4.5930   26.9400 C   0  0  0  0  0  0  0  0  0  0  0  0
    8.1220   -3.2700   27.0130 F   0  0  0  0  0  0  0  0  0  0  0  0
    8.5200   -5.1210   25.9220 C   0  0  0  0  0  0  0  0  0  0  0  0
    9.1600   -5.7900   26.8110 C   0  0  0  0  0  0  0  0  0  0  0  0
    8.5860   -5.3480   28.0420 C   0  0  0  0  0  0  0  0  0  0  0  0
    7.0720   -2.7460   23.4670 C   0  0  0  0  0  0  0  0  0  0  0  0
    7.6140   -3.1330   22.1180 C   0  0  0  0  0  0  0  0  0  0  0  0
  1  2  1  0
  2  3  2  0
  2  4  1  0
  4  5  1  0
  5  6  1  0
  6  7  1  0
  7  8  1  0
  8  9  2  0
  8 10  1  0
 10 11  1  0
 11 12  1  0
 12 13  1  0
 12 14  1  0
 14 15  1  0
 12 16  1  0
 15 16  1  0
  7 17  1  0
  4 18  1  0
 17 18  1  0
M  END
