piperidine-amides-6943-covalent
     RDKit          3D

 22 23  0  0  0  0  0  0  0  0999 V2000
    7.0960   -3.2870   19.2460 C   0  0  0  0  0  0  0  0  0  0  0  0
    6.3810   -4.0890   20.2510 C   0  0  0  0  0  0  0  0  0  0  0  0
    5.3340   -4.7000   19.9390 O   0  0  0  0  0  0  0  0  0  0  0  0
    6.8900   -4.2280   21.5460 N   0  0  0  0  0  0  0  0  0  0  0  0
    7.7050   -3.1810   22.1270 C   0  0  0  0  0  0  0  0  0  0  0  0
    6.9140   -2.6270   23.3080 C   0  0  0  0  0  0  0  0  0  0  0  0
    6.5290   -3.8160   24.1580 C   0  0  0  0  0  0  0  0  0  0  0  0
    5.7630   -3.3580   25.3350 C   0  0  0  0  0  0  0  0  0  0  0  0
    4.5440   -3.1330   25.1970 O   0  0  0  0  0  0  0  0  0  0  0  0
    6.4150   -3.1790   26.5790 N   0  0  0  0  0  0  0  0  0  0  0  0
    6.1080   -4.0140   27.7110 C   0  0  0  0  0  0  0  0  0  0  0  0
    5.7390   -5.4120   27.2370 C   0  0  0  0  0  0  0  0  0  0  0  0
    4.7330   -6.1110   27.8470 C   0  0  0  0  0  0  0  0  0  0  0  0
    3.4270   -6.2730   27.3290 N   0  0  0  0  0  0  0  0  0  0  0  0
    2.3750   -7.0070   27.9630 C   0  0  0  0  0  0  0  0  0  0  0  0
    2.6380   -7.6320   29.2070 C   0  0  0  0  0  0  0  0  0  0  0  0
    1.7860   -8.3860   29.9820 C   0  0  0  0  0  0  0  0  0  0  0  0
    4.0370   -7.4700   29.7870 C   0  0  0  0  0  0  0  0  0  0  0  0
    5.0280   -6.6800   29.0240 C   0  0  0  0  0  0  0  0  0  0  0  0
    6.4180   -6.4520   29.4900 C   0  0  0  0  0  0  0  0  0  0  0  0
    5.6940   -4.8000   23.3590 C   0  0  0  0  0  0  0  0  0  0  0  0
    6.5220   -5.3460   22.3700 C   0  0  0  0  0  0  0  0  0  0  0  0
  1  2  1  0
  2  3  2  0
  2  4  1  0
  4  5  1  0
  5  6  1  0
  6  7  1  0
  7  8  1  0
  8  9  2  0
  8 10  1  0
 10 11  1  0
 11 12  1  0
 12 13  1  0
 13 14  2  0
 14 15  1  0
 15 16  2  0
 16 17  1  0
 16 18  1  0
 13 19  1  0
 18 19  2  0
 19 20  1  0
  7 21  1  0
  4 22  1  0
 21 22  1  0
M  END
