piperidine-amides-28038-covalent
     RDKit          3D

 26 28  0  0  0  0  0  0  0  0999 V2000
    7.0360   -3.4010   19.4550 C   0  0  0  0  0  0  0  0  0  0  0  0
    6.3860   -4.2840   20.4540 C   0  0  0  0  0  0  0  0  0  0  0  0
    5.4310   -4.9660   20.0140 O   0  0  0  0  0  0  0  0  0  0  0  0
    6.8490   -4.3670   21.7950 N   0  0  0  0  0  0  0  0  0  0  0  0
    6.5280   -5.4930   22.6190 C   0  0  0  0  0  0  0  0  0  0  0  0
    5.9290   -5.1130   23.9130 C   0  0  0  0  0  0  0  0  0  0  0  0
    5.8280   -3.6450   24.0570 C   0  0  0  0  0  0  0  0  0  0  0  0
    5.1250   -3.1100   25.3020 C   0  0  0  0  0  0  0  0  0  0  0  0
    4.4270   -2.1100   25.1120 O   0  0  0  0  0  0  0  0  0  0  0  0
    5.1730   -3.6220   26.6360 N   0  0  0  0  0  0  0  0  0  0  0  0
    4.8200   -2.7770   27.7850 C   0  0  0  0  0  0  0  0  0  0  0  0
    4.7530   -3.6200   28.9960 C   0  0  0  0  0  0  0  0  0  0  0  0
    5.1440   -4.9600   28.9000 N   0  0  0  0  0  0  0  0  0  0  0  0
    4.9620   -5.7590   30.0880 C   0  0  0  0  0  0  0  0  0  0  0  0
    5.8630   -6.7690   30.2260 C   0  0  0  0  0  0  0  0  0  0  0  0
    5.7590   -7.5570   31.3350 C   0  0  0  0  0  0  0  0  0  0  0  0
    4.7520   -7.2450   32.1950 C   0  0  0  0  0  0  0  0  0  0  0  0
    4.5720   -7.9750   33.3400 C   0  0  0  0  0  0  0  0  0  0  0  0
    5.3680   -9.0500   33.4090 N   0  0  0  0  0  0  0  0  0  0  0  0
    3.7360   -7.6170   34.1870 O   0  0  0  0  0  0  0  0  0  0  0  0
    3.8770   -6.1840   31.9470 C   0  0  0  0  0  0  0  0  0  0  0  0
    3.9470   -5.3700   30.8440 N   0  0  0  0  0  0  0  0  0  0  0  0
    6.4260   -4.8800   28.3050 C   0  0  0  0  0  0  0  0  0  0  0  0
    6.2830   -4.3910   26.8930 C   0  0  0  0  0  0  0  0  0  0  0  0
    7.1180   -2.9600   23.7600 C   0  0  0  0  0  0  0  0  0  0  0  0
    7.6700   -3.3080   22.3870 C   0  0  0  0  0  0  0  0  0  0  0  0
  1  2  1  0
  2  3  2  0
  2  4  1  0
  4  5  1  0
  5  6  1  0
  6  7  1  0
  7  8  1  0
  8  9  2  0
  8 10  1  0
 10 11  1  0
 11 12  1  0
 12 13  1  0
 13 14  1  0
 14 15  2  0
 15 16  1  0
 16 17  2  0
 17 18  1  0
 18 19  1  0
 18 20  2  0
 17 21  1  0
 14 22  1  0
 21 22  2  0
 13 23  1  0
 10 24  1  0
 23 24  1  0
  7 25  1  0
  4 26  1  0
 25 26  1  0
M  END
