piperidine-amides-29046-covalent
     RDKit          3D

 26 28  0  0  0  0  0  0  0  0999 V2000
    7.0520   -3.3480   19.3580 C   0  0  0  0  0  0  0  0  0  0  0  0
    6.3970   -4.2090   20.3380 C   0  0  0  0  0  0  0  0  0  0  0  0
    5.3790   -4.8280   19.9790 O   0  0  0  0  0  0  0  0  0  0  0  0
    6.9480   -4.3650   21.6350 N   0  0  0  0  0  0  0  0  0  0  0  0
    6.5410   -5.4970   22.4070 C   0  0  0  0  0  0  0  0  0  0  0  0
    5.6910   -5.0100   23.5430 C   0  0  0  0  0  0  0  0  0  0  0  0
    6.5350   -4.0480   24.3560 C   0  0  0  0  0  0  0  0  0  0  0  0
    5.7280   -3.5290   25.5330 C   0  0  0  0  0  0  0  0  0  0  0  0
    4.6660   -3.0080   25.1940 O   0  0  0  0  0  0  0  0  0  0  0  0
    6.1300   -3.6170   26.8890 N   0  0  0  0  0  0  0  0  0  0  0  0
    5.3650   -2.8890   27.8110 C   0  0  0  0  0  0  0  0  0  0  0  0
    4.4990   -3.8370   28.3400 C   0  0  2  0  0  0  0  0  0  0  0  0
    3.8580   -3.5820   29.5350 C   0  0  0  0  0  0  0  0  0  0  0  0
    3.9300   -2.2850   30.1000 C   0  0  0  0  0  0  0  0  0  0  0  0
    3.2040   -2.0380   31.4110 C   0  0  0  0  0  0  0  0  0  0  0  0
    2.4210   -3.1770   32.0850 C   0  0  0  0  0  0  0  0  0  0  0  0
    1.8250   -2.9560   33.1680 O   0  0  0  0  0  0  0  0  0  0  0  0
    0.5630   -3.4850   33.2110 C   0  0  0  0  0  0  0  0  0  0  0  0
    2.3750   -4.5170   31.4570 C   0  0  0  0  0  0  0  0  0  0  0  0
    3.1490   -4.6190   30.1410 C   0  0  0  0  0  0  0  0  0  0  0  0
    5.1410   -5.0850   28.2720 C   0  0  0  0  0  0  0  0  0  0  0  0
    5.3280   -5.6210   29.5480 F   0  0  0  0  0  0  0  0  0  0  0  0
    4.2280   -5.9790   27.7640 F   0  0  0  0  0  0  0  0  0  0  0  0
    6.2510   -4.9160   27.5100 C   0  0  0  0  0  0  0  0  0  0  0  0
    7.0130   -2.8790   23.5570 C   0  0  0  0  0  0  0  0  0  0  0  0
    7.6760   -3.3010   22.2770 C   0  0  0  0  0  0  0  0  0  0  0  0
  1  2  1  0
  2  3  2  0
  2  4  1  0
  4  5  1  0
  5  6  1  0
  6  7  1  0
  7  8  1  0
  8  9  2  0
  8 10  1  0
 10 11  1  0
 11 12  1  0
 12 13  1  1
 13 14  2  0
 14 15  1  0
 15 16  2  0
 16 17  1  0
 17 18  1  0
 16 19  1  0
 13 20  1  0
 19 20  2  0
 12 21  1  0
 21 22  1  0
 21 23  1  0
 10 24  1  0
 21 24  1  0
  7 25  1  0
  4 26  1  0
 25 26  1  0
M  END
