piperidine-amides-6375-covalent
     RDKit          3D

 25 26  0  0  0  0  0  0  0  0999 V2000
    7.1030   -3.2850   19.2470 C   0  0  0  0  0  0  0  0  0  0  0  0
    6.3940   -4.0790   20.2630 C   0  0  0  0  0  0  0  0  0  0  0  0
    5.3640   -4.7160   19.9490 O   0  0  0  0  0  0  0  0  0  0  0  0
    6.8820   -4.1670   21.5740 N   0  0  0  0  0  0  0  0  0  0  0  0
    7.7440   -3.1120   22.0900 C   0  0  0  0  0  0  0  0  0  0  0  0
    7.4790   -2.9800   23.5890 C   0  0  0  0  0  0  0  0  0  0  0  0
    6.1060   -3.5590   23.8000 C   0  0  0  0  0  0  0  0  0  0  0  0
    5.6140   -3.1960   25.1380 C   0  0  0  0  0  0  0  0  0  0  0  0
    4.4520   -2.7540   25.2300 O   0  0  0  0  0  0  0  0  0  0  0  0
    6.4570   -3.3450   26.2600 N   0  0  0  0  0  0  0  0  0  0  0  0
    5.9150   -3.5540   27.5740 C   0  0  1  0  0  0  0  0  0  0  0  0
    4.4760   -3.0510   27.5540 C   0  0  0  0  0  0  0  0  0  0  0  0
    4.0460   -1.7950   27.9460 C   0  0  0  0  0  0  0  0  0  0  0  0
    2.7210   -1.3860   27.9040 C   0  0  0  0  0  0  0  0  0  0  0  0
    1.6800   -2.1930   27.4630 C   0  0  0  0  0  0  0  0  0  0  0  0
    0.0190   -1.6100   27.4340 Cl  0  0  0  0  0  0  0  0  0  0  0  0
    1.9930   -3.4460   27.0560 C   0  0  0  0  0  0  0  0  0  0  0  0
    3.3870   -4.0070   27.0540 C   0  0  0  0  0  0  0  0  0  0  0  0
    3.6220   -5.6400   26.4970 Cl  0  0  0  0  0  0  0  0  0  0  0  0
    5.9490   -4.9960   27.9710 C   0  0  0  0  0  0  0  0  0  0  0  0
    4.8140   -5.1380   28.6990 F   0  0  0  0  0  0  0  0  0  0  0  0
    6.9530   -5.2930   28.9020 F   0  0  0  0  0  0  0  0  0  0  0  0
    6.0960   -5.8750   26.9530 F   0  0  0  0  0  0  0  0  0  0  0  0
    6.0460   -5.0180   23.6310 C   0  0  0  0  0  0  0  0  0  0  0  0
    6.6420   -5.3470   22.3370 C   0  0  0  0  0  0  0  0  0  0  0  0
  1  2  1  0
  2  3  2  0
  2  4  1  0
  4  5  1  0
  5  6  1  0
  6  7  1  0
  7  8  1  0
  8  9  2  0
  8 10  1  0
 11 10  1  6
 11 12  1  0
 12 13  2  0
 13 14  1  0
 14 15  2  0
 15 16  1  0
 15 17  1  0
 12 18  1  0
 17 18  2  0
 18 19  1  0
 11 20  1  0
 20 21  1  0
 20 22  1  0
 20 23  1  0
  7 24  1  0
  4 25  1  0
 24 25  1  0
M  END
