piperidine-amides-6401-covalent
     RDKit          3D

 25 26  0  0  0  0  0  0  0  0999 V2000
    7.0990   -3.3150   19.3050 C   0  0  0  0  0  0  0  0  0  0  0  0
    6.4060   -4.1610   20.2840 C   0  0  0  0  0  0  0  0  0  0  0  0
    5.3730   -4.7890   19.9660 O   0  0  0  0  0  0  0  0  0  0  0  0
    6.9350   -4.3070   21.5710 N   0  0  0  0  0  0  0  0  0  0  0  0
    6.5430   -5.4390   22.3780 C   0  0  0  0  0  0  0  0  0  0  0  0
    5.6500   -4.8730   23.4880 C   0  0  0  0  0  0  0  0  0  0  0  0
    6.5010   -3.8670   24.2260 C   0  0  0  0  0  0  0  0  0  0  0  0
    5.7700   -3.2870   25.3670 C   0  0  0  0  0  0  0  0  0  0  0  0
    4.5390   -3.0990   25.2520 O   0  0  0  0  0  0  0  0  0  0  0  0
    6.4720   -2.9700   26.5500 N   0  0  0  0  0  0  0  0  0  0  0  0
    6.4340   -1.6470   27.1140 C   0  0  0  0  0  0  0  0  0  0  0  0
    6.9790   -1.6500   28.5140 C   0  0  0  0  0  0  0  0  0  0  0  0
    7.0300   -0.5000   29.2360 C   0  0  0  0  0  0  0  0  0  0  0  0
    6.5760    0.6600   28.6550 C   0  0  0  0  0  0  0  0  0  0  0  0
    6.0620    0.7160   27.3520 C   0  0  0  0  0  0  0  0  0  0  0  0
    5.6280    1.8970   26.8070 C   0  0  0  0  0  0  0  0  0  0  0  0
    6.3540    3.0350   26.9380 N   0  0  0  0  0  0  0  0  0  0  0  0
    5.8240    3.7970   27.9090 C   0  0  0  0  0  0  0  0  0  0  0  0
    4.4980    4.3220   27.4170 C   0  0  0  0  0  0  0  0  0  0  0  0
    7.0530    3.6410   25.7970 C   0  0  0  0  0  0  0  0  0  0  0  0
    8.5010    3.8420   25.7320 C   0  0  0  0  0  0  0  0  0  0  0  0
    6.3300    4.0280   24.7790 O   0  0  0  0  0  0  0  0  0  0  0  0
    6.0030   -0.4470   26.6090 C   0  0  0  0  0  0  0  0  0  0  0  0
    6.8320   -2.7140   23.2930 C   0  0  0  0  0  0  0  0  0  0  0  0
    7.6880   -3.2340   22.1780 C   0  0  0  0  0  0  0  0  0  0  0  0
  1  2  1  0
  2  3  2  0
  2  4  1  0
  4  5  1  0
  5  6  1  0
  6  7  1  0
  7  8  1  0
  8  9  2  0
  8 10  1  0
 10 11  1  0
 11 12  2  0
 12 13  1  0
 13 14  2  0
 14 15  1  0
 15 16  1  0
 16 17  1  0
 17 18  1  0
 18 19  1  0
 17 20  1  0
 20 21  1  0
 20 22  2  0
 11 23  1  0
 15 23  2  0
  7 24  1  0
  4 25  1  0
 24 25  1  0
M  END
