piperidine-amides-10579-covalent
     RDKit          3D

 23 25  0  0  0  0  0  0  0  0999 V2000
    7.0540   -3.3160   19.2980 C   0  0  0  0  0  0  0  0  0  0  0  0
    6.3450   -4.1170   20.3020 C   0  0  0  0  0  0  0  0  0  0  0  0
    5.2980   -4.7010   19.9250 O   0  0  0  0  0  0  0  0  0  0  0  0
    6.8530   -4.2480   21.5910 N   0  0  0  0  0  0  0  0  0  0  0  0
    7.6760   -3.2070   22.1690 C   0  0  0  0  0  0  0  0  0  0  0  0
    6.9960   -2.7100   23.4050 C   0  0  0  0  0  0  0  0  0  0  0  0
    6.6010   -3.8700   24.2650 C   0  0  0  0  0  0  0  0  0  0  0  0
    5.8060   -3.4170   25.4330 C   0  0  0  0  0  0  0  0  0  0  0  0
    4.5610   -3.2860   25.3510 O   0  0  0  0  0  0  0  0  0  0  0  0
    6.4040   -3.1350   26.6670 N   0  0  0  0  0  0  0  0  0  0  0  0
    6.4030   -1.8240   27.2670 C   0  0  0  0  0  0  0  0  0  0  0  0
    5.8520   -0.5780   26.6210 C   0  0  0  0  0  0  0  0  0  0  0  0
    5.8840    0.6490   27.2730 C   0  0  0  0  0  0  0  0  0  0  0  0
    6.4110    0.8740   28.5600 C   0  0  0  0  0  0  0  0  0  0  0  0
    6.4090    2.1240   29.1510 C   0  0  0  0  0  0  0  0  0  0  0  0
    6.9020    2.4270   30.3950 C   0  0  0  0  0  0  0  0  0  0  0  0
    6.8760    4.1850   31.1670 Br  0  0  0  0  0  0  0  0  0  0  0  0
    7.4440    1.3960   31.1160 C   0  0  0  0  0  0  0  0  0  0  0  0
    7.5420   -0.0390   30.6520 C   0  0  0  0  0  0  0  0  0  0  0  0
    6.9530   -0.2300   29.2450 C   0  0  0  0  0  0  0  0  0  0  0  0
    6.9530   -1.5770   28.6030 C   0  0  0  0  0  0  0  0  0  0  0  0
    5.8150   -4.8940   23.4910 C   0  0  0  0  0  0  0  0  0  0  0  0
    6.5370   -5.4050   22.4350 C   0  0  0  0  0  0  0  0  0  0  0  0
  1  2  1  0
  2  3  2  0
  2  4  1  0
  4  5  1  0
  5  6  1  0
  6  7  1  0
  7  8  1  0
  8  9  2  0
  8 10  1  0
 10 11  1  0
 11 12  2  0
 12 13  1  0
 13 14  2  0
 14 15  1  0
 15 16  2  0
 16 17  1  0
 16 18  1  0
 18 19  2  0
 14 20  1  0
 19 20  1  0
 11 21  1  0
 20 21  2  0
  7 22  1  0
  4 23  1  0
 22 23  1  0
M  END
