piperidine-amides-8064-covalent
     RDKit          3D

 26 27  0  0  0  0  0  0  0  0999 V2000
    7.1240   -3.2730   19.2270 C   0  0  0  0  0  0  0  0  0  0  0  0
    6.3200   -3.9970   20.2090 C   0  0  0  0  0  0  0  0  0  0  0  0
    5.2440   -4.4990   19.8560 O   0  0  0  0  0  0  0  0  0  0  0  0
    6.8130   -4.1450   21.5190 N   0  0  0  0  0  0  0  0  0  0  0  0
    7.5740   -3.0730   22.0700 C   0  0  0  0  0  0  0  0  0  0  0  0
    7.4500   -3.1240   23.5520 C   0  0  0  0  0  0  0  0  0  0  0  0
    6.0160   -3.4430   23.8800 C   0  0  0  0  0  0  0  0  0  0  0  0
    5.7770   -3.1470   25.3280 C   0  0  0  0  0  0  0  0  0  0  0  0
    4.6020   -3.1510   25.6990 O   0  0  0  0  0  0  0  0  0  0  0  0
    6.8860   -2.8890   26.1420 N   0  0  0  0  0  0  0  0  0  0  0  0
    7.0940   -3.5760   27.3680 C   0  0  0  0  0  0  0  0  0  0  0  0
    7.7670   -4.7860   27.2540 C   0  0  0  0  0  0  0  0  0  0  0  0
    7.3200   -5.6220   26.2950 C   0  0  0  0  0  0  0  0  0  0  0  0
    7.6110   -5.6360   28.4300 C   0  0  0  0  0  0  0  0  0  0  0  0
    9.4120   -5.0380   26.9240 S   0  0  0  0  0  0  0  0  0  0  0  0
    9.6000   -6.4190   26.3740 O   0  0  0  0  0  0  0  0  0  0  0  0
   10.0990   -4.9860   28.2320 O   0  0  0  0  0  0  0  0  0  0  0  0
   10.2510   -3.9580   25.7470 C   0  0  0  0  0  0  0  0  0  0  0  0
   11.7640   -3.8530   25.7800 C   0  0  0  0  0  0  0  0  0  0  0  0
   12.5070   -2.9920   24.8530 C   0  0  0  0  0  0  0  0  0  0  0  0
   11.7610   -2.1960   23.8360 C   0  0  0  0  0  0  0  0  0  0  0  0
   12.7260   -1.0680   22.6250 Br  0  0  0  0  0  0  0  0  0  0  0  0
   10.2070   -2.3720   23.8720 C   0  0  0  0  0  0  0  0  0  0  0  0
    9.4660   -3.1720   24.7380 C   0  0  0  0  0  0  0  0  0  0  0  0
    5.7900   -4.9070   23.6070 C   0  0  0  0  0  0  0  0  0  0  0  0
    6.3780   -5.2920   22.2710 C   0  0  0  0  0  0  0  0  0  0  0  0
  1  2  1  0
  2  3  2  0
  2  4  1  0
  4  5  1  0
  5  6  1  0
  6  7  1  0
  7  8  1  0
  8  9  2  0
  8 10  1  0
 10 11  1  0
 12 11  1  0
 12 13  1  0
 12 14  1  0
 12 15  1  0
 15 16  2  0
 15 17  2  0
 15 18  1  0
 18 19  2  0
 19 20  1  0
 20 21  2  0
 21 22  1  0
 21 23  1  0
 18 24  1  0
 23 24  2  0
  7 25  1  0
  4 26  1  0
 25 26  1  0
M  END
