piperidine-amides-6615-covalent
     RDKit          3D

 24 26  0  0  0  0  0  0  0  0999 V2000
    7.0620   -3.2690   19.2710 C   0  0  0  0  0  0  0  0  0  0  0  0
    6.3240   -4.0640   20.2680 C   0  0  0  0  0  0  0  0  0  0  0  0
    5.2890   -4.6720   19.9240 O   0  0  0  0  0  0  0  0  0  0  0  0
    6.7770   -4.2020   21.5880 N   0  0  0  0  0  0  0  0  0  0  0  0
    6.5450   -5.4690   22.2430 C   0  0  0  0  0  0  0  0  0  0  0  0
    6.0760   -5.1810   23.6780 C   0  0  0  0  0  0  0  0  0  0  0  0
    5.9250   -3.6810   23.8320 C   0  0  0  0  0  0  0  0  0  0  0  0
    5.5220   -3.3660   25.2190 C   0  0  0  0  0  0  0  0  0  0  0  0
    4.3020   -3.2600   25.5110 O   0  0  0  0  0  0  0  0  0  0  0  0
    6.5130   -3.1790   26.1980 N   0  0  0  0  0  0  0  0  0  0  0  0
    6.1480   -3.2170   27.5840 C   0  0  0  0  0  0  0  0  0  0  0  0
    5.8910   -4.6500   28.0060 C   0  0  0  0  0  0  0  0  0  0  0  0
    5.1840   -5.0590   29.0760 C   0  0  0  0  0  0  0  0  0  0  0  0
    5.1530   -6.3970   29.1840 C   0  0  0  0  0  0  0  0  0  0  0  0
    4.4970   -7.0710   30.2110 C   0  0  0  0  0  0  0  0  0  0  0  0
    5.0680   -7.2950   31.3780 C   0  0  0  0  0  0  0  0  0  0  0  0
    4.5590   -7.9760   32.5990 C   0  0  0  0  0  0  0  0  0  0  0  0
    3.1420   -8.3400   32.0610 C   0  0  0  0  0  0  0  0  0  0  0  0
    2.3050   -8.1740   30.7610 C   0  0  0  0  0  0  0  0  0  0  0  0
    3.2540   -7.4560   29.9030 C   0  0  0  0  0  0  0  0  0  0  0  0
    5.9000   -6.8650   28.0820 N   0  0  0  0  0  0  0  0  0  0  0  0
    6.3220   -5.7930   27.3970 N   0  0  0  0  0  0  0  0  0  0  0  0
    7.2350   -3.0150   23.5230 C   0  0  0  0  0  0  0  0  0  0  0  0
    7.5280   -3.1500   22.2000 C   0  0  0  0  0  0  0  0  0  0  0  0
  1  2  1  0
  2  3  2  0
  2  4  1  0
  4  5  1  0
  5  6  1  0
  6  7  1  0
  7  8  1  0
  8  9  2  0
  8 10  1  0
 10 11  1  0
 11 12  1  0
 12 13  1  0
 13 14  2  0
 14 15  1  0
 15 16  2  0
 16 17  1  0
 17 18  2  0
 18 19  1  0
 15 20  1  0
 19 20  2  0
 14 21  1  0
 12 22  2  0
 21 22  1  0
  7 23  1  0
  4 24  1  0
 23 24  1  0
M  END
