piperidine-amides-8989-covalent
     RDKit          3D

 21 21  0  0  0  0  0  0  0  0999 V2000
    7.1000   -3.2710   19.2580 C   0  0  0  0  0  0  0  0  0  0  0  0
    6.3510   -4.0360   20.2600 C   0  0  0  0  0  0  0  0  0  0  0  0
    5.3070   -4.6090   19.9100 O   0  0  0  0  0  0  0  0  0  0  0  0
    6.7980   -4.1840   21.5860 N   0  0  0  0  0  0  0  0  0  0  0  0
    7.6850   -3.2420   22.2410 C   0  0  0  0  0  0  0  0  0  0  0  0
    6.8960   -2.6860   23.3970 C   0  0  0  0  0  0  0  0  0  0  0  0
    5.7280   -3.5620   23.7260 C   0  0  0  0  0  0  0  0  0  0  0  0
    5.0800   -3.2500   25.0310 C   0  0  0  0  0  0  0  0  0  0  0  0
    3.8230   -3.2530   25.1220 O   0  0  0  0  0  0  0  0  0  0  0  0
    5.7640   -2.9370   26.2190 N   0  0  0  0  0  0  0  0  0  0  0  0
    6.5220   -3.9750   26.9260 C   0  0  1  0  0  0  0  0  0  0  0  0
    6.7990   -3.5240   28.3070 C   0  0  0  0  0  0  0  0  0  0  0  0
    5.8070   -5.3030   27.0880 C   0  0  0  0  0  0  0  0  0  0  0  0
    6.4770   -6.4500   27.6650 N   0  0  0  0  0  0  0  0  0  0  0  0
    5.5930   -6.7870   28.8140 C   0  0  0  0  0  0  0  0  0  0  0  0
    4.2300   -7.3380   28.4790 C   0  0  0  0  0  0  0  0  0  0  0  0
    7.8360   -6.0240   27.9170 C   0  0  0  0  0  0  0  0  0  0  0  0
    8.7290   -6.2180   26.8970 C   0  0  0  0  0  0  0  0  0  0  0  0
    8.5410   -5.6410   25.6250 C   0  0  0  0  0  0  0  0  0  0  0  0
    6.0530   -5.0630   23.6820 C   0  0  0  0  0  0  0  0  0  0  0  0
    6.4820   -5.4260   22.2530 C   0  0  0  0  0  0  0  0  0  0  0  0
  1  2  1  0
  2  3  2  0
  2  4  1  0
  4  5  1  0
  5  6  1  0
  6  7  1  0
  7  8  1  0
  8  9  2  0
  8 10  1  0
 10 11  1  0
 11 12  1  1
 11 13  1  0
 13 14  1  0
 14 15  1  0
 15 16  1  0
 14 17  1  0
 17 18  1  0
 18 19  1  0
  7 20  1  0
  4 21  1  0
 20 21  1  0
M  END
