piperidine-amides-30934-covalent
     RDKit          3D

 27 28  0  0  0  0  0  0  0  0999 V2000
    7.0640   -3.3350   19.3290 C   0  0  0  0  0  0  0  0  0  0  0  0
    6.3880   -4.1680   20.3240 C   0  0  0  0  0  0  0  0  0  0  0  0
    5.3850   -4.8110   19.9760 O   0  0  0  0  0  0  0  0  0  0  0  0
    6.8650   -4.2990   21.6420 N   0  0  0  0  0  0  0  0  0  0  0  0
    7.7020   -3.3010   22.2820 C   0  0  0  0  0  0  0  0  0  0  0  0
    6.9280   -2.7490   23.4600 C   0  0  0  0  0  0  0  0  0  0  0  0
    6.2940   -3.8210   24.3050 C   0  0  0  0  0  0  0  0  0  0  0  0
    5.2660   -3.2600   25.2560 C   0  0  0  0  0  0  0  0  0  0  0  0
    4.2900   -2.6240   24.7830 O   0  0  0  0  0  0  0  0  0  0  0  0
    5.2950   -3.3790   26.6860 N   0  0  0  0  0  0  0  0  0  0  0  0
    4.1720   -3.1410   27.5780 C   0  0  0  0  0  0  0  0  0  0  0  0
    4.1060   -4.2850   28.5280 C   0  0  0  0  0  0  0  0  0  0  0  0
    5.2730   -4.5160   29.1590 N   0  0  0  0  0  0  0  0  0  0  0  0
    5.4070   -5.5380   30.1100 C   0  0  0  0  0  0  0  0  0  0  0  0
    6.3870   -6.2940   30.1940 O   0  0  0  0  0  0  0  0  0  0  0  0
    4.4600   -5.7170   30.9790 O   0  0  0  0  0  0  0  0  0  0  0  0
    4.1960   -6.9650   31.5570 C   0  0  0  0  0  0  0  0  0  0  0  0
    3.0440   -6.8980   32.5360 C   0  0  0  0  0  0  0  0  0  0  0  0
    5.4360   -7.6510   32.1480 C   0  0  0  0  0  0  0  0  0  0  0  0
    3.3960   -7.9150   30.6830 C   0  0  0  0  0  0  0  0  0  0  0  0
    6.3740   -4.6290   28.2360 C   0  0  1  0  0  0  0  0  0  0  0  0
    6.0120   -5.9230   27.4700 C   0  0  0  0  0  0  0  0  0  0  0  0
    5.3380   -5.7800   26.1130 C   0  0  0  0  0  0  0  0  0  0  0  0
    5.1180   -6.9330   28.2030 C   0  0  0  0  0  0  0  0  0  0  0  0
    6.5240   -3.4180   27.2840 C   0  0  0  0  0  0  0  0  0  0  0  0
    5.6960   -4.9540   23.5440 C   0  0  0  0  0  0  0  0  0  0  0  0
    6.4430   -5.3720   22.4660 C   0  0  0  0  0  0  0  0  0  0  0  0
  1  2  1  0
  2  3  2  0
  2  4  1  0
  4  5  1  0
  5  6  1  0
  6  7  1  0
  7  8  1  0
  8  9  2  0
  8 10  1  0
 10 11  1  0
 11 12  1  0
 12 13  1  0
 13 14  1  0
 14 15  2  0
 14 16  1  0
 17 16  1  0
 17 18  1  0
 17 19  1  0
 17 20  1  0
 13 21  1  0
 21 22  1  6
 22 23  1  0
 22 24  1  0
 10 25  1  0
 21 25  1  0
  7 26  1  0
  4 27  1  0
 26 27  1  0
M  END
