piperidine-amides-23403-covalent
     RDKit          3D

 24 26  0  0  0  0  0  0  0  0999 V2000
    7.1100   -3.2990   19.2590 C   0  0  0  0  0  0  0  0  0  0  0  0
    6.3860   -4.0960   20.2640 C   0  0  0  0  0  0  0  0  0  0  0  0
    5.3010   -4.6100   19.9060 O   0  0  0  0  0  0  0  0  0  0  0  0
    6.9250   -4.3220   21.5520 N   0  0  0  0  0  0  0  0  0  0  0  0
    6.4830   -5.4670   22.2730 C   0  0  0  0  0  0  0  0  0  0  0  0
    6.0150   -5.1490   23.6130 C   0  0  0  0  0  0  0  0  0  0  0  0
    6.6900   -3.9900   24.2240 C   0  0  0  0  0  0  0  0  0  0  0  0
    5.9400   -3.4960   25.4210 C   0  0  0  0  0  0  0  0  0  0  0  0
    4.8290   -2.9460   25.2870 O   0  0  0  0  0  0  0  0  0  0  0  0
    6.4950   -3.6730   26.6950 N   0  0  0  0  0  0  0  0  0  0  0  0
    7.6230   -4.4560   26.9390 C   0  0  0  0  0  0  0  0  0  0  0  0
    7.6160   -5.0090   28.2670 C   0  0  0  0  0  0  0  0  0  0  0  0
    6.2200   -4.5390   28.7620 C   0  0  0  0  0  0  0  0  0  0  0  0
    5.6110   -3.6930   27.8330 C   0  0  1  0  0  0  0  0  0  0  0  0
    5.7930   -2.5620   28.8550 C   0  0  0  0  0  0  0  0  0  0  0  0
    7.2480   -2.2860   28.6620 C   0  0  0  0  0  0  0  0  0  0  0  0
    7.5700   -1.1590   29.6490 C   0  0  0  0  0  0  0  0  0  0  0  0
    6.6820   -0.4270   30.6300 C   0  0  0  0  0  0  0  0  0  0  0  0
    5.2350   -0.8880   30.6400 C   0  0  0  0  0  0  0  0  0  0  0  0
    4.3850   -0.3720   31.4040 O   0  0  0  0  0  0  0  0  0  0  0  0
    4.3260    1.0340   31.5180 C   0  0  0  0  0  0  0  0  0  0  0  0
    4.8310   -1.9930   29.7050 C   0  0  0  0  0  0  0  0  0  0  0  0
    6.9470   -2.8720   23.2660 C   0  0  0  0  0  0  0  0  0  0  0  0
    7.7110   -3.3050   22.2060 C   0  0  0  0  0  0  0  0  0  0  0  0
  1  2  1  0
  2  3  2  0
  2  4  1  0
  4  5  1  0
  5  6  1  0
  6  7  1  0
  7  8  1  0
  8  9  2  0
  8 10  1  0
 10 11  1  0
 11 12  1  0
 12 13  1  0
 10 14  1  0
 13 14  1  0
 14 15  1  1
 15 16  2  0
 16 17  1  0
 17 18  2  0
 18 19  1  0
 19 20  1  0
 20 21  1  0
 15 22  1  0
 19 22  2  0
  7 23  1  0
  4 24  1  0
 23 24  1  0
M  END
