piperidine-amides-19882-covalent
     RDKit          3D

 22 24  0  0  0  0  0  0  0  0999 V2000
    7.0450   -3.3790   19.4310 C   0  0  0  0  0  0  0  0  0  0  0  0
    6.3680   -4.2450   20.4270 C   0  0  0  0  0  0  0  0  0  0  0  0
    5.4120   -4.9030   20.0040 O   0  0  0  0  0  0  0  0  0  0  0  0
    6.8340   -4.3340   21.7550 N   0  0  0  0  0  0  0  0  0  0  0  0
    6.6210   -5.5280   22.5410 C   0  0  0  0  0  0  0  0  0  0  0  0
    5.9140   -5.1820   23.8340 C   0  0  0  0  0  0  0  0  0  0  0  0
    5.7370   -3.6640   23.9090 C   0  0  0  0  0  0  0  0  0  0  0  0
    4.8870   -3.2860   25.0990 C   0  0  0  0  0  0  0  0  0  0  0  0
    3.6670   -3.3330   24.9660 O   0  0  0  0  0  0  0  0  0  0  0  0
    5.3800   -2.8800   26.3560 N   0  0  0  0  0  0  0  0  0  0  0  0
    6.5140   -3.5140   26.7110 C   0  0  0  0  0  0  0  0  0  0  0  0
    6.0630   -4.9050   27.2280 C   0  0  0  0  0  0  0  0  0  0  0  0
    4.7890   -5.1010   27.6850 C   0  0  0  0  0  0  0  0  0  0  0  0
    4.3140   -6.2660   27.8110 O   0  0  0  0  0  0  0  0  0  0  0  0
    3.9510   -4.0290   28.0330 N   0  0  0  0  0  0  0  0  0  0  0  0
    3.5810   -3.8560   29.4260 C   0  0  0  0  0  0  0  0  0  0  0  0
    4.0740   -2.6200   29.8380 C   0  0  0  0  0  0  0  0  0  0  0  0
    5.5020   -2.1780   29.4740 C   0  0  0  0  0  0  0  0  0  0  0  0
    5.6390   -3.3050   28.5720 C   0  0  0  0  0  0  0  0  0  0  0  0
    4.6070   -2.8780   27.5470 C   0  0  1  0  0  0  0  0  0  0  0  0
    6.9840   -2.9130   23.6560 C   0  0  0  0  0  0  0  0  0  0  0  0
    7.6080   -3.2480   22.3340 C   0  0  0  0  0  0  0  0  0  0  0  0
  1  2  1  0
  2  3  2  0
  2  4  1  0
  4  5  1  0
  5  6  1  0
  6  7  1  0
  7  8  1  0
  8  9  2  0
  8 10  1  0
 10 11  1  0
 11 12  1  0
 12 13  1  0
 13 14  2  0
 13 15  1  0
 15 16  1  0
 16 17  1  0
 17 18  1  0
 18 19  1  0
 10 20  1  0
 15 20  1  0
 20 19  1  1
  7 21  1  0
  4 22  1  0
 21 22  1  0
M  END
