piperidine-amides-34987-covalent
     RDKit          3D

 31 33  0  0  0  0  0  0  0  0999 V2000
    7.0210   -3.3270   19.2890 C   0  0  0  0  0  0  0  0  0  0  0  0
    6.3270   -4.1600   20.3120 C   0  0  0  0  0  0  0  0  0  0  0  0
    5.3350   -4.7820   19.9520 O   0  0  0  0  0  0  0  0  0  0  0  0
    6.8210   -4.2480   21.6160 N   0  0  0  0  0  0  0  0  0  0  0  0
    7.6560   -3.2210   22.1910 C   0  0  0  0  0  0  0  0  0  0  0  0
    7.1420   -2.8830   23.5540 C   0  0  0  0  0  0  0  0  0  0  0  0
    5.8660   -3.6800   23.8030 C   0  0  0  0  0  0  0  0  0  0  0  0
    5.2340   -3.2260   25.0640 C   0  0  0  0  0  0  0  0  0  0  0  0
    4.0020   -3.1760   25.1240 O   0  0  0  0  0  0  0  0  0  0  0  0
    5.9700   -2.8550   26.1980 N   0  0  0  0  0  0  0  0  0  0  0  0
    6.2050   -3.8920   27.1560 C   0  0  0  0  0  0  0  0  0  0  0  0
    7.6450   -4.1920   26.9990 C   0  0  0  0  0  0  0  0  0  0  0  0
    8.2140   -3.6580   25.8610 C   0  0  0  0  0  0  0  0  0  0  0  0
    9.4670   -3.8060   25.5640 C   0  0  0  0  0  0  0  0  0  0  0  0
   10.0990   -4.4950   26.4490 C   0  0  0  0  0  0  0  0  0  0  0  0
   11.4320   -4.6210   26.1100 F   0  0  0  0  0  0  0  0  0  0  0  0
    9.7070   -5.1600   27.7290 C   0  0  0  0  0  0  0  0  0  0  0  0
    8.2450   -5.0170   28.1100 C   0  0  0  0  0  0  0  0  0  0  0  0
    5.6790   -1.5660   26.7690 C   0  0  0  0  0  0  0  0  0  0  0  0
    4.9610   -1.5420   27.8650 N   0  0  0  0  0  0  0  0  0  0  0  0
    4.7290   -0.1820   28.3370 C   0  0  0  0  0  0  0  0  0  0  0  0
    3.9650    0.2420   29.5470 C   0  0  0  0  0  0  0  0  0  0  0  0
    5.3200    0.9110   27.5310 C   0  0  0  0  0  0  0  0  0  0  0  0
    5.1740    2.3490   27.8820 C   0  0  0  0  0  0  0  0  0  0  0  0
    5.9080    3.2580   27.1040 O   0  0  0  0  0  0  0  0  0  0  0  0
    4.3600    2.7360   28.9120 O   0  0  0  0  0  0  0  0  0  0  0  0
    3.5760    3.8310   28.6470 C   0  0  0  0  0  0  0  0  0  0  0  0
    2.6440    3.4100   27.7200 C   0  0  0  0  0  0  0  0  0  0  0  0
    6.0790    0.0240   26.2890 S   0  0  0  0  0  0  0  0  0  0  0  0
    6.1550   -5.1510   23.7420 C   0  0  0  0  0  0  0  0  0  0  0  0
    6.7050   -5.5200   22.3520 C   0  0  0  0  0  0  0  0  0  0  0  0
  1  2  1  0
  2  3  2  0
  2  4  1  0
  4  5  1  0
  5  6  1  0
  6  7  1  0
  7  8  1  0
  8  9  2  0
  8 10  1  0
 10 11  1  0
 11 12  1  0
 12 13  2  0
 13 14  1  0
 14 15  2  0
 15 16  1  0
 15 17  1  0
 12 18  1  0
 17 18  2  0
 10 19  1  0
 19 20  2  0
 20 21  1  0
 21 22  1  0
 21 23  2  0
 23 24  1  0
 24 25  2  0
 24 26  1  0
 26 27  1  0
 27 28  1  0
 19 29  1  0
 23 29  1  0
  7 30  1  0
  4 31  1  0
 30 31  1  0
M  END
