piperidine-amides-24999-covalent
     RDKit          3D

 24 25  0  0  0  0  0  0  0  0999 V2000
    7.0200   -3.3460   19.4160 C   0  0  0  0  0  0  0  0  0  0  0  0
    6.3670   -4.2420   20.3860 C   0  0  0  0  0  0  0  0  0  0  0  0
    5.4150   -4.9600   20.0070 O   0  0  0  0  0  0  0  0  0  0  0  0
    6.8190   -4.3320   21.7190 N   0  0  0  0  0  0  0  0  0  0  0  0
    6.6360   -5.5760   22.4460 C   0  0  0  0  0  0  0  0  0  0  0  0
    5.9990   -5.2200   23.8000 C   0  0  0  0  0  0  0  0  0  0  0  0
    5.8620   -3.7190   23.7870 C   0  0  0  0  0  0  0  0  0  0  0  0
    5.0860   -3.1510   24.9320 C   0  0  0  0  0  0  0  0  0  0  0  0
    4.3660   -2.1720   24.6910 O   0  0  0  0  0  0  0  0  0  0  0  0
    5.1350   -3.6690   26.2390 N   0  0  0  0  0  0  0  0  0  0  0  0
    4.6570   -2.8590   27.3270 C   0  0  0  0  0  0  0  0  0  0  0  0
    3.9670   -3.7400   28.3540 C   0  0  0  0  0  0  0  0  0  0  0  0
    4.9890   -4.5890   28.8240 N   0  0  0  0  0  0  0  0  0  0  0  0
    4.7640   -5.9890   29.1700 C   0  0  0  0  0  0  0  0  0  0  0  0
    5.0840   -6.0060   30.4840 C   0  0  0  0  0  0  0  0  0  0  0  0
    4.9510   -7.0830   31.3510 C   0  0  0  0  0  0  0  0  0  0  0  0
    5.9800   -7.3130   32.2180 O   0  0  0  0  0  0  0  0  0  0  0  0
    3.8170   -7.8730   31.3630 O   0  0  0  0  0  0  0  0  0  0  0  0
    3.3320   -8.4940   32.5470 C   0  0  0  0  0  0  0  0  0  0  0  0
    6.1930   -4.1990   28.4510 C   0  0  2  0  0  0  0  0  0  0  0  0
    6.4100   -2.8520   29.1070 C   0  0  0  0  0  0  0  0  0  0  0  0
    6.2130   -4.1110   27.0120 C   0  0  0  0  0  0  0  0  0  0  0  0
    7.2290   -3.0920   23.6430 C   0  0  0  0  0  0  0  0  0  0  0  0
    7.6400   -3.2850   22.3110 C   0  0  0  0  0  0  0  0  0  0  0  0
  1  2  1  0
  2  3  2  0
  2  4  1  0
  4  5  1  0
  5  6  1  0
  6  7  1  0
  7  8  1  0
  8  9  2  0
  8 10  1  0
 10 11  1  0
 11 12  1  0
 12 13  1  0
 13 14  1  0
 14 15  1  0
 15 16  1  0
 16 17  2  0
 16 18  1  0
 18 19  1  0
 13 20  1  0
 20 21  1  1
 10 22  1  0
 20 22  1  0
  7 23  1  0
  4 24  1  0
 23 24  1  0
M  END
