piperidine-amides-30135-covalent
     RDKit          3D

 27 29  0  0  0  0  0  0  0  0999 V2000
    7.0310   -3.3690   19.3640 C   0  0  0  0  0  0  0  0  0  0  0  0
    6.3730   -4.2260   20.3450 C   0  0  0  0  0  0  0  0  0  0  0  0
    5.3970   -4.8880   19.9990 O   0  0  0  0  0  0  0  0  0  0  0  0
    6.8910   -4.3400   21.6910 N   0  0  0  0  0  0  0  0  0  0  0  0
    7.7380   -3.2830   22.2280 C   0  0  0  0  0  0  0  0  0  0  0  0
    7.5060   -3.0860   23.7030 C   0  0  0  0  0  0  0  0  0  0  0  0
    6.1920   -3.7670   23.9820 C   0  0  0  0  0  0  0  0  0  0  0  0
    5.5550   -3.3620   25.2730 C   0  0  0  0  0  0  0  0  0  0  0  0
    4.6250   -2.5360   25.2570 O   0  0  0  0  0  0  0  0  0  0  0  0
    5.9150   -3.8550   26.5540 N   0  0  0  0  0  0  0  0  0  0  0  0
    5.7470   -5.2670   26.7120 C   0  0  0  0  0  0  0  0  0  0  0  0
    6.1530   -5.5760   28.1200 C   0  0  2  0  0  0  0  0  0  0  0  0
    5.3110   -6.3790   28.8640 C   0  0  0  0  0  0  0  0  0  0  0  0
    4.6790   -5.8030   29.7770 O   0  0  0  0  0  0  0  0  0  0  0  0
    4.6780   -6.3520   31.0630 C   0  0  0  0  0  0  0  0  0  0  0  0
    3.8290   -5.8630   32.0540 C   0  0  0  0  0  0  0  0  0  0  0  0
    3.8710   -6.4610   33.3660 C   0  0  0  0  0  0  0  0  0  0  0  0
    4.6990   -7.4780   33.6850 C   0  0  0  0  0  0  0  0  0  0  0  0
    5.5300   -7.9620   32.7210 C   0  0  0  0  0  0  0  0  0  0  0  0
    5.5250   -7.4110   31.4290 C   0  0  0  0  0  0  0  0  0  0  0  0
    6.5910   -4.5630   28.9310 O   0  0  0  0  0  0  0  0  0  0  0  0
    5.9520   -3.3130   28.8460 C   0  0  0  0  0  0  0  0  0  0  0  0
    4.8620   -3.2620   29.6930 C   0  0  0  0  0  0  0  0  0  0  0  0
    6.7470   -2.1090   29.2310 C   0  0  0  0  0  0  0  0  0  0  0  0
    5.4300   -2.9060   27.5150 C   0  0  0  0  0  0  0  0  0  0  0  0
    6.2600   -5.2420   23.8380 C   0  0  0  0  0  0  0  0  0  0  0  0
    6.6960   -5.5720   22.4200 C   0  0  0  0  0  0  0  0  0  0  0  0
  1  2  1  0
  2  3  2  0
  2  4  1  0
  4  5  1  0
  5  6  1  0
  6  7  1  0
  7  8  1  0
  8  9  2  0
  8 10  1  0
 10 11  1  0
 11 12  1  0
 12 13  1  1
 13 14  1  0
 14 15  1  0
 15 16  2  0
 16 17  1  0
 17 18  2  0
 18 19  1  0
 15 20  1  0
 19 20  2  0
 12 21  1  0
 21 22  1  0
 22 23  1  0
 22 24  1  0
 10 25  1  0
 22 25  1  0
  7 26  1  0
  4 27  1  0
 26 27  1  0
M  END
