piperidine-amides-12061-covalent
     RDKit          3D

 25 27  0  0  0  0  0  0  0  0999 V2000
    7.1230   -3.2890   19.2780 C   0  0  0  0  0  0  0  0  0  0  0  0
    6.3270   -4.0230   20.2570 C   0  0  0  0  0  0  0  0  0  0  0  0
    5.2990   -4.6040   19.9110 O   0  0  0  0  0  0  0  0  0  0  0  0
    6.7750   -4.1010   21.6180 N   0  0  0  0  0  0  0  0  0  0  0  0
    6.5860   -5.3220   22.3710 C   0  0  0  0  0  0  0  0  0  0  0  0
    6.0390   -5.0110   23.7380 C   0  0  0  0  0  0  0  0  0  0  0  0
    6.0910   -3.5020   23.9250 C   0  0  0  0  0  0  0  0  0  0  0  0
    5.7530   -3.1230   25.3200 C   0  0  0  0  0  0  0  0  0  0  0  0
    4.6890   -3.4820   25.8630 O   0  0  0  0  0  0  0  0  0  0  0  0
    6.6670   -2.3220   26.0450 N   0  0  0  0  0  0  0  0  0  0  0  0
    6.2190   -1.0230   26.5030 C   0  0  2  0  0  0  0  0  0  0  0  0
    7.3540   -0.1460   26.6630 C   0  0  0  0  0  0  0  0  0  0  0  0
    6.9680    0.0090   27.9410 C   0  0  2  0  0  0  0  0  0  0  0  0
    7.9020   -0.2560   28.9520 C   0  0  0  0  0  0  0  0  0  0  0  0
    7.4180    0.1790   30.1970 O   0  0  0  0  0  0  0  0  0  0  0  0
    8.3040    0.6330   31.2020 C   0  0  0  0  0  0  0  0  0  0  0  0
    7.6720    0.3180   32.4770 C   0  0  0  0  0  0  0  0  0  0  0  0
    8.3100    0.0640   33.6990 C   0  0  0  0  0  0  0  0  0  0  0  0
    7.5860   -0.2280   34.8360 C   0  0  0  0  0  0  0  0  0  0  0  0
    6.2160   -0.2900   34.8480 C   0  0  0  0  0  0  0  0  0  0  0  0
    5.5330   -0.0300   33.6010 C   0  0  0  0  0  0  0  0  0  0  0  0
    6.2760    0.2610   32.4730 C   0  0  0  0  0  0  0  0  0  0  0  0
    5.8230   -0.9110   27.8830 C   0  0  0  0  0  0  0  0  0  0  0  0
    7.4680   -2.9850   23.6120 C   0  0  0  0  0  0  0  0  0  0  0  0
    7.7170   -3.1220   22.1120 C   0  0  0  0  0  0  0  0  0  0  0  0
  1  2  1  0
  2  3  2  0
  2  4  1  0
  4  5  1  0
  5  6  1  0
  6  7  1  0
  7  8  1  0
  8  9  2  0
  8 10  1  0
 11 10  1  1
 11 12  1  0
 12 13  1  0
 13 14  1  1
 14 15  1  0
 15 16  1  0
 16 17  1  0
 17 18  2  0
 18 19  1  0
 19 20  2  0
 20 21  1  0
 17 22  1  0
 21 22  2  0
 11 23  1  0
 13 23  1  0
  7 24  1  0
  4 25  1  0
 24 25  1  0
M  END
