piperidine-amides-24392-covalent
     RDKit          3D

 24 26  0  0  0  0  0  0  0  0999 V2000
    7.0400   -3.3460   19.3390 C   0  0  0  0  0  0  0  0  0  0  0  0
    6.3800   -4.2040   20.3380 C   0  0  0  0  0  0  0  0  0  0  0  0
    5.4010   -4.9050   19.9970 O   0  0  0  0  0  0  0  0  0  0  0  0
    6.8590   -4.2760   21.6590 N   0  0  0  0  0  0  0  0  0  0  0  0
    6.6960   -5.5190   22.4020 C   0  0  0  0  0  0  0  0  0  0  0  0
    6.2290   -5.1950   23.8410 C   0  0  0  0  0  0  0  0  0  0  0  0
    6.1340   -3.6930   23.9260 C   0  0  0  0  0  0  0  0  0  0  0  0
    5.6670   -3.1530   25.2190 C   0  0  0  0  0  0  0  0  0  0  0  0
    5.1730   -2.0140   25.2070 O   0  0  0  0  0  0  0  0  0  0  0  0
    5.7230   -3.8700   26.4250 N   0  0  0  0  0  0  0  0  0  0  0  0
    6.3090   -3.2570   27.5490 C   0  0  0  0  0  0  0  0  0  0  0  0
    6.5220   -4.3800   28.5380 C   0  0  0  0  0  0  0  0  0  0  0  0
    5.4290   -5.0030   28.9850 C   0  0  1  0  0  0  0  0  0  0  0  0
    5.7130   -6.1190   29.7570 C   0  0  0  0  0  0  0  0  0  0  0  0
    4.8510   -6.4710   30.8250 C   0  0  0  0  0  0  0  0  0  0  0  0
    3.7750   -5.6290   31.0280 C   0  0  0  0  0  0  0  0  0  0  0  0
    3.7570   -4.3820   30.5530 N   0  0  0  0  0  0  0  0  0  0  0  0
    3.1310   -3.5890   31.4350 C   0  0  0  0  0  0  0  0  0  0  0  0
    4.7170   -4.0060   29.5970 C   0  0  0  0  0  0  0  0  0  0  0  0
    4.6840   -5.3940   27.9390 C   0  0  2  0  0  0  0  0  0  0  0  0
    5.1690   -6.5880   27.2420 C   0  0  0  0  0  0  0  0  0  0  0  0
    4.5110   -4.2850   27.0920 C   0  0  0  0  0  0  0  0  0  0  0  0
    7.5060   -3.1240   23.6420 C   0  0  0  0  0  0  0  0  0  0  0  0
    7.7420   -3.2400   22.1720 C   0  0  0  0  0  0  0  0  0  0  0  0
  1  2  1  0
  2  3  2  0
  2  4  1  0
  4  5  1  0
  5  6  1  0
  6  7  1  0
  7  8  1  0
  8  9  2  0
  8 10  1  0
 10 11  1  0
 11 12  1  0
 13 12  1  6
 13 14  1  0
 14 15  1  0
 15 16  1  0
 16 17  1  0
 17 18  1  0
 13 19  1  0
 17 19  1  0
 13 20  1  0
 20 21  1  6
 10 22  1  0
 20 22  1  0
  7 23  1  0
  4 24  1  0
 23 24  1  0
M  END
