piperidine-amides-13539-covalent
     RDKit          3D

 30 32  0  0  0  0  0  0  0  0999 V2000
    7.0800   -3.2860   19.2570 C   0  0  0  0  0  0  0  0  0  0  0  0
    6.3650   -4.0970   20.2820 C   0  0  0  0  0  0  0  0  0  0  0  0
    5.3490   -4.7310   19.9510 O   0  0  0  0  0  0  0  0  0  0  0  0
    6.8820   -4.1590   21.5980 N   0  0  0  0  0  0  0  0  0  0  0  0
    7.7210   -3.0970   22.1330 C   0  0  0  0  0  0  0  0  0  0  0  0
    7.5350   -3.0450   23.6570 C   0  0  0  0  0  0  0  0  0  0  0  0
    6.1570   -3.5320   23.9350 C   0  0  0  0  0  0  0  0  0  0  0  0
    5.6180   -3.1840   25.2740 C   0  0  0  0  0  0  0  0  0  0  0  0
    4.4480   -2.7880   25.2940 O   0  0  0  0  0  0  0  0  0  0  0  0
    6.3950   -3.3000   26.4330 N   0  0  0  0  0  0  0  0  0  0  0  0
    6.0800   -4.0320   27.6160 C   0  0  0  0  0  0  0  0  0  0  0  0
    5.8020   -5.3870   27.6570 C   0  0  0  0  0  0  0  0  0  0  0  0
    4.4680   -5.8480   27.6070 C   0  0  1  0  0  0  0  0  0  0  0  0
    4.1510   -6.5710   26.4810 C   0  0  0  0  0  0  0  0  0  0  0  0
    2.8330   -7.2280   26.3300 C   0  0  0  0  0  0  0  0  0  0  0  0
    1.9900   -7.3120   27.5950 C   0  0  0  0  0  0  0  0  0  0  0  0
    2.9930   -7.3630   28.7470 C   0  0  0  0  0  0  0  0  0  0  0  0
    4.2330   -6.8180   28.6910 N   0  0  0  0  0  0  0  0  0  0  0  0
    4.7290   -6.1860   30.1990 S   0  0  0  0  0  0  0  0  0  0  0  0
    4.1130   -4.8140   30.4030 O   0  0  0  0  0  0  0  0  0  0  0  0
    6.2130   -6.0430   30.1660 O   0  0  0  0  0  0  0  0  0  0  0  0
    4.2760   -7.2660   31.5780 C   0  0  0  0  0  0  0  0  0  0  0  0
    5.2160   -7.6540   32.6290 C   0  0  0  0  0  0  0  0  0  0  0  0
    4.6240   -8.5820   33.7210 C   0  0  0  0  0  0  0  0  0  0  0  0
    3.4070   -9.2200   34.0660 C   0  0  0  0  0  0  0  0  0  0  0  0
    2.9240  -10.2720   35.3950 Cl  0  0  0  0  0  0  0  0  0  0  0  0
    2.6300   -8.6590   32.8390 C   0  0  0  0  0  0  0  0  0  0  0  0
    3.0570   -7.7720   31.7230 C   0  0  0  0  0  0  0  0  0  0  0  0
    6.0910   -5.0270   23.7340 C   0  0  0  0  0  0  0  0  0  0  0  0
    6.6340   -5.3630   22.3880 C   0  0  0  0  0  0  0  0  0  0  0  0
  1  2  1  0
  2  3  2  0
  2  4  1  0
  4  5  1  0
  5  6  1  0
  6  7  1  0
  7  8  1  0
  8  9  2  0
  8 10  1  0
 10 11  1  0
 11 12  1  0
 13 12  1  6
 13 14  1  0
 14 15  1  0
 15 16  1  0
 16 17  1  0
 13 18  1  0
 17 18  1  0
 18 19  1  0
 19 20  2  0
 19 21  2  0
 19 22  1  0
 22 23  2  0
 23 24  1  0
 24 25  2  0
 25 26  1  0
 25 27  1  0
 22 28  1  0
 27 28  2  0
  7 29  1  0
  4 30  1  0
 29 30  1  0
M  END
