piperidine-amides-27722-covalent
     RDKit          3D

 26 28  0  0  0  0  0  0  0  0999 V2000
    7.1060   -3.2560   19.1860 C   0  0  0  0  0  0  0  0  0  0  0  0
    6.3500   -3.9960   20.2240 C   0  0  0  0  0  0  0  0  0  0  0  0
    5.2800   -4.5300   19.8710 O   0  0  0  0  0  0  0  0  0  0  0  0
    6.8490   -4.1190   21.5240 N   0  0  0  0  0  0  0  0  0  0  0  0
    6.5800   -5.2860   22.2940 C   0  0  0  0  0  0  0  0  0  0  0  0
    6.2310   -5.0300   23.6990 C   0  0  0  0  0  0  0  0  0  0  0  0
    6.6720   -3.7270   24.2760 C   0  0  0  0  0  0  0  0  0  0  0  0
    5.7220   -3.3380   25.3500 C   0  0  0  0  0  0  0  0  0  0  0  0
    4.5700   -3.8100   25.2850 O   0  0  0  0  0  0  0  0  0  0  0  0
    6.0480   -2.4700   26.4180 N   0  0  0  0  0  0  0  0  0  0  0  0
    6.1280   -3.0440   27.7990 C   0  0  0  0  0  0  0  0  0  0  0  0
    6.2130   -2.0490   28.9160 C   0  0  0  0  0  0  0  0  0  0  0  0
    7.3890   -1.2880   29.2690 C   0  0  0  0  0  0  0  0  0  0  0  0
    7.3030   -0.4260   30.3170 C   0  0  0  0  0  0  0  0  0  0  0  0
    6.1430   -0.2570   31.0390 C   0  0  0  0  0  0  0  0  0  0  0  0
    5.0010   -0.9560   30.7410 C   0  0  0  0  0  0  0  0  0  0  0  0
    4.9240   -1.8730   29.7090 C   0  0  0  0  0  0  0  0  0  0  0  0
    5.4840   -1.0780   26.3070 C   0  0  0  0  0  0  0  0  0  0  0  0
    5.0490   -0.4600   27.4870 C   0  0  0  0  0  0  0  0  0  0  0  0
    3.7030   -0.6110   27.8490 N   0  0  0  0  0  0  0  0  0  0  0  0
    5.8110    0.2130   28.1890 O   0  0  0  0  0  0  0  0  0  0  0  0
    4.4440   -0.9550   25.4160 C   0  0  0  0  0  0  0  0  0  0  0  0
    5.0060   -0.0050   24.4990 C   0  0  0  0  0  0  0  0  0  0  0  0
    6.2220   -0.0580   25.3870 C   0  0  0  0  0  0  0  0  0  0  0  0
    6.9200   -2.6390   23.3300 C   0  0  0  0  0  0  0  0  0  0  0  0
    7.6770   -3.0910   22.1180 C   0  0  0  0  0  0  0  0  0  0  0  0
  1  2  1  0
  2  3  2  0
  2  4  1  0
  4  5  1  0
  5  6  1  0
  6  7  1  0
  7  8  1  0
  8  9  2  0
  8 10  1  0
 10 11  1  0
 11 12  1  0
 12 13  2  0
 13 14  1  0
 14 15  2  0
 15 16  1  0
 12 17  1  0
 16 17  2  0
 10 18  1  0
 18 19  1  0
 19 20  1  0
 19 21  2  0
 18 22  1  0
 22 23  1  0
 18 24  1  0
 23 24  1  0
  7 25  1  0
  4 26  1  0
 25 26  1  0
M  END
