piperidine-amides-31712-covalent
     RDKit          3D

 28 29  0  0  0  0  0  0  0  0999 V2000
    7.0890   -3.3240   19.1730 C   0  0  0  0  0  0  0  0  0  0  0  0
    6.3550   -3.9840   20.2260 C   0  0  0  0  0  0  0  0  0  0  0  0
    5.2910   -4.6020   19.9080 O   0  0  0  0  0  0  0  0  0  0  0  0
    6.7970   -4.0040   21.5580 N   0  0  0  0  0  0  0  0  0  0  0  0
    6.6780   -5.2800   22.2960 C   0  0  0  0  0  0  0  0  0  0  0  0
    5.7450   -4.7910   23.4640 C   0  0  0  0  0  0  0  0  0  0  0  0
    6.5560   -3.7920   24.2710 C   0  0  0  0  0  0  0  0  0  0  0  0
    5.6650   -3.2640   25.4730 C   0  0  0  0  0  0  0  0  0  0  0  0
    4.6630   -3.9570   25.5940 O   0  0  0  0  0  0  0  0  0  0  0  0
    6.1960   -2.2260   26.0050 N   0  0  0  0  0  0  0  0  0  0  0  0
    6.3100   -0.9380   26.3980 C   0  0  0  0  0  0  0  0  0  0  0  0
    5.9860    0.2730   25.8270 C   0  0  0  0  0  0  0  0  0  0  0  0
    6.0900    1.3640   26.7250 C   0  0  0  0  0  0  0  0  0  0  0  0
    6.7730    2.6330   26.4150 C   0  0  0  0  0  0  0  0  0  0  0  0
    6.7770    3.6910   27.5280 C   0  0  0  0  0  0  0  0  0  0  0  0
    6.1400    3.3780   28.7350 C   0  0  0  0  0  0  0  0  0  0  0  0
    5.4370    2.2940   29.2850 C   0  0  0  0  0  0  0  0  0  0  0  0
    5.5000    1.3220   28.1040 C   0  0  0  0  0  0  0  0  0  0  0  0
    7.4050   -2.4680   26.7470 C   0  0  0  0  0  0  0  0  0  0  0  0
    7.0430   -3.1620   27.8550 C   0  0  0  0  0  0  0  0  0  0  0  0
    6.7500   -4.1450   28.5810 O   0  0  0  0  0  0  0  0  0  0  0  0
    7.2100   -4.1640   26.9660 O   0  0  0  0  0  0  0  0  0  0  0  0
    8.2180   -5.1040   27.1240 C   0  0  0  0  0  0  0  0  0  0  0  0
    8.7090   -4.9660   28.3550 C   0  0  0  0  0  0  0  0  0  0  0  0
    9.0720   -5.0590   26.0390 C   0  0  0  0  0  0  0  0  0  0  0  0
    7.6620   -6.2540   26.9700 C   0  0  0  0  0  0  0  0  0  0  0  0
    7.3180   -2.7280   23.5490 C   0  0  0  0  0  0  0  0  0  0  0  0
    7.6720   -3.0240   22.1300 C   0  0  0  0  0  0  0  0  0  0  0  0
  1  2  1  0
  2  3  2  0
  2  4  1  0
  4  5  1  0
  5  6  1  0
  6  7  1  0
  7  8  1  0
  8  9  2  0
  8 10  1  0
 10 11  1  0
 11 12  1  0
 12 13  1  0
 13 14  2  0
 14 15  1  0
 15 16  2  0
 16 17  1  0
 13 18  1  0
 17 18  2  0
 10 19  1  0
 19 20  1  0
 20 21  2  0
 20 22  1  0
 23 22  1  0
 23 24  1  0
 23 25  1  0
 23 26  1  0
  7 27  1  0
  4 28  1  0
 27 28  1  0
M  END
