piperidine-amides-1853-covalent
     RDKit          3D

 18 19  0  0  0  0  0  0  0  0999 V2000
    7.0560   -3.3250   19.3190 C   0  0  0  0  0  0  0  0  0  0  0  0
    6.4020   -4.1860   20.3390 C   0  0  0  0  0  0  0  0  0  0  0  0
    5.4120   -4.8230   19.9810 O   0  0  0  0  0  0  0  0  0  0  0  0
    6.9440   -4.2880   21.6270 N   0  0  0  0  0  0  0  0  0  0  0  0
    7.7620   -3.2300   22.1840 C   0  0  0  0  0  0  0  0  0  0  0  0
    7.4250   -3.0050   23.6310 C   0  0  0  0  0  0  0  0  0  0  0  0
    6.0390   -3.5680   23.9270 C   0  0  0  0  0  0  0  0  0  0  0  0
    5.6240   -3.1860   25.2920 C   0  0  0  0  0  0  0  0  0  0  0  0
    4.4200   -3.2030   25.5830 O   0  0  0  0  0  0  0  0  0  0  0  0
    6.5650   -2.8080   26.2590 N   0  0  0  0  0  0  0  0  0  0  0  0
    6.4690   -1.5050   26.8830 C   0  0  0  0  0  0  0  0  0  0  0  0
    6.1170   -0.2890   26.0290 C   0  0  0  0  0  0  0  0  0  0  0  0
    6.2080    0.7640   27.4380 S   0  0  0  0  0  0  0  0  0  0  0  0
    6.6510   -0.2750   28.8850 C   0  0  0  0  0  0  0  0  0  0  0  0
    6.7230   -1.4390   28.3290 C   0  0  0  0  0  0  0  0  0  0  0  0
    7.0090   -2.6290   28.8880 C   0  0  0  0  0  0  0  0  0  0  0  0
    6.0650   -5.0790   23.7630 C   0  0  0  0  0  0  0  0  0  0  0  0
    6.6470   -5.4260   22.4330 C   0  0  0  0  0  0  0  0  0  0  0  0
  1  2  1  0
  2  3  2  0
  2  4  1  0
  4  5  1  0
  5  6  1  0
  6  7  1  0
  7  8  1  0
  8  9  2  0
  8 10  1  0
 10 11  1  0
 11 12  2  0
 12 13  1  0
 13 14  1  0
 11 15  1  0
 14 15  2  0
 15 16  1  0
  7 17  1  0
  4 18  1  0
 17 18  1  0
M  END
