piperidine-amides-2522-covalent
     RDKit          3D

 26 27  0  0  0  0  0  0  0  0999 V2000
    7.0020   -3.3410   19.3350 C   0  0  0  0  0  0  0  0  0  0  0  0
    6.3430   -4.1910   20.3630 C   0  0  0  0  0  0  0  0  0  0  0  0
    5.3870   -4.8670   19.9850 O   0  0  0  0  0  0  0  0  0  0  0  0
    6.8240   -4.2350   21.6780 N   0  0  0  0  0  0  0  0  0  0  0  0
    7.7020   -3.2150   22.2160 C   0  0  0  0  0  0  0  0  0  0  0  0
    7.2780   -2.8180   23.6000 C   0  0  0  0  0  0  0  0  0  0  0  0
    5.9870   -3.5430   23.9610 C   0  0  0  0  0  0  0  0  0  0  0  0
    5.6180   -3.1350   25.3320 C   0  0  0  0  0  0  0  0  0  0  0  0
    4.4230   -3.0790   25.6510 O   0  0  0  0  0  0  0  0  0  0  0  0
    6.6120   -2.8180   26.2690 N   0  0  0  0  0  0  0  0  0  0  0  0
    6.5110   -1.6300   27.0900 C   0  0  0  0  0  0  0  0  0  0  0  0
    5.9290   -0.4650   26.4470 C   0  0  0  0  0  0  0  0  0  0  0  0
    5.7650    0.6930   27.0500 C   0  0  0  0  0  0  0  0  0  0  0  0
    6.1750    0.7680   28.3470 C   0  0  0  0  0  0  0  0  0  0  0  0
    6.7630   -0.2310   29.1660 C   0  0  0  0  0  0  0  0  0  0  0  0
    7.1860   -0.0530   30.6060 C   0  0  0  0  0  0  0  0  0  0  0  0
    8.4870    0.2160   30.9480 O   0  0  0  0  0  0  0  0  0  0  0  0
    6.1450   -0.1710   31.4550 N   0  0  0  0  0  0  0  0  0  0  0  0
    6.4390    0.3670   32.6550 C   0  0  0  0  0  0  0  0  0  0  0  0
    5.9100    1.6870   33.1570 C   0  0  0  0  0  0  0  0  0  0  0  0
    4.4900    1.2820   33.4030 C   0  0  0  0  0  0  0  0  0  0  0  0
    3.6260    1.8600   34.2800 N   0  0  0  0  0  0  0  0  0  0  0  0
    4.0460    0.3120   32.7420 O   0  0  0  0  0  0  0  0  0  0  0  0
    6.9740   -1.6130   28.4870 C   0  0  0  0  0  0  0  0  0  0  0  0
    5.9890   -5.0120   23.7370 C   0  0  0  0  0  0  0  0  0  0  0  0
    6.6480   -5.4340   22.4700 C   0  0  0  0  0  0  0  0  0  0  0  0
  1  2  1  0
  2  3  2  0
  2  4  1  0
  4  5  1  0
  5  6  1  0
  6  7  1  0
  7  8  1  0
  8  9  2  0
  8 10  1  0
 10 11  1  0
 11 12  2  0
 12 13  1  0
 13 14  2  0
 14 15  1  0
 15 16  1  0
 16 17  2  0
 16 18  1  0
 18 19  1  0
 19 20  1  0
 20 21  1  0
 21 22  1  0
 21 23  2  0
 11 24  1  0
 15 24  2  0
  7 25  1  0
  4 26  1  0
 25 26  1  0
M  END
