piperidine-amides-722-covalent
     RDKit          3D

 25 27  0  0  0  0  0  0  0  0999 V2000
    7.1210   -3.3630   19.2430 C   0  0  0  0  0  0  0  0  0  0  0  0
    6.3590   -4.0440   20.2620 C   0  0  0  0  0  0  0  0  0  0  0  0
    5.2720   -4.5900   19.9070 O   0  0  0  0  0  0  0  0  0  0  0  0
    6.8080   -4.1760   21.5940 N   0  0  0  0  0  0  0  0  0  0  0  0
    6.3960   -5.3770   22.3460 C   0  0  0  0  0  0  0  0  0  0  0  0
    5.5170   -4.6770   23.4530 C   0  0  0  0  0  0  0  0  0  0  0  0
    6.4200   -3.6380   24.0870 C   0  0  0  0  0  0  0  0  0  0  0  0
    5.7260   -2.9980   25.3680 C   0  0  0  0  0  0  0  0  0  0  0  0
    5.1640   -1.9550   25.0750 O   0  0  0  0  0  0  0  0  0  0  0  0
    5.9200   -3.7480   26.3700 N   0  0  0  0  0  0  0  0  0  0  0  0
    6.0190   -4.5590   27.4590 C   0  0  0  0  0  0  0  0  0  0  0  0
    5.9560   -5.8730   27.8040 C   0  0  0  0  0  0  0  0  0  0  0  0
    5.6100   -6.2370   29.1380 C   0  0  0  0  0  0  0  0  0  0  0  0
    6.0340   -7.2510   30.0770 C   0  0  0  0  0  0  0  0  0  0  0  0
    5.3920   -7.2110   31.3390 N   0  0  0  0  0  0  0  0  0  0  0  0
    5.4550   -7.9690   32.5880 C   0  0  0  0  0  0  0  0  0  0  0  0
    4.5170   -6.0840   31.0820 C   0  0  0  0  0  0  0  0  0  0  0  0
    3.6610   -5.7360   32.2000 C   0  0  0  0  0  0  0  0  0  0  0  0
    2.8670   -4.5250   31.6220 C   0  0  0  0  0  0  0  0  0  0  0  0
    2.8850   -3.7960   30.2490 C   0  0  0  0  0  0  0  0  0  0  0  0
    3.7270   -4.2380   29.3260 C   0  0  0  0  0  0  0  0  0  0  0  0
    3.9010   -3.7530   28.0630 C   0  0  0  0  0  0  0  0  0  0  0  0
    4.5420   -5.3860   29.7600 C   0  0  0  0  0  0  0  0  0  0  0  0
    7.0320   -2.6030   23.2040 C   0  0  0  0  0  0  0  0  0  0  0  0
    7.7340   -3.2660   22.2080 C   0  0  0  0  0  0  0  0  0  0  0  0
  1  2  1  0
  2  3  2  0
  2  4  1  0
  4  5  1  0
  5  6  1  0
  6  7  1  0
  7  8  1  0
  8  9  2  0
  8 10  1  0
 10 11  1  0
 11 12  1  0
 12 13  1  0
 13 14  2  0
 14 15  1  0
 15 16  1  0
 15 17  1  0
 17 18  1  0
 18 19  2  0
 19 20  1  0
 20 21  2  0
 21 22  1  0
 13 23  1  0
 17 23  2  0
 21 23  1  0
  7 24  1  0
  4 25  1  0
 24 25  1  0
M  END
