piperidine-amides-25857-covalent
     RDKit          3D

 25 27  0  0  0  0  0  0  0  0999 V2000
    7.0480   -3.3370   19.3490 C   0  0  0  0  0  0  0  0  0  0  0  0
    6.3880   -4.2220   20.3400 C   0  0  0  0  0  0  0  0  0  0  0  0
    5.3760   -4.8210   19.9710 O   0  0  0  0  0  0  0  0  0  0  0  0
    6.9370   -4.3960   21.6160 N   0  0  0  0  0  0  0  0  0  0  0  0
    6.6740   -5.5650   22.4130 C   0  0  0  0  0  0  0  0  0  0  0  0
    5.8470   -5.1900   23.6130 C   0  0  0  0  0  0  0  0  0  0  0  0
    6.4470   -3.9600   24.3060 C   0  0  0  0  0  0  0  0  0  0  0  0
    5.4700   -3.5410   25.3360 C   0  0  0  0  0  0  0  0  0  0  0  0
    4.5960   -2.7180   25.0520 O   0  0  0  0  0  0  0  0  0  0  0  0
    5.5400   -4.0730   26.6390 N   0  0  0  0  0  0  0  0  0  0  0  0
    6.8540   -4.2880   27.0520 C   0  0  0  0  0  0  0  0  0  0  0  0
    6.9660   -5.4710   27.9730 C   0  0  0  0  0  0  0  0  0  0  0  0
    6.0400   -5.5750   28.9460 C   0  0  0  0  0  0  0  0  0  0  0  0
    5.9280   -6.4940   29.9430 C   0  0  0  0  0  0  0  0  0  0  0  0
    4.9020   -6.4740   30.8840 C   0  0  0  0  0  0  0  0  0  0  0  0
    3.9290   -5.5570   30.9090 N   0  0  0  0  0  0  0  0  0  0  0  0
    3.8690   -4.4770   29.9090 C   0  0  0  0  0  0  0  0  0  0  0  0
    2.7980   -3.4320   29.8980 C   0  0  0  0  0  0  0  0  0  0  0  0
    3.1800   -2.1230   29.9120 O   0  0  0  0  0  0  0  0  0  0  0  0
    1.4660   -3.7860   29.8830 O   0  0  0  0  0  0  0  0  0  0  0  0
    0.6430   -3.5320   31.0320 C   0  0  0  0  0  0  0  0  0  0  0  0
    4.9640   -4.5320   28.9260 C   0  0  0  0  0  0  0  0  0  0  0  0
    4.9600   -3.4810   27.8600 C   0  0  0  0  0  0  0  0  0  0  0  0
    6.8450   -2.8650   23.3920 C   0  0  0  0  0  0  0  0  0  0  0  0
    7.6740   -3.3230   22.2550 C   0  0  0  0  0  0  0  0  0  0  0  0
  1  2  1  0
  2  3  2  0
  2  4  1  0
  4  5  1  0
  5  6  1  0
  6  7  1  0
  7  8  1  0
  8  9  2  0
  8 10  1  0
 10 11  1  0
 11 12  1  0
 12 13  1  0
 13 14  2  0
 14 15  1  0
 15 16  2  0
 16 17  1  0
 17 18  1  0
 18 19  2  0
 18 20  1  0
 20 21  1  0
 13 22  1  0
 17 22  2  0
 10 23  1  0
 22 23  1  0
  7 24  1  0
  4 25  1  0
 24 25  1  0
M  END
