piperidine-amides-32800-covalent
     RDKit          3D

 26 27  0  0  0  0  0  0  0  0999 V2000
    7.1250   -3.2800   19.2720 C   0  0  0  0  0  0  0  0  0  0  0  0
    6.3170   -4.0360   20.2640 C   0  0  0  0  0  0  0  0  0  0  0  0
    5.2630   -4.5790   19.8950 O   0  0  0  0  0  0  0  0  0  0  0  0
    6.7990   -4.1600   21.5840 N   0  0  0  0  0  0  0  0  0  0  0  0
    7.6350   -3.1240   22.1700 C   0  0  0  0  0  0  0  0  0  0  0  0
    7.4720   -3.1250   23.7020 C   0  0  0  0  0  0  0  0  0  0  0  0
    6.1410   -3.7210   24.0210 C   0  0  0  0  0  0  0  0  0  0  0  0
    5.5530   -3.3020   25.3220 C   0  0  0  0  0  0  0  0  0  0  0  0
    4.3170   -3.2890   25.3510 O   0  0  0  0  0  0  0  0  0  0  0  0
    6.3320   -2.9270   26.4260 N   0  0  0  0  0  0  0  0  0  0  0  0
    6.8390   -1.6040   26.5430 C   0  0  0  0  0  0  0  0  0  0  0  0
    6.2080   -3.6440   27.6670 C   0  0  2  0  0  0  0  0  0  0  0  0
    6.0390   -5.0450   27.6180 C   0  0  0  0  0  0  0  0  0  0  0  0
    5.2760   -5.6250   26.6160 O   0  0  0  0  0  0  0  0  0  0  0  0
    6.6110   -5.8890   28.5390 O   0  0  0  0  0  0  0  0  0  0  0  0
    5.8410   -6.7700   29.3530 C   0  0  0  0  0  0  0  0  0  0  0  0
    5.1630   -3.1020   28.5380 C   0  0  0  0  0  0  0  0  0  0  0  0
    3.7750   -3.7170   28.5690 C   0  0  0  0  0  0  0  0  0  0  0  0
    2.7750   -3.0860   29.5020 C   0  0  0  0  0  0  0  0  0  0  0  0
    3.0930   -2.0110   30.2850 C   0  0  0  0  0  0  0  0  0  0  0  0
    4.3950   -1.2810   30.3850 C   0  0  0  0  0  0  0  0  0  0  0  0
    4.6700    0.0880   31.4340 Cl  0  0  0  0  0  0  0  0  0  0  0  0
    5.4270   -1.9200   29.4340 C   0  0  0  0  0  0  0  0  0  0  0  0
    7.0250   -1.1440   29.4550 Cl  0  0  0  0  0  0  0  0  0  0  0  0
    6.2730   -5.1590   23.7830 C   0  0  0  0  0  0  0  0  0  0  0  0
    6.5950   -5.3930   22.3000 C   0  0  0  0  0  0  0  0  0  0  0  0
  1  2  1  0
  2  3  2  0
  2  4  1  0
  4  5  1  0
  5  6  1  0
  6  7  1  0
  7  8  1  0
  8  9  2  0
  8 10  1  0
 10 11  1  0
 10 12  1  0
 12 13  1  6
 13 14  2  0
 13 15  1  0
 15 16  1  0
 12 17  1  0
 17 18  2  0
 18 19  1  0
 19 20  2  0
 20 21  1  0
 21 22  1  0
 17 23  1  0
 21 23  2  0
 23 24  1  0
  7 25  1  0
  4 26  1  0
 25 26  1  0
M  END
