piperidine-amides-4147-covalent
     RDKit          3D

 27 29  0  0  0  0  0  0  0  0999 V2000
    7.2700   -3.2450   19.1490 C   0  0  0  0  0  0  0  0  0  0  0  0
    6.3590   -3.7310   20.2130 C   0  0  0  0  0  0  0  0  0  0  0  0
    5.3600   -4.4010   19.8400 O   0  0  0  0  0  0  0  0  0  0  0  0
    6.5630   -3.4890   21.6050 N   0  0  0  0  0  0  0  0  0  0  0  0
    7.7700   -2.9060   22.0900 C   0  0  0  0  0  0  0  0  0  0  0  0
    7.7540   -2.6200   23.5300 C   0  0  0  0  0  0  0  0  0  0  0  0
    6.4140   -2.4200   24.1290 C   0  0  0  0  0  0  0  0  0  0  0  0
    6.3900   -2.5350   25.6430 C   0  0  0  0  0  0  0  0  0  0  0  0
    5.3430   -2.9780   26.1670 O   0  0  0  0  0  0  0  0  0  0  0  0
    7.4860   -2.1340   26.4940 N   0  0  0  0  0  0  0  0  0  0  0  0
    7.7450   -2.4990   27.8570 C   0  0  0  0  0  0  0  0  0  0  0  0
    7.7740   -3.8710   28.3240 C   0  0  0  0  0  0  0  0  0  0  0  0
    7.1190   -4.5660   27.1930 C   0  0  0  0  0  0  0  0  0  0  0  0
    5.8300   -5.0340   27.4410 C   0  0  0  0  0  0  0  0  0  0  0  0
    5.1390   -5.7320   26.2440 C   0  0  0  0  0  0  0  0  0  0  0  0
    6.0150   -5.7630   25.0360 C   0  0  0  0  0  0  0  0  0  0  0  0
    5.5230   -6.3320   23.9850 N   0  0  0  0  0  0  0  0  0  0  0  0
    5.8760   -5.9100   22.7630 C   0  0  0  0  0  0  0  0  0  0  0  0
    7.3620   -5.9890   22.4560 C   0  0  0  0  0  0  0  0  0  0  0  0
    7.8310   -7.0080   23.2110 N   0  0  0  0  0  0  0  0  0  0  0  0
    9.1420   -6.9310   23.8870 C   0  0  0  0  0  0  0  0  0  0  0  0
    6.7280   -7.9290   23.1920 C   0  0  0  0  0  0  0  0  0  0  0  0
    5.5450   -7.5930   24.0170 C   0  0  0  0  0  0  0  0  0  0  0  0
    7.2680   -5.2420   25.0150 C   0  0  0  0  0  0  0  0  0  0  0  0
    7.8090   -4.6620   26.0540 C   0  0  0  0  0  0  0  0  0  0  0  0
    5.3450   -3.3120   23.5450 C   0  0  0  0  0  0  0  0  0  0  0  0
    5.7930   -4.2020   22.5710 C   0  0  0  0  0  0  0  0  0  0  0  0
  1  2  1  0
  2  3  2  0
  2  4  1  0
  4  5  1  0
  5  6  1  0
  6  7  1  0
  7  8  1  0
  8  9  2  0
  8 10  1  0
 10 11  1  0
 11 12  1  0
 12 13  1  0
 13 14  2  0
 14 15  1  0
 15 16  2  0
 16 17  1  0
 17 18  1  0
 18 19  1  0
 19 20  1  0
 20 21  1  0
 20 22  1  0
 17 23  1  0
 22 23  1  0
 16 24  1  0
 13 25  1  0
 24 25  2  0
  7 26  1  0
  4 27  1  0
 26 27  1  0
M  END
