piperidine-amides-5271-covalent
     RDKit          3D

 21 22  0  0  0  0  0  0  0  0999 V2000
    7.0990   -3.2720   19.1660 C   0  0  0  0  0  0  0  0  0  0  0  0
    6.3520   -4.0070   20.2150 C   0  0  0  0  0  0  0  0  0  0  0  0
    5.2660   -4.5110   19.8690 O   0  0  0  0  0  0  0  0  0  0  0  0
    6.8690   -4.1690   21.5070 N   0  0  0  0  0  0  0  0  0  0  0  0
    6.4980   -5.3100   22.2700 C   0  0  0  0  0  0  0  0  0  0  0  0
    6.0230   -4.9900   23.6210 C   0  0  0  0  0  0  0  0  0  0  0  0
    6.6010   -3.7680   24.2300 C   0  0  0  0  0  0  0  0  0  0  0  0
    5.8100   -3.3340   25.4130 C   0  0  0  0  0  0  0  0  0  0  0  0
    4.5780   -3.2070   25.2760 O   0  0  0  0  0  0  0  0  0  0  0  0
    6.4230   -3.0670   26.6520 N   0  0  0  0  0  0  0  0  0  0  0  0
    6.2220   -3.8990   27.8720 C   0  0  2  0  0  0  0  0  0  0  0  0
    6.0120   -5.3540   27.5610 C   0  0  0  0  0  0  0  0  0  0  0  0
    5.1360   -3.3280   28.7050 C   0  0  0  0  0  0  0  0  0  0  0  0
    4.0930   -4.1060   29.1410 C   0  0  0  0  0  0  0  0  0  0  0  0
    3.0390   -3.6950   29.9130 C   0  0  0  0  0  0  0  0  0  0  0  0
    3.0130   -2.3920   30.2910 C   0  0  0  0  0  0  0  0  0  0  0  0
    4.0290   -1.5660   29.8860 C   0  0  0  0  0  0  0  0  0  0  0  0
    5.0720   -2.0080   29.1110 C   0  0  0  0  0  0  0  0  0  0  0  0
    6.0440   -1.1380   28.7430 O   0  0  0  0  0  0  0  0  0  0  0  0
    6.7420   -2.6580   23.2310 C   0  0  0  0  0  0  0  0  0  0  0  0
    7.6540   -3.1550   22.1810 C   0  0  0  0  0  0  0  0  0  0  0  0
  1  2  1  0
  2  3  2  0
  2  4  1  0
  4  5  1  0
  5  6  1  0
  6  7  1  0
  7  8  1  0
  8  9  2  0
  8 10  1  0
 10 11  1  0
 11 12  1  6
 11 13  1  0
 13 14  2  0
 14 15  1  0
 15 16  2  0
 16 17  1  0
 13 18  1  0
 17 18  2  0
 18 19  1  0
  7 20  1  0
  4 21  1  0
 20 21  1  0
M  END
