piperidine-amides-12660-covalent
     RDKit          3D

 22 23  0  0  0  0  0  0  0  0999 V2000
    7.0570   -3.3320   19.3630 C   0  0  0  0  0  0  0  0  0  0  0  0
    6.4000   -4.1770   20.3840 C   0  0  0  0  0  0  0  0  0  0  0  0
    5.4180   -4.8470   19.9890 O   0  0  0  0  0  0  0  0  0  0  0  0
    6.8870   -4.2470   21.7110 N   0  0  0  0  0  0  0  0  0  0  0  0
    7.7010   -3.2020   22.2560 C   0  0  0  0  0  0  0  0  0  0  0  0
    7.3900   -2.9230   23.6540 C   0  0  0  0  0  0  0  0  0  0  0  0
    6.1560   -3.6020   24.0880 C   0  0  0  0  0  0  0  0  0  0  0  0
    5.7480   -3.2100   25.4710 C   0  0  0  0  0  0  0  0  0  0  0  0
    4.5730   -3.4650   25.7950 O   0  0  0  0  0  0  0  0  0  0  0  0
    6.6010   -2.5620   26.4020 N   0  0  0  0  0  0  0  0  0  0  0  0
    6.3260   -1.1730   26.8800 C   0  0  0  0  0  0  0  0  0  0  0  0
    5.5460   -0.2530   26.0490 C   0  0  0  0  0  0  0  0  0  0  0  0
    5.2630    1.0880   26.4960 C   0  0  0  0  0  0  0  0  0  0  0  0
    4.5170    1.8060   25.5900 F   0  0  0  0  0  0  0  0  0  0  0  0
    5.6900    1.5800   27.6930 C   0  0  0  0  0  0  0  0  0  0  0  0
    5.4270    2.7400   28.0560 O   0  0  0  0  0  0  0  0  0  0  0  0
    5.0690    2.7770   29.3070 C   0  0  0  0  0  0  0  0  0  0  0  0
    6.4820    0.6920   28.5620 C   0  0  0  0  0  0  0  0  0  0  0  0
    6.7660   -0.5750   28.1700 C   0  0  0  0  0  0  0  0  0  0  0  0
    7.7690   -1.4310   29.4700 Br  0  0  0  0  0  0  0  0  0  0  0  0
    6.1170   -5.0690   23.8220 C   0  0  0  0  0  0  0  0  0  0  0  0
    6.6020   -5.4000   22.5360 C   0  0  0  0  0  0  0  0  0  0  0  0
  1  2  1  0
  2  3  2  0
  2  4  1  0
  4  5  1  0
  5  6  1  0
  6  7  1  0
  7  8  1  0
  8  9  2  0
  8 10  1  0
 10 11  1  0
 11 12  2  0
 12 13  1  0
 13 14  1  0
 13 15  2  0
 15 16  1  0
 16 17  1  0
 15 18  1  0
 11 19  1  0
 18 19  2  0
 19 20  1  0
  7 21  1  0
  4 22  1  0
 21 22  1  0
M  END
