piperidine-amides-18805-covalent
     RDKit          3D

 21 22  0  0  0  0  0  0  0  0999 V2000
    7.1910   -3.3780   19.4130 C   0  0  0  0  0  0  0  0  0  0  0  0
    6.4830   -4.1960   20.3610 C   0  0  0  0  0  0  0  0  0  0  0  0
    5.4230   -4.8000   19.9830 O   0  0  0  0  0  0  0  0  0  0  0  0
    6.9870   -4.3710   21.6620 N   0  0  0  0  0  0  0  0  0  0  0  0
    6.5900   -5.5690   22.4140 C   0  0  0  0  0  0  0  0  0  0  0  0
    5.6010   -4.8730   23.4230 C   0  0  0  0  0  0  0  0  0  0  0  0
    6.3750   -3.7810   24.1550 C   0  0  0  0  0  0  0  0  0  0  0  0
    5.4190   -3.2540   25.3100 C   0  0  0  0  0  0  0  0  0  0  0  0
    4.4950   -2.6440   24.8010 O   0  0  0  0  0  0  0  0  0  0  0  0
    5.8110   -3.5750   26.4810 N   0  0  0  0  0  0  0  0  0  0  0  0
    6.0830   -3.4450   27.8020 C   0  0  0  0  0  0  0  0  0  0  0  0
    5.3380   -3.3490   28.9460 C   0  0  0  0  0  0  0  0  0  0  0  0
    4.8310   -4.6890   29.3180 N   0  0  0  0  0  0  0  0  0  0  0  0
    3.6960   -5.0100   29.9720 C   0  0  0  0  0  0  0  0  0  0  0  0
    5.7930   -5.6930   29.2770 C   0  0  0  0  0  0  0  0  0  0  0  0
    6.4860   -5.4520   27.9710 C   0  0  1  0  0  0  0  0  0  0  0  0
    5.2440   -5.8890   27.4790 C   0  0  0  0  0  0  0  0  0  0  0  0
    5.2550   -6.9880   26.8700 O   0  0  0  0  0  0  0  0  0  0  0  0
    5.8180   -4.9980   26.6870 C   0  0  0  0  0  0  0  0  0  0  0  0
    7.0720   -2.7730   23.3990 C   0  0  0  0  0  0  0  0  0  0  0  0
    7.8860   -3.5020   22.3050 C   0  0  0  0  0  0  0  0  0  0  0  0
  1  2  1  0
  2  3  2  0
  2  4  1  0
  4  5  1  0
  5  6  1  0
  6  7  1  0
  7  8  1  0
  8  9  2  0
  8 10  1  0
 10 11  1  0
 11 12  1  0
 12 13  1  0
 13 14  1  0
 13 15  1  0
 15 16  1  0
 16 17  1  6
 17 18  1  0
 10 19  1  0
 16 19  1  0
  7 20  1  0
  4 21  1  0
 20 21  1  0
M  END
