piperidine-amides-29438-covalent
     RDKit          3D

 24 26  0  0  0  0  0  0  0  0999 V2000
    7.0260   -3.3470   19.4300 C   0  0  0  0  0  0  0  0  0  0  0  0
    6.3960   -4.2290   20.4120 C   0  0  0  0  0  0  0  0  0  0  0  0
    5.4280   -4.9090   20.0070 O   0  0  0  0  0  0  0  0  0  0  0  0
    6.8830   -4.3480   21.7550 N   0  0  0  0  0  0  0  0  0  0  0  0
    6.5540   -5.5420   22.4880 C   0  0  0  0  0  0  0  0  0  0  0  0
    6.2420   -5.2180   23.9310 C   0  0  0  0  0  0  0  0  0  0  0  0
    5.8480   -3.7580   23.9900 C   0  0  0  0  0  0  0  0  0  0  0  0
    4.9550   -3.4270   25.1990 C   0  0  0  0  0  0  0  0  0  0  0  0
    3.7850   -3.6570   24.9610 O   0  0  0  0  0  0  0  0  0  0  0  0
    5.3420   -2.9270   26.4610 N   0  0  0  0  0  0  0  0  0  0  0  0
    6.6210   -3.0570   26.8710 C   0  0  0  0  0  0  0  0  0  0  0  0
    6.5470   -3.8550   28.0370 C   0  0  0  0  0  0  0  0  0  0  0  0
    5.2630   -3.8050   28.4690 C   0  0  0  0  0  0  0  0  0  0  0  0
    4.4010   -3.1860   27.5620 C   0  0  1  0  0  0  0  0  0  0  0  0
    3.8980   -1.9660   28.2910 C   0  0  0  0  0  0  0  0  0  0  0  0
    2.3620   -1.6660   28.2080 C   0  0  0  0  0  0  0  0  0  0  0  0
    1.2790   -2.7260   27.2890 Cl  0  0  0  0  0  0  0  0  0  0  0  0
    1.8210   -0.4790   28.9100 C   0  0  0  0  0  0  0  0  0  0  0  0
    2.7660    0.3780   29.6680 C   0  0  0  0  0  0  0  0  0  0  0  0
    4.2550    0.0220   29.7060 C   0  0  0  0  0  0  0  0  0  0  0  0
    4.8490   -1.0540   29.0890 C   0  0  0  0  0  0  0  0  0  0  0  0
    6.5850   -1.3210   29.2340 Cl  0  0  0  0  0  0  0  0  0  0  0  0
    7.1130   -2.9840   23.7920 C   0  0  0  0  0  0  0  0  0  0  0  0
    7.5670   -3.2030   22.3610 C   0  0  0  0  0  0  0  0  0  0  0  0
  1  2  1  0
  2  3  2  0
  2  4  1  0
  4  5  1  0
  5  6  1  0
  6  7  1  0
  7  8  1  0
  8  9  2  0
  8 10  1  0
 10 11  1  0
 11 12  1  0
 12 13  1  0
 10 14  1  0
 13 14  1  0
 14 15  1  1
 15 16  2  0
 16 17  1  0
 16 18  1  0
 18 19  2  0
 19 20  1  0
 15 21  1  0
 20 21  2  0
 21 22  1  0
  7 23  1  0
  4 24  1  0
 23 24  1  0
M  END
