piperidine-amides-2553-covalent
     RDKit          3D

 26 28  0  0  0  0  0  0  0  0999 V2000
    7.0280   -3.3280   19.3710 C   0  0  0  0  0  0  0  0  0  0  0  0
    6.3690   -4.1930   20.3900 C   0  0  0  0  0  0  0  0  0  0  0  0
    5.4340   -4.8930   19.9980 O   0  0  0  0  0  0  0  0  0  0  0  0
    6.8330   -4.2080   21.7180 N   0  0  0  0  0  0  0  0  0  0  0  0
    7.7380   -3.1980   22.2230 C   0  0  0  0  0  0  0  0  0  0  0  0
    7.4390   -2.9400   23.6670 C   0  0  0  0  0  0  0  0  0  0  0  0
    6.0540   -3.5050   23.9480 C   0  0  0  0  0  0  0  0  0  0  0  0
    5.6340   -3.1760   25.3340 C   0  0  0  0  0  0  0  0  0  0  0  0
    4.4240   -3.1320   25.5910 O   0  0  0  0  0  0  0  0  0  0  0  0
    6.5660   -2.9150   26.3580 N   0  0  0  0  0  0  0  0  0  0  0  0
    6.4890   -1.6900   27.1360 C   0  0  0  0  0  0  0  0  0  0  0  0
    5.8900   -0.4790   26.5140 C   0  0  0  0  0  0  0  0  0  0  0  0
    5.7510    0.7340   27.1170 C   0  0  0  0  0  0  0  0  0  0  0  0
    6.1980    0.8560   28.4130 C   0  0  0  0  0  0  0  0  0  0  0  0
    6.7700   -0.2180   29.0830 C   0  0  0  0  0  0  0  0  0  0  0  0
    7.2800   -0.1790   30.5130 C   0  0  0  0  0  0  0  0  0  0  0  0
    8.5790    0.0960   30.8360 O   0  0  0  0  0  0  0  0  0  0  0  0
    6.2980   -0.4180   31.4050 N   0  0  0  0  0  0  0  0  0  0  0  0
    6.5560    0.2270   32.5640 C   0  0  0  0  0  0  0  0  0  0  0  0
    5.6390    0.2430   33.7570 C   0  0  0  0  0  0  0  0  0  0  0  0
    4.4120    0.9020   33.2060 C   0  0  0  0  0  0  0  0  0  0  0  0
    4.2610    0.7800   31.7210 C   0  0  0  0  0  0  0  0  0  0  0  0
    4.9490   -0.3590   30.9870 C   0  0  0  0  0  0  0  0  0  0  0  0
    6.9460   -1.4870   28.5200 C   0  0  0  0  0  0  0  0  0  0  0  0
    6.0330   -5.0180   23.7340 C   0  0  0  0  0  0  0  0  0  0  0  0
    6.6540   -5.3970   22.5470 C   0  0  0  0  0  0  0  0  0  0  0  0
  1  2  1  0
  2  3  2  0
  2  4  1  0
  4  5  1  0
  5  6  1  0
  6  7  1  0
  7  8  1  0
  8  9  2  0
  8 10  1  0
 10 11  1  0
 11 12  2  0
 12 13  1  0
 13 14  2  0
 14 15  1  0
 15 16  1  0
 16 17  2  0
 16 18  1  0
 18 19  1  0
 19 20  1  0
 20 21  1  0
 21 22  1  0
 18 23  1  0
 22 23  1  0
 11 24  1  0
 15 24  2  0
  7 25  1  0
  4 26  1  0
 25 26  1  0
M  END
