piperidine-amides-2205-covalent
     RDKit          3D

 30 32  0  0  0  0  0  0  0  0999 V2000
    7.0470   -3.3540   19.3780 C   0  0  0  0  0  0  0  0  0  0  0  0
    6.3540   -4.2000   20.3860 C   0  0  0  0  0  0  0  0  0  0  0  0
    5.4020   -4.8730   19.9860 O   0  0  0  0  0  0  0  0  0  0  0  0
    6.8150   -4.2360   21.7100 N   0  0  0  0  0  0  0  0  0  0  0  0
    7.7010   -3.2080   22.2140 C   0  0  0  0  0  0  0  0  0  0  0  0
    7.3740   -2.9370   23.6470 C   0  0  0  0  0  0  0  0  0  0  0  0
    6.0190   -3.5680   23.9300 C   0  0  0  0  0  0  0  0  0  0  0  0
    5.5850   -3.2290   25.3060 C   0  0  0  0  0  0  0  0  0  0  0  0
    4.3740   -3.1820   25.5520 O   0  0  0  0  0  0  0  0  0  0  0  0
    6.5060   -2.9590   26.3330 N   0  0  0  0  0  0  0  0  0  0  0  0
    6.4310   -1.6990   27.0430 C   0  0  0  0  0  0  0  0  0  0  0  0
    7.0170   -1.5820   28.4140 C   0  0  0  0  0  0  0  0  0  0  0  0
    7.0380   -0.4910   29.2100 C   0  0  0  0  0  0  0  0  0  0  0  0
    6.4480    0.6180   28.6870 C   0  0  0  0  0  0  0  0  0  0  0  0
    6.5970    1.8450   29.8660 S   0  0  0  0  0  0  0  0  0  0  0  0
    6.0520    0.9680   31.2240 C   0  0  0  0  0  0  0  0  0  0  0  0
    4.8000    0.2280   30.7710 C   0  0  0  0  0  0  0  0  0  0  0  0
    4.2060   -0.5930   31.8920 C   0  0  0  0  0  0  0  0  0  0  0  0
    4.8580   -0.6010   33.2540 C   0  0  0  0  0  0  0  0  0  0  0  0
    6.0860    0.1900   33.5080 C   0  0  0  0  0  0  0  0  0  0  0  0
    6.7890    1.0380   32.5240 C   0  0  0  0  0  0  0  0  0  0  0  0
    5.8440    0.7400   27.4490 C   0  0  0  0  0  0  0  0  0  0  0  0
    5.2310    2.0240   26.9960 C   0  0  0  0  0  0  0  0  0  0  0  0
    6.0720    3.1510   26.9790 O   0  0  0  0  0  0  0  0  0  0  0  0
    3.9160    2.0670   26.6190 O   0  0  0  0  0  0  0  0  0  0  0  0
    3.0280    2.3650   27.6220 C   0  0  0  0  0  0  0  0  0  0  0  0
    2.9160    1.2030   28.3560 C   0  0  0  0  0  0  0  0  0  0  0  0
    5.8300   -0.3830   26.6370 C   0  0  0  0  0  0  0  0  0  0  0  0
    5.9930   -5.0970   23.7710 C   0  0  0  0  0  0  0  0  0  0  0  0
    6.6510   -5.4780   22.4390 C   0  0  0  0  0  0  0  0  0  0  0  0
  1  2  1  0
  2  3  2  0
  2  4  1  0
  4  5  1  0
  5  6  1  0
  6  7  1  0
  7  8  1  0
  8  9  2  0
  8 10  1  0
 10 11  1  0
 11 12  2  0
 12 13  1  0
 13 14  2  0
 14 15  1  0
 15 16  1  0
 16 17  2  0
 17 18  1  0
 18 19  2  0
 19 20  1  0
 16 21  1  0
 20 21  2  0
 14 22  1  0
 22 23  1  0
 23 24  2  0
 23 25  1  0
 25 26  1  0
 26 27  1  0
 11 28  1  0
 22 28  2  0
  7 29  1  0
  4 30  1  0
 29 30  1  0
M  END
