piperidine-amides-5590-covalent
     RDKit          3D

 17 18  0  0  0  0  0  0  0  0999 V2000
    7.0900   -3.2950   19.2340 C   0  0  0  0  0  0  0  0  0  0  0  0
    6.3490   -4.0590   20.2450 C   0  0  0  0  0  0  0  0  0  0  0  0
    5.3060   -4.6460   19.9160 O   0  0  0  0  0  0  0  0  0  0  0  0
    6.8100   -4.1880   21.5640 N   0  0  0  0  0  0  0  0  0  0  0  0
    7.7730   -3.2670   22.1380 C   0  0  0  0  0  0  0  0  0  0  0  0
    7.1520   -2.6680   23.3670 C   0  0  0  0  0  0  0  0  0  0  0  0
    6.0420   -3.5030   23.9300 C   0  0  0  0  0  0  0  0  0  0  0  0
    5.8160   -3.1470   25.3470 C   0  0  0  0  0  0  0  0  0  0  0  0
    4.7760   -3.5420   25.9510 O   0  0  0  0  0  0  0  0  0  0  0  0
    6.7380   -2.3470   26.0600 N   0  0  0  0  0  0  0  0  0  0  0  0
    6.3940   -1.7220   27.3530 C   0  0  0  0  0  0  0  0  0  0  0  0
    5.5130   -0.5570   27.0910 C   0  0  0  0  0  0  0  0  0  0  0  0
    6.1070    0.4770   26.4760 N   0  0  0  0  0  0  0  0  0  0  0  0
    4.1960   -0.6570   26.8490 C   0  0  0  0  0  0  0  0  0  0  0  0
    4.5340   -0.1240   28.2600 C   0  0  0  0  0  0  0  0  0  0  0  0
    6.1090   -4.9750   23.6890 C   0  0  0  0  0  0  0  0  0  0  0  0
    6.5640   -5.3650   22.3360 C   0  0  0  0  0  0  0  0  0  0  0  0
  1  2  1  0
  2  3  2  0
  2  4  1  0
  4  5  1  0
  5  6  1  0
  6  7  1  0
  7  8  1  0
  8  9  2  0
  8 10  1  0
 10 11  1  0
 11 12  1  0
 12 13  1  0
 12 14  1  0
 12 15  1  0
 14 15  1  0
  7 16  1  0
  4 17  1  0
 16 17  1  0
M  END
