piperidine-amides-1923-covalent
     RDKit          3D

 22 24  0  0  0  0  0  0  0  0999 V2000
    7.1750   -3.2770   19.1600 C   0  0  0  0  0  0  0  0  0  0  0  0
    6.3580   -3.9940   20.1670 C   0  0  0  0  0  0  0  0  0  0  0  0
    5.2570   -4.4010   19.8200 O   0  0  0  0  0  0  0  0  0  0  0  0
    6.8840   -4.2380   21.4310 N   0  0  0  0  0  0  0  0  0  0  0  0
    6.3780   -5.3160   22.2290 C   0  0  0  0  0  0  0  0  0  0  0  0
    5.5770   -4.7220   23.3550 C   0  0  0  0  0  0  0  0  0  0  0  0
    6.4110   -3.6330   24.0440 C   0  0  0  0  0  0  0  0  0  0  0  0
    5.6520   -3.1040   25.1910 C   0  0  0  0  0  0  0  0  0  0  0  0
    4.4170   -3.2080   25.2420 O   0  0  0  0  0  0  0  0  0  0  0  0
    6.3580   -2.4630   26.2180 N   0  0  0  0  0  0  0  0  0  0  0  0
    6.2030   -2.8920   27.5830 C   0  0  0  0  0  0  0  0  0  0  0  0
    5.9510   -4.3870   27.6970 C   0  0  2  0  0  0  0  0  0  0  0  0
    6.4120   -4.9120   28.8460 C   0  0  0  0  0  0  0  0  0  0  0  0
    7.6800   -5.2410   28.6270 C   0  0  0  0  0  0  0  0  0  0  0  0
    7.8580   -5.2350   27.3100 C   0  0  0  0  0  0  0  0  0  0  0  0
    8.0880   -4.0810   26.3820 C   0  0  0  0  0  0  0  0  0  0  0  0
    9.0530   -5.0520   25.7520 C   0  0  0  0  0  0  0  0  0  0  0  0
    9.0320   -6.0210   26.9040 C   0  0  0  0  0  0  0  0  0  0  0  0
    6.4860   -5.3080   26.6480 C   0  0  1  0  0  0  0  0  0  0  0  0
    5.8430   -6.5510   26.7410 O   0  0  0  0  0  0  0  0  0  0  0  0
    6.8610   -2.5460   23.1210 C   0  0  0  0  0  0  0  0  0  0  0  0
    7.6930   -3.2210   22.0630 C   0  0  0  0  0  0  0  0  0  0  0  0
  1  2  1  0
  2  3  2  0
  2  4  1  0
  4  5  1  0
  5  6  1  0
  6  7  1  0
  7  8  1  0
  8  9  2  0
  8 10  1  0
 10 11  1  0
 12 11  1  6
 12 13  1  0
 13 14  1  0
 15 14  1  0
 15 16  1  0
 16 17  1  0
 15 18  1  0
 17 18  1  0
 12 19  1  0
 15 19  1  0
 19 20  1  1
  7 21  1  0
  4 22  1  0
 21 22  1  0
M  END
