piperidine-amides-2881-covalent
     RDKit          3D

 24 25  0  0  0  0  0  0  0  0999 V2000
    7.1530   -3.3070   19.2000 C   0  0  0  0  0  0  0  0  0  0  0  0
    6.3550   -4.0130   20.1890 C   0  0  0  0  0  0  0  0  0  0  0  0
    5.2750   -4.5060   19.8760 O   0  0  0  0  0  0  0  0  0  0  0  0
    6.8730   -4.1850   21.5140 N   0  0  0  0  0  0  0  0  0  0  0  0
    7.7360   -3.2050   22.1090 C   0  0  0  0  0  0  0  0  0  0  0  0
    7.1260   -2.6850   23.3690 C   0  0  0  0  0  0  0  0  0  0  0  0
    6.5770   -3.8560   24.1700 C   0  0  0  0  0  0  0  0  0  0  0  0
    5.7020   -3.3050   25.2250 C   0  0  0  0  0  0  0  0  0  0  0  0
    4.5180   -2.9660   25.0130 O   0  0  0  0  0  0  0  0  0  0  0  0
    6.2390   -3.1620   26.5160 N   0  0  0  0  0  0  0  0  0  0  0  0
    7.1770   -2.1010   26.7610 C   0  0  0  0  0  0  0  0  0  0  0  0
    6.8110   -1.4320   28.0750 C   0  0  0  0  0  0  0  0  0  0  0  0
    5.5570   -1.3510   28.6120 N   0  0  0  0  0  0  0  0  0  0  0  0
    4.8580   -2.7240   29.3280 S   0  0  0  0  0  0  0  0  0  0  0  0
    3.4880   -2.9140   28.7670 O   0  0  0  0  0  0  0  0  0  0  0  0
    4.7550   -2.5940   30.7990 O   0  0  0  0  0  0  0  0  0  0  0  0
    5.9450   -3.9330   28.7150 C   0  0  0  0  0  0  0  0  0  0  0  0
    5.5510   -5.2110   28.3980 C   0  0  0  0  0  0  0  0  0  0  0  0
    6.4510   -6.0800   27.8740 C   0  0  0  0  0  0  0  0  0  0  0  0
    7.7680   -5.4770   27.7220 C   0  0  0  0  0  0  0  0  0  0  0  0
    9.1830   -6.2300   27.0460 Cl  0  0  0  0  0  0  0  0  0  0  0  0
    7.6060   -3.9040   28.3200 S   0  0  0  0  0  0  0  0  0  0  0  0
    5.7840   -4.9020   23.4110 C   0  0  0  0  0  0  0  0  0  0  0  0
    6.5340   -5.3330   22.3420 C   0  0  0  0  0  0  0  0  0  0  0  0
  1  2  1  0
  2  3  2  0
  2  4  1  0
  4  5  1  0
  5  6  1  0
  6  7  1  0
  7  8  1  0
  8  9  2  0
  8 10  1  0
 10 11  1  0
 11 12  1  0
 12 13  1  0
 14 13  1  0
 14 15  2  0
 14 16  2  0
 14 17  1  0
 17 18  2  0
 18 19  1  0
 19 20  2  0
 20 21  1  0
 17 22  1  0
 20 22  1  0
  7 23  1  0
  4 24  1  0
 23 24  1  0
M  END
