piperidine-amides-13143-covalent
     RDKit          3D

 20 20  0  0  0  0  0  0  0  0999 V2000
    7.0980   -3.2650   19.2460 C   0  0  0  0  0  0  0  0  0  0  0  0
    6.3680   -4.0540   20.2680 C   0  0  0  0  0  0  0  0  0  0  0  0
    5.3050   -4.5950   19.9020 O   0  0  0  0  0  0  0  0  0  0  0  0
    6.8760   -4.2220   21.5700 N   0  0  0  0  0  0  0  0  0  0  0  0
    7.6680   -3.1960   22.1760 C   0  0  0  0  0  0  0  0  0  0  0  0
    7.2810   -2.9250   23.5520 C   0  0  0  0  0  0  0  0  0  0  0  0
    6.0110   -3.5720   23.9340 C   0  0  0  0  0  0  0  0  0  0  0  0
    5.6270   -3.2540   25.3300 C   0  0  0  0  0  0  0  0  0  0  0  0
    4.4120   -3.1500   25.5790 O   0  0  0  0  0  0  0  0  0  0  0  0
    6.5840   -3.0680   26.3440 N   0  0  0  0  0  0  0  0  0  0  0  0
    6.2440   -3.0520   27.7880 C   0  0  0  0  0  0  0  0  0  0  0  0
    6.5140   -4.3270   28.5200 C   0  0  0  0  0  0  0  0  0  0  0  0
    6.0960   -5.5900   27.9280 C   0  0  0  0  0  0  0  0  0  0  0  0
    4.8990   -6.1310   28.3190 C   0  0  0  0  0  0  0  0  0  0  0  0
    4.7590   -6.6170   29.6010 C   0  0  0  0  0  0  0  0  0  0  0  0
    5.9300   -7.1320   30.0720 C   0  0  0  0  0  0  0  0  0  0  0  0
    3.8950   -5.5650   30.2300 C   0  0  0  0  0  0  0  0  0  0  0  0
    4.0040   -7.7490   29.6720 C   0  0  0  0  0  0  0  0  0  0  0  0
    6.0450   -5.0600   23.6720 C   0  0  0  0  0  0  0  0  0  0  0  0
    6.6280   -5.4190   22.3500 C   0  0  0  0  0  0  0  0  0  0  0  0
  1  2  1  0
  2  3  2  0
  2  4  1  0
  4  5  1  0
  5  6  1  0
  6  7  1  0
  7  8  1  0
  8  9  2  0
  8 10  1  0
 10 11  1  0
 11 12  1  0
 12 13  1  0
 13 14  1  0
 15 14  1  0
 15 16  1  0
 15 17  1  0
 15 18  1  0
  7 19  1  0
  4 20  1  0
 19 20  1  0
M  END
