piperidine-amides-32737-covalent
     RDKit          3D

 27 29  0  0  0  0  0  0  0  0999 V2000
    7.0730   -3.3340   19.3530 C   0  0  0  0  0  0  0  0  0  0  0  0
    6.3860   -4.2040   20.3460 C   0  0  0  0  0  0  0  0  0  0  0  0
    5.3900   -4.8570   19.9860 O   0  0  0  0  0  0  0  0  0  0  0  0
    6.9130   -4.2930   21.6570 N   0  0  0  0  0  0  0  0  0  0  0  0
    7.7850   -3.2590   22.2090 C   0  0  0  0  0  0  0  0  0  0  0  0
    7.6240   -3.1930   23.7380 C   0  0  0  0  0  0  0  0  0  0  0  0
    6.2900   -3.7670   24.0200 C   0  0  0  0  0  0  0  0  0  0  0  0
    5.6790   -3.4340   25.3320 C   0  0  0  0  0  0  0  0  0  0  0  0
    4.6280   -2.7910   25.2450 O   0  0  0  0  0  0  0  0  0  0  0  0
    6.1910   -3.8040   26.5870 N   0  0  0  0  0  0  0  0  0  0  0  0
    5.2460   -3.9950   27.6410 C   0  0  0  0  0  0  0  0  0  0  0  0
    5.3520   -5.0120   28.5360 C   0  0  0  0  0  0  0  0  0  0  0  0
    7.0090   -5.6660   28.3650 S   0  0  0  0  0  0  0  0  0  0  0  0
    8.0240   -4.4030   27.6430 C   0  0  0  0  0  0  0  0  0  0  0  0
    7.3560   -3.2700   27.1460 C   0  0  2  0  0  0  0  0  0  0  0  0
    7.2160   -2.0900   28.0480 C   0  0  0  0  0  0  0  0  0  0  0  0
    8.2280   -1.8020   29.1650 C   0  0  0  0  0  0  0  0  0  0  0  0
    8.0130   -0.5820   30.0880 C   0  0  0  0  0  0  0  0  0  0  0  0
    6.9320    0.2500   29.9050 C   0  0  0  0  0  0  0  0  0  0  0  0
    5.9970   -0.0500   28.8190 C   0  0  0  0  0  0  0  0  0  0  0  0
    4.9430    1.0430   28.8860 C   0  0  0  0  0  0  0  0  0  0  0  0
    3.8040    0.8090   28.1640 F   0  0  0  0  0  0  0  0  0  0  0  0
    4.4700    1.3120   30.1470 F   0  0  0  0  0  0  0  0  0  0  0  0
    5.4870    2.2120   28.4090 F   0  0  0  0  0  0  0  0  0  0  0  0
    6.1580   -1.2210   27.9100 C   0  0  0  0  0  0  0  0  0  0  0  0
    6.2120   -5.2260   23.7820 C   0  0  0  0  0  0  0  0  0  0  0  0
    6.7450   -5.5390   22.4010 C   0  0  0  0  0  0  0  0  0  0  0  0
  1  2  1  0
  2  3  2  0
  2  4  1  0
  4  5  1  0
  5  6  1  0
  6  7  1  0
  7  8  1  0
  8  9  2  0
  8 10  1  0
 10 11  1  0
 11 12  1  0
 12 13  1  0
 13 14  1  0
 10 15  1  0
 14 15  1  0
 15 16  1  1
 16 17  2  0
 17 18  1  0
 18 19  2  0
 19 20  1  0
 20 21  1  0
 21 22  1  0
 21 23  1  0
 21 24  1  0
 16 25  1  0
 20 25  2  0
  7 26  1  0
  4 27  1  0
 26 27  1  0
M  END
