piperidine-amides-26983-covalent
     RDKit          3D

 25 27  0  0  0  0  0  0  0  0999 V2000
    7.0140   -3.3620   19.3670 C   0  0  0  0  0  0  0  0  0  0  0  0
    6.3740   -4.2260   20.3640 C   0  0  0  0  0  0  0  0  0  0  0  0
    5.3620   -4.8650   19.9780 O   0  0  0  0  0  0  0  0  0  0  0  0
    6.8970   -4.3530   21.6560 N   0  0  0  0  0  0  0  0  0  0  0  0
    6.5600   -5.4820   22.5060 C   0  0  0  0  0  0  0  0  0  0  0  0
    5.7750   -5.0090   23.7200 C   0  0  0  0  0  0  0  0  0  0  0  0
    5.9260   -3.5280   23.9630 C   0  0  0  0  0  0  0  0  0  0  0  0
    5.5030   -3.1270   25.3380 C   0  0  0  0  0  0  0  0  0  0  0  0
    4.2830   -2.9290   25.4970 O   0  0  0  0  0  0  0  0  0  0  0  0
    6.3420   -2.9590   26.4760 N   0  0  0  0  0  0  0  0  0  0  0  0
    6.6320   -4.1870   27.1920 C   0  0  0  0  0  0  0  0  0  0  0  0
    6.1160   -1.7330   27.2680 C   0  0  0  0  0  0  0  0  0  0  0  0
    5.7830   -0.6360   26.5190 C   0  0  0  0  0  0  0  0  0  0  0  0
    5.6930    0.5990   27.1540 C   0  0  0  0  0  0  0  0  0  0  0  0
    5.8540    0.5840   28.5060 N   0  0  0  0  0  0  0  0  0  0  0  0
    4.8560    0.9970   29.2940 C   0  0  0  0  0  0  0  0  0  0  0  0
    4.5210    2.3370   29.1770 C   0  0  1  0  0  0  0  0  0  0  0  0
    3.1740    2.6880   29.1200 C   0  0  0  0  0  0  0  0  0  0  0  0
    2.8930    3.7470   30.1230 C   0  0  0  0  0  0  0  0  0  0  0  0
    4.0880    3.9800   30.6900 O   0  0  0  0  0  0  0  0  0  0  0  0
    5.1590    3.2410   30.2410 C   0  0  0  0  0  0  0  0  0  0  0  0
    6.9430   -0.2370   29.0060 C   0  0  0  0  0  0  0  0  0  0  0  0
    7.1890   -1.4330   28.1230 C   0  0  0  0  0  0  0  0  0  0  0  0
    7.2900   -3.0930   23.6720 C   0  0  0  0  0  0  0  0  0  0  0  0
    7.6360   -3.2610   22.2230 C   0  0  0  0  0  0  0  0  0  0  0  0
  1  2  1  0
  2  3  2  0
  2  4  1  0
  4  5  1  0
  5  6  1  0
  6  7  1  0
  7  8  1  0
  8  9  2  0
  8 10  1  0
 10 11  1  0
 10 12  1  0
 12 13  1  0
 13 14  1  0
 14 15  1  0
 15 16  1  0
 17 16  1  1
 17 18  1  0
 18 19  1  0
 19 20  1  0
 17 21  1  0
 20 21  1  0
 15 22  1  0
 12 23  1  0
 22 23  1  0
  7 24  1  0
  4 25  1  0
 24 25  1  0
M  END
