piperidine-amides-4713-covalent
     RDKit          3D

 24 26  0  0  0  0  0  0  0  0999 V2000
    7.0560   -3.3130   19.2430 C   0  0  0  0  0  0  0  0  0  0  0  0
    6.3650   -4.0850   20.3000 C   0  0  0  0  0  0  0  0  0  0  0  0
    5.3410   -4.7040   19.9440 O   0  0  0  0  0  0  0  0  0  0  0  0
    6.8690   -4.1490   21.6130 N   0  0  0  0  0  0  0  0  0  0  0  0
    6.5980   -5.3080   22.3980 C   0  0  0  0  0  0  0  0  0  0  0  0
    6.0180   -4.9700   23.6940 C   0  0  0  0  0  0  0  0  0  0  0  0
    6.0830   -3.5230   23.9780 C   0  0  0  0  0  0  0  0  0  0  0  0
    5.6120   -3.1810   25.3550 C   0  0  0  0  0  0  0  0  0  0  0  0
    4.3890   -3.0060   25.4940 O   0  0  0  0  0  0  0  0  0  0  0  0
    6.4700   -3.0430   26.4690 N   0  0  0  0  0  0  0  0  0  0  0  0
    6.1770   -3.6280   27.8110 C   0  0  1  0  0  0  0  0  0  0  0  0
    5.7910   -2.5400   28.7660 C   0  0  0  0  0  0  0  0  0  0  0  0
    4.4610   -2.3620   29.2990 C   0  0  0  0  0  0  0  0  0  0  0  0
    4.2450   -1.3320   30.1630 C   0  0  0  0  0  0  0  0  0  0  0  0
    5.2500   -0.4660   30.5380 C   0  0  0  0  0  0  0  0  0  0  0  0
    6.5300   -0.5930   30.0580 C   0  0  0  0  0  0  0  0  0  0  0  0
    6.9080   -1.5820   29.1750 C   0  0  0  0  0  0  0  0  0  0  0  0
    5.4180   -4.8190   27.8900 C   0  0  0  0  0  0  0  0  0  0  0  0
    3.9760   -4.8170   27.9140 N   0  0  0  0  0  0  0  0  0  0  0  0
    3.6320   -6.0550   27.9920 N   0  0  0  0  0  0  0  0  0  0  0  0
    4.7480   -6.7500   28.0140 N   0  0  0  0  0  0  0  0  0  0  0  0
    5.7820   -5.9340   27.9490 N   0  0  0  0  0  0  0  0  0  0  0  0
    7.4620   -3.0160   23.6550 C   0  0  0  0  0  0  0  0  0  0  0  0
    7.7240   -3.1090   22.1870 C   0  0  0  0  0  0  0  0  0  0  0  0
  1  2  1  0
  2  3  2  0
  2  4  1  0
  4  5  1  0
  5  6  1  0
  6  7  1  0
  7  8  1  0
  8  9  2  0
  8 10  1  0
 11 10  1  6
 11 12  1  0
 12 13  2  0
 13 14  1  0
 14 15  2  0
 15 16  1  0
 12 17  1  0
 16 17  2  0
 11 18  1  0
 18 19  2  0
 19 20  1  0
 20 21  2  0
 18 22  1  0
 21 22  1  0
  7 23  1  0
  4 24  1  0
 23 24  1  0
M  END
