piperidine-amides-31815-covalent
     RDKit          3D

 27 30  0  0  0  0  0  0  0  0999 V2000
    7.0250   -3.4170   19.3980 C   0  0  0  0  0  0  0  0  0  0  0  0
    6.3950   -4.2310   20.4170 C   0  0  0  0  0  0  0  0  0  0  0  0
    5.4360   -4.9690   20.0210 O   0  0  0  0  0  0  0  0  0  0  0  0
    6.8140   -4.2720   21.7800 N   0  0  0  0  0  0  0  0  0  0  0  0
    7.6860   -3.1330   22.2410 C   0  0  0  0  0  0  0  0  0  0  0  0
    7.6830   -3.1910   23.8300 C   0  0  0  0  0  0  0  0  0  0  0  0
    6.3630   -3.8040   24.1830 C   0  0  0  0  0  0  0  0  0  0  0  0
    5.5580   -3.1910   25.4480 C   0  0  0  0  0  0  0  0  0  0  0  0
    4.6580   -2.5100   24.9800 O   0  0  0  0  0  0  0  0  0  0  0  0
    5.9590   -3.5030   26.6510 N   0  0  0  0  0  0  0  0  0  0  0  0
    6.3350   -3.5850   27.9350 C   0  0  0  0  0  0  0  0  0  0  0  0
    5.8590   -4.4630   28.9250 C   0  0  2  0  0  0  0  0  0  0  0  0
    6.3840   -5.8020   28.8880 C   0  0  0  0  0  0  0  0  0  0  0  0
    5.4140   -6.9570   29.0490 C   0  0  1  0  0  0  0  0  0  0  0  0
    5.7840   -7.0770   30.5270 C   0  0  0  0  0  0  0  0  0  0  0  0
    4.5210   -6.4350   30.1940 C   0  0  0  0  0  0  0  0  0  0  0  0
    3.7850   -5.3360   29.8040 C   0  0  0  0  0  0  0  0  0  0  0  0
    4.3680   -4.7790   28.7730 N   0  0  0  0  0  0  0  0  0  0  0  0
    4.2500   -5.2960   27.4040 C   0  0  0  0  0  0  0  0  0  0  0  0
    3.2210   -6.4350   27.7000 C   0  0  0  0  0  0  0  0  0  0  0  0
    2.3670   -6.9870   29.1280 Cl  0  0  0  0  0  0  0  0  0  0  0  0
    3.0950   -7.0030   26.4550 C   0  0  0  0  0  0  0  0  0  0  0  0
    3.9970   -5.9430   26.4010 C   0  0  0  0  0  0  0  0  0  0  0  0
    4.9100   -4.9280   26.1720 C   0  0  0  0  0  0  0  0  0  0  0  0
    5.0820   -4.3140   27.3520 C   0  0  0  0  0  0  0  0  0  0  0  0
    6.2120   -5.2460   23.8880 C   0  0  0  0  0  0  0  0  0  0  0  0
    6.7100   -5.5320   22.5020 C   0  0  0  0  0  0  0  0  0  0  0  0
  1  2  1  0
  2  3  2  0
  2  4  1  0
  4  5  1  0
  5  6  1  0
  6  7  1  0
  7  8  1  0
  8  9  2  0
  8 10  1  0
 10 11  1  0
 12 11  1  6
 12 13  1  0
 13 14  1  0
 14 15  1  1
 14 16  1  0
 16 17  1  0
 12 18  1  0
 17 18  1  0
 18 19  1  0
 19 20  2  0
 20 21  1  0
 20 22  1  0
 22 23  2  0
 23 24  1  0
 10 25  1  0
 19 25  1  0
 24 25  2  0
  7 26  1  0
  4 27  1  0
 26 27  1  0
M  END
