piperidine-amides-23951-covalent
     RDKit          3D

 24 25  0  0  0  0  0  0  0  0999 V2000
    7.1040   -3.2910   19.2240 C   0  0  0  0  0  0  0  0  0  0  0  0
    6.3790   -4.0730   20.2370 C   0  0  0  0  0  0  0  0  0  0  0  0
    5.2760   -4.5510   19.8890 O   0  0  0  0  0  0  0  0  0  0  0  0
    6.9230   -4.3430   21.5200 N   0  0  0  0  0  0  0  0  0  0  0  0
    6.3450   -5.3920   22.2760 C   0  0  0  0  0  0  0  0  0  0  0  0
    5.8730   -4.9840   23.5970 C   0  0  0  0  0  0  0  0  0  0  0  0
    6.6610   -3.9160   24.2530 C   0  0  0  0  0  0  0  0  0  0  0  0
    6.0290   -3.4420   25.5300 C   0  0  0  0  0  0  0  0  0  0  0  0
    4.7820   -3.3220   25.5990 O   0  0  0  0  0  0  0  0  0  0  0  0
    6.8390   -3.1500   26.6550 N   0  0  0  0  0  0  0  0  0  0  0  0
    7.7100   -4.1160   27.2280 C   0  0  0  0  0  0  0  0  0  0  0  0
    7.2050   -5.4310   27.6220 C   0  0  0  0  0  0  0  0  0  0  0  0
    6.6030   -1.9710   27.4980 C   0  0  0  0  0  0  0  0  0  0  0  0
    6.3450   -0.7120   26.9440 C   0  0  0  0  0  0  0  0  0  0  0  0
    6.0220   -1.1400   25.4920 C   0  0  0  0  0  0  0  0  0  0  0  0
    5.6710   -0.0080   24.5290 C   0  0  0  0  0  0  0  0  0  0  0  0
    5.7140    1.3620   25.2250 C   0  0  0  0  0  0  0  0  0  0  0  0
    6.0350    1.7070   26.6340 C   0  0  0  0  0  0  0  0  0  0  0  0
    6.3650    0.5430   27.5030 C   0  0  0  0  0  0  0  0  0  0  0  0
    6.6670    0.8000   28.7940 N   0  0  0  0  0  0  0  0  0  0  0  0
    5.7340    1.4680   29.6010 O   0  0  0  0  0  0  0  0  0  0  0  0
    7.5840    0.0660   29.4360 O   0  0  0  0  0  0  0  0  0  0  0  0
    6.8830   -2.7260   23.3080 C   0  0  0  0  0  0  0  0  0  0  0  0
    7.6740   -3.2520   22.1680 C   0  0  0  0  0  0  0  0  0  0  0  0
  1  2  1  0
  2  3  2  0
  2  4  1  0
  4  5  1  0
  5  6  1  0
  6  7  1  0
  7  8  1  0
  8  9  2  0
  8 10  1  0
 10 11  1  0
 11 12  1  0
 10 13  1  0
 13 14  1  0
 14 15  2  0
 15 16  1  0
 16 17  2  0
 17 18  1  0
 14 19  1  0
 18 19  2  0
 19 20  1  0
 20 21  2  0
 20 22  1  0
  7 23  1  0
  4 24  1  0
 23 24  1  0
M  CHG  2  20   1  22  -1
M  END
