piperidine-amides-32176-covalent
     RDKit          3D

 28 30  0  0  0  0  0  0  0  0999 V2000
    7.1180   -3.3200   19.2420 C   0  0  0  0  0  0  0  0  0  0  0  0
    6.4030   -4.1430   20.2490 C   0  0  0  0  0  0  0  0  0  0  0  0
    5.3420   -4.7080   19.9420 O   0  0  0  0  0  0  0  0  0  0  0  0
    6.9930   -4.3110   21.5120 N   0  0  0  0  0  0  0  0  0  0  0  0
    6.6610   -5.4270   22.3510 C   0  0  0  0  0  0  0  0  0  0  0  0
    5.8320   -4.8460   23.4970 C   0  0  0  0  0  0  0  0  0  0  0  0
    6.6550   -3.7970   24.1820 C   0  0  0  0  0  0  0  0  0  0  0  0
    5.9830   -3.2010   25.3530 C   0  0  0  0  0  0  0  0  0  0  0  0
    5.2740   -2.2080   25.1650 O   0  0  0  0  0  0  0  0  0  0  0  0
    6.1470   -3.8090   26.5800 N   0  0  0  0  0  0  0  0  0  0  0  0
    5.6170   -3.3970   27.7970 C   0  0  0  0  0  0  0  0  0  0  0  0
    4.9300   -4.4190   28.3470 C   0  0  2  0  0  0  0  0  0  0  0  0
    4.9180   -4.5970   29.7310 C   0  0  0  0  0  0  0  0  0  0  0  0
    5.4410   -5.8170   30.0100 C   0  0  0  0  0  0  0  0  0  0  0  0
    6.2040   -6.1930   28.8450 C   0  0  0  0  0  0  0  0  0  0  0  0
    5.3260   -5.6420   27.7300 C   0  0  1  0  0  0  0  0  0  0  0  0
    4.1700   -6.6610   27.6650 C   0  0  0  0  0  0  0  0  0  0  0  0
    2.9450   -6.3030   28.1030 N   0  0  0  0  0  0  0  0  0  0  0  0
    1.9720   -6.7070   27.2550 C   0  0  0  0  0  0  0  0  0  0  0  0
    1.4770   -5.9260   26.2330 O   0  0  0  0  0  0  0  0  0  0  0  0
    1.4590   -7.9740   27.4380 O   0  0  0  0  0  0  0  0  0  0  0  0
    1.1680   -8.8910   26.4190 C   0  0  0  0  0  0  0  0  0  0  0  0
    0.1030   -8.2670   25.5340 C   0  0  0  0  0  0  0  0  0  0  0  0
    0.8540  -10.2960   26.8540 C   0  0  0  0  0  0  0  0  0  0  0  0
    2.3760   -9.0740   25.4680 C   0  0  0  0  0  0  0  0  0  0  0  0
    5.7870   -5.2430   26.5000 C   0  0  0  0  0  0  0  0  0  0  0  0
    7.0370   -2.6660   23.2700 C   0  0  0  0  0  0  0  0  0  0  0  0
    7.7370   -3.1940   22.0880 C   0  0  0  0  0  0  0  0  0  0  0  0
  1  2  1  0
  2  3  2  0
  2  4  1  0
  4  5  1  0
  5  6  1  0
  6  7  1  0
  7  8  1  0
  8  9  2  0
  8 10  1  0
 10 11  1  0
 12 11  1  1
 12 13  1  0
 13 14  1  0
 14 15  1  0
 12 16  1  0
 15 16  1  0
 16 17  1  6
 17 18  1  0
 18 19  1  0
 19 20  2  0
 19 21  1  0
 22 21  1  0
 22 23  1  0
 22 24  1  0
 22 25  1  0
 10 26  1  0
 16 26  1  0
  7 27  1  0
  4 28  1  0
 27 28  1  0
M  END
