piperidine-amides-14204-covalent
     RDKit          3D

 24 27  0  0  0  0  0  0  0  0999 V2000
    7.0860   -3.3300   19.3200 C   0  0  0  0  0  0  0  0  0  0  0  0
    6.3890   -4.1960   20.3080 C   0  0  0  0  0  0  0  0  0  0  0  0
    5.3510   -4.7870   19.9640 O   0  0  0  0  0  0  0  0  0  0  0  0
    6.9550   -4.3660   21.5870 N   0  0  0  0  0  0  0  0  0  0  0  0
    7.7030   -3.3160   22.2330 C   0  0  0  0  0  0  0  0  0  0  0  0
    6.7940   -2.7470   23.3180 C   0  0  0  0  0  0  0  0  0  0  0  0
    6.4120   -3.8770   24.2160 C   0  0  0  0  0  0  0  0  0  0  0  0
    5.5950   -3.4170   25.3570 C   0  0  0  0  0  0  0  0  0  0  0  0
    4.3700   -3.4780   25.2070 O   0  0  0  0  0  0  0  0  0  0  0  0
    6.1830   -2.9310   26.5270 N   0  0  0  0  0  0  0  0  0  0  0  0
    6.0630   -1.6090   27.0220 C   0  0  2  0  0  0  0  0  0  0  0  0
    6.2460   -0.5580   26.1540 C   0  0  0  0  0  0  0  0  0  0  0  0
    6.1660    0.6980   26.7610 C   0  0  1  0  0  0  0  0  0  0  0  0
    4.8800    1.0160   27.0310 C   0  0  0  0  0  0  0  0  0  0  0  0
    4.3160    0.0080   27.9460 C   0  0  2  0  0  0  0  0  0  0  0  0
    2.7900    0.0280   28.1130 C   0  0  0  0  0  0  0  0  0  0  0  0
    4.9780   -0.0090   29.1320 C   0  0  0  0  0  0  0  0  0  0  0  0
    6.3120   -0.1850   28.9470 C   0  0  2  0  0  0  0  0  0  0  0  0
    7.2250   -0.6110   30.0380 C   0  0  0  0  0  0  0  0  0  0  0  0
    6.7980    0.6280   27.9920 C   0  0  0  0  0  0  0  0  0  0  0  0
    6.6250   -1.5410   28.3120 C   0  0  0  0  0  0  0  0  0  0  0  0
    4.6320   -1.2890   27.3340 C   0  0  0  0  0  0  0  0  0  0  0  0
    5.7290   -5.0290   23.5390 C   0  0  0  0  0  0  0  0  0  0  0  0
    6.6140   -5.5090   22.3940 C   0  0  0  0  0  0  0  0  0  0  0  0
  1  2  1  0
  2  3  2  0
  2  4  1  0
  4  5  1  0
  5  6  1  0
  6  7  1  0
  7  8  1  0
  8  9  2  0
  8 10  1  0
 11 10  1  6
 11 12  1  0
 13 12  1  1
 13 14  1  0
 14 15  1  0
 15 16  1  1
 15 17  1  0
 17 18  1  0
 18 19  1  1
 13 20  1  0
 18 20  1  0
 11 21  1  0
 18 21  1  0
 11 22  1  0
 15 22  1  0
  7 23  1  0
  4 24  1  0
 23 24  1  0
M  END
