piperidine-amides-19782-covalent
     RDKit          3D

 22 24  0  0  0  0  0  0  0  0999 V2000
    7.0760   -3.3600   19.3460 C   0  0  0  0  0  0  0  0  0  0  0  0
    6.3660   -4.1880   20.3490 C   0  0  0  0  0  0  0  0  0  0  0  0
    5.3450   -4.7560   19.9620 O   0  0  0  0  0  0  0  0  0  0  0  0
    6.8890   -4.3490   21.6380 N   0  0  0  0  0  0  0  0  0  0  0  0
    6.7710   -5.6080   22.3470 C   0  0  0  0  0  0  0  0  0  0  0  0
    6.1850   -5.3790   23.7130 C   0  0  0  0  0  0  0  0  0  0  0  0
    6.0880   -3.8790   23.9300 C   0  0  0  0  0  0  0  0  0  0  0  0
    5.4470   -3.6280   25.2320 C   0  0  0  0  0  0  0  0  0  0  0  0
    4.2700   -3.2540   25.2260 O   0  0  0  0  0  0  0  0  0  0  0  0
    6.0750   -3.7740   26.4760 N   0  0  0  0  0  0  0  0  0  0  0  0
    5.3490   -4.6440   27.3930 C   0  0  1  0  0  0  0  0  0  0  0  0
    5.4460   -6.0400   26.8180 C   0  0  0  0  0  0  0  0  0  0  0  0
    5.9000   -4.7350   28.7650 C   0  0  0  0  0  0  0  0  0  0  0  0
    5.6850   -3.4240   28.8260 C   0  0  0  0  0  0  0  0  0  0  0  0
    6.7940   -2.6930   28.6660 C   0  0  2  0  0  0  0  0  0  0  0  0
    7.2300   -1.4070   29.3770 C   0  0  0  0  0  0  0  0  0  0  0  0
    5.8760   -0.7800   29.4490 C   0  0  0  0  0  0  0  0  0  0  0  0
    5.7420   -0.3150   28.0360 C   0  0  0  0  0  0  0  0  0  0  0  0
    5.3440   -1.5820   27.3740 C   0  0  0  0  0  0  0  0  0  0  0  0
    6.4680   -2.5620   27.1930 C   0  0  2  0  0  0  0  0  0  0  0  0
    7.3120   -3.1260   23.6310 C   0  0  0  0  0  0  0  0  0  0  0  0
    7.7420   -3.3110   22.2250 C   0  0  0  0  0  0  0  0  0  0  0  0
  1  2  1  0
  2  3  2  0
  2  4  1  0
  4  5  1  0
  5  6  1  0
  6  7  1  0
  7  8  1  0
  8  9  2  0
  8 10  1  0
 10 11  1  0
 11 12  1  6
 11 13  1  0
 13 14  1  0
 15 14  1  1
 15 16  1  0
 16 17  1  0
 17 18  1  0
 18 19  1  0
 10 20  1  0
 15 20  1  0
 20 19  1  1
  7 21  1  0
  4 22  1  0
 21 22  1  0
M  END
