piperidine-amides-15052-covalent
     RDKit          3D

 20 21  0  0  0  0  0  0  0  0999 V2000
    7.0320   -3.3270   19.3600 C   0  0  0  0  0  0  0  0  0  0  0  0
    6.3720   -4.1700   20.3590 C   0  0  0  0  0  0  0  0  0  0  0  0
    5.3870   -4.8360   19.9810 O   0  0  0  0  0  0  0  0  0  0  0  0
    6.8610   -4.2510   21.6950 N   0  0  0  0  0  0  0  0  0  0  0  0
    7.6440   -3.1550   22.2340 C   0  0  0  0  0  0  0  0  0  0  0  0
    7.3860   -2.9530   23.7060 C   0  0  0  0  0  0  0  0  0  0  0  0
    6.0420   -3.5770   23.9890 C   0  0  0  0  0  0  0  0  0  0  0  0
    5.5330   -3.2880   25.3830 C   0  0  0  0  0  0  0  0  0  0  0  0
    4.5550   -2.5490   25.4260 O   0  0  0  0  0  0  0  0  0  0  0  0
    6.1410   -3.8330   26.5200 N   0  0  0  0  0  0  0  0  0  0  0  0
    5.9070   -5.1860   26.9550 C   0  0  2  0  0  0  0  0  0  0  0  0
    4.5940   -5.5740   27.0280 C   0  0  0  0  0  0  0  0  0  0  0  0
    6.3730   -5.3530   28.3500 C   0  0  0  0  0  0  0  0  0  0  0  0
    5.5410   -5.9430   29.2850 C   0  0  0  0  0  0  0  0  0  0  0  0
    5.8560   -7.2690   29.7240 C   0  0  0  0  0  0  0  0  0  0  0  0
    4.9230   -7.6340   30.6060 N   0  0  0  0  0  0  0  0  0  0  0  0
    4.0430   -6.5640   30.7270 C   0  0  0  0  0  0  0  0  0  0  0  0
    4.4200   -5.5210   29.9180 N   0  0  0  0  0  0  0  0  0  0  0  0
    6.0210   -5.0440   23.7710 C   0  0  0  0  0  0  0  0  0  0  0  0
    6.5440   -5.4390   22.4220 C   0  0  0  0  0  0  0  0  0  0  0  0
  1  2  1  0
  2  3  2  0
  2  4  1  0
  4  5  1  0
  5  6  1  0
  6  7  1  0
  7  8  1  0
  8  9  2  0
  8 10  1  0
 10 11  1  0
 11 12  1  1
 11 13  1  0
 13 14  1  0
 14 15  2  0
 15 16  1  0
 16 17  1  0
 14 18  1  0
 17 18  2  0
  7 19  1  0
  4 20  1  0
 19 20  1  0
M  END
