piperidine-amides-27182-covalent
     RDKit          3D

 24 26  0  0  0  0  0  0  0  0999 V2000
    7.0950   -3.3090   19.2530 C   0  0  0  0  0  0  0  0  0  0  0  0
    6.3690   -4.0870   20.2560 C   0  0  0  0  0  0  0  0  0  0  0  0
    5.2790   -4.6000   19.8970 O   0  0  0  0  0  0  0  0  0  0  0  0
    6.9160   -4.2850   21.5170 N   0  0  0  0  0  0  0  0  0  0  0  0
    6.6680   -5.5090   22.2390 C   0  0  0  0  0  0  0  0  0  0  0  0
    6.0270   -5.1450   23.5440 C   0  0  0  0  0  0  0  0  0  0  0  0
    6.7730   -4.0260   24.2120 C   0  0  0  0  0  0  0  0  0  0  0  0
    5.9950   -3.5370   25.3520 C   0  0  0  0  0  0  0  0  0  0  0  0
    4.9990   -2.8100   25.1410 O   0  0  0  0  0  0  0  0  0  0  0  0
    6.3420   -3.8850   26.6520 N   0  0  0  0  0  0  0  0  0  0  0  0
    6.9570   -5.1750   26.8700 C   0  0  0  0  0  0  0  0  0  0  0  0
    6.8820   -5.2260   28.3480 C   0  0  0  0  0  0  0  0  0  0  0  0
    6.0690   -4.2330   28.7870 C   0  0  0  0  0  0  0  0  0  0  0  0
    5.6170   -3.3530   27.8090 C   0  0  2  0  0  0  0  0  0  0  0  0
    4.2500   -3.2860   27.5370 C   0  0  0  0  0  0  0  0  0  0  0  0
    3.5670   -4.4130   27.0730 C   0  0  0  0  0  0  0  0  0  0  0  0
    2.2020   -4.4190   26.7770 C   0  0  0  0  0  0  0  0  0  0  0  0
    1.5960   -5.5280   26.3350 F   0  0  0  0  0  0  0  0  0  0  0  0
    1.3200   -3.1980   26.9290 C   0  0  0  0  0  0  0  0  0  0  0  0
    2.1170   -2.0130   27.4350 C   0  0  0  0  0  0  0  0  0  0  0  0
    3.5860   -2.0890   27.7320 C   0  0  0  0  0  0  0  0  0  0  0  0
    4.4310   -0.7200   28.3030 Cl  0  0  0  0  0  0  0  0  0  0  0  0
    6.9770   -2.8740   23.2820 C   0  0  0  0  0  0  0  0  0  0  0  0
    7.7050   -3.2430   22.1880 C   0  0  0  0  0  0  0  0  0  0  0  0
  1  2  1  0
  2  3  2  0
  2  4  1  0
  4  5  1  0
  5  6  1  0
  6  7  1  0
  7  8  1  0
  8  9  2  0
  8 10  1  0
 10 11  1  0
 11 12  1  0
 12 13  1  0
 10 14  1  0
 13 14  1  0
 14 15  1  6
 15 16  2  0
 16 17  1  0
 17 18  1  0
 17 19  2  0
 19 20  1  0
 15 21  1  0
 20 21  2  0
 21 22  1  0
  7 23  1  0
  4 24  1  0
 23 24  1  0
M  END
