piperidine-amides-33189-covalent
     RDKit          3D

 28 30  0  0  0  0  0  0  0  0999 V2000
    7.1030   -3.3320   19.2790 C   0  0  0  0  0  0  0  0  0  0  0  0
    6.4250   -4.1610   20.2870 C   0  0  0  0  0  0  0  0  0  0  0  0
    5.3590   -4.7300   19.9490 O   0  0  0  0  0  0  0  0  0  0  0  0
    6.9970   -4.3490   21.5670 N   0  0  0  0  0  0  0  0  0  0  0  0
    6.5590   -5.4530   22.3450 C   0  0  0  0  0  0  0  0  0  0  0  0
    6.0170   -5.0950   23.6580 C   0  0  0  0  0  0  0  0  0  0  0  0
    6.5900   -3.8870   24.2990 C   0  0  0  0  0  0  0  0  0  0  0  0
    5.7610   -3.4610   25.4830 C   0  0  0  0  0  0  0  0  0  0  0  0
    4.6720   -2.9120   25.2460 O   0  0  0  0  0  0  0  0  0  0  0  0
    6.1350   -3.6300   26.8470 N   0  0  0  0  0  0  0  0  0  0  0  0
    5.8000   -2.7440   27.8800 C   0  0  0  0  0  0  0  0  0  0  0  0
    4.7690   -3.1880   28.7980 C   0  0  0  0  0  0  0  0  0  0  0  0
    4.3290   -4.4520   28.8170 N   0  0  0  0  0  0  0  0  0  0  0  0
    2.9460   -4.8430   29.0140 C   0  0  0  0  0  0  0  0  0  0  0  0
    2.6960   -6.0910   28.4690 C   0  0  0  0  0  0  0  0  0  0  0  0
    3.3030   -7.2070   29.0000 O   0  0  0  0  0  0  0  0  0  0  0  0
    1.8250   -5.9520   27.4470 N   0  0  0  0  0  0  0  0  0  0  0  0
    1.5210   -7.1180   26.6170 C   0  0  0  0  0  0  0  0  0  0  0  0
    1.5480   -8.3500   27.4790 C   0  0  0  0  0  0  0  0  0  0  0  0
    1.2290   -9.5780   26.6000 C   0  0  0  0  0  0  0  0  0  0  0  0
    0.9190   -9.7230   25.1270 C   0  0  0  0  0  0  0  0  0  0  0  0
    0.9260   -8.4120   24.3810 C   0  0  0  0  0  0  0  0  0  0  0  0
    1.2240   -7.1210   25.1310 C   0  0  0  0  0  0  0  0  0  0  0  0
    1.2230   -5.5990   24.2330 Cl  0  0  0  0  0  0  0  0  0  0  0  0
    5.1550   -5.3280   28.2500 C   0  0  0  0  0  0  0  0  0  0  0  0
    6.2490   -4.8930   27.5610 C   0  0  0  0  0  0  0  0  0  0  0  0
    6.8750   -2.7650   23.3740 C   0  0  0  0  0  0  0  0  0  0  0  0
    7.6620   -3.2360   22.1870 C   0  0  0  0  0  0  0  0  0  0  0  0
  1  2  1  0
  2  3  2  0
  2  4  1  0
  4  5  1  0
  5  6  1  0
  6  7  1  0
  7  8  1  0
  8  9  2  0
  8 10  1  0
 10 11  1  0
 11 12  1  0
 12 13  1  0
 13 14  1  0
 14 15  1  0
 15 16  2  0
 15 17  1  0
 17 18  1  0
 18 19  2  0
 19 20  1  0
 20 21  2  0
 21 22  1  0
 18 23  1  0
 22 23  2  0
 23 24  1  0
 13 25  1  0
 10 26  1  0
 25 26  1  0
  7 27  1  0
  4 28  1  0
 27 28  1  0
M  END
