piperidine-amides-23716-covalent
     RDKit          3D

 24 27  0  0  0  0  0  0  0  0999 V2000
    7.1270   -3.3460   19.2950 C   0  0  0  0  0  0  0  0  0  0  0  0
    6.4620   -4.2000   20.2850 C   0  0  0  0  0  0  0  0  0  0  0  0
    5.3640   -4.7030   19.9490 O   0  0  0  0  0  0  0  0  0  0  0  0
    7.0740   -4.5020   21.5320 N   0  0  0  0  0  0  0  0  0  0  0  0
    6.5360   -5.5630   22.2910 C   0  0  0  0  0  0  0  0  0  0  0  0
    5.9560   -5.1370   23.5610 C   0  0  0  0  0  0  0  0  0  0  0  0
    6.5290   -3.9120   24.1670 C   0  0  0  0  0  0  0  0  0  0  0  0
    5.6530   -3.4130   25.2720 C   0  0  0  0  0  0  0  0  0  0  0  0
    4.6260   -2.7790   24.9800 O   0  0  0  0  0  0  0  0  0  0  0  0
    5.9430   -3.6380   26.6240 N   0  0  0  0  0  0  0  0  0  0  0  0
    6.4670   -2.7500   27.5430 C   0  0  0  0  0  0  0  0  0  0  0  0
    6.7080   -3.4180   28.8100 C   0  0  0  0  0  0  0  0  0  0  0  0
    5.6190   -4.4920   28.7720 C   0  0  1  0  0  0  0  0  0  0  0  0
    4.5270   -4.1210   29.5380 C   0  0  0  0  0  0  0  0  0  0  0  0
    4.3270   -2.7990   29.9240 N   0  0  0  0  0  0  0  0  0  0  0  0
    3.1420   -2.8400   30.6680 C   0  0  0  0  0  0  0  0  0  0  0  0
    2.5590   -1.6030   31.2790 C   0  0  0  0  0  0  0  0  0  0  0  0
    3.3530   -1.8580   32.4040 C   0  0  0  0  0  0  0  0  0  0  0  0
    2.0640   -1.3930   32.8020 C   0  0  0  0  0  0  0  0  0  0  0  0
    2.7350   -4.2160   30.6540 N   0  0  0  0  0  0  0  0  0  0  0  0
    3.5660   -5.0230   29.9700 O   0  0  0  0  0  0  0  0  0  0  0  0
    5.2950   -4.6160   27.4140 C   0  0  0  0  0  0  0  0  0  0  0  0
    6.7400   -2.7970   23.1430 C   0  0  0  0  0  0  0  0  0  0  0  0
    7.7310   -3.3720   22.2040 C   0  0  0  0  0  0  0  0  0  0  0  0
  1  2  1  0
  2  3  2  0
  2  4  1  0
  4  5  1  0
  5  6  1  0
  6  7  1  0
  7  8  1  0
  8  9  2  0
  8 10  1  0
 10 11  1  0
 11 12  1  0
 12 13  1  0
 13 14  1  1
 14 15  2  0
 15 16  1  0
 16 17  1  0
 17 18  1  0
 17 19  1  0
 18 19  1  0
 16 20  2  0
 14 21  1  0
 20 21  1  0
 10 22  1  0
 13 22  1  0
  7 23  1  0
  4 24  1  0
 23 24  1  0
M  END
