piperidine-amides-24886-covalent
     RDKit          3D

 23 24  0  0  0  0  0  0  0  0999 V2000
    7.0900   -3.2770   19.2850 C   0  0  0  0  0  0  0  0  0  0  0  0
    6.3810   -4.0960   20.2720 C   0  0  0  0  0  0  0  0  0  0  0  0
    5.3410   -4.7090   19.9470 O   0  0  0  0  0  0  0  0  0  0  0  0
    6.8890   -4.2490   21.5710 N   0  0  0  0  0  0  0  0  0  0  0  0
    6.5800   -5.4370   22.3190 C   0  0  0  0  0  0  0  0  0  0  0  0
    5.7520   -4.9600   23.5130 C   0  0  0  0  0  0  0  0  0  0  0  0
    6.5460   -3.8540   24.1910 C   0  0  0  0  0  0  0  0  0  0  0  0
    5.8000   -3.3530   25.3730 C   0  0  0  0  0  0  0  0  0  0  0  0
    4.5550   -3.2430   25.2810 O   0  0  0  0  0  0  0  0  0  0  0  0
    6.4770   -2.9900   26.5640 N   0  0  0  0  0  0  0  0  0  0  0  0
    6.7840   -1.5990   26.7340 C   0  0  0  0  0  0  0  0  0  0  0  0
    6.2740   -3.7730   27.7790 C   0  0  0  0  0  0  0  0  0  0  0  0
    5.0080   -4.2500   27.7530 C   0  0  0  0  0  0  0  0  0  0  0  0
    4.7080   -5.4280   27.1320 C   0  0  1  0  0  0  0  0  0  0  0  0
    5.7210   -6.0320   26.4210 O   0  0  0  0  0  0  0  0  0  0  0  0
    4.0150   -6.3480   27.9090 C   0  0  0  0  0  0  0  0  0  0  0  0
    4.4520   -6.8210   29.0570 C   0  0  0  0  0  0  0  0  0  0  0  0
    3.7030   -7.8130   29.9290 C   0  0  0  0  0  0  0  0  0  0  0  0
    2.4660   -7.9230   28.9490 C   0  0  0  0  0  0  0  0  0  0  0  0
    1.3820   -8.8480   29.4000 C   0  0  0  0  0  0  0  0  0  0  0  0
    2.5130   -6.9770   27.4890 S   0  0  0  0  0  0  0  0  0  0  0  0
    6.8050   -2.7050   23.2380 C   0  0  0  0  0  0  0  0  0  0  0  0
    7.6340   -3.2030   22.2240 C   0  0  0  0  0  0  0  0  0  0  0  0
  1  2  1  0
  2  3  2  0
  2  4  1  0
  4  5  1  0
  5  6  1  0
  6  7  1  0
  7  8  1  0
  8  9  2  0
  8 10  1  0
 10 11  1  0
 10 12  1  0
 12 13  1  0
 13 14  1  0
 14 15  1  1
 14 16  1  0
 16 17  2  0
 17 18  1  0
 18 19  2  0
 19 20  1  0
 16 21  1  0
 19 21  1  0
  7 22  1  0
  4 23  1  0
 22 23  1  0
M  END
