piperidine-amides-14634-covalent
     RDKit          3D

 22 23  0  0  0  0  0  0  0  0999 V2000
    7.0940   -3.2960   19.2640 C   0  0  0  0  0  0  0  0  0  0  0  0
    6.3190   -4.0410   20.2490 C   0  0  0  0  0  0  0  0  0  0  0  0
    5.2520   -4.5600   19.8840 O   0  0  0  0  0  0  0  0  0  0  0  0
    6.8080   -4.2080   21.5660 N   0  0  0  0  0  0  0  0  0  0  0  0
    7.5680   -3.1580   22.1900 C   0  0  0  0  0  0  0  0  0  0  0  0
    6.7620   -2.5680   23.3110 C   0  0  0  0  0  0  0  0  0  0  0  0
    6.3080   -3.7340   24.1560 C   0  0  0  0  0  0  0  0  0  0  0  0
    5.3080   -3.2750   25.1900 C   0  0  0  0  0  0  0  0  0  0  0  0
    4.1360   -3.2480   24.8310 O   0  0  0  0  0  0  0  0  0  0  0  0
    5.7470   -2.9160   26.4710 N   0  0  0  0  0  0  0  0  0  0  0  0
    6.0260   -3.8640   27.5050 C   0  0  1  0  0  0  0  0  0  0  0  0
    5.4290   -5.1330   27.4260 C   0  0  0  0  0  0  0  0  0  0  0  0
    7.4150   -4.1420   27.2750 C   0  0  0  0  0  0  0  0  0  0  0  0
    8.0620   -2.9840   26.9670 O   0  0  0  0  0  0  0  0  0  0  0  0
    8.3540   -2.2950   25.8690 C   0  0  0  0  0  0  0  0  0  0  0  0
    7.4110   -5.1460   26.1130 C   0  0  0  0  0  0  0  0  0  0  0  0
    8.7470   -5.3620   25.4620 C   0  0  0  0  0  0  0  0  0  0  0  0
    9.7170   -5.5240   26.2900 O   0  0  0  0  0  0  0  0  0  0  0  0
    9.1610   -5.8150   27.5340 C   0  0  0  0  0  0  0  0  0  0  0  0
    8.1520   -4.8870   28.1500 C   0  0  0  0  0  0  0  0  0  0  0  0
    5.6820   -4.8570   23.4240 C   0  0  0  0  0  0  0  0  0  0  0  0
    6.4440   -5.3400   22.3830 C   0  0  0  0  0  0  0  0  0  0  0  0
  1  2  1  0
  2  3  2  0
  2  4  1  0
  4  5  1  0
  5  6  1  0
  6  7  1  0
  7  8  1  0
  8  9  2  0
  8 10  1  0
 10 11  1  0
 11 12  1  6
 11 13  1  0
 13 14  1  0
 14 15  1  0
 13 16  1  0
 16 17  1  0
 17 18  1  0
 18 19  1  0
 13 20  1  0
 19 20  1  0
  7 21  1  0
  4 22  1  0
 21 22  1  0
M  END
