piperidine-amides-23841-covalent
     RDKit          3D

 24 26  0  0  0  0  0  0  0  0999 V2000
    7.0840   -3.3510   19.3430 C   0  0  0  0  0  0  0  0  0  0  0  0
    6.4290   -4.2090   20.3420 C   0  0  0  0  0  0  0  0  0  0  0  0
    5.3840   -4.8050   19.9760 O   0  0  0  0  0  0  0  0  0  0  0  0
    6.9930   -4.3990   21.6330 N   0  0  0  0  0  0  0  0  0  0  0  0
    6.5280   -5.4690   22.4340 C   0  0  0  0  0  0  0  0  0  0  0  0
    6.2310   -5.1040   23.8270 C   0  0  0  0  0  0  0  0  0  0  0  0
    6.6190   -3.7400   24.2840 C   0  0  0  0  0  0  0  0  0  0  0  0
    5.6460   -3.2160   25.3090 C   0  0  0  0  0  0  0  0  0  0  0  0
    4.8300   -2.3540   24.9520 O   0  0  0  0  0  0  0  0  0  0  0  0
    5.5710   -3.6560   26.6540 N   0  0  0  0  0  0  0  0  0  0  0  0
    6.4020   -3.3030   27.7010 C   0  0  0  0  0  0  0  0  0  0  0  0
    6.9290   -4.3900   28.5030 C   0  0  0  0  0  0  0  0  0  0  0  0
    5.8850   -4.7370   29.4910 C   0  0  0  0  0  0  0  0  0  0  0  0
    4.9990   -5.5090   28.8790 C   0  0  1  0  0  0  0  0  0  0  0  0
    4.7710   -6.0760   30.2800 C   0  0  0  0  0  0  0  0  0  0  0  0
    5.6800   -7.2190   30.2950 C   0  0  0  0  0  0  0  0  0  0  0  0
    5.2280   -7.4850   31.6810 C   0  0  0  0  0  0  0  0  0  0  0  0
    4.2530   -6.5940   32.2180 N   0  0  0  0  0  0  0  0  0  0  0  0
    3.8870   -5.6010   31.3240 N   0  0  0  0  0  0  0  0  0  0  0  0
    3.0010   -4.6240   31.5430 C   0  0  0  0  0  0  0  0  0  0  0  0
    3.9580   -4.8590   28.3150 C   0  0  0  0  0  0  0  0  0  0  0  0
    4.2380   -4.0410   27.0310 C   0  0  0  0  0  0  0  0  0  0  0  0
    6.7850   -2.7910   23.1430 C   0  0  0  0  0  0  0  0  0  0  0  0
    7.7340   -3.3530   22.2990 C   0  0  0  0  0  0  0  0  0  0  0  0
  1  2  1  0
  2  3  2  0
  2  4  1  0
  4  5  1  0
  5  6  1  0
  6  7  1  0
  7  8  1  0
  8  9  2  0
  8 10  1  0
 10 11  1  0
 11 12  1  0
 12 13  1  0
 13 14  1  0
 14 15  1  1
 15 16  2  0
 16 17  1  0
 17 18  2  0
 15 19  1  0
 18 19  1  0
 19 20  1  0
 14 21  1  0
 10 22  1  0
 21 22  1  0
  7 23  1  0
  4 24  1  0
 23 24  1  0
M  END
