piperidine-amides-1131-covalent
     RDKit          3D

 23 24  0  0  0  0  0  0  0  0999 V2000
    7.1230   -3.2960   19.2390 C   0  0  0  0  0  0  0  0  0  0  0  0
    6.3930   -4.1080   20.2450 C   0  0  0  0  0  0  0  0  0  0  0  0
    5.3220   -4.6460   19.9240 O   0  0  0  0  0  0  0  0  0  0  0  0
    6.9670   -4.2950   21.5200 N   0  0  0  0  0  0  0  0  0  0  0  0
    7.6730   -3.2330   22.1810 C   0  0  0  0  0  0  0  0  0  0  0  0
    6.6880   -2.6750   23.2070 C   0  0  0  0  0  0  0  0  0  0  0  0
    6.3710   -3.7570   24.1960 C   0  0  0  0  0  0  0  0  0  0  0  0
    5.6470   -3.1910   25.3580 C   0  0  0  0  0  0  0  0  0  0  0  0
    4.5900   -2.6110   25.0950 O   0  0  0  0  0  0  0  0  0  0  0  0
    6.1370   -3.3180   26.6610 N   0  0  0  0  0  0  0  0  0  0  0  0
    6.0850   -4.4810   27.4710 C   0  0  0  0  0  0  0  0  0  0  0  0
    5.0890   -4.8410   28.3380 C   0  0  0  0  0  0  0  0  0  0  0  0
    5.4830   -4.1370   29.5500 O   0  0  0  0  0  0  0  0  0  0  0  0
    5.9370   -2.8480   29.3080 C   0  0  0  0  0  0  0  0  0  0  0  0
    3.6750   -4.3980   28.0590 C   0  0  0  0  0  0  0  0  0  0  0  0
    2.8070   -4.7640   29.2220 C   0  0  0  0  0  0  0  0  0  0  0  0
    2.4240   -6.2450   29.4050 C   0  0  0  0  0  0  0  0  0  0  0  0
    3.5180   -6.9510   30.2250 C   0  0  0  0  0  0  0  0  0  0  0  0
    4.6960   -6.2930   30.5500 C   0  0  0  0  0  0  0  0  0  0  0  0
    5.8900   -6.4130   29.6690 C   0  0  0  0  0  0  0  0  0  0  0  0
    5.0220   -6.3320   28.4300 C   0  0  0  0  0  0  0  0  0  0  0  0
    5.6520   -4.8480   23.4960 C   0  0  0  0  0  0  0  0  0  0  0  0
    6.5230   -5.3730   22.3410 C   0  0  0  0  0  0  0  0  0  0  0  0
  1  2  1  0
  2  3  2  0
  2  4  1  0
  4  5  1  0
  5  6  1  0
  6  7  1  0
  7  8  1  0
  8  9  2  0
  8 10  1  0
 10 11  1  0
 11 12  1  0
 12 13  1  0
 13 14  1  0
 12 15  1  0
 15 16  1  0
 16 17  1  0
 17 18  1  0
 18 19  1  0
 19 20  1  0
 12 21  1  0
 20 21  1  0
  7 22  1  0
  4 23  1  0
 22 23  1  0
M  END
