piperidine-amides-1617-covalent
     RDKit          3D

 21 21  0  0  0  0  0  0  0  0999 V2000
    7.1180   -3.2750   19.2450 C   0  0  0  0  0  0  0  0  0  0  0  0
    6.3600   -4.0760   20.2460 C   0  0  0  0  0  0  0  0  0  0  0  0
    5.2930   -4.6080   19.9050 O   0  0  0  0  0  0  0  0  0  0  0  0
    6.8990   -4.2550   21.5370 N   0  0  0  0  0  0  0  0  0  0  0  0
    6.5030   -5.3540   22.3690 C   0  0  0  0  0  0  0  0  0  0  0  0
    5.5530   -4.7560   23.4100 C   0  0  0  0  0  0  0  0  0  0  0  0
    6.3380   -3.8260   24.2880 C   0  0  0  0  0  0  0  0  0  0  0  0
    5.5140   -3.2180   25.3640 C   0  0  0  0  0  0  0  0  0  0  0  0
    4.6410   -2.4430   24.9670 O   0  0  0  0  0  0  0  0  0  0  0  0
    5.7080   -3.4880   26.7370 N   0  0  0  0  0  0  0  0  0  0  0  0
    6.0500   -4.7190   27.3560 C   0  0  0  0  0  0  0  0  0  0  0  0
    5.2950   -5.5070   28.1750 C   0  0  0  0  0  0  0  0  0  0  0  0
    3.5170   -5.4900   27.8010 S   0  0  0  0  0  0  0  0  0  0  0  0
    2.6680   -5.1540   29.0140 O   0  0  0  0  0  0  0  0  0  0  0  0
    3.2970   -4.4180   26.7870 O   0  0  0  0  0  0  0  0  0  0  0  0
    3.0170   -7.0340   27.2470 N   0  0  0  0  0  0  0  0  0  0  0  0
    2.4440   -7.0770   25.9810 C   0  0  0  0  0  0  0  0  0  0  0  0
    1.1360   -7.4980   26.0530 C   0  0  0  0  0  0  0  0  0  0  0  0
    3.1260   -7.9480   24.9920 C   0  0  0  0  0  0  0  0  0  0  0  0
    7.0140   -2.7480   23.4680 C   0  0  0  0  0  0  0  0  0  0  0  0
    7.6690   -3.2490   22.1870 C   0  0  0  0  0  0  0  0  0  0  0  0
  1  2  1  0
  2  3  2  0
  2  4  1  0
  4  5  1  0
  5  6  1  0
  6  7  1  0
  7  8  1  0
  8  9  2  0
  8 10  1  0
 10 11  1  0
 11 12  1  0
 12 13  1  0
 13 14  2  0
 13 15  2  0
 13 16  1  0
 16 17  1  0
 17 18  1  0
 17 19  1  0
  7 20  1  0
  4 21  1  0
 20 21  1  0
M  END
