piperidine-amides-6823-covalent
     RDKit          3D

 23 24  0  0  0  0  0  0  0  0999 V2000
    7.0780   -3.3350   19.2700 C   0  0  0  0  0  0  0  0  0  0  0  0
    6.3900   -4.1740   20.2590 C   0  0  0  0  0  0  0  0  0  0  0  0
    5.3410   -4.7780   19.9590 O   0  0  0  0  0  0  0  0  0  0  0  0
    6.9340   -4.3640   21.5330 N   0  0  0  0  0  0  0  0  0  0  0  0
    7.7290   -3.3260   22.1520 C   0  0  0  0  0  0  0  0  0  0  0  0
    6.8450   -2.7070   23.2170 C   0  0  0  0  0  0  0  0  0  0  0  0
    6.6540   -3.8020   24.2290 C   0  0  0  0  0  0  0  0  0  0  0  0
    5.9360   -3.2620   25.3860 C   0  0  0  0  0  0  0  0  0  0  0  0
    4.7190   -3.5140   25.5090 O   0  0  0  0  0  0  0  0  0  0  0  0
    6.6410   -2.4610   26.3080 N   0  0  0  0  0  0  0  0  0  0  0  0
    5.9020   -1.6470   27.2190 C   0  0  1  0  0  0  0  0  0  0  0  0
    6.5130   -1.7170   28.5810 C   0  0  0  0  0  0  0  0  0  0  0  0
    6.7980   -0.4720   29.0750 C   0  0  0  0  0  0  0  0  0  0  0  0
    6.4980    0.5460   28.1140 N   0  0  0  0  0  0  0  0  0  0  0  0
    5.6630    1.6100   28.5080 C   0  0  0  0  0  0  0  0  0  0  0  0
    6.3640    2.6550   29.1210 C   0  0  0  0  0  0  0  0  0  0  0  0
    7.1740    2.2330   30.1560 F   0  0  0  0  0  0  0  0  0  0  0  0
    7.1490    3.2930   28.1940 F   0  0  0  0  0  0  0  0  0  0  0  0
    5.4960    3.5960   29.6500 F   0  0  0  0  0  0  0  0  0  0  0  0
    6.0570   -0.1960   26.9550 C   0  0  0  0  0  0  0  0  0  0  0  0
    5.7880    0.3410   25.7470 O   0  0  0  0  0  0  0  0  0  0  0  0
    5.8280   -4.9140   23.5770 C   0  0  0  0  0  0  0  0  0  0  0  0
    6.5500   -5.4700   22.3750 C   0  0  0  0  0  0  0  0  0  0  0  0
  1  2  1  0
  2  3  2  0
  2  4  1  0
  4  5  1  0
  5  6  1  0
  6  7  1  0
  7  8  1  0
  8  9  2  0
  8 10  1  0
 11 10  1  6
 11 12  1  0
 12 13  1  0
 13 14  1  0
 14 15  1  0
 15 16  1  0
 16 17  1  0
 16 18  1  0
 16 19  1  0
 11 20  1  0
 14 20  1  0
 20 21  2  0
  7 22  1  0
  4 23  1  0
 22 23  1  0
M  END
