piperidine-amides-9292-covalent
     RDKit          3D

 20 20  0  0  0  0  0  0  0  0999 V2000
    7.1050   -3.2840   19.2370 C   0  0  0  0  0  0  0  0  0  0  0  0
    6.3780   -4.0440   20.2530 C   0  0  0  0  0  0  0  0  0  0  0  0
    5.3420   -4.6490   19.9270 O   0  0  0  0  0  0  0  0  0  0  0  0
    6.8530   -4.1460   21.5730 N   0  0  0  0  0  0  0  0  0  0  0  0
    7.6970   -3.1200   22.1550 C   0  0  0  0  0  0  0  0  0  0  0  0
    7.1290   -2.8250   23.5220 C   0  0  0  0  0  0  0  0  0  0  0  0
    5.7730   -3.4480   23.7080 C   0  0  0  0  0  0  0  0  0  0  0  0
    5.1050   -3.1370   24.9990 C   0  0  0  0  0  0  0  0  0  0  0  0
    3.8460   -3.1730   25.0830 O   0  0  0  0  0  0  0  0  0  0  0  0
    5.7790   -2.8040   26.1830 N   0  0  0  0  0  0  0  0  0  0  0  0
    6.5450   -3.8590   26.8330 C   0  0  2  0  0  0  0  0  0  0  0  0
    6.1240   -4.0400   28.2400 C   0  0  0  0  0  0  0  0  0  0  0  0
    7.9800   -3.4140   26.8420 C   0  0  0  0  0  0  0  0  0  0  0  0
    8.5260   -4.4950   25.9770 C   0  0  0  0  0  0  0  0  0  0  0  0
    8.6680   -5.7570   27.2080 S   0  0  0  0  0  0  0  0  0  0  0  0
    7.0460   -6.1950   27.7370 C   0  0  0  0  0  0  0  0  0  0  0  0
    9.4510   -6.8610   26.6840 O   0  0  0  0  0  0  0  0  0  0  0  0
    9.2730   -5.2050   28.4500 O   0  0  0  0  0  0  0  0  0  0  0  0
    5.8620   -4.9310   23.5130 C   0  0  0  0  0  0  0  0  0  0  0  0
    6.4310   -5.2880   22.3200 C   0  0  0  0  0  0  0  0  0  0  0  0
  1  2  1  0
  2  3  2  0
  2  4  1  0
  4  5  1  0
  5  6  1  0
  6  7  1  0
  7  8  1  0
  8  9  2  0
  8 10  1  0
 10 11  1  0
 11 12  1  1
 11 13  1  0
 13 14  1  0
 15 14  1  0
 15 16  1  0
 15 17  2  0
 15 18  2  0
  7 19  1  0
  4 20  1  0
 19 20  1  0
M  END
