piperidine-amides-34142-covalent
     RDKit          3D

 31 33  0  0  0  0  0  0  0  0999 V2000
    7.0850   -3.2540   19.2750 C   0  0  0  0  0  0  0  0  0  0  0  0
    6.3520   -4.0440   20.2800 C   0  0  0  0  0  0  0  0  0  0  0  0
    5.3450   -4.7040   19.9440 O   0  0  0  0  0  0  0  0  0  0  0  0
    6.7930   -4.1030   21.6150 N   0  0  0  0  0  0  0  0  0  0  0  0
    6.6860   -5.3830   22.2910 C   0  0  0  0  0  0  0  0  0  0  0  0
    6.2890   -5.1310   23.7550 C   0  0  0  0  0  0  0  0  0  0  0  0
    6.0620   -3.6460   23.9010 C   0  0  0  0  0  0  0  0  0  0  0  0
    5.4920   -3.2790   25.2200 C   0  0  0  0  0  0  0  0  0  0  0  0
    4.2610   -3.0860   25.2510 O   0  0  0  0  0  0  0  0  0  0  0  0
    6.2470   -3.1510   26.4180 N   0  0  0  0  0  0  0  0  0  0  0  0
    5.7790   -4.0390   27.4620 C   0  0  2  0  0  0  0  0  0  0  0  0
    6.6890   -4.0550   28.6700 C   0  0  0  0  0  0  0  0  0  0  0  0
    5.7310   -5.4070   26.8900 C   0  0  0  0  0  0  0  0  0  0  0  0
    6.2230   -6.3680   27.5310 O   0  0  0  0  0  0  0  0  0  0  0  0
    5.5230   -6.7420   28.6360 C   0  0  0  0  0  0  0  0  0  0  0  0
    4.3770   -7.4520   28.5160 C   0  0  0  0  0  0  0  0  0  0  0  0
    3.6300   -7.8530   29.6060 C   0  0  0  0  0  0  0  0  0  0  0  0
    3.8060   -7.6660   31.1250 C   0  0  0  0  0  0  0  0  0  0  0  0
    5.1110   -6.8680   31.0910 C   0  0  0  0  0  0  0  0  0  0  0  0
    5.8760   -6.4600   29.8750 C   0  0  0  0  0  0  0  0  0  0  0  0
    6.6520   -1.8880   27.0190 C   0  0  2  0  0  0  0  0  0  0  0  0
    6.6560   -1.5550   28.3900 C   0  0  0  0  0  0  0  0  0  0  0  0
    5.5360   -1.0570   27.5510 C   0  0  0  0  0  0  0  0  0  0  0  0
    5.1760    0.1830   26.7710 C   0  0  0  0  0  0  0  0  0  0  0  0
    5.3600    1.5650   27.3260 C   0  0  0  0  0  0  0  0  0  0  0  0
    4.9950    2.7980   26.5360 C   0  0  0  0  0  0  0  0  0  0  0  0
    4.4800    2.6350   25.2780 C   0  0  0  0  0  0  0  0  0  0  0  0
    4.3190    1.3650   24.7880 C   0  0  0  0  0  0  0  0  0  0  0  0
    4.6440    0.1910   25.4840 C   0  0  0  0  0  0  0  0  0  0  0  0
    7.4140   -2.9770   23.6440 C   0  0  0  0  0  0  0  0  0  0  0  0
    7.7390   -3.1320   22.1790 C   0  0  0  0  0  0  0  0  0  0  0  0
  1  2  1  0
  2  3  2  0
  2  4  1  0
  4  5  1  0
  5  6  1  0
  6  7  1  0
  7  8  1  0
  8  9  2  0
  8 10  1  0
 10 11  1  0
 11 12  1  1
 11 13  1  0
 13 14  1  0
 14 15  1  0
 15 16  2  0
 16 17  1  0
 17 18  2  0
 18 19  1  0
 15 20  1  0
 19 20  2  0
 10 21  1  0
 21 22  1  1
 21 23  1  0
 23 24  1  0
 24 25  2  0
 25 26  1  0
 26 27  2  0
 27 28  1  0
 24 29  1  0
 28 29  2  0
  7 30  1  0
  4 31  1  0
 30 31  1  0
M  END
