piperidine-amides-30540-covalent
     RDKit          3D

 26 28  0  0  0  0  0  0  0  0999 V2000
    7.0930   -3.3390   19.3130 C   0  0  0  0  0  0  0  0  0  0  0  0
    6.4010   -4.1580   20.3110 C   0  0  0  0  0  0  0  0  0  0  0  0
    5.3850   -4.7900   19.9720 O   0  0  0  0  0  0  0  0  0  0  0  0
    6.8910   -4.2910   21.6240 N   0  0  0  0  0  0  0  0  0  0  0  0
    6.5080   -5.3790   22.4770 C   0  0  0  0  0  0  0  0  0  0  0  0
    5.8680   -4.7270   23.6850 C   0  0  0  0  0  0  0  0  0  0  0  0
    6.7510   -3.7020   24.3780 C   0  0  0  0  0  0  0  0  0  0  0  0
    6.0720   -3.0720   25.5430 C   0  0  0  0  0  0  0  0  0  0  0  0
    4.8670   -2.6870   25.4370 O   0  0  0  0  0  0  0  0  0  0  0  0
    6.7230   -2.8820   26.8010 N   0  0  0  0  0  0  0  0  0  0  0  0
    7.3660   -4.0820   27.4030 C   0  0  0  0  0  0  0  0  0  0  0  0
    6.4280   -4.7660   28.3370 C   0  0  0  0  0  0  0  0  0  0  0  0
    4.9990   -4.6200   27.9890 C   0  0  0  0  0  0  0  0  0  0  0  0
    4.4440   -5.9470   27.5220 C   0  0  0  0  0  0  0  0  0  0  0  0
    4.5660   -6.9220   28.6810 C   0  0  0  0  0  0  0  0  0  0  0  0
    5.9020   -6.7420   29.3000 C   0  0  0  0  0  0  0  0  0  0  0  0
    6.7830   -6.0720   28.4930 C   0  0  0  0  0  0  0  0  0  0  0  0
    6.6640   -1.6540   27.5900 C   0  0  0  0  0  0  0  0  0  0  0  0
    7.7230   -2.2450   28.2590 C   0  0  0  0  0  0  0  0  0  0  0  0
    7.0920   -0.8530   28.5890 C   0  0  0  0  0  0  0  0  0  0  0  0
    5.8590   -0.0700   27.8620 C   0  0  0  0  0  0  0  0  0  0  0  0
    4.8050    1.3310   27.7510 Cl  0  0  0  0  0  0  0  0  0  0  0  0
    6.4970    0.3630   28.8260 N   0  0  0  0  0  0  0  0  0  0  0  0
    7.0930   -0.7600   28.6530 N   0  0  0  0  0  0  0  0  0  0  0  0
    7.2010   -2.6510   23.4110 C   0  0  0  0  0  0  0  0  0  0  0  0
    7.6710   -3.2070   22.1300 C   0  0  0  0  0  0  0  0  0  0  0  0
  1  2  1  0
  2  3  2  0
  2  4  1  0
  4  5  1  0
  5  6  1  0
  6  7  1  0
  7  8  1  0
  8  9  2  0
  8 10  1  0
 10 11  1  0
 11 12  1  0
 12 13  1  0
 13 14  1  0
 14 15  1  0
 15 16  1  0
 12 17  1  0
 16 17  1  0
 10 18  1  0
 18 19  2  0
 19 20  1  0
 20 21  2  0
 21 22  1  0
 21 23  1  0
 18 24  1  0
 23 24  2  0
  7 25  1  0
  4 26  1  0
 25 26  1  0
M  END
