piperidine-amides-31848-covalent
     RDKit          3D

 28 31  0  0  0  0  0  0  0  0999 V2000
    6.9600   -3.4150   19.4170 C   0  0  0  0  0  0  0  0  0  0  0  0
    6.3340   -4.2310   20.4420 C   0  0  0  0  0  0  0  0  0  0  0  0
    5.4260   -5.0170   20.0250 O   0  0  0  0  0  0  0  0  0  0  0  0
    6.6900   -4.2250   21.8270 N   0  0  0  0  0  0  0  0  0  0  0  0
    6.6430   -5.5560   22.5050 C   0  0  0  0  0  0  0  0  0  0  0  0
    6.0200   -5.2480   23.9410 C   0  0  0  0  0  0  0  0  0  0  0  0
    6.0510   -3.7570   24.1250 C   0  0  0  0  0  0  0  0  0  0  0  0
    5.2590   -3.2170   25.4350 C   0  0  0  0  0  0  0  0  0  0  0  0
    4.4620   -2.3710   25.0740 O   0  0  0  0  0  0  0  0  0  0  0  0
    5.6410   -3.7910   26.5280 N   0  0  0  0  0  0  0  0  0  0  0  0
    6.3220   -4.6100   27.3360 C   0  0  0  0  0  0  0  0  0  0  0  0
    6.4550   -5.1110   28.5880 C   0  0  0  0  0  0  0  0  0  0  0  0
    5.5410   -4.4780   29.3850 C   0  0  0  0  0  0  0  0  0  0  0  0
    4.4340   -4.0150   28.5450 C   0  0  2  0  0  0  0  0  0  0  0  0
    3.7310   -3.4350   29.7870 C   0  0  0  0  0  0  0  0  0  0  0  0
    2.9740   -4.6200   29.8910 C   0  0  0  0  0  0  0  0  0  0  0  0
    2.2200   -4.8730   31.0490 C   0  0  0  0  0  0  0  0  0  0  0  0
    1.9990   -3.7540   31.7920 O   0  0  0  0  0  0  0  0  0  0  0  0
    1.7450   -6.0740   31.4140 N   0  0  0  0  0  0  0  0  0  0  0  0
    1.0960   -6.3380   32.6740 C   0  0  0  0  0  0  0  0  0  0  0  0
   -0.1820   -7.0830   32.4430 C   0  0  0  0  0  0  0  0  0  0  0  0
    0.3210   -8.0270   33.2610 C   0  0  0  0  0  0  0  0  0  0  0  0
    1.5880   -7.4250   33.5730 C   0  0  0  0  0  0  0  0  0  0  0  0
    3.0000   -5.4890   28.8730 N   0  0  0  0  0  0  0  0  0  0  0  0
    3.7670   -5.0400   27.9350 O   0  0  0  0  0  0  0  0  0  0  0  0
    4.9150   -3.0040   27.5430 C   0  0  0  0  0  0  0  0  0  0  0  0
    7.3320   -3.0850   23.7570 C   0  0  0  0  0  0  0  0  0  0  0  0
    7.5690   -3.2160   22.3820 C   0  0  0  0  0  0  0  0  0  0  0  0
  1  2  1  0
  2  3  2  0
  2  4  1  0
  4  5  1  0
  5  6  1  0
  6  7  1  0
  7  8  1  0
  8  9  2  0
  8 10  1  0
 10 11  1  0
 11 12  1  0
 12 13  1  0
 14 13  1  1
 14 15  1  0
 15 16  1  0
 16 17  1  0
 17 18  2  0
 17 19  1  0
 19 20  1  0
 20 21  1  0
 21 22  1  0
 20 23  1  0
 22 23  1  0
 16 24  2  0
 14 25  1  0
 24 25  1  0
 10 26  1  0
 14 26  1  0
  7 27  1  0
  4 28  1  0
 27 28  1  0
M  END
