piperidine-amides-25901-covalent
     RDKit          3D

 25 27  0  0  0  0  0  0  0  0999 V2000
    7.0300   -3.3530   19.3230 C   0  0  0  0  0  0  0  0  0  0  0  0
    6.3610   -4.2230   20.3270 C   0  0  0  0  0  0  0  0  0  0  0  0
    5.3520   -4.8230   19.9650 O   0  0  0  0  0  0  0  0  0  0  0  0
    6.8980   -4.3720   21.6030 N   0  0  0  0  0  0  0  0  0  0  0  0
    6.6750   -5.5590   22.4040 C   0  0  0  0  0  0  0  0  0  0  0  0
    5.8020   -5.2350   23.5920 C   0  0  0  0  0  0  0  0  0  0  0  0
    5.9830   -3.7610   23.9340 C   0  0  0  0  0  0  0  0  0  0  0  0
    5.5260   -3.4830   25.3180 C   0  0  0  0  0  0  0  0  0  0  0  0
    4.4080   -2.9790   25.4600 O   0  0  0  0  0  0  0  0  0  0  0  0
    6.2840   -3.7630   26.4760 N   0  0  0  0  0  0  0  0  0  0  0  0
    7.0270   -5.0010   26.4600 C   0  0  0  0  0  0  0  0  0  0  0  0
    6.9880   -5.3180   27.9110 C   0  0  0  0  0  0  0  0  0  0  0  0
    6.1770   -4.4750   28.5830 C   0  0  0  0  0  0  0  0  0  0  0  0
    5.6890   -3.4800   27.7730 C   0  0  1  0  0  0  0  0  0  0  0  0
    5.8160   -2.2220   28.3100 C   0  0  0  0  0  0  0  0  0  0  0  0
    7.0920   -1.8610   29.0490 C   0  0  0  0  0  0  0  0  0  0  0  0
    7.1570   -0.4990   29.6170 C   0  0  0  0  0  0  0  0  0  0  0  0
    6.0160    0.4190   29.4390 C   0  0  0  0  0  0  0  0  0  0  0  0
    6.0170    1.6210   29.9120 N   0  0  0  0  0  0  0  0  0  0  0  0
    6.4600    2.5060   28.8450 C   0  0  0  0  0  0  0  0  0  0  0  0
    6.4890    1.7970   31.2440 C   0  0  0  0  0  0  0  0  0  0  0  0
    4.9060    0.0570   28.7710 N   0  0  0  0  0  0  0  0  0  0  0  0
    4.7850   -1.1690   28.2340 N   0  0  0  0  0  0  0  0  0  0  0  0
    7.3030   -3.2270   23.6110 C   0  0  0  0  0  0  0  0  0  0  0  0
    7.6640   -3.2890   22.1880 C   0  0  0  0  0  0  0  0  0  0  0  0
  1  2  1  0
  2  3  2  0
  2  4  1  0
  4  5  1  0
  5  6  1  0
  6  7  1  0
  7  8  1  0
  8  9  2  0
  8 10  1  0
 10 11  1  0
 11 12  1  0
 12 13  1  0
 10 14  1  0
 13 14  1  0
 14 15  1  1
 15 16  2  0
 16 17  1  0
 17 18  2  0
 18 19  1  0
 19 20  1  0
 19 21  1  0
 18 22  1  0
 15 23  1  0
 22 23  2  0
  7 24  1  0
  4 25  1  0
 24 25  1  0
M  END
