piperidine-amides-14460-covalent
     RDKit          3D

 25 26  0  0  0  0  0  0  0  0999 V2000
    7.0470   -3.2590   19.2670 C   0  0  0  0  0  0  0  0  0  0  0  0
    6.2860   -4.0510   20.2350 C   0  0  0  0  0  0  0  0  0  0  0  0
    5.2140   -4.5420   19.8640 O   0  0  0  0  0  0  0  0  0  0  0  0
    6.7740   -4.3050   21.5370 N   0  0  0  0  0  0  0  0  0  0  0  0
    6.5810   -5.6040   22.0990 C   0  0  0  0  0  0  0  0  0  0  0  0
    6.2870   -5.4330   23.5460 C   0  0  0  0  0  0  0  0  0  0  0  0
    5.6650   -4.0660   23.6700 C   0  0  0  0  0  0  0  0  0  0  0  0
    5.1060   -3.8710   25.0540 C   0  0  0  0  0  0  0  0  0  0  0  0
    4.7560   -2.7230   25.3290 O   0  0  0  0  0  0  0  0  0  0  0  0
    5.0000   -4.9840   25.9220 N   0  0  0  0  0  0  0  0  0  0  0  0
    5.5480   -4.9300   27.2390 C   0  0  1  0  0  0  0  0  0  0  0  0
    6.2260   -6.0450   27.7320 C   0  0  0  0  0  0  0  0  0  0  0  0
    7.3910   -6.2450   27.3550 O   0  0  0  0  0  0  0  0  0  0  0  0
    6.5540   -3.9960   26.9010 C   0  0  0  0  0  0  0  0  0  0  0  0
    7.4290   -4.4630   25.9350 C   0  0  0  0  0  0  0  0  0  0  0  0
    8.4870   -3.5810   25.4700 C   0  0  0  0  0  0  0  0  0  0  0  0
    8.6470   -2.1820   26.0220 C   0  0  0  0  0  0  0  0  0  0  0  0
    7.7040   -1.7310   27.0640 C   0  0  0  0  0  0  0  0  0  0  0  0
    6.6870   -2.7270   27.4300 C   0  0  0  0  0  0  0  0  0  0  0  0
    5.7520   -2.1160   28.5210 C   0  0  0  0  0  0  0  0  0  0  0  0
    6.3200   -1.5270   29.6320 F   0  0  0  0  0  0  0  0  0  0  0  0
    4.8960   -3.0960   29.0280 F   0  0  0  0  0  0  0  0  0  0  0  0
    5.0420   -1.1160   27.9420 F   0  0  0  0  0  0  0  0  0  0  0  0
    6.6940   -2.9730   23.3950 C   0  0  0  0  0  0  0  0  0  0  0  0
    7.4850   -3.3130   22.3080 C   0  0  0  0  0  0  0  0  0  0  0  0
  1  2  1  0
  2  3  2  0
  2  4  1  0
  4  5  1  0
  5  6  1  0
  6  7  1  0
  7  8  1  0
  8  9  2  0
  8 10  1  0
 10 11  1  0
 11 12  1  6
 12 13  1  0
 11 14  1  0
 14 15  2  0
 15 16  1  0
 16 17  2  0
 17 18  1  0
 14 19  1  0
 18 19  2  0
 19 20  1  0
 20 21  1  0
 20 22  1  0
 20 23  1  0
  7 24  1  0
  4 25  1  0
 24 25  1  0
M  END
