piperidine-amides-30267-covalent
     RDKit          3D

 26 29  0  0  0  0  0  0  0  0999 V2000
    7.0850   -3.3430   19.3340 C   0  0  0  0  0  0  0  0  0  0  0  0
    6.4170   -4.1910   20.3130 C   0  0  0  0  0  0  0  0  0  0  0  0
    5.4120   -4.8290   19.9860 O   0  0  0  0  0  0  0  0  0  0  0  0
    6.9680   -4.3150   21.6370 N   0  0  0  0  0  0  0  0  0  0  0  0
    6.6490   -5.4320   22.4800 C   0  0  0  0  0  0  0  0  0  0  0  0
    5.9330   -4.9680   23.7280 C   0  0  0  0  0  0  0  0  0  0  0  0
    6.6130   -3.7400   24.3450 C   0  0  0  0  0  0  0  0  0  0  0  0
    5.6230   -3.0780   25.2380 C   0  0  0  0  0  0  0  0  0  0  0  0
    4.5430   -2.6570   24.7850 O   0  0  0  0  0  0  0  0  0  0  0  0
    5.8560   -2.9350   26.6270 N   0  0  0  0  0  0  0  0  0  0  0  0
    4.9590   -3.7410   27.3940 C   0  0  0  0  0  0  0  0  0  0  0  0
    5.7390   -4.8360   27.9960 C   0  0  0  0  0  0  0  0  0  0  0  0
    6.9970   -5.3120   27.7340 C   0  0  0  0  0  0  0  0  0  0  0  0
    7.3680   -6.3530   28.5310 C   0  0  0  0  0  0  0  0  0  0  0  0
    6.1560   -6.8720   29.7080 S   0  0  0  0  0  0  0  0  0  0  0  0
    4.9970   -5.6170   29.1640 C   0  0  0  0  0  0  0  0  0  0  0  0
    5.8540   -1.6750   27.3800 C   0  0  1  0  0  0  0  0  0  0  0  0
    7.0640   -1.0500   27.2810 C   0  0  0  0  0  0  0  0  0  0  0  0
    6.7890    0.2740   27.1820 N   0  0  0  0  0  0  0  0  0  0  0  0
    6.2430    0.5660   25.8790 C   0  0  0  0  0  0  0  0  0  0  0  0
    5.0410   -0.0920   25.8540 C   0  0  0  0  0  0  0  0  0  0  0  0
    4.8190   -0.7160   27.1460 C   0  0  0  0  0  0  0  0  0  0  0  0
    4.7730    0.2250   28.1620 C   0  0  0  0  0  0  0  0  0  0  0  0
    6.0330    0.7700   28.2770 C   0  0  0  0  0  0  0  0  0  0  0  0
    6.9480   -2.6820   23.3140 C   0  0  0  0  0  0  0  0  0  0  0  0
    7.7950   -3.2910   22.2080 C   0  0  0  0  0  0  0  0  0  0  0  0
  1  2  1  0
  2  3  2  0
  2  4  1  0
  4  5  1  0
  5  6  1  0
  6  7  1  0
  7  8  1  0
  8  9  2  0
  8 10  1  0
 10 11  1  0
 11 12  1  0
 12 13  1  0
 13 14  2  0
 14 15  1  0
 12 16  2  0
 15 16  1  0
 17 10  1  6
 17 18  1  0
 18 19  1  0
 19 20  1  0
 20 21  1  0
 17 22  1  0
 21 22  1  0
 22 23  1  0
 19 24  1  0
 23 24  1  0
  7 25  1  0
  4 26  1  0
 25 26  1  0
M  END
