piperidine-amides-8696-covalent
     RDKit          3D

 23 24  0  0  0  0  0  0  0  0999 V2000
    7.0780   -3.3030   19.2840 C   0  0  0  0  0  0  0  0  0  0  0  0
    6.3070   -4.0420   20.2880 C   0  0  0  0  0  0  0  0  0  0  0  0
    5.2820   -4.6300   19.9090 O   0  0  0  0  0  0  0  0  0  0  0  0
    6.7370   -4.1210   21.6400 N   0  0  0  0  0  0  0  0  0  0  0  0
    7.6790   -3.1490   22.1290 C   0  0  0  0  0  0  0  0  0  0  0  0
    7.4360   -2.9800   23.5840 C   0  0  0  0  0  0  0  0  0  0  0  0
    6.0620   -3.5680   23.7700 C   0  0  0  0  0  0  0  0  0  0  0  0
    5.5280   -3.2710   25.1350 C   0  0  0  0  0  0  0  0  0  0  0  0
    4.3910   -2.8090   25.1810 O   0  0  0  0  0  0  0  0  0  0  0  0
    6.3260   -3.5210   26.2350 N   0  0  0  0  0  0  0  0  0  0  0  0
    5.8170   -3.4500   27.5580 C   0  0  2  0  0  0  0  0  0  0  0  0
    6.7280   -3.0340   28.5180 C   0  0  0  0  0  0  0  0  0  0  0  0
    6.3020   -2.4490   29.5310 O   0  0  0  0  0  0  0  0  0  0  0  0
    6.8400   -1.2360   29.8340 C   0  0  0  0  0  0  0  0  0  0  0  0
    5.3010   -4.8050   27.9530 C   0  0  0  0  0  0  0  0  0  0  0  0
    6.2260   -5.6230   28.7780 C   0  0  0  0  0  0  0  0  0  0  0  0
    5.9130   -7.0270   29.3070 C   0  0  0  0  0  0  0  0  0  0  0  0
    4.5830   -7.5970   28.9600 C   0  0  0  0  0  0  0  0  0  0  0  0
    3.6540   -6.7540   28.1160 C   0  0  0  0  0  0  0  0  0  0  0  0
    4.0560   -5.3370   27.6240 C   0  0  0  0  0  0  0  0  0  0  0  0
    2.9490   -4.3740   26.6480 Cl  0  0  0  0  0  0  0  0  0  0  0  0
    6.1340   -5.0790   23.6270 C   0  0  0  0  0  0  0  0  0  0  0  0
    6.6180   -5.3740   22.3570 C   0  0  0  0  0  0  0  0  0  0  0  0
  1  2  1  0
  2  3  2  0
  2  4  1  0
  4  5  1  0
  5  6  1  0
  6  7  1  0
  7  8  1  0
  8  9  2  0
  8 10  1  0
 10 11  1  0
 11 12  1  1
 12 13  1  0
 13 14  1  0
 11 15  1  0
 15 16  2  0
 16 17  1  0
 17 18  2  0
 18 19  1  0
 15 20  1  0
 19 20  2  0
 20 21  1  0
  7 22  1  0
  4 23  1  0
 22 23  1  0
M  END
