piperidine-amides-30354-covalent
     RDKit          3D

 27 30  0  0  0  0  0  0  0  0999 V2000
    7.0300   -3.3650   19.4460 C   0  0  0  0  0  0  0  0  0  0  0  0
    6.3780   -4.2580   20.4000 C   0  0  0  0  0  0  0  0  0  0  0  0
    5.4300   -4.9470   20.0130 O   0  0  0  0  0  0  0  0  0  0  0  0
    6.8610   -4.3680   21.7590 N   0  0  0  0  0  0  0  0  0  0  0  0
    7.6860   -3.3090   22.3260 C   0  0  0  0  0  0  0  0  0  0  0  0
    7.2900   -2.9940   23.7480 C   0  0  0  0  0  0  0  0  0  0  0  0
    5.9520   -3.6630   23.9720 C   0  0  0  0  0  0  0  0  0  0  0  0
    5.2170   -3.1780   25.2030 C   0  0  0  0  0  0  0  0  0  0  0  0
    4.4220   -2.2370   25.1020 O   0  0  0  0  0  0  0  0  0  0  0  0
    5.3500   -3.7220   26.5130 N   0  0  0  0  0  0  0  0  0  0  0  0
    6.4400   -3.2950   27.2420 C   0  0  0  0  0  0  0  0  0  0  0  0
    6.6400   -4.4220   28.2440 C   0  0  0  0  0  0  0  0  0  0  0  0
    5.5810   -4.7140   29.0330 C   0  0  0  0  0  0  0  0  0  0  0  0
    5.3620   -6.1320   29.0980 N   0  0  0  0  0  0  0  0  0  0  0  0
    5.3510   -6.6740   30.4180 C   0  0  0  0  0  0  0  0  0  0  0  0
    4.1280   -6.5470   31.0490 C   0  0  0  0  0  0  0  0  0  0  0  0
    3.2080   -7.1360   30.0850 N   0  0  0  0  0  0  0  0  0  0  0  0
    2.4490   -8.1080   30.7720 C   0  0  0  0  0  0  0  0  0  0  0  0
    1.6070   -7.8880   31.8400 C   0  0  0  0  0  0  0  0  0  0  0  0
    1.6170   -8.5950   32.8620 C   0  0  0  0  0  0  0  0  0  0  0  0
    0.5970   -9.1070   31.9900 C   0  0  0  0  0  0  0  0  0  0  0  0
    3.7510   -7.5740   28.7870 C   0  0  0  0  0  0  0  0  0  0  0  0
    4.3990   -6.5300   28.1570 C   0  0  0  0  0  0  0  0  0  0  0  0
    4.5130   -3.8850   28.6920 C   0  0  0  0  0  0  0  0  0  0  0  0
    4.1310   -3.8180   27.2360 C   0  0  0  0  0  0  0  0  0  0  0  0
    6.0150   -5.1470   23.8820 C   0  0  0  0  0  0  0  0  0  0  0  0
    6.5980   -5.5570   22.5350 C   0  0  0  0  0  0  0  0  0  0  0  0
  1  2  1  0
  2  3  2  0
  2  4  1  0
  4  5  1  0
  5  6  1  0
  6  7  1  0
  7  8  1  0
  8  9  2  0
  8 10  1  0
 10 11  1  0
 11 12  1  0
 12 13  1  0
 13 14  1  0
 14 15  1  0
 15 16  1  0
 16 17  1  0
 17 18  1  0
 18 19  1  0
 19 20  1  0
 19 21  1  0
 20 21  1  0
 17 22  1  0
 14 23  1  0
 22 23  1  0
 13 24  1  0
 10 25  1  0
 24 25  1  0
  7 26  1  0
  4 27  1  0
 26 27  1  0
M  END
