piperidine-amides-32230-covalent
     RDKit          3D

 29 31  0  0  0  0  0  0  0  0999 V2000
    7.0960   -3.3450   19.3360 C   0  0  0  0  0  0  0  0  0  0  0  0
    6.3490   -4.1590   20.3280 C   0  0  0  0  0  0  0  0  0  0  0  0
    5.3280   -4.7620   19.9600 O   0  0  0  0  0  0  0  0  0  0  0  0
    6.8470   -4.2740   21.6430 N   0  0  0  0  0  0  0  0  0  0  0  0
    6.5450   -5.4230   22.4510 C   0  0  0  0  0  0  0  0  0  0  0  0
    5.7330   -4.8990   23.6440 C   0  0  0  0  0  0  0  0  0  0  0  0
    6.4860   -3.7550   24.2540 C   0  0  0  0  0  0  0  0  0  0  0  0
    5.7400   -3.1020   25.3700 C   0  0  0  0  0  0  0  0  0  0  0  0
    4.6430   -2.6320   25.0510 O   0  0  0  0  0  0  0  0  0  0  0  0
    6.2350   -3.0460   26.6970 N   0  0  0  0  0  0  0  0  0  0  0  0
    6.2340   -4.1840   27.5570 C   0  0  0  0  0  0  0  0  0  0  0  0
    5.1450   -4.6490   28.2410 C   0  0  0  0  0  0  0  0  0  0  0  0
    5.0340   -6.0650   28.4440 C   0  0  0  0  0  0  0  0  0  0  0  0
    3.9790   -6.6520   29.1160 C   0  0  0  0  0  0  0  0  0  0  0  0
    2.9670   -5.7250   29.6160 C   0  0  0  0  0  0  0  0  0  0  0  0
    1.8660   -6.2620   30.3110 N   0  0  0  0  0  0  0  0  0  0  0  0
    1.9130   -6.3420   31.7450 C   0  0  0  0  0  0  0  0  0  0  0  0
    2.9300   -5.4350   32.4400 C   0  0  0  0  0  0  0  0  0  0  0  0
    1.1710   -7.1210   32.6240 O   0  0  0  0  0  0  0  0  0  0  0  0
    3.0660   -4.2780   29.4170 C   0  0  0  0  0  0  0  0  0  0  0  0
    4.2220   -3.7180   28.6880 C   0  0  0  0  0  0  0  0  0  0  0  0
    6.3040   -1.6510   27.1960 C   0  0  0  0  0  0  0  0  0  0  0  0
    5.5600   -0.7430   26.3960 C   0  0  0  0  0  0  0  0  0  0  0  0
    5.8240    0.5700   27.1970 C   0  0  0  0  0  0  0  0  0  0  0  0
    6.6210    0.8150   28.4270 C   0  0  0  0  0  0  0  0  0  0  0  0
    7.2260   -0.1870   28.9690 N   0  0  0  0  0  0  0  0  0  0  0  0
    7.0610   -1.3810   28.3690 C   0  0  0  0  0  0  0  0  0  0  0  0
    6.7940   -2.6410   23.2810 C   0  0  0  0  0  0  0  0  0  0  0  0
    7.5030   -3.1410   22.2040 C   0  0  0  0  0  0  0  0  0  0  0  0
  1  2  1  0
  2  3  2  0
  2  4  1  0
  4  5  1  0
  5  6  1  0
  6  7  1  0
  7  8  1  0
  8  9  2  0
  8 10  1  0
 10 11  1  0
 11 12  1  0
 12 13  2  0
 13 14  1  0
 14 15  2  0
 15 16  1  0
 16 17  1  0
 17 18  1  0
 17 19  2  0
 15 20  1  0
 12 21  1  0
 20 21  2  0
 10 22  1  0
 22 23  2  0
 23 24  1  0
 24 25  2  0
 25 26  1  0
 22 27  1  0
 26 27  2  0
  7 28  1  0
  4 29  1  0
 28 29  1  0
M  END
