piperidine-amides-5449-covalent
     RDKit          3D

 20 20  0  0  0  0  0  0  0  0999 V2000
    7.0860   -3.3180   19.2930 C   0  0  0  0  0  0  0  0  0  0  0  0
    6.3960   -4.1240   20.3030 C   0  0  0  0  0  0  0  0  0  0  0  0
    5.3840   -4.7590   19.9640 O   0  0  0  0  0  0  0  0  0  0  0  0
    6.8800   -4.2300   21.6250 N   0  0  0  0  0  0  0  0  0  0  0  0
    7.7280   -3.2520   22.2500 C   0  0  0  0  0  0  0  0  0  0  0  0
    6.9440   -2.6740   23.4050 C   0  0  0  0  0  0  0  0  0  0  0  0
    6.2210   -3.6880   24.2660 C   0  0  0  0  0  0  0  0  0  0  0  0
    5.1550   -3.0380   25.0980 C   0  0  0  0  0  0  0  0  0  0  0  0
    4.2770   -2.3450   24.5210 O   0  0  0  0  0  0  0  0  0  0  0  0
    5.0230   -3.1320   26.5080 N   0  0  0  0  0  0  0  0  0  0  0  0
    6.0040   -3.8980   27.2580 C   0  0  1  0  0  0  0  0  0  0  0  0
    6.1240   -3.3930   28.6240 C   0  0  0  0  0  0  0  0  0  0  0  0
    5.9290   -1.9480   28.8130 C   0  0  0  0  0  0  0  0  0  0  0  0
    6.9320   -1.1200   28.0550 C   0  0  0  0  0  0  0  0  0  0  0  0
    5.9270   -5.3030   27.4390 C   0  0  0  0  0  0  0  0  0  0  0  0
    5.0720   -5.9700   26.5340 O   0  0  0  0  0  0  0  0  0  0  0  0
    6.5720   -5.9320   28.3530 O   0  0  0  0  0  0  0  0  0  0  0  0
    5.9070   -6.8670   29.1370 C   0  0  0  0  0  0  0  0  0  0  0  0
    5.5950   -4.7930   23.4220 C   0  0  0  0  0  0  0  0  0  0  0  0
    6.4410   -5.3280   22.4400 C   0  0  0  0  0  0  0  0  0  0  0  0
  1  2  1  0
  2  3  2  0
  2  4  1  0
  4  5  1  0
  5  6  1  0
  6  7  1  0
  7  8  1  0
  8  9  2  0
  8 10  1  0
 10 11  1  0
 11 12  1  1
 12 13  1  0
 13 14  1  0
 11 15  1  0
 15 16  2  0
 15 17  1  0
 17 18  1  0
  7 19  1  0
  4 20  1  0
 19 20  1  0
M  END
