piperidine-amides-25634-covalent
     RDKit          3D

 25 27  0  0  0  0  0  0  0  0999 V2000
    7.0230   -3.3540   19.3350 C   0  0  0  0  0  0  0  0  0  0  0  0
    6.3780   -4.2300   20.3480 C   0  0  0  0  0  0  0  0  0  0  0  0
    5.3840   -4.8540   19.9830 O   0  0  0  0  0  0  0  0  0  0  0  0
    6.9280   -4.3550   21.6320 N   0  0  0  0  0  0  0  0  0  0  0  0
    6.6390   -5.4730   22.4840 C   0  0  0  0  0  0  0  0  0  0  0  0
    5.8580   -4.9940   23.6860 C   0  0  0  0  0  0  0  0  0  0  0  0
    6.5450   -3.8060   24.3850 C   0  0  0  0  0  0  0  0  0  0  0  0
    5.6520   -3.3420   25.4990 C   0  0  0  0  0  0  0  0  0  0  0  0
    4.5770   -2.8350   25.1710 O   0  0  0  0  0  0  0  0  0  0  0  0
    5.9460   -3.4520   26.9020 N   0  0  0  0  0  0  0  0  0  0  0  0
    5.1300   -2.6040   27.8610 C   0  0  0  0  0  0  0  0  0  0  0  0
    4.5820   -3.4750   28.9930 C   0  0  1  0  0  0  0  0  0  0  0  0
    3.3180   -4.0280   29.0040 C   0  0  0  0  0  0  0  0  0  0  0  0
    2.2980   -3.3210   28.7630 O   0  0  0  0  0  0  0  0  0  0  0  0
    3.1420   -5.3650   29.2880 O   0  0  0  0  0  0  0  0  0  0  0  0
    3.3680   -6.4270   28.3540 C   0  0  0  0  0  0  0  0  0  0  0  0
    2.3280   -7.2810   28.5790 C   0  0  0  0  0  0  0  0  0  0  0  0
    5.4940   -4.5020   28.7020 C   0  0  0  0  0  0  0  0  0  0  0  0
    5.2410   -5.3970   30.0020 C   0  0  0  0  0  0  0  0  0  0  0  0
    6.1280   -6.7030   30.0680 C   0  0  0  0  0  0  0  0  0  0  0  0
    6.8120   -6.4600   28.8470 C   0  0  0  0  0  0  0  0  0  0  0  0
    6.0180   -5.3210   28.7950 C   0  0  0  0  0  0  0  0  0  0  0  0
    6.4000   -4.7220   27.5820 C   0  0  0  0  0  0  0  0  0  0  0  0
    6.7870   -2.6920   23.3920 C   0  0  0  0  0  0  0  0  0  0  0  0
    7.6200   -3.2580   22.2730 C   0  0  0  0  0  0  0  0  0  0  0  0
  1  2  1  0
  2  3  2  0
  2  4  1  0
  4  5  1  0
  5  6  1  0
  6  7  1  0
  7  8  1  0
  8  9  2  0
  8 10  1  0
 10 11  1  0
 11 12  1  0
 12 13  1  6
 13 14  2  0
 13 15  1  0
 15 16  1  0
 16 17  1  0
 12 18  1  0
 18 19  1  0
 19 20  2  0
 20 21  1  0
 21 22  2  0
 10 23  1  0
 18 23  2  0
 22 23  1  0
  7 24  1  0
  4 25  1  0
 24 25  1  0
M  END
