piperidine-amides-14798-covalent
     RDKit          3D

 22 23  0  0  0  0  0  0  0  0999 V2000
    7.0630   -3.2680   19.2180 C   0  0  0  0  0  0  0  0  0  0  0  0
    6.3340   -4.0320   20.2310 C   0  0  0  0  0  0  0  0  0  0  0  0
    5.2770   -4.5870   19.8910 O   0  0  0  0  0  0  0  0  0  0  0  0
    6.8460   -4.1730   21.5420 N   0  0  0  0  0  0  0  0  0  0  0  0
    6.5410   -5.3620   22.2870 C   0  0  0  0  0  0  0  0  0  0  0  0
    5.7790   -4.9790   23.5180 C   0  0  0  0  0  0  0  0  0  0  0  0
    6.5840   -3.8830   24.1780 C   0  0  0  0  0  0  0  0  0  0  0  0
    5.8220   -3.3090   25.3380 C   0  0  0  0  0  0  0  0  0  0  0  0
    4.6090   -3.1770   25.1800 O   0  0  0  0  0  0  0  0  0  0  0  0
    6.5250   -2.9580   26.4950 N   0  0  0  0  0  0  0  0  0  0  0  0
    6.2500   -3.4840   27.8050 C   0  0  0  0  0  0  0  0  0  0  0  0
    5.2180   -4.4280   27.8870 C   0  0  1  0  0  0  0  0  0  0  0  0
    5.4920   -5.5560   28.6300 C   0  0  0  0  0  0  0  0  0  0  0  0
    4.4540   -5.7410   29.4410 C   0  0  0  0  0  0  0  0  0  0  0  0
    4.5990   -7.0010   30.2470 C   0  0  0  0  0  0  0  0  0  0  0  0
    5.9300   -7.7210   29.9480 C   0  0  0  0  0  0  0  0  0  0  0  0
    3.4640   -7.7760   30.1790 C   0  0  0  0  0  0  0  0  0  0  0  0
    4.7940   -6.7110   31.6820 C   0  0  0  0  0  0  0  0  0  0  0  0
    3.5590   -4.7160   29.2810 N   0  0  0  0  0  0  0  0  0  0  0  0
    4.0970   -3.9760   28.3850 O   0  0  0  0  0  0  0  0  0  0  0  0
    6.9770   -2.7590   23.3190 C   0  0  0  0  0  0  0  0  0  0  0  0
    7.6480   -3.1540   22.1910 C   0  0  0  0  0  0  0  0  0  0  0  0
  1  2  1  0
  2  3  2  0
  2  4  1  0
  4  5  1  0
  5  6  1  0
  6  7  1  0
  7  8  1  0
  8  9  2  0
  8 10  1  0
 10 11  1  0
 12 11  1  1
 12 13  1  0
 13 14  1  0
 14 15  1  0
 15 16  1  0
 15 17  1  0
 15 18  1  0
 14 19  2  0
 12 20  1  0
 19 20  1  0
  7 21  1  0
  4 22  1  0
 21 22  1  0
M  END
