piperidine-amides-4292-covalent
     RDKit          3D

 26 28  0  0  0  0  0  0  0  0999 V2000
    7.1230   -3.3360   19.3370 C   0  0  0  0  0  0  0  0  0  0  0  0
    6.3910   -4.1320   20.3320 C   0  0  0  0  0  0  0  0  0  0  0  0
    5.3330   -4.6830   19.9440 O   0  0  0  0  0  0  0  0  0  0  0  0
    6.9020   -4.3210   21.6460 N   0  0  0  0  0  0  0  0  0  0  0  0
    7.6330   -3.2540   22.2530 C   0  0  0  0  0  0  0  0  0  0  0  0
    7.2530   -2.9850   23.6340 C   0  0  0  0  0  0  0  0  0  0  0  0
    6.0470   -3.7170   24.0390 C   0  0  0  0  0  0  0  0  0  0  0  0
    5.5790   -3.3310   25.4110 C   0  0  0  0  0  0  0  0  0  0  0  0
    4.3650   -3.4170   25.6690 O   0  0  0  0  0  0  0  0  0  0  0  0
    6.4490   -2.8660   26.4110 N   0  0  0  0  0  0  0  0  0  0  0  0
    6.3860   -1.6170   27.0700 C   0  0  0  0  0  0  0  0  0  0  0  0
    5.7430   -0.4020   26.6250 C   0  0  0  0  0  0  0  0  0  0  0  0
    5.7960    0.8610   27.5220 C   0  0  0  0  0  0  0  0  0  0  0  0
    6.4250    0.9640   28.7700 C   0  0  0  0  0  0  0  0  0  0  0  0
    6.4400    2.1170   29.5300 O   0  0  0  0  0  0  0  0  0  0  0  0
    5.9220    1.9300   30.8020 C   0  0  0  0  0  0  0  0  0  0  0  0
    4.5110    1.5200   30.5290 C   0  0  0  0  0  0  0  0  0  0  0  0
    4.4570    0.9120   31.9370 C   0  0  0  0  0  0  0  0  0  0  0  0
    4.6760    1.6040   32.9480 O   0  0  0  0  0  0  0  0  0  0  0  0
    5.0760    2.9810   32.8320 C   0  0  0  0  0  0  0  0  0  0  0  0
    6.0550    3.1200   31.6770 C   0  0  0  0  0  0  0  0  0  0  0  0
    7.0690   -0.4030   29.1090 C   0  0  0  0  0  0  0  0  0  0  0  0
    7.8090   -0.5440   30.3850 C   0  0  0  0  0  0  0  0  0  0  0  0
    7.0470   -1.5470   28.3550 C   0  0  0  0  0  0  0  0  0  0  0  0
    6.1270   -5.1870   23.8050 C   0  0  0  0  0  0  0  0  0  0  0  0
    6.5570   -5.5090   22.3850 C   0  0  0  0  0  0  0  0  0  0  0  0
  1  2  1  0
  2  3  2  0
  2  4  1  0
  4  5  1  0
  5  6  1  0
  6  7  1  0
  7  8  1  0
  8  9  2  0
  8 10  1  0
 10 11  1  0
 11 12  2  0
 12 13  1  0
 13 14  2  0
 14 15  1  0
 15 16  1  0
 16 17  1  0
 17 18  1  0
 18 19  1  0
 19 20  1  0
 16 21  1  0
 20 21  1  0
 14 22  1  0
 22 23  1  0
 11 24  1  0
 22 24  2  0
  7 25  1  0
  4 26  1  0
 25 26  1  0
M  END
