piperidine-amides-34266-covalent
     RDKit          3D

 31 34  0  0  0  0  0  0  0  0999 V2000
    7.0830   -3.3210   19.3260 C   0  0  0  0  0  0  0  0  0  0  0  0
    6.4070   -4.1740   20.3160 C   0  0  0  0  0  0  0  0  0  0  0  0
    5.3970   -4.8390   19.9840 O   0  0  0  0  0  0  0  0  0  0  0  0
    6.9180   -4.2820   21.6200 N   0  0  0  0  0  0  0  0  0  0  0  0
    7.7240   -3.2090   22.1580 C   0  0  0  0  0  0  0  0  0  0  0  0
    6.9100   -2.6040   23.2950 C   0  0  0  0  0  0  0  0  0  0  0  0
    6.5910   -3.7530   24.2170 C   0  0  0  0  0  0  0  0  0  0  0  0
    5.7430   -3.2390   25.3190 C   0  0  0  0  0  0  0  0  0  0  0  0
    4.5370   -3.0370   25.0720 O   0  0  0  0  0  0  0  0  0  0  0  0
    6.2870   -2.9860   26.6070 N   0  0  0  0  0  0  0  0  0  0  0  0
    6.2060   -4.0100   27.6210 C   0  0  0  0  0  0  0  0  0  0  0  0
    4.8950   -3.9090   28.3670 C   0  0  0  0  0  0  0  0  0  0  0  0
    4.0170   -2.8260   28.4120 C   0  0  0  0  0  0  0  0  0  0  0  0
    2.8370   -2.8380   29.1330 C   0  0  0  0  0  0  0  0  0  0  0  0
    2.4410   -3.9400   29.8690 C   0  0  0  0  0  0  0  0  0  0  0  0
    1.2540   -3.9080   30.5720 F   0  0  0  0  0  0  0  0  0  0  0  0
    3.2000   -5.0570   29.9110 C   0  0  0  0  0  0  0  0  0  0  0  0
    4.4940   -5.1460   29.1670 C   0  0  0  0  0  0  0  0  0  0  0  0
    5.2260   -6.3340   29.2570 F   0  0  0  0  0  0  0  0  0  0  0  0
    6.3290   -1.6750   27.2510 C   0  0  0  0  0  0  0  0  0  0  0  0
    7.0520   -1.8180   28.5860 C   0  0  0  0  0  0  0  0  0  0  0  0
    6.9710   -0.4010   29.0580 C   0  0  0  0  0  0  0  0  0  0  0  0
    6.4090    0.7510   28.4800 C   0  0  0  0  0  0  0  0  0  0  0  0
    6.4900    1.9040   29.1430 N   0  0  0  0  0  0  0  0  0  0  0  0
    5.9290    3.0670   28.5680 C   0  0  0  0  0  0  0  0  0  0  0  0
    5.2670    2.9140   27.2210 C   0  0  0  0  0  0  0  0  0  0  0  0
    5.1880    1.7300   26.5500 N   0  0  0  0  0  0  0  0  0  0  0  0
    5.7570    0.6430   27.1720 C   0  0  0  0  0  0  0  0  0  0  0  0
    5.7540   -0.6120   26.6080 N   0  0  0  0  0  0  0  0  0  0  0  0
    5.8860   -4.9350   23.6050 C   0  0  0  0  0  0  0  0  0  0  0  0
    6.4850   -5.3830   22.4430 C   0  0  0  0  0  0  0  0  0  0  0  0
  1  2  1  0
  2  3  2  0
  2  4  1  0
  4  5  1  0
  5  6  1  0
  6  7  1  0
  7  8  1  0
  8  9  2  0
  8 10  1  0
 10 11  1  0
 11 12  1  0
 12 13  2  0
 13 14  1  0
 14 15  2  0
 15 16  1  0
 15 17  1  0
 12 18  1  0
 17 18  2  0
 18 19  1  0
 10 20  1  0
 20 21  2  0
 21 22  1  0
 22 23  2  0
 23 24  1  0
 24 25  2  0
 25 26  1  0
 26 27  2  0
 23 28  1  0
 27 28  1  0
 20 29  1  0
 28 29  2  0
  7 30  1  0
  4 31  1  0
 30 31  1  0
M  END
