piperidine-amides-32624-covalent
     RDKit          3D

 29 31  0  0  0  0  0  0  0  0999 V2000
    7.1400   -3.2930   19.2780 C   0  0  0  0  0  0  0  0  0  0  0  0
    6.3460   -4.0480   20.2830 C   0  0  0  0  0  0  0  0  0  0  0  0
    5.3100   -4.6350   19.9220 O   0  0  0  0  0  0  0  0  0  0  0  0
    6.8290   -4.1060   21.6090 N   0  0  0  0  0  0  0  0  0  0  0  0
    7.7100   -3.0720   22.1200 C   0  0  0  0  0  0  0  0  0  0  0  0
    7.6060   -3.0290   23.6510 C   0  0  0  0  0  0  0  0  0  0  0  0
    6.2470   -3.5250   24.0000 C   0  0  0  0  0  0  0  0  0  0  0  0
    5.8730   -3.3870   25.4300 C   0  0  0  0  0  0  0  0  0  0  0  0
    4.6550   -3.2970   25.6440 O   0  0  0  0  0  0  0  0  0  0  0  0
    6.8410   -3.3500   26.4540 N   0  0  0  0  0  0  0  0  0  0  0  0
    7.2780   -4.4770   27.1980 C   0  0  0  0  0  0  0  0  0  0  0  0
    6.7140   -5.7200   27.0550 C   0  0  0  0  0  0  0  0  0  0  0  0
    5.8750   -6.2630   28.0390 C   0  0  0  0  0  0  0  0  0  0  0  0
    4.6210   -6.7230   27.7590 C   0  0  0  0  0  0  0  0  0  0  0  0
    3.7890   -7.2900   28.8330 C   0  0  0  0  0  0  0  0  0  0  0  0
    4.2770   -7.3870   30.2770 C   0  0  0  0  0  0  0  0  0  0  0  0
    5.7020   -6.8370   30.4690 C   0  0  0  0  0  0  0  0  0  0  0  0
    6.1840   -6.9100   31.7780 O   0  0  0  0  0  0  0  0  0  0  0  0
    5.4550   -7.8210   32.5210 C   0  0  0  0  0  0  0  0  0  0  0  0
    6.4490   -6.2830   29.2860 C   0  0  0  0  0  0  0  0  0  0  0  0
    7.0550   -1.9780   26.8920 C   0  0  0  0  0  0  0  0  0  0  0  0
    6.5230   -1.6970   28.1260 C   0  0  0  0  0  0  0  0  0  0  0  0
    7.7860   -1.4050   28.8030 C   0  0  0  0  0  0  0  0  0  0  0  0
    7.2000   -1.0940   30.1230 C   0  0  0  0  0  0  0  0  0  0  0  0
    5.7980   -1.2110   30.1560 N   0  0  0  0  0  0  0  0  0  0  0  0
    5.4210   -1.5980   28.8680 N   0  0  0  0  0  0  0  0  0  0  0  0
    4.1330   -1.8190   28.5050 C   0  0  0  0  0  0  0  0  0  0  0  0
    6.0760   -4.9890   23.6650 C   0  0  0  0  0  0  0  0  0  0  0  0
    6.4860   -5.2630   22.3710 C   0  0  0  0  0  0  0  0  0  0  0  0
  1  2  1  0
  2  3  2  0
  2  4  1  0
  4  5  1  0
  5  6  1  0
  6  7  1  0
  7  8  1  0
  8  9  2  0
  8 10  1  0
 10 11  1  0
 11 12  1  0
 12 13  1  0
 13 14  2  0
 14 15  1  0
 15 16  2  0
 16 17  1  0
 17 18  1  0
 18 19  1  0
 13 20  1  0
 17 20  2  0
 10 21  1  0
 21 22  1  0
 22 23  2  0
 23 24  1  0
 24 25  2  0
 22 26  1  0
 25 26  1  0
 26 27  1  0
  7 28  1  0
  4 29  1  0
 28 29  1  0
M  END
