piperidine-amides-7170-covalent
     RDKit          3D

 21 23  0  0  0  0  0  0  0  0999 V2000
    7.0740   -3.3040   19.2730 C   0  0  0  0  0  0  0  0  0  0  0  0
    6.3240   -4.0400   20.2940 C   0  0  0  0  0  0  0  0  0  0  0  0
    5.2740   -4.6120   19.9030 O   0  0  0  0  0  0  0  0  0  0  0  0
    6.7910   -4.1270   21.6130 N   0  0  0  0  0  0  0  0  0  0  0  0
    7.7170   -3.1550   22.1630 C   0  0  0  0  0  0  0  0  0  0  0  0
    7.4120   -3.0150   23.6250 C   0  0  0  0  0  0  0  0  0  0  0  0
    6.0820   -3.6430   23.9310 C   0  0  0  0  0  0  0  0  0  0  0  0
    5.5980   -3.3150   25.2950 C   0  0  0  0  0  0  0  0  0  0  0  0
    4.3730   -3.4390   25.5020 O   0  0  0  0  0  0  0  0  0  0  0  0
    6.4090   -2.8780   26.3620 N   0  0  0  0  0  0  0  0  0  0  0  0
    6.5770   -1.4750   26.6530 C   0  0  0  0  0  0  0  0  0  0  0  0
    5.8210   -0.9950   27.8920 C   0  0  0  0  0  0  0  0  0  0  0  0
    6.3480   -1.3920   29.1180 C   0  0  0  0  0  0  0  0  0  0  0  0
    5.6880   -0.9230   30.2360 C   0  0  0  0  0  0  0  0  0  0  0  0
    4.6540   -0.1280   29.8160 C   0  0  0  0  0  0  0  0  0  0  0  0
    3.8040   -0.8300   29.0160 C   0  0  0  0  0  0  0  0  0  0  0  0
    4.4530   -1.2600   27.8850 C   0  0  0  0  0  0  0  0  0  0  0  0
    5.1620    0.8960   29.0830 C   0  0  0  0  0  0  0  0  0  0  0  0
    5.7610    0.4270   27.7500 C   0  0  0  0  0  0  0  0  0  0  0  0
    6.1170   -5.1610   23.6950 C   0  0  0  0  0  0  0  0  0  0  0  0
    6.6910   -5.4090   22.3030 C   0  0  0  0  0  0  0  0  0  0  0  0
  1  2  1  0
  2  3  2  0
  2  4  1  0
  4  5  1  0
  5  6  1  0
  6  7  1  0
  7  8  1  0
  8  9  2  0
  8 10  1  0
 10 11  1  0
 12 11  1  0
 12 13  1  0
 13 14  1  0
 14 15  1  0
 15 16  1  0
 12 17  1  0
 16 17  1  0
 15 18  1  0
 12 19  1  0
 18 19  1  0
  7 20  1  0
  4 21  1  0
 20 21  1  0
M  END
