piperidine-amides-35550-covalent
     RDKit          3D

 35 37  0  0  0  0  0  0  0  0999 V2000
    7.0830   -3.3050   19.2340 C   0  0  0  0  0  0  0  0  0  0  0  0
    6.2870   -4.0860   20.2170 C   0  0  0  0  0  0  0  0  0  0  0  0
    5.2100   -4.5330   19.8610 O   0  0  0  0  0  0  0  0  0  0  0  0
    6.8090   -4.3280   21.4770 N   0  0  0  0  0  0  0  0  0  0  0  0
    7.6140   -3.3410   22.1050 C   0  0  0  0  0  0  0  0  0  0  0  0
    6.8370   -2.7540   23.2310 C   0  0  0  0  0  0  0  0  0  0  0  0
    6.2520   -3.8620   24.1040 C   0  0  0  0  0  0  0  0  0  0  0  0
    5.4590   -3.1440   25.1090 C   0  0  0  0  0  0  0  0  0  0  0  0
    4.2760   -2.8470   24.8970 O   0  0  0  0  0  0  0  0  0  0  0  0
    6.0750   -2.8240   26.3080 N   0  0  0  0  0  0  0  0  0  0  0  0
    5.8040   -1.5730   26.9680 C   0  0  0  0  0  0  0  0  0  0  0  0
    6.7400   -0.4420   26.7010 C   0  0  0  0  0  0  0  0  0  0  0  0
    6.6440    0.8260   27.2620 C   0  0  0  0  0  0  0  0  0  0  0  0
    5.6340    1.0760   28.1090 C   0  0  0  0  0  0  0  0  0  0  0  0
    4.7660    0.0870   28.3650 C   0  0  0  0  0  0  0  0  0  0  0  0
    3.5270   -0.3880   29.0940 C   0  0  0  0  0  0  0  0  0  0  0  0
    4.6960   -1.2670   27.8950 C   0  0  0  0  0  0  0  0  0  0  0  0
    6.3810   -3.9430   27.1160 C   0  0  0  0  0  0  0  0  0  0  0  0
    5.3960   -4.5630   28.0400 C   0  0  0  0  0  0  0  0  0  0  0  0
    5.7720   -5.7210   28.8350 C   0  0  0  0  0  0  0  0  0  0  0  0
    7.0300   -6.2420   28.7350 N   0  0  0  0  0  0  0  0  0  0  0  0
    8.0060   -5.6820   27.8640 C   0  0  0  0  0  0  0  0  0  0  0  0
    7.7880   -4.4770   26.9660 C   0  0  0  0  0  0  0  0  0  0  0  0
    8.7650   -3.5510   25.8410 S   0  0  0  0  0  0  0  0  0  0  0  0
    8.0940   -2.2320   25.8120 O   0  0  0  0  0  0  0  0  0  0  0  0
   10.1200   -3.4480   26.4210 O   0  0  0  0  0  0  0  0  0  0  0  0
    9.2890   -3.7280   24.2070 N   0  0  0  0  0  0  0  0  0  0  0  0
   10.0810   -2.8580   23.3240 C   0  0  0  0  0  0  0  0  0  0  0  0
    9.6040   -2.0000   22.3390 O   0  0  0  0  0  0  0  0  0  0  0  0
   11.4910   -2.8250   23.4350 N   0  0  0  0  0  0  0  0  0  0  0  0
   12.1690   -1.7840   24.1760 C   0  0  0  0  0  0  0  0  0  0  0  0
   13.2020   -2.4770   25.0370 C   0  0  0  0  0  0  0  0  0  0  0  0
   12.8410   -0.8430   23.2190 C   0  0  0  0  0  0  0  0  0  0  0  0
    5.4420   -4.8400   23.2610 C   0  0  0  0  0  0  0  0  0  0  0  0
    6.2910   -5.3610   22.3310 C   0  0  0  0  0  0  0  0  0  0  0  0
  1  2  1  0
  2  3  2  0
  2  4  1  0
  4  5  1  0
  5  6  1  0
  6  7  1  0
  7  8  1  0
  8  9  2  0
  8 10  1  0
 10 11  1  0
 11 12  2  0
 12 13  1  0
 13 14  2  0
 14 15  1  0
 15 16  1  0
 11 17  1  0
 15 17  2  0
 10 18  1  0
 18 19  2  0
 19 20  1  0
 20 21  2  0
 21 22  1  0
 18 23  1  0
 22 23  2  0
 23 24  1  0
 24 25  2  0
 24 26  2  0
 24 27  1  0
 27 28  1  0
 28 29  2  0
 28 30  1  0
 30 31  1  0
 31 32  1  0
 31 33  1  0
  7 34  1  0
  4 35  1  0
 34 35  1  0
M  END
