piperidine-amides-10881-covalent
     RDKit          3D

 22 23  0  0  0  0  0  0  0  0999 V2000
    7.1560   -3.2980   19.2310 C   0  0  0  0  0  0  0  0  0  0  0  0
    6.3510   -4.0240   20.2080 C   0  0  0  0  0  0  0  0  0  0  0  0
    5.2560   -4.4940   19.8630 O   0  0  0  0  0  0  0  0  0  0  0  0
    6.8230   -4.2640   21.5030 N   0  0  0  0  0  0  0  0  0  0  0  0
    6.5540   -5.4820   22.2110 C   0  0  0  0  0  0  0  0  0  0  0  0
    5.7290   -5.0530   23.3880 C   0  0  0  0  0  0  0  0  0  0  0  0
    6.3170   -3.8670   24.1170 C   0  0  0  0  0  0  0  0  0  0  0  0
    5.2960   -3.2440   24.9770 C   0  0  0  0  0  0  0  0  0  0  0  0
    4.0790   -3.2670   24.6420 O   0  0  0  0  0  0  0  0  0  0  0  0
    5.5980   -2.6150   26.1820 N   0  0  0  0  0  0  0  0  0  0  0  0
    5.4960   -3.4170   27.4050 C   0  0  1  0  0  0  0  0  0  0  0  0
    5.5000   -4.8640   27.0230 C   0  0  0  0  0  0  0  0  0  0  0  0
    6.7350   -3.1460   28.2100 C   0  0  0  0  0  0  0  0  0  0  0  0
    7.5910   -4.0440   27.4350 C   0  0  0  0  0  0  0  0  0  0  0  0
    8.2750   -3.4570   26.2160 C   0  0  0  0  0  0  0  0  0  0  0  0
    9.1600   -4.3590   25.4290 C   0  0  0  0  0  0  0  0  0  0  0  0
    9.2880   -5.6350   25.8840 C   0  0  0  0  0  0  0  0  0  0  0  0
    8.6560   -6.1410   26.9620 C   0  0  0  0  0  0  0  0  0  0  0  0
    7.7540   -5.3230   27.7750 C   0  0  0  0  0  0  0  0  0  0  0  0
    6.9000   -6.0030   29.1390 Cl  0  0  0  0  0  0  0  0  0  0  0  0
    6.8890   -2.7480   23.2720 C   0  0  0  0  0  0  0  0  0  0  0  0
    7.7070   -3.3300   22.1570 C   0  0  0  0  0  0  0  0  0  0  0  0
  1  2  1  0
  2  3  2  0
  2  4  1  0
  4  5  1  0
  5  6  1  0
  6  7  1  0
  7  8  1  0
  8  9  2  0
  8 10  1  0
 10 11  1  0
 11 12  1  6
 11 13  1  0
 13 14  1  0
 14 15  2  0
 15 16  1  0
 16 17  2  0
 17 18  1  0
 14 19  1  0
 18 19  2  0
 19 20  1  0
  7 21  1  0
  4 22  1  0
 21 22  1  0
M  END
