piperidine-amides-1434-covalent
     RDKit          3D

 22 23  0  0  0  0  0  0  0  0999 V2000
    7.1480   -3.2860   19.2470 C   0  0  0  0  0  0  0  0  0  0  0  0
    6.3400   -4.0310   20.2510 C   0  0  0  0  0  0  0  0  0  0  0  0
    5.2770   -4.5660   19.8930 O   0  0  0  0  0  0  0  0  0  0  0  0
    6.8320   -4.1530   21.5650 N   0  0  0  0  0  0  0  0  0  0  0  0
    7.7250   -3.1720   22.1390 C   0  0  0  0  0  0  0  0  0  0  0  0
    7.0330   -2.6140   23.3760 C   0  0  0  0  0  0  0  0  0  0  0  0
    6.5350   -3.7810   24.1600 C   0  0  0  0  0  0  0  0  0  0  0  0
    5.7490   -3.3430   25.3350 C   0  0  0  0  0  0  0  0  0  0  0  0
    4.5490   -3.1140   25.1440 O   0  0  0  0  0  0  0  0  0  0  0  0
    6.3590   -3.2000   26.5840 N   0  0  0  0  0  0  0  0  0  0  0  0
    6.1100   -3.9720   27.7480 C   0  0  0  0  0  0  0  0  0  0  0  0
    5.8190   -5.3220   27.7430 C   0  0  0  0  0  0  0  0  0  0  0  0
    6.0830   -6.0970   28.8770 C   0  0  0  0  0  0  0  0  0  0  0  0
    5.0370   -6.6760   29.5620 C   0  0  0  0  0  0  0  0  0  0  0  0
    5.2280   -7.1880   30.9500 C   0  0  0  0  0  0  0  0  0  0  0  0
    4.1000   -7.8320   31.7570 C   0  0  0  0  0  0  0  0  0  0  0  0
    2.7890   -7.8920   30.9910 C   0  0  0  0  0  0  0  0  0  0  0  0
    2.6380   -7.4160   29.7100 C   0  0  0  0  0  0  0  0  0  0  0  0
    1.4170   -7.5110   29.0960 F   0  0  0  0  0  0  0  0  0  0  0  0
    3.7810   -6.7990   28.9830 C   0  0  0  0  0  0  0  0  0  0  0  0
    5.7200   -4.7860   23.3890 C   0  0  0  0  0  0  0  0  0  0  0  0
    6.5080   -5.2840   22.3820 C   0  0  0  0  0  0  0  0  0  0  0  0
  1  2  1  0
  2  3  2  0
  2  4  1  0
  4  5  1  0
  5  6  1  0
  6  7  1  0
  7  8  1  0
  8  9  2  0
  8 10  1  0
 10 11  1  0
 11 12  1  0
 12 13  1  0
 13 14  1  0
 14 15  2  0
 15 16  1  0
 16 17  2  0
 17 18  1  0
 18 19  1  0
 14 20  1  0
 18 20  2  0
  7 21  1  0
  4 22  1  0
 21 22  1  0
M  END
