piperidine-amides-23346-covalent
     RDKit          3D

 23 25  0  0  0  0  0  0  0  0999 V2000
    7.1210   -3.3280   19.2630 C   0  0  0  0  0  0  0  0  0  0  0  0
    6.4170   -4.1240   20.2750 C   0  0  0  0  0  0  0  0  0  0  0  0
    5.3290   -4.6440   19.9260 O   0  0  0  0  0  0  0  0  0  0  0  0
    6.9750   -4.3510   21.5540 N   0  0  0  0  0  0  0  0  0  0  0  0
    7.6310   -3.2510   22.1620 C   0  0  0  0  0  0  0  0  0  0  0  0
    7.1660   -2.9030   23.4980 C   0  0  0  0  0  0  0  0  0  0  0  0
    6.3590   -3.9110   24.2280 C   0  0  0  0  0  0  0  0  0  0  0  0
    5.6180   -3.2530   25.3440 C   0  0  0  0  0  0  0  0  0  0  0  0
    4.4740   -2.8150   25.1360 O   0  0  0  0  0  0  0  0  0  0  0  0
    6.1660   -3.1220   26.6250 N   0  0  0  0  0  0  0  0  0  0  0  0
    6.3330   -1.8910   27.3170 C   0  0  0  0  0  0  0  0  0  0  0  0
    6.9790   -1.7300   28.5730 C   0  0  0  0  0  0  0  0  0  0  0  0
    7.1100   -0.3690   29.2750 C   0  0  0  0  0  0  0  0  0  0  0  0
    6.5650    0.7780   28.6430 C   0  0  0  0  0  0  0  0  0  0  0  0
    5.8470    0.6740   27.2600 C   0  0  0  0  0  0  0  0  0  0  0  0
    5.7820   -0.6930   26.6830 C   0  0  0  0  0  0  0  0  0  0  0  0
    6.0650   -4.3050   27.4420 C   0  0  0  0  0  0  0  0  0  0  0  0
    6.2510   -4.4030   28.8810 N   0  0  0  0  0  0  0  0  0  0  0  0
    6.1030   -5.6350   29.4540 N   0  0  0  0  0  0  0  0  0  0  0  0
    5.8000   -6.6150   28.5990 C   0  0  0  0  0  0  0  0  0  0  0  0
    5.7090   -5.9000   27.0230 S   0  0  0  0  0  0  0  0  0  0  0  0
    5.4650   -4.7310   23.3290 C   0  0  0  0  0  0  0  0  0  0  0  0
    6.4140   -5.4030   22.3350 C   0  0  0  0  0  0  0  0  0  0  0  0
  1  2  1  0
  2  3  2  0
  2  4  1  0
  4  5  1  0
  5  6  1  0
  6  7  1  0
  7  8  1  0
  8  9  2  0
  8 10  1  0
 10 11  1  0
 11 12  2  0
 12 13  1  0
 13 14  2  0
 14 15  1  0
 11 16  1  0
 15 16  2  0
 10 17  1  0
 17 18  2  0
 18 19  1  0
 19 20  2  0
 17 21  1  0
 20 21  1  0
  7 22  1  0
  4 23  1  0
 22 23  1  0
M  END
