piperidine-amides-6709-covalent
     RDKit          3D

 23 24  0  0  0  0  0  0  0  0999 V2000
    7.0640   -3.3190   19.3320 C   0  0  0  0  0  0  0  0  0  0  0  0
    6.3830   -4.1670   20.3240 C   0  0  0  0  0  0  0  0  0  0  0  0
    5.4070   -4.8730   19.9890 O   0  0  0  0  0  0  0  0  0  0  0  0
    6.8480   -4.2120   21.6460 N   0  0  0  0  0  0  0  0  0  0  0  0
    7.6620   -3.1070   22.1150 C   0  0  0  0  0  0  0  0  0  0  0  0
    7.4660   -2.9990   23.6260 C   0  0  0  0  0  0  0  0  0  0  0  0
    6.1050   -3.5900   23.9100 C   0  0  0  0  0  0  0  0  0  0  0  0
    5.6750   -3.2960   25.2910 C   0  0  0  0  0  0  0  0  0  0  0  0
    4.4600   -3.4030   25.5620 O   0  0  0  0  0  0  0  0  0  0  0  0
    6.6190   -2.9020   26.2660 N   0  0  0  0  0  0  0  0  0  0  0  0
    6.4950   -1.6410   26.9380 C   0  0  0  0  0  0  0  0  0  0  0  0
    7.1080   -1.5430   28.3280 C   0  0  0  0  0  0  0  0  0  0  0  0
    7.1000   -0.4470   29.1310 C   0  0  0  0  0  0  0  0  0  0  0  0
    7.7140   -0.5560   30.3500 C   0  0  0  0  0  0  0  0  0  0  0  0
    6.5020    0.6840   28.7020 C   0  0  0  0  0  0  0  0  0  0  0  0
    6.4380    1.8450   29.4360 C   0  0  0  0  0  0  0  0  0  0  0  0
    7.2130    3.0470   28.9410 C   0  0  0  0  0  0  0  0  0  0  0  0
    5.8610    0.7390   27.3670 C   0  0  0  0  0  0  0  0  0  0  0  0
    5.8090   -0.3960   26.3960 C   0  0  0  0  0  0  0  0  0  0  0  0
    5.2060   -0.1820   25.2620 O   0  0  0  0  0  0  0  0  0  0  0  0
    4.0330    0.5340   25.5540 C   0  0  0  0  0  0  0  0  0  0  0  0
    6.1590   -5.0780   23.6970 C   0  0  0  0  0  0  0  0  0  0  0  0
    6.5950   -5.3730   22.4360 C   0  0  0  0  0  0  0  0  0  0  0  0
  1  2  1  0
  2  3  2  0
  2  4  1  0
  4  5  1  0
  5  6  1  0
  6  7  1  0
  7  8  1  0
  8  9  2  0
  8 10  1  0
 10 11  1  0
 11 12  2  0
 12 13  1  0
 13 14  1  0
 13 15  2  0
 15 16  1  0
 16 17  1  0
 15 18  1  0
 11 19  1  0
 18 19  2  0
 19 20  1  0
 20 21  1  0
  7 22  1  0
  4 23  1  0
 22 23  1  0
M  END
