piperidine-amides-30904-covalent
     RDKit          3D

 28 31  0  0  0  0  0  0  0  0999 V2000
    7.0990   -3.3170   19.2770 C   0  0  0  0  0  0  0  0  0  0  0  0
    6.3740   -4.1220   20.2580 C   0  0  0  0  0  0  0  0  0  0  0  0
    5.3160   -4.6800   19.9300 O   0  0  0  0  0  0  0  0  0  0  0  0
    6.8860   -4.3260   21.5430 N   0  0  0  0  0  0  0  0  0  0  0  0
    6.6210   -5.5430   22.2710 C   0  0  0  0  0  0  0  0  0  0  0  0
    5.7450   -5.1200   23.4140 C   0  0  0  0  0  0  0  0  0  0  0  0
    6.3930   -4.0260   24.2050 C   0  0  0  0  0  0  0  0  0  0  0  0
    5.4640   -3.4430   25.1940 C   0  0  0  0  0  0  0  0  0  0  0  0
    4.6260   -2.5700   24.8460 O   0  0  0  0  0  0  0  0  0  0  0  0
    5.4470   -3.8170   26.5460 N   0  0  0  0  0  0  0  0  0  0  0  0
    4.2130   -4.0900   27.2720 C   0  0  0  0  0  0  0  0  0  0  0  0
    4.6010   -4.7760   28.5290 C   0  0  0  0  0  0  0  0  0  0  0  0
    5.7190   -4.1850   29.2670 C   0  0  0  0  0  0  0  0  0  0  0  0
    5.3690   -2.8270   29.8310 C   0  0  0  0  0  0  0  0  0  0  0  0
    6.2550   -1.7400   29.7320 N   0  0  0  0  0  0  0  0  0  0  0  0
    5.4620   -0.7370   30.4070 C   0  0  0  0  0  0  0  0  0  0  0  0
    5.9460    0.6510   30.5870 C   0  0  0  0  0  0  0  0  0  0  0  0
    5.2420    1.6180   31.2080 C   0  0  0  0  0  0  0  0  0  0  0  0
    4.0050    1.2590   31.6900 C   0  0  0  0  0  0  0  0  0  0  0  0
    3.0650    2.2010   32.4160 C   0  0  0  0  0  0  0  0  0  0  0  0
    3.4550   -0.1220   31.5440 C   0  0  0  0  0  0  0  0  0  0  0  0
    4.1110   -1.3310   30.8740 C   0  0  0  0  0  0  0  0  0  0  0  0
    4.2080   -2.4870   30.4860 C   0  0  0  0  0  0  0  0  0  0  0  0
    3.1040   -3.4480   30.7310 C   0  0  0  0  0  0  0  0  0  0  0  0
    6.8320   -4.2030   28.5200 C   0  0  0  0  0  0  0  0  0  0  0  0
    6.3710   -3.2920   27.3910 C   0  0  0  0  0  0  0  0  0  0  0  0
    6.9310   -2.8870   23.4130 C   0  0  0  0  0  0  0  0  0  0  0  0
    7.7190   -3.3650   22.2320 C   0  0  0  0  0  0  0  0  0  0  0  0
  1  2  1  0
  2  3  2  0
  2  4  1  0
  4  5  1  0
  5  6  1  0
  6  7  1  0
  7  8  1  0
  8  9  2  0
  8 10  1  0
 10 11  1  0
 11 12  1  0
 12 13  1  0
 13 14  1  0
 14 15  1  0
 15 16  1  0
 16 17  2  0
 17 18  1  0
 18 19  2  0
 19 20  1  0
 19 21  1  0
 16 22  1  0
 21 22  2  0
 14 23  2  0
 22 23  1  0
 23 24  1  0
 13 25  1  0
 10 26  1  0
 25 26  1  0
  7 27  1  0
  4 28  1  0
 27 28  1  0
M  END
