piperidine-amides-6272-covalent
     RDKit          3D

 25 26  0  0  0  0  0  0  0  0999 V2000
    7.0860   -3.3220   19.3520 C   0  0  0  0  0  0  0  0  0  0  0  0
    6.4010   -4.1850   20.3220 C   0  0  0  0  0  0  0  0  0  0  0  0
    5.3860   -4.8340   19.9830 O   0  0  0  0  0  0  0  0  0  0  0  0
    6.9120   -4.3260   21.6220 N   0  0  0  0  0  0  0  0  0  0  0  0
    6.5750   -5.4880   22.4030 C   0  0  0  0  0  0  0  0  0  0  0  0
    5.7450   -4.9680   23.5800 C   0  0  0  0  0  0  0  0  0  0  0  0
    6.5170   -3.8270   24.2140 C   0  0  0  0  0  0  0  0  0  0  0  0
    5.7300   -3.2520   25.3240 C   0  0  0  0  0  0  0  0  0  0  0  0
    4.4930   -3.1530   25.1800 O   0  0  0  0  0  0  0  0  0  0  0  0
    6.3660   -2.8240   26.5140 N   0  0  0  0  0  0  0  0  0  0  0  0
    6.2900   -1.4420   26.9200 C   0  0  0  0  0  0  0  0  0  0  0  0
    6.2910   -0.3270   25.9130 C   0  0  0  0  0  0  0  0  0  0  0  0
    6.2230    0.9830   26.3110 C   0  0  0  0  0  0  0  0  0  0  0  0
    6.1580    1.2700   27.6460 C   0  0  0  0  0  0  0  0  0  0  0  0
    6.1470    0.2790   28.5920 C   0  0  0  0  0  0  0  0  0  0  0  0
    6.1990   -1.0590   28.3500 C   0  0  0  0  0  0  0  0  0  0  0  0
    6.1490   -2.0430   29.4630 C   0  0  0  0  0  0  0  0  0  0  0  0
    6.5580   -3.1950   29.3590 O   0  0  0  0  0  0  0  0  0  0  0  0
    5.5670   -1.6490   30.6260 N   0  0  0  0  0  0  0  0  0  0  0  0
    6.1810   -0.1480   31.0880 S   0  0  0  0  0  0  0  0  0  0  0  0
    6.5790    0.0770   32.7770 C   0  0  0  0  0  0  0  0  0  0  0  0
    7.7560   -0.2560   30.4400 C   0  0  0  0  0  0  0  0  0  0  0  0
    5.3530    0.9880   30.5440 O   0  0  0  0  0  0  0  0  0  0  0  0
    6.8130   -2.7440   23.2080 C   0  0  0  0  0  0  0  0  0  0  0  0
    7.6830   -3.2820   22.2580 C   0  0  0  0  0  0  0  0  0  0  0  0
  1  2  1  0
  2  3  2  0
  2  4  1  0
  4  5  1  0
  5  6  1  0
  6  7  1  0
  7  8  1  0
  8  9  2  0
  8 10  1  0
 10 11  1  0
 11 12  2  0
 12 13  1  0
 13 14  2  0
 14 15  1  0
 11 16  1  0
 15 16  2  0
 16 17  1  0
 17 18  2  0
 17 19  1  0
 19 20  2  0
 20 21  1  0
 20 22  1  0
 20 23  2  0
  7 24  1  0
  4 25  1  0
 24 25  1  0
M  END
