piperidine-amides-10931-covalent
     RDKit          3D

 21 22  0  0  0  0  0  0  0  0999 V2000
    7.1310   -3.2740   19.2240 C   0  0  0  0  0  0  0  0  0  0  0  0
    6.3610   -4.0290   20.2130 C   0  0  0  0  0  0  0  0  0  0  0  0
    5.2790   -4.5320   19.8780 O   0  0  0  0  0  0  0  0  0  0  0  0
    6.8430   -4.2560   21.5110 N   0  0  0  0  0  0  0  0  0  0  0  0
    6.5020   -5.4390   22.2600 C   0  0  0  0  0  0  0  0  0  0  0  0
    5.7710   -4.9290   23.4730 C   0  0  0  0  0  0  0  0  0  0  0  0
    6.5400   -3.8500   24.1780 C   0  0  0  0  0  0  0  0  0  0  0  0
    5.8300   -3.3170   25.3640 C   0  0  0  0  0  0  0  0  0  0  0  0
    4.5690   -3.1790   25.3470 O   0  0  0  0  0  0  0  0  0  0  0  0
    6.5050   -2.9350   26.5380 N   0  0  0  0  0  0  0  0  0  0  0  0
    6.1750   -3.5280   27.8560 C   0  0  0  0  0  0  0  0  0  0  0  0
    5.8480   -4.9680   27.7120 C   0  0  0  0  0  0  0  0  0  0  0  0
    6.4700   -5.9060   28.6590 C   0  0  0  0  0  0  0  0  0  0  0  0
    5.4970   -6.5190   29.6270 C   0  0  0  0  0  0  0  0  0  0  0  0
    4.5960   -7.1270   28.6620 N   0  0  0  0  0  0  0  0  0  0  0  0
    3.5600   -7.7830   29.4130 C   0  0  0  0  0  0  0  0  0  0  0  0
    3.7800   -7.6100   30.6840 N   0  0  0  0  0  0  0  0  0  0  0  0
    2.9970   -8.0960   31.6480 C   0  0  0  0  0  0  0  0  0  0  0  0
    4.8760   -6.8960   30.8190 N   0  0  0  0  0  0  0  0  0  0  0  0
    6.8740   -2.7340   23.2190 C   0  0  0  0  0  0  0  0  0  0  0  0
    7.6240   -3.2250   22.1520 C   0  0  0  0  0  0  0  0  0  0  0  0
  1  2  1  0
  2  3  2  0
  2  4  1  0
  4  5  1  0
  5  6  1  0
  6  7  1  0
  7  8  1  0
  8  9  2  0
  8 10  1  0
 10 11  1  0
 11 12  1  0
 12 13  1  0
 13 14  1  0
 14 15  1  0
 15 16  2  0
 16 17  1  0
 17 18  1  0
 14 19  2  0
 17 19  1  0
  7 20  1  0
  4 21  1  0
 20 21  1  0
M  END
