piperidine-amides-24116-covalent
     RDKit          3D

 24 26  0  0  0  0  0  0  0  0999 V2000
    7.1040   -3.3480   19.2750 C   0  0  0  0  0  0  0  0  0  0  0  0
    6.4350   -4.1830   20.2850 C   0  0  0  0  0  0  0  0  0  0  0  0
    5.3490   -4.7130   19.9480 O   0  0  0  0  0  0  0  0  0  0  0  0
    7.0270   -4.4380   21.5500 N   0  0  0  0  0  0  0  0  0  0  0  0
    6.5360   -5.5290   22.3040 C   0  0  0  0  0  0  0  0  0  0  0  0
    6.0520   -5.1390   23.6220 C   0  0  0  0  0  0  0  0  0  0  0  0
    6.6730   -3.9300   24.2190 C   0  0  0  0  0  0  0  0  0  0  0  0
    5.7790   -3.3890   25.2830 C   0  0  0  0  0  0  0  0  0  0  0  0
    4.7720   -2.7370   24.9580 O   0  0  0  0  0  0  0  0  0  0  0  0
    6.0320   -3.6100   26.6370 N   0  0  0  0  0  0  0  0  0  0  0  0
    5.3790   -4.5080   27.4770 C   0  0  0  0  0  0  0  0  0  0  0  0
    6.2850   -5.0460   28.4610 C   0  0  2  0  0  0  0  0  0  0  0  0
    6.0410   -4.8220   29.6740 O   0  0  0  0  0  0  0  0  0  0  0  0
    7.5780   -4.2910   28.0570 C   0  0  0  0  0  0  0  0  0  0  0  0
    7.2600   -3.2170   27.2250 C   0  0  2  0  0  0  0  0  0  0  0  0
    6.9140   -2.2980   28.4180 C   0  0  0  0  0  0  0  0  0  0  0  0
    8.1850   -1.7070   28.8830 C   0  0  0  0  0  0  0  0  0  0  0  0
    7.8360   -0.7810   30.0810 C   0  0  0  0  0  0  0  0  0  0  0  0
    6.5120   -0.4390   30.7520 C   0  0  0  0  0  0  0  0  0  0  0  0
    5.3190   -1.1330   30.1390 C   0  0  0  0  0  0  0  0  0  0  0  0
    4.0680   -0.9150   30.6460 F   0  0  0  0  0  0  0  0  0  0  0  0
    5.5330   -2.0710   28.9610 C   0  0  0  0  0  0  0  0  0  0  0  0
    6.9720   -2.8730   23.1990 C   0  0  0  0  0  0  0  0  0  0  0  0
    7.8070   -3.4410   22.2480 C   0  0  0  0  0  0  0  0  0  0  0  0
  1  2  1  0
  2  3  2  0
  2  4  1  0
  4  5  1  0
  5  6  1  0
  6  7  1  0
  7  8  1  0
  8  9  2  0
  8 10  1  0
 10 11  1  0
 11 12  1  0
 12 13  1  1
 12 14  1  0
 10 15  1  0
 14 15  1  0
 15 16  1  1
 16 17  2  0
 17 18  1  0
 18 19  2  0
 19 20  1  0
 20 21  1  0
 16 22  1  0
 20 22  2  0
  7 23  1  0
  4 24  1  0
 23 24  1  0
M  END
