piperidine-amides-9331-covalent
     RDKit          3D

 19 20  0  0  0  0  0  0  0  0999 V2000
    7.1060   -3.3010   19.2560 C   0  0  0  0  0  0  0  0  0  0  0  0
    6.3350   -4.0360   20.2610 C   0  0  0  0  0  0  0  0  0  0  0  0
    5.2960   -4.6160   19.9130 O   0  0  0  0  0  0  0  0  0  0  0  0
    6.7730   -4.1400   21.5910 N   0  0  0  0  0  0  0  0  0  0  0  0
    7.7110   -3.1770   22.1550 C   0  0  0  0  0  0  0  0  0  0  0  0
    7.2710   -2.8410   23.5560 C   0  0  0  0  0  0  0  0  0  0  0  0
    6.0340   -3.5790   23.9570 C   0  0  0  0  0  0  0  0  0  0  0  0
    5.6170   -3.2530   25.3420 C   0  0  0  0  0  0  0  0  0  0  0  0
    4.3960   -3.0390   25.6010 O   0  0  0  0  0  0  0  0  0  0  0  0
    6.5280   -3.1400   26.4130 N   0  0  0  0  0  0  0  0  0  0  0  0
    6.1520   -3.4520   27.8170 C   0  0  0  0  0  0  0  0  0  0  0  0
    5.3140   -4.6750   27.8710 C   0  0  0  0  0  0  0  0  0  0  0  0
    5.9610   -5.8020   28.0980 N   0  0  0  0  0  0  0  0  0  0  0  0
    5.0530   -6.8370   28.1250 C   0  0  0  0  0  0  0  0  0  0  0  0
    3.8480   -6.3240   27.9080 N   0  0  0  0  0  0  0  0  0  0  0  0
    3.9850   -4.9850   27.7490 N   0  0  0  0  0  0  0  0  0  0  0  0
    2.9540   -4.0140   27.4950 C   0  0  0  0  0  0  0  0  0  0  0  0
    6.0290   -5.0390   23.6560 C   0  0  0  0  0  0  0  0  0  0  0  0
    6.6080   -5.3560   22.3340 C   0  0  0  0  0  0  0  0  0  0  0  0
  1  2  1  0
  2  3  2  0
  2  4  1  0
  4  5  1  0
  5  6  1  0
  6  7  1  0
  7  8  1  0
  8  9  2  0
  8 10  1  0
 10 11  1  0
 11 12  1  0
 12 13  2  0
 13 14  1  0
 14 15  2  0
 12 16  1  0
 15 16  1  0
 16 17  1  0
  7 18  1  0
  4 19  1  0
 18 19  1  0
M  END
