piperidine-amides-25290-covalent
     RDKit          3D

 24 25  0  0  0  0  0  0  0  0999 V2000
    7.1380   -3.2650   19.1960 C   0  0  0  0  0  0  0  0  0  0  0  0
    6.3290   -4.0070   20.1970 C   0  0  0  0  0  0  0  0  0  0  0  0
    5.2470   -4.4570   19.8350 O   0  0  0  0  0  0  0  0  0  0  0  0
    6.8320   -4.2160   21.4760 N   0  0  0  0  0  0  0  0  0  0  0  0
    6.5690   -5.4330   22.1910 C   0  0  0  0  0  0  0  0  0  0  0  0
    5.8860   -5.0880   23.4810 C   0  0  0  0  0  0  0  0  0  0  0  0
    6.6810   -3.9970   24.2010 C   0  0  0  0  0  0  0  0  0  0  0  0
    5.8460   -3.5840   25.3320 C   0  0  0  0  0  0  0  0  0  0  0  0
    4.6200   -3.4820   25.1790 O   0  0  0  0  0  0  0  0  0  0  0  0
    6.3990   -3.2890   26.5860 N   0  0  0  0  0  0  0  0  0  0  0  0
    5.6070   -2.3090   27.2910 C   0  0  0  0  0  0  0  0  0  0  0  0
    5.8940   -0.9240   26.7380 C   0  0  0  0  0  0  0  0  0  0  0  0
    5.1150   -0.7350   25.5930 F   0  0  0  0  0  0  0  0  0  0  0  0
    5.5870    0.0980   27.6260 F   0  0  0  0  0  0  0  0  0  0  0  0
    7.2430   -4.2640   27.1300 C   0  0  1  0  0  0  0  0  0  0  0  0
    6.7300   -5.4810   26.8510 C   0  0  0  0  0  0  0  0  0  0  0  0
    8.6460   -4.2360   26.5110 C   0  0  0  0  0  0  0  0  0  0  0  0
    9.7380   -5.2420   26.6570 C   0  0  0  0  0  0  0  0  0  0  0  0
   10.8000   -4.7540   25.9370 N   0  0  0  0  0  0  0  0  0  0  0  0
   10.4820   -3.5740   25.3710 N   0  0  0  0  0  0  0  0  0  0  0  0
   11.4700   -2.8870   24.5830 C   0  0  0  0  0  0  0  0  0  0  0  0
    9.1650   -3.1670   25.6580 C   0  0  0  0  0  0  0  0  0  0  0  0
    7.0780   -2.8330   23.3800 C   0  0  0  0  0  0  0  0  0  0  0  0
    7.6600   -3.2030   22.0700 C   0  0  0  0  0  0  0  0  0  0  0  0
  1  2  1  0
  2  3  2  0
  2  4  1  0
  4  5  1  0
  5  6  1  0
  6  7  1  0
  7  8  1  0
  8  9  2  0
  8 10  1  0
 10 11  1  0
 11 12  1  0
 12 13  1  0
 12 14  1  0
 10 15  1  0
 15 16  1  6
 15 17  1  0
 17 18  1  0
 18 19  2  0
 19 20  1  0
 20 21  1  0
 17 22  2  0
 20 22  1  0
  7 23  1  0
  4 24  1  0
 23 24  1  0
M  END
