piperidine-amides-31719-covalent
     RDKit          3D

 28 31  0  0  0  0  0  0  0  0999 V2000
    7.0560   -3.4360   19.3870 C   0  0  0  0  0  0  0  0  0  0  0  0
    6.3730   -4.2100   20.3970 C   0  0  0  0  0  0  0  0  0  0  0  0
    5.3860   -4.9070   20.0050 O   0  0  0  0  0  0  0  0  0  0  0  0
    6.7820   -4.2650   21.7530 N   0  0  0  0  0  0  0  0  0  0  0  0
    6.6500   -5.5960   22.4180 C   0  0  0  0  0  0  0  0  0  0  0  0
    5.9100   -5.2500   23.7850 C   0  0  0  0  0  0  0  0  0  0  0  0
    6.3250   -3.8450   24.1170 C   0  0  0  0  0  0  0  0  0  0  0  0
    5.7120   -3.1360   25.4190 C   0  0  0  0  0  0  0  0  0  0  0  0
    5.3150   -2.0410   25.0680 O   0  0  0  0  0  0  0  0  0  0  0  0
    5.7080   -3.8010   26.5230 N   0  0  0  0  0  0  0  0  0  0  0  0
    5.2520   -4.0170   27.7580 C   0  0  0  0  0  0  0  0  0  0  0  0
    5.7400   -4.4030   28.9370 C   0  0  0  0  0  0  0  0  0  0  0  0
    6.1990   -5.7270   28.8870 C   0  0  0  0  0  0  0  0  0  0  0  0
    5.1910   -6.8150   28.7750 C   0  0  0  0  0  0  0  0  0  0  0  0
    4.4810   -6.3780   30.0760 C   0  0  0  0  0  0  0  0  0  0  0  0
    5.0540   -6.8240   31.3010 N   0  0  0  0  0  0  0  0  0  0  0  0
    4.1370   -6.2290   32.2150 C   0  0  0  0  0  0  0  0  0  0  0  0
    4.3210   -6.4000   33.6010 C   0  0  0  0  0  0  0  0  0  0  0  0
    3.3500   -7.4160   33.0360 C   0  0  0  0  0  0  0  0  0  0  0  0
    3.8150   -8.6900   33.7350 C   0  0  0  0  0  0  0  0  0  0  0  0
    4.9410   -8.3880   34.4540 C   0  0  0  0  0  0  0  0  0  0  0  0
    5.3830   -7.0720   34.2250 C   0  0  0  0  0  0  0  0  0  0  0  0
    3.1510   -5.5230   31.5630 N   0  0  0  0  0  0  0  0  0  0  0  0
    3.3340   -5.5940   30.2470 O   0  0  0  0  0  0  0  0  0  0  0  0
    7.0430   -5.5970   27.5880 C   0  0  0  0  0  0  0  0  0  0  0  0
    6.6660   -4.9020   26.4080 C   0  0  0  0  0  0  0  0  0  0  0  0
    7.6800   -3.3920   23.7390 C   0  0  0  0  0  0  0  0  0  0  0  0
    7.7310   -3.2830   22.2520 C   0  0  0  0  0  0  0  0  0  0  0  0
  1  2  1  0
  2  3  2  0
  2  4  1  0
  4  5  1  0
  5  6  1  0
  6  7  1  0
  7  8  1  0
  8  9  2  0
  8 10  1  0
 10 11  1  0
 11 12  1  0
 12 13  1  0
 13 14  1  0
 14 15  1  0
 15 16  2  0
 16 17  1  0
 17 18  1  0
 18 19  1  0
 19 20  1  0
 20 21  1  0
 18 22  1  0
 21 22  1  0
 17 23  2  0
 15 24  1  0
 23 24  1  0
 13 25  1  0
 10 26  1  0
 25 26  1  0
  7 27  1  0
  4 28  1  0
 27 28  1  0
M  END
