piperidine-amides-2224-covalent
     RDKit          3D

 28 31  0  0  0  0  0  0  0  0999 V2000
    7.1240   -3.2480   19.1450 C   0  0  0  0  0  0  0  0  0  0  0  0
    6.3430   -3.9770   20.1760 C   0  0  0  0  0  0  0  0  0  0  0  0
    5.2630   -4.4570   19.8410 O   0  0  0  0  0  0  0  0  0  0  0  0
    6.8720   -4.1400   21.4490 N   0  0  0  0  0  0  0  0  0  0  0  0
    6.6320   -5.3240   22.2230 C   0  0  0  0  0  0  0  0  0  0  0  0
    6.0210   -4.9230   23.5290 C   0  0  0  0  0  0  0  0  0  0  0  0
    6.7040   -3.6570   24.0580 C   0  0  0  0  0  0  0  0  0  0  0  0
    5.8980   -3.1290   25.1640 C   0  0  0  0  0  0  0  0  0  0  0  0
    4.7770   -2.6530   24.9370 O   0  0  0  0  0  0  0  0  0  0  0  0
    6.3800   -3.1660   26.4750 N   0  0  0  0  0  0  0  0  0  0  0  0
    5.4380   -3.5630   27.4770 C   0  0  0  0  0  0  0  0  0  0  0  0
    5.7800   -4.9590   27.9050 C   0  0  0  0  0  0  0  0  0  0  0  0
    6.8330   -5.0660   28.8490 N   0  0  0  0  0  0  0  0  0  0  0  0
    7.0760   -6.2870   29.1750 N   0  0  0  0  0  0  0  0  0  0  0  0
    6.2030   -7.0200   28.4700 N   0  0  0  0  0  0  0  0  0  0  0  0
    5.4200   -6.2370   27.7030 N   0  0  0  0  0  0  0  0  0  0  0  0
    4.3860   -6.7130   26.8310 C   0  0  0  0  0  0  0  0  0  0  0  0
    4.3970   -6.6370   25.4640 C   0  0  0  0  0  0  0  0  0  0  0  0
    3.3930   -7.1220   24.6580 C   0  0  0  0  0  0  0  0  0  0  0  0
    2.1220   -7.8090   25.0830 C   0  0  0  0  0  0  0  0  0  0  0  0
    2.1280   -7.8770   26.5580 C   0  0  0  0  0  0  0  0  0  0  0  0
    0.8340   -8.5730   26.9500 C   0  0  0  0  0  0  0  0  0  0  0  0
    0.6330   -8.7510   28.4250 C   0  0  0  0  0  0  0  0  0  0  0  0
    1.6730   -8.2550   29.3580 C   0  0  0  0  0  0  0  0  0  0  0  0
    2.9230   -7.5770   28.8500 C   0  0  0  0  0  0  0  0  0  0  0  0
    3.1200   -7.4000   27.3900 C   0  0  0  0  0  0  0  0  0  0  0  0
    6.8140   -2.5820   23.0050 C   0  0  0  0  0  0  0  0  0  0  0  0
    7.6640   -3.0860   22.0630 C   0  0  0  0  0  0  0  0  0  0  0  0
  1  2  1  0
  2  3  2  0
  2  4  1  0
  4  5  1  0
  5  6  1  0
  6  7  1  0
  7  8  1  0
  8  9  2  0
  8 10  1  0
 10 11  1  0
 11 12  1  0
 12 13  2  0
 13 14  1  0
 14 15  2  0
 12 16  1  0
 15 16  1  0
 16 17  1  0
 17 18  2  0
 18 19  1  0
 19 20  2  0
 20 21  1  0
 21 22  1  0
 22 23  2  0
 23 24  1  0
 24 25  2  0
 17 26  1  0
 21 26  2  0
 25 26  1  0
  7 27  1  0
  4 28  1  0
 27 28  1  0
M  END
