piperidine-amides-535-covalent
     RDKit          3D

 26 27  0  0  0  0  0  0  0  0999 V2000
    7.0200   -3.3810   19.3200 C   0  0  0  0  0  0  0  0  0  0  0  0
    6.3440   -4.1400   20.3530 C   0  0  0  0  0  0  0  0  0  0  0  0
    5.3590   -4.8480   19.9850 O   0  0  0  0  0  0  0  0  0  0  0  0
    6.7450   -4.1620   21.7170 N   0  0  0  0  0  0  0  0  0  0  0  0
    7.6520   -3.0570   22.1570 C   0  0  0  0  0  0  0  0  0  0  0  0
    7.7010   -3.2640   23.7140 C   0  0  0  0  0  0  0  0  0  0  0  0
    6.3160   -3.7330   24.0290 C   0  0  0  0  0  0  0  0  0  0  0  0
    5.6740   -3.0600   25.3270 C   0  0  0  0  0  0  0  0  0  0  0  0
    5.1010   -2.0380   24.9840 O   0  0  0  0  0  0  0  0  0  0  0  0
    5.8780   -3.7290   26.4030 N   0  0  0  0  0  0  0  0  0  0  0  0
    5.9130   -4.3310   27.6380 C   0  0  1  0  0  0  0  0  0  0  0  0
    6.6060   -5.2480   28.3880 C   0  0  0  0  0  0  0  0  0  0  0  0
    5.6540   -3.2430   28.6460 C   0  0  0  0  0  0  0  0  0  0  0  0
    6.5390   -2.0740   28.5480 C   0  0  0  0  0  0  0  0  0  0  0  0
    6.3140   -0.9390   29.5510 C   0  0  0  0  0  0  0  0  0  0  0  0
    5.2890   -1.0650   30.5010 C   0  0  0  0  0  0  0  0  0  0  0  0
    5.1870    0.4590   31.6610 Br  0  0  0  0  0  0  0  0  0  0  0  0
    4.3210   -2.0390   30.8100 C   0  0  0  0  0  0  0  0  0  0  0  0
    4.6510   -3.1010   29.7550 C   0  0  0  0  0  0  0  0  0  0  0  0
    3.8410   -4.0350   29.9320 O   0  0  0  0  0  0  0  0  0  0  0  0
    2.6540   -3.7470   29.2690 C   0  0  0  0  0  0  0  0  0  0  0  0
    1.6580   -4.0880   30.1530 C   0  0  0  0  0  0  0  0  0  0  0  0
    0.7900   -5.1050   29.8460 C   0  0  0  0  0  0  0  0  0  0  0  0
   -0.1440   -4.9530   29.0230 O   0  0  0  0  0  0  0  0  0  0  0  0
    6.1130   -5.2020   23.7560 C   0  0  0  0  0  0  0  0  0  0  0  0
    6.6480   -5.3980   22.4870 C   0  0  0  0  0  0  0  0  0  0  0  0
  1  2  1  0
  2  3  2  0
  2  4  1  0
  4  5  1  0
  5  6  1  0
  6  7  1  0
  7  8  1  0
  8  9  2  0
  8 10  1  0
 10 11  1  0
 11 12  1  1
 11 13  1  0
 13 14  2  0
 14 15  1  0
 15 16  2  0
 16 17  1  0
 16 18  1  0
 13 19  1  0
 18 19  2  0
 19 20  1  0
 20 21  1  0
 21 22  1  0
 22 23  1  0
 23 24  1  0
  7 25  1  0
  4 26  1  0
 25 26  1  0
M  END
