piperidine-amides-8698-covalent
     RDKit          3D

 23 25  0  0  0  0  0  0  0  0999 V2000
    7.0120   -3.3330   19.3680 C   0  0  0  0  0  0  0  0  0  0  0  0
    6.3550   -4.1770   20.3720 C   0  0  0  0  0  0  0  0  0  0  0  0
    5.4080   -4.8920   19.9900 O   0  0  0  0  0  0  0  0  0  0  0  0
    6.7960   -4.2000   21.7280 N   0  0  0  0  0  0  0  0  0  0  0  0
    7.6920   -3.1670   22.1900 C   0  0  0  0  0  0  0  0  0  0  0  0
    7.5000   -2.9850   23.6590 C   0  0  0  0  0  0  0  0  0  0  0  0
    6.1320   -3.5460   23.9220 C   0  0  0  0  0  0  0  0  0  0  0  0
    5.6750   -3.2340   25.3230 C   0  0  0  0  0  0  0  0  0  0  0  0
    4.4760   -3.3770   25.5450 O   0  0  0  0  0  0  0  0  0  0  0  0
    6.6200   -2.8050   26.2530 N   0  0  0  0  0  0  0  0  0  0  0  0
    6.4760   -1.5670   26.9540 C   0  0  0  0  0  0  0  0  0  0  0  0
    6.0200   -0.3930   26.3740 C   0  0  0  0  0  0  0  0  0  0  0  0
    5.8890    0.7800   27.0690 C   0  0  0  0  0  0  0  0  0  0  0  0
    6.1860    0.9490   28.4170 C   0  0  0  0  0  0  0  0  0  0  0  0
    6.6870   -0.2790   29.1260 C   0  0  0  0  0  0  0  0  0  0  0  0
    6.9560   -0.0880   30.4370 N   0  0  0  0  0  0  0  0  0  0  0  0
    6.0140    0.0880   31.3670 C   0  0  0  0  0  0  0  0  0  0  0  0
    6.4350    0.2960   32.7570 C   0  0  0  0  0  0  0  0  0  0  0  0
    7.8760    0.2230   32.5750 N   0  0  0  0  0  0  0  0  0  0  0  0
    8.2090   -0.0130   31.1710 C   0  0  0  0  0  0  0  0  0  0  0  0
    6.8270   -1.5040   28.3940 C   0  0  0  0  0  0  0  0  0  0  0  0
    6.1660   -5.0530   23.7580 C   0  0  0  0  0  0  0  0  0  0  0  0
    6.6710   -5.4120   22.5090 C   0  0  0  0  0  0  0  0  0  0  0  0
  1  2  1  0
  2  3  2  0
  2  4  1  0
  4  5  1  0
  5  6  1  0
  6  7  1  0
  7  8  1  0
  8  9  2  0
  8 10  1  0
 10 11  1  0
 11 12  2  0
 12 13  1  0
 13 14  2  0
 14 15  1  0
 15 16  1  0
 16 17  1  0
 17 18  2  0
 18 19  1  0
 16 20  1  0
 19 20  2  0
 11 21  1  0
 15 21  2  0
  7 22  1  0
  4 23  1  0
 22 23  1  0
M  END
