piperidine-amides-3316-covalent
     RDKit          3D

 22 23  0  0  0  0  0  0  0  0999 V2000
    7.0890   -3.3740   19.3100 C   0  0  0  0  0  0  0  0  0  0  0  0
    6.3640   -4.1700   20.2890 C   0  0  0  0  0  0  0  0  0  0  0  0
    5.3370   -4.7610   19.9620 O   0  0  0  0  0  0  0  0  0  0  0  0
    6.8980   -4.3240   21.6100 N   0  0  0  0  0  0  0  0  0  0  0  0
    7.7220   -3.2690   22.1550 C   0  0  0  0  0  0  0  0  0  0  0  0
    7.3780   -2.9460   23.5840 C   0  0  0  0  0  0  0  0  0  0  0  0
    6.0590   -3.6050   23.9590 C   0  0  0  0  0  0  0  0  0  0  0  0
    5.7080   -3.2300   25.3490 C   0  0  0  0  0  0  0  0  0  0  0  0
    4.5500   -3.2790   25.8040 O   0  0  0  0  0  0  0  0  0  0  0  0
    6.7690   -2.8040   26.1610 N   0  0  0  0  0  0  0  0  0  0  0  0
    6.6400   -1.6380   27.0060 C   0  0  0  0  0  0  0  0  0  0  0  0
    7.1200   -1.5990   28.4270 C   0  0  0  0  0  0  0  0  0  0  0  0
    6.9860   -0.4650   29.2120 C   0  0  0  0  0  0  0  0  0  0  0  0
    6.3920    0.7120   28.7000 C   0  0  0  0  0  0  0  0  0  0  0  0
    5.9200    0.7740   27.3980 C   0  0  0  0  0  0  0  0  0  0  0  0
    6.0200   -0.3630   26.5120 C   0  0  0  0  0  0  0  0  0  0  0  0
    5.5360   -0.1740   25.2760 N   0  0  0  0  0  0  0  0  0  0  0  0
    4.1820    0.1800   24.9360 C   0  0  0  0  0  0  0  0  0  0  0  0
    3.6050   -0.7530   24.1010 C   0  0  0  0  0  0  0  0  0  0  0  0
    3.6660    1.2840   25.4160 O   0  0  0  0  0  0  0  0  0  0  0  0
    5.9810   -5.0600   23.6910 C   0  0  0  0  0  0  0  0  0  0  0  0
    6.5090   -5.4440   22.3880 C   0  0  0  0  0  0  0  0  0  0  0  0
  1  2  1  0
  2  3  2  0
  2  4  1  0
  4  5  1  0
  5  6  1  0
  6  7  1  0
  7  8  1  0
  8  9  2  0
  8 10  1  0
 10 11  1  0
 11 12  2  0
 12 13  1  0
 13 14  2  0
 14 15  1  0
 11 16  1  0
 15 16  2  0
 16 17  1  0
 17 18  1  0
 18 19  1  0
 18 20  2  0
  7 21  1  0
  4 22  1  0
 21 22  1  0
M  END
