piperidine-amides-32896-covalent
     RDKit          3D

 29 31  0  0  0  0  0  0  0  0999 V2000
    7.0610   -3.3350   19.3450 C   0  0  0  0  0  0  0  0  0  0  0  0
    6.3630   -4.2090   20.3280 C   0  0  0  0  0  0  0  0  0  0  0  0
    5.3470   -4.8260   19.9700 O   0  0  0  0  0  0  0  0  0  0  0  0
    6.8930   -4.3640   21.6270 N   0  0  0  0  0  0  0  0  0  0  0  0
    6.7120   -5.6090   22.3520 C   0  0  0  0  0  0  0  0  0  0  0  0
    6.3300   -5.2970   23.8100 C   0  0  0  0  0  0  0  0  0  0  0  0
    6.1660   -3.8220   23.9320 C   0  0  0  0  0  0  0  0  0  0  0  0
    5.6040   -3.3390   25.2110 C   0  0  0  0  0  0  0  0  0  0  0  0
    4.7080   -2.4990   25.1170 O   0  0  0  0  0  0  0  0  0  0  0  0
    6.0440   -3.8050   26.4470 N   0  0  0  0  0  0  0  0  0  0  0  0
    5.4910   -4.9310   27.0940 C   0  0  0  0  0  0  0  0  0  0  0  0
    5.0030   -4.9090   28.3730 C   0  0  0  0  0  0  0  0  0  0  0  0
    5.6440   -4.1260   29.3030 C   0  0  0  0  0  0  0  0  0  0  0  0
    4.6660   -3.1610   29.8080 N   0  0  0  0  0  0  0  0  0  0  0  0
    3.5910   -3.4320   30.5930 C   0  0  0  0  0  0  0  0  0  0  0  0
    3.1570   -4.6630   30.8180 O   0  0  0  0  0  0  0  0  0  0  0  0
    3.0820   -2.1890   31.0780 N   0  0  0  0  0  0  0  0  0  0  0  0
    3.9730   -1.5180   31.9620 C   0  0  0  0  0  0  0  0  0  0  0  0
    4.9850   -0.4210   31.6250 C   0  0  0  0  0  0  0  0  0  0  0  0
    5.7940    0.0700   32.8290 C   0  0  0  0  0  0  0  0  0  0  0  0
    5.5760   -0.4760   34.0840 C   0  0  0  0  0  0  0  0  0  0  0  0
    6.3310   -0.0250   35.1430 O   0  0  0  0  0  0  0  0  0  0  0  0
    7.5630   -0.5970   35.5080 C   0  0  0  0  0  0  0  0  0  0  0  0
    4.6030   -1.4790   34.2610 C   0  0  0  0  0  0  0  0  0  0  0  0
    3.8360   -1.9770   33.2390 C   0  0  0  0  0  0  0  0  0  0  0  0
    6.7220   -3.4290   28.7420 C   0  0  0  0  0  0  0  0  0  0  0  0
    6.4000   -2.7720   27.4190 C   0  0  0  0  0  0  0  0  0  0  0  0
    7.4590   -3.1180   23.6350 C   0  0  0  0  0  0  0  0  0  0  0  0
    7.7290   -3.2930   22.1930 C   0  0  0  0  0  0  0  0  0  0  0  0
  1  2  1  0
  2  3  2  0
  2  4  1  0
  4  5  1  0
  5  6  1  0
  6  7  1  0
  7  8  1  0
  8  9  2  0
  8 10  1  0
 10 11  1  0
 11 12  1  0
 12 13  1  0
 13 14  1  0
 14 15  1  0
 15 16  2  0
 15 17  1  0
 17 18  1  0
 18 19  2  0
 19 20  1  0
 20 21  2  0
 21 22  1  0
 22 23  1  0
 21 24  1  0
 18 25  1  0
 24 25  2  0
 13 26  1  0
 10 27  1  0
 26 27  1  0
  7 28  1  0
  4 29  1  0
 28 29  1  0
M  END
