piperidine-amides-26839-covalent
     RDKit          3D

 25 27  0  0  0  0  0  0  0  0999 V2000
    7.0940   -3.3660   19.3480 C   0  0  0  0  0  0  0  0  0  0  0  0
    6.3970   -4.1940   20.3290 C   0  0  0  0  0  0  0  0  0  0  0  0
    5.3250   -4.7270   19.9480 O   0  0  0  0  0  0  0  0  0  0  0  0
    6.9550   -4.4130   21.5910 N   0  0  0  0  0  0  0  0  0  0  0  0
    6.5870   -5.5580   22.3720 C   0  0  0  0  0  0  0  0  0  0  0  0
    5.6950   -5.0740   23.4770 C   0  0  0  0  0  0  0  0  0  0  0  0
    6.3190   -3.9620   24.2900 C   0  0  0  0  0  0  0  0  0  0  0  0
    5.2950   -3.3890   25.1960 C   0  0  0  0  0  0  0  0  0  0  0  0
    4.3920   -2.7150   24.6700 O   0  0  0  0  0  0  0  0  0  0  0  0
    5.2400   -3.5260   26.6040 N   0  0  0  0  0  0  0  0  0  0  0  0
    6.4210   -3.4400   27.3700 C   0  0  0  0  0  0  0  0  0  0  0  0
    6.5370   -4.6620   28.2960 C   0  0  0  0  0  0  0  0  0  0  0  0
    5.3770   -4.4990   29.1670 N   0  0  0  0  0  0  0  0  0  0  0  0
    4.5270   -5.4910   29.4050 C   0  0  0  0  0  0  0  0  0  0  0  0
    4.3220   -6.4440   28.4270 C   0  0  0  0  0  0  0  0  0  0  0  0
    3.0520   -7.0480   28.4610 C   0  0  0  0  0  0  0  0  0  0  0  0
    2.5670   -7.2410   29.8090 N   0  0  0  0  0  0  0  0  0  0  0  0
    1.7760   -8.4460   29.9810 C   0  0  0  0  0  0  0  0  0  0  0  0
    3.5890   -7.1670   30.8100 C   0  0  0  0  0  0  0  0  0  0  0  0
    4.6010   -6.0860   30.6320 C   0  0  0  0  0  0  0  0  0  0  0  0
    4.7960   -3.2290   29.1250 C   0  0  1  0  0  0  0  0  0  0  0  0
    5.6500   -2.1680   29.7840 C   0  0  0  0  0  0  0  0  0  0  0  0
    4.6130   -2.7230   27.6400 C   0  0  0  0  0  0  0  0  0  0  0  0
    6.9310   -2.8620   23.4870 C   0  0  0  0  0  0  0  0  0  0  0  0
    7.6510   -3.3420   22.2480 C   0  0  0  0  0  0  0  0  0  0  0  0
  1  2  1  0
  2  3  2  0
  2  4  1  0
  4  5  1  0
  5  6  1  0
  6  7  1  0
  7  8  1  0
  8  9  2  0
  8 10  1  0
 10 11  1  0
 11 12  1  0
 12 13  1  0
 13 14  1  0
 14 15  1  0
 15 16  1  0
 16 17  1  0
 17 18  1  0
 17 19  1  0
 14 20  1  0
 19 20  1  0
 13 21  1  0
 21 22  1  1
 10 23  1  0
 21 23  1  0
  7 24  1  0
  4 25  1  0
 24 25  1  0
M  END
