piperidine-amides-13134-covalent
     RDKit          3D

 20 21  0  0  0  0  0  0  0  0999 V2000
    7.1240   -3.3200   19.2720 C   0  0  0  0  0  0  0  0  0  0  0  0
    6.3580   -4.0930   20.2700 C   0  0  0  0  0  0  0  0  0  0  0  0
    5.2820   -4.5920   19.8980 O   0  0  0  0  0  0  0  0  0  0  0  0
    6.8770   -4.2890   21.5520 N   0  0  0  0  0  0  0  0  0  0  0  0
    7.6080   -3.2350   22.1790 C   0  0  0  0  0  0  0  0  0  0  0  0
    7.1040   -2.8490   23.4950 C   0  0  0  0  0  0  0  0  0  0  0  0
    6.4520   -3.9340   24.2500 C   0  0  0  0  0  0  0  0  0  0  0  0
    5.7560   -3.3580   25.4350 C   0  0  0  0  0  0  0  0  0  0  0  0
    4.5050   -3.3850   25.4910 O   0  0  0  0  0  0  0  0  0  0  0  0
    6.5060   -2.7740   26.4770 N   0  0  0  0  0  0  0  0  0  0  0  0
    6.0280   -1.6530   27.3290 C   0  0  0  0  0  0  0  0  0  0  0  0
    4.7510   -2.0580   27.9900 C   0  0  0  0  0  0  0  0  0  0  0  0
    3.7480   -1.2860   27.9350 O   0  0  0  0  0  0  0  0  0  0  0  0
    7.0200   -1.3920   28.3770 C   0  0  0  0  0  0  0  0  0  0  0  0
    6.7650   -0.3600   29.2230 C   0  0  0  0  0  0  0  0  0  0  0  0
    6.2800    0.8030   28.6650 C   0  0  0  0  0  0  0  0  0  0  0  0
    5.7410    0.7540   27.4000 C   0  0  0  0  0  0  0  0  0  0  0  0
    5.8070   -0.3760   26.6110 C   0  0  0  0  0  0  0  0  0  0  0  0
    5.6690   -4.9090   23.4550 C   0  0  0  0  0  0  0  0  0  0  0  0
    6.3980   -5.3730   22.3610 C   0  0  0  0  0  0  0  0  0  0  0  0
  1  2  1  0
  2  3  2  0
  2  4  1  0
  4  5  1  0
  5  6  1  0
  6  7  1  0
  7  8  1  0
  8  9  2  0
  8 10  1  0
 11 10  1  0
 11 12  1  0
 12 13  1  0
 11 14  1  0
 14 15  1  0
 15 16  1  0
 16 17  1  0
 11 18  1  0
 17 18  1  0
  7 19  1  0
  4 20  1  0
 19 20  1  0
M  END
