piperidine-amides-9282-covalent
     RDKit          3D

 20 20  0  0  0  0  0  0  0  0999 V2000
    7.1440   -3.2810   19.1770 C   0  0  0  0  0  0  0  0  0  0  0  0
    6.3440   -3.9710   20.1880 C   0  0  0  0  0  0  0  0  0  0  0  0
    5.2710   -4.5050   19.8670 O   0  0  0  0  0  0  0  0  0  0  0  0
    6.8090   -4.0770   21.5040 N   0  0  0  0  0  0  0  0  0  0  0  0
    7.7160   -3.1020   22.0660 C   0  0  0  0  0  0  0  0  0  0  0  0
    7.3500   -3.0130   23.5130 C   0  0  0  0  0  0  0  0  0  0  0  0
    5.9690   -3.5370   23.7520 C   0  0  0  0  0  0  0  0  0  0  0  0
    5.5410   -3.3330   25.1390 C   0  0  0  0  0  0  0  0  0  0  0  0
    4.5090   -2.6600   25.4270 O   0  0  0  0  0  0  0  0  0  0  0  0
    6.2780   -3.8840   26.1780 N   0  0  0  0  0  0  0  0  0  0  0  0
    5.6370   -4.2400   27.4470 C   0  0  0  0  0  0  0  0  0  0  0  0
    6.1910   -5.5380   27.8280 C   0  0  0  0  0  0  0  0  0  0  0  0
    7.5620   -5.8480   27.3830 C   0  0  0  0  0  0  0  0  0  0  0  0
    5.2890   -6.5950   27.2630 C   0  0  0  0  0  0  0  0  0  0  0  0
    6.2310   -5.7380   29.2850 C   0  0  0  0  0  0  0  0  0  0  0  0
    5.0630   -6.4220   29.8910 C   0  0  0  0  0  0  0  0  0  0  0  0
    4.7150   -7.7290   29.6650 C   0  0  0  0  0  0  0  0  0  0  0  0
    5.5550   -7.3880   30.9520 C   0  0  0  0  0  0  0  0  0  0  0  0
    5.8240   -5.0390   23.4560 C   0  0  0  0  0  0  0  0  0  0  0  0
    6.6210   -5.3380   22.1830 C   0  0  0  0  0  0  0  0  0  0  0  0
  1  2  1  0
  2  3  2  0
  2  4  1  0
  4  5  1  0
  5  6  1  0
  6  7  1  0
  7  8  1  0
  8  9  2  0
  8 10  1  0
 10 11  1  0
 12 11  1  0
 12 13  1  0
 12 14  1  0
 12 15  1  0
 15 16  1  0
 16 17  1  0
 16 18  1  0
  7 19  1  0
  4 20  1  0
 19 20  1  0
M  END
