piperidine-amides-17175-covalent
     RDKit          3D

 20 21  0  0  0  0  0  0  0  0999 V2000
    7.1560   -3.3490   19.2210 C   0  0  0  0  0  0  0  0  0  0  0  0
    6.4210   -4.1170   20.2300 C   0  0  0  0  0  0  0  0  0  0  0  0
    5.3040   -4.5830   19.9010 O   0  0  0  0  0  0  0  0  0  0  0  0
    7.0100   -4.3730   21.4850 N   0  0  0  0  0  0  0  0  0  0  0  0
    6.5100   -5.4600   22.2470 C   0  0  0  0  0  0  0  0  0  0  0  0
    5.9410   -5.0550   23.5230 C   0  0  0  0  0  0  0  0  0  0  0  0
    6.5600   -3.8620   24.1400 C   0  0  0  0  0  0  0  0  0  0  0  0
    5.7420   -3.4170   25.2980 C   0  0  0  0  0  0  0  0  0  0  0  0
    4.8050   -2.6130   25.1390 O   0  0  0  0  0  0  0  0  0  0  0  0
    6.0070   -3.9100   26.5680 N   0  0  0  0  0  0  0  0  0  0  0  0
    5.9460   -5.2450   27.0170 C   0  0  0  0  0  0  0  0  0  0  0  0
    6.2050   -5.2720   28.4210 C   0  0  2  0  0  0  0  0  0  0  0  0
    5.4180   -6.4230   29.0820 C   0  0  0  0  0  0  0  0  0  0  0  0
    4.5850   -5.8120   29.9920 O   0  0  0  0  0  0  0  0  0  0  0  0
    5.8550   -3.9610   28.9290 C   0  0  0  0  0  0  0  0  0  0  0  0
    5.8100   -3.0250   27.7240 C   0  0  0  0  0  0  0  0  0  0  0  0
    4.3610   -2.7340   27.9330 C   0  0  0  0  0  0  0  0  0  0  0  0
    6.6620   -1.7450   27.9210 C   0  0  0  0  0  0  0  0  0  0  0  0
    6.8630   -2.7290   23.2030 C   0  0  0  0  0  0  0  0  0  0  0  0
    7.7500   -3.3240   22.1490 C   0  0  0  0  0  0  0  0  0  0  0  0
  1  2  1  0
  2  3  2  0
  2  4  1  0
  4  5  1  0
  5  6  1  0
  6  7  1  0
  7  8  1  0
  8  9  2  0
  8 10  1  0
 10 11  1  0
 11 12  1  0
 12 13  1  1
 13 14  1  0
 12 15  1  0
 10 16  1  0
 15 16  1  0
 16 17  1  0
 16 18  1  0
  7 19  1  0
  4 20  1  0
 19 20  1  0
M  END
