piperidine-amides-27062-covalent
     RDKit          3D

 25 26  0  0  0  0  0  0  0  0999 V2000
    7.0990   -3.2690   19.2230 C   0  0  0  0  0  0  0  0  0  0  0  0
    6.3680   -4.0320   20.2410 C   0  0  0  0  0  0  0  0  0  0  0  0
    5.2750   -4.5440   19.8800 O   0  0  0  0  0  0  0  0  0  0  0  0
    6.8910   -4.2180   21.5210 N   0  0  0  0  0  0  0  0  0  0  0  0
    7.7190   -3.2260   22.1700 C   0  0  0  0  0  0  0  0  0  0  0  0
    7.1280   -2.8720   23.5050 C   0  0  0  0  0  0  0  0  0  0  0  0
    6.6830   -4.0700   24.3120 C   0  0  0  0  0  0  0  0  0  0  0  0
    5.7680   -3.5830   25.3580 C   0  0  0  0  0  0  0  0  0  0  0  0
    4.8300   -2.8370   24.9970 O   0  0  0  0  0  0  0  0  0  0  0  0
    5.8660   -3.8900   26.7250 N   0  0  0  0  0  0  0  0  0  0  0  0
    5.2430   -2.9410   27.6260 C   0  0  0  0  0  0  0  0  0  0  0  0
    3.7320   -2.9470   27.4460 C   0  0  0  0  0  0  0  0  0  0  0  0
    6.3920   -5.0780   27.3440 C   0  0  2  0  0  0  0  0  0  0  0  0
    7.6280   -5.5570   26.9630 C   0  0  0  0  0  0  0  0  0  0  0  0
    5.4430   -6.0300   27.1510 C   0  0  0  0  0  0  0  0  0  0  0  0
    4.2760   -5.9780   27.8860 C   0  0  0  0  0  0  0  0  0  0  0  0
    4.2050   -5.3110   29.1110 C   0  0  0  0  0  0  0  0  0  0  0  0
    3.0610   -5.1170   30.0890 C   0  0  0  0  0  0  0  0  0  0  0  0
    1.8040   -5.7910   29.5920 C   0  0  0  0  0  0  0  0  0  0  0  0
    0.6810   -5.6930   30.3860 F   0  0  0  0  0  0  0  0  0  0  0  0
    1.8160   -6.5200   28.2930 C   0  0  0  0  0  0  0  0  0  0  0  0
    3.0070   -6.6650   27.3730 C   0  0  0  0  0  0  0  0  0  0  0  0
    2.9060   -7.3600   26.1940 F   0  0  0  0  0  0  0  0  0  0  0  0
    5.9480   -5.1050   23.5340 C   0  0  0  0  0  0  0  0  0  0  0  0
    6.5940   -5.4330   22.2120 C   0  0  0  0  0  0  0  0  0  0  0  0
  1  2  1  0
  2  3  2  0
  2  4  1  0
  4  5  1  0
  5  6  1  0
  6  7  1  0
  7  8  1  0
  8  9  2  0
  8 10  1  0
 10 11  1  0
 11 12  1  0
 10 13  1  0
 13 14  1  6
 13 15  1  0
 15 16  1  0
 16 17  2  0
 17 18  1  0
 18 19  2  0
 19 20  1  0
 19 21  1  0
 16 22  1  0
 21 22  2  0
 22 23  1  0
  7 24  1  0
  4 25  1  0
 24 25  1  0
M  END
