piperidine-amides-33639-covalent
     RDKit          3D

 30 32  0  0  0  0  0  0  0  0999 V2000
    7.1410   -3.2500   19.2120 C   0  0  0  0  0  0  0  0  0  0  0  0
    6.3690   -4.0060   20.2090 C   0  0  0  0  0  0  0  0  0  0  0  0
    5.2610   -4.4640   19.8470 O   0  0  0  0  0  0  0  0  0  0  0  0
    6.8770   -4.2670   21.4970 N   0  0  0  0  0  0  0  0  0  0  0  0
    7.5510   -3.2090   22.1760 C   0  0  0  0  0  0  0  0  0  0  0  0
    7.0410   -2.8750   23.5030 C   0  0  0  0  0  0  0  0  0  0  0  0
    6.4250   -3.9810   24.2610 C   0  0  0  0  0  0  0  0  0  0  0  0
    5.6830   -3.4850   25.4680 C   0  0  0  0  0  0  0  0  0  0  0  0
    4.4420   -3.4360   25.4380 O   0  0  0  0  0  0  0  0  0  0  0  0
    6.3450   -3.0440   26.6350 N   0  0  0  0  0  0  0  0  0  0  0  0
    6.5600   -1.6930   26.9690 C   0  0  0  0  0  0  0  0  0  0  0  0
    6.2480   -3.8890   27.8200 C   0  0  0  0  0  0  0  0  0  0  0  0
    5.9090   -5.3850   27.6790 C   0  0  0  0  0  0  0  0  0  0  0  0
    6.3000   -6.1750   28.7470 C   0  0  0  0  0  0  0  0  0  0  0  0
    5.0920   -7.1110   28.6380 C   0  0  0  0  0  0  0  0  0  0  0  0
    4.5720   -7.3150   27.3610 O   0  0  0  0  0  0  0  0  0  0  0  0
    4.6070   -7.6790   29.8640 N   0  0  0  0  0  0  0  0  0  0  0  0
    3.1490   -7.4990   29.8930 C   0  0  0  0  0  0  0  0  0  0  0  0
    3.2940   -6.8410   31.2730 C   0  0  0  0  0  0  0  0  0  0  0  0
    3.6010   -7.6720   32.4990 C   0  0  0  0  0  0  0  0  0  0  0  0
    4.9090   -7.4140   33.2200 C   0  0  0  0  0  0  0  0  0  0  0  0
    4.7970   -8.3750   34.2750 N   0  0  0  0  0  0  0  0  0  0  0  0
    3.5490   -9.1100   34.1660 C   0  0  0  0  0  0  0  0  0  0  0  0
    2.9430  -10.1960   34.9840 C   0  0  0  0  0  0  0  0  0  0  0  0
    1.7010  -10.7570   34.6730 C   0  0  0  0  0  0  0  0  0  0  0  0
    1.0050  -10.2950   33.5750 C   0  0  0  0  0  0  0  0  0  0  0  0
    1.5890   -9.1960   32.7250 C   0  0  0  0  0  0  0  0  0  0  0  0
    2.8270   -8.6610   33.0650 C   0  0  0  0  0  0  0  0  0  0  0  0
    5.5220   -4.7570   23.3370 C   0  0  0  0  0  0  0  0  0  0  0  0
    6.3270   -5.3780   22.2200 C   0  0  0  0  0  0  0  0  0  0  0  0
  1  2  1  0
  2  3  2  0
  2  4  1  0
  4  5  1  0
  5  6  1  0
  6  7  1  0
  7  8  1  0
  8  9  2  0
  8 10  1  0
 10 11  1  0
 10 12  1  0
 12 13  1  0
 13 14  1  0
 14 15  1  0
 15 16  2  0
 15 17  1  0
 17 18  1  0
 18 19  1  0
 19 20  1  0
 20 21  2  0
 21 22  1  0
 22 23  1  0
 23 24  1  0
 24 25  2  0
 25 26  1  0
 26 27  2  0
 20 28  1  0
 23 28  2  0
 27 28  1  0
  7 29  1  0
  4 30  1  0
 29 30  1  0
M  END
