piperidine-amides-14778-covalent
     RDKit          3D

 22 23  0  0  0  0  0  0  0  0999 V2000
    7.0840   -3.2670   19.2330 C   0  0  0  0  0  0  0  0  0  0  0  0
    6.3350   -4.0380   20.2260 C   0  0  0  0  0  0  0  0  0  0  0  0
    5.2680   -4.5670   19.8800 O   0  0  0  0  0  0  0  0  0  0  0  0
    6.8410   -4.2160   21.5370 N   0  0  0  0  0  0  0  0  0  0  0  0
    6.4340   -5.3860   22.2720 C   0  0  0  0  0  0  0  0  0  0  0  0
    6.1890   -5.0850   23.7370 C   0  0  0  0  0  0  0  0  0  0  0  0
    5.9590   -3.5980   23.9280 C   0  0  0  0  0  0  0  0  0  0  0  0
    5.4840   -3.2940   25.3200 C   0  0  0  0  0  0  0  0  0  0  0  0
    4.2670   -3.2710   25.4800 O   0  0  0  0  0  0  0  0  0  0  0  0
    6.4190   -3.0660   26.3250 N   0  0  0  0  0  0  0  0  0  0  0  0
    7.4160   -4.0210   26.6290 C   0  0  0  0  0  0  0  0  0  0  0  0
    8.6600   -3.6840   26.1110 C   0  0  0  0  0  0  0  0  0  0  0  0
    8.8810   -2.5170   25.3860 C   0  0  0  0  0  0  0  0  0  0  0  0
   10.1030   -2.0830   24.8150 C   0  0  0  0  0  0  0  0  0  0  0  0
   10.3030   -0.9310   24.0960 F   0  0  0  0  0  0  0  0  0  0  0  0
   11.2630   -3.0020   25.0460 C   0  0  0  0  0  0  0  0  0  0  0  0
   12.9590   -2.4760   24.3220 Br  0  0  0  0  0  0  0  0  0  0  0  0
   10.9950   -4.2750   25.8430 C   0  0  0  0  0  0  0  0  0  0  0  0
    9.6700   -4.5380   26.3360 C   0  0  0  0  0  0  0  0  0  0  0  0
    9.4080   -5.6670   27.0510 F   0  0  0  0  0  0  0  0  0  0  0  0
    7.1650   -2.8420   23.5320 C   0  0  0  0  0  0  0  0  0  0  0  0
    7.6160   -3.1470   22.1060 C   0  0  0  0  0  0  0  0  0  0  0  0
  1  2  1  0
  2  3  2  0
  2  4  1  0
  4  5  1  0
  5  6  1  0
  6  7  1  0
  7  8  1  0
  8  9  2  0
  8 10  1  0
 10 11  1  0
 11 12  1  0
 12 13  2  0
 13 14  1  0
 14 15  1  0
 14 16  2  0
 16 17  1  0
 16 18  1  0
 12 19  1  0
 18 19  2  0
 19 20  1  0
  7 21  1  0
  4 22  1  0
 21 22  1  0
M  END
