piperidine-amides-6606-covalent
     RDKit          3D

 24 26  0  0  0  0  0  0  0  0999 V2000
    7.0950   -3.2800   19.2060 C   0  0  0  0  0  0  0  0  0  0  0  0
    6.3320   -4.0560   20.2020 C   0  0  0  0  0  0  0  0  0  0  0  0
    5.2600   -4.6130   19.8940 O   0  0  0  0  0  0  0  0  0  0  0  0
    6.8300   -4.2120   21.4910 N   0  0  0  0  0  0  0  0  0  0  0  0
    7.6250   -3.1380   22.0460 C   0  0  0  0  0  0  0  0  0  0  0  0
    7.3390   -3.0540   23.5410 C   0  0  0  0  0  0  0  0  0  0  0  0
    5.9420   -3.5420   23.7750 C   0  0  0  0  0  0  0  0  0  0  0  0
    5.5990   -3.2890   25.1830 C   0  0  0  0  0  0  0  0  0  0  0  0
    4.4020   -3.0750   25.4720 O   0  0  0  0  0  0  0  0  0  0  0  0
    6.6210   -3.2870   26.1590 N   0  0  0  0  0  0  0  0  0  0  0  0
    6.4430   -4.0400   27.3630 C   0  0  0  0  0  0  0  0  0  0  0  0
    6.8330   -5.4780   27.1010 C   0  0  0  0  0  0  0  0  0  0  0  0
    5.8220   -6.3120   27.7320 N   0  0  0  0  0  0  0  0  0  0  0  0
    4.5720   -6.6960   27.0630 C   0  0  0  0  0  0  0  0  0  0  0  0
    3.5560   -7.2280   27.8230 N   0  0  0  0  0  0  0  0  0  0  0  0
    3.5990   -7.4430   29.1670 C   0  0  0  0  0  0  0  0  0  0  0  0
    2.6260   -8.0310   30.0110 C   0  0  0  0  0  0  0  0  0  0  0  0
    2.9830   -8.0960   31.3320 C   0  0  0  0  0  0  0  0  0  0  0  0
    4.5820   -7.4000   31.5140 S   0  0  0  0  0  0  0  0  0  0  0  0
    4.7650   -7.0210   29.7910 C   0  0  0  0  0  0  0  0  0  0  0  0
    5.9200   -6.3770   29.1300 C   0  0  0  0  0  0  0  0  0  0  0  0
    6.8300   -5.9470   29.8640 O   0  0  0  0  0  0  0  0  0  0  0  0
    5.7820   -4.9720   23.4710 C   0  0  0  0  0  0  0  0  0  0  0  0
    6.4970   -5.3590   22.2640 C   0  0  0  0  0  0  0  0  0  0  0  0
  1  2  1  0
  2  3  2  0
  2  4  1  0
  4  5  1  0
  5  6  1  0
  6  7  1  0
  7  8  1  0
  8  9  2  0
  8 10  1  0
 10 11  1  0
 11 12  1  0
 12 13  1  0
 13 14  1  0
 14 15  2  0
 15 16  1  0
 16 17  1  0
 17 18  2  0
 18 19  1  0
 16 20  2  0
 19 20  1  0
 13 21  1  0
 20 21  1  0
 21 22  2  0
  7 23  1  0
  4 24  1  0
 23 24  1  0
M  END
