piperidine-amides-7023-covalent
     RDKit          3D

 22 23  0  0  0  0  0  0  0  0999 V2000
    7.0990   -3.2860   19.2780 C   0  0  0  0  0  0  0  0  0  0  0  0
    6.3820   -4.1060   20.2660 C   0  0  0  0  0  0  0  0  0  0  0  0
    5.3360   -4.7090   19.9430 O   0  0  0  0  0  0  0  0  0  0  0  0
    6.8900   -4.2650   21.5640 N   0  0  0  0  0  0  0  0  0  0  0  0
    7.6990   -3.2290   22.1710 C   0  0  0  0  0  0  0  0  0  0  0  0
    6.8220   -2.5500   23.2240 C   0  0  0  0  0  0  0  0  0  0  0  0
    5.9640   -3.6300   23.8520 C   0  0  0  0  0  0  0  0  0  0  0  0
    5.7450   -3.3070   25.2750 C   0  0  0  0  0  0  0  0  0  0  0  0
    4.6910   -2.7100   25.5780 O   0  0  0  0  0  0  0  0  0  0  0  0
    6.7050   -3.6550   26.2520 N   0  0  0  0  0  0  0  0  0  0  0  0
    6.8410   -5.0100   26.7180 C   0  0  0  0  0  0  0  0  0  0  0  0
    5.6250   -5.3460   27.5480 C   0  0  0  0  0  0  0  0  0  0  0  0
    4.4670   -5.7310   26.9260 C   0  0  0  0  0  0  0  0  0  0  0  0
    4.4280   -6.8890   26.2080 C   0  0  0  0  0  0  0  0  0  0  0  0
    3.2780   -7.3160   25.5640 C   0  0  0  0  0  0  0  0  0  0  0  0
    2.1580   -6.5340   25.6620 C   0  0  0  0  0  0  0  0  0  0  0  0
    2.1700   -5.2430   26.4510 C   0  0  0  0  0  0  0  0  0  0  0  0
    1.2040   -4.4900   26.5780 O   0  0  0  0  0  0  0  0  0  0  0  0
    0.9170   -3.5130   25.5990 C   0  0  0  0  0  0  0  0  0  0  0  0
    3.3260   -4.8960   27.0520 N   0  0  0  0  0  0  0  0  0  0  0  0
    6.4790   -5.0070   23.7310 C   0  0  0  0  0  0  0  0  0  0  0  0
    6.5800   -5.4180   22.3300 C   0  0  0  0  0  0  0  0  0  0  0  0
  1  2  1  0
  2  3  2  0
  2  4  1  0
  4  5  1  0
  5  6  1  0
  6  7  1  0
  7  8  1  0
  8  9  2  0
  8 10  1  0
 10 11  1  0
 11 12  1  0
 12 13  1  0
 13 14  2  0
 14 15  1  0
 15 16  2  0
 16 17  1  0
 17 18  1  0
 18 19  1  0
 13 20  1  0
 17 20  2  0
  7 21  1  0
  4 22  1  0
 21 22  1  0
M  END
