piperidine-amides-10984-covalent
     RDKit          3D

 21 22  0  0  0  0  0  0  0  0999 V2000
    7.1010   -3.3570   19.3470 C   0  0  0  0  0  0  0  0  0  0  0  0
    6.3630   -4.1450   20.3320 C   0  0  0  0  0  0  0  0  0  0  0  0
    5.3550   -4.7730   19.9640 O   0  0  0  0  0  0  0  0  0  0  0  0
    6.7970   -4.2440   21.6650 N   0  0  0  0  0  0  0  0  0  0  0  0
    6.6760   -5.4750   22.4120 C   0  0  0  0  0  0  0  0  0  0  0  0
    6.0540   -5.0970   23.7300 C   0  0  0  0  0  0  0  0  0  0  0  0
    6.0290   -3.6080   23.9170 C   0  0  0  0  0  0  0  0  0  0  0  0
    5.5790   -3.1570   25.2520 C   0  0  0  0  0  0  0  0  0  0  0  0
    4.3470   -3.1540   25.5430 O   0  0  0  0  0  0  0  0  0  0  0  0
    6.4820   -2.7200   26.2300 N   0  0  0  0  0  0  0  0  0  0  0  0
    6.3760   -1.3930   26.8780 C   0  0  0  0  0  0  0  0  0  0  0  0
    5.9470   -0.1930   26.1430 C   0  0  0  0  0  0  0  0  0  0  0  0
    5.8630    1.0960   26.8410 C   0  0  0  0  0  0  0  0  0  0  0  0
    5.3400    2.5680   25.9570 Cl  0  0  0  0  0  0  0  0  0  0  0  0
    6.2180    1.1840   28.2940 C   0  0  0  0  0  0  0  0  0  0  0  0
    6.1580    2.4890   29.0600 C   0  0  0  0  0  0  0  0  0  0  0  0
    6.6550   -0.0960   29.0040 C   0  0  0  0  0  0  0  0  0  0  0  0
    6.7300   -1.3060   28.3640 C   0  0  0  0  0  0  0  0  0  0  0  0
    7.1090   -2.4300   29.0220 C   0  0  0  0  0  0  0  0  0  0  0  0
    7.3890   -2.9690   23.6360 C   0  0  0  0  0  0  0  0  0  0  0  0
    7.6820   -3.1920   22.1520 C   0  0  0  0  0  0  0  0  0  0  0  0
  1  2  1  0
  2  3  2  0
  2  4  1  0
  4  5  1  0
  5  6  1  0
  6  7  1  0
  7  8  1  0
  8  9  2  0
  8 10  1  0
 10 11  1  0
 11 12  2  0
 12 13  1  0
 13 14  1  0
 13 15  2  0
 15 16  1  0
 15 17  1  0
 11 18  1  0
 17 18  2  0
 18 19  1  0
  7 20  1  0
  4 21  1  0
 20 21  1  0
M  END
