piperidine-amides-28025-covalent
     RDKit          3D

 25 26  0  0  0  0  0  0  0  0999 V2000
    7.0670   -3.3310   19.2340 C   0  0  0  0  0  0  0  0  0  0  0  0
    6.3760   -4.1230   20.2740 C   0  0  0  0  0  0  0  0  0  0  0  0
    5.3190   -4.6930   19.9340 O   0  0  0  0  0  0  0  0  0  0  0  0
    6.9270   -4.2600   21.5530 N   0  0  0  0  0  0  0  0  0  0  0  0
    6.5750   -5.3820   22.3530 C   0  0  0  0  0  0  0  0  0  0  0  0
    6.0800   -5.0290   23.6890 C   0  0  0  0  0  0  0  0  0  0  0  0
    6.6050   -3.7650   24.2670 C   0  0  0  0  0  0  0  0  0  0  0  0
    5.7900   -3.3370   25.4340 C   0  0  0  0  0  0  0  0  0  0  0  0
    4.5620   -3.2170   25.2570 O   0  0  0  0  0  0  0  0  0  0  0  0
    6.3360   -3.0620   26.7120 N   0  0  0  0  0  0  0  0  0  0  0  0
    6.2660   -4.0630   27.8180 C   0  0  0  0  0  0  0  0  0  0  0  0
    5.9820   -5.4790   27.4220 C   0  0  0  0  0  0  0  0  0  0  0  0
    6.1430   -6.4250   28.2460 O   0  0  0  0  0  0  0  0  0  0  0  0
    6.3150   -1.7580   27.2690 C   0  0  0  0  0  0  0  0  0  0  0  0
    6.9440   -1.5190   28.4570 C   0  0  0  0  0  0  0  0  0  0  0  0
    7.0070   -0.3360   29.1390 C   0  0  0  0  0  0  0  0  0  0  0  0
    6.3890    0.7600   28.6140 C   0  0  0  0  0  0  0  0  0  0  0  0
    6.4300    1.9540   29.2820 C   0  0  0  0  0  0  0  0  0  0  0  0
    6.7730    3.1270   28.5870 F   0  0  0  0  0  0  0  0  0  0  0  0
    5.1720    2.1690   29.7720 F   0  0  0  0  0  0  0  0  0  0  0  0
    7.3790    1.8530   30.2660 F   0  0  0  0  0  0  0  0  0  0  0  0
    5.6990    0.7210   27.4040 C   0  0  0  0  0  0  0  0  0  0  0  0
    5.6760   -0.5720   26.7430 N   0  0  0  0  0  0  0  0  0  0  0  0
    6.7170   -2.6950   23.2260 C   0  0  0  0  0  0  0  0  0  0  0  0
    7.6520   -3.1890   22.2000 C   0  0  0  0  0  0  0  0  0  0  0  0
  1  2  1  0
  2  3  2  0
  2  4  1  0
  4  5  1  0
  5  6  1  0
  6  7  1  0
  7  8  1  0
  8  9  2  0
  8 10  1  0
 10 11  1  0
 11 12  1  0
 12 13  1  0
 10 14  1  0
 14 15  2  0
 15 16  1  0
 16 17  2  0
 17 18  1  0
 18 19  1  0
 18 20  1  0
 18 21  1  0
 17 22  1  0
 14 23  1  0
 22 23  2  0
  7 24  1  0
  4 25  1  0
 24 25  1  0
M  END
