piperidine-amides-33536-covalent
     RDKit          3D

 29 31  0  0  0  0  0  0  0  0999 V2000
    7.0450   -3.3790   19.3750 C   0  0  0  0  0  0  0  0  0  0  0  0
    6.4300   -4.2450   20.3920 C   0  0  0  0  0  0  0  0  0  0  0  0
    5.4310   -4.9100   20.0130 O   0  0  0  0  0  0  0  0  0  0  0  0
    6.9780   -4.3590   21.7120 N   0  0  0  0  0  0  0  0  0  0  0  0
    6.5980   -5.4430   22.5420 C   0  0  0  0  0  0  0  0  0  0  0  0
    6.2960   -4.9990   23.9030 C   0  0  0  0  0  0  0  0  0  0  0  0
    5.8810   -3.5830   23.9600 C   0  0  0  0  0  0  0  0  0  0  0  0
    5.5010   -3.0880   25.3330 C   0  0  0  0  0  0  0  0  0  0  0  0
    4.3090   -2.7610   25.4930 O   0  0  0  0  0  0  0  0  0  0  0  0
    6.3500   -2.9660   26.4610 N   0  0  0  0  0  0  0  0  0  0  0  0
    6.5860   -4.0670   27.3310 C   0  0  0  0  0  0  0  0  0  0  0  0
    6.1360   -1.7010   27.1970 C   0  0  0  0  0  0  0  0  0  0  0  0
    5.8910   -0.3840   26.4560 C   0  0  0  0  0  0  0  0  0  0  0  0
    5.7620    0.6830   27.3290 C   0  0  0  0  0  0  0  0  0  0  0  0
    6.5820    0.6890   28.4930 N   0  0  0  0  0  0  0  0  0  0  0  0
    6.2780    1.5700   29.5650 C   0  0  0  0  0  0  0  0  0  0  0  0
    5.1240    1.0680   30.4140 C   0  0  0  0  0  0  0  0  0  0  0  0
    4.8530    2.0740   31.5580 C   0  0  0  0  0  0  0  0  0  0  0  0
    5.5240    3.3750   31.9110 C   0  0  0  0  0  0  0  0  0  0  0  0
    6.6550    3.8020   31.0250 C   0  0  0  0  0  0  0  0  0  0  0  0
    6.9990    2.8760   29.8690 C   0  0  0  0  0  0  0  0  0  0  0  0
    8.1350    3.3860   29.0510 C   0  0  0  0  0  0  0  0  0  0  0  0
    8.2710    4.7320   29.3180 F   0  0  0  0  0  0  0  0  0  0  0  0
    9.3130    2.7030   29.3730 F   0  0  0  0  0  0  0  0  0  0  0  0
    7.8550    3.3070   27.6930 F   0  0  0  0  0  0  0  0  0  0  0  0
    6.7520   -0.5620   29.1590 C   0  0  0  0  0  0  0  0  0  0  0  0
    7.0830   -1.4620   28.1820 C   0  0  0  0  0  0  0  0  0  0  0  0
    6.8390   -2.6460   23.2850 C   0  0  0  0  0  0  0  0  0  0  0  0
    7.6790   -3.2690   22.3610 C   0  0  0  0  0  0  0  0  0  0  0  0
  1  2  1  0
  2  3  2  0
  2  4  1  0
  4  5  1  0
  5  6  1  0
  6  7  1  0
  7  8  1  0
  8  9  2  0
  8 10  1  0
 10 11  1  0
 10 12  1  0
 12 13  1  0
 13 14  1  0
 14 15  1  0
 15 16  1  0
 16 17  2  0
 17 18  1  0
 18 19  2  0
 19 20  1  0
 16 21  1  0
 20 21  2  0
 21 22  1  0
 22 23  1  0
 22 24  1  0
 22 25  1  0
 15 26  1  0
 12 27  1  0
 26 27  1  0
  7 28  1  0
  4 29  1  0
 28 29  1  0
M  END
