piperidine-amides-26042-covalent
     RDKit          3D

 25 27  0  0  0  0  0  0  0  0999 V2000
    7.0410   -3.3650   19.4090 C   0  0  0  0  0  0  0  0  0  0  0  0
    6.3860   -4.2500   20.3750 C   0  0  0  0  0  0  0  0  0  0  0  0
    5.3860   -4.8860   19.9950 O   0  0  0  0  0  0  0  0  0  0  0  0
    6.8710   -4.4550   21.6900 N   0  0  0  0  0  0  0  0  0  0  0  0
    6.4340   -5.5680   22.4740 C   0  0  0  0  0  0  0  0  0  0  0  0
    5.5040   -4.9550   23.4950 C   0  0  0  0  0  0  0  0  0  0  0  0
    6.1500   -3.9080   24.3810 C   0  0  0  0  0  0  0  0  0  0  0  0
    5.1800   -3.3440   25.3870 C   0  0  0  0  0  0  0  0  0  0  0  0
    4.1340   -2.7820   24.9730 O   0  0  0  0  0  0  0  0  0  0  0  0
    5.3320   -3.3900   26.8170 N   0  0  0  0  0  0  0  0  0  0  0  0
    6.6160   -3.4060   27.3870 C   0  0  0  0  0  0  0  0  0  0  0  0
    6.7320   -4.6670   28.1930 C   0  0  0  0  0  0  0  0  0  0  0  0
    5.5380   -4.9530   28.9760 C   0  0  0  0  0  0  0  0  0  0  0  0
    5.6040   -6.0590   30.0240 C   0  0  0  0  0  0  0  0  0  0  0  0
    4.3470   -6.3630   30.8470 C   0  0  0  0  0  0  0  0  0  0  0  0
    4.4100   -7.3920   31.8140 O   0  0  0  0  0  0  0  0  0  0  0  0
    5.7030   -7.6420   32.1780 C   0  0  0  0  0  0  0  0  0  0  0  0
    3.1120   -5.5220   30.5510 C   0  0  0  0  0  0  0  0  0  0  0  0
    3.1420   -4.5460   29.5800 C   0  0  0  0  0  0  0  0  0  0  0  0
    2.0150   -3.7720   29.2950 O   0  0  0  0  0  0  0  0  0  0  0  0
    0.7270   -4.2880   29.5220 C   0  0  0  0  0  0  0  0  0  0  0  0
    4.3580   -4.2520   28.7750 C   0  0  0  0  0  0  0  0  0  0  0  0
    4.2430   -3.1670   27.7250 C   0  0  0  0  0  0  0  0  0  0  0  0
    6.8330   -2.8350   23.5550 C   0  0  0  0  0  0  0  0  0  0  0  0
    7.5230   -3.3620   22.3410 C   0  0  0  0  0  0  0  0  0  0  0  0
  1  2  1  0
  2  3  2  0
  2  4  1  0
  4  5  1  0
  5  6  1  0
  6  7  1  0
  7  8  1  0
  8  9  2  0
  8 10  1  0
 10 11  1  0
 11 12  1  0
 12 13  1  0
 13 14  2  0
 14 15  1  0
 15 16  1  0
 16 17  1  0
 15 18  2  0
 18 19  1  0
 19 20  1  0
 20 21  1  0
 13 22  1  0
 19 22  2  0
 10 23  1  0
 22 23  1  0
  7 24  1  0
  4 25  1  0
 24 25  1  0
M  END
