piperidine-amides-4376-covalent
     RDKit          3D

 26 29  0  0  0  0  0  0  0  0999 V2000
    7.1190   -3.3420   19.3410 C   0  0  0  0  0  0  0  0  0  0  0  0
    6.3860   -4.1370   20.3400 C   0  0  0  0  0  0  0  0  0  0  0  0
    5.3300   -4.6920   19.9450 O   0  0  0  0  0  0  0  0  0  0  0  0
    6.8800   -4.3140   21.6600 N   0  0  0  0  0  0  0  0  0  0  0  0
    7.6570   -3.2670   22.2460 C   0  0  0  0  0  0  0  0  0  0  0  0
    7.2910   -2.9860   23.6210 C   0  0  0  0  0  0  0  0  0  0  0  0
    6.0590   -3.6820   24.0260 C   0  0  0  0  0  0  0  0  0  0  0  0
    5.5890   -3.2720   25.3910 C   0  0  0  0  0  0  0  0  0  0  0  0
    4.3740   -3.3480   25.6490 O   0  0  0  0  0  0  0  0  0  0  0  0
    6.4600   -2.7950   26.3880 N   0  0  0  0  0  0  0  0  0  0  0  0
    6.4050   -1.5710   27.0960 C   0  0  0  0  0  0  0  0  0  0  0  0
    5.8050   -0.3020   26.6010 C   0  0  0  0  0  0  0  0  0  0  0  0
    5.8390    0.9370   27.5230 C   0  0  0  0  0  0  0  0  0  0  0  0
    6.4370    0.7030   28.7170 C   0  0  0  0  0  0  0  0  0  0  0  0
    6.3360    2.0660   29.4080 C   0  0  0  0  0  0  0  0  0  0  0  0
    7.5760    2.3910   30.1350 C   0  0  0  0  0  0  0  0  0  0  0  0
    7.3670    3.5820   30.6870 N   0  0  0  0  0  0  0  0  0  0  0  0
    6.1190    3.9720   30.3440 C   0  0  0  0  0  0  0  0  0  0  0  0
    5.4660    5.2690   30.7570 C   0  0  0  0  0  0  0  0  0  0  0  0
    4.1090    5.0360   30.9420 C   0  0  0  0  0  0  0  0  0  0  0  0
    4.4720    5.9550   29.7200 C   0  0  0  0  0  0  0  0  0  0  0  0
    5.3910    3.0740   29.5320 O   0  0  0  0  0  0  0  0  0  0  0  0
    7.0380   -0.5110   29.2530 C   0  0  0  0  0  0  0  0  0  0  0  0
    7.0260   -1.6450   28.4590 C   0  0  0  0  0  0  0  0  0  0  0  0
    6.0890   -5.1610   23.8070 C   0  0  0  0  0  0  0  0  0  0  0  0
    6.5560   -5.5050   22.4040 C   0  0  0  0  0  0  0  0  0  0  0  0
  1  2  1  0
  2  3  2  0
  2  4  1  0
  4  5  1  0
  5  6  1  0
  6  7  1  0
  7  8  1  0
  8  9  2  0
  8 10  1  0
 10 11  1  0
 11 12  2  0
 12 13  1  0
 13 14  2  0
 14 15  1  0
 15 16  2  0
 16 17  1  0
 17 18  2  0
 18 19  1  0
 19 20  1  0
 19 21  1  0
 20 21  1  0
 15 22  1  0
 18 22  1  0
 14 23  1  0
 11 24  1  0
 23 24  2  0
  7 25  1  0
  4 26  1  0
 25 26  1  0
M  END
