piperidine-amides-18851-covalent
     RDKit          3D

 21 22  0  0  0  0  0  0  0  0999 V2000
    6.9940   -3.4150   19.3430 C   0  0  0  0  0  0  0  0  0  0  0  0
    6.3590   -4.2010   20.3800 C   0  0  0  0  0  0  0  0  0  0  0  0
    5.4020   -4.9530   20.0110 O   0  0  0  0  0  0  0  0  0  0  0  0
    6.7770   -4.2010   21.7360 N   0  0  0  0  0  0  0  0  0  0  0  0
    6.7560   -5.5380   22.3950 C   0  0  0  0  0  0  0  0  0  0  0  0
    6.0920   -5.2660   23.8110 C   0  0  0  0  0  0  0  0  0  0  0  0
    6.2600   -3.7950   24.0860 C   0  0  0  0  0  0  0  0  0  0  0  0
    5.2710   -3.3040   25.2550 C   0  0  0  0  0  0  0  0  0  0  0  0
    4.2610   -2.8790   24.7220 O   0  0  0  0  0  0  0  0  0  0  0  0
    5.7290   -3.4530   26.4470 N   0  0  0  0  0  0  0  0  0  0  0  0
    6.4770   -3.5100   27.5310 C   0  0  0  0  0  0  0  0  0  0  0  0
    6.8120   -4.5020   28.3830 C   0  0  0  0  0  0  0  0  0  0  0  0
    5.6530   -4.7290   29.0590 C   0  0  0  0  0  0  0  0  0  0  0  0
    4.5600   -4.9690   28.1030 C   0  0  0  0  0  0  0  0  0  0  0  0
    4.6750   -3.5540   27.4540 C   0  0  0  0  0  0  0  0  0  0  0  0
    3.4040   -3.7400   26.8780 C   0  0  0  0  0  0  0  0  0  0  0  0
    2.4720   -4.0650   27.6550 O   0  0  0  0  0  0  0  0  0  0  0  0
    3.7170   -2.3680   27.5610 C   0  0  0  0  0  0  0  0  0  0  0  0
    4.3520   -1.1380   27.5950 O   0  0  0  0  0  0  0  0  0  0  0  0
    7.5460   -3.2250   23.8270 C   0  0  0  0  0  0  0  0  0  0  0  0
    7.6570   -3.2130   22.2690 C   0  0  0  0  0  0  0  0  0  0  0  0
  1  2  1  0
  2  3  2  0
  2  4  1  0
  4  5  1  0
  5  6  1  0
  6  7  1  0
  7  8  1  0
  8  9  2  0
  8 10  1  0
 10 11  1  0
 11 12  1  0
 12 13  1  0
 13 14  1  0
 10 15  1  0
 14 15  1  0
 15 16  1  0
 16 17  1  0
 15 18  1  0
 18 19  1  0
  7 20  1  0
  4 21  1  0
 20 21  1  0
M  END
