piperidine-amides-19301-covalent
     RDKit          3D

 22 24  0  0  0  0  0  0  0  0999 V2000
    7.0490   -3.4930   19.5300 C   0  0  0  0  0  0  0  0  0  0  0  0
    6.4460   -4.3900   20.4960 C   0  0  0  0  0  0  0  0  0  0  0  0
    5.5400   -5.1730   20.0220 O   0  0  0  0  0  0  0  0  0  0  0  0
    6.7440   -4.4210   21.9210 N   0  0  0  0  0  0  0  0  0  0  0  0
    6.7020   -5.7870   22.5650 C   0  0  0  0  0  0  0  0  0  0  0  0
    6.2620   -5.3960   24.0670 C   0  0  0  0  0  0  0  0  0  0  0  0
    5.8960   -3.9190   24.1430 C   0  0  0  0  0  0  0  0  0  0  0  0
    4.8720   -3.5660   25.3660 C   0  0  0  0  0  0  0  0  0  0  0  0
    4.0850   -3.2580   24.4010 O   0  0  0  0  0  0  0  0  0  0  0  0
    5.7820   -3.9310   26.2140 N   0  0  0  0  0  0  0  0  0  0  0  0
    6.7000   -4.3850   27.0080 C   0  0  0  0  0  0  0  0  0  0  0  0
    6.8550   -3.9210   28.3090 C   0  0  0  0  0  0  0  0  0  0  0  0
    6.0980   -2.6750   28.3940 O   0  0  0  0  0  0  0  0  0  0  0  0
    4.7430   -3.0350   28.1590 C   0  0  0  0  0  0  0  0  0  0  0  0
    4.9870   -2.2590   29.4950 N   0  0  0  0  0  0  0  0  0  0  0  0
    4.0130   -1.9490   30.4280 C   0  0  0  0  0  0  0  0  0  0  0  0
    5.2830   -1.3130   31.0510 C   0  0  0  0  0  0  0  0  0  0  0  0
    4.7670   -2.4390   29.2270 C   0  0  0  0  0  0  0  0  0  0  0  0
    4.6660   -3.0250   28.2050 C   0  0  0  0  0  0  0  0  0  0  0  0
    5.9770   -3.1920   27.4290 C   0  0  0  0  0  0  0  0  0  0  0  0
    7.0770   -3.0520   23.8320 C   0  0  0  0  0  0  0  0  0  0  0  0
    7.5850   -3.3980   22.5780 C   0  0  0  0  0  0  0  0  0  0  0  0
  1  2  1  0
  2  3  2  0
  2  4  1  0
  4  5  1  0
  5  6  1  0
  6  7  1  0
  7  8  1  0
  8  9  2  0
  8 10  1  0
 10 11  1  0
 11 12  1  0
 12 13  1  0
 13 14  1  0
 14 15  2  0
 15 16  1  0
 16 17  1  0
 16 18  2  0
 18 19  1  0
 10 20  1  0
 14 20  1  0
 19 20  2  0
  7 21  1  0
  4 22  1  0
 21 22  1  0
M  END
