piperidine-amides-27618-covalent
     RDKit          3D

 26 27  0  0  0  0  0  0  0  0999 V2000
    7.0910   -3.2830   19.2280 C   0  0  0  0  0  0  0  0  0  0  0  0
    6.3580   -4.0450   20.2450 C   0  0  0  0  0  0  0  0  0  0  0  0
    5.2750   -4.5710   19.8870 O   0  0  0  0  0  0  0  0  0  0  0  0
    6.8840   -4.2080   21.5270 N   0  0  0  0  0  0  0  0  0  0  0  0
    7.6830   -3.1780   22.1480 C   0  0  0  0  0  0  0  0  0  0  0  0
    6.9430   -2.7050   23.3600 C   0  0  0  0  0  0  0  0  0  0  0  0
    6.6540   -3.8470   24.2980 C   0  0  0  0  0  0  0  0  0  0  0  0
    5.8430   -3.3720   25.4370 C   0  0  0  0  0  0  0  0  0  0  0  0
    4.6570   -3.0460   25.2170 O   0  0  0  0  0  0  0  0  0  0  0  0
    6.3480   -3.2840   26.7460 N   0  0  0  0  0  0  0  0  0  0  0  0
    6.7840   -4.4950   27.4040 C   0  0  0  0  0  0  0  0  0  0  0  0
    5.7010   -5.5540   27.4190 C   0  0  0  0  0  0  0  0  0  0  0  0
    5.4080   -5.8900   28.8200 N   0  0  0  0  0  0  0  0  0  0  0  0
    4.3120   -5.4430   29.3980 C   0  0  0  0  0  0  0  0  0  0  0  0
    6.1590   -6.8340   29.4120 C   0  0  0  0  0  0  0  0  0  0  0  0
    6.6700   -1.9560   27.2270 C   0  0  0  0  0  0  0  0  0  0  0  0
    5.6210   -1.1380   27.5880 C   0  0  0  0  0  0  0  0  0  0  0  0
    5.3190    0.0140   26.8710 C   0  0  0  0  0  0  0  0  0  0  0  0
    4.2010    1.0020   27.1500 C   0  0  0  0  0  0  0  0  0  0  0  0
    3.4090    0.5660   28.3700 C   0  0  0  0  0  0  0  0  0  0  0  0
    2.2160    1.2630   28.9890 C   0  0  0  0  0  0  0  0  0  0  0  0
    1.4050    2.0430   28.2560 N   0  0  0  0  0  0  0  0  0  0  0  0
    3.8270   -0.7450   29.1130 C   0  0  0  0  0  0  0  0  0  0  0  0
    4.8860   -1.5200   28.7020 C   0  0  0  0  0  0  0  0  0  0  0  0
    5.8680   -4.9090   23.5410 C   0  0  0  0  0  0  0  0  0  0  0  0
    6.6370   -5.3950   22.3180 C   0  0  0  0  0  0  0  0  0  0  0  0
  1  2  1  0
  2  3  2  0
  2  4  1  0
  4  5  1  0
  5  6  1  0
  6  7  1  0
  7  8  1  0
  8  9  2  0
  8 10  1  0
 10 11  1  0
 11 12  1  0
 12 13  1  0
 13 14  1  0
 13 15  1  0
 10 16  1  0
 16 17  1  0
 17 18  2  0
 18 19  1  0
 19 20  2  0
 20 21  1  0
 21 22  3  0
 20 23  1  0
 17 24  1  0
 23 24  2  0
  7 25  1  0
  4 26  1  0
 25 26  1  0
M  END
