piperidine-amides-17048-covalent
     RDKit          3D

 20 21  0  0  0  0  0  0  0  0999 V2000
    7.1790   -3.2880   19.2240 C   0  0  0  0  0  0  0  0  0  0  0  0
    6.3440   -3.9940   20.2050 C   0  0  0  0  0  0  0  0  0  0  0  0
    5.2280   -4.4170   19.8280 O   0  0  0  0  0  0  0  0  0  0  0  0
    6.8270   -4.2360   21.5010 N   0  0  0  0  0  0  0  0  0  0  0  0
    6.2300   -5.2880   22.2370 C   0  0  0  0  0  0  0  0  0  0  0  0
    5.6530   -4.8600   23.5080 C   0  0  0  0  0  0  0  0  0  0  0  0
    6.4050   -3.8020   24.2290 C   0  0  0  0  0  0  0  0  0  0  0  0
    5.6760   -3.3130   25.4460 C   0  0  0  0  0  0  0  0  0  0  0  0
    4.4450   -3.4800   25.5300 O   0  0  0  0  0  0  0  0  0  0  0  0
    6.3530   -2.6570   26.4990 N   0  0  0  0  0  0  0  0  0  0  0  0
    6.3190   -2.9270   27.8820 C   0  0  0  0  0  0  0  0  0  0  0  0
    7.1180   -1.4850   26.1760 C   0  0  0  0  0  0  0  0  0  0  0  0
    6.4160   -0.2360   25.6000 C   0  0  0  0  0  0  0  0  0  0  0  0
    5.7750    0.6390   26.5390 N   0  0  0  0  0  0  0  0  0  0  0  0
    5.2460    1.6630   25.8950 N   0  0  0  0  0  0  0  0  0  0  0  0
    5.6020    1.4150   24.5750 C   0  0  0  0  0  0  0  0  0  0  0  0
    5.3400    2.2170   23.4830 O   0  0  0  0  0  0  0  0  0  0  0  0
    6.2220    0.3200   24.5160 O   0  0  0  0  0  0  0  0  0  0  0  0
    6.7460   -2.6920   23.2820 C   0  0  0  0  0  0  0  0  0  0  0  0
    7.5600   -3.1990   22.1560 C   0  0  0  0  0  0  0  0  0  0  0  0
  1  2  1  0
  2  3  2  0
  2  4  1  0
  4  5  1  0
  5  6  1  0
  6  7  1  0
  7  8  1  0
  8  9  2  0
  8 10  1  0
 10 11  1  0
 10 12  1  0
 12 13  1  0
 13 14  2  0
 14 15  1  0
 15 16  1  0
 16 17  2  0
 13 18  1  0
 16 18  1  0
  7 19  1  0
  4 20  1  0
 19 20  1  0
M  END
