piperidine-amides-29492-covalent
     RDKit          3D

 27 30  0  0  0  0  0  0  0  0999 V2000
    7.0450   -3.3700   19.3680 C   0  0  0  0  0  0  0  0  0  0  0  0
    6.3800   -4.2390   20.3290 C   0  0  0  0  0  0  0  0  0  0  0  0
    5.3670   -4.8470   19.9830 O   0  0  0  0  0  0  0  0  0  0  0  0
    6.9270   -4.4410   21.6460 N   0  0  0  0  0  0  0  0  0  0  0  0
    7.6360   -3.3910   22.3310 C   0  0  0  0  0  0  0  0  0  0  0  0
    6.7990   -2.8290   23.4510 C   0  0  0  0  0  0  0  0  0  0  0  0
    6.2940   -3.9610   24.3400 C   0  0  0  0  0  0  0  0  0  0  0  0
    5.2280   -3.4370   25.2630 C   0  0  0  0  0  0  0  0  0  0  0  0
    4.2550   -2.8150   24.8190 O   0  0  0  0  0  0  0  0  0  0  0  0
    5.3150   -3.6260   26.6710 N   0  0  0  0  0  0  0  0  0  0  0  0
    4.1770   -3.2670   27.4830 C   0  0  0  0  0  0  0  0  0  0  0  0
    4.4570   -3.6040   28.9440 C   0  0  0  0  0  0  0  0  0  0  0  0
    5.7310   -3.8910   29.3340 C   0  0  0  0  0  0  0  0  0  0  0  0
    6.5120   -4.4730   28.4030 C   0  0  1  0  0  0  0  0  0  0  0  0
    6.1430   -5.7610   28.0110 C   0  0  0  0  0  0  0  0  0  0  0  0
    5.4580   -6.5080   29.0630 C   0  0  0  0  0  0  0  0  0  0  0  0
    6.0660   -6.9090   30.2160 N   0  0  0  0  0  0  0  0  0  0  0  0
    5.1300   -7.5670   30.9530 N   0  0  0  0  0  0  0  0  0  0  0  0
    4.0210   -7.5130   30.1820 C   0  0  0  0  0  0  0  0  0  0  0  0
    2.7640   -8.0340   30.4590 C   0  0  0  0  0  0  0  0  0  0  0  0
    1.6860   -7.9290   29.5940 C   0  0  0  0  0  0  0  0  0  0  0  0
    1.8890   -7.2300   28.3350 C   0  0  0  0  0  0  0  0  0  0  0  0
    3.1350   -6.7100   28.0620 C   0  0  0  0  0  0  0  0  0  0  0  0
    4.1640   -6.8410   28.9400 N   0  0  0  0  0  0  0  0  0  0  0  0
    6.4790   -3.3510   27.3760 C   0  0  0  0  0  0  0  0  0  0  0  0
    5.6690   -5.0910   23.5410 C   0  0  0  0  0  0  0  0  0  0  0  0
    6.5810   -5.5940   22.4150 C   0  0  0  0  0  0  0  0  0  0  0  0
  1  2  1  0
  2  3  2  0
  2  4  1  0
  4  5  1  0
  5  6  1  0
  6  7  1  0
  7  8  1  0
  8  9  2  0
  8 10  1  0
 10 11  1  0
 11 12  1  0
 12 13  1  0
 13 14  1  0
 14 15  1  6
 15 16  1  0
 16 17  2  0
 17 18  1  0
 18 19  2  0
 19 20  1  0
 20 21  2  0
 21 22  1  0
 22 23  2  0
 16 24  1  0
 19 24  1  0
 23 24  1  0
 10 25  1  0
 14 25  1  0
  7 26  1  0
  4 27  1  0
 26 27  1  0
M  END
