piperidine-amides-959-covalent
     RDKit          3D

 24 26  0  0  0  0  0  0  0  0999 V2000
    7.1050   -3.3580   19.3380 C   0  0  0  0  0  0  0  0  0  0  0  0
    6.3650   -4.1820   20.3240 C   0  0  0  0  0  0  0  0  0  0  0  0
    5.3350   -4.7770   19.9630 O   0  0  0  0  0  0  0  0  0  0  0  0
    6.8880   -4.3110   21.6290 N   0  0  0  0  0  0  0  0  0  0  0  0
    7.6800   -3.2660   22.2290 C   0  0  0  0  0  0  0  0  0  0  0  0
    6.8200   -2.6610   23.3390 C   0  0  0  0  0  0  0  0  0  0  0  0
    6.5000   -3.7510   24.3020 C   0  0  0  0  0  0  0  0  0  0  0  0
    5.7460   -3.2500   25.4790 C   0  0  0  0  0  0  0  0  0  0  0  0
    4.5140   -3.2760   25.3730 O   0  0  0  0  0  0  0  0  0  0  0  0
    6.3970   -2.7620   26.6300 N   0  0  0  0  0  0  0  0  0  0  0  0
    6.6210   -1.3890   26.9480 C   0  0  1  0  0  0  0  0  0  0  0  0
    5.9810   -0.3570   26.2960 C   0  0  0  0  0  0  0  0  0  0  0  0
    5.3700    0.5040   27.1790 C   0  0  0  0  0  0  0  0  0  0  0  0
    5.4840   -0.0640   28.4020 C   0  0  0  0  0  0  0  0  0  0  0  0
    6.3650   -1.2490   28.4370 C   0  0  2  0  0  0  0  0  0  0  0  0
    7.5360   -1.0610   29.4010 C   0  0  0  0  0  0  0  0  0  0  0  0
    7.3560    0.2560   30.1880 C   0  0  0  0  0  0  0  0  0  0  0  0
    7.5170    0.2250   31.5190 C   0  0  0  0  0  0  0  0  0  0  0  0
    7.3970    1.3220   32.4550 C   0  0  0  0  0  0  0  0  0  0  0  0
    7.0480    2.5700   31.6510 C   0  0  0  0  0  0  0  0  0  0  0  0
    6.8250    2.9050   30.3080 C   0  0  0  0  0  0  0  0  0  0  0  0
    7.0400    1.4890   29.6480 C   0  0  0  0  0  0  0  0  0  0  0  0
    5.7990   -4.9380   23.6980 C   0  0  0  0  0  0  0  0  0  0  0  0
    6.5590   -5.4370   22.4640 C   0  0  0  0  0  0  0  0  0  0  0  0
  1  2  1  0
  2  3  2  0
  2  4  1  0
  4  5  1  0
  5  6  1  0
  6  7  1  0
  7  8  1  0
  8  9  2  0
  8 10  1  0
 11 10  1  6
 11 12  1  0
 12 13  1  0
 13 14  1  0
 11 15  1  0
 14 15  1  0
 15 16  1  1
 16 17  1  0
 17 18  2  0
 18 19  1  0
 19 20  2  0
 20 21  1  0
 17 22  1  0
 21 22  2  0
  7 23  1  0
  4 24  1  0
 23 24  1  0
M  END
