piperidine-amides-4412-covalent
     RDKit          3D

 25 27  0  0  0  0  0  0  0  0999 V2000
    7.0470   -3.3480   19.3240 C   0  0  0  0  0  0  0  0  0  0  0  0
    6.3850   -4.1730   20.3450 C   0  0  0  0  0  0  0  0  0  0  0  0
    5.3710   -4.8140   19.9790 O   0  0  0  0  0  0  0  0  0  0  0  0
    6.9040   -4.2780   21.6640 N   0  0  0  0  0  0  0  0  0  0  0  0
    6.5730   -5.4350   22.4290 C   0  0  0  0  0  0  0  0  0  0  0  0
    5.9430   -5.0820   23.6850 C   0  0  0  0  0  0  0  0  0  0  0  0
    6.0880   -3.6430   23.9430 C   0  0  0  0  0  0  0  0  0  0  0  0
    5.6520   -3.2580   25.3300 C   0  0  0  0  0  0  0  0  0  0  0  0
    4.4440   -3.3210   25.6390 O   0  0  0  0  0  0  0  0  0  0  0  0
    6.5890   -2.8190   26.2800 N   0  0  0  0  0  0  0  0  0  0  0  0
    6.5460   -1.6920   27.1390 C   0  0  0  0  0  0  0  0  0  0  0  0
    7.0700   -1.6370   28.5180 C   0  0  0  0  0  0  0  0  0  0  0  0
    6.9480   -0.3290   29.3270 C   0  0  0  0  0  0  0  0  0  0  0  0
    6.3420    0.7290   28.7030 C   0  0  0  0  0  0  0  0  0  0  0  0
    6.3280    1.9030   29.6820 C   0  0  0  0  0  0  0  0  0  0  0  0
    5.7940    0.6930   27.2830 C   0  0  0  0  0  0  0  0  0  0  0  0
    5.1750    2.0420   26.8880 C   0  0  0  0  0  0  0  0  0  0  0  0
    4.3380    2.1220   25.7280 N   0  0  0  0  0  0  0  0  0  0  0  0
    4.0270    3.4800   25.7780 C   0  0  0  0  0  0  0  0  0  0  0  0
    3.1650    4.3300   24.8630 C   0  0  0  0  0  0  0  0  0  0  0  0
    4.6940    4.1140   26.9540 C   0  0  0  0  0  0  0  0  0  0  0  0
    5.3680    3.2440   27.5990 O   0  0  0  0  0  0  0  0  0  0  0  0
    5.8990   -0.4660   26.5530 C   0  0  0  0  0  0  0  0  0  0  0  0
    7.4640   -3.1630   23.6340 C   0  0  0  0  0  0  0  0  0  0  0  0
    7.5910   -3.1390   22.2500 C   0  0  0  0  0  0  0  0  0  0  0  0
  1  2  1  0
  2  3  2  0
  2  4  1  0
  4  5  1  0
  5  6  1  0
  6  7  1  0
  7  8  1  0
  8  9  2  0
  8 10  1  0
 10 11  1  0
 11 12  2  0
 12 13  1  0
 13 14  2  0
 14 15  1  0
 14 16  1  0
 16 17  1  0
 17 18  2  0
 18 19  1  0
 19 20  1  0
 19 21  2  0
 17 22  1  0
 21 22  1  0
 11 23  1  0
 16 23  2  0
  7 24  1  0
  4 25  1  0
 24 25  1  0
M  END
