piperidine-amides-15271-covalent
     RDKit          3D

 17 17  0  0  0  0  0  0  0  0999 V2000
    7.1210   -3.2630   19.1880 C   0  0  0  0  0  0  0  0  0  0  0  0
    6.3610   -4.0250   20.1960 C   0  0  0  0  0  0  0  0  0  0  0  0
    5.2820   -4.5740   19.8900 O   0  0  0  0  0  0  0  0  0  0  0  0
    6.8720   -4.1860   21.4840 N   0  0  0  0  0  0  0  0  0  0  0  0
    6.4180   -5.2980   22.2820 C   0  0  0  0  0  0  0  0  0  0  0  0
    5.4880   -4.6830   23.3290 C   0  0  0  0  0  0  0  0  0  0  0  0
    6.3900   -3.8740   24.2340 C   0  0  0  0  0  0  0  0  0  0  0  0
    5.5810   -3.2280   25.2830 C   0  0  0  0  0  0  0  0  0  0  0  0
    5.2220   -2.0460   25.1250 O   0  0  0  0  0  0  0  0  0  0  0  0
    5.2020   -3.9530   26.4220 N   0  0  0  0  0  0  0  0  0  0  0  0
    5.9730   -3.9470   27.6230 C   0  0  0  0  0  0  0  0  0  0  0  0
    5.9840   -5.3850   28.0890 C   0  0  0  0  0  0  0  0  0  0  0  0
    6.8790   -5.7890   29.0200 C   0  0  0  0  0  0  0  0  0  0  0  0
    4.6360   -5.5790   28.7440 C   0  0  0  0  0  0  0  0  0  0  0  0
    5.9550   -6.3370   27.0190 C   0  0  0  0  0  0  0  0  0  0  0  0
    7.2000   -2.8500   23.5240 C   0  0  0  0  0  0  0  0  0  0  0  0
    7.6500   -3.1520   22.1220 C   0  0  0  0  0  0  0  0  0  0  0  0
  1  2  1  0
  2  3  2  0
  2  4  1  0
  4  5  1  0
  5  6  1  0
  6  7  1  0
  7  8  1  0
  8  9  2  0
  8 10  1  0
 10 11  1  0
 12 11  1  0
 12 13  1  0
 12 14  1  0
 12 15  1  0
  7 16  1  0
  4 17  1  0
 16 17  1  0
M  END
