piperidine-amides-9941-covalent
     RDKit          3D

 26 28  0  0  0  0  0  0  0  0999 V2000
    7.1700   -3.2800   19.2140 C   0  0  0  0  0  0  0  0  0  0  0  0
    6.3840   -3.9930   20.2170 C   0  0  0  0  0  0  0  0  0  0  0  0
    5.2710   -4.4480   19.8480 O   0  0  0  0  0  0  0  0  0  0  0  0
    6.9030   -4.2060   21.4910 N   0  0  0  0  0  0  0  0  0  0  0  0
    6.3710   -5.2630   22.2950 C   0  0  0  0  0  0  0  0  0  0  0  0
    5.3450   -4.6250   23.1860 C   0  0  0  0  0  0  0  0  0  0  0  0
    5.7940   -3.2710   23.7040 C   0  0  0  0  0  0  0  0  0  0  0  0
    5.3300   -3.0920   25.0970 C   0  0  0  0  0  0  0  0  0  0  0  0
    4.0980   -3.1600   25.2940 O   0  0  0  0  0  0  0  0  0  0  0  0
    6.1580   -2.8490   26.2140 N   0  0  0  0  0  0  0  0  0  0  0  0
    5.5960   -2.2040   27.3770 C   0  0  0  0  0  0  0  0  0  0  0  0
    4.9070   -3.1310   28.3930 C   0  0  0  0  0  0  0  0  0  0  0  0
    6.0300   -3.8330   29.0130 N   0  0  0  0  0  0  0  0  0  0  0  0
    7.1550   -3.2160   28.7540 C   0  0  0  0  0  0  0  0  0  0  0  0
    6.1090   -5.1560   28.8290 C   0  0  0  0  0  0  0  0  0  0  0  0
    6.7110   -5.4000   27.6340 C   0  0  0  0  0  0  0  0  0  0  0  0
    8.0150   -5.8490   27.4680 C   0  0  0  0  0  0  0  0  0  0  0  0
    8.6250   -6.0500   26.2480 C   0  0  0  0  0  0  0  0  0  0  0  0
    7.9280   -5.7980   24.9300 C   0  0  0  0  0  0  0  0  0  0  0  0
    6.5250   -5.3360   25.1810 C   0  0  0  0  0  0  0  0  0  0  0  0
    5.9500   -5.1490   26.5330 C   0  0  0  0  0  0  0  0  0  0  0  0
    4.1040   -2.4770   29.4160 C   0  0  0  0  0  0  0  0  0  0  0  0
    2.9500   -3.1690   29.3080 C   0  0  0  0  0  0  0  0  0  0  0  0
    3.7250   -3.8500   28.2560 C   0  0  0  0  0  0  0  0  0  0  0  0
    7.2800   -3.0850   23.6020 C   0  0  0  0  0  0  0  0  0  0  0  0
    7.6830   -3.1540   22.1260 C   0  0  0  0  0  0  0  0  0  0  0  0
  1  2  1  0
  2  3  2  0
  2  4  1  0
  4  5  1  0
  5  6  1  0
  6  7  1  0
  7  8  1  0
  8  9  2  0
  8 10  1  0
 10 11  1  0
 11 12  1  0
 12 13  1  0
 13 14  1  0
 13 15  1  0
 15 16  1  0
 16 17  2  0
 17 18  1  0
 18 19  2  0
 19 20  1  0
 16 21  1  0
 20 21  2  0
 12 22  1  0
 22 23  1  0
 12 24  1  0
 23 24  1  0
  7 25  1  0
  4 26  1  0
 25 26  1  0
M  END
