piperidine-amides-33584-covalent
     RDKit          3D

 30 33  0  0  0  0  0  0  0  0999 V2000
    7.1010   -3.3040   19.2580 C   0  0  0  0  0  0  0  0  0  0  0  0
    6.4400   -4.1370   20.2710 C   0  0  0  0  0  0  0  0  0  0  0  0
    5.3570   -4.6830   19.9450 O   0  0  0  0  0  0  0  0  0  0  0  0
    7.0460   -4.3700   21.5270 N   0  0  0  0  0  0  0  0  0  0  0  0
    6.7370   -5.5830   22.1970 C   0  0  0  0  0  0  0  0  0  0  0  0
    6.2210   -5.3400   23.5240 C   0  0  0  0  0  0  0  0  0  0  0  0
    6.2020   -3.9090   23.8470 C   0  0  0  0  0  0  0  0  0  0  0  0
    5.7630   -3.6550   25.2380 C   0  0  0  0  0  0  0  0  0  0  0  0
    4.5480   -3.4710   25.4480 O   0  0  0  0  0  0  0  0  0  0  0  0
    6.6640   -3.6150   26.3100 N   0  0  0  0  0  0  0  0  0  0  0  0
    7.9420   -4.0400   26.4660 C   0  0  0  0  0  0  0  0  0  0  0  0
    7.7490   -4.0170   27.8710 C   0  0  0  0  0  0  0  0  0  0  0  0
    8.4230   -2.7350   28.3630 C   0  0  0  0  0  0  0  0  0  0  0  0
    7.6030   -1.8220   29.0210 C   0  0  0  0  0  0  0  0  0  0  0  0
    6.2810   -2.2520   29.3450 N   0  0  0  0  0  0  0  0  0  0  0  0
    5.2080   -1.3700   29.0550 C   0  0  0  0  0  0  0  0  0  0  0  0
    5.3210   -1.1100   27.5890 C   0  0  0  0  0  0  0  0  0  0  0  0
    3.8970   -1.3630   27.1170 C   0  0  0  0  0  0  0  0  0  0  0  0
    3.4550   -1.2430   25.6790 C   0  0  0  0  0  0  0  0  0  0  0  0
    4.6040   -0.8360   24.7420 C   0  0  0  0  0  0  0  0  0  0  0  0
    6.0330   -0.5880   25.2780 C   0  0  0  0  0  0  0  0  0  0  0  0
    6.3080   -0.7470   26.7190 C   0  0  0  0  0  0  0  0  0  0  0  0
    5.7610   -3.5360   28.9500 C   0  0  0  0  0  0  0  0  0  0  0  0
    6.7100   -4.4940   28.6150 C   0  0  0  0  0  0  0  0  0  0  0  0
    6.2730   -3.9290   27.6740 C   0  0  2  0  0  0  0  0  0  0  0  0
    5.3820   -5.0220   27.8370 C   0  0  0  0  0  0  0  0  0  0  0  0
    3.8900   -4.7260   27.6790 C   0  0  0  0  0  0  0  0  0  0  0  0
    5.6190   -6.1380   27.0500 C   0  0  0  0  0  0  0  0  0  0  0  0
    7.5940   -3.3170   23.6520 C   0  0  0  0  0  0  0  0  0  0  0  0
    7.7880   -3.2650   22.1340 C   0  0  0  0  0  0  0  0  0  0  0  0
  1  2  1  0
  2  3  2  0
  2  4  1  0
  4  5  1  0
  5  6  1  0
  6  7  1  0
  7  8  1  0
  8  9  2  0
  8 10  1  0
 10 11  1  0
 12 11  1  0
 12 13  1  0
 13 14  1  0
 14 15  1  0
 15 16  1  0
 16 17  1  0
 17 18  2  0
 18 19  1  0
 19 20  2  0
 20 21  1  0
 17 22  1  0
 21 22  2  0
 15 23  1  0
 12 24  1  0
 23 24  1  0
 10 25  1  0
 12 25  1  0
 25 26  1  6
 26 27  1  0
 26 28  1  0
  7 29  1  0
  4 30  1  0
 29 30  1  0
M  END
