piperidine-amides-30356-covalent
     RDKit          3D

 25 26  0  0  0  0  0  0  0  0999 V2000
    7.0370   -3.2900   19.2160 C   0  0  0  0  0  0  0  0  0  0  0  0
    6.2810   -4.0460   20.2140 C   0  0  0  0  0  0  0  0  0  0  0  0
    5.2390   -4.6030   19.8900 O   0  0  0  0  0  0  0  0  0  0  0  0
    6.7590   -4.1940   21.5580 N   0  0  0  0  0  0  0  0  0  0  0  0
    7.5530   -3.1490   22.1530 C   0  0  0  0  0  0  0  0  0  0  0  0
    7.3100   -3.1190   23.6270 C   0  0  0  0  0  0  0  0  0  0  0  0
    5.9310   -3.6620   23.8680 C   0  0  0  0  0  0  0  0  0  0  0  0
    5.4850   -3.4110   25.2780 C   0  0  0  0  0  0  0  0  0  0  0  0
    4.2730   -3.3820   25.5580 O   0  0  0  0  0  0  0  0  0  0  0  0
    6.4170   -3.1770   26.3280 N   0  0  0  0  0  0  0  0  0  0  0  0
    6.6600   -1.7780   26.6060 C   0  0  0  0  0  0  0  0  0  0  0  0
    6.3970   -4.1220   27.4390 C   0  0  1  0  0  0  0  0  0  0  0  0
    5.2110   -4.2980   28.1220 C   0  0  0  0  0  0  0  0  0  0  0  0
    4.2930   -3.2180   28.2540 C   0  0  0  0  0  0  0  0  0  0  0  0
    3.1020   -3.3800   28.9380 C   0  0  0  0  0  0  0  0  0  0  0  0
    2.7740   -4.6510   29.5280 C   0  0  0  0  0  0  0  0  0  0  0  0
    1.2490   -4.8600   30.4020 Cl  0  0  0  0  0  0  0  0  0  0  0  0
    3.6580   -5.6670   29.3920 C   0  0  0  0  0  0  0  0  0  0  0  0
    4.8420   -5.5080   28.7150 C   0  0  0  0  0  0  0  0  0  0  0  0
    6.9530   -5.2800   26.9240 C   0  0  0  0  0  0  0  0  0  0  0  0
    7.9270   -5.9120   27.6250 F   0  0  0  0  0  0  0  0  0  0  0  0
    5.9810   -6.2060   26.7960 F   0  0  0  0  0  0  0  0  0  0  0  0
    7.5610   -5.0640   25.6920 F   0  0  0  0  0  0  0  0  0  0  0  0
    5.7450   -5.0400   23.4490 C   0  0  0  0  0  0  0  0  0  0  0  0
    6.5000   -5.3830   22.3330 C   0  0  0  0  0  0  0  0  0  0  0  0
  1  2  1  0
  2  3  2  0
  2  4  1  0
  4  5  1  0
  5  6  1  0
  6  7  1  0
  7  8  1  0
  8  9  2  0
  8 10  1  0
 10 11  1  0
 12 10  1  6
 12 13  1  0
 13 14  2  0
 14 15  1  0
 15 16  2  0
 16 17  1  0
 16 18  1  0
 13 19  1  0
 18 19  2  0
 12 20  1  0
 20 21  1  0
 20 22  1  0
 20 23  1  0
  7 24  1  0
  4 25  1  0
 24 25  1  0
M  END
