piperidine-amides-34353-covalent
     RDKit          3D

 30 32  0  0  0  0  0  0  0  0999 V2000
    7.1260   -3.3210   19.2660 C   0  0  0  0  0  0  0  0  0  0  0  0
    6.4220   -4.1570   20.2420 C   0  0  0  0  0  0  0  0  0  0  0  0
    5.3440   -4.7100   19.9470 O   0  0  0  0  0  0  0  0  0  0  0  0
    6.9980   -4.4020   21.4900 N   0  0  0  0  0  0  0  0  0  0  0  0
    6.6800   -5.6300   22.1650 C   0  0  0  0  0  0  0  0  0  0  0  0
    5.7030   -5.2180   23.2530 C   0  0  0  0  0  0  0  0  0  0  0  0
    6.4690   -4.2850   24.1530 C   0  0  0  0  0  0  0  0  0  0  0  0
    5.5530   -3.8100   25.1860 C   0  0  0  0  0  0  0  0  0  0  0  0
    4.4260   -3.4190   24.8290 O   0  0  0  0  0  0  0  0  0  0  0  0
    5.9090   -3.7830   26.5340 N   0  0  0  0  0  0  0  0  0  0  0  0
    6.5160   -2.5650   26.9080 C   0  0  0  0  0  0  0  0  0  0  0  0
    6.8870   -2.7360   28.3310 C   0  0  0  0  0  0  0  0  0  0  0  0
    5.8600   -2.8470   29.1050 C   0  0  0  0  0  0  0  0  0  0  0  0
    5.0510   -1.6760   29.0620 N   0  0  0  0  0  0  0  0  0  0  0  0
    3.8890   -1.7350   28.3700 N   0  0  0  0  0  0  0  0  0  0  0  0
    3.2550   -0.5050   28.4400 N   0  0  0  0  0  0  0  0  0  0  0  0
    4.0920    0.2530   29.1960 C   0  0  0  0  0  0  0  0  0  0  0  0
    3.8480    1.5900   29.5240 C   0  0  0  0  0  0  0  0  0  0  0  0
    3.1340    1.8860   30.6390 O   0  0  0  0  0  0  0  0  0  0  0  0
    4.3200    2.6150   28.7190 O   0  0  0  0  0  0  0  0  0  0  0  0
    5.4140    3.4490   29.0870 C   0  0  0  0  0  0  0  0  0  0  0  0
    6.5370    3.3300   28.0710 C   0  0  0  0  0  0  0  0  0  0  0  0
    5.1780   -0.3820   29.6040 C   0  0  0  0  0  0  0  0  0  0  0  0
    6.3630    0.0040   30.4380 C   0  0  0  0  0  0  0  0  0  0  0  0
    7.4940   -0.6830   30.2150 F   0  0  0  0  0  0  0  0  0  0  0  0
    6.1850   -0.0720   31.7710 F   0  0  0  0  0  0  0  0  0  0  0  0
    5.2830   -4.0930   28.9240 C   0  0  0  0  0  0  0  0  0  0  0  0
    4.8880   -4.0530   27.5650 C   0  0  0  0  0  0  0  0  0  0  0  0
    6.8890   -3.0250   23.3910 C   0  0  0  0  0  0  0  0  0  0  0  0
    7.7280   -3.3820   22.2010 C   0  0  0  0  0  0  0  0  0  0  0  0
  1  2  1  0
  2  3  2  0
  2  4  1  0
  4  5  1  0
  5  6  1  0
  6  7  1  0
  7  8  1  0
  8  9  2  0
  8 10  1  0
 10 11  1  0
 11 12  1  0
 12 13  1  0
 13 14  1  0
 14 15  1  0
 15 16  2  0
 16 17  1  0
 17 18  1  0
 18 19  2  0
 18 20  1  0
 20 21  1  0
 21 22  1  0
 14 23  1  0
 17 23  2  0
 23 24  1  0
 24 25  1  0
 24 26  1  0
 13 27  1  0
 10 28  1  0
 27 28  1  0
  7 29  1  0
  4 30  1  0
 29 30  1  0
M  END
