piperidine-amides-4380-covalent
     RDKit          3D

 26 28  0  0  0  0  0  0  0  0999 V2000
    7.1340   -3.3280   19.2820 C   0  0  0  0  0  0  0  0  0  0  0  0
    6.3690   -4.1000   20.2690 C   0  0  0  0  0  0  0  0  0  0  0  0
    5.2790   -4.5840   19.8970 O   0  0  0  0  0  0  0  0  0  0  0  0
    6.8890   -4.3380   21.5590 N   0  0  0  0  0  0  0  0  0  0  0  0
    7.5690   -3.2590   22.1920 C   0  0  0  0  0  0  0  0  0  0  0  0
    7.0190   -2.8550   23.4810 C   0  0  0  0  0  0  0  0  0  0  0  0
    6.4400   -3.9440   24.2870 C   0  0  0  0  0  0  0  0  0  0  0  0
    5.7290   -3.3950   25.4930 C   0  0  0  0  0  0  0  0  0  0  0  0
    4.4760   -3.3650   25.5330 O   0  0  0  0  0  0  0  0  0  0  0  0
    6.4450   -2.8870   26.5960 N   0  0  0  0  0  0  0  0  0  0  0  0
    6.3550   -1.6060   27.1910 C   0  0  0  0  0  0  0  0  0  0  0  0
    5.6640   -0.4210   26.6300 C   0  0  0  0  0  0  0  0  0  0  0  0
    5.6760    0.8890   27.4470 C   0  0  0  0  0  0  0  0  0  0  0  0
    6.3460    0.7990   28.6280 C   0  0  0  0  0  0  0  0  0  0  0  0
    6.1830    2.2170   29.2120 C   0  0  0  0  0  0  0  0  0  0  0  0
    7.0300    2.7820   28.1090 C   0  0  0  0  0  0  0  0  0  0  0  0
    6.6600    4.0190   27.7380 N   0  0  0  0  0  0  0  0  0  0  0  0
    5.3830    4.3680   27.5050 C   0  0  0  0  0  0  0  0  0  0  0  0
    4.9090    5.6780   28.0940 C   0  0  0  0  0  0  0  0  0  0  0  0
    5.7510    6.3720   28.9840 O   0  0  0  0  0  0  0  0  0  0  0  0
    6.7800    5.6550   29.6390 C   0  0  0  0  0  0  0  0  0  0  0  0
    7.4530    4.5910   28.7640 C   0  0  0  0  0  0  0  0  0  0  0  0
    7.0540   -0.3260   29.2480 C   0  0  0  0  0  0  0  0  0  0  0  0
    7.0430   -1.5070   28.5160 C   0  0  0  0  0  0  0  0  0  0  0  0
    5.6380   -4.9450   23.5310 C   0  0  0  0  0  0  0  0  0  0  0  0
    6.3840   -5.4390   22.3200 C   0  0  0  0  0  0  0  0  0  0  0  0
  1  2  1  0
  2  3  2  0
  2  4  1  0
  4  5  1  0
  5  6  1  0
  6  7  1  0
  7  8  1  0
  8  9  2  0
  8 10  1  0
 10 11  1  0
 11 12  2  0
 12 13  1  0
 13 14  2  0
 14 15  1  0
 15 16  1  0
 16 17  1  0
 17 18  1  0
 18 19  1  0
 19 20  1  0
 20 21  1  0
 17 22  1  0
 21 22  1  0
 14 23  1  0
 11 24  1  0
 23 24  2  0
  7 25  1  0
  4 26  1  0
 25 26  1  0
M  END
