piperidine-amides-35699-covalent
     RDKit          3D

 49 54  0  0  0  0  0  0  0  0999 V2000
    7.0950   -3.3030   19.2700 C   0  0  0  0  0  0  0  0  0  0  0  0
    6.3910   -4.1300   20.2860 C   0  0  0  0  0  0  0  0  0  0  0  0
    5.3480   -4.6810   19.9340 O   0  0  0  0  0  0  0  0  0  0  0  0
    6.9340   -4.3040   21.5610 N   0  0  0  0  0  0  0  0  0  0  0  0
    6.5010   -5.3910   22.3840 C   0  0  0  0  0  0  0  0  0  0  0  0
    5.6450   -4.8330   23.4880 C   0  0  0  0  0  0  0  0  0  0  0  0
    6.3720   -3.6830   24.2090 C   0  0  0  0  0  0  0  0  0  0  0  0
    5.3800   -2.9440   25.0280 C   0  0  0  0  0  0  0  0  0  0  0  0
    4.3240   -2.5650   24.5180 O   0  0  0  0  0  0  0  0  0  0  0  0
    5.6260   -2.6900   26.3810 N   0  0  0  0  0  0  0  0  0  0  0  0
    5.9170   -1.3560   26.8830 C   0  0  0  0  0  0  0  0  0  0  0  0
    6.8430   -1.3990   28.0710 C   0  0  0  0  0  0  0  0  0  0  0  0
    7.2770   -0.3010   28.7480 C   0  0  0  0  0  0  0  0  0  0  0  0
    6.8840    0.9550   28.3740 C   0  0  0  0  0  0  0  0  0  0  0  0
    7.3520    2.1170   29.0970 N   0  0  0  0  0  0  0  0  0  0  0  0
    7.9710    1.9480   30.3920 C   0  0  0  0  0  0  0  0  0  0  0  0
    7.6850    0.9490   31.2720 O   0  0  0  0  0  0  0  0  0  0  0  0
    8.8680    2.9190   30.6210 N   0  0  0  0  0  0  0  0  0  0  0  0
    9.7200    2.5850   31.7770 C   0  0  0  0  0  0  0  0  0  0  0  0
   10.1100    1.1450   32.0250 C   0  0  0  0  0  0  0  0  0  0  0  0
   10.9880    0.8330   33.2370 C   0  0  0  0  0  0  0  0  0  0  0  0
   11.4470    1.9330   34.1490 C   0  0  0  0  0  0  0  0  0  0  0  0
   11.0970    3.3540   33.9470 C   0  0  0  0  0  0  0  0  0  0  0  0
   11.4780    4.5760   34.7700 C   0  0  0  0  0  0  0  0  0  0  0  0
   12.3750    5.4630   34.2360 F   0  0  0  0  0  0  0  0  0  0  0  0
   10.3840    5.3300   35.0680 F   0  0  0  0  0  0  0  0  0  0  0  0
   12.1140    4.1810   35.9450 F   0  0  0  0  0  0  0  0  0  0  0  0
   10.2330    3.6570   32.7530 C   0  0  0  0  0  0  0  0  0  0  0  0
    5.9620    0.9950   27.1830 C   0  0  0  0  0  0  0  0  0  0  0  0
    5.5020   -0.1070   26.4720 C   0  0  0  0  0  0  0  0  0  0  0  0
    6.4960   -3.5620   26.9820 C   0  0  0  0  0  0  0  0  0  0  0  0
    7.8350   -3.5010   26.5830 N   0  0  0  0  0  0  0  0  0  0  0  0
    8.5380   -4.3030   27.4500 C   0  0  0  0  0  0  0  0  0  0  0  0
    9.6450   -3.7190   27.8560 N   0  0  0  0  0  0  0  0  0  0  0  0
   10.2890   -4.3990   28.9190 C   0  0  0  0  0  0  0  0  0  0  0  0
   10.8030   -3.8960   30.6350 C   0  0  0  0  0  0  0  0  0  0  0  0
   11.5010   -5.7010   32.7910 C   0  0  0  0  0  0  0  0  0  0  0  0
   12.0380   -6.4490   34.6620 C   0  0  0  0  0  0  0  0  0  0  0  0
   13.2520   -5.9010   35.6940 C   0  0  0  0  0  0  0  0  0  0  0  0
   14.0370   -6.9370   36.4050 C   0  0  0  0  0  0  0  0  0  0  0  0
   13.5390   -8.2640   36.0740 C   0  0  0  0  0  0  0  0  0  0  0  0
   12.3220   -8.0330   35.1690 C   0  0  0  0  0  0  0  0  0  0  0  0
   11.5470   -6.3650   32.0290 N   0  0  0  0  0  0  0  0  0  0  0  0
   10.7520   -5.6850   29.1930 N   0  0  0  0  0  0  0  0  0  0  0  0
    7.9140   -5.5690   27.9030 C   0  0  0  0  0  0  0  0  0  0  0  0
    6.4630   -5.5780   28.1870 C   0  0  0  0  0  0  0  0  0  0  0  0
    5.9370   -4.3620   27.9650 N   0  0  0  0  0  0  0  0  0  0  0  0
    6.9930   -2.6530   23.3000 C   0  0  0  0  0  0  0  0  0  0  0  0
    7.7150   -3.2360   22.1290 C   0  0  0  0  0  0  0  0  0  0  0  0
  1  2  1  0
  2  3  2  0
  2  4  1  0
  4  5  1  0
  5  6  1  0
  6  7  1  0
  7  8  1  0
  8  9  2  0
  8 10  1  0
 10 11  1  0
 11 12  2  0
 12 13  1  0
 13 14  2  0
 14 15  1  0
 15 16  1  0
 16 17  2  0
 16 18  1  0
 18 19  1  0
 19 20  2  0
 20 21  1  0
 21 22  2  0
 22 23  1  0
 23 24  1  0
 24 25  1  0
 24 26  1  0
 24 27  1  0
 19 28  1  0
 23 28  2  0
 14 29  1  0
 11 30  1  0
 29 30  2  0
 10 31  1  0
 31 32  2  0
 32 33  1  0
 33 34  2  3
 34 35  1  0
 35 36  1  0
 36 37  2  0
 37 38  1  0
 38 39  1  0
 39 40  1  0
 40 41  1  0
 38 42  1  0
 41 42  1  0
 37 43  1  0
 35 44  2  0
 43 44  1  0
 33 45  1  0
 45 46  2  0
 31 47  1  0
 46 47  1  0
  7 48  1  0
  4 49  1  0
 48 49  1  0
M  END
