piperidine-amides-3022-covalent
     RDKit          3D

 23 24  0  0  0  0  0  0  0  0999 V2000
    7.0550   -3.2960   19.2360 C   0  0  0  0  0  0  0  0  0  0  0  0
    6.3230   -4.0580   20.2470 C   0  0  0  0  0  0  0  0  0  0  0  0
    5.3060   -4.6670   19.9250 O   0  0  0  0  0  0  0  0  0  0  0  0
    6.7960   -4.1470   21.6010 N   0  0  0  0  0  0  0  0  0  0  0  0
    7.6710   -3.1200   22.1220 C   0  0  0  0  0  0  0  0  0  0  0  0
    7.3790   -2.8860   23.5700 C   0  0  0  0  0  0  0  0  0  0  0  0
    6.1020   -3.6350   23.8800 C   0  0  0  0  0  0  0  0  0  0  0  0
    5.6450   -3.3610   25.2700 C   0  0  0  0  0  0  0  0  0  0  0  0
    4.4540   -3.4660   25.6100 O   0  0  0  0  0  0  0  0  0  0  0  0
    6.6060   -2.9550   26.2190 N   0  0  0  0  0  0  0  0  0  0  0  0
    6.3080   -3.0990   27.6290 C   0  0  0  0  0  0  0  0  0  0  0  0
    6.4040   -1.7040   28.2020 C   0  0  0  0  0  0  0  0  0  0  0  0
    6.0790   -0.5870   27.4270 C   0  0  0  0  0  0  0  0  0  0  0  0
    6.3320    0.8310   28.4850 S   0  0  0  0  0  0  0  0  0  0  0  0
    6.8370   -0.1210   29.8340 C   0  0  0  0  0  0  0  0  0  0  0  0
    7.2140    0.3660   31.0740 C   0  0  0  0  0  0  0  0  0  0  0  0
    8.5870    0.1430   31.4090 N   0  0  0  0  0  0  0  0  0  0  0  0
    9.5100    1.2400   31.4440 C   0  0  0  0  0  0  0  0  0  0  0  0
   10.8090    0.7780   31.5200 C   0  0  0  0  0  0  0  0  0  0  0  0
    9.1530    2.4640   31.4050 O   0  0  0  0  0  0  0  0  0  0  0  0
    6.8050   -1.4320   29.4860 N   0  0  0  0  0  0  0  0  0  0  0  0
    6.3970   -5.1150   23.6960 C   0  0  0  0  0  0  0  0  0  0  0  0
    6.4390   -5.3640   22.3190 C   0  0  0  0  0  0  0  0  0  0  0  0
  1  2  1  0
  2  3  2  0
  2  4  1  0
  4  5  1  0
  5  6  1  0
  6  7  1  0
  7  8  1  0
  8  9  2  0
  8 10  1  0
 10 11  1  0
 11 12  1  0
 12 13  2  0
 13 14  1  0
 14 15  1  0
 15 16  1  0
 16 17  1  0
 17 18  1  0
 18 19  1  0
 18 20  2  0
 12 21  1  0
 15 21  2  0
  7 22  1  0
  4 23  1  0
 22 23  1  0
M  END
