piperidine-amides-28867-covalent
     RDKit          3D

 25 27  0  0  0  0  0  0  0  0999 V2000
    7.0690   -3.3630   19.3970 C   0  0  0  0  0  0  0  0  0  0  0  0
    6.3850   -4.1930   20.3810 C   0  0  0  0  0  0  0  0  0  0  0  0
    5.3950   -4.8420   19.9910 O   0  0  0  0  0  0  0  0  0  0  0  0
    6.8730   -4.2930   21.7180 N   0  0  0  0  0  0  0  0  0  0  0  0
    6.5120   -5.4480   22.4930 C   0  0  0  0  0  0  0  0  0  0  0  0
    6.2200   -5.0640   23.9260 C   0  0  0  0  0  0  0  0  0  0  0  0
    6.0830   -3.5530   23.9870 C   0  0  0  0  0  0  0  0  0  0  0  0
    5.4650   -3.0510   25.2730 C   0  0  0  0  0  0  0  0  0  0  0  0
    4.2980   -2.7000   25.1360 O   0  0  0  0  0  0  0  0  0  0  0  0
    6.1260   -2.9950   26.5100 N   0  0  0  0  0  0  0  0  0  0  0  0
    5.5340   -3.8100   27.5400 C   0  0  0  0  0  0  0  0  0  0  0  0
    6.3020   -4.4590   28.4990 C   0  0  0  0  0  0  0  0  0  0  0  0
    5.7090   -5.2320   29.4450 C   0  0  0  0  0  0  0  0  0  0  0  0
    4.3400   -5.3770   29.4710 C   0  0  0  0  0  0  0  0  0  0  0  0
    3.6720   -6.4060   30.7480 Cl  0  0  0  0  0  0  0  0  0  0  0  0
    3.5370   -4.7220   28.5090 N   0  0  0  0  0  0  0  0  0  0  0  0
    4.1960   -3.9840   27.6070 N   0  0  0  0  0  0  0  0  0  0  0  0
    6.6230   -1.5510   26.8600 C   0  0  0  0  0  0  0  0  0  0  0  0
    7.0700   -1.6000   28.3620 C   0  0  0  0  0  0  0  0  0  0  0  0
    6.4690   -0.6020   29.2730 C   0  0  0  0  0  0  0  0  0  0  0  0
    6.2960    0.6510   28.4900 C   0  0  0  0  0  0  0  0  0  0  0  0
    5.2610    0.3060   27.4200 C   0  0  0  0  0  0  0  0  0  0  0  0
    5.6890   -0.4460   26.3490 C   0  0  0  0  0  0  0  0  0  0  0  0
    7.4310   -2.9860   23.7100 C   0  0  0  0  0  0  0  0  0  0  0  0
    7.6670   -3.1880   22.2410 C   0  0  0  0  0  0  0  0  0  0  0  0
  1  2  1  0
  2  3  2  0
  2  4  1  0
  4  5  1  0
  5  6  1  0
  6  7  1  0
  7  8  1  0
  8  9  2  0
  8 10  1  0
 10 11  1  0
 11 12  2  0
 12 13  1  0
 13 14  2  0
 14 15  1  0
 14 16  1  0
 11 17  1  0
 16 17  2  0
 10 18  1  0
 18 19  1  0
 19 20  1  0
 20 21  1  0
 21 22  1  0
 18 23  1  0
 22 23  1  0
  7 24  1  0
  4 25  1  0
 24 25  1  0
M  END
