piperidine-amides-27436-covalent
     RDKit          3D

 24 25  0  0  0  0  0  0  0  0999 V2000
    7.0950   -3.3010   19.2950 C   0  0  0  0  0  0  0  0  0  0  0  0
    6.3350   -4.0320   20.3140 C   0  0  0  0  0  0  0  0  0  0  0  0
    5.2990   -4.6240   19.9150 O   0  0  0  0  0  0  0  0  0  0  0  0
    6.7840   -4.0950   21.6380 N   0  0  0  0  0  0  0  0  0  0  0  0
    7.7280   -3.1320   22.1680 C   0  0  0  0  0  0  0  0  0  0  0  0
    7.4270   -2.9250   23.6210 C   0  0  0  0  0  0  0  0  0  0  0  0
    6.1020   -3.5540   23.9440 C   0  0  0  0  0  0  0  0  0  0  0  0
    5.5920   -3.1280   25.2690 C   0  0  0  0  0  0  0  0  0  0  0  0
    4.3620   -2.9180   25.3520 O   0  0  0  0  0  0  0  0  0  0  0  0
    6.3710   -2.9180   26.4340 N   0  0  0  0  0  0  0  0  0  0  0  0
    6.8800   -1.5900   26.6250 C   0  0  0  0  0  0  0  0  0  0  0  0
    6.0670   -3.7320   27.6010 C   0  0  0  0  0  0  0  0  0  0  0  0
    5.2790   -4.7980   27.2440 C   0  0  1  0  0  0  0  0  0  0  0  0
    5.9930   -5.8570   26.6300 O   0  0  0  0  0  0  0  0  0  0  0  0
    4.3820   -5.2890   28.1760 C   0  0  0  0  0  0  0  0  0  0  0  0
    3.0230   -5.0190   28.2190 C   0  0  0  0  0  0  0  0  0  0  0  0
    2.1680   -5.5380   29.1660 C   0  0  0  0  0  0  0  0  0  0  0  0
    0.9340   -5.3120   29.2350 O   0  0  0  0  0  0  0  0  0  0  0  0
    2.6820   -6.3750   30.1240 C   0  0  0  0  0  0  0  0  0  0  0  0
    4.1370   -6.7630   30.2060 C   0  0  0  0  0  0  0  0  0  0  0  0
    4.9820   -6.1140   29.0970 C   0  0  0  0  0  0  0  0  0  0  0  0
    6.6800   -6.4390   29.0320 Cl  0  0  0  0  0  0  0  0  0  0  0  0
    6.1690   -5.0790   23.7700 C   0  0  0  0  0  0  0  0  0  0  0  0
    6.6460   -5.3670   22.3500 C   0  0  0  0  0  0  0  0  0  0  0  0
  1  2  1  0
  2  3  2  0
  2  4  1  0
  4  5  1  0
  5  6  1  0
  6  7  1  0
  7  8  1  0
  8  9  2  0
  8 10  1  0
 10 11  1  0
 10 12  1  0
 12 13  1  0
 13 14  1  1
 13 15  1  0
 15 16  2  0
 16 17  1  0
 17 18  1  0
 17 19  2  0
 19 20  1  0
 15 21  1  0
 20 21  2  0
 21 22  1  0
  7 23  1  0
  4 24  1  0
 23 24  1  0
M  END
