piperidine-amides-1982-covalent
     RDKit          3D

 23 26  0  0  0  0  0  0  0  0999 V2000
    7.0330   -3.3320   19.3670 C   0  0  0  0  0  0  0  0  0  0  0  0
    6.3680   -4.1980   20.3770 C   0  0  0  0  0  0  0  0  0  0  0  0
    5.4110   -4.8690   19.9870 O   0  0  0  0  0  0  0  0  0  0  0  0
    6.8530   -4.2580   21.6930 N   0  0  0  0  0  0  0  0  0  0  0  0
    7.7300   -3.2380   22.2430 C   0  0  0  0  0  0  0  0  0  0  0  0
    7.3800   -2.9240   23.6750 C   0  0  0  0  0  0  0  0  0  0  0  0
    6.0910   -3.6510   24.0360 C   0  0  0  0  0  0  0  0  0  0  0  0
    5.6680   -3.2980   25.4130 C   0  0  0  0  0  0  0  0  0  0  0  0
    4.5090   -3.5670   25.7510 O   0  0  0  0  0  0  0  0  0  0  0  0
    6.5160   -2.6520   26.3450 N   0  0  0  0  0  0  0  0  0  0  0  0
    5.8830   -1.6860   27.2240 C   0  0  2  0  0  0  0  0  0  0  0  0
    5.9880   -0.4000   26.4860 C   0  0  0  0  0  0  0  0  0  0  0  0
    5.8080    0.6650   27.2520 C   0  0  0  0  0  0  0  0  0  0  0  0
    5.1070    0.2820   28.3320 C   0  0  0  0  0  0  0  0  0  0  0  0
    5.7470   -0.3910   29.3430 C   0  0  2  0  0  0  0  0  0  0  0  0
    5.1250   -0.5180   30.5240 O   0  0  0  0  0  0  0  0  0  0  0  0
    5.8150    0.0450   31.5180 C   0  0  0  0  0  0  0  0  0  0  0  0
    7.2360   -0.0480   31.0350 C   0  0  0  0  0  0  0  0  0  0  0  0
    7.1300    0.0510   29.5150 C   0  0  1  0  0  0  0  0  0  0  0  0
    7.6820   -1.1100   28.8800 C   0  0  0  0  0  0  0  0  0  0  0  0
    6.3550   -1.7170   28.6560 C   0  0  2  0  0  0  0  0  0  0  0  0
    6.0890   -5.1080   23.7650 C   0  0  0  0  0  0  0  0  0  0  0  0
    6.6920   -5.4780   22.4580 C   0  0  0  0  0  0  0  0  0  0  0  0
  1  2  1  0
  2  3  2  0
  2  4  1  0
  4  5  1  0
  5  6  1  0
  6  7  1  0
  7  8  1  0
  8  9  2  0
  8 10  1  0
 11 10  1  6
 11 12  1  0
 12 13  1  0
 13 14  1  0
 15 14  1  6
 15 16  1  0
 16 17  1  0
 17 18  1  0
 15 19  1  0
 19 18  1  1
 19 20  1  0
 11 21  1  0
 15 21  1  0
 21 20  1  6
  7 22  1  0
  4 23  1  0
 22 23  1  0
M  END
