piperidine-amides-5112-covalent
     RDKit          3D

 22 24  0  0  0  0  0  0  0  0999 V2000
    7.1250   -3.2680   19.1890 C   0  0  0  0  0  0  0  0  0  0  0  0
    6.3850   -4.0170   20.2350 C   0  0  0  0  0  0  0  0  0  0  0  0
    5.3190   -4.5640   19.8910 O   0  0  0  0  0  0  0  0  0  0  0  0
    6.9010   -4.1270   21.5320 N   0  0  0  0  0  0  0  0  0  0  0  0
    6.5430   -5.2490   22.3330 C   0  0  0  0  0  0  0  0  0  0  0  0
    5.9650   -4.8640   23.6190 C   0  0  0  0  0  0  0  0  0  0  0  0
    6.2590   -3.4580   23.9710 C   0  0  0  0  0  0  0  0  0  0  0  0
    6.0560   -3.1610   25.4070 C   0  0  0  0  0  0  0  0  0  0  0  0
    4.8830   -3.0480   25.8200 O   0  0  0  0  0  0  0  0  0  0  0  0
    7.1700   -2.9890   26.2630 N   0  0  0  0  0  0  0  0  0  0  0  0
    7.1140   -3.1600   27.7340 C   0  0  0  0  0  0  0  0  0  0  0  0
    6.7990   -4.5550   28.1350 C   0  0  0  0  0  0  0  0  0  0  0  0
    7.8350   -5.5740   28.0690 C   0  0  0  0  0  0  0  0  0  0  0  0
    7.1980   -6.7400   28.5050 N   0  0  0  0  0  0  0  0  0  0  0  0
    5.8750   -6.4900   28.8280 C   0  0  0  0  0  0  0  0  0  0  0  0
    5.6410   -5.1770   28.6010 N   0  0  0  0  0  0  0  0  0  0  0  0
    4.4120   -4.6950   28.8410 C   0  0  0  0  0  0  0  0  0  0  0  0
    3.5690   -5.5650   29.4970 C   0  0  0  0  0  0  0  0  0  0  0  0
    3.7060   -6.8690   29.0500 C   0  0  0  0  0  0  0  0  0  0  0  0
    4.9530   -7.4030   29.2910 C   0  0  0  0  0  0  0  0  0  0  0  0
    7.6660   -3.1180   23.5720 C   0  0  0  0  0  0  0  0  0  0  0  0
    7.7610   -3.0950   22.0980 C   0  0  0  0  0  0  0  0  0  0  0  0
  1  2  1  0
  2  3  2  0
  2  4  1  0
  4  5  1  0
  5  6  1  0
  6  7  1  0
  7  8  1  0
  8  9  2  0
  8 10  1  0
 10 11  1  0
 11 12  1  0
 12 13  2  0
 13 14  1  0
 14 15  2  0
 12 16  1  0
 15 16  1  0
 16 17  1  0
 17 18  1  0
 18 19  1  0
 15 20  1  0
 19 20  1  0
  7 21  1  0
  4 22  1  0
 21 22  1  0
M  END
