piperidine-amides-8895-covalent
     RDKit          3D

 22 23  0  0  0  0  0  0  0  0999 V2000
    7.0970   -3.2930   19.2670 C   0  0  0  0  0  0  0  0  0  0  0  0
    6.3480   -4.0360   20.2780 C   0  0  0  0  0  0  0  0  0  0  0  0
    5.3140   -4.6280   19.9150 O   0  0  0  0  0  0  0  0  0  0  0  0
    6.8180   -4.1000   21.6130 N   0  0  0  0  0  0  0  0  0  0  0  0
    6.6650   -5.3370   22.3320 C   0  0  0  0  0  0  0  0  0  0  0  0
    6.0690   -5.0360   23.6730 C   0  0  0  0  0  0  0  0  0  0  0  0
    6.0780   -3.5300   23.7670 C   0  0  0  0  0  0  0  0  0  0  0  0
    5.6340   -3.0610   25.1200 C   0  0  0  0  0  0  0  0  0  0  0  0
    4.4400   -2.7900   25.2270 O   0  0  0  0  0  0  0  0  0  0  0  0
    6.5550   -2.9600   26.1520 N   0  0  0  0  0  0  0  0  0  0  0  0
    6.2060   -3.4030   27.4570 C   0  0  0  0  0  0  0  0  0  0  0  0
    5.5370   -4.6330   27.4840 C   0  0  0  0  0  0  0  0  0  0  0  0
    5.0770   -5.2600   26.3220 C   0  0  0  0  0  0  0  0  0  0  0  0
    4.3960   -6.4790   26.2210 C   0  0  0  0  0  0  0  0  0  0  0  0
    4.1370   -7.1850   27.5000 C   0  0  0  0  0  0  0  0  0  0  0  0
    4.6550   -6.4720   28.7350 C   0  0  0  0  0  0  0  0  0  0  0  0
    4.5610   -6.9060   30.0550 N   0  0  0  0  0  0  0  0  0  0  0  0
    5.8240   -7.4250   30.4690 C   0  0  0  0  0  0  0  0  0  0  0  0
    3.4380   -7.7810   30.2860 C   0  0  0  0  0  0  0  0  0  0  0  0
    5.2640   -5.3330   28.6000 N   0  0  0  0  0  0  0  0  0  0  0  0
    7.3540   -2.8840   23.4540 C   0  0  0  0  0  0  0  0  0  0  0  0
    7.7390   -3.1070   22.1530 C   0  0  0  0  0  0  0  0  0  0  0  0
  1  2  1  0
  2  3  2  0
  2  4  1  0
  4  5  1  0
  5  6  1  0
  6  7  1  0
  7  8  1  0
  8  9  2  0
  8 10  1  0
 10 11  1  0
 11 12  1  0
 12 13  2  0
 13 14  1  0
 14 15  2  0
 15 16  1  0
 16 17  1  0
 17 18  1  0
 17 19  1  0
 12 20  1  0
 16 20  2  0
  7 21  1  0
  4 22  1  0
 21 22  1  0
M  END
