piperidine-amides-25376-covalent
     RDKit          3D

 25 27  0  0  0  0  0  0  0  0999 V2000
    7.0040   -3.3610   19.3530 C   0  0  0  0  0  0  0  0  0  0  0  0
    6.3250   -4.2510   20.3320 C   0  0  0  0  0  0  0  0  0  0  0  0
    5.3060   -4.8130   19.9580 O   0  0  0  0  0  0  0  0  0  0  0  0
    6.8600   -4.4650   21.6020 N   0  0  0  0  0  0  0  0  0  0  0  0
    6.5520   -5.6580   22.3500 C   0  0  0  0  0  0  0  0  0  0  0  0
    6.2640   -5.2900   23.7880 C   0  0  0  0  0  0  0  0  0  0  0  0
    5.7710   -3.8420   23.8840 C   0  0  0  0  0  0  0  0  0  0  0  0
    5.3320   -3.5250   25.2730 C   0  0  0  0  0  0  0  0  0  0  0  0
    4.2220   -3.0060   25.4390 O   0  0  0  0  0  0  0  0  0  0  0  0
    6.1250   -3.7860   26.4060 N   0  0  0  0  0  0  0  0  0  0  0  0
    5.6290   -3.4830   27.7280 C   0  0  0  0  0  0  0  0  0  0  0  0
    5.6020   -4.7880   28.5000 C   0  0  0  0  0  0  0  0  0  0  0  0
    6.4960   -5.8110   28.3020 C   0  0  0  0  0  0  0  0  0  0  0  0
    7.7990   -5.4720   28.1730 C   0  0  0  0  0  0  0  0  0  0  0  0
    8.0750   -4.7900   27.0320 C   0  0  0  0  0  0  0  0  0  0  0  0
    7.4470   -3.4400   26.7900 C   0  0  1  0  0  0  0  0  0  0  0  0
    8.1220   -2.8350   25.5840 C   0  0  0  0  0  0  0  0  0  0  0  0
    9.2420   -3.6930   25.0880 C   0  0  0  0  0  0  0  0  0  0  0  0
    9.9360   -3.1150   23.9070 C   0  0  0  0  0  0  0  0  0  0  0  0
    9.5890   -1.8420   23.2480 C   0  0  0  0  0  0  0  0  0  0  0  0
   10.2480   -1.2000   22.0420 C   0  0  0  0  0  0  0  0  0  0  0  0
    8.4310   -1.0520   23.8230 C   0  0  0  0  0  0  0  0  0  0  0  0
    7.7230   -1.6350   25.0370 C   0  0  0  0  0  0  0  0  0  0  0  0
    6.8850   -2.9260   23.4660 C   0  0  0  0  0  0  0  0  0  0  0  0
    7.5580   -3.3770   22.2050 C   0  0  0  0  0  0  0  0  0  0  0  0
  1  2  1  0
  2  3  2  0
  2  4  1  0
  4  5  1  0
  5  6  1  0
  6  7  1  0
  7  8  1  0
  8  9  2  0
  8 10  1  0
 10 11  1  0
 11 12  1  0
 12 13  1  0
 13 14  1  0
 14 15  1  0
 10 16  1  0
 15 16  1  0
 16 17  1  6
 17 18  2  0
 18 19  1  0
 19 20  2  0
 20 21  1  0
 20 22  1  0
 17 23  1  0
 22 23  2  0
  7 24  1  0
  4 25  1  0
 24 25  1  0
M  END
