piperidine-amides-1211-covalent
     RDKit          3D

 23 24  0  0  0  0  0  0  0  0999 V2000
    7.0770   -3.3290   19.3100 C   0  0  0  0  0  0  0  0  0  0  0  0
    6.3750   -4.1760   20.3120 C   0  0  0  0  0  0  0  0  0  0  0  0
    5.3600   -4.8050   19.9680 O   0  0  0  0  0  0  0  0  0  0  0  0
    6.9060   -4.2810   21.6110 N   0  0  0  0  0  0  0  0  0  0  0  0
    7.7480   -3.2450   22.1690 C   0  0  0  0  0  0  0  0  0  0  0  0
    6.9610   -2.6260   23.3110 C   0  0  0  0  0  0  0  0  0  0  0  0
    6.5310   -3.7740   24.1440 C   0  0  0  0  0  0  0  0  0  0  0  0
    5.8100   -3.3340   25.3560 C   0  0  0  0  0  0  0  0  0  0  0  0
    4.5750   -3.3600   25.3050 O   0  0  0  0  0  0  0  0  0  0  0  0
    6.5250   -2.9120   26.4780 N   0  0  0  0  0  0  0  0  0  0  0  0
    6.4520   -1.6450   27.1140 C   0  0  0  0  0  0  0  0  0  0  0  0
    5.9090   -0.5020   26.5650 C   0  0  0  0  0  0  0  0  0  0  0  0
    5.8600    0.7280   27.2580 C   0  0  0  0  0  0  0  0  0  0  0  0
    6.3560    0.8660   28.5360 C   0  0  0  0  0  0  0  0  0  0  0  0
    6.9630   -0.3110   29.2020 C   0  0  0  0  0  0  0  0  0  0  0  0
    7.5520   -0.2940   30.6210 C   0  0  0  0  0  0  0  0  0  0  0  0
    7.7920    1.0040   31.1830 N   0  0  0  0  0  0  0  0  0  0  0  0
    7.0640    2.1570   30.7890 C   0  0  0  0  0  0  0  0  0  0  0  0
    7.7680    3.0600   30.0180 C   0  0  0  0  0  0  0  0  0  0  0  0
    5.7450    2.3770   31.1440 O   0  0  0  0  0  0  0  0  0  0  0  0
    6.9660   -1.4510   28.4600 C   0  0  0  0  0  0  0  0  0  0  0  0
    5.7240   -4.8160   23.4300 C   0  0  0  0  0  0  0  0  0  0  0  0
    6.5400   -5.3700   22.4750 C   0  0  0  0  0  0  0  0  0  0  0  0
  1  2  1  0
  2  3  2  0
  2  4  1  0
  4  5  1  0
  5  6  1  0
  6  7  1  0
  7  8  1  0
  8  9  2  0
  8 10  1  0
 10 11  1  0
 11 12  2  0
 12 13  1  0
 13 14  2  0
 14 15  1  0
 15 16  1  0
 16 17  1  0
 17 18  1  0
 18 19  1  0
 18 20  2  0
 11 21  1  0
 15 21  2  0
  7 22  1  0
  4 23  1  0
 22 23  1  0
M  END
