piperidine-amides-25240-covalent
     RDKit          3D

 25 28  0  0  0  0  0  0  0  0999 V2000
    7.0540   -3.3320   19.2990 C   0  0  0  0  0  0  0  0  0  0  0  0
    6.3940   -4.1660   20.3380 C   0  0  0  0  0  0  0  0  0  0  0  0
    5.4060   -4.8120   19.9810 O   0  0  0  0  0  0  0  0  0  0  0  0
    6.9220   -4.2310   21.6340 N   0  0  0  0  0  0  0  0  0  0  0  0
    6.7210   -5.3930   22.4740 C   0  0  0  0  0  0  0  0  0  0  0  0
    6.0610   -4.9540   23.7490 C   0  0  0  0  0  0  0  0  0  0  0  0
    6.2080   -3.4350   23.8420 C   0  0  0  0  0  0  0  0  0  0  0  0
    5.8910   -2.9340   25.1930 C   0  0  0  0  0  0  0  0  0  0  0  0
    5.2570   -1.8840   25.3200 O   0  0  0  0  0  0  0  0  0  0  0  0
    6.2460   -3.6570   26.3210 N   0  0  0  0  0  0  0  0  0  0  0  0
    6.1810   -3.0040   27.6100 C   0  0  0  0  0  0  0  0  0  0  0  0
    5.7890   -3.9840   28.7310 C   0  0  1  0  0  0  0  0  0  0  0  0
    4.5100   -3.8450   29.1850 C   0  0  0  0  0  0  0  0  0  0  0  0
    3.7620   -4.9730   29.2040 C   0  0  0  0  0  0  0  0  0  0  0  0
    4.4330   -6.0100   29.7410 C   0  0  0  0  0  0  0  0  0  0  0  0
    5.9050   -6.1750   29.4450 C   0  0  0  0  0  0  0  0  0  0  0  0
    6.2120   -5.3990   28.3730 N   0  0  0  0  0  0  0  0  0  0  0  0
    5.5730   -5.8940   27.3350 C   0  0  0  0  0  0  0  0  0  0  0  0
    4.8980   -7.1590   27.2100 C   0  0  0  0  0  0  0  0  0  0  0  0
    5.3310   -7.4330   28.5450 C   0  0  0  0  0  0  0  0  0  0  0  0
    6.1450   -6.2110   28.9880 C   0  0  0  0  0  0  0  0  0  0  0  0
    6.3770   -4.9250   28.0450 C   0  0  0  0  0  0  0  0  0  0  0  0
    5.7730   -4.9000   26.6350 C   0  0  0  0  0  0  0  0  0  0  0  0
    7.6200   -3.0400   23.4830 C   0  0  0  0  0  0  0  0  0  0  0  0
    7.7980   -3.1580   22.1290 C   0  0  0  0  0  0  0  0  0  0  0  0
  1  2  1  0
  2  3  2  0
  2  4  1  0
  4  5  1  0
  5  6  1  0
  6  7  1  0
  7  8  1  0
  8  9  2  0
  8 10  1  0
 10 11  1  0
 12 11  1  6
 12 13  1  0
 13 14  1  0
 14 15  1  0
 15 16  1  0
 12 17  1  0
 16 17  1  0
 17 18  1  0
 18 19  2  0
 19 20  1  0
 20 21  2  0
 21 22  1  0
 10 23  1  0
 18 23  1  0
 22 23  2  0
  7 24  1  0
  4 25  1  0
 24 25  1  0
M  END
