piperidine-amides-6254-covalent
     RDKit          3D

 26 27  0  0  0  0  0  0  0  0999 V2000
    7.0960   -3.2510   19.2390 C   0  0  0  0  0  0  0  0  0  0  0  0
    6.3510   -4.0360   20.2430 C   0  0  0  0  0  0  0  0  0  0  0  0
    5.3190   -4.6600   19.9200 O   0  0  0  0  0  0  0  0  0  0  0  0
    6.8130   -4.1220   21.5560 N   0  0  0  0  0  0  0  0  0  0  0  0
    6.6870   -5.3860   22.2580 C   0  0  0  0  0  0  0  0  0  0  0  0
    6.0260   -5.1070   23.6130 C   0  0  0  0  0  0  0  0  0  0  0  0
    6.0990   -3.6090   23.8250 C   0  0  0  0  0  0  0  0  0  0  0  0
    5.5900   -3.2610   25.1580 C   0  0  0  0  0  0  0  0  0  0  0  0
    4.3530   -3.2440   25.3280 O   0  0  0  0  0  0  0  0  0  0  0  0
    6.4880   -2.9560   26.1980 N   0  0  0  0  0  0  0  0  0  0  0  0
    6.1420   -3.3400   27.5310 C   0  0  0  0  0  0  0  0  0  0  0  0
    5.5300   -2.1310   28.2150 C   0  0  0  0  0  0  0  0  0  0  0  0
    4.3110   -1.6260   27.8340 C   0  0  0  0  0  0  0  0  0  0  0  0
    3.8290   -0.4800   28.4470 C   0  0  0  0  0  0  0  0  0  0  0  0
    4.3240   -0.2050   29.7580 N   0  0  0  0  0  0  0  0  0  0  0  0
    3.4250    0.7910   30.7630 S   0  0  0  0  0  0  0  0  0  0  0  0
    4.3720    1.4570   31.7280 O   0  0  0  0  0  0  0  0  0  0  0  0
    2.7140    1.8170   29.9280 O   0  0  0  0  0  0  0  0  0  0  0  0
    2.2220   -0.0320   31.7630 C   0  0  0  0  0  0  0  0  0  0  0  0
    0.9990    0.6030   31.6530 F   0  0  0  0  0  0  0  0  0  0  0  0
    2.5560   -0.0560   33.0940 F   0  0  0  0  0  0  0  0  0  0  0  0
    2.0290   -1.3380   31.3550 F   0  0  0  0  0  0  0  0  0  0  0  0
    4.9850   -1.2460   30.4550 C   0  0  0  0  0  0  0  0  0  0  0  0
    5.3300   -2.4840   29.6620 C   0  0  0  0  0  0  0  0  0  0  0  0
    7.4430   -3.0520   23.5560 C   0  0  0  0  0  0  0  0  0  0  0  0
    7.7180   -3.1170   22.1030 C   0  0  0  0  0  0  0  0  0  0  0  0
  1  2  1  0
  2  3  2  0
  2  4  1  0
  4  5  1  0
  5  6  1  0
  6  7  1  0
  7  8  1  0
  8  9  2  0
  8 10  1  0
 10 11  1  0
 11 12  1  0
 12 13  1  0
 13 14  1  0
 14 15  1  0
 16 15  1  0
 16 17  2  0
 16 18  2  0
 16 19  1  0
 19 20  1  0
 19 21  1  0
 19 22  1  0
 15 23  1  0
 12 24  1  0
 23 24  1  0
  7 25  1  0
  4 26  1  0
 25 26  1  0
M  END
