piperidine-amides-11302-covalent
     RDKit          3D

 18 19  0  0  0  0  0  0  0  0999 V2000
    7.1510   -3.2790   19.2060 C   0  0  0  0  0  0  0  0  0  0  0  0
    6.3300   -3.9630   20.2000 C   0  0  0  0  0  0  0  0  0  0  0  0
    5.2530   -4.4780   19.8600 O   0  0  0  0  0  0  0  0  0  0  0  0
    6.7730   -4.0940   21.5200 N   0  0  0  0  0  0  0  0  0  0  0  0
    6.5370   -5.2940   22.2940 C   0  0  0  0  0  0  0  0  0  0  0  0
    5.8220   -4.8400   23.5420 C   0  0  0  0  0  0  0  0  0  0  0  0
    6.5220   -3.6800   24.1890 C   0  0  0  0  0  0  0  0  0  0  0  0
    5.7950   -3.1600   25.3640 C   0  0  0  0  0  0  0  0  0  0  0  0
    4.5470   -2.9500   25.3010 O   0  0  0  0  0  0  0  0  0  0  0  0
    6.4380   -2.8630   26.5870 N   0  0  0  0  0  0  0  0  0  0  0  0
    6.1560   -3.6380   27.8170 C   0  0  0  0  0  0  0  0  0  0  0  0
    4.8330   -4.2910   27.6680 C   0  0  2  0  0  0  0  0  0  0  0  0
    3.9960   -4.5020   28.6910 C   0  0  0  0  0  0  0  0  0  0  0  0
    4.7420   -5.7690   28.2260 C   0  0  0  0  0  0  0  0  0  0  0  0
    3.8420   -6.9680   27.2730 Cl  0  0  0  0  0  0  0  0  0  0  0  0
    6.1840   -6.3370   29.0380 Cl  0  0  0  0  0  0  0  0  0  0  0  0
    6.9380   -2.5860   23.2850 C   0  0  0  0  0  0  0  0  0  0  0  0
    7.6430   -3.1140   22.1110 C   0  0  0  0  0  0  0  0  0  0  0  0
  1  2  1  0
  2  3  2  0
  2  4  1  0
  4  5  1  0
  5  6  1  0
  6  7  1  0
  7  8  1  0
  8  9  2  0
  8 10  1  0
 10 11  1  0
 12 11  1  1
 12 13  1  0
 12 14  1  0
 13 14  1  0
 14 15  1  0
 14 16  1  0
  7 17  1  0
  4 18  1  0
 17 18  1  0
M  END
