piperidine-amides-32165-covalent
     RDKit          3D

 28 30  0  0  0  0  0  0  0  0999 V2000
    7.0310   -3.3570   19.4040 C   0  0  0  0  0  0  0  0  0  0  0  0
    6.3580   -4.2550   20.3850 C   0  0  0  0  0  0  0  0  0  0  0  0
    5.3820   -4.9200   19.9930 O   0  0  0  0  0  0  0  0  0  0  0  0
    6.8550   -4.3750   21.7090 N   0  0  0  0  0  0  0  0  0  0  0  0
    6.6080   -5.5770   22.4860 C   0  0  0  0  0  0  0  0  0  0  0  0
    6.0670   -5.1890   23.8800 C   0  0  0  0  0  0  0  0  0  0  0  0
    5.8270   -3.7120   23.8880 C   0  0  0  0  0  0  0  0  0  0  0  0
    5.0120   -3.1400   25.0200 C   0  0  0  0  0  0  0  0  0  0  0  0
    4.0170   -2.5160   24.6620 O   0  0  0  0  0  0  0  0  0  0  0  0
    5.3280   -3.2850   26.3780 N   0  0  0  0  0  0  0  0  0  0  0  0
    6.2020   -4.1800   26.8760 C   0  0  0  0  0  0  0  0  0  0  0  0
    5.8670   -4.7240   28.0310 C   0  0  1  0  0  0  0  0  0  0  0  0
    6.4810   -4.1560   29.1130 C   0  0  0  0  0  0  0  0  0  0  0  0
    6.2600   -2.7740   29.2030 C   0  0  0  0  0  0  0  0  0  0  0  0
    5.1160   -2.1540   28.4560 C   0  0  0  0  0  0  0  0  0  0  0  0
    4.4370   -3.1830   27.5640 C   0  0  1  0  0  0  0  0  0  0  0  0
    3.0140   -2.6610   27.3270 C   0  0  0  0  0  0  0  0  0  0  0  0
    2.2150   -2.4530   28.3960 N   0  0  0  0  0  0  0  0  0  0  0  0
    0.9360   -2.2790   28.0210 C   0  0  0  0  0  0  0  0  0  0  0  0
    0.4440   -1.0950   27.5110 O   0  0  0  0  0  0  0  0  0  0  0  0
    0.0930   -3.3670   28.1710 O   0  0  0  0  0  0  0  0  0  0  0  0
   -1.2770   -3.3570   27.9120 C   0  0  0  0  0  0  0  0  0  0  0  0
   -1.4850   -2.6080   26.6130 C   0  0  0  0  0  0  0  0  0  0  0  0
   -2.1700   -2.8890   29.0320 C   0  0  0  0  0  0  0  0  0  0  0  0
   -1.7850   -4.7930   27.6080 C   0  0  0  0  0  0  0  0  0  0  0  0
    4.5730   -4.4350   28.1220 C   0  0  0  0  0  0  0  0  0  0  0  0
    7.1340   -2.9820   23.6910 C   0  0  0  0  0  0  0  0  0  0  0  0
    7.6230   -3.2710   22.3140 C   0  0  0  0  0  0  0  0  0  0  0  0
  1  2  1  0
  2  3  2  0
  2  4  1  0
  4  5  1  0
  5  6  1  0
  6  7  1  0
  7  8  1  0
  8  9  2  0
  8 10  1  0
 10 11  1  0
 12 11  1  6
 12 13  1  0
 13 14  1  0
 14 15  1  0
 10 16  1  0
 15 16  1  0
 16 17  1  6
 17 18  1  0
 18 19  1  0
 19 20  2  0
 19 21  1  0
 22 21  1  0
 22 23  1  0
 22 24  1  0
 22 25  1  0
 12 26  1  0
 16 26  1  0
  7 27  1  0
  4 28  1  0
 27 28  1  0
M  END
