piperidine-amides-23732-covalent
     RDKit          3D

 24 26  0  0  0  0  0  0  0  0999 V2000
    7.0370   -3.3840   19.4200 C   0  0  0  0  0  0  0  0  0  0  0  0
    6.4080   -4.2810   20.4040 C   0  0  0  0  0  0  0  0  0  0  0  0
    5.4040   -4.9230   20.0010 O   0  0  0  0  0  0  0  0  0  0  0  0
    6.9410   -4.4430   21.7170 N   0  0  0  0  0  0  0  0  0  0  0  0
    6.6100   -5.6000   22.4770 C   0  0  0  0  0  0  0  0  0  0  0  0
    6.0990   -5.2670   23.8000 C   0  0  0  0  0  0  0  0  0  0  0  0
    5.9480   -3.8170   23.9840 C   0  0  0  0  0  0  0  0  0  0  0  0
    5.2150   -3.3870   25.2420 C   0  0  0  0  0  0  0  0  0  0  0  0
    4.3140   -2.5480   25.1130 O   0  0  0  0  0  0  0  0  0  0  0  0
    5.4680   -3.8550   26.5530 N   0  0  0  0  0  0  0  0  0  0  0  0
    4.5440   -4.3480   27.5070 C   0  0  0  0  0  0  0  0  0  0  0  0
    4.8830   -4.3170   28.9420 C   0  0  0  0  0  0  0  0  0  0  0  0
    5.3780   -2.8890   29.1880 C   0  0  0  0  0  0  0  0  0  0  0  0
    4.9370   -1.9110   30.1610 N   0  0  0  0  0  0  0  0  0  0  0  0
    5.4430   -0.6520   30.2360 N   0  0  0  0  0  0  0  0  0  0  0  0
    5.5140   -0.2440   31.5310 C   0  0  0  0  0  0  0  0  0  0  0  0
    5.2490    1.2610   31.5530 C   0  0  0  0  0  0  0  0  0  0  0  0
    6.6960   -0.3740   29.6550 C   0  0  0  0  0  0  0  0  0  0  0  0
    7.6700    0.5830   29.9260 O   0  0  0  0  0  0  0  0  0  0  0  0
    7.0370   -1.3190   28.4790 C   0  0  0  0  0  0  0  0  0  0  0  0
    6.3660   -2.6030   28.2530 C   0  0  0  0  0  0  0  0  0  0  0  0
    6.6450   -3.5200   27.1590 C   0  0  0  0  0  0  0  0  0  0  0  0
    7.2940   -3.1060   23.7690 C   0  0  0  0  0  0  0  0  0  0  0  0
    7.6150   -3.2590   22.3110 C   0  0  0  0  0  0  0  0  0  0  0  0
  1  2  1  0
  2  3  2  0
  2  4  1  0
  4  5  1  0
  5  6  1  0
  6  7  1  0
  7  8  1  0
  8  9  2  0
  8 10  1  0
 10 11  1  0
 11 12  1  0
 12 13  1  0
 13 14  2  0
 14 15  1  0
 15 16  1  0
 16 17  1  0
 15 18  1  0
 18 19  2  0
 18 20  1  0
 13 21  1  0
 20 21  2  0
 10 22  1  0
 21 22  1  0
  7 23  1  0
  4 24  1  0
 23 24  1  0
M  END
