piperidine-amides-4324-covalent
     RDKit          3D

 26 28  0  0  0  0  0  0  0  0999 V2000
    7.1680   -3.2790   19.1200 C   0  0  0  0  0  0  0  0  0  0  0  0
    6.4050   -3.9970   20.1570 C   0  0  0  0  0  0  0  0  0  0  0  0
    5.2810   -4.4520   19.8450 O   0  0  0  0  0  0  0  0  0  0  0  0
    6.9720   -4.2150   21.4280 N   0  0  0  0  0  0  0  0  0  0  0  0
    6.5340   -5.3340   22.1840 C   0  0  0  0  0  0  0  0  0  0  0  0
    5.9570   -4.9640   23.4660 C   0  0  0  0  0  0  0  0  0  0  0  0
    6.0530   -3.5270   23.7910 C   0  0  0  0  0  0  0  0  0  0  0  0
    5.8550   -3.3140   25.2310 C   0  0  0  0  0  0  0  0  0  0  0  0
    4.7050   -3.2890   25.7120 O   0  0  0  0  0  0  0  0  0  0  0  0
    6.9940   -3.1390   26.0230 N   0  0  0  0  0  0  0  0  0  0  0  0
    7.1160   -3.3980   27.3810 C   0  0  0  0  0  0  0  0  0  0  0  0
    6.7560   -2.3770   28.3380 C   0  0  0  0  0  0  0  0  0  0  0  0
    5.6400   -2.8780   29.2860 C   0  0  0  0  0  0  0  0  0  0  0  0
    4.7460   -2.1740   30.0390 C   0  0  0  0  0  0  0  0  0  0  0  0
    3.6990   -2.9830   30.8950 C   0  0  0  0  0  0  0  0  0  0  0  0
    3.7170   -4.5310   30.8530 C   0  0  0  0  0  0  0  0  0  0  0  0
    4.8040   -5.1460   29.9470 C   0  0  0  0  0  0  0  0  0  0  0  0
    4.9240   -6.4990   29.8340 F   0  0  0  0  0  0  0  0  0  0  0  0
    5.7450   -4.3210   29.1830 C   0  0  0  0  0  0  0  0  0  0  0  0
    7.9680   -1.7630   29.0020 C   0  0  0  0  0  0  0  0  0  0  0  0
    7.5300   -0.7370   30.0410 C   0  0  0  0  0  0  0  0  0  0  0  0
    7.2130    0.3440   29.4470 O   0  0  0  0  0  0  0  0  0  0  0  0
    6.3590    0.2080   28.3290 C   0  0  0  0  0  0  0  0  0  0  0  0
    6.2250   -1.0730   27.7740 C   0  0  0  0  0  0  0  0  0  0  0  0
    7.3150   -2.8440   23.3920 C   0  0  0  0  0  0  0  0  0  0  0  0
    7.7560   -3.1620   22.0020 C   0  0  0  0  0  0  0  0  0  0  0  0
  1  2  1  0
  2  3  2  0
  2  4  1  0
  4  5  1  0
  5  6  1  0
  6  7  1  0
  7  8  1  0
  8  9  2  0
  8 10  1  0
 10 11  1  0
 12 11  1  0
 12 13  1  0
 13 14  2  0
 14 15  1  0
 15 16  2  0
 16 17  1  0
 17 18  1  0
 13 19  1  0
 17 19  2  0
 12 20  1  0
 20 21  1  0
 21 22  1  0
 22 23  1  0
 12 24  1  0
 23 24  1  0
  7 25  1  0
  4 26  1  0
 25 26  1  0
M  END
