piperidine-amides-11275-covalent
     RDKit          3D

 19 19  0  0  0  0  0  0  0  0999 V2000
    7.1000   -3.2680   19.2070 C   0  0  0  0  0  0  0  0  0  0  0  0
    6.3440   -4.0080   20.2200 C   0  0  0  0  0  0  0  0  0  0  0  0
    5.2890   -4.5750   19.8920 O   0  0  0  0  0  0  0  0  0  0  0  0
    6.8080   -4.1320   21.5400 N   0  0  0  0  0  0  0  0  0  0  0  0
    7.7060   -3.1670   22.1210 C   0  0  0  0  0  0  0  0  0  0  0  0
    6.9620   -2.5750   23.2840 C   0  0  0  0  0  0  0  0  0  0  0  0
    5.9850   -3.5310   23.9210 C   0  0  0  0  0  0  0  0  0  0  0  0
    5.9000   -3.3330   25.3850 C   0  0  0  0  0  0  0  0  0  0  0  0
    4.7690   -3.1840   25.9410 O   0  0  0  0  0  0  0  0  0  0  0  0
    7.0470   -3.2960   26.2140 N   0  0  0  0  0  0  0  0  0  0  0  0
    7.3630   -4.4230   27.1180 C   0  0  0  0  0  0  0  0  0  0  0  0
    8.8000   -4.7650   26.9750 C   0  0  1  0  0  0  0  0  0  0  0  0
    9.0870   -6.1500   26.7280 C   0  0  0  0  0  0  0  0  0  0  0  0
    9.4880   -4.0860   25.8200 C   0  0  0  0  0  0  0  0  0  0  0  0
    8.7270   -3.7310   24.7380 O   0  0  0  0  0  0  0  0  0  0  0  0
   10.8270   -3.8510   25.8520 O   0  0  0  0  0  0  0  0  0  0  0  0
   11.4300   -2.8970   24.9930 C   0  0  0  0  0  0  0  0  0  0  0  0
    6.3180   -4.9630   23.6300 C   0  0  0  0  0  0  0  0  0  0  0  0
    6.3400   -5.2510   22.2890 C   0  0  0  0  0  0  0  0  0  0  0  0
  1  2  1  0
  2  3  2  0
  2  4  1  0
  4  5  1  0
  5  6  1  0
  6  7  1  0
  7  8  1  0
  8  9  2  0
  8 10  1  0
 10 11  1  0
 11 12  1  0
 12 13  1  6
 12 14  1  0
 14 15  2  0
 14 16  1  0
 16 17  1  0
  7 18  1  0
  4 19  1  0
 18 19  1  0
M  END
