piperidine-amides-29952-covalent
     RDKit          3D

 26 28  0  0  0  0  0  0  0  0999 V2000
    7.0760   -3.3370   19.3430 C   0  0  0  0  0  0  0  0  0  0  0  0
    6.3780   -4.1920   20.2920 C   0  0  0  0  0  0  0  0  0  0  0  0
    5.3490   -4.7780   19.9590 O   0  0  0  0  0  0  0  0  0  0  0  0
    6.9170   -4.4070   21.6030 N   0  0  0  0  0  0  0  0  0  0  0  0
    6.4580   -5.5320   22.3560 C   0  0  0  0  0  0  0  0  0  0  0  0
    5.5280   -5.0440   23.4250 C   0  0  0  0  0  0  0  0  0  0  0  0
    6.3030   -4.0850   24.3190 C   0  0  0  0  0  0  0  0  0  0  0  0
    5.3730   -3.4260   25.2820 C   0  0  0  0  0  0  0  0  0  0  0  0
    4.5590   -2.5690   24.9070 O   0  0  0  0  0  0  0  0  0  0  0  0
    5.3910   -3.7570   26.6630 N   0  0  0  0  0  0  0  0  0  0  0  0
    4.1760   -3.7050   27.3930 C   0  0  0  0  0  0  0  0  0  0  0  0
    4.4090   -4.3860   28.7270 C   0  0  0  0  0  0  0  0  0  0  0  0
    5.6650   -4.6850   29.2160 C   0  0  0  0  0  0  0  0  0  0  0  0
    5.5140   -5.8790   30.0010 N   0  0  0  0  0  0  0  0  0  0  0  0
    4.4260   -5.8750   30.8820 C   0  0  0  0  0  0  0  0  0  0  0  0
    4.4280   -7.0530   31.5410 C   0  0  0  0  0  0  0  0  0  0  0  0
    3.5710   -7.6370   32.5720 C   0  0  0  0  0  0  0  0  0  0  0  0
    4.2870   -8.4980   33.3550 F   0  0  0  0  0  0  0  0  0  0  0  0
    2.9250   -6.6530   33.2960 F   0  0  0  0  0  0  0  0  0  0  0  0
    2.6000   -8.3810   31.9180 F   0  0  0  0  0  0  0  0  0  0  0  0
    5.5860   -7.7850   31.0070 N   0  0  0  0  0  0  0  0  0  0  0  0
    6.1910   -7.0030   30.0740 N   0  0  0  0  0  0  0  0  0  0  0  0
    6.6600   -4.5060   28.3150 C   0  0  0  0  0  0  0  0  0  0  0  0
    6.4570   -3.4200   27.4830 C   0  0  0  0  0  0  0  0  0  0  0  0
    7.1910   -3.0950   23.6410 C   0  0  0  0  0  0  0  0  0  0  0  0
    7.5880   -3.3320   22.2520 C   0  0  0  0  0  0  0  0  0  0  0  0
  1  2  1  0
  2  3  2  0
  2  4  1  0
  4  5  1  0
  5  6  1  0
  6  7  1  0
  7  8  1  0
  8  9  2  0
  8 10  1  0
 10 11  1  0
 11 12  1  0
 12 13  1  0
 13 14  1  0
 14 15  1  0
 15 16  2  0
 16 17  1  0
 17 18  1  0
 17 19  1  0
 17 20  1  0
 16 21  1  0
 14 22  1  0
 21 22  2  0
 13 23  1  0
 10 24  1  0
 23 24  1  0
  7 25  1  0
  4 26  1  0
 25 26  1  0
M  END
