piperidine-amides-11215-covalent
     RDKit          3D

 19 20  0  0  0  0  0  0  0  0999 V2000
    7.1060   -3.3310   19.2560 C   0  0  0  0  0  0  0  0  0  0  0  0
    6.4140   -4.1240   20.2710 C   0  0  0  0  0  0  0  0  0  0  0  0
    5.3820   -4.7490   19.9640 O   0  0  0  0  0  0  0  0  0  0  0  0
    6.9500   -4.2360   21.5610 N   0  0  0  0  0  0  0  0  0  0  0  0
    7.8590   -3.2280   22.0530 C   0  0  0  0  0  0  0  0  0  0  0  0
    7.1960   -2.6940   23.2690 C   0  0  0  0  0  0  0  0  0  0  0  0
    6.8160   -3.7980   24.1950 C   0  0  0  0  0  0  0  0  0  0  0  0
    6.1510   -3.2350   25.3850 C   0  0  0  0  0  0  0  0  0  0  0  0
    4.9760   -3.5970   25.7000 O   0  0  0  0  0  0  0  0  0  0  0  0
    6.7950   -2.2660   26.1960 N   0  0  0  0  0  0  0  0  0  0  0  0
    6.1620   -1.7780   27.4300 C   0  0  2  0  0  0  0  0  0  0  0  0
    5.4400   -2.9610   27.9440 C   0  0  0  0  0  0  0  0  0  0  0  0
    5.0490   -0.7610   27.0850 C   0  0  0  0  0  0  0  0  0  0  0  0
    5.7920    0.4180   27.5160 C   0  0  0  0  0  0  0  0  0  0  0  0
    7.0580   -0.1120   27.7670 N   0  0  0  0  0  0  0  0  0  0  0  0
    6.8330   -1.2890   28.6210 C   0  0  0  0  0  0  0  0  0  0  0  0
    7.5470   -0.2560   29.2830 O   0  0  0  0  0  0  0  0  0  0  0  0
    5.9260   -4.7960   23.5190 C   0  0  0  0  0  0  0  0  0  0  0  0
    6.4930   -5.3130   22.3810 C   0  0  0  0  0  0  0  0  0  0  0  0
  1  2  1  0
  2  3  2  0
  2  4  1  0
  4  5  1  0
  5  6  1  0
  6  7  1  0
  7  8  1  0
  8  9  2  0
  8 10  1  0
 11 10  1  0
 11 12  1  1
 11 13  1  0
 13 14  1  0
 14 15  1  0
 11 16  1  0
 15 16  1  0
 16 17  2  0
  7 18  1  0
  4 19  1  0
 18 19  1  0
M  END
