piperidine-amides-31570-covalent
     RDKit          3D

 27 29  0  0  0  0  0  0  0  0999 V2000
    7.0790   -3.4260   19.4060 C   0  0  0  0  0  0  0  0  0  0  0  0
    6.3880   -4.2080   20.4060 C   0  0  0  0  0  0  0  0  0  0  0  0
    5.3950   -4.8900   20.0010 O   0  0  0  0  0  0  0  0  0  0  0  0
    6.7830   -4.3010   21.7660 N   0  0  0  0  0  0  0  0  0  0  0  0
    7.8350   -3.4130   22.2950 C   0  0  0  0  0  0  0  0  0  0  0  0
    7.0230   -2.6450   23.3980 C   0  0  0  0  0  0  0  0  0  0  0  0
    6.3520   -3.6740   24.3030 C   0  0  0  0  0  0  0  0  0  0  0  0
    5.3390   -2.8550   25.2370 C   0  0  0  0  0  0  0  0  0  0  0  0
    4.5540   -2.2480   24.5270 O   0  0  0  0  0  0  0  0  0  0  0  0
    5.5580   -3.0270   26.4940 N   0  0  0  0  0  0  0  0  0  0  0  0
    5.5830   -3.6140   27.7220 C   0  0  0  0  0  0  0  0  0  0  0  0
    6.4390   -4.3920   28.3990 C   0  0  0  0  0  0  0  0  0  0  0  0
    7.4470   -4.6410   27.5160 C   0  0  0  0  0  0  0  0  0  0  0  0
    7.7620   -3.7350   26.4120 C   0  0  0  0  0  0  0  0  0  0  0  0
    8.8920   -4.1680   25.5350 C   0  0  0  0  0  0  0  0  0  0  0  0
    9.5080   -5.3540   25.8710 C   0  0  0  0  0  0  0  0  0  0  0  0
    9.4210   -6.3580   26.7900 C   0  0  0  0  0  0  0  0  0  0  0  0
    8.2810   -5.8440   27.6070 C   0  0  0  0  0  0  0  0  0  0  0  0
    5.7960   -1.7850   27.2090 C   0  0  0  0  0  0  0  0  0  0  0  0
    6.8580   -1.7190   28.0720 C   0  0  0  0  0  0  0  0  0  0  0  0
    7.0920   -0.5920   28.7710 C   0  0  0  0  0  0  0  0  0  0  0  0
    6.3070    0.5080   28.6490 C   0  0  0  0  0  0  0  0  0  0  0  0
    6.5830    1.9990   29.5510 Cl  0  0  0  0  0  0  0  0  0  0  0  0
    5.1800    0.4610   27.7310 N   0  0  0  0  0  0  0  0  0  0  0  0
    5.0220   -0.7060   27.0800 N   0  0  0  0  0  0  0  0  0  0  0  0
    5.7140   -4.8970   23.6850 C   0  0  0  0  0  0  0  0  0  0  0  0
    6.4230   -5.4080   22.5870 C   0  0  0  0  0  0  0  0  0  0  0  0
  1  2  1  0
  2  3  2  0
  2  4  1  0
  4  5  1  0
  5  6  1  0
  6  7  1  0
  7  8  1  0
  8  9  2  0
  8 10  1  0
 10 11  1  0
 11 12  1  0
 12 13  1  0
 13 14  2  0
 14 15  1  0
 15 16  2  0
 16 17  1  0
 13 18  1  0
 17 18  2  0
 10 19  1  0
 19 20  2  0
 20 21  1  0
 21 22  2  0
 22 23  1  0
 22 24  1  0
 19 25  1  0
 24 25  2  0
  7 26  1  0
  4 27  1  0
 26 27  1  0
M  END
