piperidine-amides-29983-covalent
     RDKit          3D

 27 29  0  0  0  0  0  0  0  0999 V2000
    7.0300   -3.3730   19.3400 C   0  0  0  0  0  0  0  0  0  0  0  0
    6.3710   -4.2350   20.3160 C   0  0  0  0  0  0  0  0  0  0  0  0
    5.3640   -4.8530   19.9840 O   0  0  0  0  0  0  0  0  0  0  0  0
    6.9190   -4.4170   21.6390 N   0  0  0  0  0  0  0  0  0  0  0  0
    7.6280   -3.3590   22.3090 C   0  0  0  0  0  0  0  0  0  0  0  0
    6.7780   -2.7780   23.4070 C   0  0  0  0  0  0  0  0  0  0  0  0
    6.2970   -3.8910   24.3310 C   0  0  0  0  0  0  0  0  0  0  0  0
    5.2520   -3.3490   25.2640 C   0  0  0  0  0  0  0  0  0  0  0  0
    4.3220   -2.6550   24.8350 O   0  0  0  0  0  0  0  0  0  0  0  0
    5.2940   -3.6000   26.6700 N   0  0  0  0  0  0  0  0  0  0  0  0
    6.4900   -3.2910   27.2870 C   0  0  0  0  0  0  0  0  0  0  0  0
    6.6950   -4.4530   28.2290 C   0  0  0  0  0  0  0  0  0  0  0  0
    5.6670   -4.6850   29.0520 C   0  0  0  0  0  0  0  0  0  0  0  0
    5.6150   -6.0740   29.4110 N   0  0  0  0  0  0  0  0  0  0  0  0
    5.0260   -6.3880   30.6820 C   0  0  0  0  0  0  0  0  0  0  0  0
    3.8220   -5.7520   31.0250 O   0  0  0  0  0  0  0  0  0  0  0  0
    5.5800   -7.2670   31.5530 O   0  0  0  0  0  0  0  0  0  0  0  0
    5.0140   -7.6760   32.7800 C   0  0  0  0  0  0  0  0  0  0  0  0
    5.7150   -7.2800   33.9860 C   0  0  0  0  0  0  0  0  0  0  0  0
    5.2920   -7.6050   35.2390 C   0  0  0  0  0  0  0  0  0  0  0  0
    4.1470   -8.3450   35.4120 C   0  0  0  0  0  0  0  0  0  0  0  0
    3.4080   -8.7680   34.2940 C   0  0  0  0  0  0  0  0  0  0  0  0
    3.8550   -8.4220   32.9260 C   0  0  0  0  0  0  0  0  0  0  0  0
    4.3970   -4.3910   28.6380 C   0  0  0  0  0  0  0  0  0  0  0  0
    4.2320   -3.4120   27.6370 C   0  0  0  0  0  0  0  0  0  0  0  0
    5.6750   -5.0440   23.5590 C   0  0  0  0  0  0  0  0  0  0  0  0
    6.5780   -5.5600   22.4280 C   0  0  0  0  0  0  0  0  0  0  0  0
  1  2  1  0
  2  3  2  0
  2  4  1  0
  4  5  1  0
  5  6  1  0
  6  7  1  0
  7  8  1  0
  8  9  2  0
  8 10  1  0
 10 11  1  0
 11 12  1  0
 12 13  1  0
 13 14  1  0
 14 15  1  0
 15 16  2  0
 15 17  1  0
 17 18  1  0
 18 19  2  0
 19 20  1  0
 20 21  2  0
 21 22  1  0
 18 23  1  0
 22 23  2  0
 13 24  1  0
 10 25  1  0
 24 25  1  0
  7 26  1  0
  4 27  1  0
 26 27  1  0
M  END
