piperidine-amides-30508-covalent
     RDKit          3D

 28 30  0  0  0  0  0  0  0  0999 V2000
    7.1750   -3.9610   19.5850 C   0  0  0  0  0  0  0  0  0  0  0  0
    5.9780   -3.8540   20.2750 C   0  0  0  0  0  0  0  0  0  0  0  0
    4.9520   -4.0970   19.6460 O   0  0  0  0  0  0  0  0  0  0  0  0
    6.0690   -3.6060   21.6110 N   0  0  0  0  0  0  0  0  0  0  0  0
    7.2630   -2.8670   21.9550 C   0  0  0  0  0  0  0  0  0  0  0  0
    7.0710   -2.3970   23.3450 C   0  0  0  0  0  0  0  0  0  0  0  0
    6.8780   -3.5350   24.2780 C   0  0  0  0  0  0  0  0  0  0  0  0
    5.9240   -3.1320   25.3000 C   0  0  0  0  0  0  0  0  0  0  0  0
    4.7340   -2.8130   24.9990 O   0  0  0  0  0  0  0  0  0  0  0  0
    6.2790   -3.1000   26.6360 N   0  0  0  0  0  0  0  0  0  0  0  0
    5.8610   -4.2800   27.4160 C   0  0  0  0  0  0  0  0  0  0  0  0
    6.2290   -4.0280   28.8000 C   0  0  0  0  0  0  0  0  0  0  0  0
    5.8580   -2.6660   29.2410 C   0  0  0  0  0  0  0  0  0  0  0  0
    4.3970   -2.4420   29.5270 C   0  0  0  0  0  0  0  0  0  0  0  0
    4.2180   -1.1470   30.2950 C   0  0  0  0  0  0  0  0  0  0  0  0
    2.8740   -0.4850   30.2450 C   0  0  0  0  0  0  0  0  0  0  0  0
    2.6620    0.6930   30.9250 C   0  0  0  0  0  0  0  0  0  0  0  0
    3.6190    1.3580   31.6870 C   0  0  0  0  0  0  0  0  0  0  0  0
    4.9980    0.7860   31.8070 C   0  0  0  0  0  0  0  0  0  0  0  0
    5.3500   -0.5140   31.0980 C   0  0  0  0  0  0  0  0  0  0  0  0
    6.3480   -1.7620   27.2440 C   0  0  0  0  0  0  0  0  0  0  0  0
    6.9670   -1.5610   28.2890 C   0  0  0  0  0  0  0  0  0  0  0  0
    7.1030   -0.2860   29.0280 C   0  0  0  0  0  0  0  0  0  0  0  0
    6.5520    0.8900   28.6440 C   0  0  0  0  0  0  0  0  0  0  0  0
    5.7820    0.7350   27.3600 C   0  0  0  0  0  0  0  0  0  0  0  0
    5.6850   -0.6140   26.6580 C   0  0  0  0  0  0  0  0  0  0  0  0
    6.6240   -4.8270   23.6260 C   0  0  0  0  0  0  0  0  0  0  0  0
    5.6990   -4.6840   22.4620 C   0  0  0  0  0  0  0  0  0  0  0  0
  1  2  1  0
  2  3  2  0
  2  4  1  0
  4  5  1  0
  5  6  1  0
  6  7  1  0
  7  8  1  0
  8  9  2  0
  8 10  1  0
 10 11  1  0
 11 12  1  0
 12 13  1  0
 13 14  1  0
 14 15  1  0
 15 16  2  0
 16 17  1  0
 17 18  2  0
 18 19  1  0
 15 20  1  0
 19 20  2  0
 10 21  1  0
 21 22  2  0
 22 23  1  0
 23 24  2  0
 24 25  1  0
 21 26  1  0
 25 26  2  0
  7 27  1  0
  4 28  1  0
 27 28  1  0
M  END
