piperidine-amides-12386-covalent
     RDKit          3D

 24 26  0  0  0  0  0  0  0  0999 V2000
    7.2140   -3.2550   19.1690 C   0  0  0  0  0  0  0  0  0  0  0  0
    6.3810   -3.9320   20.1480 C   0  0  0  0  0  0  0  0  0  0  0  0
    5.2870   -4.4050   19.8330 O   0  0  0  0  0  0  0  0  0  0  0  0
    6.8860   -4.1080   21.4710 N   0  0  0  0  0  0  0  0  0  0  0  0
    6.3540   -5.1570   22.2800 C   0  0  0  0  0  0  0  0  0  0  0  0
    5.4560   -4.5350   23.3100 C   0  0  0  0  0  0  0  0  0  0  0  0
    6.0520   -3.1730   23.6670 C   0  0  0  0  0  0  0  0  0  0  0  0
    5.6470   -2.7690   25.0420 C   0  0  0  0  0  0  0  0  0  0  0  0
    4.4590   -2.8920   25.4020 O   0  0  0  0  0  0  0  0  0  0  0  0
    6.6070   -2.1950   25.9360 N   0  0  0  0  0  0  0  0  0  0  0  0
    7.3200   -3.0010   26.9140 C   0  0  0  0  0  0  0  0  0  0  0  0
    6.3660   -3.9540   27.6050 C   0  0  0  0  0  0  0  0  0  0  0  0
    6.6670   -5.2600   27.4820 N   0  0  0  0  0  0  0  0  0  0  0  0
    7.9640   -5.4410   27.8050 C   0  0  0  0  0  0  0  0  0  0  0  0
    8.8730   -5.8060   26.7920 C   0  0  0  0  0  0  0  0  0  0  0  0
    8.2820   -6.0110   25.5340 O   0  0  0  0  0  0  0  0  0  0  0  0
    6.9940   -5.5320   25.1830 C   0  0  0  0  0  0  0  0  0  0  0  0
    6.0920   -5.7650   26.3040 C   0  0  0  0  0  0  0  0  0  0  0  0
    5.0100   -3.6780   27.4250 C   0  0  0  0  0  0  0  0  0  0  0  0
    4.1860   -3.9270   28.4890 C   0  0  0  0  0  0  0  0  0  0  0  0
    4.9920   -4.0510   29.5740 C   0  0  0  0  0  0  0  0  0  0  0  0
    6.3260   -3.8790   28.9890 C   0  0  0  0  0  0  0  0  0  0  0  0
    7.5450   -3.0670   23.4310 C   0  0  0  0  0  0  0  0  0  0  0  0
    7.7420   -3.1060   22.0590 C   0  0  0  0  0  0  0  0  0  0  0  0
  1  2  1  0
  2  3  2  0
  2  4  1  0
  4  5  1  0
  5  6  1  0
  6  7  1  0
  7  8  1  0
  8  9  2  0
  8 10  1  0
 10 11  1  0
 12 11  1  0
 12 13  1  0
 13 14  1  0
 14 15  1  0
 15 16  1  0
 16 17  1  0
 13 18  1  0
 17 18  1  0
 12 19  1  0
 19 20  1  0
 20 21  1  0
 12 22  1  0
 21 22  1  0
  7 23  1  0
  4 24  1  0
 23 24  1  0
M  END
