piperidine-amides-12671-covalent
     RDKit          3D

 22 25  0  0  0  0  0  0  0  0999 V2000
    7.0500   -3.3400   19.2800 C   0  0  0  0  0  0  0  0  0  0  0  0
    6.3930   -4.1560   20.3260 C   0  0  0  0  0  0  0  0  0  0  0  0
    5.3760   -4.7910   19.9700 O   0  0  0  0  0  0  0  0  0  0  0  0
    6.9130   -4.2450   21.6320 N   0  0  0  0  0  0  0  0  0  0  0  0
    7.7310   -3.2060   22.1700 C   0  0  0  0  0  0  0  0  0  0  0  0
    7.4600   -2.9610   23.5730 C   0  0  0  0  0  0  0  0  0  0  0  0
    6.1820   -3.5540   23.9790 C   0  0  0  0  0  0  0  0  0  0  0  0
    5.8460   -3.1920   25.3760 C   0  0  0  0  0  0  0  0  0  0  0  0
    4.8180   -3.7010   25.8600 O   0  0  0  0  0  0  0  0  0  0  0  0
    6.6240   -2.2930   26.1420 N   0  0  0  0  0  0  0  0  0  0  0  0
    6.0910   -1.7010   27.3890 C   0  0  1  0  0  0  0  0  0  0  0  0
    7.0410   -1.4180   28.4710 C   0  0  0  0  0  0  0  0  0  0  0  0
    6.5990   -0.2810   29.2280 C   0  0  2  0  0  0  0  0  0  0  0  0
    5.4100   -0.4810   29.9400 C   0  0  0  0  0  0  0  0  0  0  0  0
    4.2020   -0.2740   29.2700 C   0  0  1  0  0  0  0  0  0  0  0  0
    4.2790    0.9220   28.6520 C   0  0  0  0  0  0  0  0  0  0  0  0
    5.2370    0.7180   27.7050 C   0  0  1  0  0  0  0  0  0  0  0  0
    6.4450    0.7490   28.3350 C   0  0  0  0  0  0  0  0  0  0  0  0
    5.0650   -0.6280   27.2350 C   0  0  2  0  0  0  0  0  0  0  0  0
    4.0650   -1.1090   28.2090 C   0  0  0  0  0  0  0  0  0  0  0  0
    6.0830   -5.0330   23.7830 C   0  0  0  0  0  0  0  0  0  0  0  0
    6.6900   -5.4190   22.4500 C   0  0  0  0  0  0  0  0  0  0  0  0
  1  2  1  0
  2  3  2  0
  2  4  1  0
  4  5  1  0
  5  6  1  0
  6  7  1  0
  7  8  1  0
  8  9  2  0
  8 10  1  0
 11 10  1  6
 11 12  1  0
 13 12  1  6
 13 14  1  0
 15 14  1  6
 15 16  1  0
 17 16  1  1
 13 18  1  0
 17 18  1  0
 11 19  1  0
 17 19  1  0
 15 20  1  0
 19 20  1  1
  7 21  1  0
  4 22  1  0
 21 22  1  0
M  END
