piperidine-amides-10167-covalent
     RDKit          3D

 25 27  0  0  0  0  0  0  0  0999 V2000
    7.0950   -3.3360   19.2850 C   0  0  0  0  0  0  0  0  0  0  0  0
    6.3550   -4.1040   20.2830 C   0  0  0  0  0  0  0  0  0  0  0  0
    5.2740   -4.6230   19.9080 O   0  0  0  0  0  0  0  0  0  0  0  0
    6.8830   -4.2800   21.5560 N   0  0  0  0  0  0  0  0  0  0  0  0
    6.5420   -5.4190   22.3710 C   0  0  0  0  0  0  0  0  0  0  0  0
    5.8170   -4.9100   23.5870 C   0  0  0  0  0  0  0  0  0  0  0  0
    6.5850   -3.8080   24.2750 C   0  0  0  0  0  0  0  0  0  0  0  0
    5.8040   -3.2810   25.4130 C   0  0  0  0  0  0  0  0  0  0  0  0
    4.5870   -3.0440   25.2390 O   0  0  0  0  0  0  0  0  0  0  0  0
    6.3650   -3.0390   26.6810 N   0  0  0  0  0  0  0  0  0  0  0  0
    6.3810   -1.7210   27.2700 C   0  0  0  0  0  0  0  0  0  0  0  0
    7.0720   -1.4920   28.5970 C   0  0  0  0  0  0  0  0  0  0  0  0
    7.1230   -0.2870   29.2140 C   0  0  0  0  0  0  0  0  0  0  0  0
    6.5280    0.8060   28.6380 C   0  0  0  0  0  0  0  0  0  0  0  0
    6.5650    2.0530   29.2420 C   0  0  0  0  0  0  0  0  0  0  0  0
    6.6680    2.2170   30.5620 N   0  0  0  0  0  0  0  0  0  0  0  0
    6.6920    3.4950   30.9800 C   0  0  0  0  0  0  0  0  0  0  0  0
    6.6420    4.7630   30.4900 C   0  0  0  0  0  0  0  0  0  0  0  0
    6.5750    4.1650   29.5650 C   0  0  0  0  0  0  0  0  0  0  0  0
    6.5250    5.6300   29.0890 C   0  0  0  0  0  0  0  0  0  0  0  0
    6.5030    3.2310   28.5620 O   0  0  0  0  0  0  0  0  0  0  0  0
    5.8770    0.6740   27.4230 C   0  0  0  0  0  0  0  0  0  0  0  0
    5.6990   -0.5830   26.5550 C   0  0  0  0  0  0  0  0  0  0  0  0
    6.9640   -2.6960   23.3740 C   0  0  0  0  0  0  0  0  0  0  0  0
    7.6490   -3.2100   22.1390 C   0  0  0  0  0  0  0  0  0  0  0  0
  1  2  1  0
  2  3  2  0
  2  4  1  0
  4  5  1  0
  5  6  1  0
  6  7  1  0
  7  8  1  0
  8  9  2  0
  8 10  1  0
 10 11  1  0
 11 12  2  0
 12 13  1  0
 13 14  2  0
 14 15  1  0
 15 16  2  0
 16 17  1  0
 17 18  1  0
 17 19  2  0
 19 20  1  0
 15 21  1  0
 19 21  1  0
 14 22  1  0
 11 23  1  0
 22 23  2  0
  7 24  1  0
  4 25  1  0
 24 25  1  0
M  END
