piperidine-amides-29098-covalent
     RDKit          3D

 26 27  0  0  0  0  0  0  0  0999 V2000
    7.0840   -3.3340   19.3190 C   0  0  0  0  0  0  0  0  0  0  0  0
    6.4200   -4.1800   20.3050 C   0  0  0  0  0  0  0  0  0  0  0  0
    5.3670   -4.7510   19.9630 O   0  0  0  0  0  0  0  0  0  0  0  0
    7.0050   -4.3850   21.5870 N   0  0  0  0  0  0  0  0  0  0  0  0
    6.5890   -5.5160   22.3520 C   0  0  0  0  0  0  0  0  0  0  0  0
    5.6950   -5.0600   23.4750 C   0  0  0  0  0  0  0  0  0  0  0  0
    6.4420   -4.0560   24.3480 C   0  0  0  0  0  0  0  0  0  0  0  0
    5.4850   -3.5250   25.3690 C   0  0  0  0  0  0  0  0  0  0  0  0
    4.8270   -2.5560   25.0070 O   0  0  0  0  0  0  0  0  0  0  0  0
    5.3550   -4.1250   26.6310 N   0  0  0  0  0  0  0  0  0  0  0  0
    4.4070   -3.5660   27.5310 C   0  0  0  0  0  0  0  0  0  0  0  0
    5.1950   -3.6320   28.5890 C   0  0  0  0  0  0  0  0  0  0  0  0
    5.6980   -2.4540   29.1060 C   0  0  0  0  0  0  0  0  0  0  0  0
    5.2110   -2.1350   30.3490 O   0  0  0  0  0  0  0  0  0  0  0  0
    6.6400   -1.7140   28.3160 N   0  0  0  0  0  0  0  0  0  0  0  0
    6.7220   -0.3210   28.5810 C   0  0  0  0  0  0  0  0  0  0  0  0
    8.1700    0.0730   28.6390 C   0  0  0  0  0  0  0  0  0  0  0  0
    8.8110   -0.4930   29.9190 C   0  0  0  0  0  0  0  0  0  0  0  0
    5.8950    0.1890   29.5930 C   0  0  0  0  0  0  0  0  0  0  0  0
    6.3020    0.0020   31.0250 C   0  0  0  0  0  0  0  0  0  0  0  0
    5.9930    0.5290   27.7320 C   0  0  0  0  0  0  0  0  0  0  0  0
    6.6430    1.3070   27.1610 N   0  0  0  0  0  0  0  0  0  0  0  0
    4.6350    0.4600   27.5790 O   0  0  0  0  0  0  0  0  0  0  0  0
    6.1370   -4.3920   27.9090 C   0  0  0  0  0  0  0  0  0  0  0  0
    6.8300   -2.8930   23.4700 C   0  0  0  0  0  0  0  0  0  0  0  0
    7.5840   -3.2330   22.2230 C   0  0  0  0  0  0  0  0  0  0  0  0
  1  2  1  0
  2  3  2  0
  2  4  1  0
  4  5  1  0
  5  6  1  0
  6  7  1  0
  7  8  1  0
  8  9  2  0
  8 10  1  0
 10 11  1  0
 11 12  1  0
 12 13  1  0
 13 14  2  0
 13 15  1  0
 15 16  1  0
 16 17  1  0
 17 18  1  0
 16 19  1  0
 19 20  1  0
 16 21  1  0
 21 22  1  0
 21 23  2  0
 10 24  1  0
 12 24  1  0
  7 25  1  0
  4 26  1  0
 25 26  1  0
M  END
