piperidine-amides-34130-covalent
     RDKit          3D

 31 34  0  0  0  0  0  0  0  0999 V2000
    7.0410   -3.3760   19.4840 C   0  0  0  0  0  0  0  0  0  0  0  0
    6.3570   -4.2550   20.4430 C   0  0  0  0  0  0  0  0  0  0  0  0
    5.4400   -5.0030   20.0240 O   0  0  0  0  0  0  0  0  0  0  0  0
    6.7380   -4.2890   21.8050 N   0  0  0  0  0  0  0  0  0  0  0  0
    7.6040   -3.2440   22.3500 C   0  0  0  0  0  0  0  0  0  0  0  0
    7.1760   -2.9470   23.8060 C   0  0  0  0  0  0  0  0  0  0  0  0
    5.8070   -3.5630   23.9760 C   0  0  0  0  0  0  0  0  0  0  0  0
    5.0200   -3.0220   25.1590 C   0  0  0  0  0  0  0  0  0  0  0  0
    4.2510   -2.0840   24.9140 O   0  0  0  0  0  0  0  0  0  0  0  0
    5.1000   -3.5060   26.4990 N   0  0  0  0  0  0  0  0  0  0  0  0
    6.2370   -4.1510   26.7360 C   0  0  0  0  0  0  0  0  0  0  0  0
    6.4520   -4.4830   28.2050 C   0  0  0  0  0  0  0  0  0  0  0  0
    5.4570   -4.2620   29.0850 C   0  0  0  0  0  0  0  0  0  0  0  0
    5.1770   -5.2950   29.9290 C   0  0  0  0  0  0  0  0  0  0  0  0
    6.0990   -6.3780   29.9100 N   0  0  0  0  0  0  0  0  0  0  0  0
    5.9990   -7.4960   30.6930 C   0  0  0  0  0  0  0  0  0  0  0  0
    4.9190   -7.4690   31.5080 C   0  0  0  0  0  0  0  0  0  0  0  0
    3.9680   -6.3140   31.4960 C   0  0  0  0  0  0  0  0  0  0  0  0
    3.3190   -7.1870   32.5480 C   0  0  0  0  0  0  0  0  0  0  0  0
    2.4560   -8.3010   31.9470 C   0  0  0  0  0  0  0  0  0  0  0  0
    1.9580   -8.9970   33.2050 C   0  0  0  0  0  0  0  0  0  0  0  0
    2.2010   -8.7200   34.5730 C   0  0  0  0  0  0  0  0  0  0  0  0
    1.6970   -9.4160   35.4830 O   0  0  0  0  0  0  0  0  0  0  0  0
    1.2630   -8.7770   36.6870 C   0  0  0  0  0  0  0  0  0  0  0  0
    2.9890   -7.6950   34.9360 C   0  0  0  0  0  0  0  0  0  0  0  0
    3.5560   -6.9150   33.8440 C   0  0  0  0  0  0  0  0  0  0  0  0
    4.0760   -5.2260   30.7170 N   0  0  0  0  0  0  0  0  0  0  0  0
    4.3030   -3.7140   28.5590 C   0  0  0  0  0  0  0  0  0  0  0  0
    4.5490   -2.7510   27.5980 C   0  0  0  0  0  0  0  0  0  0  0  0
    5.8790   -5.0600   23.8840 C   0  0  0  0  0  0  0  0  0  0  0  0
    6.4150   -5.4050   22.6450 C   0  0  0  0  0  0  0  0  0  0  0  0
  1  2  1  0
  2  3  2  0
  2  4  1  0
  4  5  1  0
  5  6  1  0
  6  7  1  0
  7  8  1  0
  8  9  2  0
  8 10  1  0
 10 11  1  0
 11 12  1  0
 12 13  1  0
 13 14  1  0
 14 15  2  0
 15 16  1  0
 16 17  2  0
 17 18  1  0
 18 19  1  0
 19 20  2  0
 20 21  1  0
 21 22  2  0
 22 23  1  0
 23 24  1  0
 22 25  1  0
 19 26  1  0
 25 26  2  0
 14 27  1  0
 18 27  2  0
 13 28  1  0
 10 29  1  0
 28 29  1  0
  7 30  1  0
  4 31  1  0
 30 31  1  0
M  END
