piperidine-amides-5307-covalent
     RDKit          3D

 21 22  0  0  0  0  0  0  0  0999 V2000
    7.1210   -3.2600   19.2080 C   0  0  0  0  0  0  0  0  0  0  0  0
    6.3600   -4.0160   20.2270 C   0  0  0  0  0  0  0  0  0  0  0  0
    5.2760   -4.5170   19.8670 O   0  0  0  0  0  0  0  0  0  0  0  0
    6.8700   -4.2010   21.5160 N   0  0  0  0  0  0  0  0  0  0  0  0
    6.4730   -5.3310   22.2800 C   0  0  0  0  0  0  0  0  0  0  0  0
    6.0130   -4.9960   23.6280 C   0  0  0  0  0  0  0  0  0  0  0  0
    6.5780   -3.7440   24.1850 C   0  0  0  0  0  0  0  0  0  0  0  0
    5.8090   -3.3250   25.3870 C   0  0  0  0  0  0  0  0  0  0  0  0
    4.5750   -3.1930   25.2710 O   0  0  0  0  0  0  0  0  0  0  0  0
    6.4470   -3.0750   26.6210 N   0  0  0  0  0  0  0  0  0  0  0  0
    6.2690   -3.9070   27.8450 C   0  0  2  0  0  0  0  0  0  0  0  0
    6.1190   -5.3720   27.5520 C   0  0  0  0  0  0  0  0  0  0  0  0
    5.1600   -3.3740   28.6680 C   0  0  0  0  0  0  0  0  0  0  0  0
    4.0460   -4.1060   29.0040 C   0  0  0  0  0  0  0  0  0  0  0  0
    2.9900   -3.6740   29.7610 C   0  0  0  0  0  0  0  0  0  0  0  0
    3.0400   -2.4060   30.2280 C   0  0  0  0  0  0  0  0  0  0  0  0
    4.1320   -1.5500   29.9520 N   0  0  0  0  0  0  0  0  0  0  0  0
    5.1920   -2.0930   29.1500 C   0  0  0  0  0  0  0  0  0  0  0  0
    6.2850   -1.2560   28.8680 F   0  0  0  0  0  0  0  0  0  0  0  0
    6.8010   -2.6600   23.2100 C   0  0  0  0  0  0  0  0  0  0  0  0
    7.5950   -3.1360   22.1720 C   0  0  0  0  0  0  0  0  0  0  0  0
  1  2  1  0
  2  3  2  0
  2  4  1  0
  4  5  1  0
  5  6  1  0
  6  7  1  0
  7  8  1  0
  8  9  2  0
  8 10  1  0
 10 11  1  0
 11 12  1  6
 11 13  1  0
 13 14  2  0
 14 15  1  0
 15 16  2  0
 16 17  1  0
 13 18  1  0
 17 18  2  0
 18 19  1  0
  7 20  1  0
  4 21  1  0
 20 21  1  0
M  END
