piperidine-amides-4161-covalent
     RDKit          3D

 27 29  0  0  0  0  0  0  0  0999 V2000
    7.0760   -3.3500   19.3740 C   0  0  0  0  0  0  0  0  0  0  0  0
    6.3720   -4.1640   20.3790 C   0  0  0  0  0  0  0  0  0  0  0  0
    5.3620   -4.7930   19.9700 O   0  0  0  0  0  0  0  0  0  0  0  0
    6.8380   -4.2780   21.7220 N   0  0  0  0  0  0  0  0  0  0  0  0
    7.4960   -3.1740   22.3330 C   0  0  0  0  0  0  0  0  0  0  0  0
    7.2190   -2.9360   23.7650 C   0  0  0  0  0  0  0  0  0  0  0  0
    6.5340   -3.9890   24.5850 C   0  0  0  0  0  0  0  0  0  0  0  0
    5.5750   -3.3720   25.5940 C   0  0  0  0  0  0  0  0  0  0  0  0
    4.4270   -3.1010   25.1930 O   0  0  0  0  0  0  0  0  0  0  0  0
    5.8910   -3.0680   26.9620 N   0  0  0  0  0  0  0  0  0  0  0  0
    5.9750   -3.9150   28.1250 C   0  0  0  0  0  0  0  0  0  0  0  0
    4.8560   -4.3230   29.0590 C   0  0  0  0  0  0  0  0  0  0  0  0
    5.3660   -5.7150   29.4960 C   0  0  0  0  0  0  0  0  0  0  0  0
    6.4730   -5.9150   28.8500 C   0  0  0  0  0  0  0  0  0  0  0  0
    7.2230   -7.1880   29.0140 C   0  0  0  0  0  0  0  0  0  0  0  0
    6.6980   -8.4450   29.9960 C   0  0  0  0  0  0  0  0  0  0  0  0
    7.6990  -10.1970   30.1680 C   0  0  0  0  0  0  0  0  0  0  0  0
    7.5370  -11.3580   31.2270 C   0  0  0  0  0  0  0  0  0  0  0  0
    8.3010  -11.1100   29.1380 C   0  0  0  0  0  0  0  0  0  0  0  0
    9.1600  -10.4700   30.0320 C   0  0  0  0  0  0  0  0  0  0  0  0
    5.4870   -7.9070   30.6060 C   0  0  0  0  0  0  0  0  0  0  0  0
    4.8750   -6.6560   30.3670 C   0  0  0  0  0  0  0  0  0  0  0  0
    3.5360   -4.2850   28.4340 C   0  0  0  0  0  0  0  0  0  0  0  0
    3.0350   -3.3630   29.4520 C   0  0  0  0  0  0  0  0  0  0  0  0
    4.2440   -3.4800   29.9830 C   0  0  0  0  0  0  0  0  0  0  0  0
    5.7240   -4.9250   23.6910 C   0  0  0  0  0  0  0  0  0  0  0  0
    6.5320   -5.4310   22.5090 C   0  0  0  0  0  0  0  0  0  0  0  0
  1  2  1  0
  2  3  2  0
  2  4  1  0
  4  5  1  0
  5  6  1  0
  6  7  1  0
  7  8  1  0
  8  9  2  0
  8 10  1  0
 10 11  1  0
 12 11  1  0
 12 13  1  0
 13 14  2  0
 14 15  1  0
 15 16  2  0
 16 17  1  0
 17 18  1  0
 17 19  1  0
 17 20  1  0
 16 21  1  0
 13 22  1  0
 21 22  2  0
 12 23  1  0
 23 24  1  0
 12 25  1  0
 24 25  1  0
  7 26  1  0
  4 27  1  0
 26 27  1  0
M  END
