piperidine-amides-4811-covalent
     RDKit          3D

 23 24  0  0  0  0  0  0  0  0999 V2000
    7.0800   -3.2850   19.2670 C   0  0  0  0  0  0  0  0  0  0  0  0
    6.3760   -4.0840   20.3000 C   0  0  0  0  0  0  0  0  0  0  0  0
    5.3360   -4.6650   19.9300 O   0  0  0  0  0  0  0  0  0  0  0  0
    6.8800   -4.2120   21.6110 N   0  0  0  0  0  0  0  0  0  0  0  0
    7.6560   -3.1640   22.1950 C   0  0  0  0  0  0  0  0  0  0  0  0
    7.2730   -2.8780   23.5720 C   0  0  0  0  0  0  0  0  0  0  0  0
    6.0180   -3.5620   23.9500 C   0  0  0  0  0  0  0  0  0  0  0  0
    5.6350   -3.2870   25.3620 C   0  0  0  0  0  0  0  0  0  0  0  0
    4.8730   -2.3280   25.5780 O   0  0  0  0  0  0  0  0  0  0  0  0
    6.0840   -4.0900   26.4270 N   0  0  0  0  0  0  0  0  0  0  0  0
    6.1730   -3.6290   27.8330 C   0  0  0  0  0  0  0  0  0  0  0  0
    5.2280   -4.3810   28.7090 C   0  0  0  0  0  0  0  0  0  0  0  0
    5.1540   -5.8250   28.7130 C   0  0  0  0  0  0  0  0  0  0  0  0
    4.1510   -6.1760   29.6590 N   0  0  0  0  0  0  0  0  0  0  0  0
    3.5900   -7.3940   30.1410 C   0  0  0  0  0  0  0  0  0  0  0  0
    2.2470   -7.2680   30.4490 C   0  0  0  0  0  0  0  0  0  0  0  0
    1.4810   -6.9380   29.4470 O   0  0  0  0  0  0  0  0  0  0  0  0
    1.7620   -7.4890   31.7500 O   0  0  0  0  0  0  0  0  0  0  0  0
    0.5750   -6.8120   32.1300 C   0  0  0  0  0  0  0  0  0  0  0  0
    3.6800   -5.0690   30.1660 N   0  0  0  0  0  0  0  0  0  0  0  0
    4.2990   -3.9910   29.6230 N   0  0  0  0  0  0  0  0  0  0  0  0
    5.9190   -5.0210   23.5990 C   0  0  0  0  0  0  0  0  0  0  0  0
    6.6270   -5.3500   22.4630 C   0  0  0  0  0  0  0  0  0  0  0  0
  1  2  1  0
  2  3  2  0
  2  4  1  0
  4  5  1  0
  5  6  1  0
  6  7  1  0
  7  8  1  0
  8  9  2  0
  8 10  1  0
 10 11  1  0
 11 12  1  0
 12 13  2  0
 13 14  1  0
 14 15  1  0
 15 16  1  0
 16 17  2  0
 16 18  1  0
 18 19  1  0
 14 20  1  0
 12 21  1  0
 20 21  2  0
  7 22  1  0
  4 23  1  0
 22 23  1  0
M  END
