piperidine-amides-13643-covalent
     RDKit          3D

 28 30  0  0  0  0  0  0  0  0999 V2000
    7.1600   -3.2580   19.1960 C   0  0  0  0  0  0  0  0  0  0  0  0
    6.3960   -4.0420   20.2040 C   0  0  0  0  0  0  0  0  0  0  0  0
    5.3010   -4.5370   19.8820 O   0  0  0  0  0  0  0  0  0  0  0  0
    6.9590   -4.2580   21.4760 N   0  0  0  0  0  0  0  0  0  0  0  0
    6.5830   -5.3880   22.2740 C   0  0  0  0  0  0  0  0  0  0  0  0
    5.7080   -4.8240   23.3930 C   0  0  0  0  0  0  0  0  0  0  0  0
    6.5050   -3.7880   24.1280 C   0  0  0  0  0  0  0  0  0  0  0  0
    5.7920   -3.3290   25.3240 C   0  0  0  0  0  0  0  0  0  0  0  0
    4.5590   -3.2880   25.2490 O   0  0  0  0  0  0  0  0  0  0  0  0
    6.5070   -2.9690   26.4630 N   0  0  0  0  0  0  0  0  0  0  0  0
    6.1840   -3.3300   27.7840 C   0  0  0  0  0  0  0  0  0  0  0  0
    5.6160   -2.4600   28.6760 C   0  0  0  0  0  0  0  0  0  0  0  0
    4.8630   -3.1500   29.6280 C   0  0  0  0  0  0  0  0  0  0  0  0
    4.7640   -4.5420   29.6430 C   0  0  0  0  0  0  0  0  0  0  0  0
    3.9470   -5.2360   30.6790 C   0  0  0  0  0  0  0  0  0  0  0  0
    3.1950   -4.4640   31.7520 C   0  0  0  0  0  0  0  0  0  0  0  0
    2.4360   -5.3840   32.7030 C   0  0  0  0  0  0  0  0  0  0  0  0
    1.4360   -6.1810   32.1880 C   0  0  0  0  0  0  0  0  0  0  0  0
    1.8320   -4.4940   33.7250 C   0  0  0  0  0  0  0  0  0  0  0  0
    3.4950   -6.2540   33.3730 C   0  0  0  0  0  0  0  0  0  0  0  0
    3.3140   -3.0120   31.7110 C   0  0  0  0  0  0  0  0  0  0  0  0
    4.1740   -2.3630   30.6130 C   0  0  0  0  0  0  0  0  0  0  0  0
    6.5400   -1.6190   29.3530 C   0  0  0  0  0  0  0  0  0  0  0  0
    6.1540   -0.1690   29.0810 C   0  0  0  0  0  0  0  0  0  0  0  0
    4.9910   -0.2560   28.2320 C   0  0  0  0  0  0  0  0  0  0  0  0
    4.7480   -1.5770   27.9930 C   0  0  0  0  0  0  0  0  0  0  0  0
    7.0470   -2.6770   23.2880 C   0  0  0  0  0  0  0  0  0  0  0  0
    7.7060   -3.1890   22.0520 C   0  0  0  0  0  0  0  0  0  0  0  0
  1  2  1  0
  2  3  2  0
  2  4  1  0
  4  5  1  0
  5  6  1  0
  6  7  1  0
  7  8  1  0
  8  9  2  0
  8 10  1  0
 10 11  1  0
 12 11  1  0
 12 13  1  0
 13 14  2  0
 14 15  1  0
 15 16  2  0
 16 17  1  0
 17 18  1  0
 17 19  1  0
 17 20  1  0
 16 21  1  0
 13 22  1  0
 21 22  2  0
 12 23  1  0
 23 24  1  0
 24 25  1  0
 12 26  1  0
 25 26  1  0
  7 27  1  0
  4 28  1  0
 27 28  1  0
M  END
