piperidine-amides-3915-covalent
     RDKit          3D

 20 21  0  0  0  0  0  0  0  0999 V2000
    7.1310   -3.2980   19.1890 C   0  0  0  0  0  0  0  0  0  0  0  0
    6.4110   -4.0430   20.2340 C   0  0  0  0  0  0  0  0  0  0  0  0
    5.3250   -4.5760   19.9030 O   0  0  0  0  0  0  0  0  0  0  0  0
    6.9610   -4.1990   21.5340 N   0  0  0  0  0  0  0  0  0  0  0  0
    6.5490   -5.3290   22.2970 C   0  0  0  0  0  0  0  0  0  0  0  0
    6.0050   -4.9430   23.5900 C   0  0  0  0  0  0  0  0  0  0  0  0
    6.1130   -3.4930   23.8120 C   0  0  0  0  0  0  0  0  0  0  0  0
    5.6290   -3.0690   25.1570 C   0  0  0  0  0  0  0  0  0  0  0  0
    4.4090   -2.8890   25.3300 O   0  0  0  0  0  0  0  0  0  0  0  0
    6.4980   -2.8690   26.2330 N   0  0  0  0  0  0  0  0  0  0  0  0
    6.2340   -3.2330   27.5600 C   0  0  0  0  0  0  0  0  0  0  0  0
    5.6030   -4.5010   27.8780 C   0  0  0  0  0  0  0  0  0  0  0  0
    6.1890   -5.2770   29.0160 C   0  0  0  0  0  0  0  0  0  0  0  0
    5.4960   -6.4070   29.1950 C   0  0  0  0  0  0  0  0  0  0  0  0
    5.7530   -7.6370   30.3840 Cl  0  0  0  0  0  0  0  0  0  0  0  0
    4.5080   -6.3640   28.1970 N   0  0  0  0  0  0  0  0  0  0  0  0
    3.4980   -7.3190   27.9220 C   0  0  0  0  0  0  0  0  0  0  0  0
    4.5640   -5.2560   27.4250 N   0  0  0  0  0  0  0  0  0  0  0  0
    7.4550   -2.9260   23.5510 C   0  0  0  0  0  0  0  0  0  0  0  0
    7.7620   -3.1020   22.0590 C   0  0  0  0  0  0  0  0  0  0  0  0
  1  2  1  0
  2  3  2  0
  2  4  1  0
  4  5  1  0
  5  6  1  0
  6  7  1  0
  7  8  1  0
  8  9  2  0
  8 10  1  0
 10 11  1  0
 11 12  1  0
 12 13  1  0
 13 14  2  0
 14 15  1  0
 14 16  1  0
 16 17  1  0
 12 18  2  0
 16 18  1  0
  7 19  1  0
  4 20  1  0
 19 20  1  0
M  END
