piperidine-amides-23668-covalent
     RDKit          3D

 23 25  0  0  0  0  0  0  0  0999 V2000
    7.0640   -3.3220   19.2900 C   0  0  0  0  0  0  0  0  0  0  0  0
    6.3840   -4.1350   20.3180 C   0  0  0  0  0  0  0  0  0  0  0  0
    5.3500   -4.7420   19.9550 O   0  0  0  0  0  0  0  0  0  0  0  0
    6.8940   -4.2720   21.6370 N   0  0  0  0  0  0  0  0  0  0  0  0
    7.6890   -3.2300   22.2100 C   0  0  0  0  0  0  0  0  0  0  0  0
    7.4430   -3.0380   23.6250 C   0  0  0  0  0  0  0  0  0  0  0  0
    6.2740   -3.7940   24.0960 C   0  0  0  0  0  0  0  0  0  0  0  0
    5.8820   -3.5070   25.5150 C   0  0  0  0  0  0  0  0  0  0  0  0
    4.6760   -3.6000   25.8180 O   0  0  0  0  0  0  0  0  0  0  0  0
    6.7950   -3.1050   26.5230 N   0  0  0  0  0  0  0  0  0  0  0  0
    7.5190   -3.9730   27.3940 C   0  0  0  0  0  0  0  0  0  0  0  0
    8.3540   -5.0690   26.8890 C   0  0  0  0  0  0  0  0  0  0  0  0
    6.6100   -1.7470   27.0090 C   0  0  0  0  0  0  0  0  0  0  0  0
    6.0720   -0.7180   26.1310 N   0  0  0  0  0  0  0  0  0  0  0  0
    6.0040    0.4980   26.8900 C   0  0  0  0  0  0  0  0  0  0  0  0
    5.4510    1.6860   26.0760 C   0  0  0  0  0  0  0  0  0  0  0  0
    5.3680    2.9960   26.8580 C   0  0  0  0  0  0  0  0  0  0  0  0
    5.8560    2.8670   28.3230 C   0  0  0  0  0  0  0  0  0  0  0  0
    6.3820    1.6700   29.0500 C   0  0  0  0  0  0  0  0  0  0  0  0
    6.4180    0.4650   28.1900 C   0  0  0  0  0  0  0  0  0  0  0  0
    6.9490   -1.1660   28.5660 S   0  0  0  0  0  0  0  0  0  0  0  0
    6.4610   -5.2950   23.8460 C   0  0  0  0  0  0  0  0  0  0  0  0
    6.5440   -5.5130   22.3670 C   0  0  0  0  0  0  0  0  0  0  0  0
  1  2  1  0
  2  3  2  0
  2  4  1  0
  4  5  1  0
  5  6  1  0
  6  7  1  0
  7  8  1  0
  8  9  2  0
  8 10  1  0
 10 11  1  0
 11 12  1  0
 10 13  1  0
 13 14  2  0
 14 15  1  0
 15 16  2  0
 16 17  1  0
 17 18  2  0
 18 19  1  0
 15 20  1  0
 19 20  2  0
 13 21  1  0
 20 21  1  0
  7 22  1  0
  4 23  1  0
 22 23  1  0
M  END
