piperidine-amides-25714-covalent
     RDKit          3D

 25 27  0  0  0  0  0  0  0  0999 V2000
    7.0510   -3.3640   19.3580 C   0  0  0  0  0  0  0  0  0  0  0  0
    6.3390   -4.1990   20.3550 C   0  0  0  0  0  0  0  0  0  0  0  0
    5.3450   -4.8040   19.9660 O   0  0  0  0  0  0  0  0  0  0  0  0
    6.8330   -4.3020   21.6540 N   0  0  0  0  0  0  0  0  0  0  0  0
    6.6010   -5.4750   22.4680 C   0  0  0  0  0  0  0  0  0  0  0  0
    5.8560   -5.0590   23.7100 C   0  0  0  0  0  0  0  0  0  0  0  0
    5.9270   -3.5390   23.8060 C   0  0  0  0  0  0  0  0  0  0  0  0
    5.4820   -3.0470   25.1300 C   0  0  0  0  0  0  0  0  0  0  0  0
    4.3570   -2.5400   25.2080 O   0  0  0  0  0  0  0  0  0  0  0  0
    6.2530   -3.1390   26.3050 N   0  0  0  0  0  0  0  0  0  0  0  0
    6.3920   -1.8980   27.0840 C   0  0  0  0  0  0  0  0  0  0  0  0
    5.7490   -0.6380   26.5100 C   0  0  0  0  0  0  0  0  0  0  0  0
    5.7780    0.6120   27.1150 C   0  0  0  0  0  0  0  0  0  0  0  0
    6.4270    0.7290   28.3040 C   0  0  0  0  0  0  0  0  0  0  0  0
    7.0160   -0.3560   28.8510 C   0  0  0  0  0  0  0  0  0  0  0  0
    7.8190   -0.9310   29.9920 C   0  0  0  0  0  0  0  0  0  0  0  0
    7.1010   -1.7170   28.3990 C   0  0  0  0  0  0  0  0  0  0  0  0
    5.9680   -4.3570   27.0380 C   0  0  0  0  0  0  0  0  0  0  0  0
    6.9920   -5.4420   27.0330 C   0  0  0  0  0  0  0  0  0  0  0  0
    7.5440   -5.7420   28.3840 C   0  0  0  0  0  0  0  0  0  0  0  0
    6.6440   -6.1000   29.2150 O   0  0  0  0  0  0  0  0  0  0  0  0
    5.4510   -5.4960   28.9960 C   0  0  0  0  0  0  0  0  0  0  0  0
    5.6710   -4.1140   28.4810 C   0  0  0  0  0  0  0  0  0  0  0  0
    7.3390   -3.0910   23.5510 C   0  0  0  0  0  0  0  0  0  0  0  0
    7.6420   -3.2300   22.2210 C   0  0  0  0  0  0  0  0  0  0  0  0
  1  2  1  0
  2  3  2  0
  2  4  1  0
  4  5  1  0
  5  6  1  0
  6  7  1  0
  7  8  1  0
  8  9  2  0
  8 10  1  0
 10 11  1  0
 11 12  2  0
 12 13  1  0
 13 14  2  0
 14 15  1  0
 15 16  1  0
 11 17  1  0
 15 17  2  0
 10 18  1  0
 18 19  1  0
 19 20  1  0
 20 21  1  0
 21 22  1  0
 18 23  1  0
 22 23  1  0
  7 24  1  0
  4 25  1  0
 24 25  1  0
M  END
