piperidine-amides-3139-covalent
     RDKit          3D

 23 24  0  0  0  0  0  0  0  0999 V2000
    7.0630   -3.3490   19.2980 C   0  0  0  0  0  0  0  0  0  0  0  0
    6.3940   -4.1850   20.2900 C   0  0  0  0  0  0  0  0  0  0  0  0
    5.3790   -4.8070   19.9780 O   0  0  0  0  0  0  0  0  0  0  0  0
    6.9550   -4.3390   21.6050 N   0  0  0  0  0  0  0  0  0  0  0  0
    7.7480   -3.2570   22.1600 C   0  0  0  0  0  0  0  0  0  0  0  0
    7.4530   -3.0110   23.6170 C   0  0  0  0  0  0  0  0  0  0  0  0
    6.1120   -3.6370   23.9530 C   0  0  0  0  0  0  0  0  0  0  0  0
    5.6890   -3.2400   25.3200 C   0  0  0  0  0  0  0  0  0  0  0  0
    4.5040   -3.3000   25.7010 O   0  0  0  0  0  0  0  0  0  0  0  0
    6.6810   -2.7760   26.2000 N   0  0  0  0  0  0  0  0  0  0  0  0
    6.5030   -1.5130   26.8800 C   0  0  0  0  0  0  0  0  0  0  0  0
    6.8910   -1.6490   28.3280 C   0  0  0  0  0  0  0  0  0  0  0  0
    6.8350   -0.6160   29.2440 C   0  0  0  0  0  0  0  0  0  0  0  0
    7.1520   -0.7420   30.4470 O   0  0  0  0  0  0  0  0  0  0  0  0
    8.3280   -0.1570   30.9090 C   0  0  0  0  0  0  0  0  0  0  0  0
    6.3210    0.7100   28.6070 C   0  0  0  0  0  0  0  0  0  0  0  0
    6.2080    1.8390   29.3840 O   0  0  0  0  0  0  0  0  0  0  0  0
    6.2940    3.0600   28.8090 C   0  0  0  0  0  0  0  0  0  0  0  0
    5.9830    0.7770   27.2840 C   0  0  0  0  0  0  0  0  0  0  0  0
    6.0660   -0.3000   26.4380 C   0  0  0  0  0  0  0  0  0  0  0  0
    5.6080   -0.1200   24.7520 Cl  0  0  0  0  0  0  0  0  0  0  0  0
    6.0360   -5.0900   23.6880 C   0  0  0  0  0  0  0  0  0  0  0  0
    6.5740   -5.4660   22.3850 C   0  0  0  0  0  0  0  0  0  0  0  0
  1  2  1  0
  2  3  2  0
  2  4  1  0
  4  5  1  0
  5  6  1  0
  6  7  1  0
  7  8  1  0
  8  9  2  0
  8 10  1  0
 10 11  1  0
 11 12  2  0
 12 13  1  0
 13 14  1  0
 14 15  1  0
 13 16  2  0
 16 17  1  0
 17 18  1  0
 16 19  1  0
 11 20  1  0
 19 20  2  0
 20 21  1  0
  7 22  1  0
  4 23  1  0
 22 23  1  0
M  END
