piperidine-amides-8546-covalent
     RDKit          3D

 24 25  0  0  0  0  0  0  0  0999 V2000
    6.9690   -3.3400   19.4620 C   0  0  0  0  0  0  0  0  0  0  0  0
    6.2990   -4.2490   20.4020 C   0  0  0  0  0  0  0  0  0  0  0  0
    5.3030   -4.8440   19.9670 O   0  0  0  0  0  0  0  0  0  0  0  0
    6.7390   -4.5080   21.7420 N   0  0  0  0  0  0  0  0  0  0  0  0
    7.4010   -3.4940   22.5360 C   0  0  0  0  0  0  0  0  0  0  0  0
    6.7360   -3.2820   23.9020 C   0  0  0  0  0  0  0  0  0  0  0  0
    6.3440   -4.6190   24.5600 C   0  0  0  0  0  0  0  0  0  0  0  0
    5.7210   -4.4330   25.9730 C   0  0  0  0  0  0  0  0  0  0  0  0
    4.7480   -3.6720   25.9780 O   0  0  0  0  0  0  0  0  0  0  0  0
    6.2610   -5.0720   27.1840 N   0  0  0  0  0  0  0  0  0  0  0  0
    5.6840   -6.2070   27.9550 C   0  0  0  0  0  0  0  0  0  0  0  0
    6.4630   -6.9260   29.0160 C   0  0  0  0  0  0  0  0  0  0  0  0
    6.2050   -8.3400   29.4700 C   0  0  0  0  0  0  0  0  0  0  0  0
    7.2590   -9.3770   29.8960 C   0  0  0  0  0  0  0  0  0  0  0  0
    7.5750  -10.8980   30.2190 N   0  0  0  0  0  0  0  0  0  0  0  0
    8.8600  -11.2710   29.5270 C   0  0  0  0  0  0  0  0  0  0  0  0
    9.8790  -12.2490   30.2160 C   0  0  0  0  0  0  0  0  0  0  0  0
    9.6150  -12.6410   31.4550 N   0  0  0  0  0  0  0  0  0  0  0  0
   10.5980  -12.9300   32.4630 C   0  0  0  0  0  0  0  0  0  0  0  0
   11.9140  -12.1770   32.4770 C   0  0  0  0  0  0  0  0  0  0  0  0
    8.4800  -12.4680   32.1170 C   0  0  0  0  0  0  0  0  0  0  0  0
    7.4140  -11.7000   31.6550 C   0  0  0  0  0  0  0  0  0  0  0  0
    5.3560   -5.2140   23.6150 C   0  0  0  0  0  0  0  0  0  0  0  0
    6.0770   -5.6290   22.3580 C   0  0  0  0  0  0  0  0  0  0  0  0
  1  2  1  0
  2  3  2  0
  2  4  1  0
  4  5  1  0
  5  6  1  0
  6  7  1  0
  7  8  1  0
  8  9  2  0
  8 10  1  0
 10 11  1  0
 11 12  1  0
 12 13  1  0
 13 14  1  0
 14 15  1  0
 15 16  1  0
 16 17  1  0
 17 18  1  0
 18 19  1  0
 19 20  1  0
 18 21  1  0
 15 22  1  0
 21 22  1  0
  7 23  1  0
  4 24  1  0
 23 24  1  0
M  END
