piperidine-amides-35011-covalent
     RDKit          3D

 32 34  0  0  0  0  0  0  0  0999 V2000
    7.1130   -3.2460   19.1750 C   0  0  0  0  0  0  0  0  0  0  0  0
    6.3360   -4.0090   20.1870 C   0  0  0  0  0  0  0  0  0  0  0  0
    5.2510   -4.4690   19.8440 O   0  0  0  0  0  0  0  0  0  0  0  0
    6.8610   -4.2260   21.4540 N   0  0  0  0  0  0  0  0  0  0  0  0
    6.4690   -5.3800   22.2180 C   0  0  0  0  0  0  0  0  0  0  0  0
    5.8610   -4.9040   23.5050 C   0  0  0  0  0  0  0  0  0  0  0  0
    6.7960   -3.8610   24.1220 C   0  0  0  0  0  0  0  0  0  0  0  0
    6.2390   -3.4030   25.3950 C   0  0  0  0  0  0  0  0  0  0  0  0
    5.0080   -3.3610   25.5790 O   0  0  0  0  0  0  0  0  0  0  0  0
    7.1510   -2.9940   26.3860 N   0  0  0  0  0  0  0  0  0  0  0  0
    7.9020   -1.7690   26.2020 C   0  0  0  0  0  0  0  0  0  0  0  0
    7.0170   -0.5930   26.5420 C   0  0  0  0  0  0  0  0  0  0  0  0
    7.5640    0.3120   27.4290 C   0  0  0  0  0  0  0  0  0  0  0  0
    6.9560    1.4020   27.8520 C   0  0  0  0  0  0  0  0  0  0  0  0
    5.7530    1.6110   27.3790 C   0  0  0  0  0  0  0  0  0  0  0  0
    5.0160    0.7360   26.4160 C   0  0  0  0  0  0  0  0  0  0  0  0
    5.6520   -0.5480   25.8790 C   0  0  0  0  0  0  0  0  0  0  0  0
    7.1540   -3.5560   27.7030 C   0  0  1  0  0  0  0  0  0  0  0  0
    6.7410   -2.5700   28.7440 C   0  0  0  0  0  0  0  0  0  0  0  0
    7.7970   -1.5860   29.1480 C   0  0  0  0  0  0  0  0  0  0  0  0
    7.5390   -0.5210   30.1910 C   0  0  0  0  0  0  0  0  0  0  0  0
    6.1980   -0.4680   30.8130 C   0  0  0  0  0  0  0  0  0  0  0  0
    6.0090    0.5340   31.7780 O   0  0  0  0  0  0  0  0  0  0  0  0
    7.0330    0.5220   32.6930 C   0  0  0  0  0  0  0  0  0  0  0  0
    5.1850   -1.4620   30.3760 C   0  0  0  0  0  0  0  0  0  0  0  0
    5.4800   -2.5150   29.3310 C   0  0  0  0  0  0  0  0  0  0  0  0
    6.4180   -4.9010   27.8650 C   0  0  0  0  0  0  0  0  0  0  0  0
    5.1150   -4.6790   27.3840 F   0  0  0  0  0  0  0  0  0  0  0  0
    6.9380   -5.8650   27.0250 F   0  0  0  0  0  0  0  0  0  0  0  0
    6.3480   -5.4050   29.1140 F   0  0  0  0  0  0  0  0  0  0  0  0
    6.9520   -2.7250   23.1300 C   0  0  0  0  0  0  0  0  0  0  0  0
    7.6790   -3.2320   22.1160 C   0  0  0  0  0  0  0  0  0  0  0  0
  1  2  1  0
  2  3  2  0
  2  4  1  0
  4  5  1  0
  5  6  1  0
  6  7  1  0
  7  8  1  0
  8  9  2  0
  8 10  1  0
 10 11  1  0
 11 12  1  0
 12 13  2  0
 13 14  1  0
 14 15  2  0
 15 16  1  0
 12 17  1  0
 16 17  2  0
 18 10  1  6
 18 19  1  0
 19 20  2  0
 20 21  1  0
 21 22  2  0
 22 23  1  0
 23 24  1  0
 22 25  1  0
 19 26  1  0
 25 26  2  0
 18 27  1  0
 27 28  1  0
 27 29  1  0
 27 30  1  0
  7 31  1  0
  4 32  1  0
 31 32  1  0
M  END
