piperidine-amides-24445-covalent
     RDKit          3D

 24 25  0  0  0  0  0  0  0  0999 V2000
    7.1350   -3.3430   19.3490 C   0  0  0  0  0  0  0  0  0  0  0  0
    6.4100   -4.1700   20.3170 C   0  0  0  0  0  0  0  0  0  0  0  0
    5.3760   -4.7870   19.9740 O   0  0  0  0  0  0  0  0  0  0  0  0
    6.9150   -4.3090   21.6140 N   0  0  0  0  0  0  0  0  0  0  0  0
    7.7610   -3.2820   22.1740 C   0  0  0  0  0  0  0  0  0  0  0  0
    7.0110   -2.7380   23.3810 C   0  0  0  0  0  0  0  0  0  0  0  0
    6.5780   -3.9400   24.1880 C   0  0  0  0  0  0  0  0  0  0  0  0
    5.7650   -3.4820   25.3270 C   0  0  0  0  0  0  0  0  0  0  0  0
    4.5220   -3.4790   25.1800 O   0  0  0  0  0  0  0  0  0  0  0  0
    6.3450   -3.0340   26.5330 N   0  0  0  0  0  0  0  0  0  0  0  0
    5.7420   -3.5520   27.7380 C   0  0  0  0  0  0  0  0  0  0  0  0
    6.7060   -4.4020   28.5420 C   0  0  0  0  0  0  0  0  0  0  0  0
    7.0110   -5.6290   29.1740 O   0  0  0  0  0  0  0  0  0  0  0  0
    5.5220   -5.1270   28.2230 O   0  0  0  0  0  0  0  0  0  0  0  0
    5.5920   -6.4680   27.8190 C   0  0  0  0  0  0  0  0  0  0  0  0
    6.3500   -1.7270   27.1520 C   0  0  0  0  0  0  0  0  0  0  0  0
    6.9510   -1.6360   28.3570 C   0  0  0  0  0  0  0  0  0  0  0  0
    7.0580   -0.5060   29.1120 C   0  0  0  0  0  0  0  0  0  0  0  0
    6.5560    0.9340   28.8440 C   0  0  0  0  0  0  0  0  0  0  0  0
    5.8980    0.7100   27.4560 C   0  0  0  0  0  0  0  0  0  0  0  0
    5.3350    1.8140   26.9040 F   0  0  0  0  0  0  0  0  0  0  0  0
    5.8320   -0.5820   26.6990 C   0  0  0  0  0  0  0  0  0  0  0  0
    5.7310   -4.9020   23.3790 C   0  0  0  0  0  0  0  0  0  0  0  0
    6.6020   -5.4510   22.4310 C   0  0  0  0  0  0  0  0  0  0  0  0
  1  2  1  0
  2  3  2  0
  2  4  1  0
  4  5  1  0
  5  6  1  0
  6  7  1  0
  7  8  1  0
  8  9  2  0
  8 10  1  0
 10 11  1  0
 11 12  1  0
 12 13  2  0
 12 14  1  0
 14 15  1  0
 10 16  1  0
 16 17  2  0
 17 18  1  0
 18 19  2  0
 19 20  1  0
 20 21  1  0
 16 22  1  0
 20 22  2  0
  7 23  1  0
  4 24  1  0
 23 24  1  0
M  END
