piperidine-amides-4895-covalent
     RDKit          3D

 23 25  0  0  0  0  0  0  0  0999 V2000
    7.0750   -3.3210   19.1750 C   0  0  0  0  0  0  0  0  0  0  0  0
    6.3630   -4.0860   20.2280 C   0  0  0  0  0  0  0  0  0  0  0  0
    5.2880   -4.6180   19.9000 O   0  0  0  0  0  0  0  0  0  0  0  0
    6.9180   -4.2380   21.5040 N   0  0  0  0  0  0  0  0  0  0  0  0
    7.6890   -3.1670   22.0530 C   0  0  0  0  0  0  0  0  0  0  0  0
    7.1590   -2.6180   23.2850 C   0  0  0  0  0  0  0  0  0  0  0  0
    6.7290   -3.6440   24.2360 C   0  0  0  0  0  0  0  0  0  0  0  0
    6.1060   -2.9680   25.3930 C   0  0  0  0  0  0  0  0  0  0  0  0
    5.0150   -3.3960   25.8240 O   0  0  0  0  0  0  0  0  0  0  0  0
    6.7560   -1.8440   25.9610 N   0  0  0  0  0  0  0  0  0  0  0  0
    6.5540   -1.3530   27.3420 C   0  0  2  0  0  0  0  0  0  0  0  0
    5.2220   -1.6270   27.9070 C   0  0  0  0  0  0  0  0  0  0  0  0
    4.5970   -0.5190   28.6900 C   0  0  0  0  0  0  0  0  0  0  0  0
    5.4090    0.2340   29.4240 O   0  0  0  0  0  0  0  0  0  0  0  0
    6.1540    0.9900   28.5270 C   0  0  0  0  0  0  0  0  0  0  0  0
    6.4980    2.2730   28.3150 C   0  0  0  0  0  0  0  0  0  0  0  0
    6.7380    1.1710   27.6560 C   0  0  0  0  0  0  0  0  0  0  0  0
    5.9900    0.9120   28.8680 C   0  0  0  0  0  0  0  0  0  0  0  0
    4.9940    0.2470   30.4070 Br  0  0  0  0  0  0  0  0  0  0  0  0
    5.9570   -0.4480   28.5910 C   0  0  0  0  0  0  0  0  0  0  0  0
    6.6310    0.0750   27.5930 C   0  0  0  0  0  0  0  0  0  0  0  0
    5.9280   -4.7530   23.6720 C   0  0  0  0  0  0  0  0  0  0  0  0
    6.5260   -5.3200   22.4050 C   0  0  0  0  0  0  0  0  0  0  0  0
  1  2  1  0
  2  3  2  0
  2  4  1  0
  4  5  1  0
  5  6  1  0
  6  7  1  0
  7  8  1  0
  8  9  2  0
  8 10  1  0
 11 10  1  6
 11 12  1  0
 12 13  1  0
 13 14  1  0
 14 15  1  0
 15 16  2  0
 16 17  1  0
 17 18  2  0
 18 19  1  0
 18 20  1  0
 11 21  1  0
 15 21  1  0
 20 21  2  0
  7 22  1  0
  4 23  1  0
 22 23  1  0
M  END
