piperidine-amides-15200-covalent
     RDKit          3D

 17 17  0  0  0  0  0  0  0  0999 V2000
    7.0800   -3.2600   19.1980 C   0  0  0  0  0  0  0  0  0  0  0  0
    6.3220   -4.0170   20.2120 C   0  0  0  0  0  0  0  0  0  0  0  0
    5.2680   -4.6000   19.8950 O   0  0  0  0  0  0  0  0  0  0  0  0
    6.7810   -4.1350   21.5280 N   0  0  0  0  0  0  0  0  0  0  0  0
    7.6820   -3.1510   22.1020 C   0  0  0  0  0  0  0  0  0  0  0  0
    6.9830   -2.6000   23.3420 C   0  0  0  0  0  0  0  0  0  0  0  0
    6.6570   -3.8060   24.1950 C   0  0  0  0  0  0  0  0  0  0  0  0
    5.9130   -3.3760   25.3950 C   0  0  0  0  0  0  0  0  0  0  0  0
    4.8210   -2.7840   25.2490 O   0  0  0  0  0  0  0  0  0  0  0  0
    6.4650   -3.6520   26.6680 N   0  0  0  0  0  0  0  0  0  0  0  0
    6.8480   -5.0040   26.9420 C   0  0  2  0  0  0  0  0  0  0  0  0
    5.8160   -5.6550   27.8180 C   0  0  0  0  0  0  0  0  0  0  0  0
    8.1380   -5.0410   27.6210 C   0  0  0  0  0  0  0  0  0  0  0  0
    9.1340   -5.8080   27.1200 C   0  0  0  0  0  0  0  0  0  0  0  0
    9.6020   -5.5520   25.8490 O   0  0  0  0  0  0  0  0  0  0  0  0
    5.8420   -4.8460   23.4740 C   0  0  0  0  0  0  0  0  0  0  0  0
    6.4750   -5.2930   22.3380 C   0  0  0  0  0  0  0  0  0  0  0  0
  1  2  1  0
  2  3  2  0
  2  4  1  0
  4  5  1  0
  5  6  1  0
  6  7  1  0
  7  8  1  0
  8  9  2  0
  8 10  1  0
 10 11  1  0
 11 12  1  1
 11 13  1  0
 13 14  1  0
 14 15  1  0
  7 16  1  0
  4 17  1  0
 16 17  1  0
M  END
