piperidine-amides-10552-covalent
     RDKit          3D

 23 25  0  0  0  0  0  0  0  0999 V2000
    7.0650   -3.3340   19.2740 C   0  0  0  0  0  0  0  0  0  0  0  0
    6.3820   -4.1450   20.2870 C   0  0  0  0  0  0  0  0  0  0  0  0
    5.3200   -4.7160   19.9400 O   0  0  0  0  0  0  0  0  0  0  0  0
    6.9470   -4.2920   21.5560 N   0  0  0  0  0  0  0  0  0  0  0  0
    7.7780   -3.2640   22.1320 C   0  0  0  0  0  0  0  0  0  0  0  0
    7.1390   -2.7850   23.3930 C   0  0  0  0  0  0  0  0  0  0  0  0
    6.7590   -3.9240   24.2920 C   0  0  0  0  0  0  0  0  0  0  0  0
    6.0940   -3.3420   25.4680 C   0  0  0  0  0  0  0  0  0  0  0  0
    4.8470   -3.2090   25.4720 O   0  0  0  0  0  0  0  0  0  0  0  0
    6.8630   -2.9470   26.5760 N   0  0  0  0  0  0  0  0  0  0  0  0
    6.6640   -1.7110   27.2970 C   0  0  0  0  0  0  0  0  0  0  0  0
    7.1740   -1.6440   28.7360 C   0  0  0  0  0  0  0  0  0  0  0  0
    6.6370   -0.1830   28.7930 N   0  0  0  0  0  0  0  0  0  0  0  0
    6.8510    0.3890   29.9690 C   0  0  0  0  0  0  0  0  0  0  0  0
    6.0220    0.3870   27.7140 N   0  0  0  0  0  0  0  0  0  0  0  0
    6.0190   -0.5080   26.7820 C   0  0  0  0  0  0  0  0  0  0  0  0
    5.5260   -0.3820   25.5650 O   0  0  0  0  0  0  0  0  0  0  0  0
    5.5230    0.8680   25.1760 C   0  0  0  0  0  0  0  0  0  0  0  0
    5.8430    1.2040   23.8880 C   0  0  0  0  0  0  0  0  0  0  0  0
    4.6830    1.8560   23.7910 C   0  0  0  0  0  0  0  0  0  0  0  0
    4.2480    1.5020   25.2050 C   0  0  0  0  0  0  0  0  0  0  0  0
    5.8520   -4.9030   23.6190 C   0  0  0  0  0  0  0  0  0  0  0  0
    6.4600   -5.4270   22.3370 C   0  0  0  0  0  0  0  0  0  0  0  0
  1  2  1  0
  2  3  2  0
  2  4  1  0
  4  5  1  0
  5  6  1  0
  6  7  1  0
  7  8  1  0
  8  9  2  0
  8 10  1  0
 10 11  1  0
 11 12  2  0
 12 13  1  0
 13 14  1  0
 13 15  1  0
 11 16  1  0
 15 16  2  0
 16 17  1  0
 17 18  1  0
 18 19  1  0
 19 20  1  0
 18 21  1  0
 20 21  1  0
  7 22  1  0
  4 23  1  0
 22 23  1  0
M  END
