piperidine-amides-8836-covalent
     RDKit          3D

 22 23  0  0  0  0  0  0  0  0999 V2000
    7.0720   -3.2700   19.2600 C   0  0  0  0  0  0  0  0  0  0  0  0
    6.3390   -4.0490   20.2600 C   0  0  0  0  0  0  0  0  0  0  0  0
    5.2840   -4.5980   19.9000 O   0  0  0  0  0  0  0  0  0  0  0  0
    6.8340   -4.2140   21.5810 N   0  0  0  0  0  0  0  0  0  0  0  0
    6.5410   -5.4380   22.2760 C   0  0  0  0  0  0  0  0  0  0  0  0
    5.9830   -5.1470   23.6450 C   0  0  0  0  0  0  0  0  0  0  0  0
    5.7490   -3.6540   23.7210 C   0  0  0  0  0  0  0  0  0  0  0  0
    5.1710   -3.2580   25.0510 C   0  0  0  0  0  0  0  0  0  0  0  0
    3.9870   -2.9430   25.0480 O   0  0  0  0  0  0  0  0  0  0  0  0
    5.9670   -3.2620   26.1840 N   0  0  0  0  0  0  0  0  0  0  0  0
    6.5170   -4.4580   26.6920 C   0  0  0  0  0  0  0  0  0  0  0  0
    7.8810   -4.4040   26.6230 C   0  0  0  0  0  0  0  0  0  0  0  0
    8.7140   -5.0650   27.4720 C   0  0  0  0  0  0  0  0  0  0  0  0
    9.9780   -4.8050   27.1870 C   0  0  0  0  0  0  0  0  0  0  0  0
    9.8500   -3.8970   26.0390 C   0  0  0  0  0  0  0  0  0  0  0  0
   10.9550   -3.1890   25.2110 C   0  0  0  0  0  0  0  0  0  0  0  0
   12.2210   -3.5650   25.5900 F   0  0  0  0  0  0  0  0  0  0  0  0
   10.8210   -1.8130   25.3940 F   0  0  0  0  0  0  0  0  0  0  0  0
   10.7970   -3.2720   23.8410 F   0  0  0  0  0  0  0  0  0  0  0  0
    8.5200   -3.7030   25.7480 O   0  0  0  0  0  0  0  0  0  0  0  0
    6.9560   -2.8210   23.4910 C   0  0  0  0  0  0  0  0  0  0  0  0
    7.5590   -3.1250   22.1580 C   0  0  0  0  0  0  0  0  0  0  0  0
  1  2  1  0
  2  3  2  0
  2  4  1  0
  4  5  1  0
  5  6  1  0
  6  7  1  0
  7  8  1  0
  8  9  2  0
  8 10  1  0
 10 11  1  0
 11 12  1  0
 12 13  2  0
 13 14  1  0
 14 15  2  0
 15 16  1  0
 16 17  1  0
 16 18  1  0
 16 19  1  0
 12 20  1  0
 15 20  1  0
  7 21  1  0
  4 22  1  0
 21 22  1  0
M  END
