piperidine-amides-31179-covalent
     RDKit          3D

 27 28  0  0  0  0  0  0  0  0999 V2000
    7.1350   -3.3680   19.2990 C   0  0  0  0  0  0  0  0  0  0  0  0
    6.4210   -4.1750   20.2780 C   0  0  0  0  0  0  0  0  0  0  0  0
    5.3560   -4.7290   19.9550 O   0  0  0  0  0  0  0  0  0  0  0  0
    6.9700   -4.3860   21.5510 N   0  0  0  0  0  0  0  0  0  0  0  0
    7.7320   -3.3610   22.2140 C   0  0  0  0  0  0  0  0  0  0  0  0
    6.8440   -2.8980   23.3310 C   0  0  0  0  0  0  0  0  0  0  0  0
    6.4300   -4.0140   24.2460 C   0  0  0  0  0  0  0  0  0  0  0  0
    5.5800   -3.5080   25.3480 C   0  0  0  0  0  0  0  0  0  0  0  0
    4.4990   -2.9190   25.0680 O   0  0  0  0  0  0  0  0  0  0  0  0
    5.8670   -3.6330   26.7200 N   0  0  0  0  0  0  0  0  0  0  0  0
    6.5070   -2.5140   27.3620 C   0  0  0  0  0  0  0  0  0  0  0  0
    6.8820   -3.0620   28.6650 C   0  0  0  0  0  0  0  0  0  0  0  0
    5.9330   -3.3720   29.3970 O   0  0  0  0  0  0  0  0  0  0  0  0
    5.1240   -4.3610   28.9710 C   0  0  1  0  0  0  0  0  0  0  0  0
    3.8560   -4.6700   29.7420 C   0  0  0  0  0  0  0  0  0  0  0  0
    2.9670   -5.5950   28.9240 C   0  0  0  0  0  0  0  0  0  0  0  0
    3.2740   -6.9710   29.3190 N   0  0  0  0  0  0  0  0  0  0  0  0
    2.5610   -7.2070   30.5560 C   0  0  0  0  0  0  0  0  0  0  0  0
    1.3730   -6.9090   30.8180 O   0  0  0  0  0  0  0  0  0  0  0  0
    3.3910   -7.8230   31.4500 O   0  0  0  0  0  0  0  0  0  0  0  0
    4.5240   -7.0530   31.5380 C   0  0  0  0  0  0  0  0  0  0  0  0
    5.6370   -7.4180   30.7640 C   0  0  0  0  0  0  0  0  0  0  0  0
    5.6380   -7.8450   32.2410 C   0  0  0  0  0  0  0  0  0  0  0  0
    4.9170   -6.7710   33.0280 C   0  0  0  0  0  0  0  0  0  0  0  0
    4.8330   -4.2930   27.5020 C   0  0  0  0  0  0  0  0  0  0  0  0
    5.7530   -5.1170   23.4910 C   0  0  0  0  0  0  0  0  0  0  0  0
    6.4850   -5.5090   22.2690 C   0  0  0  0  0  0  0  0  0  0  0  0
  1  2  1  0
  2  3  2  0
  2  4  1  0
  4  5  1  0
  5  6  1  0
  6  7  1  0
  7  8  1  0
  8  9  2  0
  8 10  1  0
 10 11  1  0
 11 12  1  0
 12 13  1  0
 13 14  1  0
 14 15  1  1
 15 16  1  0
 16 17  1  0
 17 18  1  0
 18 19  2  0
 18 20  1  0
 21 20  1  0
 21 22  1  0
 21 23  1  0
 21 24  1  0
 10 25  1  0
 14 25  1  0
  7 26  1  0
  4 27  1  0
 26 27  1  0
M  END
