piperidine-amides-16183-covalent
     RDKit          3D

 19 20  0  0  0  0  0  0  0  0999 V2000
    7.1420   -3.3390   19.3010 C   0  0  0  0  0  0  0  0  0  0  0  0
    6.3990   -4.1620   20.2820 C   0  0  0  0  0  0  0  0  0  0  0  0
    5.3270   -4.6440   19.9250 O   0  0  0  0  0  0  0  0  0  0  0  0
    6.9770   -4.4070   21.5240 N   0  0  0  0  0  0  0  0  0  0  0  0
    6.6270   -5.5500   22.3100 C   0  0  0  0  0  0  0  0  0  0  0  0
    5.7430   -5.0990   23.4380 C   0  0  0  0  0  0  0  0  0  0  0  0
    6.3730   -3.9190   24.1870 C   0  0  0  0  0  0  0  0  0  0  0  0
    5.3580   -3.4850   25.1560 C   0  0  0  0  0  0  0  0  0  0  0  0
    4.4470   -2.7230   24.8230 O   0  0  0  0  0  0  0  0  0  0  0  0
    5.4530   -3.9430   26.4540 N   0  0  0  0  0  0  0  0  0  0  0  0
    6.7980   -4.1380   26.7980 C   0  0  0  0  0  0  0  0  0  0  0  0
    6.9160   -5.4240   27.5340 C   0  0  1  0  0  0  0  0  0  0  0  0
    7.5650   -5.6690   28.6860 C   0  0  0  0  0  0  0  0  0  0  0  0
    6.1690   -5.4370   28.7210 C   0  0  0  0  0  0  0  0  0  0  0  0
    5.1270   -4.5600   28.7170 C   0  0  1  0  0  0  0  0  0  0  0  0
    4.7000   -4.1140   29.9230 O   0  0  0  0  0  0  0  0  0  0  0  0
    5.1650   -3.3770   27.7640 C   0  0  0  0  0  0  0  0  0  0  0  0
    6.8310   -2.8100   23.2990 C   0  0  0  0  0  0  0  0  0  0  0  0
    7.6730   -3.3300   22.1860 C   0  0  0  0  0  0  0  0  0  0  0  0
  1  2  1  0
  2  3  2  0
  2  4  1  0
  4  5  1  0
  5  6  1  0
  6  7  1  0
  7  8  1  0
  8  9  2  0
  8 10  1  0
 10 11  1  0
 11 12  1  0
 12 13  1  1
 12 14  1  0
 14 15  1  0
 15 16  1  1
 10 17  1  0
 15 17  1  0
  7 18  1  0
  4 19  1  0
 18 19  1  0
M  END
