piperidine-amides-33274-covalent
     RDKit          3D

 29 31  0  0  0  0  0  0  0  0999 V2000
    7.1090   -3.2880   19.2580 C   0  0  0  0  0  0  0  0  0  0  0  0
    6.3970   -4.0610   20.2850 C   0  0  0  0  0  0  0  0  0  0  0  0
    5.3310   -4.6160   19.9200 O   0  0  0  0  0  0  0  0  0  0  0  0
    6.9020   -4.2370   21.6020 N   0  0  0  0  0  0  0  0  0  0  0  0
    6.3360   -5.2980   22.3240 C   0  0  0  0  0  0  0  0  0  0  0  0
    5.6120   -4.8780   23.5340 C   0  0  0  0  0  0  0  0  0  0  0  0
    5.9220   -3.5380   24.1170 C   0  0  0  0  0  0  0  0  0  0  0  0
    5.3830   -3.4390   25.5500 C   0  0  0  0  0  0  0  0  0  0  0  0
    4.1450   -3.4610   25.6420 O   0  0  0  0  0  0  0  0  0  0  0  0
    6.0810   -3.3070   26.7990 N   0  0  0  0  0  0  0  0  0  0  0  0
    5.7270   -2.4310   27.8300 C   0  0  0  0  0  0  0  0  0  0  0  0
    6.3240   -2.8290   29.0740 C   0  0  0  0  0  0  0  0  0  0  0  0
    7.2690   -3.9360   28.5810 C   0  0  0  0  0  0  0  0  0  0  0  0
    6.7830   -4.4230   27.3870 C   0  0  2  0  0  0  0  0  0  0  0  0
    6.3260   -5.0980   28.6740 C   0  0  0  0  0  0  0  0  0  0  0  0
    6.6610   -6.2440   28.0090 N   0  0  0  0  0  0  0  0  0  0  0  0
    7.8490   -6.9590   28.6510 C   0  0  0  0  0  0  0  0  0  0  0  0
    8.9540   -6.1070   28.6800 O   0  0  0  0  0  0  0  0  0  0  0  0
    7.8870   -8.7420   29.0150 O   0  0  0  0  0  0  0  0  0  0  0  0
    8.6940  -10.3530   29.2280 C   0  0  0  0  0  0  0  0  0  0  0  0
    7.6590  -10.8980   29.5310 C   0  0  0  0  0  0  0  0  0  0  0  0
    9.6870  -11.0890   28.3270 C   0  0  0  0  0  0  0  0  0  0  0  0
    9.7720  -11.1320   29.9280 C   0  0  0  0  0  0  0  0  0  0  0  0
    6.6690   -5.7690   26.7220 C   0  0  2  0  0  0  0  0  0  0  0  0
    7.4480   -6.0700   25.6070 C   0  0  0  0  0  0  0  0  0  0  0  0
    8.1400   -5.0790   25.0140 C   0  0  0  0  0  0  0  0  0  0  0  0
    6.6630   -6.3790   24.5320 C   0  0  0  0  0  0  0  0  0  0  0  0
    7.3170   -3.0690   23.7830 C   0  0  0  0  0  0  0  0  0  0  0  0
    7.5750   -3.1550   22.2740 C   0  0  0  0  0  0  0  0  0  0  0  0
  1  2  1  0
  2  3  2  0
  2  4  1  0
  4  5  1  0
  5  6  1  0
  6  7  1  0
  7  8  1  0
  8  9  2  0
  8 10  1  0
 10 11  1  0
 11 12  1  0
 12 13  1  0
 14 10  1  0
 14 13  1  1
 14 15  1  0
 15 16  1  0
 16 17  1  0
 17 18  2  0
 17 19  1  0
 20 19  1  0
 20 21  1  0
 20 22  1  0
 20 23  1  0
 14 24  1  0
 16 24  1  0
 24 25  1  6
 25 26  1  0
 25 27  1  0
  7 28  1  0
  4 29  1  0
 28 29  1  0
M  END
