piperidine-amides-13097-covalent
     RDKit          3D

 20 21  0  0  0  0  0  0  0  0999 V2000
    7.1620   -3.2820   19.2110 C   0  0  0  0  0  0  0  0  0  0  0  0
    6.3660   -3.9920   20.2360 C   0  0  0  0  0  0  0  0  0  0  0  0
    5.2890   -4.5020   19.8690 O   0  0  0  0  0  0  0  0  0  0  0  0
    6.8540   -4.1120   21.5410 N   0  0  0  0  0  0  0  0  0  0  0  0
    7.7220   -3.1150   22.0680 C   0  0  0  0  0  0  0  0  0  0  0  0
    7.4380   -2.7850   23.4500 C   0  0  0  0  0  0  0  0  0  0  0  0
    6.2310   -3.4510   23.9760 C   0  0  0  0  0  0  0  0  0  0  0  0
    6.0930   -3.1050   25.4100 C   0  0  0  0  0  0  0  0  0  0  0  0
    4.9370   -2.9890   25.8680 O   0  0  0  0  0  0  0  0  0  0  0  0
    7.2380   -2.8900   26.2190 N   0  0  0  0  0  0  0  0  0  0  0  0
    7.3310   -3.3250   27.6310 C   0  0  0  0  0  0  0  0  0  0  0  0
    7.8380   -4.7130   27.7720 C   0  0  0  0  0  0  0  0  0  0  0  0
    6.8520   -5.7900   27.7800 C   0  0  1  0  0  0  0  0  0  0  0  0
    6.3700   -6.2760   28.9840 C   0  0  0  0  0  0  0  0  0  0  0  0
    5.0500   -6.6400   28.8800 C   0  0  0  0  0  0  0  0  0  0  0  0
    4.6420   -6.2560   27.5760 N   0  0  0  0  0  0  0  0  0  0  0  0
    3.8960   -7.0330   26.7680 C   0  0  0  0  0  0  0  0  0  0  0  0
    5.7630   -5.6330   26.9520 C   0  0  0  0  0  0  0  0  0  0  0  0
    6.1000   -4.9020   23.6550 C   0  0  0  0  0  0  0  0  0  0  0  0
    6.5210   -5.2530   22.3620 C   0  0  0  0  0  0  0  0  0  0  0  0
  1  2  1  0
  2  3  2  0
  2  4  1  0
  4  5  1  0
  5  6  1  0
  6  7  1  0
  7  8  1  0
  8  9  2  0
  8 10  1  0
 10 11  1  0
 11 12  1  0
 13 12  1  1
 13 14  1  0
 14 15  1  0
 15 16  1  0
 16 17  1  0
 13 18  1  0
 16 18  1  0
  7 19  1  0
  4 20  1  0
 19 20  1  0
M  END
