piperidine-amides-15077-covalent
     RDKit          3D

 20 21  0  0  0  0  0  0  0  0999 V2000
    7.0980   -3.2830   19.2340 C   0  0  0  0  0  0  0  0  0  0  0  0
    6.3840   -4.0460   20.2580 C   0  0  0  0  0  0  0  0  0  0  0  0
    5.3310   -4.6170   19.9190 O   0  0  0  0  0  0  0  0  0  0  0  0
    6.9090   -4.1750   21.5790 N   0  0  0  0  0  0  0  0  0  0  0  0
    6.6260   -5.3800   22.3160 C   0  0  0  0  0  0  0  0  0  0  0  0
    6.0590   -5.0600   23.6800 C   0  0  0  0  0  0  0  0  0  0  0  0
    5.9850   -3.5570   23.8080 C   0  0  0  0  0  0  0  0  0  0  0  0
    5.5700   -3.1390   25.1900 C   0  0  0  0  0  0  0  0  0  0  0  0
    4.4310   -2.6900   25.2910 O   0  0  0  0  0  0  0  0  0  0  0  0
    6.4620   -3.2730   26.2400 N   0  0  0  0  0  0  0  0  0  0  0  0
    6.0560   -3.6370   27.5620 C   0  0  0  0  0  0  0  0  0  0  0  0
    5.2900   -4.8160   27.6800 C   0  0  0  0  0  0  0  0  0  0  0  0
    4.4740   -5.3330   26.7040 C   0  0  0  0  0  0  0  0  0  0  0  0
    3.1640   -4.9130   26.7450 O   0  0  0  0  0  0  0  0  0  0  0  0
    4.9800   -6.2410   25.7640 O   0  0  0  0  0  0  0  0  0  0  0  0
    4.0400   -7.0620   25.0520 C   0  0  0  0  0  0  0  0  0  0  0  0
    6.1620   -5.9190   28.3210 C   0  0  0  0  0  0  0  0  0  0  0  0
    4.9540   -5.5670   28.9390 C   0  0  0  0  0  0  0  0  0  0  0  0
    7.2570   -2.8590   23.5030 C   0  0  0  0  0  0  0  0  0  0  0  0
    7.6870   -3.0940   22.0960 C   0  0  0  0  0  0  0  0  0  0  0  0
  1  2  1  0
  2  3  2  0
  2  4  1  0
  4  5  1  0
  5  6  1  0
  6  7  1  0
  7  8  1  0
  8  9  2  0
  8 10  1  0
 10 11  1  0
 11 12  1  0
 12 13  1  0
 13 14  2  0
 13 15  1  0
 15 16  1  0
 12 17  1  0
 12 18  1  0
 17 18  1  0
  7 19  1  0
  4 20  1  0
 19 20  1  0
M  END
