piperidine-amides-197-covalent
     RDKit          3D

 23 24  0  0  0  0  0  0  0  0999 V2000
    7.0400   -3.3620   19.2820 C   0  0  0  0  0  0  0  0  0  0  0  0
    6.3450   -4.0950   20.3220 C   0  0  0  0  0  0  0  0  0  0  0  0
    5.3350   -4.7730   19.9630 O   0  0  0  0  0  0  0  0  0  0  0  0
    6.7500   -4.1460   21.6790 N   0  0  0  0  0  0  0  0  0  0  0  0
    7.7310   -3.1140   22.1470 C   0  0  0  0  0  0  0  0  0  0  0  0
    7.5800   -3.1190   23.7270 C   0  0  0  0  0  0  0  0  0  0  0  0
    6.2640   -3.7930   23.9910 C   0  0  0  0  0  0  0  0  0  0  0  0
    5.6600   -3.6200   25.4540 C   0  0  0  0  0  0  0  0  0  0  0  0
    4.7810   -4.4560   25.6190 O   0  0  0  0  0  0  0  0  0  0  0  0
    6.2070   -2.6690   26.1050 N   0  0  0  0  0  0  0  0  0  0  0  0
    6.6440   -1.6550   26.9040 C   0  0  2  0  0  0  0  0  0  0  0  0
    7.1640   -1.5410   28.1720 C   0  0  0  0  0  0  0  0  0  0  0  0
    7.0030   -0.2550   28.7410 C   0  0  0  0  0  0  0  0  0  0  0  0
    5.6390    0.2650   28.8460 C   0  0  0  0  0  0  0  0  0  0  0  0
    5.7500    0.6740   27.3660 C   0  0  0  0  0  0  0  0  0  0  0  0
    5.4850   -0.6530   27.0220 C   0  0  1  0  0  0  0  0  0  0  0  0
    4.7450   -0.8010   26.0290 O   0  0  0  0  0  0  0  0  0  0  0  0
    3.5310   -1.4520   26.1090 C   0  0  0  0  0  0  0  0  0  0  0  0
    3.0900   -2.4610   25.0520 C   0  0  0  0  0  0  0  0  0  0  0  0
    2.4300   -0.3970   26.2090 C   0  0  0  0  0  0  0  0  0  0  0  0
    3.4380   -2.1850   27.3890 C   0  0  0  0  0  0  0  0  0  0  0  0
    6.2140   -5.2510   23.5850 C   0  0  0  0  0  0  0  0  0  0  0  0
    6.6830   -5.4260   22.3320 C   0  0  0  0  0  0  0  0  0  0  0  0
  1  2  1  0
  2  3  2  0
  2  4  1  0
  4  5  1  0
  5  6  1  0
  6  7  1  0
  7  8  1  0
  8  9  2  0
  8 10  1  0
 11 10  1  1
 11 12  1  0
 12 13  1  0
 13 14  1  0
 14 15  1  0
 11 16  1  0
 15 16  1  0
 16 17  1  6
 18 17  1  0
 18 19  1  0
 18 20  1  0
 18 21  1  0
  7 22  1  0
  4 23  1  0
 22 23  1  0
M  END
