piperidine-amides-24272-covalent
     RDKit          3D

 23 24  0  0  0  0  0  0  0  0999 V2000
    7.0280   -3.3370   19.3710 C   0  0  0  0  0  0  0  0  0  0  0  0
    6.3450   -4.2180   20.3330 C   0  0  0  0  0  0  0  0  0  0  0  0
    5.3560   -4.8920   19.9770 O   0  0  0  0  0  0  0  0  0  0  0  0
    6.8080   -4.3430   21.6440 N   0  0  0  0  0  0  0  0  0  0  0  0
    6.6400   -5.5990   22.3560 C   0  0  0  0  0  0  0  0  0  0  0  0
    5.8790   -5.3490   23.6780 C   0  0  0  0  0  0  0  0  0  0  0  0
    5.7990   -3.8560   23.8770 C   0  0  0  0  0  0  0  0  0  0  0  0
    5.1920   -3.4250   25.1700 C   0  0  0  0  0  0  0  0  0  0  0  0
    4.3840   -2.4830   25.1000 O   0  0  0  0  0  0  0  0  0  0  0  0
    5.4900   -4.0210   26.4300 N   0  0  0  0  0  0  0  0  0  0  0  0
    6.8390   -4.1120   26.7480 C   0  0  0  0  0  0  0  0  0  0  0  0
    7.3020   -5.5460   26.8630 C   0  0  0  0  0  0  0  0  0  0  0  0
    6.5130   -6.2230   27.8500 N   0  0  0  0  0  0  0  0  0  0  0  0
    5.9690   -5.5660   29.0180 C   0  0  0  0  0  0  0  0  0  0  0  0
    6.3470   -6.0410   30.1300 O   0  0  0  0  0  0  0  0  0  0  0  0
    5.0770   -4.5540   28.7480 C   0  0  0  0  0  0  0  0  0  0  0  0
    5.3970   -3.5620   27.8210 C   0  0  2  0  0  0  0  0  0  0  0  0
    4.3480   -2.6900   27.5920 C   0  0  0  0  0  0  0  0  0  0  0  0
    3.8320   -2.2240   28.7900 F   0  0  0  0  0  0  0  0  0  0  0  0
    3.3580   -3.2820   26.8250 F   0  0  0  0  0  0  0  0  0  0  0  0
    4.8740   -1.5480   26.9860 F   0  0  0  0  0  0  0  0  0  0  0  0
    7.2120   -3.3390   23.7400 C   0  0  0  0  0  0  0  0  0  0  0  0
    7.5820   -3.3050   22.2920 C   0  0  0  0  0  0  0  0  0  0  0  0
  1  2  1  0
  2  3  2  0
  2  4  1  0
  4  5  1  0
  5  6  1  0
  6  7  1  0
  7  8  1  0
  8  9  2  0
  8 10  1  0
 10 11  1  0
 11 12  1  0
 12 13  1  0
 13 14  1  0
 14 15  2  0
 14 16  1  0
 10 17  1  0
 16 17  1  0
 17 18  1  6
 18 19  1  0
 18 20  1  0
 18 21  1  0
  7 22  1  0
  4 23  1  0
 22 23  1  0
M  END
