piperidine-amides-32445-covalent
     RDKit          3D

 28 30  0  0  0  0  0  0  0  0999 V2000
    7.0780   -3.3180   19.2620 C   0  0  0  0  0  0  0  0  0  0  0  0
    6.3540   -4.1400   20.2730 C   0  0  0  0  0  0  0  0  0  0  0  0
    5.3240   -4.7470   19.9470 O   0  0  0  0  0  0  0  0  0  0  0  0
    6.8860   -4.2500   21.5690 N   0  0  0  0  0  0  0  0  0  0  0  0
    6.7180   -5.4870   22.3000 C   0  0  0  0  0  0  0  0  0  0  0  0
    6.2410   -5.1610   23.7210 C   0  0  0  0  0  0  0  0  0  0  0  0
    6.2960   -3.6840   23.8870 C   0  0  0  0  0  0  0  0  0  0  0  0
    5.7520   -3.2010   25.1670 C   0  0  0  0  0  0  0  0  0  0  0  0
    4.9940   -2.2290   25.1090 O   0  0  0  0  0  0  0  0  0  0  0  0
    6.0690   -3.8360   26.3570 N   0  0  0  0  0  0  0  0  0  0  0  0
    5.7470   -5.1910   26.5840 C   0  0  0  0  0  0  0  0  0  0  0  0
    5.8840   -5.8460   27.7610 C   0  0  0  0  0  0  0  0  0  0  0  0
    5.5020   -5.1590   28.8530 C   0  0  0  0  0  0  0  0  0  0  0  0
    5.9200   -5.8460   29.9710 O   0  0  0  0  0  0  0  0  0  0  0  0
    4.0800   -5.0260   28.8630 C   0  0  0  0  0  0  0  0  0  0  0  0
    3.5530   -4.0290   27.8790 C   0  0  0  0  0  0  0  0  0  0  0  0
    3.5950   -2.6520   28.0510 O   0  0  0  0  0  0  0  0  0  0  0  0
    2.9910   -4.6000   26.7730 O   0  0  0  0  0  0  0  0  0  0  0  0
    2.6130   -3.9570   25.5850 C   0  0  0  0  0  0  0  0  0  0  0  0
    3.5910   -4.7720   30.1280 C   0  0  0  0  0  0  0  0  0  0  0  0
    2.2280   -4.5510   30.2190 C   0  0  0  0  0  0  0  0  0  0  0  0
    1.3930   -5.4590   29.6560 O   0  0  0  0  0  0  0  0  0  0  0  0
    1.9830   -6.4170   28.7900 C   0  0  0  0  0  0  0  0  0  0  0  0
    3.4890   -6.2690   28.6310 C   0  0  0  0  0  0  0  0  0  0  0  0
    6.1700   -3.9370   28.7880 C   0  0  0  0  0  0  0  0  0  0  0  0
    6.2180   -3.0220   27.5570 C   0  0  0  0  0  0  0  0  0  0  0  0
    7.6220   -3.1020   23.5950 C   0  0  0  0  0  0  0  0  0  0  0  0
    7.7720   -3.2120   22.0900 C   0  0  0  0  0  0  0  0  0  0  0  0
  1  2  1  0
  2  3  2  0
  2  4  1  0
  4  5  1  0
  5  6  1  0
  6  7  1  0
  7  8  1  0
  8  9  2  0
  8 10  1  0
 10 11  1  0
 11 12  1  0
 12 13  1  0
 13 14  1  0
 13 15  1  0
 15 16  1  0
 16 17  2  0
 16 18  1  0
 18 19  1  0
 15 20  1  0
 20 21  1  0
 21 22  1  0
 22 23  1  0
 15 24  1  0
 23 24  1  0
 13 25  1  0
 10 26  1  0
 25 26  1  0
  7 27  1  0
  4 28  1  0
 27 28  1  0
M  END
