piperidine-amides-23816-covalent
     RDKit          3D

 22 23  0  0  0  0  0  0  0  0999 V2000
    7.1110   -3.3780   19.3620 C   0  0  0  0  0  0  0  0  0  0  0  0
    6.4240   -4.2150   20.3550 C   0  0  0  0  0  0  0  0  0  0  0  0
    5.3770   -4.7930   19.9750 O   0  0  0  0  0  0  0  0  0  0  0  0
    6.9740   -4.3950   21.6520 N   0  0  0  0  0  0  0  0  0  0  0  0
    6.7050   -5.6160   22.3300 C   0  0  0  0  0  0  0  0  0  0  0  0
    6.2440   -5.3680   23.6800 C   0  0  0  0  0  0  0  0  0  0  0  0
    6.1120   -3.9270   23.9050 C   0  0  0  0  0  0  0  0  0  0  0  0
    5.3630   -3.5850   25.1560 C   0  0  0  0  0  0  0  0  0  0  0  0
    4.1850   -3.2110   25.0300 O   0  0  0  0  0  0  0  0  0  0  0  0
    5.8660   -3.6420   26.4610 N   0  0  0  0  0  0  0  0  0  0  0  0
    6.5430   -2.5740   27.0200 C   0  0  0  0  0  0  0  0  0  0  0  0
    6.9030   -2.6910   28.4010 C   0  0  0  0  0  0  0  0  0  0  0  0
    5.6400   -3.0810   29.0730 C   0  0  0  0  0  0  0  0  0  0  0  0
    4.6190   -2.2410   28.4400 N   0  0  0  0  0  0  0  0  0  0  0  0
    3.8380   -1.2850   29.5880 S   0  0  0  0  0  0  0  0  0  0  0  0
    4.4820    0.2960   29.5220 N   0  0  0  0  0  0  0  0  0  0  0  0
    4.1130   -1.7890   30.9900 O   0  0  0  0  0  0  0  0  0  0  0  0
    2.3630   -1.2390   29.3850 O   0  0  0  0  0  0  0  0  0  0  0  0
    5.4060   -4.4170   28.8470 C   0  0  0  0  0  0  0  0  0  0  0  0
    4.8760   -4.2190   27.4100 C   0  0  0  0  0  0  0  0  0  0  0  0
    7.3560   -3.1480   23.7120 C   0  0  0  0  0  0  0  0  0  0  0  0
    7.7300   -3.2790   22.2220 C   0  0  0  0  0  0  0  0  0  0  0  0
  1  2  1  0
  2  3  2  0
  2  4  1  0
  4  5  1  0
  5  6  1  0
  6  7  1  0
  7  8  1  0
  8  9  2  0
  8 10  1  0
 10 11  1  0
 11 12  1  0
 12 13  1  0
 13 14  1  0
 15 14  1  0
 15 16  1  0
 15 17  2  0
 15 18  2  0
 13 19  1  0
 10 20  1  0
 19 20  1  0
  7 21  1  0
  4 22  1  0
 21 22  1  0
M  END
