piperidine-amides-29303-covalent
     RDKit          3D

 26 28  0  0  0  0  0  0  0  0999 V2000
    7.0620   -3.3320   19.3000 C   0  0  0  0  0  0  0  0  0  0  0  0
    6.3970   -4.1860   20.2800 C   0  0  0  0  0  0  0  0  0  0  0  0
    5.3420   -4.7500   19.9510 O   0  0  0  0  0  0  0  0  0  0  0  0
    6.9850   -4.4070   21.5460 N   0  0  0  0  0  0  0  0  0  0  0  0
    6.5930   -5.5860   22.2480 C   0  0  0  0  0  0  0  0  0  0  0  0
    5.6830   -5.1690   23.3570 C   0  0  0  0  0  0  0  0  0  0  0  0
    6.4990   -4.2640   24.2470 C   0  0  0  0  0  0  0  0  0  0  0  0
    5.6550   -3.8290   25.4030 C   0  0  0  0  0  0  0  0  0  0  0  0
    4.6590   -3.1710   25.1140 O   0  0  0  0  0  0  0  0  0  0  0  0
    6.0250   -4.1660   26.7000 N   0  0  0  0  0  0  0  0  0  0  0  0
    5.2260   -5.0200   27.4180 C   0  0  0  0  0  0  0  0  0  0  0  0
    4.5230   -4.2310   28.2260 C   0  0  0  0  0  0  0  0  0  0  0  0
    3.3900   -3.6070   27.7590 C   0  0  0  0  0  0  0  0  0  0  0  0
    4.0670   -4.8050   29.4960 C   0  0  0  0  0  0  0  0  0  0  0  0
    5.5920   -3.1590   28.3790 C   0  0  0  0  0  0  0  0  0  0  0  0
    5.4480   -2.1430   29.6570 C   0  0  0  0  0  0  0  0  0  0  0  0
    6.5330   -1.1070   29.8200 C   0  0  0  0  0  0  0  0  0  0  0  0
    6.4750   -0.1290   30.9640 C   0  0  0  0  0  0  0  0  0  0  0  0
    7.6360    0.1430   31.6540 F   0  0  0  0  0  0  0  0  0  0  0  0
    6.1220    1.0700   30.3830 F   0  0  0  0  0  0  0  0  0  0  0  0
    5.4530   -0.4440   31.8250 F   0  0  0  0  0  0  0  0  0  0  0  0
    7.3590   -1.3010   28.8510 C   0  0  0  0  0  0  0  0  0  0  0  0
    6.6790   -2.2890   28.3360 C   0  0  0  0  0  0  0  0  0  0  0  0
    6.6750   -3.0940   27.3760 C   0  0  0  0  0  0  0  0  0  0  0  0
    7.0090   -3.0360   23.5600 C   0  0  0  0  0  0  0  0  0  0  0  0
    7.6680   -3.3570   22.2520 C   0  0  0  0  0  0  0  0  0  0  0  0
  1  2  1  0
  2  3  2  0
  2  4  1  0
  4  5  1  0
  5  6  1  0
  6  7  1  0
  7  8  1  0
  8  9  2  0
  8 10  1  0
 10 11  1  0
 11 12  1  0
 12 13  1  0
 12 14  1  0
 12 15  1  0
 15 16  1  0
 16 17  2  0
 17 18  1  0
 18 19  1  0
 18 20  1  0
 18 21  1  0
 17 22  1  0
 22 23  2  0
 10 24  1  0
 15 24  2  0
 23 24  1  0
  7 25  1  0
  4 26  1  0
 25 26  1  0
M  END
