piperidine-amides-31040-covalent
     RDKit          3D

 28 31  0  0  0  0  0  0  0  0999 V2000
    7.0730   -3.3530   19.3570 C   0  0  0  0  0  0  0  0  0  0  0  0
    6.3990   -4.2120   20.3270 C   0  0  0  0  0  0  0  0  0  0  0  0
    5.3690   -4.8140   19.9760 O   0  0  0  0  0  0  0  0  0  0  0  0
    6.9170   -4.4220   21.6180 N   0  0  0  0  0  0  0  0  0  0  0  0
    6.6550   -5.6260   22.3590 C   0  0  0  0  0  0  0  0  0  0  0  0
    5.8100   -5.1990   23.5300 C   0  0  0  0  0  0  0  0  0  0  0  0
    6.3760   -4.0240   24.2840 C   0  0  0  0  0  0  0  0  0  0  0  0
    5.4520   -3.6150   25.3740 C   0  0  0  0  0  0  0  0  0  0  0  0
    4.5300   -2.7780   25.1570 O   0  0  0  0  0  0  0  0  0  0  0  0
    5.5540   -4.1320   26.6860 N   0  0  0  0  0  0  0  0  0  0  0  0
    6.9060   -4.3370   27.0760 C   0  0  0  0  0  0  0  0  0  0  0  0
    7.0520   -5.4750   27.9760 C   0  0  0  0  0  0  0  0  0  0  0  0
    6.1800   -5.3010   29.1170 C   0  0  0  0  0  0  0  0  0  0  0  0
    4.8220   -4.8400   28.6540 C   0  0  1  0  0  0  0  0  0  0  0  0
    3.9670   -4.5440   29.7650 N   0  0  0  0  0  0  0  0  0  0  0  0
    2.6210   -4.5790   29.2050 C   0  0  0  0  0  0  0  0  0  0  0  0
    1.6700   -4.5590   30.1430 N   0  0  0  0  0  0  0  0  0  0  0  0
    2.0330   -4.5000   31.4280 C   0  0  0  0  0  0  0  0  0  0  0  0
    1.0300   -3.9230   32.1870 C   0  0  0  0  0  0  0  0  0  0  0  0
    1.0180   -3.6860   33.5170 C   0  0  0  0  0  0  0  0  0  0  0  0
    2.2200   -4.0980   34.2100 C   0  0  0  0  0  0  0  0  0  0  0  0
    3.3170   -4.7310   33.3680 C   0  0  0  0  0  0  0  0  0  0  0  0
    3.4290   -5.0460   31.8530 C   0  0  0  0  0  0  0  0  0  0  0  0
    3.9080   -5.4410   30.8190 C   0  0  0  0  0  0  0  0  0  0  0  0
    4.3280   -6.6160   30.7490 O   0  0  0  0  0  0  0  0  0  0  0  0
    4.8140   -3.7190   27.8290 C   0  0  0  0  0  0  0  0  0  0  0  0
    6.7420   -2.8590   23.3760 C   0  0  0  0  0  0  0  0  0  0  0  0
    7.6540   -3.3810   22.2750 C   0  0  0  0  0  0  0  0  0  0  0  0
  1  2  1  0
  2  3  2  0
  2  4  1  0
  4  5  1  0
  5  6  1  0
  6  7  1  0
  7  8  1  0
  8  9  2  0
  8 10  1  0
 10 11  1  0
 11 12  1  0
 12 13  1  0
 13 14  1  0
 14 15  1  1
 15 16  1  0
 16 17  2  0
 17 18  1  0
 18 19  2  0
 19 20  1  0
 20 21  2  0
 21 22  1  0
 18 23  1  0
 22 23  2  0
 15 24  1  0
 23 24  1  0
 24 25  2  0
 10 26  1  0
 14 26  1  0
  7 27  1  0
  4 28  1  0
 27 28  1  0
M  END
