piperidine-amides-35615-covalent
     RDKit          3D

 36 40  0  0  0  0  0  0  0  0999 V2000
    7.0430   -3.3830   19.3780 C   0  0  0  0  0  0  0  0  0  0  0  0
    6.3840   -4.2460   20.3840 C   0  0  0  0  0  0  0  0  0  0  0  0
    5.3970   -4.8750   19.9960 O   0  0  0  0  0  0  0  0  0  0  0  0
    6.9150   -4.3660   21.6790 N   0  0  0  0  0  0  0  0  0  0  0  0
    6.6410   -5.5540   22.4590 C   0  0  0  0  0  0  0  0  0  0  0  0
    5.8630   -5.1800   23.6980 C   0  0  0  0  0  0  0  0  0  0  0  0
    5.8610   -3.6620   23.8030 C   0  0  0  0  0  0  0  0  0  0  0  0
    5.0770   -3.2460   24.9900 C   0  0  0  0  0  0  0  0  0  0  0  0
    3.8850   -2.9690   24.8360 O   0  0  0  0  0  0  0  0  0  0  0  0
    5.6050   -3.1380   26.2760 N   0  0  0  0  0  0  0  0  0  0  0  0
    5.8510   -4.3620   27.0480 C   0  0  0  0  0  0  0  0  0  0  0  0
    4.5510   -5.1200   27.2240 C   0  0  0  0  0  0  0  0  0  0  0  0
    4.2390   -6.0470   26.2480 C   0  0  0  0  0  0  0  0  0  0  0  0
    3.1510   -6.7730   26.2730 C   0  0  0  0  0  0  0  0  0  0  0  0
    2.7550   -7.9460   25.0300 Cl  0  0  0  0  0  0  0  0  0  0  0  0
    2.3760   -6.5520   27.3020 C   0  0  0  0  0  0  0  0  0  0  0  0
    2.5000   -5.6200   28.4620 C   0  0  0  0  0  0  0  0  0  0  0  0
    1.2640   -5.5650   29.7020 Cl  0  0  0  0  0  0  0  0  0  0  0  0
    3.7690   -4.7400   28.4770 C   0  0  0  0  0  0  0  0  0  0  0  0
    5.5000   -1.8580   26.9840 C   0  0  0  0  0  0  0  0  0  0  0  0
    5.3960   -1.9620   28.2950 N   0  0  0  0  0  0  0  0  0  0  0  0
    5.3110   -0.7540   29.1110 C   0  0  0  0  0  0  0  0  0  0  0  0
    5.3350    0.4540   28.5300 N   0  0  0  0  0  0  0  0  0  0  0  0
    5.4390    0.5160   27.1180 C   0  0  0  0  0  0  0  0  0  0  0  0
    5.5340   -0.5970   26.0930 C   0  0  0  0  0  0  0  0  0  0  0  0
    5.6250   -0.4300   24.6020 C   0  0  0  0  0  0  0  0  0  0  0  0
    4.3380   -0.5090   23.7900 C   0  0  0  0  0  0  0  0  0  0  0  0
    4.3600   -0.3510   22.4190 C   0  0  0  0  0  0  0  0  0  0  0  0
    5.6330   -0.1000   21.6980 C   0  0  0  0  0  0  0  0  0  0  0  0
    6.8620   -0.0240   22.4640 C   0  0  0  0  0  0  0  0  0  0  0  0
    6.8290   -0.2030   23.9770 C   0  0  0  0  0  0  0  0  0  0  0  0
    7.7960    0.1940   21.6650 O   0  0  0  0  0  0  0  0  0  0  0  0
    7.2570    0.2060   20.2920 C   0  0  0  0  0  0  0  0  0  0  0  0
    5.8290    0.0790   20.3710 O   0  0  0  0  0  0  0  0  0  0  0  0
    7.1810   -3.0740   23.6800 C   0  0  0  0  0  0  0  0  0  0  0  0
    7.6980   -3.3350   22.3100 C   0  0  0  0  0  0  0  0  0  0  0  0
  1  2  1  0
  2  3  2  0
  2  4  1  0
  4  5  1  0
  5  6  1  0
  6  7  1  0
  7  8  1  0
  8  9  2  0
  8 10  1  0
 10 11  1  0
 11 12  1  0
 12 13  2  0
 13 14  1  0
 14 15  1  0
 14 16  2  0
 16 17  1  0
 17 18  1  0
 12 19  1  0
 17 19  2  0
 10 20  1  0
 20 21  2  0
 21 22  1  0
 22 23  2  0
 23 24  1  0
 20 25  1  0
 24 25  2  0
 25 26  1  0
 26 27  2  0
 27 28  1  0
 28 29  2  0
 29 30  1  0
 26 31  1  0
 30 31  2  0
 30 32  1  0
 32 33  1  0
 29 34  1  0
 33 34  1  0
  7 35  1  0
  4 36  1  0
 35 36  1  0
M  END
