piperidine-amides-31203-covalent
     RDKit          3D

 27 28  0  0  0  0  0  0  0  0999 V2000
    7.0740   -3.3190   19.2900 C   0  0  0  0  0  0  0  0  0  0  0  0
    6.3940   -4.1370   20.2990 C   0  0  0  0  0  0  0  0  0  0  0  0
    5.3710   -4.7630   19.9650 O   0  0  0  0  0  0  0  0  0  0  0  0
    6.8920   -4.2740   21.6100 N   0  0  0  0  0  0  0  0  0  0  0  0
    7.6440   -3.2370   22.2650 C   0  0  0  0  0  0  0  0  0  0  0  0
    6.7320   -2.7020   23.3480 C   0  0  0  0  0  0  0  0  0  0  0  0
    6.2150   -3.7490   24.3120 C   0  0  0  0  0  0  0  0  0  0  0  0
    5.2360   -3.1660   25.2820 C   0  0  0  0  0  0  0  0  0  0  0  0
    4.2900   -2.4600   24.8450 O   0  0  0  0  0  0  0  0  0  0  0  0
    5.2730   -3.3390   26.6930 N   0  0  0  0  0  0  0  0  0  0  0  0
    6.4930   -3.1870   27.4160 C   0  0  0  0  0  0  0  0  0  0  0  0
    6.6120   -4.3780   28.3000 C   0  0  0  0  0  0  0  0  0  0  0  0
    5.4630   -4.5880   29.1540 C   0  0  0  0  0  0  0  0  0  0  0  0
    5.4920   -3.5750   29.8660 O   0  0  0  0  0  0  0  0  0  0  0  0
    5.5850   -5.9870   29.7250 C   0  0  0  0  0  0  0  0  0  0  0  0
    4.3940   -6.7320   29.4470 N   0  0  0  0  0  0  0  0  0  0  0  0
    3.7160   -6.9110   30.7330 C   0  0  0  0  0  0  0  0  0  0  0  0
    2.8720   -6.0140   31.1060 O   0  0  0  0  0  0  0  0  0  0  0  0
    3.9830   -8.0280   31.4970 O   0  0  0  0  0  0  0  0  0  0  0  0
    4.1530   -7.8920   32.9110 C   0  0  0  0  0  0  0  0  0  0  0  0
    5.5030   -7.6630   33.0230 C   0  0  0  0  0  0  0  0  0  0  0  0
    5.0530   -8.7970   33.7400 C   0  0  0  0  0  0  0  0  0  0  0  0
    4.0240   -6.4700   33.4550 C   0  0  0  0  0  0  0  0  0  0  0  0
    4.2720   -4.4830   28.4870 C   0  0  0  0  0  0  0  0  0  0  0  0
    4.0600   -3.4040   27.4530 C   0  0  0  0  0  0  0  0  0  0  0  0
    5.6240   -4.9260   23.5770 C   0  0  0  0  0  0  0  0  0  0  0  0
    6.3900   -5.3570   22.3790 C   0  0  0  0  0  0  0  0  0  0  0  0
  1  2  1  0
  2  3  2  0
  2  4  1  0
  4  5  1  0
  5  6  1  0
  6  7  1  0
  7  8  1  0
  8  9  2  0
  8 10  1  0
 10 11  1  0
 11 12  1  0
 12 13  1  0
 13 14  1  0
 13 15  1  0
 15 16  1  0
 16 17  1  0
 17 18  2  0
 17 19  1  0
 20 19  1  0
 20 21  1  0
 20 22  1  0
 20 23  1  0
 13 24  1  0
 10 25  1  0
 24 25  1  0
  7 26  1  0
  4 27  1  0
 26 27  1  0
M  END
