piperidine-amides-15032-covalent
     RDKit          3D

 20 21  0  0  0  0  0  0  0  0999 V2000
    7.0530   -3.3520   19.3360 C   0  0  0  0  0  0  0  0  0  0  0  0
    6.3830   -4.1900   20.3320 C   0  0  0  0  0  0  0  0  0  0  0  0
    5.3700   -4.8100   19.9730 O   0  0  0  0  0  0  0  0  0  0  0  0
    6.9180   -4.3210   21.6460 N   0  0  0  0  0  0  0  0  0  0  0  0
    7.6350   -3.2150   22.2220 C   0  0  0  0  0  0  0  0  0  0  0  0
    6.8470   -2.6650   23.3690 C   0  0  0  0  0  0  0  0  0  0  0  0
    6.5710   -3.8250   24.2840 C   0  0  0  0  0  0  0  0  0  0  0  0
    5.7700   -3.3440   25.4700 C   0  0  0  0  0  0  0  0  0  0  0  0
    4.5520   -3.2440   25.3450 O   0  0  0  0  0  0  0  0  0  0  0  0
    6.4550   -3.0550   26.6440 N   0  0  0  0  0  0  0  0  0  0  0  0
    6.4540   -1.7740   27.2840 C   0  0  0  0  0  0  0  0  0  0  0  0
    6.9890   -1.5840   28.5440 C   0  0  0  0  0  0  0  0  0  0  0  0
    6.9830   -0.3600   29.1680 C   0  0  0  0  0  0  0  0  0  0  0  0
    6.4510    0.8230   28.6320 C   0  0  0  0  0  0  0  0  0  0  0  0
    5.8470    0.7030   27.2500 C   0  0  0  0  0  0  0  0  0  0  0  0
    5.1010    2.2790   26.4490 Br  0  0  0  0  0  0  0  0  0  0  0  0
    5.8640   -0.6780   26.5670 C   0  0  0  0  0  0  0  0  0  0  0  0
    5.3050   -0.7720   25.3090 F   0  0  0  0  0  0  0  0  0  0  0  0
    5.7990   -4.9440   23.6630 C   0  0  0  0  0  0  0  0  0  0  0  0
    6.4680   -5.4330   22.4070 C   0  0  0  0  0  0  0  0  0  0  0  0
  1  2  1  0
  2  3  2  0
  2  4  1  0
  4  5  1  0
  5  6  1  0
  6  7  1  0
  7  8  1  0
  8  9  2  0
  8 10  1  0
 10 11  1  0
 11 12  2  0
 12 13  1  0
 13 14  2  0
 14 15  1  0
 15 16  1  0
 11 17  1  0
 15 17  2  0
 17 18  1  0
  7 19  1  0
  4 20  1  0
 19 20  1  0
M  END
