piperidine-amides-145-covalent
     RDKit          3D

 21 23  0  0  0  0  0  0  0  0999 V2000
    7.1930   -3.2830   19.3200 C   0  0  0  0  0  0  0  0  0  0  0  0
    6.4410   -4.0610   20.2740 C   0  0  0  0  0  0  0  0  0  0  0  0
    5.3410   -4.5820   19.9040 O   0  0  0  0  0  0  0  0  0  0  0  0
    6.9210   -4.3040   21.5750 N   0  0  0  0  0  0  0  0  0  0  0  0
    7.7430   -3.2550   22.2200 C   0  0  0  0  0  0  0  0  0  0  0  0
    6.7200   -2.7370   23.2970 C   0  0  0  0  0  0  0  0  0  0  0  0
    6.3850   -3.9610   24.1170 C   0  0  0  0  0  0  0  0  0  0  0  0
    5.6980   -3.6070   25.5020 C   0  0  0  0  0  0  0  0  0  0  0  0
    4.9080   -4.4760   25.8210 O   0  0  0  0  0  0  0  0  0  0  0  0
    6.1300   -2.4990   25.9260 N   0  0  0  0  0  0  0  0  0  0  0  0
    6.5090   -1.2980   26.4170 C   0  0  0  0  0  0  0  0  0  0  0  0
    6.0440   -0.0320   26.6750 C   0  0  2  0  0  0  0  0  0  0  0  0
    6.2030    0.3900   28.0330 C   0  0  0  0  0  0  0  0  0  0  0  0
    4.9730    0.4020   28.8770 C   0  0  0  0  0  0  0  0  0  0  0  0
    4.1440    0.6000   27.6090 C   0  0  2  0  0  0  0  0  0  0  0  0
    3.1150   -0.1990   28.1250 C   0  0  0  0  0  0  0  0  0  0  0  0
    1.7810   -0.0800   27.6750 C   0  0  0  0  0  0  0  0  0  0  0  0
    2.1710    0.5470   29.0130 C   0  0  0  0  0  0  0  0  0  0  0  0
    4.6730    0.0980   26.4180 O   0  0  0  0  0  0  0  0  0  0  0  0
    5.7000   -5.0140   23.3060 C   0  0  0  0  0  0  0  0  0  0  0  0
    6.5180   -5.4580   22.3050 C   0  0  0  0  0  0  0  0  0  0  0  0
  1  2  1  0
  2  3  2  0
  2  4  1  0
  4  5  1  0
  5  6  1  0
  6  7  1  0
  7  8  1  0
  8  9  2  0
  8 10  1  0
 10 11  1  0
 12 11  1  1
 12 13  1  0
 13 14  1  0
 14 15  1  0
 15 16  1  1
 16 17  1  0
 16 18  1  0
 17 18  1  0
 12 19  1  0
 15 19  1  0
  7 20  1  0
  4 21  1  0
 20 21  1  0
M  END
