piperidine-amides-25438-covalent
     RDKit          3D

 22 23  0  0  0  0  0  0  0  0999 V2000
    7.0850   -3.2720   19.1950 C   0  0  0  0  0  0  0  0  0  0  0  0
    6.3290   -4.0260   20.2330 C   0  0  0  0  0  0  0  0  0  0  0  0
    5.2810   -4.5560   19.8830 O   0  0  0  0  0  0  0  0  0  0  0  0
    6.8340   -4.1490   21.5320 N   0  0  0  0  0  0  0  0  0  0  0  0
    6.5480   -5.3100   22.3380 C   0  0  0  0  0  0  0  0  0  0  0  0
    5.8240   -4.8840   23.5860 C   0  0  0  0  0  0  0  0  0  0  0  0
    6.5670   -3.7100   24.2270 C   0  0  0  0  0  0  0  0  0  0  0  0
    5.7810   -3.2740   25.3970 C   0  0  0  0  0  0  0  0  0  0  0  0
    4.5440   -3.2570   25.3160 O   0  0  0  0  0  0  0  0  0  0  0  0
    6.4020   -2.8760   26.6030 N   0  0  0  0  0  0  0  0  0  0  0  0
    6.3150   -3.7840   27.7310 C   0  0  0  0  0  0  0  0  0  0  0  0
    6.7470   -1.4980   26.7890 C   0  0  0  0  0  0  0  0  0  0  0  0
    5.7660   -0.8030   27.4290 C   0  0  0  0  0  0  0  0  0  0  0  0
    5.5610   -1.2170   28.6730 C   0  0  0  0  0  0  0  0  0  0  0  0
    4.6520   -0.6550   29.4350 C   0  0  0  0  0  0  0  0  0  0  0  0
    3.7690    0.4700   29.0380 C   0  0  0  0  0  0  0  0  0  0  0  0
    2.5490    1.2510   30.0070 Cl  0  0  0  0  0  0  0  0  0  0  0  0
    4.0620    0.8940   27.6000 C   0  0  0  0  0  0  0  0  0  0  0  0
    3.0810    2.2200   27.0150 Cl  0  0  0  0  0  0  0  0  0  0  0  0
    5.1110    0.2950   26.6170 C   0  0  0  0  0  0  0  0  0  0  0  0
    6.9210   -2.6130   23.3190 C   0  0  0  0  0  0  0  0  0  0  0  0
    7.6150   -3.0740   22.0940 C   0  0  0  0  0  0  0  0  0  0  0  0
  1  2  1  0
  2  3  2  0
  2  4  1  0
  4  5  1  0
  5  6  1  0
  6  7  1  0
  7  8  1  0
  8  9  2  0
  8 10  1  0
 10 11  1  0
 10 12  1  0
 12 13  1  0
 13 14  2  0
 14 15  1  0
 15 16  2  0
 16 17  1  0
 16 18  1  0
 18 19  1  0
 13 20  1  0
 18 20  2  0
  7 21  1  0
  4 22  1  0
 21 22  1  0
M  END
