piperidine-amides-28870-covalent
     RDKit          3D

 25 27  0  0  0  0  0  0  0  0999 V2000
    7.0560   -3.3720   19.3580 C   0  0  0  0  0  0  0  0  0  0  0  0
    6.3730   -4.2100   20.3330 C   0  0  0  0  0  0  0  0  0  0  0  0
    5.3400   -4.7960   19.9690 O   0  0  0  0  0  0  0  0  0  0  0  0
    6.9140   -4.3900   21.6300 N   0  0  0  0  0  0  0  0  0  0  0  0
    6.4360   -5.5010   22.3830 C   0  0  0  0  0  0  0  0  0  0  0  0
    5.5400   -4.9610   23.4520 C   0  0  0  0  0  0  0  0  0  0  0  0
    6.4230   -4.1520   24.3650 C   0  0  0  0  0  0  0  0  0  0  0  0
    5.6020   -3.5730   25.4990 C   0  0  0  0  0  0  0  0  0  0  0  0
    4.5780   -3.0230   25.1110 O   0  0  0  0  0  0  0  0  0  0  0  0
    5.9540   -3.6380   26.8700 N   0  0  0  0  0  0  0  0  0  0  0  0
    6.3820   -4.8050   27.5280 C   0  0  0  0  0  0  0  0  0  0  0  0
    5.5850   -5.0110   28.5820 C   0  0  0  0  0  0  0  0  0  0  0  0
    4.6170   -4.0530   28.5590 C   0  0  1  0  0  0  0  0  0  0  0  0
    3.6480   -4.7180   27.8410 O   0  0  0  0  0  0  0  0  0  0  0  0
    4.2670   -3.5880   29.8140 C   0  0  0  0  0  0  0  0  0  0  0  0
    3.8680   -4.8110   30.6130 C   0  0  0  0  0  0  0  0  0  0  0  0
    2.5080   -4.7830   31.3520 C   0  0  0  0  0  0  0  0  0  0  0  0
    2.0340   -5.9420   32.1670 C   0  0  0  0  0  0  0  0  0  0  0  0
    2.9250   -7.1580   32.2470 C   0  0  0  0  0  0  0  0  0  0  0  0
    2.4990   -8.5950   33.1650 Cl  0  0  0  0  0  0  0  0  0  0  0  0
    4.2580   -7.0900   31.4750 C   0  0  0  0  0  0  0  0  0  0  0  0
    4.7320   -6.0510   30.7220 C   0  0  0  0  0  0  0  0  0  0  0  0
    5.0390   -2.9780   27.7720 C   0  0  0  0  0  0  0  0  0  0  0  0
    7.1180   -3.0210   23.6650 C   0  0  0  0  0  0  0  0  0  0  0  0
    7.6550   -3.3440   22.2930 C   0  0  0  0  0  0  0  0  0  0  0  0
  1  2  1  0
  2  3  2  0
  2  4  1  0
  4  5  1  0
  5  6  1  0
  6  7  1  0
  7  8  1  0
  8  9  2  0
  8 10  1  0
 10 11  1  0
 11 12  1  0
 12 13  1  0
 13 14  1  6
 13 15  1  0
 15 16  1  0
 16 17  2  0
 17 18  1  0
 18 19  2  0
 19 20  1  0
 19 21  1  0
 16 22  1  0
 21 22  2  0
 10 23  1  0
 13 23  1  0
  7 24  1  0
  4 25  1  0
 24 25  1  0
M  END
