piperidine-amides-25029-covalent
     RDKit          3D

 24 25  0  0  0  0  0  0  0  0999 V2000
    7.0780   -3.2760   19.2270 C   0  0  0  0  0  0  0  0  0  0  0  0
    6.3460   -4.0490   20.2680 C   0  0  0  0  0  0  0  0  0  0  0  0
    5.3140   -4.6130   19.9110 O   0  0  0  0  0  0  0  0  0  0  0  0
    6.8550   -4.1480   21.5670 N   0  0  0  0  0  0  0  0  0  0  0  0
    7.7970   -3.1840   22.1030 C   0  0  0  0  0  0  0  0  0  0  0  0
    7.4180   -2.7580   23.4920 C   0  0  0  0  0  0  0  0  0  0  0  0
    6.1790   -3.5260   23.9360 C   0  0  0  0  0  0  0  0  0  0  0  0
    5.8660   -3.1320   25.3250 C   0  0  0  0  0  0  0  0  0  0  0  0
    4.7020   -2.7860   25.5730 O   0  0  0  0  0  0  0  0  0  0  0  0
    6.8460   -3.1230   26.3520 N   0  0  0  0  0  0  0  0  0  0  0  0
    7.3900   -1.8450   26.7410 C   0  0  0  0  0  0  0  0  0  0  0  0
    7.0150   -4.2620   27.2000 C   0  0  0  0  0  0  0  0  0  0  0  0
    5.8890   -5.0490   27.2240 C   0  0  0  0  0  0  0  0  0  0  0  0
    5.9880   -6.2950   27.7350 C   0  0  0  0  0  0  0  0  0  0  0  0
    5.5920   -6.4610   29.0460 C   0  0  0  0  0  0  0  0  0  0  0  0
    4.3140   -6.1150   29.1900 N   0  0  0  0  0  0  0  0  0  0  0  0
    3.3200   -7.0060   28.5500 C   0  0  0  0  0  0  0  0  0  0  0  0
    2.4490   -7.6270   29.5970 C   0  0  2  0  0  0  0  0  0  0  0  0
    3.4730   -7.8960   30.6600 C   0  0  0  0  0  0  0  0  0  0  0  0
    1.8530   -8.8160   29.2950 O   0  0  0  0  0  0  0  0  0  0  0  0
    4.1580   -4.6990   28.8790 C   0  0  0  0  0  0  0  0  0  0  0  0
    5.1320   -4.1380   27.9170 C   0  0  0  0  0  0  0  0  0  0  0  0
    6.2050   -4.9860   23.6840 C   0  0  0  0  0  0  0  0  0  0  0  0
    6.6560   -5.3680   22.3240 C   0  0  0  0  0  0  0  0  0  0  0  0
  1  2  1  0
  2  3  2  0
  2  4  1  0
  4  5  1  0
  5  6  1  0
  6  7  1  0
  7  8  1  0
  8  9  2  0
  8 10  1  0
 10 11  1  0
 10 12  1  0
 12 13  1  0
 13 14  1  0
 14 15  1  0
 15 16  1  0
 16 17  1  0
 17 18  1  0
 18 19  1  1
 18 20  1  0
 16 21  1  0
 13 22  1  0
 21 22  1  0
  7 23  1  0
  4 24  1  0
 23 24  1  0
M  END
