piperidine-amides-7396-covalent
     RDKit          3D

 19 20  0  0  0  0  0  0  0  0999 V2000
    7.1130   -3.2650   19.1780 C   0  0  0  0  0  0  0  0  0  0  0  0
    6.3590   -4.0020   20.1980 C   0  0  0  0  0  0  0  0  0  0  0  0
    5.2540   -4.4850   19.8520 O   0  0  0  0  0  0  0  0  0  0  0  0
    6.8960   -4.1930   21.4700 N   0  0  0  0  0  0  0  0  0  0  0  0
    7.7080   -3.1850   22.1050 C   0  0  0  0  0  0  0  0  0  0  0  0
    7.0000   -2.7310   23.3410 C   0  0  0  0  0  0  0  0  0  0  0  0
    6.5680   -3.9020   24.1690 C   0  0  0  0  0  0  0  0  0  0  0  0
    5.8350   -3.4430   25.3620 C   0  0  0  0  0  0  0  0  0  0  0  0
    4.6180   -3.1790   25.2410 O   0  0  0  0  0  0  0  0  0  0  0  0
    6.4450   -3.2890   26.6140 N   0  0  0  0  0  0  0  0  0  0  0  0
    5.7950   -3.7400   27.8100 C   0  0  1  0  0  0  0  0  0  0  0  0
    6.7140   -4.6020   28.6670 C   0  0  0  0  0  0  0  0  0  0  0  0
    5.2420   -2.5810   28.5480 C   0  0  0  0  0  0  0  0  0  0  0  0
    4.3350   -2.7820   29.5650 C   0  0  0  0  0  0  0  0  0  0  0  0
    4.4370   -1.7440   30.4380 C   0  0  0  0  0  0  0  0  0  0  0  0
    5.5410   -1.0370   30.0420 C   0  0  0  0  0  0  0  0  0  0  0  0
    6.1920   -1.6360   28.9670 C   0  0  0  0  0  0  0  0  0  0  0  0
    5.6680   -4.8500   23.3790 C   0  0  0  0  0  0  0  0  0  0  0  0
    6.5060   -5.3600   22.2130 C   0  0  0  0  0  0  0  0  0  0  0  0
  1  2  1  0
  2  3  2  0
  2  4  1  0
  4  5  1  0
  5  6  1  0
  6  7  1  0
  7  8  1  0
  8  9  2  0
  8 10  1  0
 10 11  1  0
 11 12  1  1
 11 13  1  0
 13 14  1  0
 14 15  1  0
 15 16  1  0
 13 17  1  0
 16 17  1  0
  7 18  1  0
  4 19  1  0
 18 19  1  0
M  END
