piperidine-amides-2637-covalent
     RDKit          3D

 25 26  0  0  0  0  0  0  0  0999 V2000
    7.0460   -3.2800   19.3050 C   0  0  0  0  0  0  0  0  0  0  0  0
    6.3400   -4.0990   20.3280 C   0  0  0  0  0  0  0  0  0  0  0  0
    5.3490   -4.7210   19.9440 O   0  0  0  0  0  0  0  0  0  0  0  0
    6.8140   -4.1780   21.6510 N   0  0  0  0  0  0  0  0  0  0  0  0
    7.6830   -3.1630   22.2010 C   0  0  0  0  0  0  0  0  0  0  0  0
    7.3870   -2.9720   23.6610 C   0  0  0  0  0  0  0  0  0  0  0  0
    6.0680   -3.6710   23.9770 C   0  0  0  0  0  0  0  0  0  0  0  0
    5.6010   -3.2840   25.3360 C   0  0  0  0  0  0  0  0  0  0  0  0
    4.3860   -3.1400   25.5140 O   0  0  0  0  0  0  0  0  0  0  0  0
    6.4880   -3.0720   26.4170 N   0  0  0  0  0  0  0  0  0  0  0  0
    6.3020   -3.7830   27.6810 C   0  0  1  0  0  0  0  0  0  0  0  0
    5.4450   -2.9250   28.5840 C   0  0  0  0  0  0  0  0  0  0  0  0
    5.3490   -1.5360   28.7020 C   0  0  0  0  0  0  0  0  0  0  0  0
    4.5510   -0.8200   29.5510 C   0  0  0  0  0  0  0  0  0  0  0  0
    3.7180   -1.4270   30.4220 C   0  0  0  0  0  0  0  0  0  0  0  0
    2.9140   -0.7560   31.2830 O   0  0  0  0  0  0  0  0  0  0  0  0
    3.4640    0.1690   32.1050 C   0  0  0  0  0  0  0  0  0  0  0  0
    3.5940   -2.8350   30.5330 C   0  0  0  0  0  0  0  0  0  0  0  0
    2.7570   -3.5390   31.4060 F   0  0  0  0  0  0  0  0  0  0  0  0
    4.4710   -3.5960   29.6000 C   0  0  0  0  0  0  0  0  0  0  0  0
    5.5720   -5.0850   27.6230 C   0  0  0  0  0  0  0  0  0  0  0  0
    5.9580   -5.7980   28.7440 F   0  0  0  0  0  0  0  0  0  0  0  0
    5.8510   -5.7480   26.4630 F   0  0  0  0  0  0  0  0  0  0  0  0
    6.1310   -5.1550   23.7590 C   0  0  0  0  0  0  0  0  0  0  0  0
    6.6570   -5.4400   22.3530 C   0  0  0  0  0  0  0  0  0  0  0  0
  1  2  1  0
  2  3  2  0
  2  4  1  0
  4  5  1  0
  5  6  1  0
  6  7  1  0
  7  8  1  0
  8  9  2  0
  8 10  1  0
 11 10  1  6
 11 12  1  0
 12 13  2  0
 13 14  1  0
 14 15  2  0
 15 16  1  0
 16 17  1  0
 15 18  1  0
 18 19  1  0
 12 20  1  0
 18 20  2  0
 11 21  1  0
 21 22  1  0
 21 23  1  0
  7 24  1  0
  4 25  1  0
 24 25  1  0
M  END
