piperidine-amides-29211-covalent
     RDKit          3D

 25 26  0  0  0  0  0  0  0  0999 V2000
    7.0440   -3.3670   19.4180 C   0  0  0  0  0  0  0  0  0  0  0  0
    6.3620   -4.1960   20.4090 C   0  0  0  0  0  0  0  0  0  0  0  0
    5.4200   -4.9070   20.0040 O   0  0  0  0  0  0  0  0  0  0  0  0
    6.7920   -4.2130   21.7720 N   0  0  0  0  0  0  0  0  0  0  0  0
    6.6600   -5.4350   22.5160 C   0  0  0  0  0  0  0  0  0  0  0  0
    6.0960   -5.1230   23.8720 C   0  0  0  0  0  0  0  0  0  0  0  0
    6.0900   -3.6160   23.9590 C   0  0  0  0  0  0  0  0  0  0  0  0
    5.5740   -3.1130   25.2930 C   0  0  0  0  0  0  0  0  0  0  0  0
    4.3810   -2.8240   25.2760 O   0  0  0  0  0  0  0  0  0  0  0  0
    6.3580   -2.9940   26.4500 N   0  0  0  0  0  0  0  0  0  0  0  0
    6.2390   -4.0630   27.3960 C   0  0  0  0  0  0  0  0  0  0  0  0
    6.3640   -1.7010   27.0900 C   0  0  0  0  0  0  0  0  0  0  0  0
    6.9390   -1.5990   28.3540 C   0  0  0  0  0  0  0  0  0  0  0  0
    7.0160   -0.4250   29.1370 C   0  0  0  0  0  0  0  0  0  0  0  0
    6.4280    0.8620   28.5870 C   0  0  0  0  0  0  0  0  0  0  0  0
    6.3680    2.4370   29.3340 S   0  0  0  0  0  0  0  0  0  0  0  0
    6.8320    2.3940   30.7700 O   0  0  0  0  0  0  0  0  0  0  0  0
    4.9410    2.8800   29.3630 O   0  0  0  0  0  0  0  0  0  0  0  0
    7.3250    3.6970   28.5850 N   0  0  0  0  0  0  0  0  0  0  0  0
    8.5330    3.9320   29.0980 C   0  0  0  0  0  0  0  0  0  0  0  0
    7.3570    3.2520   27.2240 C   0  0  0  0  0  0  0  0  0  0  0  0
    5.8390    0.7230   27.2560 C   0  0  0  0  0  0  0  0  0  0  0  0
    5.8150   -0.5950   26.5020 C   0  0  0  0  0  0  0  0  0  0  0  0
    7.4790   -3.1050   23.6740 C   0  0  0  0  0  0  0  0  0  0  0  0
    7.6560   -3.1570   22.2950 C   0  0  0  0  0  0  0  0  0  0  0  0
  1  2  1  0
  2  3  2  0
  2  4  1  0
  4  5  1  0
  5  6  1  0
  6  7  1  0
  7  8  1  0
  8  9  2  0
  8 10  1  0
 10 11  1  0
 10 12  1  0
 12 13  2  0
 13 14  1  0
 14 15  2  0
 15 16  1  0
 16 17  2  0
 16 18  2  0
 16 19  1  0
 19 20  1  0
 19 21  1  0
 15 22  1  0
 12 23  1  0
 22 23  2  0
  7 24  1  0
  4 25  1  0
 24 25  1  0
M  END
