piperidine-amides-12774-covalent
     RDKit          3D

 22 23  0  0  0  0  0  0  0  0999 V2000
    7.1170   -3.3110   19.2530 C   0  0  0  0  0  0  0  0  0  0  0  0
    6.3500   -4.1330   20.2210 C   0  0  0  0  0  0  0  0  0  0  0  0
    5.2160   -4.4700   19.8440 O   0  0  0  0  0  0  0  0  0  0  0  0
    6.8700   -4.5780   21.4500 N   0  0  0  0  0  0  0  0  0  0  0  0
    6.1970   -5.6510   22.0880 C   0  0  0  0  0  0  0  0  0  0  0  0
    5.5170   -5.2330   23.3150 C   0  0  0  0  0  0  0  0  0  0  0  0
    6.1820   -4.1250   24.0390 C   0  0  0  0  0  0  0  0  0  0  0  0
    5.2430   -3.4560   24.9710 C   0  0  0  0  0  0  0  0  0  0  0  0
    4.1660   -4.0000   25.2660 O   0  0  0  0  0  0  0  0  0  0  0  0
    5.5830   -2.2210   25.5130 N   0  0  0  0  0  0  0  0  0  0  0  0
    6.9730   -2.0310   25.8890 C   0  0  0  0  0  0  0  0  0  0  0  0
    7.8330   -1.4520   24.7970 C   0  0  0  0  0  0  0  0  0  0  0  0
    7.3990   -0.4020   23.8860 N   0  0  0  0  0  0  0  0  0  0  0  0
    8.4260   -0.1710   23.1260 N   0  0  0  0  0  0  0  0  0  0  0  0
    9.4940   -0.9990   23.4780 C   0  0  0  0  0  0  0  0  0  0  0  0
   10.6940   -0.9080   22.8090 C   0  0  0  0  0  0  0  0  0  0  0  0
   10.8530   -1.7030   21.7330 F   0  0  0  0  0  0  0  0  0  0  0  0
   11.7950   -1.1280   23.5880 F   0  0  0  0  0  0  0  0  0  0  0  0
   10.9120    0.3820   22.4020 F   0  0  0  0  0  0  0  0  0  0  0  0
    9.1370   -1.7630   24.4620 N   0  0  0  0  0  0  0  0  0  0  0  0
    6.8190   -3.0920   23.1540 C   0  0  0  0  0  0  0  0  0  0  0  0
    7.6320   -3.6730   22.2410 C   0  0  0  0  0  0  0  0  0  0  0  0
  1  2  1  0
  2  3  2  0
  2  4  1  0
  4  5  1  0
  5  6  1  0
  6  7  1  0
  7  8  1  0
  8  9  2  0
  8 10  1  0
 10 11  1  0
 11 12  1  0
 12 13  2  0
 13 14  1  0
 14 15  2  0
 15 16  1  0
 16 17  1  0
 16 18  1  0
 16 19  1  0
 12 20  1  0
 15 20  1  0
  7 21  1  0
  4 22  1  0
 21 22  1  0
M  END
