piperidine-amides-4394-covalent
     RDKit          3D

 26 27  0  0  0  0  0  0  0  0999 V2000
    7.0640   -3.2600   19.1310 C   0  0  0  0  0  0  0  0  0  0  0  0
    6.2610   -3.9650   20.1430 C   0  0  0  0  0  0  0  0  0  0  0  0
    5.1570   -4.4230   19.7990 O   0  0  0  0  0  0  0  0  0  0  0  0
    6.7540   -4.1690   21.4390 N   0  0  0  0  0  0  0  0  0  0  0  0
    7.4120   -3.0590   22.0390 C   0  0  0  0  0  0  0  0  0  0  0  0
    6.7970   -2.6560   23.2840 C   0  0  0  0  0  0  0  0  0  0  0  0
    6.3090   -3.8140   24.0310 C   0  0  0  0  0  0  0  0  0  0  0  0
    5.6670   -3.4070   25.3050 C   0  0  0  0  0  0  0  0  0  0  0  0
    4.4680   -3.0670   25.3580 O   0  0  0  0  0  0  0  0  0  0  0  0
    6.4680   -3.4240   26.4420 N   0  0  0  0  0  0  0  0  0  0  0  0
    7.7920   -3.9080   26.4760 C   0  0  0  0  0  0  0  0  0  0  0  0
    8.3420   -4.8630   25.5320 C   0  0  0  0  0  0  0  0  0  0  0  0
    9.0380   -4.2010   24.2920 C   0  0  0  0  0  0  0  0  0  0  0  0
    9.0370   -2.8010   24.3300 O   0  0  0  0  0  0  0  0  0  0  0  0
   10.3930   -2.4750   24.3310 C   0  0  0  0  0  0  0  0  0  0  0  0
   10.9030   -1.3490   23.3770 C   0  0  0  0  0  0  0  0  0  0  0  0
   12.4190   -1.0430   23.4160 C   0  0  0  0  0  0  0  0  0  0  0  0
   13.1820   -1.9380   24.4240 C   0  0  0  0  0  0  0  0  0  0  0  0
   12.6480   -2.9840   25.2980 C   0  0  0  0  0  0  0  0  0  0  0  0
   13.1680   -3.9450   26.3060 C   0  0  0  0  0  0  0  0  0  0  0  0
   12.0790   -4.6590   26.5350 O   0  0  0  0  0  0  0  0  0  0  0  0
   14.3520   -4.2550   27.0260 O   0  0  0  0  0  0  0  0  0  0  0  0
   14.5100   -4.7920   28.5200 C   0  0  0  0  0  0  0  0  0  0  0  0
   11.2110   -3.2350   25.2290 C   0  0  0  0  0  0  0  0  0  0  0  0
    5.4920   -4.7470   23.2080 C   0  0  0  0  0  0  0  0  0  0  0  0
    6.2890   -5.2940   22.2130 C   0  0  0  0  0  0  0  0  0  0  0  0
  1  2  1  0
  2  3  2  0
  2  4  1  0
  4  5  1  0
  5  6  1  0
  6  7  1  0
  7  8  1  0
  8  9  2  0
  8 10  1  0
 10 11  1  0
 11 12  1  0
 12 13  1  0
 13 14  1  0
 14 15  1  0
 15 16  2  0
 16 17  1  0
 17 18  2  0
 18 19  1  0
 19 20  1  0
 20 21  2  0
 20 22  1  0
 22 23  1  0
 15 24  1  0
 19 24  2  0
  7 25  1  0
  4 26  1  0
 25 26  1  0
M  END
