piperidine-amides-32890-covalent
     RDKit          3D

 29 31  0  0  0  0  0  0  0  0999 V2000
    7.0830   -3.3340   19.2940 C   0  0  0  0  0  0  0  0  0  0  0  0
    6.3910   -4.1880   20.2950 C   0  0  0  0  0  0  0  0  0  0  0  0
    5.3600   -4.7940   19.9660 O   0  0  0  0  0  0  0  0  0  0  0  0
    6.9570   -4.3300   21.5760 N   0  0  0  0  0  0  0  0  0  0  0  0
    6.6530   -5.4350   22.4440 C   0  0  0  0  0  0  0  0  0  0  0  0
    5.7860   -4.8800   23.5790 C   0  0  0  0  0  0  0  0  0  0  0  0
    6.5440   -3.7640   24.2390 C   0  0  0  0  0  0  0  0  0  0  0  0
    5.7570   -3.0880   25.2880 C   0  0  0  0  0  0  0  0  0  0  0  0
    4.7530   -2.4860   24.8950 O   0  0  0  0  0  0  0  0  0  0  0  0
    6.1330   -3.1340   26.6310 N   0  0  0  0  0  0  0  0  0  0  0  0
    5.8420   -4.2560   27.4520 C   0  0  0  0  0  0  0  0  0  0  0  0
    4.7080   -4.3400   28.2460 C   0  0  0  0  0  0  0  0  0  0  0  0
    4.7150   -5.0910   29.4420 C   0  0  0  0  0  0  0  0  0  0  0  0
    5.8030   -5.7910   29.9190 O   0  0  0  0  0  0  0  0  0  0  0  0
    6.3550   -6.8590   29.2350 C   0  0  0  0  0  0  0  0  0  0  0  0
    3.4810   -5.1310   30.2220 N   0  0  0  0  0  0  0  0  0  0  0  0
    2.3980   -4.4690   29.7960 C   0  0  0  0  0  0  0  0  0  0  0  0
    2.3010   -3.7410   28.6870 N   0  0  0  0  0  0  0  0  0  0  0  0
    3.4980   -3.7080   27.9390 C   0  0  0  0  0  0  0  0  0  0  0  0
    3.6180   -3.0110   26.7470 O   0  0  0  0  0  0  0  0  0  0  0  0
    2.5470   -2.2120   26.2140 C   0  0  0  0  0  0  0  0  0  0  0  0
    6.3670   -1.8790   27.2650 C   0  0  0  0  0  0  0  0  0  0  0  0
    6.1830   -0.4330   26.9420 C   0  0  0  0  0  0  0  0  0  0  0  0
    6.5650    0.4060   27.9260 N   0  0  0  0  0  0  0  0  0  0  0  0
    7.0200   -0.4180   28.9450 N   0  0  0  0  0  0  0  0  0  0  0  0
    7.5630   -0.1620   30.2720 C   0  0  0  0  0  0  0  0  0  0  0  0
    6.9470   -1.7210   28.6550 C   0  0  0  0  0  0  0  0  0  0  0  0
    7.0080   -2.6750   23.3350 C   0  0  0  0  0  0  0  0  0  0  0  0
    7.7380   -3.2470   22.1590 C   0  0  0  0  0  0  0  0  0  0  0  0
  1  2  1  0
  2  3  2  0
  2  4  1  0
  4  5  1  0
  5  6  1  0
  6  7  1  0
  7  8  1  0
  8  9  2  0
  8 10  1  0
 10 11  1  0
 11 12  1  0
 12 13  2  0
 13 14  1  0
 14 15  1  0
 13 16  1  0
 16 17  2  0
 17 18  1  0
 12 19  1  0
 18 19  2  0
 19 20  1  0
 20 21  1  0
 10 22  1  0
 22 23  1  0
 23 24  2  0
 24 25  1  0
 25 26  1  0
 22 27  2  0
 25 27  1  0
  7 28  1  0
  4 29  1  0
 28 29  1  0
M  END
