piperidine-amides-30600-covalent
     RDKit          3D

 27 28  0  0  0  0  0  0  0  0999 V2000
    7.0840   -3.3240   19.2730 C   0  0  0  0  0  0  0  0  0  0  0  0
    6.3900   -4.1150   20.2930 C   0  0  0  0  0  0  0  0  0  0  0  0
    5.3800   -4.7600   19.9710 O   0  0  0  0  0  0  0  0  0  0  0  0
    6.8770   -4.1890   21.6090 N   0  0  0  0  0  0  0  0  0  0  0  0
    7.7640   -3.1720   22.1380 C   0  0  0  0  0  0  0  0  0  0  0  0
    7.5730   -3.1400   23.6310 C   0  0  0  0  0  0  0  0  0  0  0  0
    6.2410   -3.6950   24.0360 C   0  0  0  0  0  0  0  0  0  0  0  0
    5.8370   -3.3370   25.4150 C   0  0  0  0  0  0  0  0  0  0  0  0
    4.6040   -3.2000   25.6780 O   0  0  0  0  0  0  0  0  0  0  0  0
    6.7360   -3.1310   26.4900 N   0  0  0  0  0  0  0  0  0  0  0  0
    6.9650   -4.3350   27.3470 C   0  0  0  0  0  0  0  0  0  0  0  0
    8.3250   -4.9070   27.2060 C   0  0  0  0  0  0  0  0  0  0  0  0
    8.9580   -5.2990   25.9290 C   0  0  0  0  0  0  0  0  0  0  0  0
    6.6440   -1.8710   27.1750 C   0  0  0  0  0  0  0  0  0  0  0  0
    7.3180   -1.7220   28.5160 C   0  0  0  0  0  0  0  0  0  0  0  0
    7.1630   -0.4340   29.1550 C   0  0  0  0  0  0  0  0  0  0  0  0
    6.4640    0.5480   28.5630 C   0  0  0  0  0  0  0  0  0  0  0  0
    6.0760    1.8810   28.8050 C   0  0  0  0  0  0  0  0  0  0  0  0
    6.4820    2.3710   29.9830 F   0  0  0  0  0  0  0  0  0  0  0  0
    6.3950    2.8110   27.8520 F   0  0  0  0  0  0  0  0  0  0  0  0
    4.6920    1.8300   28.8900 F   0  0  0  0  0  0  0  0  0  0  0  0
    5.6770    0.7930   27.2750 C   0  0  0  0  0  0  0  0  0  0  0  0
    5.8710   -0.6310   26.6260 C   0  0  0  0  0  0  0  0  0  0  0  0
    5.2100   -0.8220   25.2810 C   0  0  0  0  0  0  0  0  0  0  0  0
    4.0850   -0.0300   25.2150 N   0  0  0  0  0  0  0  0  0  0  0  0
    6.1990   -5.1620   23.7420 C   0  0  0  0  0  0  0  0  0  0  0  0
    6.5750   -5.3910   22.3260 C   0  0  0  0  0  0  0  0  0  0  0  0
  1  2  1  0
  2  3  2  0
  2  4  1  0
  4  5  1  0
  5  6  1  0
  6  7  1  0
  7  8  1  0
  8  9  2  0
  8 10  1  0
 10 11  1  0
 11 12  1  0
 12 13  2  3
 10 14  1  0
 14 15  2  0
 15 16  1  0
 16 17  2  0
 17 18  1  0
 18 19  1  0
 18 20  1  0
 18 21  1  0
 17 22  1  0
 14 23  1  0
 22 23  2  0
 23 24  1  0
 24 25  3  0
  7 26  1  0
  4 27  1  0
 26 27  1  0
M  END
