piperidine-amides-35155-covalent
     RDKit          3D

 32 34  0  0  0  0  0  0  0  0999 V2000
    7.0150   -3.3450   19.4120 C   0  0  0  0  0  0  0  0  0  0  0  0
    6.3770   -4.2350   20.4210 C   0  0  0  0  0  0  0  0  0  0  0  0
    5.4480   -4.9380   20.0070 O   0  0  0  0  0  0  0  0  0  0  0  0
    6.8370   -4.2870   21.7540 N   0  0  0  0  0  0  0  0  0  0  0  0
    6.6770   -5.4750   22.5610 C   0  0  0  0  0  0  0  0  0  0  0  0
    6.0290   -5.1240   23.8810 C   0  0  0  0  0  0  0  0  0  0  0  0
    5.9750   -3.5990   23.9980 C   0  0  0  0  0  0  0  0  0  0  0  0
    5.1600   -3.1510   25.1850 C   0  0  0  0  0  0  0  0  0  0  0  0
    4.0470   -2.6900   24.9350 O   0  0  0  0  0  0  0  0  0  0  0  0
    5.5280   -3.1970   26.5590 N   0  0  0  0  0  0  0  0  0  0  0  0
    4.5840   -2.7860   27.5600 C   0  0  0  0  0  0  0  0  0  0  0  0
    4.4440   -4.0220   28.4420 C   0  0  2  0  0  0  0  0  0  0  0  0
    3.1830   -4.5880   28.4810 C   0  0  0  0  0  0  0  0  0  0  0  0
    2.7810   -5.4280   27.6210 O   0  0  0  0  0  0  0  0  0  0  0  0
    2.3190   -4.1950   29.4740 O   0  0  0  0  0  0  0  0  0  0  0  0
    1.0470   -4.8040   29.6920 C   0  0  0  0  0  0  0  0  0  0  0  0
    4.6270   -3.5550   29.8770 C   0  0  0  0  0  0  0  0  0  0  0  0
    4.3420   -5.0670   29.9720 C   0  0  0  0  0  0  0  0  0  0  0  0
    5.5710   -5.5500   30.1650 N   0  0  0  0  0  0  0  0  0  0  0  0
    5.6120   -6.8060   30.6770 C   0  0  0  0  0  0  0  0  0  0  0  0
    5.0880   -7.7200   29.8150 O   0  0  0  0  0  0  0  0  0  0  0  0
    6.1400   -7.1340   31.9400 O   0  0  0  0  0  0  0  0  0  0  0  0
    5.3050   -7.6500   32.9790 C   0  0  0  0  0  0  0  0  0  0  0  0
    5.7800   -8.9680   33.4880 C   0  0  0  0  0  0  0  0  0  0  0  0
    3.9090   -7.8380   32.4170 C   0  0  0  0  0  0  0  0  0  0  0  0
    5.2070   -6.7090   34.1480 C   0  0  0  0  0  0  0  0  0  0  0  0
    6.3640   -5.4420   29.0130 C   0  0  0  0  0  0  0  0  0  0  0  0
    5.4530   -4.8740   27.9650 C   0  0  1  0  0  0  0  0  0  0  0  0
    4.7910   -5.9370   27.4280 F   0  0  0  0  0  0  0  0  0  0  0  0
    6.2090   -4.2940   27.0370 C   0  0  0  0  0  0  0  0  0  0  0  0
    7.3480   -3.0590   23.7910 C   0  0  0  0  0  0  0  0  0  0  0  0
    7.7110   -3.2090   22.2960 C   0  0  0  0  0  0  0  0  0  0  0  0
  1  2  1  0
  2  3  2  0
  2  4  1  0
  4  5  1  0
  5  6  1  0
  6  7  1  0
  7  8  1  0
  8  9  2  0
  8 10  1  0
 10 11  1  0
 11 12  1  0
 12 13  1  1
 13 14  2  0
 13 15  1  0
 15 16  1  0
 12 17  1  0
 17 18  1  0
 18 19  1  0
 19 20  1  0
 20 21  2  0
 20 22  1  0
 23 22  1  0
 23 24  1  0
 23 25  1  0
 23 26  1  0
 19 27  1  0
 12 28  1  0
 27 28  1  0
 28 29  1  6
 10 30  1  0
 28 30  1  0
  7 31  1  0
  4 32  1  0
 31 32  1  0
M  END
