piperidine-amides-14188-covalent
     RDKit          3D

 24 25  0  0  0  0  0  0  0  0999 V2000
    7.0900   -3.3270   19.3010 C   0  0  0  0  0  0  0  0  0  0  0  0
    6.3880   -4.1790   20.2950 C   0  0  0  0  0  0  0  0  0  0  0  0
    5.3520   -4.7810   19.9620 O   0  0  0  0  0  0  0  0  0  0  0  0
    6.9550   -4.3220   21.5770 N   0  0  0  0  0  0  0  0  0  0  0  0
    7.7510   -3.2920   22.2000 C   0  0  0  0  0  0  0  0  0  0  0  0
    6.8900   -2.6870   23.3000 C   0  0  0  0  0  0  0  0  0  0  0  0
    6.5370   -3.8150   24.2010 C   0  0  0  0  0  0  0  0  0  0  0  0
    5.8220   -3.3590   25.4050 C   0  0  0  0  0  0  0  0  0  0  0  0
    4.5860   -3.4280   25.3800 O   0  0  0  0  0  0  0  0  0  0  0  0
    6.5390   -2.8630   26.4930 N   0  0  0  0  0  0  0  0  0  0  0  0
    6.4140   -1.5700   27.0520 C   0  0  0  0  0  0  0  0  0  0  0  0
    6.1880   -0.4150   26.3550 C   0  0  0  0  0  0  0  0  0  0  0  0
    6.0660    0.8320   26.9800 C   0  0  0  0  0  0  0  0  0  0  0  0
    6.1620    0.9820   28.3410 C   0  0  0  0  0  0  0  0  0  0  0  0
    6.0630    2.0900   29.0600 O   0  0  0  0  0  0  0  0  0  0  0  0
    4.8230    2.5020   29.1070 C   0  0  0  0  0  0  0  0  0  0  0  0
    6.3850   -0.1740   29.0670 C   0  0  0  0  0  0  0  0  0  0  0  0
    6.5150   -0.2320   30.8210 S   0  0  0  0  0  0  0  0  0  0  0  0
    6.1570    1.3360   31.6180 C   0  0  0  0  0  0  0  0  0  0  0  0
    5.4940   -1.2070   31.3300 O   0  0  0  0  0  0  0  0  0  0  0  0
    7.8720   -0.6390   31.2540 O   0  0  0  0  0  0  0  0  0  0  0  0
    6.5110   -1.4100   28.4150 C   0  0  0  0  0  0  0  0  0  0  0  0
    5.7510   -4.9070   23.5580 C   0  0  0  0  0  0  0  0  0  0  0  0
    6.5480   -5.4450   22.3860 C   0  0  0  0  0  0  0  0  0  0  0  0
  1  2  1  0
  2  3  2  0
  2  4  1  0
  4  5  1  0
  5  6  1  0
  6  7  1  0
  7  8  1  0
  8  9  2  0
  8 10  1  0
 10 11  1  0
 11 12  2  0
 12 13  1  0
 13 14  2  0
 14 15  1  0
 15 16  1  0
 14 17  1  0
 17 18  1  0
 18 19  1  0
 18 20  2  0
 18 21  2  0
 11 22  1  0
 17 22  2  0
  7 23  1  0
  4 24  1  0
 23 24  1  0
M  END
