piperidine-amides-1205-covalent
     RDKit          3D

 23 24  0  0  0  0  0  0  0  0999 V2000
    7.1490   -3.2660   19.1880 C   0  0  0  0  0  0  0  0  0  0  0  0
    6.3270   -3.9940   20.1940 C   0  0  0  0  0  0  0  0  0  0  0  0
    5.2500   -4.5080   19.8580 O   0  0  0  0  0  0  0  0  0  0  0  0
    6.8270   -4.1200   21.4970 N   0  0  0  0  0  0  0  0  0  0  0  0
    7.7290   -3.1360   22.0490 C   0  0  0  0  0  0  0  0  0  0  0  0
    7.0680   -2.6040   23.3040 C   0  0  0  0  0  0  0  0  0  0  0  0
    6.7530   -3.8040   24.1180 C   0  0  0  0  0  0  0  0  0  0  0  0
    6.2010   -3.4180   25.4190 C   0  0  0  0  0  0  0  0  0  0  0  0
    4.9740   -3.2440   25.4930 O   0  0  0  0  0  0  0  0  0  0  0  0
    7.1020   -3.2680   26.4780 N   0  0  0  0  0  0  0  0  0  0  0  0
    7.7190   -4.3150   27.2070 C   0  0  0  0  0  0  0  0  0  0  0  0
    7.0410   -5.0230   28.1500 C   0  0  0  0  0  0  0  0  0  0  0  0
    6.0440   -4.3410   28.8560 C   0  0  0  0  0  0  0  0  0  0  0  0
    4.8120   -4.7110   29.3200 C   0  0  0  0  0  0  0  0  0  0  0  0
    4.0240   -3.3690   30.1410 S   0  0  0  0  0  0  0  0  0  0  0  0
    5.3490   -2.1770   29.9130 C   0  0  0  0  0  0  0  0  0  0  0  0
    5.3380   -0.7290   30.4150 C   0  0  0  0  0  0  0  0  0  0  0  0
    4.3490   -0.0700   29.4510 C   0  0  0  0  0  0  0  0  0  0  0  0
    6.5940   -0.1260   30.5860 C   0  0  0  0  0  0  0  0  0  0  0  0
    4.6530   -0.6700   31.7590 C   0  0  0  0  0  0  0  0  0  0  0  0
    6.3110   -2.9370   29.1950 N   0  0  0  0  0  0  0  0  0  0  0  0
    5.8630   -4.8100   23.4530 C   0  0  0  0  0  0  0  0  0  0  0  0
    6.4820   -5.2510   22.3110 C   0  0  0  0  0  0  0  0  0  0  0  0
  1  2  1  0
  2  3  2  0
  2  4  1  0
  4  5  1  0
  5  6  1  0
  6  7  1  0
  7  8  1  0
  8  9  2  0
  8 10  1  0
 10 11  1  0
 11 12  1  0
 12 13  1  0
 13 14  2  0
 14 15  1  0
 15 16  1  0
 16 17  1  0
 17 18  1  0
 17 19  1  0
 17 20  1  0
 13 21  1  0
 16 21  2  0
  7 22  1  0
  4 23  1  0
 22 23  1  0
M  END
