piperidine-amides-19030-covalent
     RDKit          3D

 21 21  0  0  0  0  0  0  0  0999 V2000
    7.1970   -3.3110   19.3710 C   0  0  0  0  0  0  0  0  0  0  0  0
    6.4180   -4.0550   20.3250 C   0  0  0  0  0  0  0  0  0  0  0  0
    5.3520   -4.6300   19.9270 O   0  0  0  0  0  0  0  0  0  0  0  0
    6.8450   -4.1900   21.6590 N   0  0  0  0  0  0  0  0  0  0  0  0
    6.4580   -5.4030   22.3830 C   0  0  0  0  0  0  0  0  0  0  0  0
    5.4460   -4.7370   23.3820 C   0  0  0  0  0  0  0  0  0  0  0  0
    6.2380   -3.7310   24.2030 C   0  0  0  0  0  0  0  0  0  0  0  0
    5.3140   -3.3740   25.4540 C   0  0  0  0  0  0  0  0  0  0  0  0
    4.1450   -3.6070   25.1770 O   0  0  0  0  0  0  0  0  0  0  0  0
    6.0060   -2.9280   26.4250 N   0  0  0  0  0  0  0  0  0  0  0  0
    6.6600   -1.9900   27.1770 C   0  0  0  0  0  0  0  0  0  0  0  0
    6.1180   -4.0340   27.3050 C   0  0  0  0  0  0  0  0  0  0  0  0
    5.0570   -4.3420   28.1620 C   0  0  0  0  0  0  0  0  0  0  0  0
    5.2910   -5.5490   28.8510 O   0  0  0  0  0  0  0  0  0  0  0  0
    4.1530   -5.9170   29.5530 C   0  0  0  0  0  0  0  0  0  0  0  0
    3.7900   -7.4040   29.3580 C   0  0  0  0  0  0  0  0  0  0  0  0
    2.5150   -7.2630   29.9400 C   0  0  0  0  0  0  0  0  0  0  0  0
    2.1770   -8.1410   30.9900 O   0  0  0  0  0  0  0  0  0  0  0  0
    2.9220   -8.3700   32.1260 C   0  0  0  0  0  0  0  0  0  0  0  0
    6.9310   -2.6620   23.5240 C   0  0  0  0  0  0  0  0  0  0  0  0
    7.7100   -3.3040   22.3320 C   0  0  0  0  0  0  0  0  0  0  0  0
  1  2  1  0
  2  3  2  0
  2  4  1  0
  4  5  1  0
  5  6  1  0
  6  7  1  0
  7  8  1  0
  8  9  2  0
  8 10  1  0
 10 11  1  0
 10 12  1  0
 12 13  1  0
 13 14  1  0
 14 15  1  0
 15 16  1  0
 16 17  1  0
 17 18  1  0
 18 19  1  0
  7 20  1  0
  4 21  1  0
 20 21  1  0
M  END
