piperidine-amides-25848-covalent
     RDKit          3D

 25 27  0  0  0  0  0  0  0  0999 V2000
    7.0980   -3.2560   19.2470 C   0  0  0  0  0  0  0  0  0  0  0  0
    6.3370   -4.0440   20.2520 C   0  0  0  0  0  0  0  0  0  0  0  0
    5.2840   -4.5590   19.8850 O   0  0  0  0  0  0  0  0  0  0  0  0
    6.8460   -4.2120   21.5380 N   0  0  0  0  0  0  0  0  0  0  0  0
    7.6710   -3.2150   22.1760 C   0  0  0  0  0  0  0  0  0  0  0  0
    7.3280   -3.1360   23.6320 C   0  0  0  0  0  0  0  0  0  0  0  0
    5.9450   -3.7020   23.8490 C   0  0  0  0  0  0  0  0  0  0  0  0
    5.5190   -3.3870   25.2350 C   0  0  0  0  0  0  0  0  0  0  0  0
    4.3300   -3.1020   25.4230 O   0  0  0  0  0  0  0  0  0  0  0  0
    6.4060   -3.3590   26.3360 N   0  0  0  0  0  0  0  0  0  0  0  0
    6.6210   -2.0570   26.9370 C   0  0  0  0  0  0  0  0  0  0  0  0
    6.8980   -4.5600   26.9740 C   0  0  0  0  0  0  0  0  0  0  0  0
    6.0050   -5.5810   27.0900 C   0  0  0  0  0  0  0  0  0  0  0  0
    4.6130   -5.4380   27.3280 N   0  0  0  0  0  0  0  0  0  0  0  0
    4.0360   -5.7680   28.6180 C   0  0  0  0  0  0  0  0  0  0  0  0
    4.4990   -5.0360   29.6920 O   0  0  0  0  0  0  0  0  0  0  0  0
    3.1660   -6.6830   28.6510 O   0  0  0  0  0  0  0  0  0  0  0  0
    2.9810   -7.2210   27.3440 C   0  0  0  0  0  0  0  0  0  0  0  0
    2.0630   -8.3370   26.9070 C   0  0  0  0  0  0  0  0  0  0  0  0
    2.1650   -8.6070   25.4270 C   0  0  0  0  0  0  0  0  0  0  0  0
    3.1020   -7.8130   24.5370 C   0  0  0  0  0  0  0  0  0  0  0  0
    3.9510   -6.7360   25.1230 C   0  0  0  0  0  0  0  0  0  0  0  0
    3.9210   -6.3950   26.5650 C   0  0  0  0  0  0  0  0  0  0  0  0
    5.8190   -5.1190   23.4540 C   0  0  0  0  0  0  0  0  0  0  0  0
    6.6250   -5.4550   22.2480 C   0  0  0  0  0  0  0  0  0  0  0  0
  1  2  1  0
  2  3  2  0
  2  4  1  0
  4  5  1  0
  5  6  1  0
  6  7  1  0
  7  8  1  0
  8  9  2  0
  8 10  1  0
 10 11  1  0
 10 12  1  0
 12 13  1  0
 13 14  1  0
 14 15  1  0
 15 16  2  0
 15 17  1  0
 17 18  1  0
 18 19  1  0
 19 20  2  0
 20 21  1  0
 21 22  2  0
 14 23  1  0
 18 23  2  0
 22 23  1  0
  7 24  1  0
  4 25  1  0
 24 25  1  0
M  END
