piperidine-amides-3620-covalent
     RDKit          3D

 19 20  0  0  0  0  0  0  0  0999 V2000
    7.1520   -3.2660   19.1920 C   0  0  0  0  0  0  0  0  0  0  0  0
    6.3540   -3.9880   20.1960 C   0  0  0  0  0  0  0  0  0  0  0  0
    5.2460   -4.4460   19.8340 O   0  0  0  0  0  0  0  0  0  0  0  0
    6.8410   -4.2190   21.5010 N   0  0  0  0  0  0  0  0  0  0  0  0
    7.5430   -3.1460   22.1260 C   0  0  0  0  0  0  0  0  0  0  0  0
    7.2180   -2.9140   23.5260 C   0  0  0  0  0  0  0  0  0  0  0  0
    6.4340   -3.9640   24.2000 C   0  0  0  0  0  0  0  0  0  0  0  0
    5.7410   -3.3920   25.3990 C   0  0  0  0  0  0  0  0  0  0  0  0
    4.5060   -3.2420   25.3800 O   0  0  0  0  0  0  0  0  0  0  0  0
    6.4720   -3.0070   26.5410 N   0  0  0  0  0  0  0  0  0  0  0  0
    6.2270   -3.3330   27.8940 C   0  0  0  0  0  0  0  0  0  0  0  0
    5.9880   -2.2950   28.8940 C   0  0  0  0  0  0  0  0  0  0  0  0
    7.0320   -1.4140   29.5060 C   0  0  0  0  0  0  0  0  0  0  0  0
    6.6600   -0.4630   30.4530 C   0  0  0  0  0  0  0  0  0  0  0  0
    7.7310    0.8010   31.4200 Br  0  0  0  0  0  0  0  0  0  0  0  0
    5.0890   -0.5980   30.6260 C   0  0  0  0  0  0  0  0  0  0  0  0
    4.4470   -1.8430   29.5980 S   0  0  0  0  0  0  0  0  0  0  0  0
    5.4740   -4.7160   23.3530 C   0  0  0  0  0  0  0  0  0  0  0  0
    6.2860   -5.3350   22.2180 C   0  0  0  0  0  0  0  0  0  0  0  0
  1  2  1  0
  2  3  2  0
  2  4  1  0
  4  5  1  0
  5  6  1  0
  6  7  1  0
  7  8  1  0
  8  9  2  0
  8 10  1  0
 10 11  1  0
 11 12  1  0
 12 13  2  0
 13 14  1  0
 14 15  1  0
 14 16  2  0
 12 17  1  0
 16 17  1  0
  7 18  1  0
  4 19  1  0
 18 19  1  0
M  END
