piperidine-amides-30649-covalent
     RDKit          3D

 28 30  0  0  0  0  0  0  0  0999 V2000
    7.0750   -3.3130   19.3100 C   0  0  0  0  0  0  0  0  0  0  0  0
    6.3740   -4.1110   20.3200 C   0  0  0  0  0  0  0  0  0  0  0  0
    5.3640   -4.7460   19.9660 O   0  0  0  0  0  0  0  0  0  0  0  0
    6.8410   -4.2140   21.6490 N   0  0  0  0  0  0  0  0  0  0  0  0
    6.7140   -5.4580   22.3910 C   0  0  0  0  0  0  0  0  0  0  0  0
    6.0670   -5.1340   23.7180 C   0  0  0  0  0  0  0  0  0  0  0  0
    6.0020   -3.6590   23.9320 C   0  0  0  0  0  0  0  0  0  0  0  0
    5.4610   -3.2690   25.2630 C   0  0  0  0  0  0  0  0  0  0  0  0
    4.3310   -2.7070   25.3100 O   0  0  0  0  0  0  0  0  0  0  0  0
    6.0700   -3.4860   26.5200 N   0  0  0  0  0  0  0  0  0  0  0  0
    6.1630   -2.3070   27.4040 C   0  0  0  0  0  0  0  0  0  0  0  0
    6.7780   -1.1930   26.6840 C   0  0  0  0  0  0  0  0  0  0  0  0
    5.9050   -0.0720   26.2890 C   0  0  0  0  0  0  0  0  0  0  0  0
    5.4340   -0.1140   24.8590 C   0  0  0  0  0  0  0  0  0  0  0  0
    4.5410    1.0020   24.3820 C   0  0  0  0  0  0  0  0  0  0  0  0
    4.2290    2.0250   25.4030 C   0  0  0  0  0  0  0  0  0  0  0  0
    4.6940    1.9980   26.6900 C   0  0  0  0  0  0  0  0  0  0  0  0
    5.5280    0.9550   27.1340 C   0  0  0  0  0  0  0  0  0  0  0  0
    5.8260   -4.6450   27.2970 C   0  0  0  0  0  0  0  0  0  0  0  0
    6.2350   -4.6520   28.7730 C   0  0  0  0  0  0  0  0  0  0  0  0
    5.6260   -5.7330   29.6280 C   0  0  0  0  0  0  0  0  0  0  0  0
    5.5310   -6.8000   30.1830 C   0  0  0  0  0  0  0  0  0  0  0  0
    4.3870   -7.1240   30.9900 C   0  0  0  0  0  0  0  0  0  0  0  0
    3.4150   -6.8280   31.4050 N   0  0  0  0  0  0  0  0  0  0  0  0
    3.2430   -5.5220   30.8880 C   0  0  0  0  0  0  0  0  0  0  0  0
    4.4320   -5.0380   29.9800 C   0  0  0  0  0  0  0  0  0  0  0  0
    7.2890   -2.9690   23.6670 C   0  0  0  0  0  0  0  0  0  0  0  0
    7.7180   -3.2130   22.2390 C   0  0  0  0  0  0  0  0  0  0  0  0
  1  2  1  0
  2  3  2  0
  2  4  1  0
  4  5  1  0
  5  6  1  0
  6  7  1  0
  7  8  1  0
  8  9  2  0
  8 10  1  0
 10 11  1  0
 11 12  1  0
 12 13  1  0
 13 14  2  0
 14 15  1  0
 15 16  2  0
 16 17  1  0
 13 18  1  0
 17 18  2  0
 10 19  1  0
 19 20  1  0
 20 21  1  0
 21 22  2  0
 22 23  1  0
 23 24  2  0
 24 25  1  0
 21 26  1  0
 25 26  2  0
  7 27  1  0
  4 28  1  0
 27 28  1  0
M  END
