piperidine-amides-11033-covalent
     RDKit          3D

 21 22  0  0  0  0  0  0  0  0999 V2000
    7.1570   -3.2880   19.2010 C   0  0  0  0  0  0  0  0  0  0  0  0
    6.3480   -3.9890   20.1940 C   0  0  0  0  0  0  0  0  0  0  0  0
    5.2630   -4.4950   19.8640 O   0  0  0  0  0  0  0  0  0  0  0  0
    6.8170   -4.1430   21.4960 N   0  0  0  0  0  0  0  0  0  0  0  0
    7.7130   -3.2000   22.1240 C   0  0  0  0  0  0  0  0  0  0  0  0
    6.9730   -2.7050   23.3290 C   0  0  0  0  0  0  0  0  0  0  0  0
    6.5240   -3.8450   24.1830 C   0  0  0  0  0  0  0  0  0  0  0  0
    5.7820   -3.3710   25.3720 C   0  0  0  0  0  0  0  0  0  0  0  0
    4.5190   -3.4790   25.4160 O   0  0  0  0  0  0  0  0  0  0  0  0
    6.4180   -2.7840   26.4880 N   0  0  0  0  0  0  0  0  0  0  0  0
    6.6410   -1.3180   26.5440 C   0  0  0  0  0  0  0  0  0  0  0  0
    5.4440   -0.7060   27.1620 C   0  0  0  0  0  0  0  0  0  0  0  0
    4.7350    0.4090   26.5260 C   0  0  0  0  0  0  0  0  0  0  0  0
    5.1790    0.9130   25.3240 F   0  0  0  0  0  0  0  0  0  0  0  0
    3.5230    1.0250   27.1520 C   0  0  0  0  0  0  0  0  0  0  0  0
    3.0340    0.4670   28.4770 C   0  0  0  0  0  0  0  0  0  0  0  0
    3.8780   -0.6640   28.9760 C   0  0  0  0  0  0  0  0  0  0  0  0
    4.9890   -1.1930   28.3530 C   0  0  0  0  0  0  0  0  0  0  0  0
    5.8500   -2.5190   29.0930 Cl  0  0  0  0  0  0  0  0  0  0  0  0
    5.6670   -4.8330   23.4230 C   0  0  0  0  0  0  0  0  0  0  0  0
    6.4770   -5.3290   22.2470 C   0  0  0  0  0  0  0  0  0  0  0  0
  1  2  1  0
  2  3  2  0
  2  4  1  0
  4  5  1  0
  5  6  1  0
  6  7  1  0
  7  8  1  0
  8  9  2  0
  8 10  1  0
 10 11  1  0
 11 12  1  0
 12 13  2  0
 13 14  1  0
 13 15  1  0
 15 16  2  0
 16 17  1  0
 12 18  1  0
 17 18  2  0
 18 19  1  0
  7 20  1  0
  4 21  1  0
 20 21  1  0
M  END
