piperidine-amides-25791-covalent
     RDKit          3D

 25 27  0  0  0  0  0  0  0  0999 V2000
    6.9570   -3.3770   19.4330 C   0  0  0  0  0  0  0  0  0  0  0  0
    6.3320   -4.2860   20.4390 C   0  0  0  0  0  0  0  0  0  0  0  0
    5.4240   -4.9960   20.0110 O   0  0  0  0  0  0  0  0  0  0  0  0
    6.7750   -4.3370   21.7790 N   0  0  0  0  0  0  0  0  0  0  0  0
    6.6240   -5.5370   22.5740 C   0  0  0  0  0  0  0  0  0  0  0  0
    5.9990   -5.1930   23.9080 C   0  0  0  0  0  0  0  0  0  0  0  0
    5.8190   -3.6760   23.9820 C   0  0  0  0  0  0  0  0  0  0  0  0
    5.2300   -3.1740   25.2850 C   0  0  0  0  0  0  0  0  0  0  0  0
    4.7250   -2.0530   25.2770 O   0  0  0  0  0  0  0  0  0  0  0  0
    5.2120   -3.8880   26.5180 N   0  0  0  0  0  0  0  0  0  0  0  0
    6.4670   -4.2990   26.9040 C   0  0  0  0  0  0  0  0  0  0  0  0
    6.3950   -4.3390   28.3730 C   0  0  0  0  0  0  0  0  0  0  0  0
    5.2090   -3.8600   28.7770 C   0  0  0  0  0  0  0  0  0  0  0  0
    4.4450   -3.5180   27.6820 C   0  0  2  0  0  0  0  0  0  0  0  0
    3.1120   -3.8400   27.7010 C   0  0  0  0  0  0  0  0  0  0  0  0
    2.9590   -5.0430   27.0750 O   0  0  0  0  0  0  0  0  0  0  0  0
    3.5610   -2.3590   27.6500 C   0  0  0  0  0  0  0  0  0  0  0  0
    2.5570   -2.1970   28.7620 C   0  0  0  0  0  0  0  0  0  0  0  0
    3.3410   -2.1250   30.0590 C   0  0  0  0  0  0  0  0  0  0  0  0
    2.4990   -1.9640   31.2800 C   0  0  0  0  0  0  0  0  0  0  0  0
    1.0190   -1.8850   31.1760 C   0  0  0  0  0  0  0  0  0  0  0  0
    0.3340   -1.9650   29.8320 C   0  0  0  0  0  0  0  0  0  0  0  0
    1.1730   -2.1270   28.6120 C   0  0  0  0  0  0  0  0  0  0  0  0
    7.1430   -2.9730   23.6640 C   0  0  0  0  0  0  0  0  0  0  0  0
    7.5670   -3.2590   22.3700 C   0  0  0  0  0  0  0  0  0  0  0  0
  1  2  1  0
  2  3  2  0
  2  4  1  0
  4  5  1  0
  5  6  1  0
  6  7  1  0
  7  8  1  0
  8  9  2  0
  8 10  1  0
 10 11  1  0
 11 12  1  0
 12 13  1  0
 10 14  1  0
 13 14  1  0
 14 15  1  1
 15 16  1  0
 14 17  1  0
 17 18  1  0
 18 19  2  0
 19 20  1  0
 20 21  2  0
 21 22  1  0
 18 23  1  0
 22 23  2  0
  7 24  1  0
  4 25  1  0
 24 25  1  0
M  END
