piperidine-amides-34178-covalent
     RDKit          3D

 28 31  0  0  0  0  0  0  0  0999 V2000
    7.0680   -3.3210   19.3060 C   0  0  0  0  0  0  0  0  0  0  0  0
    6.3900   -4.1750   20.2920 C   0  0  0  0  0  0  0  0  0  0  0  0
    5.3550   -4.7940   19.9700 O   0  0  0  0  0  0  0  0  0  0  0  0
    6.9170   -4.3650   21.5780 N   0  0  0  0  0  0  0  0  0  0  0  0
    6.4790   -5.5210   22.3110 C   0  0  0  0  0  0  0  0  0  0  0  0
    5.5800   -4.9590   23.4130 C   0  0  0  0  0  0  0  0  0  0  0  0
    6.4630   -4.0290   24.2100 C   0  0  0  0  0  0  0  0  0  0  0  0
    5.6730   -3.4270   25.3120 C   0  0  0  0  0  0  0  0  0  0  0  0
    4.4840   -3.1230   25.0780 O   0  0  0  0  0  0  0  0  0  0  0  0
    6.2620   -3.1530   26.5720 N   0  0  0  0  0  0  0  0  0  0  0  0
    6.0670   -3.9440   27.7940 C   0  0  0  0  0  0  0  0  0  0  0  0
    5.0740   -5.1170   27.7010 C   0  0  0  0  0  0  0  0  0  0  0  0
    4.3730   -5.3230   28.8630 C   0  0  0  0  0  0  0  0  0  0  0  0
    3.1860   -4.7810   29.1250 C   0  0  0  0  0  0  0  0  0  0  0  0
    2.6450   -5.1030   30.3200 C   0  0  0  0  0  0  0  0  0  0  0  0
    3.2140   -5.9240   31.2580 C   0  0  0  0  0  0  0  0  0  0  0  0
    2.2770   -6.1600   32.7220 Cl  0  0  0  0  0  0  0  0  0  0  0  0
    4.5730   -6.6610   31.1850 C   0  0  0  0  0  0  0  0  0  0  0  0
    5.3150   -7.6980   32.3670 Cl  0  0  0  0  0  0  0  0  0  0  0  0
    4.9850   -6.1550   29.7760 C   0  0  0  0  0  0  0  0  0  0  0  0
    5.5540   -6.3020   27.1670 C   0  0  0  0  0  0  0  0  0  0  0  0
    4.6670   -6.3970   26.0870 C   0  0  0  0  0  0  0  0  0  0  0  0
    4.1900   -5.1950   26.5700 C   0  0  0  0  0  0  0  0  0  0  0  0
    6.7790   -1.8050   26.7060 C   0  0  0  0  0  0  0  0  0  0  0  0
    6.8080   -1.2780   27.9550 C   0  0  0  0  0  0  0  0  0  0  0  0
    5.7540   -0.6110   27.0270 C   0  0  0  0  0  0  0  0  0  0  0  0
    7.0970   -2.9000   23.4480 C   0  0  0  0  0  0  0  0  0  0  0  0
    7.6060   -3.2670   22.2180 C   0  0  0  0  0  0  0  0  0  0  0  0
  1  2  1  0
  2  3  2  0
  2  4  1  0
  4  5  1  0
  5  6  1  0
  6  7  1  0
  7  8  1  0
  8  9  2  0
  8 10  1  0
 10 11  1  0
 12 11  1  0
 12 13  1  0
 13 14  2  0
 14 15  1  0
 15 16  2  0
 16 17  1  0
 16 18  1  0
 18 19  1  0
 13 20  1  0
 18 20  2  0
 12 21  1  0
 21 22  1  0
 12 23  1  0
 22 23  1  0
 10 24  1  0
 24 25  1  0
 24 26  1  0
 25 26  1  0
  7 27  1  0
  4 28  1  0
 27 28  1  0
M  END
