piperidine-amides-32164-covalent
     RDKit          3D

 28 30  0  0  0  0  0  0  0  0999 V2000
    7.0810   -3.3420   19.3420 C   0  0  0  0  0  0  0  0  0  0  0  0
    6.3920   -4.2210   20.3220 C   0  0  0  0  0  0  0  0  0  0  0  0
    5.3530   -4.8100   19.9740 O   0  0  0  0  0  0  0  0  0  0  0  0
    6.9670   -4.4100   21.5960 N   0  0  0  0  0  0  0  0  0  0  0  0
    6.6890   -5.5760   22.3880 C   0  0  0  0  0  0  0  0  0  0  0  0
    5.8010   -5.1200   23.5540 C   0  0  0  0  0  0  0  0  0  0  0  0
    6.5030   -4.0350   24.3200 C   0  0  0  0  0  0  0  0  0  0  0  0
    5.6800   -3.5290   25.4480 C   0  0  0  0  0  0  0  0  0  0  0  0
    4.8620   -2.6470   25.1730 O   0  0  0  0  0  0  0  0  0  0  0  0
    5.8420   -4.0610   26.7350 N   0  0  0  0  0  0  0  0  0  0  0  0
    6.9630   -4.6600   27.2370 C   0  0  0  0  0  0  0  0  0  0  0  0
    6.8840   -5.6860   28.0730 C   0  0  0  0  0  0  0  0  0  0  0  0
    6.0100   -5.4400   29.1170 C   0  0  0  0  0  0  0  0  0  0  0  0
    5.0040   -4.4830   28.9300 C   0  0  2  0  0  0  0  0  0  0  0  0
    3.6470   -4.9460   28.6260 C   0  0  0  0  0  0  0  0  0  0  0  0
    3.5970   -4.0110   27.4160 C   0  0  0  0  0  0  0  0  0  0  0  0
    5.0290   -3.5930   27.8460 C   0  0  2  0  0  0  0  0  0  0  0  0
    5.2350   -2.2540   28.1330 C   0  0  0  0  0  0  0  0  0  0  0  0
    4.2380   -1.4280   28.5170 N   0  0  0  0  0  0  0  0  0  0  0  0
    4.7520   -0.4270   29.3810 C   0  0  0  0  0  0  0  0  0  0  0  0
    4.6900    0.8140   29.2620 O   0  0  0  0  0  0  0  0  0  0  0  0
    5.4400   -0.7640   30.5580 O   0  0  0  0  0  0  0  0  0  0  0  0
    4.9340   -0.4050   31.8440 C   0  0  0  0  0  0  0  0  0  0  0  0
    4.1310   -1.1810   32.6480 C   0  0  0  0  0  0  0  0  0  0  0  0
    3.5790    0.1470   32.0570 C   0  0  0  0  0  0  0  0  0  0  0  0
    5.9080    0.1740   32.6350 C   0  0  0  0  0  0  0  0  0  0  0  0
    6.8200   -2.8570   23.4220 C   0  0  0  0  0  0  0  0  0  0  0  0
    7.6230   -3.2830   22.2540 C   0  0  0  0  0  0  0  0  0  0  0  0
  1  2  1  0
  2  3  2  0
  2  4  1  0
  4  5  1  0
  5  6  1  0
  6  7  1  0
  7  8  1  0
  8  9  2  0
  8 10  1  0
 10 11  1  0
 11 12  1  0
 12 13  1  0
 14 13  1  6
 14 15  1  0
 15 16  1  0
 10 17  1  0
 14 17  1  0
 16 17  1  0
 17 18  1  1
 18 19  1  0
 19 20  1  0
 20 21  2  0
 20 22  1  0
 23 22  1  0
 23 24  1  0
 23 25  1  0
 23 26  1  0
  7 27  1  0
  4 28  1  0
 27 28  1  0
M  END
