piperidine-amides-27963-covalent
     RDKit          3D

 26 29  0  0  0  0  0  0  0  0999 V2000
    7.1340   -3.2760   19.1850 C   0  0  0  0  0  0  0  0  0  0  0  0
    6.3970   -4.0740   20.1880 C   0  0  0  0  0  0  0  0  0  0  0  0
    5.2770   -4.5080   19.8620 O   0  0  0  0  0  0  0  0  0  0  0  0
    6.9800   -4.3820   21.4150 N   0  0  0  0  0  0  0  0  0  0  0  0
    6.5660   -5.5650   22.0850 C   0  0  0  0  0  0  0  0  0  0  0  0
    5.8720   -5.2840   23.3310 C   0  0  0  0  0  0  0  0  0  0  0  0
    6.4720   -4.1730   24.0790 C   0  0  0  0  0  0  0  0  0  0  0  0
    5.5910   -3.7890   25.1870 C   0  0  0  0  0  0  0  0  0  0  0  0
    4.3950   -3.5370   24.9580 O   0  0  0  0  0  0  0  0  0  0  0  0
    6.0880   -3.6940   26.4680 N   0  0  0  0  0  0  0  0  0  0  0  0
    5.4730   -4.4870   27.5600 C   0  0  0  0  0  0  0  0  0  0  0  0
    5.8080   -3.9680   28.9040 C   0  0  0  0  0  0  0  0  0  0  0  0
    6.3600   -2.6310   28.9400 C   0  0  0  0  0  0  0  0  0  0  0  0
    6.5260   -1.8480   30.1300 N   0  0  0  0  0  0  0  0  0  0  0  0
    7.0920   -0.5680   29.9310 C   0  0  0  0  0  0  0  0  0  0  0  0
    7.3910    0.4310   30.8530 C   0  0  0  0  0  0  0  0  0  0  0  0
    6.7880    1.5870   30.4260 C   0  0  0  0  0  0  0  0  0  0  0  0
    6.0470    2.1780   31.4130 C   0  0  0  0  0  0  0  0  0  0  0  0
    6.8020    2.4530   32.5150 C   0  0  0  0  0  0  0  0  0  0  0  0
    7.0830    1.2370   33.1220 C   0  0  0  0  0  0  0  0  0  0  0  0
    7.0160    0.1330   32.1380 C   0  0  0  0  0  0  0  0  0  0  0  0
    7.2400   -0.6340   28.5850 N   0  0  0  0  0  0  0  0  0  0  0  0
    6.8170   -1.7990   27.9740 C   0  0  0  0  0  0  0  0  0  0  0  0
    6.6830   -2.4060   26.6380 C   0  0  0  0  0  0  0  0  0  0  0  0
    6.9230   -3.0040   23.3180 C   0  0  0  0  0  0  0  0  0  0  0  0
    7.7660   -3.4020   22.1460 C   0  0  0  0  0  0  0  0  0  0  0  0
  1  2  1  0
  2  3  2  0
  2  4  1  0
  4  5  1  0
  5  6  1  0
  6  7  1  0
  7  8  1  0
  8  9  2  0
  8 10  1  0
 10 11  1  0
 11 12  1  0
 12 13  1  0
 13 14  1  0
 14 15  1  0
 15 16  1  0
 16 17  1  0
 17 18  1  0
 18 19  1  0
 19 20  1  0
 16 21  1  0
 20 21  1  0
 15 22  2  0
 13 23  2  0
 22 23  1  0
 10 24  1  0
 23 24  1  0
  7 25  1  0
  4 26  1  0
 25 26  1  0
M  END
