piperidine-amides-31724-covalent
     RDKit          3D

 26 28  0  0  0  0  0  0  0  0999 V2000
    7.1030   -3.3340   19.3990 C   0  0  0  0  0  0  0  0  0  0  0  0
    6.3990   -4.1620   20.3550 C   0  0  0  0  0  0  0  0  0  0  0  0
    5.3880   -4.8280   19.9670 O   0  0  0  0  0  0  0  0  0  0  0  0
    6.8240   -4.2750   21.6910 N   0  0  0  0  0  0  0  0  0  0  0  0
    6.7560   -5.6280   22.3080 C   0  0  0  0  0  0  0  0  0  0  0  0
    6.0670   -5.3120   23.6950 C   0  0  0  0  0  0  0  0  0  0  0  0
    6.0010   -3.8030   23.7590 C   0  0  0  0  0  0  0  0  0  0  0  0
    4.9410   -3.1950   24.7700 C   0  0  0  0  0  0  0  0  0  0  0  0
    4.0230   -2.7810   24.0980 O   0  0  0  0  0  0  0  0  0  0  0  0
    5.1950   -3.2310   26.0140 N   0  0  0  0  0  0  0  0  0  0  0  0
    4.9400   -2.8210   27.3290 C   0  0  0  0  0  0  0  0  0  0  0  0
    4.7070   -3.2990   28.5990 C   0  0  0  0  0  0  0  0  0  0  0  0
    4.4570   -4.6430   28.4890 C   0  0  0  0  0  0  0  0  0  0  0  0
    5.6470   -5.0290   27.8710 C   0  0  0  0  0  0  0  0  0  0  0  0
    6.3790   -6.0500   28.4960 C   0  0  0  0  0  0  0  0  0  0  0  0
    5.9380   -6.8220   29.6170 C   0  0  0  0  0  0  0  0  0  0  0  0
    6.0440   -6.2540   30.8100 F   0  0  0  0  0  0  0  0  0  0  0  0
    4.5490   -7.0190   29.5160 F   0  0  0  0  0  0  0  0  0  0  0  0
    6.4850   -8.0470   29.7230 F   0  0  0  0  0  0  0  0  0  0  0  0
    7.6550   -6.5450   28.1270 C   0  0  0  0  0  0  0  0  0  0  0  0
    8.0730   -5.8560   26.8210 C   0  0  0  0  0  0  0  0  0  0  0  0
    7.2270   -4.7330   26.0480 C   0  0  0  0  0  0  0  0  0  0  0  0
    7.8380   -4.0840   24.5480 Cl  0  0  0  0  0  0  0  0  0  0  0  0
    6.0190   -4.2960   26.6150 C   0  0  0  0  0  0  0  0  0  0  0  0
    7.2630   -2.9890   23.5120 C   0  0  0  0  0  0  0  0  0  0  0  0
    7.6820   -3.2470   22.2480 C   0  0  0  0  0  0  0  0  0  0  0  0
  1  2  1  0
  2  3  2  0
  2  4  1  0
  4  5  1  0
  5  6  1  0
  6  7  1  0
  7  8  1  0
  8  9  2  0
  8 10  1  0
 10 11  1  0
 11 12  1  0
 12 13  1  0
 13 14  1  0
 14 15  2  0
 15 16  1  0
 16 17  1  0
 16 18  1  0
 16 19  1  0
 15 20  1  0
 20 21  2  0
 21 22  1  0
 22 23  1  0
 10 24  1  0
 14 24  1  0
 22 24  2  0
  7 25  1  0
  4 26  1  0
 25 26  1  0
M  END
