piperidine-amides-23674-covalent
     RDKit          3D

 24 25  0  0  0  0  0  0  0  0999 V2000
    7.0710   -3.2990   19.3450 C   0  0  0  0  0  0  0  0  0  0  0  0
    6.3720   -4.1100   20.3610 C   0  0  0  0  0  0  0  0  0  0  0  0
    5.3600   -4.7360   19.9580 O   0  0  0  0  0  0  0  0  0  0  0  0
    6.8290   -4.2290   21.7120 N   0  0  0  0  0  0  0  0  0  0  0  0
    7.6190   -3.1840   22.2840 C   0  0  0  0  0  0  0  0  0  0  0  0
    7.2110   -2.8920   23.6460 C   0  0  0  0  0  0  0  0  0  0  0  0
    5.9830   -3.6300   23.9720 C   0  0  0  0  0  0  0  0  0  0  0  0
    5.3760   -3.2900   25.3210 C   0  0  0  0  0  0  0  0  0  0  0  0
    4.1410   -3.1720   25.3790 O   0  0  0  0  0  0  0  0  0  0  0  0
    6.1040   -3.0810   26.5170 N   0  0  0  0  0  0  0  0  0  0  0  0
    6.6100   -1.8480   27.0010 C   0  0  0  0  0  0  0  0  0  0  0  0
    6.2610   -4.2210   27.4240 C   0  0  0  0  0  0  0  0  0  0  0  0
    5.1570   -4.7620   28.3320 C   0  0  0  0  0  0  0  0  0  0  0  0
    5.3700   -6.0630   28.8570 C   0  0  0  0  0  0  0  0  0  0  0  0
    4.2620   -6.6620   29.7960 C   0  0  0  0  0  0  0  0  0  0  0  0
    3.1200   -5.7160   29.9870 C   0  0  0  0  0  0  0  0  0  0  0  0
    2.0600   -6.3310   30.9070 C   0  0  0  0  0  0  0  0  0  0  0  0
    2.5300   -6.9260   32.1070 N   0  0  0  0  0  0  0  0  0  0  0  0
    2.6150   -8.3100   31.8670 C   0  0  0  0  0  0  0  0  0  0  0  0
    3.5660   -6.3750   32.7430 C   0  0  0  0  0  0  0  0  0  0  0  0
    3.0450   -4.3550   29.3530 C   0  0  0  0  0  0  0  0  0  0  0  0
    4.1150   -3.8960   28.5050 C   0  0  0  0  0  0  0  0  0  0  0  0
    6.0830   -5.1110   23.7470 C   0  0  0  0  0  0  0  0  0  0  0  0
    6.5750   -5.4330   22.4710 C   0  0  0  0  0  0  0  0  0  0  0  0
  1  2  1  0
  2  3  2  0
  2  4  1  0
  4  5  1  0
  5  6  1  0
  6  7  1  0
  7  8  1  0
  8  9  2  0
  8 10  1  0
 10 11  1  0
 10 12  1  0
 12 13  1  0
 13 14  2  0
 14 15  1  0
 15 16  2  0
 16 17  1  0
 17 18  1  0
 18 19  1  0
 18 20  1  0
 16 21  1  0
 13 22  1  0
 21 22  2  0
  7 23  1  0
  4 24  1  0
 23 24  1  0
M  END
