piperidine-amides-31693-covalent
     RDKit          3D

 28 29  0  0  0  0  0  0  0  0999 V2000
    7.1520   -3.2890   19.3500 C   0  0  0  0  0  0  0  0  0  0  0  0
    6.4280   -4.0800   20.3150 C   0  0  0  0  0  0  0  0  0  0  0  0
    5.3780   -4.6990   19.9440 O   0  0  0  0  0  0  0  0  0  0  0  0
    6.8770   -4.2150   21.6410 N   0  0  0  0  0  0  0  0  0  0  0  0
    7.7540   -3.1630   22.1980 C   0  0  0  0  0  0  0  0  0  0  0  0
    6.7740   -2.5680   23.2710 C   0  0  0  0  0  0  0  0  0  0  0  0
    6.4070   -3.7390   24.1560 C   0  0  0  0  0  0  0  0  0  0  0  0
    5.4410   -3.2510   25.3280 C   0  0  0  0  0  0  0  0  0  0  0  0
    4.2790   -3.4890   25.0300 O   0  0  0  0  0  0  0  0  0  0  0  0
    6.0930   -2.7320   26.2870 N   0  0  0  0  0  0  0  0  0  0  0  0
    6.7320   -1.7650   27.0000 C   0  0  0  0  0  0  0  0  0  0  0  0
    6.4190   -0.5290   27.4810 C   0  0  0  0  0  0  0  0  0  0  0  0
    5.9070   -3.8260   27.2480 C   0  0  0  0  0  0  0  0  0  0  0  0
    6.5900   -3.8310   28.5670 C   0  0  0  0  0  0  0  0  0  0  0  0
    5.2430   -3.7400   29.2960 C   0  0  0  0  0  0  0  0  0  0  0  0
    4.7880   -2.5960   29.9920 O   0  0  0  0  0  0  0  0  0  0  0  0
    4.5070   -4.9930   29.1800 N   0  0  0  0  0  0  0  0  0  0  0  0
    4.5570   -5.8190   30.3350 C   0  0  0  0  0  0  0  0  0  0  0  0
    3.4750   -5.5220   31.2720 C   0  0  0  0  0  0  0  0  0  0  0  0
    3.7460   -6.5390   32.4150 C   0  0  0  0  0  0  0  0  0  0  0  0
    4.8440   -7.5980   32.5780 C   0  0  0  0  0  0  0  0  0  0  0  0
    4.9650   -8.4480   33.6590 C   0  0  0  0  0  0  0  0  0  0  0  0
    6.1950   -9.0450   33.9340 N   0  0  0  0  0  0  0  0  0  0  0  0
    3.9060   -8.7250   34.4830 O   0  0  0  0  0  0  0  0  0  0  0  0
    5.7910   -7.6970   31.5260 C   0  0  0  0  0  0  0  0  0  0  0  0
    5.6220   -6.8560   30.5080 C   0  0  0  0  0  0  0  0  0  0  0  0
    5.8550   -4.9840   23.5100 C   0  0  0  0  0  0  0  0  0  0  0  0
    6.6390   -5.3790   22.4260 C   0  0  0  0  0  0  0  0  0  0  0  0
  1  2  1  0
  2  3  2  0
  2  4  1  0
  4  5  1  0
  5  6  1  0
  6  7  1  0
  7  8  1  0
  8  9  2  0
  8 10  1  0
 10 11  1  0
 11 12  1  0
 10 13  1  0
 13 14  1  0
 14 15  1  0
 15 16  2  0
 15 17  1  0
 17 18  1  0
 18 19  2  0
 19 20  1  0
 20 21  2  0
 21 22  1  0
 22 23  1  0
 22 24  2  0
 21 25  1  0
 18 26  1  0
 25 26  2  0
  7 27  1  0
  4 28  1  0
 27 28  1  0
M  END
