piperidine-amides-797-covalent
     RDKit          3D

 25 27  0  0  0  0  0  0  0  0999 V2000
    7.1460   -3.3370   19.4170 C   0  0  0  0  0  0  0  0  0  0  0  0
    6.4450   -4.1620   20.3690 C   0  0  0  0  0  0  0  0  0  0  0  0
    5.4150   -4.8060   19.9810 O   0  0  0  0  0  0  0  0  0  0  0  0
    6.9180   -4.2960   21.6910 N   0  0  0  0  0  0  0  0  0  0  0  0
    6.5930   -5.5160   22.4490 C   0  0  0  0  0  0  0  0  0  0  0  0
    5.5520   -4.8850   23.4400 C   0  0  0  0  0  0  0  0  0  0  0  0
    6.3220   -3.8770   24.2710 C   0  0  0  0  0  0  0  0  0  0  0  0
    5.4110   -3.3540   25.4870 C   0  0  0  0  0  0  0  0  0  0  0  0
    4.3390   -3.9510   25.4730 O   0  0  0  0  0  0  0  0  0  0  0  0
    5.9920   -2.4360   26.1780 N   0  0  0  0  0  0  0  0  0  0  0  0
    6.5330   -1.4090   26.9190 C   0  0  2  0  0  0  0  0  0  0  0  0
    7.2910   -1.2090   28.0100 C   0  0  0  0  0  0  0  0  0  0  0  0
    6.9220   -0.0250   28.7340 C   0  0  0  0  0  0  0  0  0  0  0  0
    5.2720   -0.0010   29.3500 S   0  0  0  0  0  0  0  0  0  0  0  0
    4.9220   -1.2680   30.0440 O   0  0  0  0  0  0  0  0  0  0  0  0
    5.0830    1.2210   30.2150 O   0  0  0  0  0  0  0  0  0  0  0  0
    4.2690    0.1100   27.8910 C   0  0  0  0  0  0  0  0  0  0  0  0
    3.6650    0.8190   29.1900 C   0  0  0  0  0  0  0  0  0  0  0  0
    3.1500    0.7870   28.0800 C   0  0  0  0  0  0  0  0  0  0  0  0
    4.3650    0.0280   27.7230 C   0  0  0  0  0  0  0  0  0  0  0  0
    4.4960   -0.5050   26.0510 Cl  0  0  0  0  0  0  0  0  0  0  0  0
    5.5010   -0.2410   28.9900 C   0  0  0  0  0  0  0  0  0  0  0  0
    5.4590   -0.6150   27.6320 C   0  0  0  0  0  0  0  0  0  0  0  0
    6.8940   -2.7470   23.3950 C   0  0  0  0  0  0  0  0  0  0  0  0
    7.6540   -3.2400   22.3620 C   0  0  0  0  0  0  0  0  0  0  0  0
  1  2  1  0
  2  3  2  0
  2  4  1  0
  4  5  1  0
  5  6  1  0
  6  7  1  0
  7  8  1  0
  8  9  2  0
  8 10  1  0
 11 10  1  1
 11 12  1  0
 12 13  1  0
 14 13  1  0
 14 15  2  0
 14 16  2  0
 14 17  1  0
 17 18  2  0
 18 19  1  0
 19 20  2  0
 20 21  1  0
 20 22  1  0
 11 23  1  0
 17 23  1  0
 22 23  2  0
  7 24  1  0
  4 25  1  0
 24 25  1  0
M  END
