piperidine-amides-19228-covalent
     RDKit          3D

 20 21  0  0  0  0  0  0  0  0999 V2000
    7.1630   -3.2840   19.3890 C   0  0  0  0  0  0  0  0  0  0  0  0
    6.3670   -4.0110   20.3480 C   0  0  0  0  0  0  0  0  0  0  0  0
    5.3390   -4.6350   19.9230 O   0  0  0  0  0  0  0  0  0  0  0  0
    6.7110   -4.0950   21.7150 N   0  0  0  0  0  0  0  0  0  0  0  0
    6.6000   -5.4610   22.2890 C   0  0  0  0  0  0  0  0  0  0  0  0
    6.2060   -5.1670   23.7860 C   0  0  0  0  0  0  0  0  0  0  0  0
    6.0470   -3.6720   23.8760 C   0  0  0  0  0  0  0  0  0  0  0  0
    5.1560   -3.2550   25.1300 C   0  0  0  0  0  0  0  0  0  0  0  0
    4.0540   -3.7610   25.0340 O   0  0  0  0  0  0  0  0  0  0  0  0
    5.7900   -2.5000   25.9330 N   0  0  0  0  0  0  0  0  0  0  0  0
    6.6500   -1.9600   26.7720 C   0  0  0  0  0  0  0  0  0  0  0  0
    6.1130   -0.9840   27.3850 C   0  0  0  0  0  0  0  0  0  0  0  0
    5.6510   -0.9160   29.0270 S   0  0  0  0  0  0  0  0  0  0  0  0
    4.2210   -0.5580   29.0320 O   0  0  0  0  0  0  0  0  0  0  0  0
    5.8550   -2.3200   29.5080 O   0  0  0  0  0  0  0  0  0  0  0  0
    6.4390    0.1320   30.1690 C   0  0  0  0  0  0  0  0  0  0  0  0
    7.7920   -0.2960   30.5700 C   0  0  0  0  0  0  0  0  0  0  0  0
    4.9180   -1.3640   26.4670 C   0  0  0  0  0  0  0  0  0  0  0  0
    7.2650   -2.8420   23.5720 C   0  0  0  0  0  0  0  0  0  0  0  0
    7.6840   -3.1580   22.2670 C   0  0  0  0  0  0  0  0  0  0  0  0
  1  2  1  0
  2  3  2  0
  2  4  1  0
  4  5  1  0
  5  6  1  0
  6  7  1  0
  7  8  1  0
  8  9  2  0
  8 10  1  0
 10 11  1  0
 11 12  1  0
 12 13  1  0
 13 14  2  0
 13 15  2  0
 13 16  1  0
 16 17  1  0
 10 18  1  0
 12 18  1  0
  7 19  1  0
  4 20  1  0
 19 20  1  0
M  END
