piperidine-amides-2312-covalent
     RDKit          3D

 28 30  0  0  0  0  0  0  0  0999 V2000
    7.1390   -3.2410   19.1690 C   0  0  0  0  0  0  0  0  0  0  0  0
    6.3810   -3.9850   20.2070 C   0  0  0  0  0  0  0  0  0  0  0  0
    5.3180   -4.5090   19.8750 O   0  0  0  0  0  0  0  0  0  0  0  0
    6.9140   -4.1000   21.4900 N   0  0  0  0  0  0  0  0  0  0  0  0
    7.7030   -3.0450   22.0710 C   0  0  0  0  0  0  0  0  0  0  0  0
    7.0230   -2.5730   23.3160 C   0  0  0  0  0  0  0  0  0  0  0  0
    6.6570   -3.7930   24.1490 C   0  0  0  0  0  0  0  0  0  0  0  0
    5.8740   -3.3420   25.3150 C   0  0  0  0  0  0  0  0  0  0  0  0
    5.4350   -2.1870   25.3740 O   0  0  0  0  0  0  0  0  0  0  0  0
    5.6020   -4.2410   26.3510 N   0  0  0  0  0  0  0  0  0  0  0  0
    6.0670   -4.0020   27.6880 C   0  0  0  0  0  0  0  0  0  0  0  0
    6.3380   -5.3830   28.2400 C   0  0  0  0  0  0  0  0  0  0  0  0
    5.3430   -6.1720   28.7500 C   0  0  0  0  0  0  0  0  0  0  0  0
    5.6800   -6.7340   29.9160 C   0  0  0  0  0  0  0  0  0  0  0  0
    4.8480   -7.5260   30.5750 C   0  0  0  0  0  0  0  0  0  0  0  0
    3.4910   -7.8640   30.0920 C   0  0  0  0  0  0  0  0  0  0  0  0
    3.1700   -7.2100   28.7780 C   0  0  0  0  0  0  0  0  0  0  0  0
    4.0580   -6.2730   27.9320 C   0  0  0  0  0  0  0  0  0  0  0  0
    3.5680   -5.7670   26.7400 O   0  0  0  0  0  0  0  0  0  0  0  0
    3.9610   -6.3250   25.5100 C   0  0  0  0  0  0  0  0  0  0  0  0
    2.9190   -7.2060   24.9090 C   0  0  0  0  0  0  0  0  0  0  0  0
    2.3080   -8.4620   25.5050 C   0  0  0  0  0  0  0  0  0  0  0  0
    1.2740   -9.1890   24.7310 C   0  0  0  0  0  0  0  0  0  0  0  0
    0.8400   -8.6920   23.3830 C   0  0  0  0  0  0  0  0  0  0  0  0
    1.4200   -7.5520   22.8790 C   0  0  0  0  0  0  0  0  0  0  0  0
    2.4800   -6.7950   23.6580 C   0  0  0  0  0  0  0  0  0  0  0  0
    5.7900   -4.8370   23.4240 C   0  0  0  0  0  0  0  0  0  0  0  0
    6.6280   -5.2920   22.2420 C   0  0  0  0  0  0  0  0  0  0  0  0
  1  2  1  0
  2  3  2  0
  2  4  1  0
  4  5  1  0
  5  6  1  0
  6  7  1  0
  7  8  1  0
  8  9  2  0
  8 10  1  0
 10 11  1  0
 11 12  1  0
 12 13  1  0
 13 14  2  0
 14 15  1  0
 15 16  2  0
 16 17  1  0
 13 18  1  0
 17 18  2  0
 18 19  1  0
 19 20  1  0
 20 21  1  0
 21 22  2  0
 22 23  1  0
 23 24  2  0
 24 25  1  0
 21 26  1  0
 25 26  2  0
  7 27  1  0
  4 28  1  0
 27 28  1  0
M  END
