piperidine-amides-13210-covalent
     RDKit          3D

 19 20  0  0  0  0  0  0  0  0999 V2000
    7.1070   -3.2690   19.1410 C   0  0  0  0  0  0  0  0  0  0  0  0
    6.3500   -3.9970   20.1830 C   0  0  0  0  0  0  0  0  0  0  0  0
    5.2510   -4.4770   19.8480 O   0  0  0  0  0  0  0  0  0  0  0  0
    6.8750   -4.1890   21.4660 N   0  0  0  0  0  0  0  0  0  0  0  0
    7.5980   -3.1350   22.1110 C   0  0  0  0  0  0  0  0  0  0  0  0
    7.1220   -2.7860   23.4510 C   0  0  0  0  0  0  0  0  0  0  0  0
    6.5040   -3.8960   24.2070 C   0  0  0  0  0  0  0  0  0  0  0  0
    5.7920   -3.3530   25.3910 C   0  0  0  0  0  0  0  0  0  0  0  0
    4.5470   -3.2800   25.3520 O   0  0  0  0  0  0  0  0  0  0  0  0
    6.5030   -2.9150   26.5260 N   0  0  0  0  0  0  0  0  0  0  0  0
    6.2200   -3.3460   27.9190 C   0  0  0  0  0  0  0  0  0  0  0  0
    5.5680   -4.6800   28.0510 C   0  0  0  0  0  0  0  0  0  0  0  0
    4.2020   -5.0220   27.7300 C   0  0  0  0  0  0  0  0  0  0  0  0
    3.7000   -6.2860   27.9080 C   0  0  0  0  0  0  0  0  0  0  0  0
    4.5560   -7.1900   28.5320 C   0  0  0  0  0  0  0  0  0  0  0  0
    5.5110   -6.5760   29.3080 C   0  0  0  0  0  0  0  0  0  0  0  0
    6.3980   -5.8130   28.5960 C   0  0  0  0  0  0  0  0  0  0  0  0
    5.7230   -4.8570   23.4010 C   0  0  0  0  0  0  0  0  0  0  0  0
    6.3910   -5.2840   22.2600 C   0  0  0  0  0  0  0  0  0  0  0  0
  1  2  1  0
  2  3  2  0
  2  4  1  0
  4  5  1  0
  5  6  1  0
  6  7  1  0
  7  8  1  0
  8  9  2  0
  8 10  1  0
 10 11  1  0
 11 12  1  0
 12 13  2  0
 13 14  1  0
 14 15  1  0
 15 16  1  0
 12 17  1  0
 16 17  1  0
  7 18  1  0
  4 19  1  0
 18 19  1  0
M  END
