piperidine-amides-29251-covalent
     RDKit          3D

 26 27  0  0  0  0  0  0  0  0999 V2000
    7.1820   -4.0710   19.6730 C   0  0  0  0  0  0  0  0  0  0  0  0
    6.0300   -4.0700   20.4150 C   0  0  0  0  0  0  0  0  0  0  0  0
    5.0060   -4.2030   19.7400 O   0  0  0  0  0  0  0  0  0  0  0  0
    6.1950   -4.0510   21.7980 N   0  0  0  0  0  0  0  0  0  0  0  0
    6.0930   -5.3640   22.3980 C   0  0  0  0  0  0  0  0  0  0  0  0
    5.9800   -5.2420   23.8820 C   0  0  0  0  0  0  0  0  0  0  0  0
    5.8920   -3.7630   24.1380 C   0  0  0  0  0  0  0  0  0  0  0  0
    5.4650   -3.4470   25.5320 C   0  0  0  0  0  0  0  0  0  0  0  0
    4.2810   -3.1380   25.6310 O   0  0  0  0  0  0  0  0  0  0  0  0
    6.3380   -3.5000   26.6130 N   0  0  0  0  0  0  0  0  0  0  0  0
    5.8510   -3.2430   27.9170 C   0  0  0  0  0  0  0  0  0  0  0  0
    6.1370   -4.2600   28.7980 C   0  0  0  0  0  0  0  0  0  0  0  0
    7.3700   -4.8200   28.6090 C   0  0  0  0  0  0  0  0  0  0  0  0
    7.7570   -5.3190   27.3820 C   0  0  0  0  0  0  0  0  0  0  0  0
    7.7310   -4.1490   26.4160 C   0  0  2  0  0  0  0  0  0  0  0  0
    8.6660   -2.9380   26.6260 C   0  0  0  0  0  0  0  0  0  0  0  0
    8.5880   -1.8740   25.6990 N   0  0  0  0  0  0  0  0  0  0  0  0
    9.6130   -1.8120   24.6970 C   0  0  0  0  0  0  0  0  0  0  0  0
    9.3490   -2.1310   23.5120 O   0  0  0  0  0  0  0  0  0  0  0  0
   10.9120   -1.4110   24.9190 O   0  0  0  0  0  0  0  0  0  0  0  0
   11.8740   -2.3720   24.6470 C   0  0  0  0  0  0  0  0  0  0  0  0
   11.9100   -2.4560   23.1090 C   0  0  0  0  0  0  0  0  0  0  0  0
   11.4970   -3.5600   25.2150 C   0  0  0  0  0  0  0  0  0  0  0  0
   13.3030   -2.0240   25.0190 C   0  0  0  0  0  0  0  0  0  0  0  0
    7.1250   -3.0500   23.7360 C   0  0  0  0  0  0  0  0  0  0  0  0
    7.2830   -3.2150   22.2660 C   0  0  0  0  0  0  0  0  0  0  0  0
  1  2  1  0
  2  3  2  0
  2  4  1  0
  4  5  1  0
  5  6  1  0
  6  7  1  0
  7  8  1  0
  8  9  2  0
  8 10  1  0
 10 11  1  0
 11 12  1  0
 12 13  1  0
 13 14  1  0
 10 15  1  0
 14 15  1  0
 15 16  1  1
 16 17  1  0
 17 18  1  0
 18 19  2  0
 18 20  1  0
 21 20  1  0
 21 22  1  0
 21 23  1  0
 21 24  1  0
  7 25  1  0
  4 26  1  0
 25 26  1  0
M  END
