piperidine-amides-900-covalent
     RDKit          3D

 24 26  0  0  0  0  0  0  0  0999 V2000
    7.0630   -3.3200   19.3020 C   0  0  0  0  0  0  0  0  0  0  0  0
    6.3620   -4.1590   20.3110 C   0  0  0  0  0  0  0  0  0  0  0  0
    5.3500   -4.7930   19.9670 O   0  0  0  0  0  0  0  0  0  0  0  0
    6.8950   -4.2540   21.6130 N   0  0  0  0  0  0  0  0  0  0  0  0
    7.7360   -3.1900   22.1430 C   0  0  0  0  0  0  0  0  0  0  0  0
    7.5810   -3.1440   23.6610 C   0  0  0  0  0  0  0  0  0  0  0  0
    6.2320   -3.6880   23.9380 C   0  0  0  0  0  0  0  0  0  0  0  0
    5.6410   -3.2560   25.2140 C   0  0  0  0  0  0  0  0  0  0  0  0
    4.4080   -3.2680   25.2550 O   0  0  0  0  0  0  0  0  0  0  0  0
    6.4120   -2.8540   26.3030 N   0  0  0  0  0  0  0  0  0  0  0  0
    5.8160   -2.3940   27.4950 C   0  0  2  0  0  0  0  0  0  0  0  0
    5.2760   -3.3180   28.3590 C   0  0  0  0  0  0  0  0  0  0  0  0
    4.1000   -3.0720   29.1240 C   0  0  0  0  0  0  0  0  0  0  0  0
    3.5690   -4.0100   29.9960 C   0  0  0  0  0  0  0  0  0  0  0  0
    4.2600   -5.3020   30.1210 C   0  0  0  0  0  0  0  0  0  0  0  0
    5.4980   -5.5220   29.2940 C   0  0  0  0  0  0  0  0  0  0  0  0
    6.1180   -6.8980   29.5170 C   0  0  0  0  0  0  0  0  0  0  0  0
    5.9630   -4.5240   28.4440 C   0  0  0  0  0  0  0  0  0  0  0  0
    5.1510   -1.0850   27.4100 C   0  0  0  0  0  0  0  0  0  0  0  0
    6.2380   -1.3340   28.4140 C   0  0  2  0  0  0  0  0  0  0  0  0
    7.3490   -0.6180   28.3520 C   0  0  0  0  0  0  0  0  0  0  0  0
    7.0610   -1.4010   29.6460 C   0  0  0  0  0  0  0  0  0  0  0  0
    6.1520   -5.1590   23.7550 C   0  0  0  0  0  0  0  0  0  0  0  0
    6.7200   -5.4780   22.3790 C   0  0  0  0  0  0  0  0  0  0  0  0
  1  2  1  0
  2  3  2  0
  2  4  1  0
  4  5  1  0
  5  6  1  0
  6  7  1  0
  7  8  1  0
  8  9  2  0
  8 10  1  0
 11 10  1  6
 11 12  1  0
 12 13  2  0
 13 14  1  0
 14 15  2  0
 15 16  1  0
 16 17  1  0
 12 18  1  0
 16 18  2  0
 11 19  1  0
 11 20  1  0
 19 20  1  0
 20 21  1  6
 21 22  1  0
  7 23  1  0
  4 24  1  0
 23 24  1  0
M  END
