piperidine-amides-19190-covalent
     RDKit          3D

 22 24  0  0  0  0  0  0  0  0999 V2000
    6.9890   -3.4040   19.3800 C   0  0  0  0  0  0  0  0  0  0  0  0
    6.3430   -4.2040   20.4040 C   0  0  0  0  0  0  0  0  0  0  0  0
    5.3930   -4.9490   20.0080 O   0  0  0  0  0  0  0  0  0  0  0  0
    6.7200   -4.2440   21.7720 N   0  0  0  0  0  0  0  0  0  0  0  0
    6.6470   -5.5890   22.4150 C   0  0  0  0  0  0  0  0  0  0  0  0
    6.0850   -5.2730   23.8620 C   0  0  0  0  0  0  0  0  0  0  0  0
    5.8760   -3.7850   23.9050 C   0  0  0  0  0  0  0  0  0  0  0  0
    4.9450   -3.2300   25.1010 C   0  0  0  0  0  0  0  0  0  0  0  0
    3.8840   -2.8640   24.6410 O   0  0  0  0  0  0  0  0  0  0  0  0
    5.5180   -3.3060   26.2280 N   0  0  0  0  0  0  0  0  0  0  0  0
    6.4040   -3.3230   27.2220 C   0  0  0  0  0  0  0  0  0  0  0  0
    6.5810   -4.1650   28.3180 C   0  0  0  0  0  0  0  0  0  0  0  0
    5.5860   -5.1660   28.3050 O   0  0  0  0  0  0  0  0  0  0  0  0
    4.4590   -4.5190   28.6550 C   0  0  0  0  0  0  0  0  0  0  0  0
    4.3820   -5.5140   29.8480 C   0  0  0  0  0  0  0  0  0  0  0  0
    5.5160   -5.9720   29.0840 C   0  0  0  0  0  0  0  0  0  0  0  0
    6.2080   -7.0850   29.5430 C   0  0  0  0  0  0  0  0  0  0  0  0
    6.3720   -5.8440   27.9740 C   0  0  0  0  0  0  0  0  0  0  0  0
    5.9180   -4.6690   27.1950 C   0  0  0  0  0  0  0  0  0  0  0  0
    4.7370   -3.6300   27.3720 C   0  0  0  0  0  0  0  0  0  0  0  0
    7.2030   -3.0500   23.6690 C   0  0  0  0  0  0  0  0  0  0  0  0
    7.6110   -3.2430   22.3710 C   0  0  0  0  0  0  0  0  0  0  0  0
  1  2  1  0
  2  3  2  0
  2  4  1  0
  4  5  1  0
  5  6  1  0
  6  7  1  0
  7  8  1  0
  8  9  2  0
  8 10  1  0
 10 11  1  0
 11 12  1  0
 12 13  1  0
 13 14  1  0
 14 15  2  0
 15 16  1  0
 16 17  1  0
 16 18  2  0
 18 19  1  0
 10 20  1  0
 14 20  1  0
 19 20  2  0
  7 21  1  0
  4 22  1  0
 21 22  1  0
M  END
