piperidine-amides-25845-covalent
     RDKit          3D

 25 27  0  0  0  0  0  0  0  0999 V2000
    7.0260   -3.3440   19.3790 C   0  0  0  0  0  0  0  0  0  0  0  0
    6.3610   -4.2370   20.3600 C   0  0  0  0  0  0  0  0  0  0  0  0
    5.3620   -4.8430   19.9740 O   0  0  0  0  0  0  0  0  0  0  0  0
    6.8880   -4.4000   21.6430 N   0  0  0  0  0  0  0  0  0  0  0  0
    6.6400   -5.5870   22.4270 C   0  0  0  0  0  0  0  0  0  0  0  0
    5.6760   -5.2690   23.5410 C   0  0  0  0  0  0  0  0  0  0  0  0
    5.7600   -3.7810   23.8630 C   0  0  0  0  0  0  0  0  0  0  0  0
    5.1740   -3.5560   25.2120 C   0  0  0  0  0  0  0  0  0  0  0  0
    4.3340   -2.6670   25.3750 O   0  0  0  0  0  0  0  0  0  0  0  0
    5.5800   -4.3420   26.2990 N   0  0  0  0  0  0  0  0  0  0  0  0
    4.8090   -4.6110   27.4830 C   0  0  0  0  0  0  0  0  0  0  0  0
    3.5990   -4.0580   27.9670 C   0  0  0  0  0  0  0  0  0  0  0  0
    3.3030   -4.6810   29.1890 C   0  0  0  0  0  0  0  0  0  0  0  0
    2.3280   -4.5070   29.9760 O   0  0  0  0  0  0  0  0  0  0  0  0
    1.4630   -5.5940   30.0090 C   0  0  0  0  0  0  0  0  0  0  0  0
    4.2480   -5.8430   29.8750 C   0  0  0  0  0  0  0  0  0  0  0  0
    5.6240   -6.4680   29.3070 C   0  0  0  0  0  0  0  0  0  0  0  0
    4.9100   -5.4890   28.6480 C   0  0  0  0  0  0  0  0  0  0  0  0
    6.1190   -5.9810   27.9750 N   0  0  0  0  0  0  0  0  0  0  0  0
    7.0260   -4.9310   27.8440 C   0  0  0  0  0  0  0  0  0  0  0  0
    8.0120   -4.9350   28.8090 O   0  0  0  0  0  0  0  0  0  0  0  0
    6.8170   -3.9550   26.7500 C   0  0  2  0  0  0  0  0  0  0  0  0
    6.5860   -2.5590   27.2660 C   0  0  0  0  0  0  0  0  0  0  0  0
    7.1120   -3.2150   23.6710 C   0  0  0  0  0  0  0  0  0  0  0  0
    7.6190   -3.3210   22.2800 C   0  0  0  0  0  0  0  0  0  0  0  0
  1  2  1  0
  2  3  2  0
  2  4  1  0
  4  5  1  0
  5  6  1  0
  6  7  1  0
  7  8  1  0
  8  9  2  0
  8 10  1  0
 10 11  1  0
 11 12  2  0
 12 13  1  0
 13 14  1  0
 14 15  1  0
 13 16  2  0
 16 17  1  0
 11 18  1  0
 17 18  2  0
 18 19  1  0
 19 20  1  0
 20 21  2  0
 10 22  1  0
 20 22  1  0
 22 23  1  1
  7 24  1  0
  4 25  1  0
 24 25  1  0
M  END
