piperidine-amides-35614-covalent
     RDKit          3D

 29 31  0  0  0  0  0  0  0  0999 V2000
    7.0370   -3.3220   19.2940 C   0  0  0  0  0  0  0  0  0  0  0  0
    6.3380   -4.1590   20.3030 C   0  0  0  0  0  0  0  0  0  0  0  0
    5.3120   -4.7280   19.9400 O   0  0  0  0  0  0  0  0  0  0  0  0
    6.8660   -4.3220   21.5840 N   0  0  0  0  0  0  0  0  0  0  0  0
    6.5910   -5.4960   22.3690 C   0  0  0  0  0  0  0  0  0  0  0  0
    5.7860   -5.1030   23.5750 C   0  0  0  0  0  0  0  0  0  0  0  0
    6.5290   -3.9840   24.3030 C   0  0  0  0  0  0  0  0  0  0  0  0
    5.7030   -3.5750   25.4760 C   0  0  0  0  0  0  0  0  0  0  0  0
    4.6710   -2.9290   25.2510 O   0  0  0  0  0  0  0  0  0  0  0  0
    6.0280   -3.8790   26.8330 N   0  0  0  0  0  0  0  0  0  0  0  0
    5.5500   -2.9960   27.8840 C   0  0  0  0  0  0  0  0  0  0  0  0
    5.3570   -3.7720   29.1790 C   0  0  0  0  0  0  0  0  0  0  0  0
    4.4400   -4.8920   28.9150 N   0  0  0  0  0  0  0  0  0  0  0  0
    4.1220   -5.7020   30.4060 S   0  0  0  0  0  0  0  0  0  0  0  0
    5.4450   -6.2500   30.8330 O   0  0  0  0  0  0  0  0  0  0  0  0
    3.6950   -4.6630   31.4040 O   0  0  0  0  0  0  0  0  0  0  0  0
    2.8530   -7.0380   30.2430 C   0  0  0  0  0  0  0  0  0  0  0  0
    2.8390   -7.6860   31.4100 C   0  0  0  0  0  0  0  0  0  0  0  0
    3.8960   -7.2100   32.7240 Cl  0  0  0  0  0  0  0  0  0  0  0  0
    2.0100   -8.6950   31.5490 C   0  0  0  0  0  0  0  0  0  0  0  0
    1.0680   -9.2070   30.5330 C   0  0  0  0  0  0  0  0  0  0  0  0
   -0.1140  -10.6830   30.7850 Br  0  0  0  0  0  0  0  0  0  0  0  0
    1.1720   -8.3910   29.2470 C   0  0  0  0  0  0  0  0  0  0  0  0
    2.0990   -7.1720   28.9300 C   0  0  0  0  0  0  0  0  0  0  0  0
    2.1820   -6.2600   27.4390 Cl  0  0  0  0  0  0  0  0  0  0  0  0
    5.0590   -5.8000   28.0000 C   0  0  0  0  0  0  0  0  0  0  0  0
    6.2530   -5.2130   27.4330 C   0  0  0  0  0  0  0  0  0  0  0  0
    6.9580   -2.8570   23.4470 C   0  0  0  0  0  0  0  0  0  0  0  0
    7.6560   -3.2670   22.2030 C   0  0  0  0  0  0  0  0  0  0  0  0
  1  2  1  0
  2  3  2  0
  2  4  1  0
  4  5  1  0
  5  6  1  0
  6  7  1  0
  7  8  1  0
  8  9  2  0
  8 10  1  0
 10 11  1  0
 11 12  1  0
 12 13  1  0
 13 14  1  0
 14 15  2  0
 14 16  2  0
 14 17  1  0
 17 18  2  0
 18 19  1  0
 18 20  1  0
 20 21  2  0
 21 22  1  0
 21 23  1  0
 17 24  1  0
 23 24  2  0
 24 25  1  0
 13 26  1  0
 10 27  1  0
 26 27  1  0
  7 28  1  0
  4 29  1  0
 28 29  1  0
M  END
