piperidine-amides-27738-covalent
     RDKit          3D

 26 28  0  0  0  0  0  0  0  0999 V2000
    7.1970   -4.0110   19.6550 C   0  0  0  0  0  0  0  0  0  0  0  0
    6.0130   -4.0000   20.4040 C   0  0  0  0  0  0  0  0  0  0  0  0
    4.9990   -4.2030   19.7280 O   0  0  0  0  0  0  0  0  0  0  0  0
    6.1440   -3.8710   21.7660 N   0  0  0  0  0  0  0  0  0  0  0  0
    5.9410   -5.0640   22.5360 C   0  0  0  0  0  0  0  0  0  0  0  0
    6.4650   -4.9940   23.8980 C   0  0  0  0  0  0  0  0  0  0  0  0
    6.5920   -3.6260   24.4560 C   0  0  0  0  0  0  0  0  0  0  0  0
    5.3890   -3.3210   25.2520 C   0  0  0  0  0  0  0  0  0  0  0  0
    4.3730   -2.9230   24.6650 O   0  0  0  0  0  0  0  0  0  0  0  0
    5.3750   -3.4740   26.6400 N   0  0  0  0  0  0  0  0  0  0  0  0
    4.3940   -4.3030   27.3670 C   0  0  0  0  0  0  0  0  0  0  0  0
    5.0410   -5.0790   28.4670 C   0  0  0  0  0  0  0  0  0  0  0  0
    6.4150   -4.7700   28.7520 C   0  0  0  0  0  0  0  0  0  0  0  0
    6.7330   -3.4460   28.5870 C   0  0  2  0  0  0  0  0  0  0  0  0
    5.7920   -2.8450   29.4290 N   0  0  0  0  0  0  0  0  0  0  0  0
    5.5750   -1.4090   29.3890 C   0  0  0  0  0  0  0  0  0  0  0  0
    4.7270   -0.8470   28.5690 O   0  0  0  0  0  0  0  0  0  0  0  0
    6.3350   -0.7420   30.2940 C   0  0  0  0  0  0  0  0  0  0  0  0
    7.6740   -0.6340   30.0840 C   0  0  0  0  0  0  0  0  0  0  0  0
    8.4720    0.0270   30.9650 C   0  0  0  0  0  0  0  0  0  0  0  0
    7.9800    0.6240   32.1210 C   0  0  0  0  0  0  0  0  0  0  0  0
    6.5380    0.5690   32.4550 C   0  0  0  0  0  0  0  0  0  0  0  0
    5.7550   -0.1880   31.4050 C   0  0  0  0  0  0  0  0  0  0  0  0
    6.4050   -2.8030   27.3240 C   0  0  0  0  0  0  0  0  0  0  0  0
    6.9180   -2.5580   23.5200 C   0  0  0  0  0  0  0  0  0  0  0  0
    7.2870   -3.0890   22.1790 C   0  0  0  0  0  0  0  0  0  0  0  0
  1  2  1  0
  2  3  2  0
  2  4  1  0
  4  5  1  0
  5  6  1  0
  6  7  1  0
  7  8  1  0
  8  9  2  0
  8 10  1  0
 10 11  1  0
 11 12  1  0
 12 13  1  0
 13 14  1  0
 14 15  1  1
 15 16  1  0
 16 17  2  0
 16 18  1  0
 18 19  2  0
 19 20  1  0
 20 21  2  0
 21 22  1  0
 18 23  1  0
 22 23  2  0
 10 24  1  0
 14 24  1  0
  7 25  1  0
  4 26  1  0
 25 26  1  0
M  END
