piperidine-amides-31341-covalent
     RDKit          3D

 27 28  0  0  0  0  0  0  0  0999 V2000
    7.1660   -3.3550   19.4140 C   0  0  0  0  0  0  0  0  0  0  0  0
    6.4870   -4.2130   20.3510 C   0  0  0  0  0  0  0  0  0  0  0  0
    5.4240   -4.8090   19.9800 O   0  0  0  0  0  0  0  0  0  0  0  0
    7.0130   -4.4390   21.6380 N   0  0  0  0  0  0  0  0  0  0  0  0
    7.9080   -3.4190   22.2200 C   0  0  0  0  0  0  0  0  0  0  0  0
    6.8900   -2.7490   23.1940 C   0  0  0  0  0  0  0  0  0  0  0  0
    6.4640   -3.8600   24.1150 C   0  0  0  0  0  0  0  0  0  0  0  0
    5.4710   -3.2560   25.1950 C   0  0  0  0  0  0  0  0  0  0  0  0
    4.4710   -2.8300   24.6420 O   0  0  0  0  0  0  0  0  0  0  0  0
    5.9370   -3.3540   26.3660 N   0  0  0  0  0  0  0  0  0  0  0  0
    6.4490   -2.9370   27.5390 C   0  0  0  0  0  0  0  0  0  0  0  0
    6.7010   -3.4840   28.7550 C   0  0  0  0  0  0  0  0  0  0  0  0
    5.7550   -4.4640   28.9590 C   0  0  0  0  0  0  0  0  0  0  0  0
    4.3500   -4.0550   29.2820 C   0  0  0  0  0  0  0  0  0  0  0  0
    4.6690   -2.5600   29.5330 C   0  0  0  0  0  0  0  0  0  0  0  0
    4.4530   -2.0740   30.8450 O   0  0  0  0  0  0  0  0  0  0  0  0
    3.6020   -0.9700   31.0880 C   0  0  0  0  0  0  0  0  0  0  0  0
    3.9820   -0.3520   32.2930 C   0  0  0  0  0  0  0  0  0  0  0  0
    3.2070   -0.5390   33.4220 O   0  0  0  0  0  0  0  0  0  0  0  0
    2.7330    0.5340   34.2270 C   0  0  0  0  0  0  0  0  0  0  0  0
    1.3520    0.2050   34.8800 C   0  0  0  0  0  0  0  0  0  0  0  0
    1.1110    0.6250   36.1900 O   0  0  0  0  0  0  0  0  0  0  0  0
    1.4820    1.9180   36.6330 C   0  0  0  0  0  0  0  0  0  0  0  0
    5.5930   -5.3000   27.8380 C   0  0  0  0  0  0  0  0  0  0  0  0
    5.4400   -4.7220   26.6190 C   0  0  0  0  0  0  0  0  0  0  0  0
    5.9340   -5.1360   23.5150 C   0  0  0  0  0  0  0  0  0  0  0  0
    6.6780   -5.5800   22.4230 C   0  0  0  0  0  0  0  0  0  0  0  0
  1  2  1  0
  2  3  2  0
  2  4  1  0
  4  5  1  0
  5  6  1  0
  6  7  1  0
  7  8  1  0
  8  9  2  0
  8 10  1  0
 10 11  1  0
 11 12  1  0
 12 13  1  0
 13 14  1  0
 14 15  1  0
 15 16  1  0
 16 17  1  0
 17 18  1  0
 18 19  1  0
 19 20  1  0
 20 21  1  0
 21 22  1  0
 22 23  1  0
 13 24  1  0
 10 25  1  0
 24 25  1  0
  7 26  1  0
  4 27  1  0
 26 27  1  0
M  END
