piperidine-amides-19038-covalent
     RDKit          3D

 22 24  0  0  0  0  0  0  0  0999 V2000
    7.0330   -3.3610   19.2660 C   0  0  0  0  0  0  0  0  0  0  0  0
    6.3210   -4.0930   20.2970 C   0  0  0  0  0  0  0  0  0  0  0  0
    5.2960   -4.7460   19.9390 O   0  0  0  0  0  0  0  0  0  0  0  0
    6.7140   -4.1650   21.6450 N   0  0  0  0  0  0  0  0  0  0  0  0
    6.6250   -5.5040   22.2570 C   0  0  0  0  0  0  0  0  0  0  0  0
    6.0090   -5.1570   23.6630 C   0  0  0  0  0  0  0  0  0  0  0  0
    5.9220   -3.6460   23.7530 C   0  0  0  0  0  0  0  0  0  0  0  0
    5.3560   -3.2160   25.1700 C   0  0  0  0  0  0  0  0  0  0  0  0
    4.2700   -2.6600   25.1390 O   0  0  0  0  0  0  0  0  0  0  0  0
    6.2540   -3.6100   25.9260 N   0  0  0  0  0  0  0  0  0  0  0  0
    7.3360   -4.2830   26.2500 C   0  0  0  0  0  0  0  0  0  0  0  0
    8.4250   -4.6920   25.6860 C   0  0  0  0  0  0  0  0  0  0  0  0
    9.2830   -5.3720   26.4250 C   0  0  0  0  0  0  0  0  0  0  0  0
    9.1160   -5.7020   27.8310 C   0  0  0  0  0  0  0  0  0  0  0  0
    7.8780   -5.3420   28.7510 C   0  0  0  0  0  0  0  0  0  0  0  0
    7.2280   -4.6810   27.7050 C   0  0  0  0  0  0  0  0  0  0  0  0
    6.0030   -4.2020   28.1980 C   0  0  2  0  0  0  0  0  0  0  0  0
    6.1090   -5.6670   27.7230 C   0  0  0  0  0  0  0  0  0  0  0  0
    6.2610   -3.0220   27.2440 C   0  0  1  0  0  0  0  0  0  0  0  0
    7.3850   -2.2410   27.4250 C   0  0  0  0  0  0  0  0  0  0  0  0
    7.1940   -2.8790   23.4150 C   0  0  0  0  0  0  0  0  0  0  0  0
    7.6440   -3.1960   22.1800 C   0  0  0  0  0  0  0  0  0  0  0  0
  1  2  1  0
  2  3  2  0
  2  4  1  0
  4  5  1  0
  5  6  1  0
  6  7  1  0
  7  8  1  0
  8  9  2  0
  8 10  1  0
 10 11  1  0
 11 12  2  0
 12 13  1  0
 13 14  2  0
 14 15  1  0
 11 16  1  0
 15 16  2  0
 16 17  1  0
 17 18  1  6
 10 19  1  0
 17 19  1  0
 19 20  1  1
  7 21  1  0
  4 22  1  0
 21 22  1  0
M  END
