piperidine-amides-18966-covalent
     RDKit          3D

 22 23  0  0  0  0  0  0  0  0999 V2000
    7.1740   -3.2830   19.3000 C   0  0  0  0  0  0  0  0  0  0  0  0
    6.4000   -4.0530   20.2450 C   0  0  0  0  0  0  0  0  0  0  0  0
    5.2920   -4.5530   19.8800 O   0  0  0  0  0  0  0  0  0  0  0  0
    6.8790   -4.3030   21.5360 N   0  0  0  0  0  0  0  0  0  0  0  0
    6.4280   -5.5300   22.2300 C   0  0  0  0  0  0  0  0  0  0  0  0
    5.4380   -4.8890   23.2690 C   0  0  0  0  0  0  0  0  0  0  0  0
    6.3310   -4.0060   24.0960 C   0  0  0  0  0  0  0  0  0  0  0  0
    5.6550   -3.5090   25.4370 C   0  0  0  0  0  0  0  0  0  0  0  0
    4.6260   -4.1170   25.6940 O   0  0  0  0  0  0  0  0  0  0  0  0
    6.3860   -2.5830   25.8720 N   0  0  0  0  0  0  0  0  0  0  0  0
    7.3360   -1.6450   25.8670 C   0  0  0  0  0  0  0  0  0  0  0  0
    5.8670   -2.2370   27.1170 C   0  0  0  0  0  0  0  0  0  0  0  0
    5.0320   -1.1030   27.1150 C   0  0  0  0  0  0  0  0  0  0  0  0
    3.6730   -1.2190   26.4750 C   0  0  0  0  0  0  0  0  0  0  0  0
    2.8050    0.0650   26.4980 C   0  0  0  0  0  0  0  0  0  0  0  0
    3.4580    1.1170   27.1220 C   0  0  0  0  0  0  0  0  0  0  0  0
    3.2620    2.4630   27.4620 C   0  0  0  0  0  0  0  0  0  0  0  0
    2.2230    3.1610   26.9920 N   0  0  0  0  0  0  0  0  0  0  0  0
    4.7720    1.2990   27.7630 C   0  0  0  0  0  0  0  0  0  0  0  0
    5.7050    0.0760   27.7880 C   0  0  0  0  0  0  0  0  0  0  0  0
    6.8480   -2.8330   23.2570 C   0  0  0  0  0  0  0  0  0  0  0  0
    7.6370   -3.2990   22.2600 C   0  0  0  0  0  0  0  0  0  0  0  0
  1  2  1  0
  2  3  2  0
  2  4  1  0
  4  5  1  0
  5  6  1  0
  6  7  1  0
  7  8  1  0
  8  9  2  0
  8 10  1  0
 10 11  1  0
 10 12  1  0
 12 13  1  0
 13 14  2  0
 14 15  1  0
 15 16  2  0
 16 17  1  0
 17 18  3  0
 16 19  1  0
 13 20  1  0
 19 20  2  0
  7 21  1  0
  4 22  1  0
 21 22  1  0
M  END
