piperidine-amides-25010-covalent
     RDKit          3D

 23 24  0  0  0  0  0  0  0  0999 V2000
    7.0870   -3.2850   19.2370 C   0  0  0  0  0  0  0  0  0  0  0  0
    6.3580   -4.0810   20.2360 C   0  0  0  0  0  0  0  0  0  0  0  0
    5.2960   -4.6550   19.9210 O   0  0  0  0  0  0  0  0  0  0  0  0
    6.8650   -4.2600   21.5310 N   0  0  0  0  0  0  0  0  0  0  0  0
    7.6460   -3.2190   22.1630 C   0  0  0  0  0  0  0  0  0  0  0  0
    6.8440   -2.7420   23.3740 C   0  0  0  0  0  0  0  0  0  0  0  0
    6.6830   -3.9480   24.2770 C   0  0  0  0  0  0  0  0  0  0  0  0
    5.8900   -3.5510   25.4590 C   0  0  0  0  0  0  0  0  0  0  0  0
    4.6460   -3.6960   25.4220 O   0  0  0  0  0  0  0  0  0  0  0  0
    6.5450   -2.9990   26.5840 N   0  0  0  0  0  0  0  0  0  0  0  0
    6.4170   -3.5600   27.9140 C   0  0  0  0  0  0  0  0  0  0  0  0
    6.7970   -5.0330   27.9690 C   0  0  0  0  0  0  0  0  0  0  0  0
    6.3380   -5.4870   29.2380 O   0  0  0  0  0  0  0  0  0  0  0  0
    6.0410   -6.7920   29.5110 C   0  0  0  0  0  0  0  0  0  0  0  0
    6.5650   -1.7010   27.2000 C   0  0  0  0  0  0  0  0  0  0  0  0
    5.6420   -0.9600   26.4630 C   0  0  0  0  0  0  0  0  0  0  0  0
    3.9520   -1.0570   26.1280 S   0  0  0  0  0  0  0  0  0  0  0  0
    4.0520    0.3950   25.1430 C   0  0  0  0  0  0  0  0  0  0  0  0
    5.2510    1.0350   24.9820 N   0  0  0  0  0  0  0  0  0  0  0  0
    6.1390    0.2830   25.7150 C   0  0  0  0  0  0  0  0  0  0  0  0
    7.5520    0.7880   25.6970 C   0  0  0  0  0  0  0  0  0  0  0  0
    6.0020   -5.0830   23.6230 C   0  0  0  0  0  0  0  0  0  0  0  0
    6.4900   -5.4020   22.2850 C   0  0  0  0  0  0  0  0  0  0  0  0
  1  2  1  0
  2  3  2  0
  2  4  1  0
  4  5  1  0
  5  6  1  0
  6  7  1  0
  7  8  1  0
  8  9  2  0
  8 10  1  0
 10 11  1  0
 11 12  1  0
 12 13  1  0
 13 14  1  0
 10 15  1  0
 15 16  1  0
 16 17  1  0
 17 18  1  0
 18 19  2  0
 16 20  2  0
 19 20  1  0
 20 21  1  0
  7 22  1  0
  4 23  1  0
 22 23  1  0
M  END
