piperidine-amides-14786-covalent
     RDKit          3D

 22 23  0  0  0  0  0  0  0  0999 V2000
    7.0850   -3.3450   19.3230 C   0  0  0  0  0  0  0  0  0  0  0  0
    6.3620   -4.1370   20.3140 C   0  0  0  0  0  0  0  0  0  0  0  0
    5.3350   -4.7390   19.9510 O   0  0  0  0  0  0  0  0  0  0  0  0
    6.8630   -4.2460   21.6350 N   0  0  0  0  0  0  0  0  0  0  0  0
    7.6860   -3.1950   22.1680 C   0  0  0  0  0  0  0  0  0  0  0  0
    7.0010   -2.5910   23.3480 C   0  0  0  0  0  0  0  0  0  0  0  0
    6.6010   -3.7610   24.2020 C   0  0  0  0  0  0  0  0  0  0  0  0
    5.7660   -3.2920   25.3550 C   0  0  0  0  0  0  0  0  0  0  0  0
    4.5620   -3.1700   25.1360 O   0  0  0  0  0  0  0  0  0  0  0  0
    6.3840   -3.0570   26.5800 N   0  0  0  0  0  0  0  0  0  0  0  0
    6.4430   -1.7810   27.2420 C   0  0  0  0  0  0  0  0  0  0  0  0
    6.9770   -1.6940   28.5190 C   0  0  0  0  0  0  0  0  0  0  0  0
    7.0560   -0.5160   29.2170 C   0  0  0  0  0  0  0  0  0  0  0  0
    6.6180    0.7310   28.7540 C   0  0  0  0  0  0  0  0  0  0  0  0
    6.0260    0.7320   27.3690 C   0  0  0  0  0  0  0  0  0  0  0  0
    5.9410   -0.5940   26.5820 C   0  0  0  0  0  0  0  0  0  0  0  0
    5.3380   -0.4550   25.2360 C   0  0  0  0  0  0  0  0  0  0  0  0
    3.8980    0.4740   25.1280 S   0  0  0  0  0  0  0  0  0  0  0  0
    3.0570   -0.1720   26.5680 C   0  0  0  0  0  0  0  0  0  0  0  0
    4.2440    1.9410   25.2360 O   0  0  0  0  0  0  0  0  0  0  0  0
    5.8560   -4.8520   23.5410 C   0  0  0  0  0  0  0  0  0  0  0  0
    6.5770   -5.3740   22.4910 C   0  0  0  0  0  0  0  0  0  0  0  0
  1  2  1  0
  2  3  2  0
  2  4  1  0
  4  5  1  0
  5  6  1  0
  6  7  1  0
  7  8  1  0
  8  9  2  0
  8 10  1  0
 10 11  1  0
 11 12  2  0
 12 13  1  0
 13 14  2  0
 14 15  1  0
 11 16  1  0
 15 16  2  0
 16 17  1  0
 18 17  1  0
 18 19  1  1
 18 20  2  0
  7 21  1  0
  4 22  1  0
 21 22  1  0
M  END
