piperidine-amides-24479-covalent
     RDKit          3D

 24 26  0  0  0  0  0  0  0  0999 V2000
    7.0490   -3.3470   19.3540 C   0  0  0  0  0  0  0  0  0  0  0  0
    6.3860   -4.2140   20.3410 C   0  0  0  0  0  0  0  0  0  0  0  0
    5.3820   -4.8730   19.9920 O   0  0  0  0  0  0  0  0  0  0  0  0
    6.8900   -4.3630   21.6480 N   0  0  0  0  0  0  0  0  0  0  0  0
    6.5690   -5.5380   22.4080 C   0  0  0  0  0  0  0  0  0  0  0  0
    5.5480   -5.0760   23.4540 C   0  0  0  0  0  0  0  0  0  0  0  0
    6.2060   -3.9910   24.2930 C   0  0  0  0  0  0  0  0  0  0  0  0
    5.1460   -3.3890   25.1590 C   0  0  0  0  0  0  0  0  0  0  0  0
    4.0610   -3.1170   24.6190 O   0  0  0  0  0  0  0  0  0  0  0  0
    5.3410   -3.1260   26.5440 N   0  0  0  0  0  0  0  0  0  0  0  0
    4.3950   -3.5580   27.5810 C   0  0  0  0  0  0  0  0  0  0  0  0
    5.0230   -4.5400   28.5670 C   0  0  1  0  0  0  0  0  0  0  0  0
    4.5050   -5.8310   28.3200 O   0  0  0  0  0  0  0  0  0  0  0  0
    5.2940   -6.9340   28.1450 C   0  0  0  0  0  0  0  0  0  0  0  0
    6.4370   -4.4240   28.1870 C   0  0  0  0  0  0  0  0  0  0  0  0
    6.4440   -3.2850   27.4080 C   0  0  2  0  0  0  0  0  0  0  0  0
    6.3840   -2.0740   28.0650 C   0  0  0  0  0  0  0  0  0  0  0  0
    7.0950   -1.7490   29.1390 N   0  0  0  0  0  0  0  0  0  0  0  0
    6.6860   -0.4980   29.4020 C   0  0  0  0  0  0  0  0  0  0  0  0
    7.3670    0.0880   30.6130 C   0  0  0  0  0  0  0  0  0  0  0  0
    5.7510   -0.0990   28.4850 N   0  0  0  0  0  0  0  0  0  0  0  0
    5.5580   -1.0780   27.6480 O   0  0  0  0  0  0  0  0  0  0  0  0
    6.8730   -2.8990   23.5330 C   0  0  0  0  0  0  0  0  0  0  0  0
    7.5850   -3.3140   22.3140 C   0  0  0  0  0  0  0  0  0  0  0  0
  1  2  1  0
  2  3  2  0
  2  4  1  0
  4  5  1  0
  5  6  1  0
  6  7  1  0
  7  8  1  0
  8  9  2  0
  8 10  1  0
 10 11  1  0
 11 12  1  0
 12 13  1  6
 13 14  1  0
 12 15  1  0
 10 16  1  0
 15 16  1  0
 16 17  1  1
 17 18  2  0
 18 19  1  0
 19 20  1  0
 19 21  2  0
 17 22  1  0
 21 22  1  0
  7 23  1  0
  4 24  1  0
 23 24  1  0
M  END
