piperidine-amides-12609-covalent
     RDKit          3D

 23 24  0  0  0  0  0  0  0  0999 V2000
    7.1060   -3.3190   19.2280 C   0  0  0  0  0  0  0  0  0  0  0  0
    6.4280   -4.1100   20.2790 C   0  0  0  0  0  0  0  0  0  0  0  0
    5.3590   -4.6610   19.9370 O   0  0  0  0  0  0  0  0  0  0  0  0
    6.9910   -4.2780   21.5640 N   0  0  0  0  0  0  0  0  0  0  0  0
    7.7470   -3.2200   22.1780 C   0  0  0  0  0  0  0  0  0  0  0  0
    7.1450   -2.7450   23.4130 C   0  0  0  0  0  0  0  0  0  0  0  0
    5.8590   -3.4090   23.6690 C   0  0  0  0  0  0  0  0  0  0  0  0
    5.1580   -2.8370   24.8430 C   0  0  0  0  0  0  0  0  0  0  0  0
    4.2030   -2.0790   24.6280 O   0  0  0  0  0  0  0  0  0  0  0  0
    5.4850   -3.1130   26.1660 N   0  0  0  0  0  0  0  0  0  0  0  0
    4.4430   -3.6610   27.0580 C   0  0  0  0  0  0  0  0  0  0  0  0
    4.9940   -4.8550   27.6680 C   0  0  1  0  0  0  0  0  0  0  0  0
    5.5760   -5.9290   26.8760 C   0  0  0  0  0  0  0  0  0  0  0  0
    6.3940   -4.9130   27.7490 C   0  0  0  0  0  0  0  0  0  0  0  0
    7.0910   -6.0200   27.3990 C   0  0  0  0  0  0  0  0  0  0  0  0
    8.4350   -6.0110   27.4820 C   0  0  0  0  0  0  0  0  0  0  0  0
    9.0730   -4.9080   27.9140 C   0  0  0  0  0  0  0  0  0  0  0  0
   10.4280   -4.9920   27.9790 F   0  0  0  0  0  0  0  0  0  0  0  0
    8.3860   -3.7900   28.2600 C   0  0  0  0  0  0  0  0  0  0  0  0
    9.0150   -2.6540   28.6910 F   0  0  0  0  0  0  0  0  0  0  0  0
    7.0490   -3.8220   28.1710 C   0  0  0  0  0  0  0  0  0  0  0  0
    5.9020   -4.8920   23.6630 C   0  0  0  0  0  0  0  0  0  0  0  0
    6.6310   -5.3980   22.4300 C   0  0  0  0  0  0  0  0  0  0  0  0
  1  2  1  0
  2  3  2  0
  2  4  1  0
  4  5  1  0
  5  6  1  0
  6  7  1  0
  7  8  1  0
  8  9  2  0
  8 10  1  0
 10 11  1  0
 11 12  1  0
 12 13  1  6
 12 14  1  0
 14 15  2  0
 15 16  1  0
 16 17  2  0
 17 18  1  0
 17 19  1  0
 19 20  1  0
 14 21  1  0
 19 21  2  0
  7 22  1  0
  4 23  1  0
 22 23  1  0
M  END
