piperidine-amides-9936-covalent
     RDKit          3D

 27 29  0  0  0  0  0  0  0  0999 V2000
    7.0330   -3.3380   19.3280 C   0  0  0  0  0  0  0  0  0  0  0  0
    6.3680   -4.1630   20.3460 C   0  0  0  0  0  0  0  0  0  0  0  0
    5.3540   -4.8010   19.9680 O   0  0  0  0  0  0  0  0  0  0  0  0
    6.8770   -4.2580   21.6460 N   0  0  0  0  0  0  0  0  0  0  0  0
    7.7490   -3.2310   22.1820 C   0  0  0  0  0  0  0  0  0  0  0  0
    7.3580   -2.9600   23.5990 C   0  0  0  0  0  0  0  0  0  0  0  0
    6.0060   -3.5290   23.9110 C   0  0  0  0  0  0  0  0  0  0  0  0
    5.6100   -3.1690   25.2830 C   0  0  0  0  0  0  0  0  0  0  0  0
    4.3950   -3.1390   25.5710 O   0  0  0  0  0  0  0  0  0  0  0  0
    6.5640   -2.8630   26.2630 N   0  0  0  0  0  0  0  0  0  0  0  0
    6.4740   -1.7190   27.1290 C   0  0  0  0  0  0  0  0  0  0  0  0
    5.8000   -0.4240   26.7090 C   0  0  0  0  0  0  0  0  0  0  0  0
    5.7550    0.6490   27.6170 C   0  0  0  0  0  0  0  0  0  0  0  0
    6.3230    0.5610   28.9200 C   0  0  0  0  0  0  0  0  0  0  0  0
    6.1990    1.6340   29.6560 O   0  0  0  0  0  0  0  0  0  0  0  0
    6.4100    1.2820   30.8960 C   0  0  0  0  0  0  0  0  0  0  0  0
    7.5900    0.8390   31.4850 C   0  0  0  0  0  0  0  0  0  0  0  0
    7.6460    0.4950   32.8200 C   0  0  0  0  0  0  0  0  0  0  0  0
    6.4720    0.5590   33.7550 C   0  0  0  0  0  0  0  0  0  0  0  0
    6.5160    0.2220   35.0610 O   0  0  0  0  0  0  0  0  0  0  0  0
    6.4790    1.2120   36.1080 C   0  0  0  0  0  0  0  0  0  0  0  0
    5.3320    1.0020   33.1300 C   0  0  0  0  0  0  0  0  0  0  0  0
    5.2640    1.3840   31.6570 C   0  0  0  0  0  0  0  0  0  0  0  0
    6.9380   -0.5710   29.3460 N   0  0  0  0  0  0  0  0  0  0  0  0
    6.9330   -1.5650   28.3930 C   0  0  0  0  0  0  0  0  0  0  0  0
    6.0690   -5.0450   23.7650 C   0  0  0  0  0  0  0  0  0  0  0  0
    6.7160   -5.4590   22.4470 C   0  0  0  0  0  0  0  0  0  0  0  0
  1  2  1  0
  2  3  2  0
  2  4  1  0
  4  5  1  0
  5  6  1  0
  6  7  1  0
  7  8  1  0
  8  9  2  0
  8 10  1  0
 10 11  1  0
 11 12  2  0
 12 13  1  0
 13 14  2  0
 14 15  1  0
 15 16  1  0
 16 17  2  0
 17 18  1  0
 18 19  2  0
 19 20  1  0
 20 21  1  0
 19 22  1  0
 16 23  1  0
 22 23  2  0
 14 24  1  0
 11 25  1  0
 24 25  2  0
  7 26  1  0
  4 27  1  0
 26 27  1  0
M  END
