piperidine-amides-28698-covalent
     RDKit          3D

 26 28  0  0  0  0  0  0  0  0999 V2000
    7.0730   -3.3330   19.3350 C   0  0  0  0  0  0  0  0  0  0  0  0
    6.4270   -4.1870   20.3300 C   0  0  0  0  0  0  0  0  0  0  0  0
    5.4010   -4.8030   19.9780 O   0  0  0  0  0  0  0  0  0  0  0  0
    6.9960   -4.3430   21.6300 N   0  0  0  0  0  0  0  0  0  0  0  0
    7.6500   -3.2410   22.2550 C   0  0  0  0  0  0  0  0  0  0  0  0
    6.7460   -2.6710   23.3050 C   0  0  0  0  0  0  0  0  0  0  0  0
    6.3540   -3.7580   24.3020 C   0  0  0  0  0  0  0  0  0  0  0  0
    5.3820   -3.1580   25.2850 C   0  0  0  0  0  0  0  0  0  0  0  0
    4.3690   -2.7060   24.7620 O   0  0  0  0  0  0  0  0  0  0  0  0
    5.6040   -3.1350   26.6740 N   0  0  0  0  0  0  0  0  0  0  0  0
    6.0470   -4.3150   27.3130 C   0  0  0  0  0  0  0  0  0  0  0  0
    5.1760   -5.1470   28.0030 C   0  0  0  0  0  0  0  0  0  0  0  0
    5.7390   -6.2800   28.5480 C   0  0  0  0  0  0  0  0  0  0  0  0
    4.7010   -2.2480   27.3790 C   0  0  0  0  0  0  0  0  0  0  0  0
    5.1550   -0.8430   27.6240 C   0  0  2  0  0  0  0  0  0  0  0  0
    6.1970   -0.7960   28.7800 C   0  0  0  0  0  0  0  0  0  0  0  0
    6.5780    0.5820   29.1920 C   0  0  0  0  0  0  0  0  0  0  0  0
    5.2600    1.2730   29.3120 C   0  0  0  0  0  0  0  0  0  0  0  0
    4.6190    1.3310   28.1450 N   0  0  0  0  0  0  0  0  0  0  0  0
    5.0840    2.1160   27.0380 C   0  0  0  0  0  0  0  0  0  0  0  0
    4.1960    2.4150   26.0410 C   0  0  0  0  0  0  0  0  0  0  0  0
    3.1110    1.5980   25.8810 C   0  0  0  0  0  0  0  0  0  0  0  0
    3.1450    0.2930   26.6380 C   0  0  0  0  0  0  0  0  0  0  0  0
    4.1260    0.0730   27.7680 C   0  0  1  0  0  0  0  0  0  0  0  0
    5.6700   -4.9220   23.5660 C   0  0  0  0  0  0  0  0  0  0  0  0
    6.5570   -5.4530   22.4310 C   0  0  0  0  0  0  0  0  0  0  0  0
  1  2  1  0
  2  3  2  0
  2  4  1  0
  4  5  1  0
  5  6  1  0
  6  7  1  0
  7  8  1  0
  8  9  2  0
  8 10  1  0
 10 11  1  0
 11 12  1  0
 12 13  1  0
 10 14  1  0
 15 14  1  1
 15 16  1  0
 16 17  1  0
 17 18  1  0
 18 19  1  0
 19 20  1  0
 20 21  1  0
 21 22  1  0
 22 23  1  0
 15 24  1  0
 19 24  1  0
 24 23  1  6
  7 25  1  0
  4 26  1  0
 25 26  1  0
M  END
