piperidine-amides-24243-covalent
     RDKit          3D

 23 25  0  0  0  0  0  0  0  0999 V2000
    7.0690   -3.3920   19.3740 C   0  0  0  0  0  0  0  0  0  0  0  0
    6.3660   -4.2590   20.3220 C   0  0  0  0  0  0  0  0  0  0  0  0
    5.3210   -4.8440   19.9760 O   0  0  0  0  0  0  0  0  0  0  0  0
    6.9000   -4.4830   21.5930 N   0  0  0  0  0  0  0  0  0  0  0  0
    7.5870   -3.3940   22.2270 C   0  0  0  0  0  0  0  0  0  0  0  0
    6.6160   -2.9700   23.3100 C   0  0  0  0  0  0  0  0  0  0  0  0
    6.5250   -4.1670   24.2190 C   0  0  0  0  0  0  0  0  0  0  0  0
    5.8140   -3.7670   25.4420 C   0  0  0  0  0  0  0  0  0  0  0  0
    4.5630   -3.8040   25.4590 O   0  0  0  0  0  0  0  0  0  0  0  0
    6.5680   -3.3250   26.5520 N   0  0  0  0  0  0  0  0  0  0  0  0
    7.5660   -4.1850   27.1340 C   0  0  0  0  0  0  0  0  0  0  0  0
    6.8060   -1.9070   26.5740 C   0  0  0  0  0  0  0  0  0  0  0  0
    7.4000   -1.5480   25.3920 C   0  0  0  0  0  0  0  0  0  0  0  0
    8.4990   -2.1540   24.9110 C   0  0  0  0  0  0  0  0  0  0  0  0
    8.9630   -1.6870   23.7350 C   0  0  0  0  0  0  0  0  0  0  0  0
    8.3420   -0.6640   23.0910 C   0  0  0  0  0  0  0  0  0  0  0  0
    7.1040    0.2000   23.3850 C   0  0  0  0  0  0  0  0  0  0  0  0
    6.3240    1.5110   22.5420 Cl  0  0  0  0  0  0  0  0  0  0  0  0
    6.7570   -0.5010   24.7360 C   0  0  0  0  0  0  0  0  0  0  0  0
    5.8260   -1.0640   27.2010 C   0  0  0  0  0  0  0  0  0  0  0  0
    6.9440   -1.1370   27.8170 C   0  0  0  0  0  0  0  0  0  0  0  0
    5.7470   -5.2260   23.4940 C   0  0  0  0  0  0  0  0  0  0  0  0
    6.4160   -5.5950   22.3520 C   0  0  0  0  0  0  0  0  0  0  0  0
  1  2  1  0
  2  3  2  0
  2  4  1  0
  4  5  1  0
  5  6  1  0
  6  7  1  0
  7  8  1  0
  8  9  2  0
  8 10  1  0
 10 11  1  0
 12 10  1  0
 12 13  1  0
 13 14  2  0
 14 15  1  0
 15 16  2  0
 16 17  1  0
 17 18  1  0
 13 19  1  0
 17 19  2  0
 12 20  1  0
 12 21  1  0
 20 21  1  0
  7 22  1  0
  4 23  1  0
 22 23  1  0
M  END
