piperidine-amides-26833-covalent
     RDKit          3D

 25 27  0  0  0  0  0  0  0  0999 V2000
    7.0820   -3.3710   19.3700 C   0  0  0  0  0  0  0  0  0  0  0  0
    6.3770   -4.1940   20.3530 C   0  0  0  0  0  0  0  0  0  0  0  0
    5.3220   -4.7450   19.9530 O   0  0  0  0  0  0  0  0  0  0  0  0
    6.9030   -4.3910   21.6370 N   0  0  0  0  0  0  0  0  0  0  0  0
    6.5230   -5.5280   22.4300 C   0  0  0  0  0  0  0  0  0  0  0  0
    5.6030   -5.0270   23.5120 C   0  0  0  0  0  0  0  0  0  0  0  0
    6.2110   -3.9220   24.3500 C   0  0  0  0  0  0  0  0  0  0  0  0
    5.1640   -3.3730   25.2750 C   0  0  0  0  0  0  0  0  0  0  0  0
    3.9960   -3.3460   24.8570 O   0  0  0  0  0  0  0  0  0  0  0  0
    5.4000   -2.8710   26.5880 N   0  0  0  0  0  0  0  0  0  0  0  0
    6.6350   -3.0460   27.1540 C   0  0  0  0  0  0  0  0  0  0  0  0
    6.4300   -4.2250   28.0590 C   0  0  0  0  0  0  0  0  0  0  0  0
    5.1810   -4.3450   28.5640 C   0  0  2  0  0  0  0  0  0  0  0  0
    4.3430   -5.3610   28.2100 N   0  0  0  0  0  0  0  0  0  0  0  0
    4.4790   -6.6160   28.7000 C   0  0  0  0  0  0  0  0  0  0  0  0
    3.7080   -6.9080   29.8300 C   0  0  0  0  0  0  0  0  0  0  0  0
    2.3420   -6.5070   29.6220 N   0  0  0  0  0  0  0  0  0  0  0  0
    1.4060   -7.1510   30.5230 C   0  0  0  0  0  0  0  0  0  0  0  0
    0.4450   -8.1200   30.3230 C   0  0  0  0  0  0  0  0  0  0  0  0
    1.7090   -8.6470   30.6920 C   0  0  0  0  0  0  0  0  0  0  0  0
    2.0020   -5.6700   28.6350 C   0  0  0  0  0  0  0  0  0  0  0  0
    3.0280   -4.7860   27.9800 C   0  0  0  0  0  0  0  0  0  0  0  0
    4.8670   -2.9470   27.9710 C   0  0  0  0  0  0  0  0  0  0  0  0
    6.8440   -2.8330   23.5400 C   0  0  0  0  0  0  0  0  0  0  0  0
    7.5870   -3.3210   22.3070 C   0  0  0  0  0  0  0  0  0  0  0  0
  1  2  1  0
  2  3  2  0
  2  4  1  0
  4  5  1  0
  5  6  1  0
  6  7  1  0
  7  8  1  0
  8  9  2  0
  8 10  1  0
 10 11  1  0
 11 12  1  0
 12 13  1  0
 13 14  1  6
 14 15  1  0
 15 16  1  0
 16 17  1  0
 17 18  1  0
 18 19  1  0
 18 20  1  0
 17 21  1  0
 14 22  1  0
 21 22  1  0
 10 23  1  0
 13 23  1  0
  7 24  1  0
  4 25  1  0
 24 25  1  0
M  END
