piperidine-amides-35220-covalent
     RDKit          3D

 33 36  0  0  0  0  0  0  0  0999 V2000
    7.0700   -3.3390   19.3240 C   0  0  0  0  0  0  0  0  0  0  0  0
    6.4030   -4.2120   20.3200 C   0  0  0  0  0  0  0  0  0  0  0  0
    5.3610   -4.7610   19.9610 O   0  0  0  0  0  0  0  0  0  0  0  0
    6.9810   -4.4360   21.5750 N   0  0  0  0  0  0  0  0  0  0  0  0
    6.6470   -5.6060   22.3320 C   0  0  0  0  0  0  0  0  0  0  0  0
    5.7810   -5.1810   23.4800 C   0  0  0  0  0  0  0  0  0  0  0  0
    6.4020   -3.9760   24.1930 C   0  0  0  0  0  0  0  0  0  0  0  0
    5.3970   -3.4600   25.1450 C   0  0  0  0  0  0  0  0  0  0  0  0
    4.4450   -2.8120   24.7080 O   0  0  0  0  0  0  0  0  0  0  0  0
    5.4910   -3.6820   26.5230 N   0  0  0  0  0  0  0  0  0  0  0  0
    6.4670   -2.9690   27.2080 C   0  0  0  0  0  0  0  0  0  0  0  0
    6.7240   -3.8950   28.3720 C   0  0  0  0  0  0  0  0  0  0  0  0
    5.7310   -4.0900   29.2350 C   0  0  0  0  0  0  0  0  0  0  0  0
    5.3170   -2.8950   29.7450 C   0  0  0  0  0  0  0  0  0  0  0  0
    5.8300   -1.5680   29.6140 N   0  0  0  0  0  0  0  0  0  0  0  0
    5.1080   -0.6750   30.2990 N   0  0  0  0  0  0  0  0  0  0  0  0
    4.0090   -1.4110   30.9620 C   0  0  0  0  0  0  0  0  0  0  0  0
    4.2600   -2.7530   30.5350 N   0  0  0  0  0  0  0  0  0  0  0  0
    3.3920   -3.7730   30.9840 C   0  0  0  0  0  0  0  0  0  0  0  0
    2.9180   -3.5230   32.3890 C   0  0  0  0  0  0  0  0  0  0  0  0
    2.4060   -2.1890   32.5890 N   0  0  0  0  0  0  0  0  0  0  0  0
    1.6500   -1.9440   33.7510 C   0  0  0  0  0  0  0  0  0  0  0  0
    0.8180   -2.9200   34.2660 O   0  0  0  0  0  0  0  0  0  0  0  0
    1.7170   -0.7210   34.4130 O   0  0  0  0  0  0  0  0  0  0  0  0
    1.0890   -0.4210   35.6290 C   0  0  0  0  0  0  0  0  0  0  0  0
    2.1220   -0.3990   36.7090 C   0  0  0  0  0  0  0  0  0  0  0  0
   -0.1330   -1.1490   36.0930 C   0  0  0  0  0  0  0  0  0  0  0  0
    0.9580    1.0750   35.8250 C   0  0  0  0  0  0  0  0  0  0  0  0
    2.8820   -1.0290   31.8500 C   0  0  0  0  0  0  0  0  0  0  0  0
    4.7570   -4.7730   28.5560 C   0  0  0  0  0  0  0  0  0  0  0  0
    4.3440   -4.0550   27.2840 C   0  0  0  0  0  0  0  0  0  0  0  0
    6.7930   -2.8000   23.2900 C   0  0  0  0  0  0  0  0  0  0  0  0
    7.7090   -3.3670   22.2230 C   0  0  0  0  0  0  0  0  0  0  0  0
  1  2  1  0
  2  3  2  0
  2  4  1  0
  4  5  1  0
  5  6  1  0
  6  7  1  0
  7  8  1  0
  8  9  2  0
  8 10  1  0
 10 11  1  0
 11 12  1  0
 12 13  1  0
 13 14  1  0
 14 15  2  0
 15 16  1  0
 16 17  2  0
 14 18  1  0
 17 18  1  0
 18 19  1  0
 19 20  1  0
 20 21  1  0
 21 22  1  0
 22 23  2  0
 22 24  1  0
 25 24  1  0
 25 26  1  0
 25 27  1  0
 25 28  1  0
 17 29  1  0
 21 29  1  0
 13 30  1  0
 10 31  1  0
 30 31  1  0
  7 32  1  0
  4 33  1  0
 32 33  1  0
M  END
