piperidine-amides-406-covalent
     RDKit          3D

 28 30  0  0  0  0  0  0  0  0999 V2000
    7.1510   -3.2870   19.3570 C   0  0  0  0  0  0  0  0  0  0  0  0
    6.3920   -4.0680   20.3140 C   0  0  0  0  0  0  0  0  0  0  0  0
    5.3370   -4.6580   19.9210 O   0  0  0  0  0  0  0  0  0  0  0  0
    6.8010   -4.2240   21.6530 N   0  0  0  0  0  0  0  0  0  0  0  0
    7.7760   -3.1950   22.1490 C   0  0  0  0  0  0  0  0  0  0  0  0
    7.6090   -3.1520   23.7240 C   0  0  0  0  0  0  0  0  0  0  0  0
    6.2680   -3.7540   24.0200 C   0  0  0  0  0  0  0  0  0  0  0  0
    5.6020   -3.1700   25.3360 C   0  0  0  0  0  0  0  0  0  0  0  0
    5.0710   -2.1010   25.0780 O   0  0  0  0  0  0  0  0  0  0  0  0
    5.7640   -3.9510   26.3320 N   0  0  0  0  0  0  0  0  0  0  0  0
    5.8030   -4.7050   27.4750 C   0  0  1  0  0  0  0  0  0  0  0  0
    6.4300   -5.7620   28.1020 C   0  0  0  0  0  0  0  0  0  0  0  0
    5.5420   -6.5720   28.8490 C   0  0  0  0  0  0  0  0  0  0  0  0
    6.1180   -4.0790   28.8310 C   0  0  1  0  0  0  0  0  0  0  0  0
    6.0870   -2.5420   28.8890 C   0  0  0  0  0  0  0  0  0  0  0  0
    5.3280   -2.1540   30.0770 N   0  0  0  0  0  0  0  0  0  0  0  0
    5.4340   -0.7810   30.4430 C   0  0  0  0  0  0  0  0  0  0  0  0
    4.1780   -0.2490   30.7570 C   0  0  0  0  0  0  0  0  0  0  0  0
    5.7000    0.0230   30.9680 C   0  0  0  0  0  0  0  0  0  0  0  0
    6.2120    1.2490   31.7720 C   0  0  0  0  0  0  0  0  0  0  0  0
    5.3160    2.0890   32.2930 C   0  0  0  0  0  0  0  0  0  0  0  0
    4.0010    1.8620   32.1160 C   0  0  0  0  0  0  0  0  0  0  0  0
    3.5130    0.7910   31.4130 C   0  0  0  0  0  0  0  0  0  0  0  0
    3.9800   -2.6530   29.9050 C   0  0  0  0  0  0  0  0  0  0  0  0
    3.9520   -4.0020   29.5760 C   0  0  0  0  0  0  0  0  0  0  0  0
    5.1760   -4.4540   29.7900 O   0  0  0  0  0  0  0  0  0  0  0  0
    6.1430   -5.1930   23.7430 C   0  0  0  0  0  0  0  0  0  0  0  0
    6.6650   -5.4660   22.3740 C   0  0  0  0  0  0  0  0  0  0  0  0
  1  2  1  0
  2  3  2  0
  2  4  1  0
  4  5  1  0
  5  6  1  0
  6  7  1  0
  7  8  1  0
  8  9  2  0
  8 10  1  0
 10 11  1  0
 11 12  1  6
 12 13  1  0
 11 14  1  0
 14 15  1  6
 15 16  1  0
 16 17  1  0
 17 18  1  0
 18 19  2  0
 19 20  1  0
 20 21  2  0
 21 22  1  0
 18 23  1  0
 22 23  2  0
 16 24  1  0
 24 25  1  0
 14 26  1  0
 25 26  1  0
  7 27  1  0
  4 28  1  0
 27 28  1  0
M  END
