piperidine-amides-25512-covalent
     RDKit          3D

 24 27  0  0  0  0  0  0  0  0999 V2000
    7.0910   -3.2700   19.2040 C   0  0  0  0  0  0  0  0  0  0  0  0
    6.3370   -4.0220   20.2450 C   0  0  0  0  0  0  0  0  0  0  0  0
    5.2950   -4.5710   19.8920 O   0  0  0  0  0  0  0  0  0  0  0  0
    6.8320   -4.1260   21.5490 N   0  0  0  0  0  0  0  0  0  0  0  0
    6.6290   -5.2960   22.3580 C   0  0  0  0  0  0  0  0  0  0  0  0
    5.9450   -4.9070   23.6440 C   0  0  0  0  0  0  0  0  0  0  0  0
    6.6110   -3.6630   24.2480 C   0  0  0  0  0  0  0  0  0  0  0  0
    5.7290   -3.2160   25.3450 C   0  0  0  0  0  0  0  0  0  0  0  0
    4.5070   -3.1810   25.1490 O   0  0  0  0  0  0  0  0  0  0  0  0
    6.2180   -2.8270   26.6110 N   0  0  0  0  0  0  0  0  0  0  0  0
    5.9900   -3.7590   27.6950 C   0  0  0  0  0  0  0  0  0  0  0  0
    5.3230   -2.6500   28.3690 C   0  0  0  0  0  0  0  0  0  0  0  0
    5.8020   -1.8390   29.3620 C   0  0  0  0  0  0  0  0  0  0  0  0
    5.3860   -1.2570   30.5550 N   0  0  0  0  0  0  0  0  0  0  0  0
    6.3860   -0.4340   31.2430 C   0  0  0  0  0  0  0  0  0  0  0  0
    6.0800    0.1750   32.3940 C   0  0  0  0  0  0  0  0  0  0  0  0
    6.9120    1.0590   33.2970 C   0  0  0  0  0  0  0  0  0  0  0  0
    8.3120    1.2140   32.7010 C   0  0  0  0  0  0  0  0  0  0  0  0
    8.6540    0.5150   31.3840 C   0  0  0  0  0  0  0  0  0  0  0  0
    7.6440   -0.3120   30.6770 C   0  0  0  0  0  0  0  0  0  0  0  0
    7.5370   -1.2490   29.2520 S   0  0  0  0  0  0  0  0  0  0  0  0
    5.6770   -1.6110   27.3450 C   0  0  0  0  0  0  0  0  0  0  0  0
    6.9540   -2.5770   23.3140 C   0  0  0  0  0  0  0  0  0  0  0  0
    7.6580   -3.0770   22.1130 C   0  0  0  0  0  0  0  0  0  0  0  0
  1  2  1  0
  2  3  2  0
  2  4  1  0
  4  5  1  0
  5  6  1  0
  6  7  1  0
  7  8  1  0
  8  9  2  0
  8 10  1  0
 10 11  1  0
 11 12  1  0
 12 13  1  0
 13 14  2  0
 14 15  1  0
 15 16  2  0
 16 17  1  0
 17 18  2  0
 18 19  1  0
 15 20  1  0
 19 20  2  0
 13 21  1  0
 20 21  1  0
 10 22  1  0
 12 22  1  0
  7 23  1  0
  4 24  1  0
 23 24  1  0
M  END
