piperidine-amides-12166-covalent
     RDKit          3D

 25 27  0  0  0  0  0  0  0  0999 V2000
    7.1180   -3.2480   19.2190 C   0  0  0  0  0  0  0  0  0  0  0  0
    6.3340   -4.0020   20.1930 C   0  0  0  0  0  0  0  0  0  0  0  0
    5.2640   -4.5090   19.8660 O   0  0  0  0  0  0  0  0  0  0  0  0
    6.8320   -4.2070   21.5210 N   0  0  0  0  0  0  0  0  0  0  0  0
    6.4370   -5.3750   22.2570 C   0  0  0  0  0  0  0  0  0  0  0  0
    5.6260   -4.9640   23.4540 C   0  0  0  0  0  0  0  0  0  0  0  0
    6.4770   -3.9930   24.2540 C   0  0  0  0  0  0  0  0  0  0  0  0
    5.7360   -3.5130   25.4540 C   0  0  0  0  0  0  0  0  0  0  0  0
    4.5000   -3.3450   25.4630 O   0  0  0  0  0  0  0  0  0  0  0  0
    6.4850   -3.2220   26.6200 N   0  0  0  0  0  0  0  0  0  0  0  0
    6.1680   -3.8340   27.8980 C   0  0  0  0  0  0  0  0  0  0  0  0
    5.8370   -5.3130   27.7670 C   0  0  1  0  0  0  0  0  0  0  0  0
    6.9440   -6.0590   28.1010 O   0  0  0  0  0  0  0  0  0  0  0  0
    4.9960   -5.8680   28.7040 C   0  0  0  0  0  0  0  0  0  0  0  0
    4.5960   -7.2010   28.6720 C   0  0  0  0  0  0  0  0  0  0  0  0
    3.7530   -7.6910   29.6540 C   0  0  0  0  0  0  0  0  0  0  0  0
    3.2610   -6.8490   30.7410 C   0  0  0  0  0  0  0  0  0  0  0  0
    2.4220   -7.2220   31.7760 C   0  0  0  0  0  0  0  0  0  0  0  0
    1.9810   -6.4090   32.7790 C   0  0  0  0  0  0  0  0  0  0  0  0
    2.3790   -5.0980   32.8000 C   0  0  0  0  0  0  0  0  0  0  0  0
    3.2640   -4.6300   31.7400 C   0  0  0  0  0  0  0  0  0  0  0  0
    3.6820   -5.5130   30.7420 C   0  0  0  0  0  0  0  0  0  0  0  0
    4.5230   -5.0640   29.7430 C   0  0  0  0  0  0  0  0  0  0  0  0
    6.8530   -2.7870   23.4260 C   0  0  0  0  0  0  0  0  0  0  0  0
    7.6370   -3.2080   22.1820 C   0  0  0  0  0  0  0  0  0  0  0  0
  1  2  1  0
  2  3  2  0
  2  4  1  0
  4  5  1  0
  5  6  1  0
  6  7  1  0
  7  8  1  0
  8  9  2  0
  8 10  1  0
 10 11  1  0
 11 12  1  0
 12 13  1  1
 12 14  1  0
 14 15  2  0
 15 16  1  0
 16 17  2  0
 17 18  1  0
 18 19  2  0
 19 20  1  0
 20 21  2  0
 17 22  1  0
 21 22  1  0
 14 23  1  0
 22 23  2  0
  7 24  1  0
  4 25  1  0
 24 25  1  0
M  END
