piperidine-amides-4707-covalent
     RDKit          3D

 24 26  0  0  0  0  0  0  0  0999 V2000
    7.1200   -3.2440   19.1720 C   0  0  0  0  0  0  0  0  0  0  0  0
    6.3480   -3.9900   20.1940 C   0  0  0  0  0  0  0  0  0  0  0  0
    5.2560   -4.4740   19.8430 O   0  0  0  0  0  0  0  0  0  0  0  0
    6.8530   -4.1910   21.4840 N   0  0  0  0  0  0  0  0  0  0  0  0
    7.6100   -3.1550   22.1120 C   0  0  0  0  0  0  0  0  0  0  0  0
    7.1460   -2.7790   23.4490 C   0  0  0  0  0  0  0  0  0  0  0  0
    6.5370   -3.8740   24.2270 C   0  0  0  0  0  0  0  0  0  0  0  0
    5.8080   -3.3450   25.4140 C   0  0  0  0  0  0  0  0  0  0  0  0
    4.5690   -3.2320   25.3410 O   0  0  0  0  0  0  0  0  0  0  0  0
    6.4980   -2.9600   26.5830 N   0  0  0  0  0  0  0  0  0  0  0  0
    6.2910   -3.5660   27.9280 C   0  0  0  0  0  0  0  0  0  0  0  0
    6.1150   -5.0520   27.9300 C   0  0  0  0  0  0  0  0  0  0  0  0
    4.9440   -5.5700   28.5480 N   0  0  0  0  0  0  0  0  0  0  0  0
    4.1680   -6.5550   27.8300 C   0  0  0  0  0  0  0  0  0  0  0  0
    3.1490   -7.0280   28.6330 C   0  0  0  0  0  0  0  0  0  0  0  0
    3.4140   -7.2710   29.9620 C   0  0  2  0  0  0  0  0  0  0  0  0
    2.4450   -7.9590   30.6210 C   0  0  0  0  0  0  0  0  0  0  0  0
    2.5810   -8.1420   31.9750 C   0  0  0  0  0  0  0  0  0  0  0  0
    3.6110   -7.5580   32.6800 C   0  0  0  0  0  0  0  0  0  0  0  0
    4.1760   -6.4270   32.0730 C   0  0  0  0  0  0  0  0  0  0  0  0
    3.7390   -6.1720   30.6910 C   0  0  1  0  0  0  0  0  0  0  0  0
    4.8350   -5.4420   29.9550 C   0  0  0  0  0  0  0  0  0  0  0  0
    5.6850   -4.7830   23.3370 C   0  0  0  0  0  0  0  0  0  0  0  0
    6.4490   -5.3180   22.2820 C   0  0  0  0  0  0  0  0  0  0  0  0
  1  2  1  0
  2  3  2  0
  2  4  1  0
  4  5  1  0
  5  6  1  0
  6  7  1  0
  7  8  1  0
  8  9  2  0
  8 10  1  0
 10 11  1  0
 11 12  1  0
 12 13  1  0
 13 14  1  0
 14 15  1  0
 16 15  1  6
 16 17  1  0
 17 18  1  0
 18 19  1  0
 19 20  1  0
 16 21  1  0
 21 20  1  1
 13 22  1  0
 21 22  1  0
  7 23  1  0
  4 24  1  0
 23 24  1  0
M  END
