piperidine-amides-12302-covalent
     RDKit          3D

 24 26  0  0  0  0  0  0  0  0999 V2000
    7.1230   -3.2720   19.2470 C   0  0  0  0  0  0  0  0  0  0  0  0
    6.3530   -4.0380   20.2230 C   0  0  0  0  0  0  0  0  0  0  0  0
    5.2970   -4.5750   19.8950 O   0  0  0  0  0  0  0  0  0  0  0  0
    6.8530   -4.2140   21.5570 N   0  0  0  0  0  0  0  0  0  0  0  0
    7.6750   -3.1960   22.1590 C   0  0  0  0  0  0  0  0  0  0  0  0
    7.0510   -2.7050   23.4260 C   0  0  0  0  0  0  0  0  0  0  0  0
    6.4940   -3.9010   24.1840 C   0  0  0  0  0  0  0  0  0  0  0  0
    5.7340   -3.4260   25.3700 C   0  0  0  0  0  0  0  0  0  0  0  0
    4.5040   -3.2220   25.3410 O   0  0  0  0  0  0  0  0  0  0  0  0
    6.4430   -3.1910   26.5670 N   0  0  0  0  0  0  0  0  0  0  0  0
    6.0280   -3.8270   27.8000 C   0  0  0  0  0  0  0  0  0  0  0  0
    6.0630   -5.3360   27.6550 C   0  0  1  0  0  0  0  0  0  0  0  0
    6.9350   -5.8000   28.6170 O   0  0  0  0  0  0  0  0  0  0  0  0
    4.9570   -6.0920   27.9640 C   0  0  0  0  0  0  0  0  0  0  0  0
    3.9940   -6.4080   26.9920 C   0  0  0  0  0  0  0  0  0  0  0  0
    2.6640   -7.3760   27.5780 S   0  0  0  0  0  0  0  0  0  0  0  0
    3.4200   -7.3650   29.1940 C   0  0  0  0  0  0  0  0  0  0  0  0
    2.9030   -8.0030   30.3760 C   0  0  0  0  0  0  0  0  0  0  0  0
    3.5430   -7.9490   31.5720 C   0  0  0  0  0  0  0  0  0  0  0  0
    4.7330   -7.2630   31.6700 C   0  0  0  0  0  0  0  0  0  0  0  0
    5.2820   -6.6210   30.5460 C   0  0  0  0  0  0  0  0  0  0  0  0
    4.6280   -6.6420   29.2160 C   0  0  0  0  0  0  0  0  0  0  0  0
    5.6380   -4.8250   23.3350 C   0  0  0  0  0  0  0  0  0  0  0  0
    6.4600   -5.3440   22.3440 C   0  0  0  0  0  0  0  0  0  0  0  0
  1  2  1  0
  2  3  2  0
  2  4  1  0
  4  5  1  0
  5  6  1  0
  6  7  1  0
  7  8  1  0
  8  9  2  0
  8 10  1  0
 10 11  1  0
 11 12  1  0
 12 13  1  1
 12 14  1  0
 14 15  2  0
 15 16  1  0
 16 17  1  0
 17 18  1  0
 18 19  2  0
 19 20  1  0
 20 21  2  0
 14 22  1  0
 17 22  2  0
 21 22  1  0
  7 23  1  0
  4 24  1  0
 23 24  1  0
M  END
