piperidine-amides-1991-covalent
     RDKit          3D

 22 24  0  0  0  0  0  0  0  0999 V2000
    7.1280   -3.3000   19.2560 C   0  0  0  0  0  0  0  0  0  0  0  0
    6.3670   -4.0540   20.2810 C   0  0  0  0  0  0  0  0  0  0  0  0
    5.3250   -4.5990   19.9160 O   0  0  0  0  0  0  0  0  0  0  0  0
    6.8790   -4.1580   21.5790 N   0  0  0  0  0  0  0  0  0  0  0  0
    7.7110   -3.1170   22.1500 C   0  0  0  0  0  0  0  0  0  0  0  0
    7.3800   -2.9000   23.6010 C   0  0  0  0  0  0  0  0  0  0  0  0
    6.0310   -3.5340   23.9190 C   0  0  0  0  0  0  0  0  0  0  0  0
    5.6880   -3.2190   25.3150 C   0  0  0  0  0  0  0  0  0  0  0  0
    4.5920   -3.5800   25.7610 O   0  0  0  0  0  0  0  0  0  0  0  0
    6.5790   -2.5040   26.1360 N   0  0  0  0  0  0  0  0  0  0  0  0
    6.3550   -2.4830   27.5660 C   0  0  1  0  0  0  0  0  0  0  0  0
    5.0830   -1.8450   27.8780 C   0  0  0  0  0  0  0  0  0  0  0  0
    4.6550   -2.9050   28.5510 C   0  0  2  0  0  0  0  0  0  0  0  0
    4.6280   -2.7970   29.9010 C   0  0  0  0  0  0  0  0  0  0  0  0
    3.7480   -1.8360   30.5100 N   0  0  0  0  0  0  0  0  0  0  0  0
    3.8390   -0.4470   30.5040 C   0  0  0  0  0  0  0  0  0  0  0  0
    2.6550   -0.0940   31.2920 C   0  0  0  0  0  0  0  0  0  0  0  0
    1.9780   -1.2940   31.6920 N   0  0  0  0  0  0  0  0  0  0  0  0
    2.7180   -2.3440   31.1660 N   0  0  0  0  0  0  0  0  0  0  0  0
    5.8900   -3.7730   28.2720 C   0  0  0  0  0  0  0  0  0  0  0  0
    6.0040   -4.9880   23.6760 C   0  0  0  0  0  0  0  0  0  0  0  0
    6.5270   -5.3290   22.3320 C   0  0  0  0  0  0  0  0  0  0  0  0
  1  2  1  0
  2  3  2  0
  2  4  1  0
  4  5  1  0
  5  6  1  0
  6  7  1  0
  7  8  1  0
  8  9  2  0
  8 10  1  0
 11 10  1  6
 11 12  1  0
 12 13  1  0
 13 14  1  1
 14 15  1  0
 15 16  1  0
 16 17  2  0
 17 18  1  0
 15 19  1  0
 18 19  2  0
 11 20  1  0
 13 20  1  0
  7 21  1  0
  4 22  1  0
 21 22  1  0
M  END
