piperidine-amides-12599-covalent
     RDKit          3D

 23 24  0  0  0  0  0  0  0  0999 V2000
    7.1120   -3.2890   19.2340 C   0  0  0  0  0  0  0  0  0  0  0  0
    6.3140   -4.0310   20.2330 C   0  0  0  0  0  0  0  0  0  0  0  0
    5.2250   -4.4980   19.8530 O   0  0  0  0  0  0  0  0  0  0  0  0
    6.8090   -4.2330   21.5230 N   0  0  0  0  0  0  0  0  0  0  0  0
    7.4980   -3.1750   22.1740 C   0  0  0  0  0  0  0  0  0  0  0  0
    6.7330   -2.6150   23.2780 C   0  0  0  0  0  0  0  0  0  0  0  0
    5.8130   -3.5780   23.9200 C   0  0  0  0  0  0  0  0  0  0  0  0
    5.5760   -3.2160   25.3420 C   0  0  0  0  0  0  0  0  0  0  0  0
    4.4110   -3.3100   25.7680 O   0  0  0  0  0  0  0  0  0  0  0  0
    6.6030   -2.7700   26.2020 N   0  0  0  0  0  0  0  0  0  0  0  0
    7.5660   -3.6870   26.8410 C   0  0  0  0  0  0  0  0  0  0  0  0
    8.7950   -3.8240   26.0110 C   0  0  0  0  0  0  0  0  0  0  0  0
    8.9780   -2.9230   24.8570 C   0  0  0  0  0  0  0  0  0  0  0  0
   10.2550   -2.5140   24.5070 C   0  0  0  0  0  0  0  0  0  0  0  0
   11.3180   -3.2190   24.9940 C   0  0  0  0  0  0  0  0  0  0  0  0
   10.8970   -4.5880   25.9970 Cl  0  0  0  0  0  0  0  0  0  0  0  0
   12.6150   -2.8770   24.7090 C   0  0  0  0  0  0  0  0  0  0  0  0
   12.8610   -1.8080   23.9130 C   0  0  0  0  0  0  0  0  0  0  0  0
   11.8340   -1.0870   23.4050 C   0  0  0  0  0  0  0  0  0  0  0  0
   10.5090   -1.4250   23.6890 C   0  0  0  0  0  0  0  0  0  0  0  0
    9.2460   -0.4440   22.9910 Cl  0  0  0  0  0  0  0  0  0  0  0  0
    6.1510   -5.0210   23.7580 C   0  0  0  0  0  0  0  0  0  0  0  0
    6.4870   -5.4080   22.3290 C   0  0  0  0  0  0  0  0  0  0  0  0
  1  2  1  0
  2  3  2  0
  2  4  1  0
  4  5  1  0
  5  6  1  0
  6  7  1  0
  7  8  1  0
  8  9  2  0
  8 10  1  0
 10 11  1  0
 11 12  1  0
 12 13  1  0
 13 14  1  0
 14 15  2  0
 15 16  1  0
 15 17  1  0
 17 18  2  0
 18 19  1  0
 14 20  1  0
 19 20  2  0
 20 21  1  0
  7 22  1  0
  4 23  1  0
 22 23  1  0
M  END
