piperidine-amides-29563-covalent
     RDKit          3D

 22 23  0  0  0  0  0  0  0  0999 V2000
    7.0720   -3.3380   19.3320 C   0  0  0  0  0  0  0  0  0  0  0  0
    6.3970   -4.1810   20.3120 C   0  0  0  0  0  0  0  0  0  0  0  0
    5.3990   -4.8250   19.9820 O   0  0  0  0  0  0  0  0  0  0  0  0
    6.9330   -4.2970   21.6430 N   0  0  0  0  0  0  0  0  0  0  0  0
    7.6500   -3.1910   22.2110 C   0  0  0  0  0  0  0  0  0  0  0  0
    6.8990   -2.6620   23.4030 C   0  0  0  0  0  0  0  0  0  0  0  0
    6.5320   -3.8290   24.3080 C   0  0  0  0  0  0  0  0  0  0  0  0
    5.7550   -3.3420   25.4990 C   0  0  0  0  0  0  0  0  0  0  0  0
    4.5290   -3.1260   25.4160 O   0  0  0  0  0  0  0  0  0  0  0  0
    6.3940   -3.1080   26.7590 N   0  0  0  0  0  0  0  0  0  0  0  0
    6.2360   -4.0810   27.8380 C   0  0  0  0  0  0  0  0  0  0  0  0
    5.5770   -5.3610   27.3620 C   0  0  0  0  0  0  0  0  0  0  0  0
    6.4770   -6.2210   26.7730 O   0  0  0  0  0  0  0  0  0  0  0  0
    6.4610   -1.7610   27.2920 C   0  0  0  0  0  0  0  0  0  0  0  0
    7.2050   -1.5000   28.4790 C   0  0  0  0  0  0  0  0  0  0  0  0
    7.0390   -0.0710   28.7240 N   0  0  0  0  0  0  0  0  0  0  0  0
    6.4810    1.1870   28.3360 C   0  0  0  0  0  0  0  0  0  0  0  0
    5.8600    0.5820   27.1990 C   0  0  0  0  0  0  0  0  0  0  0  0
    4.8400    1.7420   26.0820 Br  0  0  0  0  0  0  0  0  0  0  0  0
    5.8560   -0.6810   26.7580 C   0  0  0  0  0  0  0  0  0  0  0  0
    5.6550   -4.8010   23.5130 C   0  0  0  0  0  0  0  0  0  0  0  0
    6.4050   -5.3580   22.4730 C   0  0  0  0  0  0  0  0  0  0  0  0
  1  2  1  0
  2  3  2  0
  2  4  1  0
  4  5  1  0
  5  6  1  0
  6  7  1  0
  7  8  1  0
  8  9  2  0
  8 10  1  0
 10 11  1  0
 11 12  1  0
 12 13  1  0
 10 14  1  0
 14 15  2  0
 15 16  1  0
 16 17  2  0
 17 18  1  0
 18 19  1  0
 14 20  1  0
 18 20  2  0
  7 21  1  0
  4 22  1  0
 21 22  1  0
M  END
