piperidine-amides-2456-covalent
     RDKit          3D

 26 27  0  0  0  0  0  0  0  0999 V2000
    7.1010   -3.2600   19.2670 C   0  0  0  0  0  0  0  0  0  0  0  0
    6.3570   -4.0530   20.2830 C   0  0  0  0  0  0  0  0  0  0  0  0
    5.3150   -4.5880   19.9060 O   0  0  0  0  0  0  0  0  0  0  0  0
    6.8570   -4.2090   21.5820 N   0  0  0  0  0  0  0  0  0  0  0  0
    6.7080   -5.4720   22.2650 C   0  0  0  0  0  0  0  0  0  0  0  0
    6.0190   -5.2240   23.5640 C   0  0  0  0  0  0  0  0  0  0  0  0
    5.8670   -3.7180   23.7480 C   0  0  0  0  0  0  0  0  0  0  0  0
    5.0960   -3.5340   24.9960 C   0  0  0  0  0  0  0  0  0  0  0  0
    4.1570   -4.2990   25.2190 O   0  0  0  0  0  0  0  0  0  0  0  0
    5.3580   -2.5290   25.9290 N   0  0  0  0  0  0  0  0  0  0  0  0
    6.2800   -2.8510   26.9640 C   0  0  1  0  0  0  0  0  0  0  0  0
    6.3270   -1.6630   27.9250 C   0  0  0  0  0  0  0  0  0  0  0  0
    7.1470   -1.8310   29.0130 C   0  0  0  0  0  0  0  0  0  0  0  0
    7.3490   -0.9370   29.9730 C   0  0  0  0  0  0  0  0  0  0  0  0
    6.7050    0.2060   29.8720 C   0  0  0  0  0  0  0  0  0  0  0  0
    5.7700    0.5900   28.7740 C   0  0  0  0  0  0  0  0  0  0  0  0
    5.5110   -0.4010   27.6500 C   0  0  0  0  0  0  0  0  0  0  0  0
    4.5630    0.0050   26.5410 C   0  0  0  0  0  0  0  0  0  0  0  0
    5.1870    0.0600   25.3260 F   0  0  0  0  0  0  0  0  0  0  0  0
    3.8380    1.1280   26.7400 F   0  0  0  0  0  0  0  0  0  0  0  0
    3.4960   -0.9040   26.3280 F   0  0  0  0  0  0  0  0  0  0  0  0
    5.9550   -4.0630   27.8150 C   0  0  0  0  0  0  0  0  0  0  0  0
    4.8630   -4.7080   27.2670 F   0  0  0  0  0  0  0  0  0  0  0  0
    5.5890   -3.5700   29.0730 F   0  0  0  0  0  0  0  0  0  0  0  0
    7.1890   -3.0080   23.6450 C   0  0  0  0  0  0  0  0  0  0  0  0
    7.6480   -3.1470   22.1960 C   0  0  0  0  0  0  0  0  0  0  0  0
  1  2  1  0
  2  3  2  0
  2  4  1  0
  4  5  1  0
  5  6  1  0
  6  7  1  0
  7  8  1  0
  8  9  2  0
  8 10  1  0
 11 10  1  6
 11 12  1  0
 12 13  2  0
 13 14  1  0
 14 15  2  0
 15 16  1  0
 12 17  1  0
 16 17  2  0
 17 18  1  0
 18 19  1  0
 18 20  1  0
 18 21  1  0
 11 22  1  0
 22 23  1  0
 22 24  1  0
  7 25  1  0
  4 26  1  0
 25 26  1  0
M  END
