piperidine-amides-26842-covalent
     RDKit          3D

 25 27  0  0  0  0  0  0  0  0999 V2000
    7.0130   -3.3530   19.3650 C   0  0  0  0  0  0  0  0  0  0  0  0
    6.3880   -4.1970   20.3900 C   0  0  0  0  0  0  0  0  0  0  0  0
    5.4140   -4.8990   19.9960 O   0  0  0  0  0  0  0  0  0  0  0  0
    6.8810   -4.2340   21.7050 N   0  0  0  0  0  0  0  0  0  0  0  0
    6.6970   -5.4140   22.5300 C   0  0  0  0  0  0  0  0  0  0  0  0
    6.1080   -5.0130   23.8630 C   0  0  0  0  0  0  0  0  0  0  0  0
    6.0480   -3.5130   24.0200 C   0  0  0  0  0  0  0  0  0  0  0  0
    5.4920   -3.0580   25.3310 C   0  0  0  0  0  0  0  0  0  0  0  0
    4.3030   -2.6840   25.2920 O   0  0  0  0  0  0  0  0  0  0  0  0
    6.1280   -3.0150   26.6030 N   0  0  0  0  0  0  0  0  0  0  0  0
    6.0190   -4.2290   27.3990 C   0  0  0  0  0  0  0  0  0  0  0  0
    4.5990   -4.4630   27.9250 C   0  0  1  0  0  0  0  0  0  0  0  0
    3.7970   -5.4440   27.3320 C   0  0  0  0  0  0  0  0  0  0  0  0
    3.3180   -6.3760   28.2440 C   0  0  0  0  0  0  0  0  0  0  0  0
    3.7960   -5.9220   29.4390 C   0  0  0  0  0  0  0  0  0  0  0  0
    4.5100   -4.7980   29.1420 O   0  0  0  0  0  0  0  0  0  0  0  0
    6.0420   -1.7580   27.3370 C   0  0  1  0  0  0  0  0  0  0  0  0
    7.0430   -1.5360   28.2390 C   0  0  0  0  0  0  0  0  0  0  0  0
    6.7870   -0.5560   29.3560 C   0  0  0  0  0  0  0  0  0  0  0  0
    6.0140    0.5870   28.6610 C   0  0  1  0  0  0  0  0  0  0  0  0
    6.6680    1.9430   28.8100 C   0  0  0  0  0  0  0  0  0  0  0  0
    5.8820    0.5550   27.0750 C   0  0  0  0  0  0  0  0  0  0  0  0
    5.8610   -0.7000   26.4890 C   0  0  0  0  0  0  0  0  0  0  0  0
    7.4230   -2.9630   23.7120 C   0  0  0  0  0  0  0  0  0  0  0  0
    7.7480   -3.1820   22.2440 C   0  0  0  0  0  0  0  0  0  0  0  0
  1  2  1  0
  2  3  2  0
  2  4  1  0
  4  5  1  0
  5  6  1  0
  6  7  1  0
  7  8  1  0
  8  9  2  0
  8 10  1  0
 10 11  1  0
 12 11  1  6
 12 13  1  0
 13 14  1  0
 14 15  1  0
 12 16  1  0
 15 16  1  0
 17 10  1  6
 17 18  1  0
 18 19  1  0
 19 20  1  0
 20 21  1  6
 20 22  1  0
 17 23  1  0
 22 23  1  0
  7 24  1  0
  4 25  1  0
 24 25  1  0
M  END
