piperidine-amides-29129-covalent
     RDKit          3D

 26 28  0  0  0  0  0  0  0  0999 V2000
    7.0960   -3.3330   19.3030 C   0  0  0  0  0  0  0  0  0  0  0  0
    6.4350   -4.1870   20.2840 C   0  0  0  0  0  0  0  0  0  0  0  0
    5.3780   -4.7570   19.9590 O   0  0  0  0  0  0  0  0  0  0  0  0
    7.0350   -4.3980   21.5430 N   0  0  0  0  0  0  0  0  0  0  0  0
    6.6370   -5.5520   22.2830 C   0  0  0  0  0  0  0  0  0  0  0  0
    5.7450   -5.0970   23.3870 C   0  0  0  0  0  0  0  0  0  0  0  0
    6.5520   -4.1230   24.2140 C   0  0  0  0  0  0  0  0  0  0  0  0
    5.6710   -3.5290   25.2510 C   0  0  0  0  0  0  0  0  0  0  0  0
    4.8230   -2.7600   24.8110 O   0  0  0  0  0  0  0  0  0  0  0  0
    5.7720   -3.8110   26.6040 N   0  0  0  0  0  0  0  0  0  0  0  0
    6.3330   -2.7580   27.3830 C   0  0  0  0  0  0  0  0  0  0  0  0
    6.9280   -3.0440   28.6120 C   0  0  0  0  0  0  0  0  0  0  0  0
    5.7160   -2.8990   29.3600 N   0  0  0  0  0  0  0  0  0  0  0  0
    4.9650   -1.6800   29.5030 C   0  0  0  0  0  0  0  0  0  0  0  0
    4.0210   -1.4060   30.5080 C   0  0  1  0  0  0  0  0  0  0  0  0
    2.7420   -1.7940   29.8470 C   0  0  0  0  0  0  0  0  0  0  0  0
    1.8310   -1.7440   30.8260 N   0  0  0  0  0  0  0  0  0  0  0  0
    0.5900   -2.2850   30.8040 C   0  0  0  0  0  0  0  0  0  0  0  0
    2.1900   -1.0880   32.0400 C   0  0  0  0  0  0  0  0  0  0  0  0
    3.4900   -1.6060   32.6140 C   0  0  0  0  0  0  0  0  0  0  0  0
    4.4010   -1.8340   31.7660 O   0  0  0  0  0  0  0  0  0  0  0  0
    4.9210   -3.9640   28.9400 C   0  0  0  0  0  0  0  0  0  0  0  0
    4.6970   -4.0970   27.5810 C   0  0  1  0  0  0  0  0  0  0  0  0
    3.5690   -3.4730   27.0880 C   0  0  0  0  0  0  0  0  0  0  0  0
    7.0990   -2.9640   23.4520 C   0  0  0  0  0  0  0  0  0  0  0  0
    7.7810   -3.3500   22.1880 C   0  0  0  0  0  0  0  0  0  0  0  0
  1  2  1  0
  2  3  2  0
  2  4  1  0
  4  5  1  0
  5  6  1  0
  6  7  1  0
  7  8  1  0
  8  9  2  0
  8 10  1  0
 10 11  1  0
 11 12  1  0
 12 13  1  0
 13 14  1  0
 15 14  1  6
 15 16  1  0
 16 17  1  0
 17 18  1  0
 17 19  1  0
 19 20  1  0
 15 21  1  0
 20 21  1  0
 13 22  1  0
 10 23  1  0
 22 23  1  0
 23 24  1  6
  7 25  1  0
  4 26  1  0
 25 26  1  0
M  END
