piperidine-amides-862-covalent
     RDKit          3D

 24 25  0  0  0  0  0  0  0  0999 V2000
    7.2010   -3.2180   19.2020 C   0  0  0  0  0  0  0  0  0  0  0  0
    6.3780   -3.8970   20.1780 C   0  0  0  0  0  0  0  0  0  0  0  0
    5.2830   -4.4320   19.8240 O   0  0  0  0  0  0  0  0  0  0  0  0
    6.7790   -4.0190   21.5070 N   0  0  0  0  0  0  0  0  0  0  0  0
    6.5900   -5.3290   22.1520 C   0  0  0  0  0  0  0  0  0  0  0  0
    5.7140   -4.8880   23.3790 C   0  0  0  0  0  0  0  0  0  0  0  0
    5.8390   -3.3770   23.4710 C   0  0  0  0  0  0  0  0  0  0  0  0
    5.1770   -2.8360   24.7940 C   0  0  0  0  0  0  0  0  0  0  0  0
    4.3830   -1.9280   24.6290 O   0  0  0  0  0  0  0  0  0  0  0  0
    5.6940   -3.5420   25.6680 N   0  0  0  0  0  0  0  0  0  0  0  0
    6.3070   -4.3330   26.5230 C   0  0  2  0  0  0  0  0  0  0  0  0
    7.4820   -4.9100   26.6380 C   0  0  0  0  0  0  0  0  0  0  0  0
    8.0420   -5.6620   25.5560 N   0  0  0  0  0  0  0  0  0  0  0  0
    9.2030   -6.1390   25.9370 C   0  0  0  0  0  0  0  0  0  0  0  0
    9.3440   -5.6670   27.2780 C   0  0  0  0  0  0  0  0  0  0  0  0
    8.3080   -4.9410   27.6090 N   0  0  0  0  0  0  0  0  0  0  0  0
    8.1940   -4.4050   28.6830 C   0  0  0  0  0  0  0  0  0  0  0  0
    5.4260   -5.5440   26.8450 C   0  0  0  0  0  0  0  0  0  0  0  0
    4.0360   -5.4020   26.9220 C   0  0  0  0  0  0  0  0  0  0  0  0
    4.6560   -6.3870   25.8700 C   0  0  0  0  0  0  0  0  0  0  0  0
    5.8770   -6.1720   28.1380 C   0  0  0  0  0  0  0  0  0  0  0  0
    5.4890   -5.5020   29.1230 O   0  0  0  0  0  0  0  0  0  0  0  0
    7.2990   -2.9150   23.3760 C   0  0  0  0  0  0  0  0  0  0  0  0
    7.7180   -3.0780   22.0950 C   0  0  0  0  0  0  0  0  0  0  0  0
  1  2  1  0
  2  3  2  0
  2  4  1  0
  4  5  1  0
  5  6  1  0
  6  7  1  0
  7  8  1  0
  8  9  2  0
  8 10  1  0
 11 10  1  6
 11 12  1  0
 12 13  2  0
 13 14  1  0
 14 15  2  0
 12 16  1  0
 15 16  1  0
 16 17  1  0
 11 18  1  0
 18 19  1  0
 18 20  1  0
 18 21  1  0
 21 22  1  0
  7 23  1  0
  4 24  1  0
 23 24  1  0
M  END
