piperidine-amides-28804-covalent
     RDKit          3D

 26 28  0  0  0  0  0  0  0  0999 V2000
    7.0410   -3.3400   19.3590 C   0  0  0  0  0  0  0  0  0  0  0  0
    6.3860   -4.1920   20.3490 C   0  0  0  0  0  0  0  0  0  0  0  0
    5.3910   -4.8470   19.9810 O   0  0  0  0  0  0  0  0  0  0  0  0
    6.8970   -4.3010   21.6710 N   0  0  0  0  0  0  0  0  0  0  0  0
    6.6660   -5.5350   22.3750 C   0  0  0  0  0  0  0  0  0  0  0  0
    6.3130   -5.2770   23.8160 C   0  0  0  0  0  0  0  0  0  0  0  0
    6.1760   -3.7800   23.9730 C   0  0  0  0  0  0  0  0  0  0  0  0
    5.6000   -3.3410   25.2940 C   0  0  0  0  0  0  0  0  0  0  0  0
    4.7400   -2.4700   25.2060 O   0  0  0  0  0  0  0  0  0  0  0  0
    6.0010   -3.8850   26.5150 N   0  0  0  0  0  0  0  0  0  0  0  0
    5.6410   -3.1880   27.7030 C   0  0  0  0  0  0  0  0  0  0  0  0
    5.6390   -3.8890   28.9360 C   0  0  0  0  0  0  0  0  0  0  0  0
    5.0860   -5.2660   28.7750 N   0  0  0  0  0  0  0  0  0  0  0  0
    4.0370   -5.9950   29.3960 C   0  0  0  0  0  0  0  0  0  0  0  0
    4.2750   -6.4070   30.7070 C   0  0  0  0  0  0  0  0  0  0  0  0
    5.2490   -7.3760   30.9280 N   0  0  0  0  0  0  0  0  0  0  0  0
    3.4990   -5.8000   31.6850 O   0  0  0  0  0  0  0  0  0  0  0  0
    2.8970   -4.9480   29.6420 C   0  0  0  0  0  0  0  0  0  0  0  0
    1.4810   -5.4690   29.9890 C   0  0  0  0  0  0  0  0  0  0  0  0
    1.0790   -6.4850   28.9870 C   0  0  0  0  0  0  0  0  0  0  0  0
    2.0900   -7.5970   29.0150 C   0  0  0  0  0  0  0  0  0  0  0  0
    3.4860   -7.0280   28.6570 C   0  0  0  0  0  0  0  0  0  0  0  0
    6.2060   -5.5650   27.9550 C   0  0  0  0  0  0  0  0  0  0  0  0
    5.9450   -5.2900   26.6450 C   0  0  0  0  0  0  0  0  0  0  0  0
    7.4480   -3.0830   23.6800 C   0  0  0  0  0  0  0  0  0  0  0  0
    7.7590   -3.2740   22.2290 C   0  0  0  0  0  0  0  0  0  0  0  0
  1  2  1  0
  2  3  2  0
  2  4  1  0
  4  5  1  0
  5  6  1  0
  6  7  1  0
  7  8  1  0
  8  9  2  0
  8 10  1  0
 10 11  1  0
 11 12  1  0
 12 13  1  0
 13 14  1  0
 14 15  1  0
 15 16  1  0
 15 17  2  0
 14 18  1  0
 18 19  1  0
 19 20  1  0
 20 21  1  0
 14 22  1  0
 21 22  1  0
 13 23  1  0
 10 24  1  0
 23 24  1  0
  7 25  1  0
  4 26  1  0
 25 26  1  0
M  END
