piperidine-amides-21574-covalent
     RDKit          3D

 23 25  0  0  0  0  0  0  0  0999 V2000
    7.0090   -3.4190   19.4610 C   0  0  0  0  0  0  0  0  0  0  0  0
    6.3430   -4.2930   20.4360 C   0  0  0  0  0  0  0  0  0  0  0  0
    5.3700   -4.9560   19.9990 O   0  0  0  0  0  0  0  0  0  0  0  0
    6.8070   -4.3980   21.7590 N   0  0  0  0  0  0  0  0  0  0  0  0
    6.6400   -5.6140   22.5280 C   0  0  0  0  0  0  0  0  0  0  0  0
    6.4740   -5.2280   23.9840 C   0  0  0  0  0  0  0  0  0  0  0  0
    6.0650   -3.7840   24.1020 C   0  0  0  0  0  0  0  0  0  0  0  0
    5.7610   -3.2660   25.4840 C   0  0  0  0  0  0  0  0  0  0  0  0
    5.2790   -2.1170   25.4890 O   0  0  0  0  0  0  0  0  0  0  0  0
    5.8600   -3.8680   26.7900 N   0  0  0  0  0  0  0  0  0  0  0  0
    5.0310   -3.2640   27.8060 C   0  0  0  0  0  0  0  0  0  0  0  0
    4.3320   -4.3050   28.6710 C   0  0  0  0  0  0  0  0  0  0  0  0
    4.9170   -5.4490   29.1210 C   0  0  0  0  0  0  0  0  0  0  0  0
    6.2790   -5.4970   29.1960 C   0  0  0  0  0  0  0  0  0  0  0  0
    6.9430   -5.5800   28.0300 C   0  0  0  0  0  0  0  0  0  0  0  0
    7.0650   -4.4130   27.3260 C   0  0  1  0  0  0  0  0  0  0  0  0
    8.0360   -4.5370   26.4910 C   0  0  0  0  0  0  0  0  0  0  0  0
    8.9880   -5.6220   26.8260 C   0  0  0  0  0  0  0  0  0  0  0  0
    9.8050   -5.3680   25.6950 C   0  0  0  0  0  0  0  0  0  0  0  0
    9.2940   -4.2360   24.8460 C   0  0  0  0  0  0  0  0  0  0  0  0
    8.1180   -3.6770   25.3750 O   0  0  0  0  0  0  0  0  0  0  0  0
    7.0400   -2.8260   23.4460 C   0  0  0  0  0  0  0  0  0  0  0  0
    7.6870   -3.3960   22.3660 C   0  0  0  0  0  0  0  0  0  0  0  0
  1  2  1  0
  2  3  2  0
  2  4  1  0
  4  5  1  0
  5  6  1  0
  6  7  1  0
  7  8  1  0
  8  9  2  0
  8 10  1  0
 10 11  1  0
 11 12  1  0
 12 13  1  0
 13 14  1  0
 14 15  1  0
 10 16  1  0
 15 16  1  0
 16 17  1  6
 17 18  2  0
 18 19  1  0
 19 20  2  0
 17 21  1  0
 20 21  1  0
  7 22  1  0
  4 23  1  0
 22 23  1  0
M  END
