piperidine-amides-10996-covalent
     RDKit          3D

 21 22  0  0  0  0  0  0  0  0999 V2000
    7.1290   -3.2950   19.2300 C   0  0  0  0  0  0  0  0  0  0  0  0
    6.3580   -4.0120   20.2480 C   0  0  0  0  0  0  0  0  0  0  0  0
    5.3160   -4.6010   19.9110 O   0  0  0  0  0  0  0  0  0  0  0  0
    6.8070   -4.0980   21.5750 N   0  0  0  0  0  0  0  0  0  0  0  0
    7.7610   -3.1520   22.1250 C   0  0  0  0  0  0  0  0  0  0  0  0
    7.4640   -3.0230   23.5930 C   0  0  0  0  0  0  0  0  0  0  0  0
    6.1210   -3.5950   23.9230 C   0  0  0  0  0  0  0  0  0  0  0  0
    5.6700   -3.3230   25.3090 C   0  0  0  0  0  0  0  0  0  0  0  0
    4.4470   -3.4660   25.5970 O   0  0  0  0  0  0  0  0  0  0  0  0
    6.5220   -2.9030   26.3560 N   0  0  0  0  0  0  0  0  0  0  0  0
    6.5870   -1.4800   26.7580 C   0  0  0  0  0  0  0  0  0  0  0  0
    5.6770   -1.2770   27.9110 C   0  0  0  0  0  0  0  0  0  0  0  0
    5.5270   -2.4810   28.7530 C   0  0  0  0  0  0  0  0  0  0  0  0
    4.5500   -2.4110   29.8390 N   0  0  0  0  0  0  0  0  0  0  0  0
    6.3380   -0.3200   28.8750 C   0  0  0  0  0  0  0  0  0  0  0  0
    6.0180    1.0490   28.3040 C   0  0  0  0  0  0  0  0  0  0  0  0
    4.6640    1.3270   28.6030 O   0  0  0  0  0  0  0  0  0  0  0  0
    3.9730    0.1390   28.5450 C   0  0  0  0  0  0  0  0  0  0  0  0
    4.5020   -0.6530   27.5570 C   0  0  0  0  0  0  0  0  0  0  0  0
    6.0780   -5.0780   23.6560 C   0  0  0  0  0  0  0  0  0  0  0  0
    6.6580   -5.3550   22.2850 C   0  0  0  0  0  0  0  0  0  0  0  0
  1  2  1  0
  2  3  2  0
  2  4  1  0
  4  5  1  0
  5  6  1  0
  6  7  1  0
  7  8  1  0
  8  9  2  0
  8 10  1  0
 10 11  1  0
 11 12  1  0
 12 13  1  0
 13 14  3  0
 12 15  1  0
 15 16  1  0
 16 17  1  0
 17 18  1  0
 12 19  1  0
 18 19  1  0
  7 20  1  0
  4 21  1  0
 20 21  1  0
M  END
