piperidine-amides-5413-covalent
     RDKit          3D

 20 21  0  0  0  0  0  0  0  0999 V2000
    7.0530   -3.3270   19.2950 C   0  0  0  0  0  0  0  0  0  0  0  0
    6.3520   -4.1220   20.3060 C   0  0  0  0  0  0  0  0  0  0  0  0
    5.3690   -4.8010   19.9700 O   0  0  0  0  0  0  0  0  0  0  0  0
    6.8050   -4.1580   21.6320 N   0  0  0  0  0  0  0  0  0  0  0  0
    7.7490   -3.1730   22.1320 C   0  0  0  0  0  0  0  0  0  0  0  0
    7.5070   -3.0510   23.6010 C   0  0  0  0  0  0  0  0  0  0  0  0
    6.1660   -3.5910   23.9540 C   0  0  0  0  0  0  0  0  0  0  0  0
    5.7790   -3.2420   25.3350 C   0  0  0  0  0  0  0  0  0  0  0  0
    4.6390   -3.5690   25.7780 O   0  0  0  0  0  0  0  0  0  0  0  0
    6.6280   -2.5210   26.2010 N   0  0  0  0  0  0  0  0  0  0  0  0
    6.0190   -1.6630   27.2370 C   0  0  2  0  0  0  0  0  0  0  0  0
    5.8370   -0.2740   26.7730 C   0  0  0  0  0  0  0  0  0  0  0  0
    5.9850    0.6250   27.9310 C   0  0  0  0  0  0  0  0  0  0  0  0
    6.2400   -0.2820   29.1160 C   0  0  2  0  0  0  0  0  0  0  0  0
    7.3070    0.6010   30.2580 S   0  0  0  0  0  0  0  0  0  0  0  0
    6.2700    1.2490   31.5340 C   0  0  0  0  0  0  0  0  0  0  0  0
    6.0290    0.2720   32.6230 C   0  0  0  0  0  0  0  0  0  0  0  0
    6.9050   -1.4990   28.4980 C   0  0  0  0  0  0  0  0  0  0  0  0
    6.1070   -5.0830   23.7380 C   0  0  0  0  0  0  0  0  0  0  0  0
    6.6890   -5.4060   22.3740 C   0  0  0  0  0  0  0  0  0  0  0  0
  1  2  1  0
  2  3  2  0
  2  4  1  0
  4  5  1  0
  5  6  1  0
  6  7  1  0
  7  8  1  0
  8  9  2  0
  8 10  1  0
 11 10  1  6
 11 12  1  0
 12 13  1  0
 13 14  1  0
 14 15  1  1
 15 16  1  0
 16 17  1  0
 11 18  1  0
 14 18  1  0
  7 19  1  0
  4 20  1  0
 19 20  1  0
M  END
