piperidine-amides-35168-covalent
     RDKit          3D

 32 36  0  0  0  0  0  0  0  0999 V2000
    7.0370   -3.3890   19.3970 C   0  0  0  0  0  0  0  0  0  0  0  0
    6.3730   -4.2670   20.3920 C   0  0  0  0  0  0  0  0  0  0  0  0
    5.3820   -4.8800   19.9950 O   0  0  0  0  0  0  0  0  0  0  0  0
    6.8980   -4.4120   21.6900 N   0  0  0  0  0  0  0  0  0  0  0  0
    6.5540   -5.5140   22.5400 C   0  0  0  0  0  0  0  0  0  0  0  0
    5.6660   -5.0180   23.6570 C   0  0  0  0  0  0  0  0  0  0  0  0
    6.2650   -3.8000   24.3910 C   0  0  0  0  0  0  0  0  0  0  0  0
    5.2380   -3.3080   25.3660 C   0  0  0  0  0  0  0  0  0  0  0  0
    4.3370   -2.5980   24.9260 O   0  0  0  0  0  0  0  0  0  0  0  0
    5.2300   -3.6030   26.7670 N   0  0  0  0  0  0  0  0  0  0  0  0
    6.4410   -3.5700   27.4340 C   0  0  0  0  0  0  0  0  0  0  0  0
    6.4770   -4.9190   28.1360 C   0  0  0  0  0  0  0  0  0  0  0  0
    5.0900   -5.1120   28.5160 N   0  0  0  0  0  0  0  0  0  0  0  0
    5.1870   -6.0990   29.6020 C   0  0  0  0  0  0  0  0  0  0  0  0
    4.5030   -5.4590   30.5040 N   0  0  0  0  0  0  0  0  0  0  0  0
    4.6910   -6.3550   31.5170 N   0  0  0  0  0  0  0  0  0  0  0  0
    4.1440   -6.1290   32.8260 C   0  0  0  0  0  0  0  0  0  0  0  0
    4.5450   -7.2070   33.5710 C   0  0  0  0  0  0  0  0  0  0  0  0
    4.2780   -7.5110   35.0320 C   0  0  0  0  0  0  0  0  0  0  0  0
    5.4250   -6.9060   35.7920 C   0  0  0  0  0  0  0  0  0  0  0  0
    5.3580   -7.0970   37.3050 C   0  0  0  0  0  0  0  0  0  0  0  0
    4.2160   -7.8410   37.9520 C   0  0  0  0  0  0  0  0  0  0  0  0
    4.1520   -8.0140   39.3090 F   0  0  0  0  0  0  0  0  0  0  0  0
    3.1420   -8.3920   37.0830 C   0  0  0  0  0  0  0  0  0  0  0  0
    3.1140   -8.2590   35.5890 C   0  0  0  0  0  0  0  0  0  0  0  0
    5.2840   -8.0530   32.7960 N   0  0  0  0  0  0  0  0  0  0  0  0
    5.3490   -7.5060   31.5640 C   0  0  0  0  0  0  0  0  0  0  0  0
    5.9700   -7.6940   29.9590 S   0  0  0  0  0  0  0  0  0  0  0  0
    4.3400   -3.9690   28.8340 C   0  0  0  0  0  0  0  0  0  0  0  0
    4.1050   -3.3170   27.6110 C   0  0  0  0  0  0  0  0  0  0  0  0
    6.7040   -2.7500   23.4000 C   0  0  0  0  0  0  0  0  0  0  0  0
    7.6520   -3.3410   22.3500 C   0  0  0  0  0  0  0  0  0  0  0  0
  1  2  1  0
  2  3  2  0
  2  4  1  0
  4  5  1  0
  5  6  1  0
  6  7  1  0
  7  8  1  0
  8  9  2  0
  8 10  1  0
 10 11  1  0
 11 12  1  0
 12 13  1  0
 13 14  1  0
 14 15  2  0
 15 16  1  0
 16 17  1  0
 17 18  2  0
 18 19  1  0
 19 20  2  0
 20 21  1  0
 21 22  2  0
 22 23  1  0
 22 24  1  0
 19 25  1  0
 24 25  2  0
 18 26  1  0
 16 27  1  0
 26 27  2  0
 14 28  1  0
 27 28  1  0
 13 29  1  0
 10 30  1  0
 29 30  1  0
  7 31  1  0
  4 32  1  0
 31 32  1  0
M  END
