piperidine-amides-32497-covalent
     RDKit          3D

 28 30  0  0  0  0  0  0  0  0999 V2000
    7.0740   -3.3450   19.3370 C   0  0  0  0  0  0  0  0  0  0  0  0
    6.3870   -4.2210   20.3190 C   0  0  0  0  0  0  0  0  0  0  0  0
    5.3590   -4.8270   19.9740 O   0  0  0  0  0  0  0  0  0  0  0  0
    6.9550   -4.3830   21.5990 N   0  0  0  0  0  0  0  0  0  0  0  0
    6.6130   -5.5130   22.4210 C   0  0  0  0  0  0  0  0  0  0  0  0
    5.7410   -4.9630   23.5550 C   0  0  0  0  0  0  0  0  0  0  0  0
    6.5110   -3.8850   24.2500 C   0  0  0  0  0  0  0  0  0  0  0  0
    5.8040   -3.3980   25.4640 C   0  0  0  0  0  0  0  0  0  0  0  0
    4.9670   -2.5110   25.2800 O   0  0  0  0  0  0  0  0  0  0  0  0
    6.0580   -3.9450   26.7350 N   0  0  0  0  0  0  0  0  0  0  0  0
    5.8980   -3.2920   27.9900 C   0  0  0  0  0  0  0  0  0  0  0  0
    5.1060   -3.7840   29.0290 C   0  0  0  0  0  0  0  0  0  0  0  0
    5.4430   -5.1770   29.3210 N   0  0  0  0  0  0  0  0  0  0  0  0
    4.8930   -5.9250   30.3750 C   0  0  0  0  0  0  0  0  0  0  0  0
    3.8560   -6.7320   29.9640 C   0  0  0  0  0  0  0  0  0  0  0  0
    3.5070   -6.9320   28.5480 C   0  0  0  0  0  0  0  0  0  0  0  0
    2.3590   -7.8220   28.1120 C   0  0  0  0  0  0  0  0  0  0  0  0
    1.6200   -8.4760   29.2790 C   0  0  0  0  0  0  0  0  0  0  0  0
    2.0040   -8.2430   30.5990 C   0  0  0  0  0  0  0  0  0  0  0  0
    1.2850   -8.8750   31.7380 C   0  0  0  0  0  0  0  0  0  0  0  0
    0.2310   -8.1980   32.2530 F   0  0  0  0  0  0  0  0  0  0  0  0
    2.0670   -9.2160   32.8050 F   0  0  0  0  0  0  0  0  0  0  0  0
    0.7410  -10.0380   31.2120 F   0  0  0  0  0  0  0  0  0  0  0  0
    3.0920   -7.3930   30.9110 C   0  0  0  0  0  0  0  0  0  0  0  0
    6.2400   -5.6550   28.3840 C   0  0  0  0  0  0  0  0  0  0  0  0
    5.9280   -5.3690   26.9120 C   0  0  0  0  0  0  0  0  0  0  0  0
    6.8930   -2.7400   23.3730 C   0  0  0  0  0  0  0  0  0  0  0  0
    7.7110   -3.3170   22.2260 C   0  0  0  0  0  0  0  0  0  0  0  0
  1  2  1  0
  2  3  2  0
  2  4  1  0
  4  5  1  0
  5  6  1  0
  6  7  1  0
  7  8  1  0
  8  9  2  0
  8 10  1  0
 10 11  1  0
 11 12  1  0
 12 13  1  0
 13 14  1  0
 14 15  1  0
 15 16  2  0
 16 17  1  0
 17 18  2  0
 18 19  1  0
 19 20  1  0
 20 21  1  0
 20 22  1  0
 20 23  1  0
 15 24  1  0
 19 24  2  0
 13 25  1  0
 10 26  1  0
 25 26  1  0
  7 27  1  0
  4 28  1  0
 27 28  1  0
M  END
