piperidine-amides-11465-covalent
     RDKit          3D

 23 26  0  0  0  0  0  0  0  0999 V2000
    7.0540   -3.3640   19.3460 C   0  0  0  0  0  0  0  0  0  0  0  0
    6.3430   -4.1420   20.3600 C   0  0  0  0  0  0  0  0  0  0  0  0
    5.4130   -4.8840   19.9980 O   0  0  0  0  0  0  0  0  0  0  0  0
    6.7360   -4.0800   21.7140 N   0  0  0  0  0  0  0  0  0  0  0  0
    7.7100   -3.1130   22.1660 C   0  0  0  0  0  0  0  0  0  0  0  0
    7.5040   -3.1560   23.6350 C   0  0  0  0  0  0  0  0  0  0  0  0
    6.0710   -3.4860   23.8700 C   0  0  0  0  0  0  0  0  0  0  0  0
    5.6450   -3.2680   25.2750 C   0  0  0  0  0  0  0  0  0  0  0  0
    4.4620   -3.5390   25.6380 O   0  0  0  0  0  0  0  0  0  0  0  0
    6.5200   -2.7430   26.2490 N   0  0  0  0  0  0  0  0  0  0  0  0
    6.0610   -1.7390   27.2410 C   0  0  2  0  0  0  0  0  0  0  0  0
    6.2370   -0.4260   26.9430 C   0  0  1  0  0  0  0  0  0  0  0  0
    5.3590    0.6540   27.5020 C   0  0  0  0  0  0  0  0  0  0  0  0
    5.7910    0.6650   28.9380 C   0  0  0  0  0  0  0  0  0  0  0  0
    5.1970    1.5940   29.9940 C   0  0  0  0  0  0  0  0  0  0  0  0
    5.7470    1.4640   31.3930 C   0  0  0  0  0  0  0  0  0  0  0  0
    5.0860    2.5730   32.7990 Br  0  0  0  0  0  0  0  0  0  0  0  0
    6.7370    0.5230   31.6020 C   0  0  0  0  0  0  0  0  0  0  0  0
    7.2520   -0.3050   30.6150 C   0  0  0  0  0  0  0  0  0  0  0  0
    6.7330   -0.2070   29.2250 C   0  0  0  0  0  0  0  0  0  0  0  0
    7.1680   -1.0220   28.0380 C   0  0  1  0  0  0  0  0  0  0  0  0
    5.7450   -4.8920   23.2890 C   0  0  0  0  0  0  0  0  0  0  0  0
    6.6030   -5.3060   22.5170 C   0  0  0  0  0  0  0  0  0  0  0  0
  1  2  1  0
  2  3  2  0
  2  4  1  0
  4  5  1  0
  5  6  1  0
  6  7  1  0
  7  8  1  0
  8  9  2  0
  8 10  1  0
 11 10  1  6
 11 12  1  0
 12 13  1  1
 13 14  1  0
 14 15  1  0
 15 16  2  0
 16 17  1  0
 16 18  1  0
 18 19  2  0
 14 20  2  0
 19 20  1  0
 11 21  1  0
 12 21  1  0
 21 20  1  1
  7 22  1  0
  4 23  1  0
 22 23  1  0
M  END
