piperidine-amides-5202-covalent
     RDKit          3D

 22 24  0  0  0  0  0  0  0  0999 V2000
    7.0870   -3.2860   19.2610 C   0  0  0  0  0  0  0  0  0  0  0  0
    6.3600   -4.0920   20.2670 C   0  0  0  0  0  0  0  0  0  0  0  0
    5.2940   -4.6160   19.9000 O   0  0  0  0  0  0  0  0  0  0  0  0
    6.8800   -4.2930   21.5490 N   0  0  0  0  0  0  0  0  0  0  0  0
    7.5830   -3.2270   22.1880 C   0  0  0  0  0  0  0  0  0  0  0  0
    7.0550   -2.8400   23.4940 C   0  0  0  0  0  0  0  0  0  0  0  0
    6.4440   -3.9420   24.2650 C   0  0  0  0  0  0  0  0  0  0  0  0
    5.7280   -3.4250   25.4660 C   0  0  0  0  0  0  0  0  0  0  0  0
    4.4760   -3.3820   25.4730 O   0  0  0  0  0  0  0  0  0  0  0  0
    6.4460   -2.9830   26.5940 N   0  0  0  0  0  0  0  0  0  0  0  0
    6.3460   -1.6150   27.1620 C   0  0  0  0  0  0  0  0  0  0  0  0
    6.8630   -1.5380   28.5690 C   0  0  0  0  0  0  0  0  0  0  0  0
    6.8420   -0.3000   29.3140 C   0  0  0  0  0  0  0  0  0  0  0  0
    6.3250    0.6870   28.5580 C   0  0  0  0  0  0  0  0  0  0  0  0
    6.2170    1.9710   29.0690 N   0  0  0  0  0  0  0  0  0  0  0  0
    5.6420    2.7360   28.0040 C   0  0  0  0  0  0  0  0  0  0  0  0
    5.4480    4.0500   28.2880 C   0  0  0  0  0  0  0  0  0  0  0  0
    5.4090    1.8330   26.8240 C   0  0  0  0  0  0  0  0  0  0  0  0
    5.8620    0.6340   27.2910 N   0  0  0  0  0  0  0  0  0  0  0  0
    5.8140   -0.4600   26.4820 C   0  0  0  0  0  0  0  0  0  0  0  0
    5.6000   -4.8200   23.3830 C   0  0  0  0  0  0  0  0  0  0  0  0
    6.4840   -5.4200   22.3600 C   0  0  0  0  0  0  0  0  0  0  0  0
  1  2  1  0
  2  3  2  0
  2  4  1  0
  4  5  1  0
  5  6  1  0
  6  7  1  0
  7  8  1  0
  8  9  2  0
  8 10  1  0
 10 11  1  0
 11 12  1  0
 12 13  2  0
 13 14  1  0
 14 15  2  0
 15 16  1  0
 16 17  1  0
 16 18  2  0
 14 19  1  0
 18 19  1  0
 11 20  2  0
 19 20  1  0
  7 21  1  0
  4 22  1  0
 21 22  1  0
M  END
