piperidine-amides-30283-covalent
     RDKit          3D

 27 29  0  0  0  0  0  0  0  0999 V2000
    7.0480   -3.3800   19.3440 C   0  0  0  0  0  0  0  0  0  0  0  0
    6.4050   -4.2360   20.3350 C   0  0  0  0  0  0  0  0  0  0  0  0
    5.4090   -4.8830   20.0010 O   0  0  0  0  0  0  0  0  0  0  0  0
    6.9580   -4.3750   21.6630 N   0  0  0  0  0  0  0  0  0  0  0  0
    7.7100   -3.3160   22.2750 C   0  0  0  0  0  0  0  0  0  0  0  0
    6.8990   -2.6790   23.3690 C   0  0  0  0  0  0  0  0  0  0  0  0
    6.3500   -3.7280   24.3350 C   0  0  0  0  0  0  0  0  0  0  0  0
    5.2730   -3.1040   25.1810 C   0  0  0  0  0  0  0  0  0  0  0  0
    4.2280   -2.7090   24.6530 O   0  0  0  0  0  0  0  0  0  0  0  0
    5.3640   -2.9390   26.5970 N   0  0  0  0  0  0  0  0  0  0  0  0
    4.1740   -3.2840   27.3180 C   0  0  0  0  0  0  0  0  0  0  0  0
    4.7340   -4.4500   28.0390 C   0  0  0  0  0  0  0  0  0  0  0  0
    6.0660   -4.4570   27.8100 C   0  0  2  0  0  0  0  0  0  0  0  0
    6.6850   -4.7270   29.0440 N   0  0  0  0  0  0  0  0  0  0  0  0
    6.1340   -5.9370   29.5870 C   0  0  0  0  0  0  0  0  0  0  0  0
    6.8140   -7.0970   29.2360 O   0  0  0  0  0  0  0  0  0  0  0  0
    5.0200   -5.8660   30.3590 N   0  0  0  0  0  0  0  0  0  0  0  0
    4.9110   -6.5240   31.5120 C   0  0  0  0  0  0  0  0  0  0  0  0
    5.6980   -7.6930   31.8890 C   0  0  0  0  0  0  0  0  0  0  0  0
    5.5730   -8.3610   33.0900 C   0  0  0  0  0  0  0  0  0  0  0  0
    4.6510   -7.9060   33.9990 C   0  0  0  0  0  0  0  0  0  0  0  0
    3.8550   -6.8050   33.7370 C   0  0  0  0  0  0  0  0  0  0  0  0
    3.9870   -6.0960   32.4620 C   0  0  0  0  0  0  0  0  0  0  0  0
    3.1530   -5.0270   32.3150 F   0  0  0  0  0  0  0  0  0  0  0  0
    6.5470   -3.2780   27.2400 C   0  0  0  0  0  0  0  0  0  0  0  0
    5.7280   -4.9280   23.6270 C   0  0  0  0  0  0  0  0  0  0  0  0
    6.5300   -5.4450   22.4720 C   0  0  0  0  0  0  0  0  0  0  0  0
  1  2  1  0
  2  3  2  0
  2  4  1  0
  4  5  1  0
  5  6  1  0
  6  7  1  0
  7  8  1  0
  8  9  2  0
  8 10  1  0
 10 11  1  0
 11 12  1  0
 12 13  1  0
 13 14  1  1
 14 15  1  0
 15 16  2  0
 15 17  1  0
 17 18  1  0
 18 19  2  0
 19 20  1  0
 20 21  2  0
 21 22  1  0
 18 23  1  0
 22 23  2  0
 23 24  1  0
 10 25  1  0
 13 25  1  0
  7 26  1  0
  4 27  1  0
 26 27  1  0
M  END
