piperidine-amides-2431-covalent
     RDKit          3D

 27 29  0  0  0  0  0  0  0  0999 V2000
    7.0720   -3.3070   19.2990 C   0  0  0  0  0  0  0  0  0  0  0  0
    6.3710   -4.1430   20.3050 C   0  0  0  0  0  0  0  0  0  0  0  0
    5.3560   -4.7390   19.9460 O   0  0  0  0  0  0  0  0  0  0  0  0
    6.9030   -4.2560   21.5870 N   0  0  0  0  0  0  0  0  0  0  0  0
    7.7240   -3.2180   22.1540 C   0  0  0  0  0  0  0  0  0  0  0  0
    7.0070   -2.6310   23.3230 C   0  0  0  0  0  0  0  0  0  0  0  0
    6.5980   -3.7810   24.2220 C   0  0  0  0  0  0  0  0  0  0  0  0
    5.7970   -3.2360   25.3340 C   0  0  0  0  0  0  0  0  0  0  0  0
    4.6250   -2.8900   25.1370 O   0  0  0  0  0  0  0  0  0  0  0  0
    6.3650   -3.1200   26.6110 N   0  0  0  0  0  0  0  0  0  0  0  0
    6.4000   -1.8450   27.2980 C   0  0  0  0  0  0  0  0  0  0  0  0
    5.8290   -0.6210   26.6660 C   0  0  0  0  0  0  0  0  0  0  0  0
    5.8120    0.6150   27.2450 C   0  0  0  0  0  0  0  0  0  0  0  0
    6.3610    0.7420   28.5050 C   0  0  0  0  0  0  0  0  0  0  0  0
    6.9210   -0.3580   29.1660 C   0  0  0  0  0  0  0  0  0  0  0  0
    7.4320   -0.1280   30.4000 O   0  0  0  0  0  0  0  0  0  0  0  0
    6.6450    0.3900   31.3750 C   0  0  0  0  0  0  0  0  0  0  0  0
    5.3440   -0.3530   31.3040 C   0  0  0  0  0  0  0  0  0  0  0  0
    5.1760   -1.5670   30.6690 O   0  0  0  0  0  0  0  0  0  0  0  0
    4.2840    0.3890   31.9840 N   0  0  0  0  0  0  0  0  0  0  0  0
    3.0400   -0.2980   31.7340 C   0  0  0  0  0  0  0  0  0  0  0  0
    2.2890   -0.5130   32.9960 C   0  0  0  0  0  0  0  0  0  0  0  0
    3.1910    0.0790   34.0160 C   0  0  0  0  0  0  0  0  0  0  0  0
    4.4670    0.6210   33.3780 C   0  0  0  0  0  0  0  0  0  0  0  0
    6.9640   -1.6290   28.6170 C   0  0  0  0  0  0  0  0  0  0  0  0
    5.7790   -4.8160   23.4580 C   0  0  0  0  0  0  0  0  0  0  0  0
    6.5420   -5.3680   22.4450 C   0  0  0  0  0  0  0  0  0  0  0  0
  1  2  1  0
  2  3  2  0
  2  4  1  0
  4  5  1  0
  5  6  1  0
  6  7  1  0
  7  8  1  0
  8  9  2  0
  8 10  1  0
 10 11  1  0
 11 12  2  0
 12 13  1  0
 13 14  2  0
 14 15  1  0
 15 16  1  0
 16 17  1  0
 17 18  1  0
 18 19  2  0
 18 20  1  0
 20 21  1  0
 21 22  1  0
 22 23  1  0
 20 24  1  0
 23 24  1  0
 11 25  1  0
 15 25  2  0
  7 26  1  0
  4 27  1  0
 26 27  1  0
M  END
