piperidine-amides-9249-covalent
     RDKit          3D

 20 21  0  0  0  0  0  0  0  0999 V2000
    7.1250   -3.2690   19.1940 C   0  0  0  0  0  0  0  0  0  0  0  0
    6.3660   -4.0230   20.1930 C   0  0  0  0  0  0  0  0  0  0  0  0
    5.2790   -4.5280   19.8720 O   0  0  0  0  0  0  0  0  0  0  0  0
    6.8660   -4.2460   21.4830 N   0  0  0  0  0  0  0  0  0  0  0  0
    6.7000   -5.5030   22.1770 C   0  0  0  0  0  0  0  0  0  0  0  0
    5.8730   -5.1750   23.3810 C   0  0  0  0  0  0  0  0  0  0  0  0
    5.7990   -3.6930   23.5840 C   0  0  0  0  0  0  0  0  0  0  0  0
    5.1440   -3.3470   24.8500 C   0  0  0  0  0  0  0  0  0  0  0  0
    3.9880   -2.8400   24.8680 O   0  0  0  0  0  0  0  0  0  0  0  0
    5.7460   -3.5550   26.0850 N   0  0  0  0  0  0  0  0  0  0  0  0
    6.4980   -4.7810   26.3820 C   0  0  0  0  0  0  0  0  0  0  0  0
    7.1290   -4.3680   27.6070 C   0  0  2  0  0  0  0  0  0  0  0  0
    7.8230   -5.2430   28.5440 C   0  0  0  0  0  0  0  0  0  0  0  0
    6.8750   -5.6680   29.2490 O   0  0  0  0  0  0  0  0  0  0  0  0
    6.4350   -3.2300   28.3290 C   0  0  0  0  0  0  0  0  0  0  0  0
    7.7030   -3.0020   27.5760 C   0  0  0  0  0  0  0  0  0  0  0  0
    8.6150   -2.5000   28.5840 C   0  0  0  0  0  0  0  0  0  0  0  0
    7.7250   -2.0320   26.3950 C   0  0  0  0  0  0  0  0  0  0  0  0
    7.1590   -3.0480   23.5170 C   0  0  0  0  0  0  0  0  0  0  0  0
    7.6920   -3.2310   22.1220 C   0  0  0  0  0  0  0  0  0  0  0  0
  1  2  1  0
  2  3  2  0
  2  4  1  0
  4  5  1  0
  5  6  1  0
  6  7  1  0
  7  8  1  0
  8  9  2  0
  8 10  1  0
 10 11  1  0
 12 11  1  6
 12 13  1  0
 13 14  1  0
 12 15  1  0
 12 16  1  0
 15 16  1  0
 16 17  1  0
 16 18  1  0
  7 19  1  0
  4 20  1  0
 19 20  1  0
M  END
