piperidine-amides-25146-covalent
     RDKit          3D

 25 28  0  0  0  0  0  0  0  0999 V2000
    7.0640   -3.3290   19.3250 C   0  0  0  0  0  0  0  0  0  0  0  0
    6.3970   -4.2000   20.3270 C   0  0  0  0  0  0  0  0  0  0  0  0
    5.3780   -4.7870   19.9650 O   0  0  0  0  0  0  0  0  0  0  0  0
    6.9450   -4.3710   21.6030 N   0  0  0  0  0  0  0  0  0  0  0  0
    6.6910   -5.5860   22.3400 C   0  0  0  0  0  0  0  0  0  0  0  0
    6.3250   -5.2560   23.7620 C   0  0  0  0  0  0  0  0  0  0  0  0
    6.0940   -3.7510   23.8830 C   0  0  0  0  0  0  0  0  0  0  0  0
    5.5330   -3.3790   25.1980 C   0  0  0  0  0  0  0  0  0  0  0  0
    4.6050   -2.5640   25.2180 O   0  0  0  0  0  0  0  0  0  0  0  0
    5.9710   -3.8870   26.4260 N   0  0  0  0  0  0  0  0  0  0  0  0
    6.8590   -5.0580   26.4810 C   0  0  0  0  0  0  0  0  0  0  0  0
    6.9220   -5.7530   27.8510 C   0  0  0  0  0  0  0  0  0  0  0  0
    6.0120   -5.5610   28.8470 C   0  0  0  0  0  0  0  0  0  0  0  0
    6.0010   -6.4480   29.8310 C   0  0  0  0  0  0  0  0  0  0  0  0
    5.1150   -6.3020   30.8030 C   0  0  0  0  0  0  0  0  0  0  0  0
    4.0870   -5.2410   30.9360 C   0  0  0  0  0  0  0  0  0  0  0  0
    4.1770   -4.2720   29.7740 C   0  0  0  0  0  0  0  0  0  0  0  0
    5.1850   -4.3710   28.6070 C   0  0  0  0  0  0  0  0  0  0  0  0
    5.1720   -3.3890   27.5400 C   0  0  0  0  0  0  0  0  0  0  0  0
    3.1400   -5.1740   32.0600 C   0  0  0  0  0  0  0  0  0  0  0  0
    2.6860   -6.6270   32.1500 C   0  0  0  0  0  0  0  0  0  0  0  0
    3.7690   -7.6340   32.3810 C   0  0  0  0  0  0  0  0  0  0  0  0
    5.1560   -7.3120   31.8800 C   0  0  0  0  0  0  0  0  0  0  0  0
    7.4040   -3.0790   23.6130 C   0  0  0  0  0  0  0  0  0  0  0  0
    7.7130   -3.2730   22.1580 C   0  0  0  0  0  0  0  0  0  0  0  0
  1  2  1  0
  2  3  2  0
  2  4  1  0
  4  5  1  0
  5  6  1  0
  6  7  1  0
  7  8  1  0
  8  9  2  0
  8 10  1  0
 10 11  1  0
 11 12  1  0
 12 13  1  0
 13 14  2  0
 14 15  1  0
 15 16  2  0
 16 17  1  0
 13 18  1  0
 17 18  2  0
 10 19  1  0
 18 19  1  0
 16 20  1  0
 20 21  1  0
 21 22  1  0
 15 23  1  0
 22 23  1  0
  7 24  1  0
  4 25  1  0
 24 25  1  0
M  END
