piperidine-amides-33447-covalent
     RDKit          3D

 29 30  0  0  0  0  0  0  0  0999 V2000
    7.0480   -3.3780   19.3320 C   0  0  0  0  0  0  0  0  0  0  0  0
    6.4200   -4.2390   20.3450 C   0  0  0  0  0  0  0  0  0  0  0  0
    5.3860   -4.8530   19.9870 O   0  0  0  0  0  0  0  0  0  0  0  0
    6.9970   -4.4100   21.6330 N   0  0  0  0  0  0  0  0  0  0  0  0
    6.6200   -5.5600   22.3900 C   0  0  0  0  0  0  0  0  0  0  0  0
    6.2100   -5.2360   23.7570 C   0  0  0  0  0  0  0  0  0  0  0  0
    6.1630   -3.7870   24.0130 C   0  0  0  0  0  0  0  0  0  0  0  0
    5.5260   -3.3850   25.3140 C   0  0  0  0  0  0  0  0  0  0  0  0
    4.7390   -2.4260   25.2860 O   0  0  0  0  0  0  0  0  0  0  0  0
    5.7190   -4.0140   26.5610 N   0  0  0  0  0  0  0  0  0  0  0  0
    4.8340   -4.9600   27.1230 C   0  0  0  0  0  0  0  0  0  0  0  0
    4.5300   -4.9890   28.5860 C   0  0  0  0  0  0  0  0  0  0  0  0
    5.7660   -4.6220   29.4330 C   0  0  0  0  0  0  0  0  0  0  0  0
    6.7530   -4.2290   28.6360 C   0  0  1  0  0  0  0  0  0  0  0  0
    6.6450   -5.7330   28.2780 C   0  0  0  0  0  0  0  0  0  0  0  0
    6.0130   -3.2620   27.6950 C   0  0  1  0  0  0  0  0  0  0  0  0
    6.7720   -1.9550   27.4480 C   0  0  0  0  0  0  0  0  0  0  0  0
    5.9510   -0.7010   27.1980 C   0  0  0  0  0  0  0  0  0  0  0  0
    6.2030    0.3940   28.2330 C   0  0  0  0  0  0  0  0  0  0  0  0
    6.2830    0.0230   29.5210 N   0  0  0  0  0  0  0  0  0  0  0  0
    7.0530    0.7530   30.4580 C   0  0  0  0  0  0  0  0  0  0  0  0
    6.6300    1.4360   31.4560 O   0  0  0  0  0  0  0  0  0  0  0  0
    8.3120    0.8510   30.4450 O   0  0  0  0  0  0  0  0  0  0  0  0
    9.1060    1.2020   31.5730 C   0  0  0  0  0  0  0  0  0  0  0  0
    9.2260    2.5900   31.5270 C   0  0  0  0  0  0  0  0  0  0  0  0
    8.5400    0.5850   32.6730 C   0  0  0  0  0  0  0  0  0  0  0  0
   10.5200    0.6370   31.4570 C   0  0  0  0  0  0  0  0  0  0  0  0
    7.4910   -3.1700   23.7130 C   0  0  0  0  0  0  0  0  0  0  0  0
    7.7230   -3.3110   22.2180 C   0  0  0  0  0  0  0  0  0  0  0  0
  1  2  1  0
  2  3  2  0
  2  4  1  0
  4  5  1  0
  5  6  1  0
  6  7  1  0
  7  8  1  0
  8  9  2  0
  8 10  1  0
 10 11  1  0
 11 12  1  0
 12 13  1  0
 13 14  1  0
 14 15  1  6
 10 16  1  0
 14 16  1  0
 16 17  1  6
 17 18  1  0
 18 19  1  0
 19 20  1  0
 20 21  1  0
 21 22  2  0
 21 23  1  0
 24 23  1  0
 24 25  1  0
 24 26  1  0
 24 27  1  0
  7 28  1  0
  4 29  1  0
 28 29  1  0
M  END
