piperidine-amides-19852-covalent
     RDKit          3D

 22 24  0  0  0  0  0  0  0  0999 V2000
    7.0210   -3.3700   19.4000 C   0  0  0  0  0  0  0  0  0  0  0  0
    6.3870   -4.2690   20.4030 C   0  0  0  0  0  0  0  0  0  0  0  0
    5.4160   -4.9130   20.0040 O   0  0  0  0  0  0  0  0  0  0  0  0
    6.9090   -4.4000   21.7100 N   0  0  0  0  0  0  0  0  0  0  0  0
    6.6610   -5.5790   22.5200 C   0  0  0  0  0  0  0  0  0  0  0  0
    6.0310   -5.1910   23.8460 C   0  0  0  0  0  0  0  0  0  0  0  0
    5.9020   -3.6710   23.9060 C   0  0  0  0  0  0  0  0  0  0  0  0
    5.0830   -3.2260   25.0720 C   0  0  0  0  0  0  0  0  0  0  0  0
    4.0450   -2.6120   24.8280 O   0  0  0  0  0  0  0  0  0  0  0  0
    5.3730   -3.4370   26.4290 N   0  0  0  0  0  0  0  0  0  0  0  0
    4.6500   -2.6560   27.4130 C   0  0  0  0  0  0  0  0  0  0  0  0
    4.3010   -3.5100   28.6240 C   0  0  0  0  0  0  0  0  0  0  0  0
    4.9710   -4.7840   28.4750 N   0  0  0  0  0  0  0  0  0  0  0  0
    6.3160   -4.3170   28.2020 C   0  0  0  0  0  0  0  0  0  0  0  0
    6.7360   -5.2530   29.1380 N   0  0  0  0  0  0  0  0  0  0  0  0
    5.8550   -6.0350   29.8110 N   0  0  0  0  0  0  0  0  0  0  0  0
    6.1870   -7.4100   29.6060 C   0  0  0  0  0  0  0  0  0  0  0  0
    4.6640   -5.6270   29.5290 C   0  0  0  0  0  0  0  0  0  0  0  0
    3.4380   -5.8940   30.0610 O   0  0  0  0  0  0  0  0  0  0  0  0
    6.5090   -3.2230   27.2000 C   0  0  0  0  0  0  0  0  0  0  0  0
    7.2210   -3.0100   23.6920 C   0  0  0  0  0  0  0  0  0  0  0  0
    7.6960   -3.3220   22.3020 C   0  0  0  0  0  0  0  0  0  0  0  0
  1  2  1  0
  2  3  2  0
  2  4  1  0
  4  5  1  0
  5  6  1  0
  6  7  1  0
  7  8  1  0
  8  9  2  0
  8 10  1  0
 10 11  1  0
 11 12  1  0
 12 13  1  0
 13 14  1  0
 14 15  2  0
 15 16  1  0
 16 17  1  0
 13 18  1  0
 16 18  1  0
 18 19  2  0
 10 20  1  0
 14 20  1  0
  7 21  1  0
  4 22  1  0
 21 22  1  0
M  END
