piperidine-amides-14409-covalent
     RDKit          3D

 23 25  0  0  0  0  0  0  0  0999 V2000
    7.0560   -3.3490   19.3180 C   0  0  0  0  0  0  0  0  0  0  0  0
    6.4030   -4.1980   20.3090 C   0  0  0  0  0  0  0  0  0  0  0  0
    5.3690   -4.7970   19.9710 O   0  0  0  0  0  0  0  0  0  0  0  0
    6.9820   -4.3700   21.5940 N   0  0  0  0  0  0  0  0  0  0  0  0
    7.6130   -3.2470   22.2120 C   0  0  0  0  0  0  0  0  0  0  0  0
    6.7140   -2.7410   23.2940 C   0  0  0  0  0  0  0  0  0  0  0  0
    6.5170   -3.8860   24.2620 C   0  0  0  0  0  0  0  0  0  0  0  0
    5.7640   -3.3940   25.4610 C   0  0  0  0  0  0  0  0  0  0  0  0
    4.5270   -3.3800   25.4140 O   0  0  0  0  0  0  0  0  0  0  0  0
    6.5140   -2.9910   26.5520 N   0  0  0  0  0  0  0  0  0  0  0  0
    6.4260   -1.6920   27.1240 C   0  0  0  0  0  0  0  0  0  0  0  0
    5.8660   -0.4740   26.6440 C   0  0  0  0  0  0  0  0  0  0  0  0
    5.8480    0.7320   27.3230 C   0  0  0  0  0  0  0  0  0  0  0  0
    6.3970    0.8410   28.5710 C   0  0  0  0  0  0  0  0  0  0  0  0
    6.2440    2.2390   29.0910 C   0  0  0  0  0  0  0  0  0  0  0  0
    6.8450    3.3710   28.2220 C   0  0  0  0  0  0  0  0  0  0  0  0
    7.4570    4.1300   29.0160 O   0  0  0  0  0  0  0  0  0  0  0  0
    5.8520    2.4400   30.3740 C   0  0  0  0  0  0  0  0  0  0  0  0
    4.8050    2.6710   29.3560 C   0  0  0  0  0  0  0  0  0  0  0  0
    6.9790   -0.2490   29.1680 C   0  0  0  0  0  0  0  0  0  0  0  0
    7.0020   -1.4400   28.5070 C   0  0  0  0  0  0  0  0  0  0  0  0
    5.7260   -4.9630   23.5770 C   0  0  0  0  0  0  0  0  0  0  0  0
    6.4670   -5.4660   22.3690 C   0  0  0  0  0  0  0  0  0  0  0  0
  1  2  1  0
  2  3  2  0
  2  4  1  0
  4  5  1  0
  5  6  1  0
  6  7  1  0
  7  8  1  0
  8  9  2  0
  8 10  1  0
 10 11  1  0
 11 12  2  0
 12 13  1  0
 13 14  2  0
 14 15  1  0
 15 16  1  0
 16 17  1  0
 15 18  1  0
 15 19  1  0
 18 19  1  0
 14 20  1  0
 11 21  1  0
 20 21  2  0
  7 22  1  0
  4 23  1  0
 22 23  1  0
M  END
