piperidine-amides-24646-covalent
     RDKit          3D

 24 26  0  0  0  0  0  0  0  0999 V2000
    7.0270   -3.3510   19.3570 C   0  0  0  0  0  0  0  0  0  0  0  0
    6.3720   -4.2180   20.3530 C   0  0  0  0  0  0  0  0  0  0  0  0
    5.4050   -4.9300   20.0020 O   0  0  0  0  0  0  0  0  0  0  0  0
    6.8400   -4.2860   21.6780 N   0  0  0  0  0  0  0  0  0  0  0  0
    6.7020   -5.5420   22.4060 C   0  0  0  0  0  0  0  0  0  0  0  0
    6.2150   -5.2250   23.8330 C   0  0  0  0  0  0  0  0  0  0  0  0
    6.2530   -3.7250   23.9400 C   0  0  0  0  0  0  0  0  0  0  0  0
    5.7780   -3.1800   25.2300 C   0  0  0  0  0  0  0  0  0  0  0  0
    5.2220   -2.0670   25.1960 O   0  0  0  0  0  0  0  0  0  0  0  0
    5.8750   -3.8640   26.4610 N   0  0  0  0  0  0  0  0  0  0  0  0
    4.6130   -4.0860   27.1060 C   0  0  0  0  0  0  0  0  0  0  0  0
    4.7200   -5.2420   28.0700 C   0  0  0  0  0  0  0  0  0  0  0  0
    5.4640   -5.0010   29.1500 C   0  0  0  0  0  0  0  0  0  0  0  0
    6.6130   -4.5740   28.6140 C   0  0  0  0  0  0  0  0  0  0  0  0
    6.3440   -3.4780   27.7830 C   0  0  0  0  0  0  0  0  0  0  0  0
    5.4470   -6.1490   29.9920 N   0  0  0  0  0  0  0  0  0  0  0  0
    4.3560   -5.7880   30.8200 C   0  0  0  0  0  0  0  0  0  0  0  0
    3.7200   -6.5130   31.7720 O   0  0  0  0  0  0  0  0  0  0  0  0
    3.9180   -4.3810   30.5530 C   0  0  0  0  0  0  0  0  0  0  0  0
    2.9770   -5.4890   30.1340 C   0  0  0  0  0  0  0  0  0  0  0  0
    3.4860   -3.4200   31.5740 C   0  0  0  0  0  0  0  0  0  0  0  0
    4.9020   -3.9060   29.7210 O   0  0  0  0  0  0  0  0  0  0  0  0
    7.6230   -3.2270   23.5950 C   0  0  0  0  0  0  0  0  0  0  0  0
    7.7170   -3.2450   22.2030 C   0  0  0  0  0  0  0  0  0  0  0  0
  1  2  1  0
  2  3  2  0
  2  4  1  0
  4  5  1  0
  5  6  1  0
  6  7  1  0
  7  8  1  0
  8  9  2  0
  8 10  1  0
 10 11  1  0
 11 12  1  0
 12 13  1  0
 13 14  1  0
 10 15  1  0
 14 15  1  0
 13 16  1  0
 16 17  1  0
 17 18  2  0
 17 19  1  0
 19 20  1  0
 19 21  1  0
 13 22  1  0
 19 22  1  0
  7 23  1  0
  4 24  1  0
 23 24  1  0
M  END
