piperidine-amides-888-covalent
     RDKit          3D

 24 26  0  0  0  0  0  0  0  0999 V2000
    7.2030   -3.2990   19.3320 C   0  0  0  0  0  0  0  0  0  0  0  0
    6.3930   -4.0320   20.2710 C   0  0  0  0  0  0  0  0  0  0  0  0
    5.2980   -4.5400   19.8830 O   0  0  0  0  0  0  0  0  0  0  0  0
    6.8200   -4.2360   21.5920 N   0  0  0  0  0  0  0  0  0  0  0  0
    6.3700   -5.4530   22.2920 C   0  0  0  0  0  0  0  0  0  0  0  0
    5.4220   -4.7670   23.3430 C   0  0  0  0  0  0  0  0  0  0  0  0
    6.3540   -3.8930   24.1430 C   0  0  0  0  0  0  0  0  0  0  0  0
    5.6660   -3.3210   25.4580 C   0  0  0  0  0  0  0  0  0  0  0  0
    5.1250   -2.2470   25.2400 O   0  0  0  0  0  0  0  0  0  0  0  0
    5.8440   -4.1490   26.4070 N   0  0  0  0  0  0  0  0  0  0  0  0
    5.9450   -5.0180   27.4520 C   0  0  0  0  0  0  0  0  0  0  0  0
    5.1960   -5.7970   28.2820 C   0  0  0  0  0  0  0  0  0  0  0  0
    3.8150   -6.1280   28.0350 C   0  0  0  0  0  0  0  0  0  0  0  0
    2.8070   -6.9370   28.7770 C   0  0  0  0  0  0  0  0  0  0  0  0
    3.4830   -7.4710   30.0340 C   0  0  0  0  0  0  0  0  0  0  0  0
    2.5560   -8.2350   30.7570 C   0  0  0  0  0  0  0  0  0  0  0  0
    2.5310   -8.4140   32.1950 C   0  0  0  0  0  0  0  0  0  0  0  0
    1.2910   -9.3520   32.3740 C   0  0  0  0  0  0  0  0  0  0  0  0
    0.5530   -9.7350   30.9170 S   0  0  0  0  0  0  0  0  0  0  0  0
    1.5710   -8.8560   29.7840 C   0  0  0  0  0  0  0  0  0  0  0  0
    4.8420   -7.2440   30.4340 N   0  0  0  0  0  0  0  0  0  0  0  0
    5.6280   -6.4450   29.5740 C   0  0  0  0  0  0  0  0  0  0  0  0
    7.0730   -2.8060   23.3560 C   0  0  0  0  0  0  0  0  0  0  0  0
    7.6810   -3.2830   22.2460 C   0  0  0  0  0  0  0  0  0  0  0  0
  1  2  1  0
  2  3  2  0
  2  4  1  0
  4  5  1  0
  5  6  1  0
  6  7  1  0
  7  8  1  0
  8  9  2  0
  8 10  1  0
 10 11  1  0
 11 12  1  0
 12 13  2  0
 13 14  1  0
 14 15  2  0
 15 16  1  0
 16 17  1  0
 17 18  2  0
 18 19  1  0
 16 20  2  0
 19 20  1  0
 15 21  1  0
 12 22  1  0
 21 22  2  0
  7 23  1  0
  4 24  1  0
 23 24  1  0
M  END
