piperidine-amides-11620-covalent
     RDKit          3D

 18 18  0  0  0  0  0  0  0  0999 V2000
    7.0790   -3.2910   19.1900 C   0  0  0  0  0  0  0  0  0  0  0  0
    6.3350   -4.0370   20.2010 C   0  0  0  0  0  0  0  0  0  0  0  0
    5.2740   -4.5770   19.8950 O   0  0  0  0  0  0  0  0  0  0  0  0
    6.8570   -4.2030   21.5290 N   0  0  0  0  0  0  0  0  0  0  0  0
    6.5280   -5.3620   22.3090 C   0  0  0  0  0  0  0  0  0  0  0  0
    5.8260   -4.9470   23.5720 C   0  0  0  0  0  0  0  0  0  0  0  0
    6.6030   -3.7980   24.2040 C   0  0  0  0  0  0  0  0  0  0  0  0
    5.8500   -3.2760   25.3810 C   0  0  0  0  0  0  0  0  0  0  0  0
    4.6270   -3.0480   25.3380 O   0  0  0  0  0  0  0  0  0  0  0  0
    6.5440   -3.0290   26.5920 N   0  0  0  0  0  0  0  0  0  0  0  0
    6.2170   -3.8070   27.7710 C   0  0  0  0  0  0  0  0  0  0  0  0
    5.3350   -4.9420   27.3270 C   0  0  0  0  0  0  0  0  0  0  0  0
    4.1250   -5.4800   26.9300 C   0  0  0  0  0  0  0  0  0  0  0  0
    3.8590   -6.8120   26.5910 C   0  0  0  0  0  0  0  0  0  0  0  0
    2.9970   -7.0630   25.5400 C   0  0  0  0  0  0  0  0  0  0  0  0
    2.6580   -8.4210   25.1300 C   0  0  0  0  0  0  0  0  0  0  0  0
    6.9330   -2.6670   23.2670 C   0  0  0  0  0  0  0  0  0  0  0  0
    7.6460   -3.1660   22.2020 C   0  0  0  0  0  0  0  0  0  0  0  0
  1  2  1  0
  2  3  2  0
  2  4  1  0
  4  5  1  0
  5  6  1  0
  6  7  1  0
  7  8  1  0
  8  9  2  0
  8 10  1  0
 10 11  1  0
 11 12  1  0
 12 13  2  3
 13 14  1  0
 14 15  2  3
 15 16  1  0
  7 17  1  0
  4 18  1  0
 17 18  1  0
M  END
