piperidine-amides-35460-covalent
     RDKit          3D

 32 35  0  0  0  0  0  0  0  0999 V2000
    7.0510   -3.3830   19.4500 C   0  0  0  0  0  0  0  0  0  0  0  0
    6.3600   -4.2580   20.4310 C   0  0  0  0  0  0  0  0  0  0  0  0
    5.4060   -4.9060   20.0010 O   0  0  0  0  0  0  0  0  0  0  0  0
    6.8210   -4.3470   21.7590 N   0  0  0  0  0  0  0  0  0  0  0  0
    6.7200   -5.5920   22.4970 C   0  0  0  0  0  0  0  0  0  0  0  0
    6.2180   -5.3270   23.8940 C   0  0  0  0  0  0  0  0  0  0  0  0
    6.1130   -3.8230   24.0800 C   0  0  0  0  0  0  0  0  0  0  0  0
    5.6390   -3.4240   25.4450 C   0  0  0  0  0  0  0  0  0  0  0  0
    4.6280   -2.7140   25.4840 O   0  0  0  0  0  0  0  0  0  0  0  0
    6.2200   -3.7860   26.6910 N   0  0  0  0  0  0  0  0  0  0  0  0
    6.0550   -5.1330   27.1590 C   0  0  0  0  0  0  0  0  0  0  0  0
    4.7200   -5.1940   27.8260 C   0  0  0  0  0  0  0  0  0  0  0  0
    4.7850   -4.7320   29.2340 N   0  0  0  0  0  0  0  0  0  0  0  0
    3.1810   -4.7490   29.9090 S   0  0  0  0  0  0  0  0  0  0  0  0
    2.3090   -4.2760   28.7940 O   0  0  0  0  0  0  0  0  0  0  0  0
    3.1410   -3.6890   30.9750 O   0  0  0  0  0  0  0  0  0  0  0  0
    2.5680   -6.3700   30.5700 C   0  0  0  0  0  0  0  0  0  0  0  0
    2.0230   -7.0580   29.5540 C   0  0  0  0  0  0  0  0  0  0  0  0
    1.4970   -8.2460   29.8150 C   0  0  0  0  0  0  0  0  0  0  0  0
    1.4760   -8.8600   31.1560 C   0  0  0  0  0  0  0  0  0  0  0  0
    2.1130   -8.0280   32.2430 C   0  0  0  0  0  0  0  0  0  0  0  0
    2.7600   -6.6240   32.0700 C   0  0  0  0  0  0  0  0  0  0  0  0
    3.4850   -5.6330   33.3080 Cl  0  0  0  0  0  0  0  0  0  0  0  0
    0.9420  -10.1000   31.5120 N   0  0  0  0  0  0  0  0  0  0  0  0
    0.5070  -10.8050   30.3470 C   0  0  0  0  0  0  0  0  0  0  0  0
    0.0010  -12.0920   30.4600 O   0  0  0  0  0  0  0  0  0  0  0  0
    0.5310  -10.3290   28.9280 C   0  0  0  0  0  0  0  0  0  0  0  0
    0.9120   -8.9960   28.7910 O   0  0  0  0  0  0  0  0  0  0  0  0
    5.0060   -3.3810   28.8180 C   0  0  0  0  0  0  0  0  0  0  0  0
    6.1960   -3.1610   27.9630 C   0  0  0  0  0  0  0  0  0  0  0  0
    7.4200   -3.1520   23.6950 C   0  0  0  0  0  0  0  0  0  0  0  0
    7.6490   -3.2780   22.3340 C   0  0  0  0  0  0  0  0  0  0  0  0
  1  2  1  0
  2  3  2  0
  2  4  1  0
  4  5  1  0
  5  6  1  0
  6  7  1  0
  7  8  1  0
  8  9  2  0
  8 10  1  0
 10 11  1  0
 11 12  1  0
 12 13  1  0
 13 14  1  0
 14 15  2  0
 14 16  2  0
 14 17  1  0
 17 18  2  0
 18 19  1  0
 19 20  2  0
 20 21  1  0
 17 22  1  0
 21 22  2  0
 22 23  1  0
 20 24  1  0
 24 25  1  0
 25 26  2  0
 25 27  1  0
 19 28  1  0
 27 28  1  0
 13 29  1  0
 10 30  1  0
 29 30  1  0
  7 31  1  0
  4 32  1  0
 31 32  1  0
M  END
