piperidine-amides-23494-covalent
     RDKit          3D

 24 26  0  0  0  0  0  0  0  0999 V2000
    7.1180   -3.3470   19.3570 C   0  0  0  0  0  0  0  0  0  0  0  0
    6.3960   -4.1570   20.3450 C   0  0  0  0  0  0  0  0  0  0  0  0
    5.3410   -4.7240   19.9550 O   0  0  0  0  0  0  0  0  0  0  0  0
    6.9180   -4.3280   21.6530 N   0  0  0  0  0  0  0  0  0  0  0  0
    6.4520   -5.3950   22.4490 C   0  0  0  0  0  0  0  0  0  0  0  0
    6.1500   -5.0250   23.8350 C   0  0  0  0  0  0  0  0  0  0  0  0
    6.6400   -3.7010   24.3120 C   0  0  0  0  0  0  0  0  0  0  0  0
    5.8020   -3.2230   25.4730 C   0  0  0  0  0  0  0  0  0  0  0  0
    4.5750   -3.0890   25.2950 O   0  0  0  0  0  0  0  0  0  0  0  0
    6.3350   -2.9240   26.7550 N   0  0  0  0  0  0  0  0  0  0  0  0
    6.3800   -3.7950   27.8760 C   0  0  0  0  0  0  0  0  0  0  0  0
    6.2650   -1.5180   27.1420 C   0  0  0  0  0  0  0  0  0  0  0  0
    6.1720   -0.3560   26.2070 C   0  0  0  0  0  0  0  0  0  0  0  0
    6.0950    1.0080   26.4470 C   0  0  0  0  0  0  0  0  0  0  0  0
    6.0930    1.6590   27.8810 C   0  0  0  0  0  0  0  0  0  0  0  0
    6.1780    0.4780   28.7030 N   0  0  0  0  0  0  0  0  0  0  0  0
    6.2560   -0.9540   28.4650 C   0  0  0  0  0  0  0  0  0  0  0  0
    6.2990   -1.6070   29.6110 N   0  0  0  0  0  0  0  0  0  0  0  0
    4.8830   -1.5190   30.0030 C   0  0  0  0  0  0  0  0  0  0  0  0
    4.8430   -0.6910   31.2840 C   0  0  0  0  0  0  0  0  0  0  0  0
    6.2330   -0.0860   31.4100 C   0  0  0  0  0  0  0  0  0  0  0  0
    7.1760   -0.7520   30.4050 C   0  0  0  0  0  0  0  0  0  0  0  0
    6.7160   -2.6940   23.2130 C   0  0  0  0  0  0  0  0  0  0  0  0
    7.6300   -3.2690   22.3340 C   0  0  0  0  0  0  0  0  0  0  0  0
  1  2  1  0
  2  3  2  0
  2  4  1  0
  4  5  1  0
  5  6  1  0
  6  7  1  0
  7  8  1  0
  8  9  2  0
  8 10  1  0
 10 11  1  0
 10 12  1  0
 12 13  2  0
 13 14  1  0
 14 15  2  0
 15 16  1  0
 12 17  1  0
 16 17  2  0
 17 18  1  0
 18 19  1  0
 19 20  1  0
 20 21  1  0
 18 22  1  0
 21 22  1  0
  7 23  1  0
  4 24  1  0
 23 24  1  0
M  END
