piperidine-amides-28661-covalent
     RDKit          3D

 25 28  0  0  0  0  0  0  0  0999 V2000
    6.9730   -3.3510   19.4540 C   0  0  0  0  0  0  0  0  0  0  0  0
    6.3530   -4.2400   20.4400 C   0  0  0  0  0  0  0  0  0  0  0  0
    5.4420   -4.9830   20.0160 O   0  0  0  0  0  0  0  0  0  0  0  0
    6.7830   -4.2760   21.8080 N   0  0  0  0  0  0  0  0  0  0  0  0
    6.6240   -5.5010   22.5480 C   0  0  0  0  0  0  0  0  0  0  0  0
    6.0040   -5.1970   23.8840 C   0  0  0  0  0  0  0  0  0  0  0  0
    5.7510   -3.7070   23.8800 C   0  0  0  0  0  0  0  0  0  0  0  0
    4.9140   -3.2110   25.0750 C   0  0  0  0  0  0  0  0  0  0  0  0
    3.7410   -3.0230   24.7990 O   0  0  0  0  0  0  0  0  0  0  0  0
    5.4040   -2.9900   26.3740 N   0  0  0  0  0  0  0  0  0  0  0  0
    4.6750   -2.5540   27.5190 C   0  0  0  0  0  0  0  0  0  0  0  0
    4.1770   -3.5470   28.3890 C   0  0  0  0  0  0  0  0  0  0  0  0
    5.3200   -4.2070   29.0200 N   0  0  0  0  0  0  0  0  0  0  0  0
    5.3650   -5.4810   29.6110 C   0  0  0  0  0  0  0  0  0  0  0  0
    6.2700   -6.3810   29.2100 N   0  0  0  0  0  0  0  0  0  0  0  0
    5.9330   -7.7000   30.1670 S   0  0  0  0  0  0  0  0  0  0  0  0
    4.6110   -7.0320   31.0710 C   0  0  0  0  0  0  0  0  0  0  0  0
    3.8220   -7.7170   32.1420 C   0  0  0  0  0  0  0  0  0  0  0  0
    2.8230   -6.9490   32.7010 C   0  0  0  0  0  0  0  0  0  0  0  0
    2.4930   -8.1870   31.8050 C   0  0  0  0  0  0  0  0  0  0  0  0
    4.4830   -5.7820   30.5790 N   0  0  0  0  0  0  0  0  0  0  0  0
    6.5410   -4.1110   28.2770 C   0  0  0  0  0  0  0  0  0  0  0  0
    6.4480   -3.7890   26.7680 C   0  0  0  0  0  0  0  0  0  0  0  0
    7.0860   -3.0020   23.7350 C   0  0  0  0  0  0  0  0  0  0  0  0
    7.5290   -3.1770   22.4170 C   0  0  0  0  0  0  0  0  0  0  0  0
  1  2  1  0
  2  3  2  0
  2  4  1  0
  4  5  1  0
  5  6  1  0
  6  7  1  0
  7  8  1  0
  8  9  2  0
  8 10  1  0
 10 11  1  0
 11 12  1  0
 12 13  1  0
 13 14  1  0
 14 15  2  0
 15 16  1  0
 16 17  1  0
 17 18  1  0
 18 19  1  0
 18 20  1  0
 19 20  1  0
 14 21  1  0
 17 21  2  0
 13 22  1  0
 10 23  1  0
 22 23  1  0
  7 24  1  0
  4 25  1  0
 24 25  1  0
M  END
