piperidine-amides-24421-covalent
     RDKit          3D

 23 24  0  0  0  0  0  0  0  0999 V2000
    7.0520   -3.3140   19.2630 C   0  0  0  0  0  0  0  0  0  0  0  0
    6.3520   -4.1420   20.2550 C   0  0  0  0  0  0  0  0  0  0  0  0
    5.3140   -4.7590   19.9470 O   0  0  0  0  0  0  0  0  0  0  0  0
    6.8640   -4.3000   21.5430 N   0  0  0  0  0  0  0  0  0  0  0  0
    6.5050   -5.4780   22.2930 C   0  0  0  0  0  0  0  0  0  0  0  0
    5.6380   -5.0120   23.4710 C   0  0  0  0  0  0  0  0  0  0  0  0
    6.4200   -3.9500   24.2290 C   0  0  0  0  0  0  0  0  0  0  0  0
    5.6280   -3.4980   25.3980 C   0  0  0  0  0  0  0  0  0  0  0  0
    4.3830   -3.4560   25.2810 O   0  0  0  0  0  0  0  0  0  0  0  0
    6.2600   -3.1090   26.6200 N   0  0  0  0  0  0  0  0  0  0  0  0
    5.5710   -3.0990   27.8870 C   0  0  0  0  0  0  0  0  0  0  0  0
    5.6010   -4.4940   28.4670 C   0  0  0  0  0  0  0  0  0  0  0  0
    6.8170   -5.0780   28.6010 C   0  0  0  0  0  0  0  0  0  0  0  0
    7.8460   -4.3840   28.0190 C   0  0  0  0  0  0  0  0  0  0  0  0
    7.5610   -3.2380   27.2540 C   0  0  1  0  0  0  0  0  0  0  0  0
    8.2180   -3.0550   26.0700 C   0  0  0  0  0  0  0  0  0  0  0  0
    8.8440   -4.0940   25.5000 O   0  0  0  0  0  0  0  0  0  0  0  0
    8.5520   -5.4160   25.6180 C   0  0  0  0  0  0  0  0  0  0  0  0
    9.6380   -6.1480   25.9530 F   0  0  0  0  0  0  0  0  0  0  0  0
    8.0960   -5.8220   24.3670 F   0  0  0  0  0  0  0  0  0  0  0  0
    7.5030   -5.5620   26.4610 F   0  0  0  0  0  0  0  0  0  0  0  0
    6.8400   -2.8070   23.3560 C   0  0  0  0  0  0  0  0  0  0  0  0
    7.6480   -3.2720   22.1980 C   0  0  0  0  0  0  0  0  0  0  0  0
  1  2  1  0
  2  3  2  0
  2  4  1  0
  4  5  1  0
  5  6  1  0
  6  7  1  0
  7  8  1  0
  8  9  2  0
  8 10  1  0
 10 11  1  0
 11 12  1  0
 12 13  1  0
 13 14  1  0
 10 15  1  0
 14 15  1  0
 15 16  1  6
 16 17  1  0
 17 18  1  0
 18 19  1  0
 18 20  1  0
 18 21  1  0
  7 22  1  0
  4 23  1  0
 22 23  1  0
M  END
