piperidine-amides-12784-covalent
     RDKit          3D

 22 23  0  0  0  0  0  0  0  0999 V2000
    7.0920   -3.2930   19.2450 C   0  0  0  0  0  0  0  0  0  0  0  0
    6.3780   -4.0960   20.2630 C   0  0  0  0  0  0  0  0  0  0  0  0
    5.3100   -4.6310   19.9090 O   0  0  0  0  0  0  0  0  0  0  0  0
    6.9080   -4.2840   21.5430 N   0  0  0  0  0  0  0  0  0  0  0  0
    7.6420   -3.2210   22.1530 C   0  0  0  0  0  0  0  0  0  0  0  0
    7.1810   -2.8360   23.4830 C   0  0  0  0  0  0  0  0  0  0  0  0
    6.4980   -3.9000   24.2450 C   0  0  0  0  0  0  0  0  0  0  0  0
    5.7550   -3.3070   25.3830 C   0  0  0  0  0  0  0  0  0  0  0  0
    4.5560   -3.0160   25.2180 O   0  0  0  0  0  0  0  0  0  0  0  0
    6.3860   -3.0870   26.6190 N   0  0  0  0  0  0  0  0  0  0  0  0
    6.4300   -1.7700   27.3010 C   0  0  0  0  0  0  0  0  0  0  0  0
    5.8240   -0.6060   26.6150 C   0  0  0  0  0  0  0  0  0  0  0  0
    5.8160    0.7170   27.2190 C   0  0  0  0  0  0  0  0  0  0  0  0
    5.3130    1.9160   26.7550 C   0  0  0  0  0  0  0  0  0  0  0  0
    4.2760    2.3170   27.3110 O   0  0  0  0  0  0  0  0  0  0  0  0
    6.4890    0.7810   28.6150 C   0  0  0  0  0  0  0  0  0  0  0  0
    7.0350   -0.3390   29.1920 C   0  0  0  0  0  0  0  0  0  0  0  0
    7.6240   -0.2480   30.4200 C   0  0  0  0  0  0  0  0  0  0  0  0
    7.8780    1.0880   30.8430 O   0  0  0  0  0  0  0  0  0  0  0  0
    7.0060   -1.5650   28.5570 C   0  0  0  0  0  0  0  0  0  0  0  0
    5.6250   -4.7580   23.3730 C   0  0  0  0  0  0  0  0  0  0  0  0
    6.5250   -5.3920   22.3840 C   0  0  0  0  0  0  0  0  0  0  0  0
  1  2  1  0
  2  3  2  0
  2  4  1  0
  4  5  1  0
  5  6  1  0
  6  7  1  0
  7  8  1  0
  8  9  2  0
  8 10  1  0
 10 11  1  0
 11 12  2  0
 12 13  1  0
 13 14  1  0
 14 15  1  0
 13 16  2  0
 16 17  1  0
 17 18  1  0
 18 19  1  0
 11 20  1  0
 17 20  2  0
  7 21  1  0
  4 22  1  0
 21 22  1  0
M  END
