piperidine-amides-23654-covalent
     RDKit          3D

 22 23  0  0  0  0  0  0  0  0999 V2000
    7.0480   -3.3630   19.3540 C   0  0  0  0  0  0  0  0  0  0  0  0
    6.4180   -4.2030   20.3860 C   0  0  0  0  0  0  0  0  0  0  0  0
    5.4280   -4.8810   20.0040 O   0  0  0  0  0  0  0  0  0  0  0  0
    6.9360   -4.2800   21.7200 N   0  0  0  0  0  0  0  0  0  0  0  0
    6.6200   -5.4190   22.5130 C   0  0  0  0  0  0  0  0  0  0  0  0
    6.0700   -5.0640   23.8180 C   0  0  0  0  0  0  0  0  0  0  0  0
    5.9200   -3.6010   23.9870 C   0  0  0  0  0  0  0  0  0  0  0  0
    5.0710   -3.1490   25.1700 C   0  0  0  0  0  0  0  0  0  0  0  0
    3.8470   -3.1560   24.9850 O   0  0  0  0  0  0  0  0  0  0  0  0
    5.4840   -2.7230   26.4630 N   0  0  0  0  0  0  0  0  0  0  0  0
    6.5220   -3.2310   27.1310 C   0  0  0  0  0  0  0  0  0  0  0  0
    6.1510   -4.3890   27.9300 C   0  0  0  0  0  0  0  0  0  0  0  0
    5.0120   -5.0410   27.6010 N   0  0  0  0  0  0  0  0  0  0  0  0
    4.8870   -6.4820   28.4420 S   0  0  0  0  0  0  0  0  0  0  0  0
    6.4490   -6.5690   29.2480 C   0  0  0  0  0  0  0  0  0  0  0  0
    3.8040   -6.4100   29.4830 O   0  0  0  0  0  0  0  0  0  0  0  0
    4.6320   -7.6250   27.5460 O   0  0  0  0  0  0  0  0  0  0  0  0
    4.1570   -3.9520   28.0300 C   0  0  1  0  0  0  0  0  0  0  0  0
    4.0740   -3.9420   29.5430 C   0  0  0  0  0  0  0  0  0  0  0  0
    4.5500   -2.5390   27.5200 C   0  0  0  0  0  0  0  0  0  0  0  0
    7.2770   -2.9370   23.7810 C   0  0  0  0  0  0  0  0  0  0  0  0
    7.7060   -3.2010   22.3390 C   0  0  0  0  0  0  0  0  0  0  0  0
  1  2  1  0
  2  3  2  0
  2  4  1  0
  4  5  1  0
  5  6  1  0
  6  7  1  0
  7  8  1  0
  8  9  2  0
  8 10  1  0
 10 11  1  0
 11 12  1  0
 12 13  1  0
 13 14  1  0
 14 15  1  0
 14 16  2  0
 14 17  2  0
 13 18  1  0
 18 19  1  1
 10 20  1  0
 18 20  1  0
  7 21  1  0
  4 22  1  0
 21 22  1  0
M  END
