piperidine-amides-33691-covalent
     RDKit          3D

 30 32  0  0  0  0  0  0  0  0999 V2000
    7.1010   -3.3950   19.3210 C   0  0  0  0  0  0  0  0  0  0  0  0
    6.4200   -4.2090   20.3330 C   0  0  0  0  0  0  0  0  0  0  0  0
    5.3740   -4.8040   19.9780 O   0  0  0  0  0  0  0  0  0  0  0  0
    6.9830   -4.3490   21.6260 N   0  0  0  0  0  0  0  0  0  0  0  0
    6.6370   -5.4860   22.4090 C   0  0  0  0  0  0  0  0  0  0  0  0
    6.2140   -5.1130   23.7500 C   0  0  0  0  0  0  0  0  0  0  0  0
    6.2290   -3.6510   23.9340 C   0  0  0  0  0  0  0  0  0  0  0  0
    5.7790   -3.1310   25.2670 C   0  0  0  0  0  0  0  0  0  0  0  0
    5.1250   -2.0760   25.2850 O   0  0  0  0  0  0  0  0  0  0  0  0
    6.0070   -3.7640   26.4940 N   0  0  0  0  0  0  0  0  0  0  0  0
    6.3240   -3.0720   27.6720 C   0  0  0  0  0  0  0  0  0  0  0  0
    6.4430   -3.8820   28.8490 C   0  0  0  0  0  0  0  0  0  0  0  0
    5.6790   -4.9580   28.9340 N   0  0  0  0  0  0  0  0  0  0  0  0
    4.4150   -5.0550   29.6370 C   0  0  0  0  0  0  0  0  0  0  0  0
    4.0090   -6.3800   29.7100 C   0  0  0  0  0  0  0  0  0  0  0  0
    5.3690   -6.8050   30.2850 C   0  0  0  0  0  0  0  0  0  0  0  0
    4.8010   -6.7810   31.6710 C   0  0  0  0  0  0  0  0  0  0  0  0
    5.6510   -7.8570   32.3090 C   0  0  0  0  0  0  0  0  0  0  0  0
    5.4990   -8.2600   33.7470 C   0  0  0  0  0  0  0  0  0  0  0  0
    4.4200   -7.4980   34.5090 C   0  0  0  0  0  0  0  0  0  0  0  0
    3.5680   -6.4010   33.8170 C   0  0  0  0  0  0  0  0  0  0  0  0
    3.8330   -6.1050   32.3780 C   0  0  0  0  0  0  0  0  0  0  0  0
    5.6190   -5.6340   27.7170 C   0  0  0  0  0  0  0  0  0  0  0  0
    5.0730   -4.8540   26.6960 C   0  0  1  0  0  0  0  0  0  0  0  0
    3.6430   -4.4480   26.9910 C   0  0  0  0  0  0  0  0  0  0  0  0
    2.7760   -4.2340   25.9110 C   0  0  0  0  0  0  0  0  0  0  0  0
    3.1260   -4.9310   24.5990 C   0  0  0  0  0  0  0  0  0  0  0  0
    2.5570   -2.9140   25.5720 C   0  0  0  0  0  0  0  0  0  0  0  0
    7.6270   -3.1230   23.6450 C   0  0  0  0  0  0  0  0  0  0  0  0
    7.7830   -3.2310   22.1280 C   0  0  0  0  0  0  0  0  0  0  0  0
  1  2  1  0
  2  3  2  0
  2  4  1  0
  4  5  1  0
  5  6  1  0
  6  7  1  0
  7  8  1  0
  8  9  2  0
  8 10  1  0
 10 11  1  0
 11 12  1  0
 12 13  1  0
 13 14  1  0
 14 15  1  0
 15 16  1  0
 16 17  1  0
 17 18  2  0
 18 19  1  0
 19 20  2  0
 20 21  1  0
 17 22  1  0
 21 22  2  0
 13 23  1  0
 10 24  1  0
 23 24  1  0
 24 25  1  1
 25 26  1  0
 26 27  1  0
 26 28  1  0
  7 29  1  0
  4 30  1  0
 29 30  1  0
M  END
