piperidine-amides-19287-covalent
     RDKit          3D

 22 24  0  0  0  0  0  0  0  0999 V2000
    6.9940   -3.4080   19.4040 C   0  0  0  0  0  0  0  0  0  0  0  0
    6.3510   -4.2090   20.4270 C   0  0  0  0  0  0  0  0  0  0  0  0
    5.4200   -4.9720   20.0190 O   0  0  0  0  0  0  0  0  0  0  0  0
    6.7260   -4.2190   21.8010 N   0  0  0  0  0  0  0  0  0  0  0  0
    6.7170   -5.5630   22.4440 C   0  0  0  0  0  0  0  0  0  0  0  0
    6.1090   -5.2680   23.8750 C   0  0  0  0  0  0  0  0  0  0  0  0
    6.1030   -3.7690   24.0210 C   0  0  0  0  0  0  0  0  0  0  0  0
    5.1060   -3.2250   25.1680 C   0  0  0  0  0  0  0  0  0  0  0  0
    4.0290   -3.0020   24.6510 O   0  0  0  0  0  0  0  0  0  0  0  0
    5.6180   -3.1380   26.3400 N   0  0  0  0  0  0  0  0  0  0  0  0
    6.4710   -3.0060   27.3560 C   0  0  0  0  0  0  0  0  0  0  0  0
    6.6460   -3.6960   28.5390 C   0  0  0  0  0  0  0  0  0  0  0  0
    5.6680   -4.6680   28.5170 C   0  0  0  0  0  0  0  0  0  0  0  0
    4.3390   -4.5070   27.8330 C   0  0  0  0  0  0  0  0  0  0  0  0
    5.0040   -5.5430   28.5870 C   0  0  0  0  0  0  0  0  0  0  0  0
    4.3290   -5.7850   29.7580 C   0  0  0  0  0  0  0  0  0  0  0  0
    5.2540   -6.5730   30.2460 N   0  0  0  0  0  0  0  0  0  0  0  0
    6.2060   -5.9180   29.3210 C   0  0  0  0  0  0  0  0  0  0  0  0
    7.4490   -6.3680   29.1140 O   0  0  0  0  0  0  0  0  0  0  0  0
    4.5740   -3.1560   27.3360 C   0  0  0  0  0  0  0  0  0  0  0  0
    7.4480   -3.1870   23.7260 C   0  0  0  0  0  0  0  0  0  0  0  0
    7.5490   -3.1530   22.3460 C   0  0  0  0  0  0  0  0  0  0  0  0
  1  2  1  0
  2  3  2  0
  2  4  1  0
  4  5  1  0
  5  6  1  0
  6  7  1  0
  7  8  1  0
  8  9  2  0
  8 10  1  0
 10 11  1  0
 11 12  1  0
 12 13  1  0
 13 14  2  0
 14 15  1  0
 15 16  2  0
 16 17  1  0
 13 18  1  0
 17 18  1  0
 18 19  2  0
 10 20  1  0
 14 20  1  0
  7 21  1  0
  4 22  1  0
 21 22  1  0
M  END
