piperidine-amides-6262-covalent
     RDKit          3D

 26 28  0  0  0  0  0  0  0  0999 V2000
    7.1390   -3.3490   19.3480 C   0  0  0  0  0  0  0  0  0  0  0  0
    6.4130   -4.1810   20.3120 C   0  0  0  0  0  0  0  0  0  0  0  0
    5.3670   -4.7830   19.9720 O   0  0  0  0  0  0  0  0  0  0  0  0
    6.9260   -4.3480   21.6000 N   0  0  0  0  0  0  0  0  0  0  0  0
    7.7080   -3.2810   22.1810 C   0  0  0  0  0  0  0  0  0  0  0  0
    6.8130   -2.6520   23.2400 C   0  0  0  0  0  0  0  0  0  0  0  0
    6.5560   -3.7390   24.2490 C   0  0  0  0  0  0  0  0  0  0  0  0
    5.8340   -3.1690   25.4020 C   0  0  0  0  0  0  0  0  0  0  0  0
    4.6200   -2.8980   25.2710 O   0  0  0  0  0  0  0  0  0  0  0  0
    6.5290   -2.9590   26.6130 N   0  0  0  0  0  0  0  0  0  0  0  0
    6.5060   -1.7070   27.3240 C   0  0  0  0  0  0  0  0  0  0  0  0
    5.8470   -0.5630   26.6210 C   0  0  0  0  0  0  0  0  0  0  0  0
    5.7850    0.6560   27.2520 C   0  0  0  0  0  0  0  0  0  0  0  0
    6.3280    0.8190   28.5230 C   0  0  0  0  0  0  0  0  0  0  0  0
    6.2430    2.0680   29.1400 O   0  0  0  0  0  0  0  0  0  0  0  0
    7.4270    2.7660   29.4720 C   0  0  0  0  0  0  0  0  0  0  0  0
    7.8860    2.3400   30.6410 C   0  0  0  0  0  0  0  0  0  0  0  0
    9.1120    2.8010   31.3760 C   0  0  0  0  0  0  0  0  0  0  0  0
    9.5880    3.8660   30.3350 C   0  0  0  0  0  0  0  0  0  0  0  0
    9.1960    4.4770   28.9690 C   0  0  0  0  0  0  0  0  0  0  0  0
    7.9860    3.7150   28.7050 C   0  0  0  0  0  0  0  0  0  0  0  0
    7.1690    4.0850   27.2050 Cl  0  0  0  0  0  0  0  0  0  0  0  0
    6.9390   -0.2640   29.1470 C   0  0  0  0  0  0  0  0  0  0  0  0
    7.0190   -1.4910   28.5490 C   0  0  0  0  0  0  0  0  0  0  0  0
    5.7490   -4.8900   23.6560 C   0  0  0  0  0  0  0  0  0  0  0  0
    6.4510   -5.4200   22.4260 C   0  0  0  0  0  0  0  0  0  0  0  0
  1  2  1  0
  2  3  2  0
  2  4  1  0
  4  5  1  0
  5  6  1  0
  6  7  1  0
  7  8  1  0
  8  9  2  0
  8 10  1  0
 10 11  1  0
 11 12  2  0
 12 13  1  0
 13 14  2  0
 14 15  1  0
 15 16  1  0
 16 17  2  0
 17 18  1  0
 18 19  2  0
 19 20  1  0
 16 21  1  0
 20 21  2  0
 21 22  1  0
 14 23  1  0
 11 24  1  0
 23 24  2  0
  7 25  1  0
  4 26  1  0
 25 26  1  0
M  END
