piperidine-amides-1555-covalent
     RDKit          3D

 21 22  0  0  0  0  0  0  0  0999 V2000
    7.0660   -3.3510   19.3800 C   0  0  0  0  0  0  0  0  0  0  0  0
    6.3260   -4.1820   20.3680 C   0  0  0  0  0  0  0  0  0  0  0  0
    5.3390   -4.8270   19.9760 O   0  0  0  0  0  0  0  0  0  0  0  0
    6.7880   -4.2620   21.7050 N   0  0  0  0  0  0  0  0  0  0  0  0
    6.6800   -5.4820   22.4800 C   0  0  0  0  0  0  0  0  0  0  0  0
    6.0830   -5.1490   23.8590 C   0  0  0  0  0  0  0  0  0  0  0  0
    6.0860   -3.6660   24.0200 C   0  0  0  0  0  0  0  0  0  0  0  0
    5.5560   -3.1890   25.3280 C   0  0  0  0  0  0  0  0  0  0  0  0
    4.3260   -3.1210   25.3940 O   0  0  0  0  0  0  0  0  0  0  0  0
    6.3830   -2.8440   26.4110 N   0  0  0  0  0  0  0  0  0  0  0  0
    6.6350   -1.5420   26.9490 C   0  0  2  0  0  0  0  0  0  0  0  0
    7.1170   -1.4090   28.2300 C   0  0  0  0  0  0  0  0  0  0  0  0
    6.5350   -0.5290   29.1440 C   0  0  0  0  0  0  0  0  0  0  0  0
    6.0500    0.6880   28.7040 C   0  0  1  0  0  0  0  0  0  0  0  0
    6.6530    1.7640   29.2820 N   0  0  0  0  0  0  0  0  0  0  0  0
    6.7020    1.9230   30.6220 C   0  0  0  0  0  0  0  0  0  0  0  0
    6.9060    2.8990   28.4280 C   0  0  0  0  0  0  0  0  0  0  0  0
    5.7940    0.6530   27.3460 C   0  0  0  0  0  0  0  0  0  0  0  0
    5.6830   -0.5680   26.7070 C   0  0  0  0  0  0  0  0  0  0  0  0
    7.3910   -3.0380   23.6980 C   0  0  0  0  0  0  0  0  0  0  0  0
    7.6380   -3.1960   22.2140 C   0  0  0  0  0  0  0  0  0  0  0  0
  1  2  1  0
  2  3  2  0
  2  4  1  0
  4  5  1  0
  5  6  1  0
  6  7  1  0
  7  8  1  0
  8  9  2  0
  8 10  1  0
 11 10  1  1
 11 12  1  0
 12 13  1  0
 13 14  1  0
 14 15  1  6
 15 16  1  0
 15 17  1  0
 14 18  1  0
 11 19  1  0
 18 19  1  0
  7 20  1  0
  4 21  1  0
 20 21  1  0
M  END
