piperidine-amides-14176-covalent
     RDKit          3D

 24 25  0  0  0  0  0  0  0  0999 V2000
    7.0740   -3.3320   19.2840 C   0  0  0  0  0  0  0  0  0  0  0  0
    6.3830   -4.1770   20.2930 C   0  0  0  0  0  0  0  0  0  0  0  0
    5.3550   -4.7950   19.9660 O   0  0  0  0  0  0  0  0  0  0  0  0
    6.9430   -4.2980   21.5820 N   0  0  0  0  0  0  0  0  0  0  0  0
    7.7290   -3.2530   22.1990 C   0  0  0  0  0  0  0  0  0  0  0  0
    6.8610   -2.6530   23.2980 C   0  0  0  0  0  0  0  0  0  0  0  0
    6.5800   -3.7560   24.2500 C   0  0  0  0  0  0  0  0  0  0  0  0
    5.7970   -3.3090   25.4250 C   0  0  0  0  0  0  0  0  0  0  0  0
    4.5730   -3.2490   25.2610 O   0  0  0  0  0  0  0  0  0  0  0  0
    6.4130   -2.9740   26.6380 N   0  0  0  0  0  0  0  0  0  0  0  0
    6.3810   -1.6730   27.2160 C   0  0  0  0  0  0  0  0  0  0  0  0
    5.7700   -0.5550   26.6310 C   0  0  0  0  0  0  0  0  0  0  0  0
    5.7140    0.7490   27.1980 C   0  0  0  0  0  0  0  0  0  0  0  0
    5.0750    1.7150   26.4900 F   0  0  0  0  0  0  0  0  0  0  0  0
    6.2860    1.0120   28.4180 C   0  0  0  0  0  0  0  0  0  0  0  0
    6.2570    2.5890   29.1770 Cl  0  0  0  0  0  0  0  0  0  0  0  0
    6.9370   -0.1230   29.0620 C   0  0  0  0  0  0  0  0  0  0  0  0
    7.6610   -0.1100   30.4140 C   0  0  0  0  0  0  0  0  0  0  0  0
    6.9430   -0.3460   31.5790 O   0  0  0  0  0  0  0  0  0  0  0  0
    9.0170    0.1610   30.5090 O   0  0  0  0  0  0  0  0  0  0  0  0
    9.6540    0.6250   31.7130 C   0  0  0  0  0  0  0  0  0  0  0  0
    6.9790   -1.4600   28.4540 C   0  0  0  0  0  0  0  0  0  0  0  0
    5.8880   -4.9360   23.6460 C   0  0  0  0  0  0  0  0  0  0  0  0
    6.5810   -5.4330   22.3900 C   0  0  0  0  0  0  0  0  0  0  0  0
  1  2  1  0
  2  3  2  0
  2  4  1  0
  4  5  1  0
  5  6  1  0
  6  7  1  0
  7  8  1  0
  8  9  2  0
  8 10  1  0
 10 11  1  0
 11 12  2  0
 12 13  1  0
 13 14  1  0
 13 15  2  0
 15 16  1  0
 15 17  1  0
 17 18  1  0
 18 19  2  0
 18 20  1  0
 20 21  1  0
 11 22  1  0
 17 22  2  0
  7 23  1  0
  4 24  1  0
 23 24  1  0
M  END
