piperidine-amides-14511-covalent
     RDKit          3D

 23 25  0  0  0  0  0  0  0  0999 V2000
    7.1870   -3.9980   19.6820 C   0  0  0  0  0  0  0  0  0  0  0  0
    5.9560   -3.9190   20.3230 C   0  0  0  0  0  0  0  0  0  0  0  0
    4.9640   -4.0170   19.5990 O   0  0  0  0  0  0  0  0  0  0  0  0
    6.0060   -3.8340   21.7060 N   0  0  0  0  0  0  0  0  0  0  0  0
    7.1590   -3.1040   22.1500 C   0  0  0  0  0  0  0  0  0  0  0  0
    6.8290   -2.5030   23.4580 C   0  0  0  0  0  0  0  0  0  0  0  0
    5.5170   -3.1270   23.8250 C   0  0  0  0  0  0  0  0  0  0  0  0
    5.1740   -2.7070   25.2040 C   0  0  0  0  0  0  0  0  0  0  0  0
    4.2990   -3.3350   25.7830 O   0  0  0  0  0  0  0  0  0  0  0  0
    5.8990   -1.6350   25.7090 N   0  0  0  0  0  0  0  0  0  0  0  0
    7.1330   -1.9620   26.2610 C   0  0  0  0  0  0  0  0  0  0  0  0
    8.3000   -1.3940   25.7080 C   0  0  0  0  0  0  0  0  0  0  0  0
    8.5970    0.0320   25.8510 N   0  0  0  0  0  0  0  0  0  0  0  0
    9.7400    0.0600   25.1870 N   0  0  0  0  0  0  0  0  0  0  0  0
   10.2620   -1.1560   24.6120 C   0  0  0  0  0  0  0  0  0  0  0  0
   11.4440   -1.2610   23.8810 C   0  0  0  0  0  0  0  0  0  0  0  0
   12.4900   -0.8410   24.8500 C   0  0  0  0  0  0  0  0  0  0  0  0
   13.1660   -2.2250   24.6400 C   0  0  0  0  0  0  0  0  0  0  0  0
   12.0470   -2.5000   23.7040 C   0  0  0  0  0  0  0  0  0  0  0  0
    9.3410   -2.0770   24.9550 N   0  0  0  0  0  0  0  0  0  0  0  0
    9.3830   -3.4880   24.6210 C   0  0  0  0  0  0  0  0  0  0  0  0
    5.4610   -4.5940   23.7460 C   0  0  0  0  0  0  0  0  0  0  0  0
    5.7580   -5.0330   22.4830 C   0  0  0  0  0  0  0  0  0  0  0  0
  1  2  1  0
  2  3  2  0
  2  4  1  0
  4  5  1  0
  5  6  1  0
  6  7  1  0
  7  8  1  0
  8  9  2  0
  8 10  1  0
 10 11  1  0
 11 12  1  0
 12 13  2  0
 13 14  1  0
 14 15  2  0
 15 16  1  0
 16 17  1  0
 17 18  1  0
 16 19  1  0
 18 19  1  0
 12 20  1  0
 15 20  1  0
 20 21  1  0
  7 22  1  0
  4 23  1  0
 22 23  1  0
M  END
