piperidine-amides-4083-covalent
     RDKit          3D

 28 31  0  0  0  0  0  0  0  0999 V2000
    7.1470   -3.3000   19.2050 C   0  0  0  0  0  0  0  0  0  0  0  0
    6.3940   -4.0780   20.2030 C   0  0  0  0  0  0  0  0  0  0  0  0
    5.2650   -4.4980   19.8630 O   0  0  0  0  0  0  0  0  0  0  0  0
    6.9510   -4.3980   21.4600 N   0  0  0  0  0  0  0  0  0  0  0  0
    6.3040   -5.4210   22.1870 C   0  0  0  0  0  0  0  0  0  0  0  0
    5.6450   -4.9460   23.4010 C   0  0  0  0  0  0  0  0  0  0  0  0
    6.3580   -3.8980   24.1730 C   0  0  0  0  0  0  0  0  0  0  0  0
    5.4710   -3.2870   25.2000 C   0  0  0  0  0  0  0  0  0  0  0  0
    4.2890   -3.6560   25.3360 O   0  0  0  0  0  0  0  0  0  0  0  0
    5.9850   -2.2760   26.0050 N   0  0  0  0  0  0  0  0  0  0  0  0
    7.2870   -2.2190   26.4980 C   0  0  1  0  0  0  0  0  0  0  0  0
    8.0700   -3.4450   26.5110 C   0  0  0  0  0  0  0  0  0  0  0  0
    7.4440   -4.4590   27.4230 C   0  0  0  0  0  0  0  0  0  0  0  0
    7.9710   -5.6870   27.6160 C   0  0  0  0  0  0  0  0  0  0  0  0
    9.2660   -6.0610   26.8730 C   0  0  0  0  0  0  0  0  0  0  0  0
    9.9280   -5.0530   25.9530 C   0  0  0  0  0  0  0  0  0  0  0  0
    9.2860   -3.6680   25.7600 C   0  0  0  0  0  0  0  0  0  0  0  0
    7.9910   -1.1460   25.7220 C   0  0  0  0  0  0  0  0  0  0  0  0
    9.5050   -1.2340   25.7790 C   0  0  0  0  0  0  0  0  0  0  0  0
   10.4560   -0.2650   25.0640 C   0  0  0  0  0  0  0  0  0  0  0  0
    9.7770    0.8130   24.2830 C   0  0  0  0  0  0  0  0  0  0  0  0
   10.1490    1.9070   23.4800 N   0  0  0  0  0  0  0  0  0  0  0  0
    9.0430    2.6060   22.9800 C   0  0  0  0  0  0  0  0  0  0  0  0
    7.8820    1.9490   23.4710 N   0  0  0  0  0  0  0  0  0  0  0  0
    8.3850    0.8440   24.2720 C   0  0  0  0  0  0  0  0  0  0  0  0
    7.4620   -0.1180   24.9800 C   0  0  0  0  0  0  0  0  0  0  0  0
    6.9270   -2.8140   23.3040 C   0  0  0  0  0  0  0  0  0  0  0  0
    7.6870   -3.3810   22.1370 C   0  0  0  0  0  0  0  0  0  0  0  0
  1  2  1  0
  2  3  2  0
  2  4  1  0
  4  5  1  0
  5  6  1  0
  6  7  1  0
  7  8  1  0
  8  9  2  0
  8 10  1  0
 11 10  1  6
 11 12  1  0
 12 13  2  0
 13 14  1  0
 14 15  2  0
 15 16  1  0
 12 17  1  0
 16 17  2  0
 11 18  1  0
 18 19  2  0
 19 20  1  0
 20 21  2  0
 21 22  1  0
 22 23  1  0
 23 24  2  0
 21 25  1  0
 24 25  1  0
 18 26  1  0
 25 26  2  0
  7 27  1  0
  4 28  1  0
 27 28  1  0
M  END
