piperidine-amides-29071-covalent
     RDKit          3D

 26 28  0  0  0  0  0  0  0  0999 V2000
    7.0300   -3.3610   19.3870 C   0  0  0  0  0  0  0  0  0  0  0  0
    6.4050   -4.2480   20.3690 C   0  0  0  0  0  0  0  0  0  0  0  0
    5.4070   -4.8950   19.9940 O   0  0  0  0  0  0  0  0  0  0  0  0
    6.9520   -4.3940   21.6760 N   0  0  0  0  0  0  0  0  0  0  0  0
    6.5240   -5.5040   22.4640 C   0  0  0  0  0  0  0  0  0  0  0  0
    5.5750   -5.0020   23.5130 C   0  0  0  0  0  0  0  0  0  0  0  0
    6.2660   -3.9210   24.3380 C   0  0  0  0  0  0  0  0  0  0  0  0
    5.2730   -3.2790   25.2890 C   0  0  0  0  0  0  0  0  0  0  0  0
    4.4630   -2.5440   24.7360 O   0  0  0  0  0  0  0  0  0  0  0  0
    5.2770   -3.5030   26.6870 N   0  0  0  0  0  0  0  0  0  0  0  0
    6.4240   -3.2880   27.4110 C   0  0  0  0  0  0  0  0  0  0  0  0
    6.7010   -4.2930   28.3640 C   0  0  2  0  0  0  0  0  0  0  0  0
    6.4710   -5.6300   28.1620 C   0  0  0  0  0  0  0  0  0  0  0  0
    5.9760   -6.0060   26.9380 O   0  0  0  0  0  0  0  0  0  0  0  0
    6.7500   -6.4910   29.2260 O   0  0  0  0  0  0  0  0  0  0  0  0
    5.8230   -7.5470   29.4910 C   0  0  0  0  0  0  0  0  0  0  0  0
    5.6480   -4.0310   29.3710 C   0  0  0  0  0  0  0  0  0  0  0  0
    4.2700   -4.1910   28.7170 C   0  0  0  0  0  0  0  0  0  0  0  0
    4.1090   -3.3060   27.5200 C   0  0  0  0  0  0  0  0  0  0  0  0
    4.2250   -1.9220   28.1280 C   0  0  0  0  0  0  0  0  0  0  0  0
    2.8190   -1.5650   28.6570 C   0  0  0  0  0  0  0  0  0  0  0  0
    1.7890   -1.8090   27.8040 O   0  0  0  0  0  0  0  0  0  0  0  0
    2.2390   -2.3650   26.5910 C   0  0  0  0  0  0  0  0  0  0  0  0
    2.9090   -3.5630   26.8060 C   0  0  0  0  0  0  0  0  0  0  0  0
    6.8770   -2.8280   23.4990 C   0  0  0  0  0  0  0  0  0  0  0  0
    7.6760   -3.3400   22.3340 C   0  0  0  0  0  0  0  0  0  0  0  0
  1  2  1  0
  2  3  2  0
  2  4  1  0
  4  5  1  0
  5  6  1  0
  6  7  1  0
  7  8  1  0
  8  9  2  0
  8 10  1  0
 10 11  1  0
 11 12  1  0
 12 13  1  6
 13 14  2  0
 13 15  1  0
 15 16  1  0
 12 17  1  0
 17 18  1  0
 19 10  1  0
 18 19  1  0
 19 20  1  0
 20 21  1  0
 21 22  1  0
 22 23  1  0
 19 24  1  0
 23 24  1  0
  7 25  1  0
  4 26  1  0
 25 26  1  0
M  END
