piperidine-amides-27624-covalent
     RDKit          3D

 26 29  0  0  0  0  0  0  0  0999 V2000
    7.0540   -3.3180   19.2750 C   0  0  0  0  0  0  0  0  0  0  0  0
    6.3700   -4.1220   20.2950 C   0  0  0  0  0  0  0  0  0  0  0  0
    5.3210   -4.7170   19.9340 O   0  0  0  0  0  0  0  0  0  0  0  0
    6.8950   -4.2490   21.5830 N   0  0  0  0  0  0  0  0  0  0  0  0
    6.7220   -5.4750   22.3250 C   0  0  0  0  0  0  0  0  0  0  0  0
    6.1400   -5.1280   23.6670 C   0  0  0  0  0  0  0  0  0  0  0  0
    6.1420   -3.6430   23.9100 C   0  0  0  0  0  0  0  0  0  0  0  0
    5.7390   -3.3500   25.3040 C   0  0  0  0  0  0  0  0  0  0  0  0
    5.0140   -2.3630   25.5190 O   0  0  0  0  0  0  0  0  0  0  0  0
    6.1220   -4.1670   26.3700 N   0  0  0  0  0  0  0  0  0  0  0  0
    5.8300   -5.5430   26.3560 C   0  0  0  0  0  0  0  0  0  0  0  0
    5.3580   -5.8580   27.7560 C   0  0  2  0  0  0  0  0  0  0  0  0
    4.2720   -6.6670   27.9980 C   0  0  0  0  0  0  0  0  0  0  0  0
    3.8960   -7.2180   29.2180 C   0  0  0  0  0  0  0  0  0  0  0  0
    2.7730   -8.0170   29.4480 C   0  0  0  0  0  0  0  0  0  0  0  0
    1.9480   -8.2980   28.3690 C   0  0  0  0  0  0  0  0  0  0  0  0
    2.2510   -7.7990   27.1260 C   0  0  0  0  0  0  0  0  0  0  0  0
    3.4650   -6.9440   26.9190 C   0  0  0  0  0  0  0  0  0  0  0  0
    5.0600   -4.6000   28.2550 C   0  0  1  0  0  0  0  0  0  0  0  0
    5.1970   -4.5220   29.7270 C   0  0  0  0  0  0  0  0  0  0  0  0
    4.9980   -3.1810   30.1120 O   0  0  0  0  0  0  0  0  0  0  0  0
    5.9340   -2.4050   29.4250 C   0  0  0  0  0  0  0  0  0  0  0  0
    5.6810   -2.3930   28.0930 C   0  0  0  0  0  0  0  0  0  0  0  0
    6.1680   -3.7180   27.7120 C   0  0  2  0  0  0  0  0  0  0  0  0
    7.4890   -3.0700   23.6100 C   0  0  0  0  0  0  0  0  0  0  0  0
    7.7340   -3.1740   22.1050 C   0  0  0  0  0  0  0  0  0  0  0  0
  1  2  1  0
  2  3  2  0
  2  4  1  0
  4  5  1  0
  5  6  1  0
  6  7  1  0
  7  8  1  0
  8  9  2  0
  8 10  1  0
 10 11  1  0
 11 12  1  0
 12 13  1  6
 13 14  2  0
 14 15  1  0
 15 16  2  0
 16 17  1  0
 13 18  1  0
 17 18  2  0
 12 19  1  0
 19 20  1  1
 20 21  1  0
 21 22  1  0
 22 23  1  0
 10 24  1  0
 19 24  1  0
 24 23  1  6
  7 25  1  0
  4 26  1  0
 25 26  1  0
M  END
