piperidine-amides-4200-covalent
     RDKit          3D

 26 28  0  0  0  0  0  0  0  0999 V2000
    7.2000   -3.2770   19.2040 C   0  0  0  0  0  0  0  0  0  0  0  0
    6.4010   -3.9550   20.2370 C   0  0  0  0  0  0  0  0  0  0  0  0
    5.3110   -4.4650   19.8710 O   0  0  0  0  0  0  0  0  0  0  0  0
    6.8780   -4.0690   21.5680 N   0  0  0  0  0  0  0  0  0  0  0  0
    6.4550   -5.1970   22.3310 C   0  0  0  0  0  0  0  0  0  0  0  0
    5.8760   -4.8070   23.5980 C   0  0  0  0  0  0  0  0  0  0  0  0
    5.9890   -3.3540   23.7990 C   0  0  0  0  0  0  0  0  0  0  0  0
    5.3950   -2.8510   25.0910 C   0  0  0  0  0  0  0  0  0  0  0  0
    4.2620   -2.3490   25.0450 O   0  0  0  0  0  0  0  0  0  0  0  0
    6.0240   -2.9110   26.3560 N   0  0  0  0  0  0  0  0  0  0  0  0
    5.4230   -3.3710   27.5610 C   0  0  0  0  0  0  0  0  0  0  0  0
    5.2100   -4.7930   27.7710 C   0  0  2  0  0  0  0  0  0  0  0  0
    4.1720   -5.4940   28.3110 N   0  0  0  0  0  0  0  0  0  0  0  0
    3.7650   -5.5180   29.6950 C   0  0  0  0  0  0  0  0  0  0  0  0
    2.4580   -5.9670   29.7270 C   0  0  0  0  0  0  0  0  0  0  0  0
    2.0440   -6.5260   28.5380 O   0  0  0  0  0  0  0  0  0  0  0  0
    1.9680   -5.6110   27.5010 C   0  0  0  0  0  0  0  0  0  0  0  0
    3.3640   -5.2890   27.0960 C   0  0  0  0  0  0  0  0  0  0  0  0
    6.4120   -5.5220   28.1520 C   0  0  0  0  0  0  0  0  0  0  0  0
    6.9910   -5.3480   26.8180 C   0  0  1  0  0  0  0  0  0  0  0  0
    7.8530   -6.1410   26.1760 O   0  0  0  0  0  0  0  0  0  0  0  0
    9.1760   -6.0460   26.5960 C   0  0  0  0  0  0  0  0  0  0  0  0
    9.0730   -5.6560   28.0570 C   0  0  0  0  0  0  0  0  0  0  0  0
    5.5540   -5.4480   26.3700 C   0  0  0  0  0  0  0  0  0  0  0  0
    7.3700   -2.8700   23.5310 C   0  0  0  0  0  0  0  0  0  0  0  0
    7.5910   -2.9420   22.1590 C   0  0  0  0  0  0  0  0  0  0  0  0
  1  2  1  0
  2  3  2  0
  2  4  1  0
  4  5  1  0
  5  6  1  0
  6  7  1  0
  7  8  1  0
  8  9  2  0
  8 10  1  0
 10 11  1  0
 12 11  1  6
 12 13  1  0
 13 14  1  0
 14 15  1  0
 15 16  1  0
 16 17  1  0
 13 18  1  0
 17 18  1  0
 12 19  1  0
 19 20  1  0
 20 21  1  6
 21 22  1  0
 22 23  1  0
 12 24  1  0
 20 24  1  0
  7 25  1  0
  4 26  1  0
 25 26  1  0
M  END
