piperidine-amides-8677-covalent
     RDKit          3D

 23 24  0  0  0  0  0  0  0  0999 V2000
    7.0230   -3.3340   19.3590 C   0  0  0  0  0  0  0  0  0  0  0  0
    6.3670   -4.1830   20.3590 C   0  0  0  0  0  0  0  0  0  0  0  0
    5.4070   -4.8800   19.9860 O   0  0  0  0  0  0  0  0  0  0  0  0
    6.8350   -4.2240   21.7020 N   0  0  0  0  0  0  0  0  0  0  0  0
    7.7190   -3.1920   22.1790 C   0  0  0  0  0  0  0  0  0  0  0  0
    7.4680   -2.9580   23.6290 C   0  0  0  0  0  0  0  0  0  0  0  0
    6.1230   -3.5800   23.8770 C   0  0  0  0  0  0  0  0  0  0  0  0
    5.6850   -3.2690   25.2740 C   0  0  0  0  0  0  0  0  0  0  0  0
    4.4970   -3.4360   25.5300 O   0  0  0  0  0  0  0  0  0  0  0  0
    6.6500   -2.8110   26.1550 N   0  0  0  0  0  0  0  0  0  0  0  0
    6.4970   -1.5840   26.8580 C   0  0  0  0  0  0  0  0  0  0  0  0
    6.0750   -0.3420   26.3710 C   0  0  0  0  0  0  0  0  0  0  0  0
    5.9550    0.8060   27.1390 C   0  0  0  0  0  0  0  0  0  0  0  0
    6.2270    0.9110   28.5040 C   0  0  0  0  0  0  0  0  0  0  0  0
    6.6830   -0.3720   29.1150 C   0  0  0  0  0  0  0  0  0  0  0  0
    6.9910   -0.5260   30.4090 N   0  0  0  0  0  0  0  0  0  0  0  0
    8.1530   -0.1090   30.9020 C   0  0  0  0  0  0  0  0  0  0  0  0
    5.9080   -0.4510   31.3400 C   0  0  0  0  0  0  0  0  0  0  0  0
    5.8690    0.6400   32.3220 N   0  0  0  0  0  0  0  0  0  0  0  0
    4.9870   -1.3150   31.3290 O   0  0  0  0  0  0  0  0  0  0  0  0
    6.8240   -1.5940   28.3280 C   0  0  0  0  0  0  0  0  0  0  0  0
    6.0290   -5.0340   23.6650 C   0  0  0  0  0  0  0  0  0  0  0  0
    6.7030   -5.4190   22.5190 C   0  0  0  0  0  0  0  0  0  0  0  0
  1  2  1  0
  2  3  2  0
  2  4  1  0
  4  5  1  0
  5  6  1  0
  6  7  1  0
  7  8  1  0
  8  9  2  0
  8 10  1  0
 10 11  1  0
 11 12  2  0
 12 13  1  0
 13 14  2  0
 14 15  1  0
 15 16  1  0
 16 17  1  0
 16 18  1  0
 18 19  1  0
 18 20  2  0
 11 21  1  0
 15 21  2  0
  7 22  1  0
  4 23  1  0
 22 23  1  0
M  END
