piperidine-amides-27816-covalent
     RDKit          3D

 23 25  0  0  0  0  0  0  0  0999 V2000
    7.0900   -3.2970   19.2850 C   0  0  0  0  0  0  0  0  0  0  0  0
    6.3620   -4.1020   20.2920 C   0  0  0  0  0  0  0  0  0  0  0  0
    5.3010   -4.6330   19.9120 O   0  0  0  0  0  0  0  0  0  0  0  0
    6.8700   -4.2920   21.5820 N   0  0  0  0  0  0  0  0  0  0  0  0
    7.6320   -3.2510   22.2070 C   0  0  0  0  0  0  0  0  0  0  0  0
    7.3330   -2.9940   23.6190 C   0  0  0  0  0  0  0  0  0  0  0  0
    6.4300   -3.9610   24.2890 C   0  0  0  0  0  0  0  0  0  0  0  0
    5.5670   -3.2660   25.2820 C   0  0  0  0  0  0  0  0  0  0  0  0
    4.5200   -2.7520   24.8540 O   0  0  0  0  0  0  0  0  0  0  0  0
    5.8700   -3.1610   26.6610 N   0  0  0  0  0  0  0  0  0  0  0  0
    5.1550   -4.0380   27.6290 C   0  0  0  0  0  0  0  0  0  0  0  0
    3.9400   -3.7300   28.0260 N   0  0  0  0  0  0  0  0  0  0  0  0
    3.1300   -4.3800   28.8850 C   0  0  0  0  0  0  0  0  0  0  0  0
    1.4820   -3.8010   29.3120 Cl  0  0  0  0  0  0  0  0  0  0  0  0
    3.6570   -5.5190   29.4120 N   0  0  0  0  0  0  0  0  0  0  0  0
    4.9890   -5.8650   28.9840 C   0  0  0  0  0  0  0  0  0  0  0  0
    5.6420   -7.3350   29.6840 Cl  0  0  0  0  0  0  0  0  0  0  0  0
    5.6980   -5.1510   28.1290 N   0  0  0  0  0  0  0  0  0  0  0  0
    5.9730   -1.8960   27.3840 C   0  0  0  0  0  0  0  0  0  0  0  0
    7.0180   -1.2880   27.1120 C   0  0  0  0  0  0  0  0  0  0  0  0
    5.9160   -0.5000   26.7290 C   0  0  0  0  0  0  0  0  0  0  0  0
    5.6420   -4.8730   23.3970 C   0  0  0  0  0  0  0  0  0  0  0  0
    6.4610   -5.3710   22.4300 C   0  0  0  0  0  0  0  0  0  0  0  0
  1  2  1  0
  2  3  2  0
  2  4  1  0
  4  5  1  0
  5  6  1  0
  6  7  1  0
  7  8  1  0
  8  9  2  0
  8 10  1  0
 10 11  1  0
 11 12  2  0
 12 13  1  0
 13 14  1  0
 13 15  2  0
 15 16  1  0
 16 17  1  0
 11 18  1  0
 16 18  2  0
 10 19  1  0
 19 20  1  0
 19 21  1  0
 20 21  1  0
  7 22  1  0
  4 23  1  0
 22 23  1  0
M  END
