piperidine-amides-31414-covalent
     RDKit          3D

 28 30  0  0  0  0  0  0  0  0999 V2000
    7.0610   -3.3410   19.2260 C   0  0  0  0  0  0  0  0  0  0  0  0
    6.3380   -4.0400   20.2680 C   0  0  0  0  0  0  0  0  0  0  0  0
    5.2740   -4.6340   19.9190 O   0  0  0  0  0  0  0  0  0  0  0  0
    6.7730   -4.1500   21.6130 N   0  0  0  0  0  0  0  0  0  0  0  0
    7.6430   -3.0920   22.1690 C   0  0  0  0  0  0  0  0  0  0  0  0
    6.6520   -2.5280   23.2490 C   0  0  0  0  0  0  0  0  0  0  0  0
    6.4530   -3.6540   24.2320 C   0  0  0  0  0  0  0  0  0  0  0  0
    5.4050   -3.2450   25.3680 C   0  0  0  0  0  0  0  0  0  0  0  0
    4.2660   -3.3270   24.9330 O   0  0  0  0  0  0  0  0  0  0  0  0
    6.0060   -2.9250   26.4520 N   0  0  0  0  0  0  0  0  0  0  0  0
    6.5980   -2.1130   27.3750 C   0  0  0  0  0  0  0  0  0  0  0  0
    6.2050   -1.1720   28.2960 C   0  0  0  0  0  0  0  0  0  0  0  0
    6.9460   -1.1660   29.5320 N   0  0  0  0  0  0  0  0  0  0  0  0
    6.4180   -0.2000   30.2670 N   0  0  0  0  0  0  0  0  0  0  0  0
    5.3960    0.4110   29.5930 C   0  0  0  0  0  0  0  0  0  0  0  0
    4.6020    1.5420   30.1610 C   0  0  0  0  0  0  0  0  0  0  0  0
    3.4960    2.0480   29.1610 C   0  0  0  0  0  0  0  0  0  0  0  0
    3.5220    1.3040   27.9610 C   0  0  0  0  0  0  0  0  0  0  0  0
    4.3430    0.2590   27.5860 C   0  0  0  0  0  0  0  0  0  0  0  0
    5.2850   -0.1940   28.4000 N   0  0  0  0  0  0  0  0  0  0  0  0
    6.0950   -4.1040   27.3160 C   0  0  1  0  0  0  0  0  0  0  0  0
    6.8710   -3.9200   28.6640 C   0  0  0  0  0  0  0  0  0  0  0  0
    4.8010   -4.6640   27.7620 C   0  0  0  0  0  0  0  0  0  0  0  0
    4.2050   -5.6640   27.0430 C   0  0  0  0  0  0  0  0  0  0  0  0
    5.0540   -6.4770   26.3900 C   0  0  0  0  0  0  0  0  0  0  0  0
    3.2280   -6.3340   27.7410 C   0  0  0  0  0  0  0  0  0  0  0  0
    6.1430   -5.0420   23.7360 C   0  0  0  0  0  0  0  0  0  0  0  0
    6.5860   -5.3760   22.3340 C   0  0  0  0  0  0  0  0  0  0  0  0
  1  2  1  0
  2  3  2  0
  2  4  1  0
  4  5  1  0
  5  6  1  0
  6  7  1  0
  7  8  1  0
  8  9  2  0
  8 10  1  0
 10 11  1  0
 11 12  1  0
 12 13  2  0
 13 14  1  0
 14 15  2  0
 15 16  1  0
 16 17  2  0
 17 18  1  0
 18 19  2  0
 12 20  1  0
 15 20  1  0
 19 20  1  0
 10 21  1  0
 21 22  1  1
 21 23  1  0
 23 24  1  0
 24 25  1  0
 24 26  1  0
  7 27  1  0
  4 28  1  0
 27 28  1  0
M  END
