piperidine-amides-4620-covalent
     RDKit          3D

 24 26  0  0  0  0  0  0  0  0999 V2000
    7.0900   -3.3010   19.1960 C   0  0  0  0  0  0  0  0  0  0  0  0
    6.3410   -4.0710   20.2160 C   0  0  0  0  0  0  0  0  0  0  0  0
    5.2480   -4.5460   19.8700 O   0  0  0  0  0  0  0  0  0  0  0  0
    6.8720   -4.3050   21.4840 N   0  0  0  0  0  0  0  0  0  0  0  0
    7.6350   -3.2810   22.1240 C   0  0  0  0  0  0  0  0  0  0  0  0
    7.3340   -3.0350   23.5290 C   0  0  0  0  0  0  0  0  0  0  0  0
    6.4840   -4.0360   24.2100 C   0  0  0  0  0  0  0  0  0  0  0  0
    5.8380   -3.3740   25.3600 C   0  0  0  0  0  0  0  0  0  0  0  0
    4.6130   -3.5200   25.5370 O   0  0  0  0  0  0  0  0  0  0  0  0
    6.6150   -2.5800   26.2280 N   0  0  0  0  0  0  0  0  0  0  0  0
    6.0440   -1.7360   27.2910 C   0  0  1  0  0  0  0  0  0  0  0  0
    7.0220   -1.4420   28.3820 C   0  0  0  0  0  0  0  0  0  0  0  0
    6.7580   -0.3430   29.3090 C   0  0  0  0  0  0  0  0  0  0  0  0
    6.3160    0.8500   28.7710 C   0  0  0  0  0  0  0  0  0  0  0  0
    5.7820    0.8020   27.5070 C   0  0  0  0  0  0  0  0  0  0  0  0
    5.3310    1.8340   26.8000 C   0  0  0  0  0  0  0  0  0  0  0  0
    4.8880    1.2850   25.5960 N   0  0  0  0  0  0  0  0  0  0  0  0
    4.3040    1.9150   24.4590 C   0  0  0  0  0  0  0  0  0  0  0  0
    2.9650    1.9870   24.7170 C   0  0  0  0  0  0  0  0  0  0  0  0
    4.7750    3.2150   24.3140 C   0  0  0  0  0  0  0  0  0  0  0  0
    5.0790   -0.0240   25.6080 N   0  0  0  0  0  0  0  0  0  0  0  0
    5.6400   -0.3470   26.7980 C   0  0  0  0  0  0  0  0  0  0  0  0
    5.5010   -4.7310   23.3450 C   0  0  0  0  0  0  0  0  0  0  0  0
    6.3380   -5.3720   22.2860 C   0  0  0  0  0  0  0  0  0  0  0  0
  1  2  1  0
  2  3  2  0
  2  4  1  0
  4  5  1  0
  5  6  1  0
  6  7  1  0
  7  8  1  0
  8  9  2  0
  8 10  1  0
 11 10  1  6
 11 12  1  0
 12 13  1  0
 13 14  1  0
 14 15  1  0
 15 16  2  0
 16 17  1  0
 17 18  1  0
 18 19  1  0
 18 20  1  0
 17 21  1  0
 11 22  1  0
 15 22  1  0
 21 22  2  0
  7 23  1  0
  4 24  1  0
 23 24  1  0
M  END
