piperidine-amides-24073-covalent
     RDKit          3D

 23 24  0  0  0  0  0  0  0  0999 V2000
    7.1170   -3.3530   19.2820 C   0  0  0  0  0  0  0  0  0  0  0  0
    6.4540   -4.1910   20.2920 C   0  0  0  0  0  0  0  0  0  0  0  0
    5.3700   -4.7240   19.9560 O   0  0  0  0  0  0  0  0  0  0  0  0
    7.0510   -4.4490   21.5520 N   0  0  0  0  0  0  0  0  0  0  0  0
    6.5190   -5.5170   22.3060 C   0  0  0  0  0  0  0  0  0  0  0  0
    5.9320   -5.0890   23.5690 C   0  0  0  0  0  0  0  0  0  0  0  0
    6.5750   -3.9380   24.2600 C   0  0  0  0  0  0  0  0  0  0  0  0
    5.6720   -3.4290   25.3330 C   0  0  0  0  0  0  0  0  0  0  0  0
    4.5470   -3.0020   25.0190 O   0  0  0  0  0  0  0  0  0  0  0  0
    6.0370   -3.4240   26.6820 N   0  0  0  0  0  0  0  0  0  0  0  0
    5.1820   -3.8400   27.7130 C   0  0  0  0  0  0  0  0  0  0  0  0
    5.5770   -4.9850   28.4810 C   0  0  0  0  0  0  0  0  0  0  0  0
    7.0770   -4.8210   28.6850 C   0  0  0  0  0  0  0  0  0  0  0  0
    7.8850   -4.8930   27.5680 C   0  0  0  0  0  0  0  0  0  0  0  0
    7.4840   -3.5200   26.9320 C   0  0  2  0  0  0  0  0  0  0  0  0
    7.9680   -2.6090   28.0420 C   0  0  0  0  0  0  0  0  0  0  0  0
    6.5850   -1.9810   28.3160 C   0  0  0  0  0  0  0  0  0  0  0  0
    6.4400   -0.7760   29.2320 C   0  0  0  0  0  0  0  0  0  0  0  0
    5.3130   -0.9250   30.0090 F   0  0  0  0  0  0  0  0  0  0  0  0
    6.2780    0.3350   28.4010 F   0  0  0  0  0  0  0  0  0  0  0  0
    7.5550   -0.6060   30.0290 F   0  0  0  0  0  0  0  0  0  0  0  0
    6.9570   -2.8170   23.3160 C   0  0  0  0  0  0  0  0  0  0  0  0
    7.7960   -3.3990   22.1860 C   0  0  0  0  0  0  0  0  0  0  0  0
  1  2  1  0
  2  3  2  0
  2  4  1  0
  4  5  1  0
  5  6  1  0
  6  7  1  0
  7  8  1  0
  8  9  2  0
  8 10  1  0
 10 11  1  0
 11 12  1  0
 12 13  1  0
 13 14  1  0
 10 15  1  0
 14 15  1  0
 15 16  1  1
 16 17  1  0
 17 18  1  0
 18 19  1  0
 18 20  1  0
 18 21  1  0
  7 22  1  0
  4 23  1  0
 22 23  1  0
M  END
