piperidine-amides-743-covalent
     RDKit          3D

 25 26  0  0  0  0  0  0  0  0999 V2000
    7.1070   -3.3380   19.2010 C   0  0  0  0  0  0  0  0  0  0  0  0
    6.3800   -4.0200   20.2460 C   0  0  0  0  0  0  0  0  0  0  0  0
    5.3040   -4.6060   19.9170 O   0  0  0  0  0  0  0  0  0  0  0  0
    6.8420   -4.1140   21.5800 N   0  0  0  0  0  0  0  0  0  0  0  0
    6.6150   -5.3810   22.3010 C   0  0  0  0  0  0  0  0  0  0  0  0
    5.7520   -4.8360   23.5010 C   0  0  0  0  0  0  0  0  0  0  0  0
    6.5520   -3.7130   24.1260 C   0  0  0  0  0  0  0  0  0  0  0  0
    5.7990   -3.0980   25.3780 C   0  0  0  0  0  0  0  0  0  0  0  0
    5.0250   -2.2160   25.0400 O   0  0  0  0  0  0  0  0  0  0  0  0
    6.1940   -3.7080   26.4140 N   0  0  0  0  0  0  0  0  0  0  0  0
    6.5430   -4.3770   27.5340 C   0  0  0  0  0  0  0  0  0  0  0  0
    6.8060   -5.6210   28.0030 C   0  0  0  0  0  0  0  0  0  0  0  0
    6.2850   -6.6580   27.2260 O   0  0  0  0  0  0  0  0  0  0  0  0
    4.9230   -6.8760   27.2440 C   0  0  0  0  0  0  0  0  0  0  0  0
    4.4190   -7.1180   28.6400 C   0  0  0  0  0  0  0  0  0  0  0  0
    2.8510   -7.3880   28.7610 C   0  0  0  0  0  0  0  0  0  0  0  0
    2.1300   -7.3660   27.5360 C   0  0  0  0  0  0  0  0  0  0  0  0
    2.7540   -7.1280   26.3420 C   0  0  0  0  0  0  0  0  0  0  0  0
    1.4350   -7.2570   25.5680 C   0  0  0  0  0  0  0  0  0  0  0  0
    0.4810   -8.2060   25.8670 O   0  0  0  0  0  0  0  0  0  0  0  0
    1.2260   -6.3840   24.5410 O   0  0  0  0  0  0  0  0  0  0  0  0
    1.4820   -6.5800   23.1800 C   0  0  0  0  0  0  0  0  0  0  0  0
    4.1330   -6.8780   26.1260 C   0  0  0  0  0  0  0  0  0  0  0  0
    6.9830   -2.6040   23.1750 C   0  0  0  0  0  0  0  0  0  0  0  0
    7.7060   -3.1190   22.1630 C   0  0  0  0  0  0  0  0  0  0  0  0
  1  2  1  0
  2  3  2  0
  2  4  1  0
  4  5  1  0
  5  6  1  0
  6  7  1  0
  7  8  1  0
  8  9  2  0
  8 10  1  0
 10 11  1  0
 11 12  1  0
 12 13  1  0
 13 14  1  0
 14 15  2  0
 15 16  1  0
 16 17  2  0
 17 18  1  0
 18 19  1  0
 19 20  2  0
 19 21  1  0
 21 22  1  0
 14 23  1  0
 18 23  2  0
  7 24  1  0
  4 25  1  0
 24 25  1  0
M  END
