piperidine-amides-5543-covalent
     RDKit          3D

 18 19  0  0  0  0  0  0  0  0999 V2000
    7.1380   -3.3090   19.2770 C   0  0  0  0  0  0  0  0  0  0  0  0
    6.3710   -4.0650   20.2670 C   0  0  0  0  0  0  0  0  0  0  0  0
    5.3020   -4.5920   19.9100 O   0  0  0  0  0  0  0  0  0  0  0  0
    6.8400   -4.2580   21.5790 N   0  0  0  0  0  0  0  0  0  0  0  0
    6.5990   -5.4990   22.2850 C   0  0  0  0  0  0  0  0  0  0  0  0
    6.2000   -5.1100   23.6880 C   0  0  0  0  0  0  0  0  0  0  0  0
    6.0900   -3.6210   23.8450 C   0  0  0  0  0  0  0  0  0  0  0  0
    5.6450   -3.1670   25.1820 C   0  0  0  0  0  0  0  0  0  0  0  0
    4.4530   -2.7750   25.3380 O   0  0  0  0  0  0  0  0  0  0  0  0
    6.4640   -3.1410   26.3310 N   0  0  0  0  0  0  0  0  0  0  0  0
    6.0870   -3.9120   27.5380 C   0  0  0  0  0  0  0  0  0  0  0  0
    4.6460   -3.6610   27.7850 C   0  0  0  0  0  0  0  0  0  0  0  0
    3.9520   -4.2130   26.7770 N   0  0  0  0  0  0  0  0  0  0  0  0
    4.0210   -4.1210   29.0570 C   0  0  0  0  0  0  0  0  0  0  0  0
    3.6820   -2.7310   29.5040 C   0  0  0  0  0  0  0  0  0  0  0  0
    4.3050   -2.2740   28.2240 C   0  0  0  0  0  0  0  0  0  0  0  0
    7.3840   -2.9920   23.4680 C   0  0  0  0  0  0  0  0  0  0  0  0
    7.6390   -3.2010   22.1470 C   0  0  0  0  0  0  0  0  0  0  0  0
  1  2  1  0
  2  3  2  0
  2  4  1  0
  4  5  1  0
  5  6  1  0
  6  7  1  0
  7  8  1  0
  8  9  2  0
  8 10  1  0
 10 11  1  0
 11 12  1  0
 12 13  1  0
 12 14  1  0
 14 15  1  0
 12 16  1  0
 15 16  1  0
  7 17  1  0
  4 18  1  0
 17 18  1  0
M  END
