piperidine-amides-915-covalent
     RDKit          3D

 24 26  0  0  0  0  0  0  0  0999 V2000
    7.0400   -3.3260   19.3480 C   0  0  0  0  0  0  0  0  0  0  0  0
    6.3520   -4.1760   20.3600 C   0  0  0  0  0  0  0  0  0  0  0  0
    5.3910   -4.8730   19.9920 O   0  0  0  0  0  0  0  0  0  0  0  0
    6.8300   -4.1990   21.6980 N   0  0  0  0  0  0  0  0  0  0  0  0
    7.6950   -3.1440   22.2050 C   0  0  0  0  0  0  0  0  0  0  0  0
    7.4920   -3.0540   23.7150 C   0  0  0  0  0  0  0  0  0  0  0  0
    6.1430   -3.6180   23.9610 C   0  0  0  0  0  0  0  0  0  0  0  0
    5.5760   -3.2890   25.2950 C   0  0  0  0  0  0  0  0  0  0  0  0
    4.3490   -3.3910   25.3950 O   0  0  0  0  0  0  0  0  0  0  0  0
    6.3860   -2.8850   26.3660 N   0  0  0  0  0  0  0  0  0  0  0  0
    6.6690   -1.5500   26.7860 C   0  0  1  0  0  0  0  0  0  0  0  0
    5.8080   -0.6050   26.6850 C   0  0  0  0  0  0  0  0  0  0  0  0
    6.0390   -0.3480   28.0550 N   0  0  0  0  0  0  0  0  0  0  0  0
    5.6130    0.7920   28.7290 C   0  0  0  0  0  0  0  0  0  0  0  0
    4.7680    0.5540   29.7870 C   0  0  0  0  0  0  0  0  0  0  0  0
    4.2410    1.6900   30.5860 C   0  0  0  0  0  0  0  0  0  0  0  0
    4.6100    3.1450   30.2700 C   0  0  0  0  0  0  0  0  0  0  0  0
    4.0080    4.6750   31.2120 Br  0  0  0  0  0  0  0  0  0  0  0  0
    5.5540    3.1840   29.0650 C   0  0  0  0  0  0  0  0  0  0  0  0
    5.9890    2.0630   28.3860 C   0  0  0  0  0  0  0  0  0  0  0  0
    7.1270   -1.3830   28.1970 C   0  0  0  0  0  0  0  0  0  0  0  0
    7.4120   -1.1410   29.3860 O   0  0  0  0  0  0  0  0  0  0  0  0
    6.0400   -5.0850   23.7000 C   0  0  0  0  0  0  0  0  0  0  0  0
    6.6750   -5.3870   22.5120 C   0  0  0  0  0  0  0  0  0  0  0  0
  1  2  1  0
  2  3  2  0
  2  4  1  0
  4  5  1  0
  5  6  1  0
  6  7  1  0
  7  8  1  0
  8  9  2  0
  8 10  1  0
 11 10  1  1
 11 12  1  0
 12 13  1  0
 13 14  1  0
 14 15  2  0
 15 16  1  0
 16 17  2  0
 17 18  1  0
 17 19  1  0
 14 20  1  0
 19 20  2  0
 11 21  1  0
 13 21  1  0
 21 22  2  0
  7 23  1  0
  4 24  1  0
 23 24  1  0
M  END
