piperidine-amides-9835-covalent
     RDKit          3D

 28 30  0  0  0  0  0  0  0  0999 V2000
    7.1170   -3.3350   19.2830 C   0  0  0  0  0  0  0  0  0  0  0  0
    6.3720   -4.1020   20.2790 C   0  0  0  0  0  0  0  0  0  0  0  0
    5.2850   -4.6120   19.9070 O   0  0  0  0  0  0  0  0  0  0  0  0
    6.9080   -4.2860   21.5500 N   0  0  0  0  0  0  0  0  0  0  0  0
    7.7080   -3.2540   22.1620 C   0  0  0  0  0  0  0  0  0  0  0  0
    6.9530   -2.7390   23.3440 C   0  0  0  0  0  0  0  0  0  0  0  0
    6.5540   -3.8650   24.2490 C   0  0  0  0  0  0  0  0  0  0  0  0
    5.8080   -3.3210   25.4020 C   0  0  0  0  0  0  0  0  0  0  0  0
    4.5980   -3.0460   25.2500 O   0  0  0  0  0  0  0  0  0  0  0  0
    6.4010   -3.1060   26.6550 N   0  0  0  0  0  0  0  0  0  0  0  0
    6.4060   -1.8140   27.2890 C   0  0  0  0  0  0  0  0  0  0  0  0
    5.8020   -0.5560   26.6900 C   0  0  0  0  0  0  0  0  0  0  0  0
    5.8150    0.6660   27.3240 C   0  0  0  0  0  0  0  0  0  0  0  0
    6.3790    0.8900   28.5770 C   0  0  0  0  0  0  0  0  0  0  0  0
    6.3960    2.3950   29.3780 S   0  0  0  0  0  0  0  0  0  0  0  0
    4.9500    2.5820   30.4330 C   0  0  0  0  0  0  0  0  0  0  0  0
    4.9480    2.9370   31.7790 C   0  0  0  0  0  0  0  0  0  0  0  0
    3.7920    3.0550   32.5150 C   0  0  0  0  0  0  0  0  0  0  0  0
    2.4140    2.8190   31.9670 C   0  0  0  0  0  0  0  0  0  0  0  0
    1.2820    2.9440   32.7310 O   0  0  0  0  0  0  0  0  0  0  0  0
    0.6390    2.0330   33.5290 C   0  0  0  0  0  0  0  0  0  0  0  0
    2.4470    2.4730   30.6420 C   0  0  0  0  0  0  0  0  0  0  0  0
    3.7260    2.3430   29.8300 C   0  0  0  0  0  0  0  0  0  0  0  0
    6.9700   -0.1600   29.2450 C   0  0  0  0  0  0  0  0  0  0  0  0
    7.6930    0.0750   30.8330 Cl  0  0  0  0  0  0  0  0  0  0  0  0
    6.9950   -1.5300   28.6120 C   0  0  0  0  0  0  0  0  0  0  0  0
    5.7180   -4.8880   23.5350 C   0  0  0  0  0  0  0  0  0  0  0  0
    6.4890   -5.4320   22.3280 C   0  0  0  0  0  0  0  0  0  0  0  0
  1  2  1  0
  2  3  2  0
  2  4  1  0
  4  5  1  0
  5  6  1  0
  6  7  1  0
  7  8  1  0
  8  9  2  0
  8 10  1  0
 10 11  1  0
 11 12  2  0
 12 13  1  0
 13 14  2  0
 14 15  1  0
 15 16  1  0
 16 17  2  0
 17 18  1  0
 18 19  2  0
 19 20  1  0
 20 21  1  0
 19 22  1  0
 16 23  1  0
 22 23  2  0
 14 24  1  0
 24 25  1  0
 11 26  1  0
 24 26  2  0
  7 27  1  0
  4 28  1  0
 27 28  1  0
M  END
