piperidine-amides-11206-covalent
     RDKit          3D

 19 20  0  0  0  0  0  0  0  0999 V2000
    7.0870   -3.2870   19.2490 C   0  0  0  0  0  0  0  0  0  0  0  0
    6.3570   -4.0460   20.2710 C   0  0  0  0  0  0  0  0  0  0  0  0
    5.3360   -4.6710   19.9320 O   0  0  0  0  0  0  0  0  0  0  0  0
    6.8070   -4.1240   21.6030 N   0  0  0  0  0  0  0  0  0  0  0  0
    7.7070   -3.1400   22.1740 C   0  0  0  0  0  0  0  0  0  0  0  0
    7.2760   -2.9640   23.6030 C   0  0  0  0  0  0  0  0  0  0  0  0
    5.9460   -3.6120   23.8350 C   0  0  0  0  0  0  0  0  0  0  0  0
    5.3430   -3.3520   25.1640 C   0  0  0  0  0  0  0  0  0  0  0  0
    4.5400   -4.1820   25.6710 O   0  0  0  0  0  0  0  0  0  0  0  0
    5.5920   -2.1940   25.9260 N   0  0  0  0  0  0  0  0  0  0  0  0
    6.7420   -2.1590   26.8230 C   0  0  0  0  0  0  0  0  0  0  0  0
    6.5360   -1.1040   27.8380 C   0  0  0  0  0  0  0  0  0  0  0  0
    5.2220   -0.6700   27.7130 F   0  0  0  0  0  0  0  0  0  0  0  0
    6.5970   -1.5140   29.2460 C   0  0  0  0  0  0  0  0  0  0  0  0
    7.7440   -0.7760   29.9020 C   0  0  0  0  0  0  0  0  0  0  0  0
    8.1950    0.2920   28.9250 C   0  0  0  0  0  0  0  0  0  0  0  0
    7.5270   -0.0090   27.6390 C   0  0  0  0  0  0  0  0  0  0  0  0
    6.0750   -5.0990   23.5830 C   0  0  0  0  0  0  0  0  0  0  0  0
    6.6000   -5.3700   22.3110 C   0  0  0  0  0  0  0  0  0  0  0  0
  1  2  1  0
  2  3  2  0
  2  4  1  0
  4  5  1  0
  5  6  1  0
  6  7  1  0
  7  8  1  0
  8  9  2  0
  8 10  1  0
 10 11  1  0
 11 12  1  0
 12 13  1  0
 12 14  1  0
 14 15  1  0
 15 16  1  0
 12 17  1  0
 16 17  1  0
  7 18  1  0
  4 19  1  0
 18 19  1  0
M  END
