piperidine-amides-30322-covalent
     RDKit          3D

 26 28  0  0  0  0  0  0  0  0999 V2000
    7.0690   -3.3050   19.2480 C   0  0  0  0  0  0  0  0  0  0  0  0
    6.3440   -4.0800   20.2520 C   0  0  0  0  0  0  0  0  0  0  0  0
    5.3130   -4.6660   19.9320 O   0  0  0  0  0  0  0  0  0  0  0  0
    6.8560   -4.2150   21.5920 N   0  0  0  0  0  0  0  0  0  0  0  0
    7.6750   -3.1840   22.1740 C   0  0  0  0  0  0  0  0  0  0  0  0
    7.0570   -2.6800   23.4480 C   0  0  0  0  0  0  0  0  0  0  0  0
    6.5180   -3.8670   24.2390 C   0  0  0  0  0  0  0  0  0  0  0  0
    5.7240   -3.3840   25.4130 C   0  0  0  0  0  0  0  0  0  0  0  0
    4.4830   -3.2750   25.3690 O   0  0  0  0  0  0  0  0  0  0  0  0
    6.3900   -3.0490   26.6270 N   0  0  0  0  0  0  0  0  0  0  0  0
    6.2050   -3.8910   27.7920 C   0  0  0  0  0  0  0  0  0  0  0  0
    5.8320   -5.2980   27.3850 C   0  0  0  0  0  0  0  0  0  0  0  0
    6.1190   -6.3270   28.2620 C   0  0  0  0  0  0  0  0  0  0  0  0
    6.5010   -1.6030   27.0220 C   0  0  0  0  0  0  0  0  0  0  0  0
    6.0000   -0.6910   26.1230 C   0  0  0  0  0  0  0  0  0  0  0  0
    5.2180   -0.9360   24.9450 N   0  0  0  0  0  0  0  0  0  0  0  0
    5.0050    0.3020   24.4350 N   0  0  0  0  0  0  0  0  0  0  0  0
    5.6730    1.1670   25.3470 C   0  0  0  0  0  0  0  0  0  0  0  0
    5.8000    2.5340   25.3320 C   0  0  0  0  0  0  0  0  0  0  0  0
    6.8410    3.3470   25.5530 C   0  0  0  0  0  0  0  0  0  0  0  0
    6.4820    4.6560   25.4270 C   0  0  0  0  0  0  0  0  0  0  0  0
    5.0540    4.8920   25.0820 C   0  0  0  0  0  0  0  0  0  0  0  0
    4.3440    3.2940   24.9630 S   0  0  0  0  0  0  0  0  0  0  0  0
    6.1930    0.5000   26.2600 O   0  0  0  0  0  0  0  0  0  0  0  0
    5.6930   -4.8380   23.4050 C   0  0  0  0  0  0  0  0  0  0  0  0
    6.5100   -5.3490   22.4010 C   0  0  0  0  0  0  0  0  0  0  0  0
  1  2  1  0
  2  3  2  0
  2  4  1  0
  4  5  1  0
  5  6  1  0
  6  7  1  0
  7  8  1  0
  8  9  2  0
  8 10  1  0
 10 11  1  0
 11 12  1  0
 12 13  1  0
 10 14  1  0
 14 15  1  0
 15 16  2  0
 16 17  1  0
 17 18  2  0
 18 19  1  0
 19 20  2  0
 20 21  1  0
 21 22  2  0
 19 23  1  0
 22 23  1  0
 15 24  1  0
 18 24  1  0
  7 25  1  0
  4 26  1  0
 25 26  1  0
M  END
