piperidine-amides-29101-covalent
     RDKit          3D

 27 29  0  0  0  0  0  0  0  0999 V2000
    7.0650   -3.3430   19.3270 C   0  0  0  0  0  0  0  0  0  0  0  0
    6.3610   -4.1420   20.3290 C   0  0  0  0  0  0  0  0  0  0  0  0
    5.3640   -4.7930   19.9670 O   0  0  0  0  0  0  0  0  0  0  0  0
    6.8430   -4.1960   21.6630 N   0  0  0  0  0  0  0  0  0  0  0  0
    7.7160   -3.1490   22.1270 C   0  0  0  0  0  0  0  0  0  0  0  0
    7.4310   -2.8180   23.5580 C   0  0  0  0  0  0  0  0  0  0  0  0
    6.0110   -3.2670   23.8160 C   0  0  0  0  0  0  0  0  0  0  0  0
    5.4120   -2.6170   25.0390 C   0  0  0  0  0  0  0  0  0  0  0  0
    4.2950   -2.1400   24.8880 O   0  0  0  0  0  0  0  0  0  0  0  0
    6.1060   -2.6170   26.2400 N   0  0  0  0  0  0  0  0  0  0  0  0
    5.9480   -3.7100   27.0610 C   0  0  0  0  0  0  0  0  0  0  0  0
    7.0310   -4.4740   26.9750 C   0  0  0  0  0  0  0  0  0  0  0  0
    7.2390   -5.4310   27.8790 C   0  0  0  0  0  0  0  0  0  0  0  0
    8.2970   -6.2660   27.8710 C   0  0  0  0  0  0  0  0  0  0  0  0
    9.2910   -6.0980   26.7660 C   0  0  0  0  0  0  0  0  0  0  0  0
    9.0620   -5.0000   25.7510 C   0  0  0  0  0  0  0  0  0  0  0  0
    7.8730   -4.2240   25.9470 C   0  0  0  0  0  0  0  0  0  0  0  0
    6.2840   -1.4530   27.0490 C   0  0  0  0  0  0  0  0  0  0  0  0
    5.7120   -0.1140   26.5880 C   0  0  0  0  0  0  0  0  0  0  0  0
    5.8500    1.0190   27.3560 C   0  0  0  0  0  0  0  0  0  0  0  0
    6.4870    1.1100   28.5890 C   0  0  0  0  0  0  0  0  0  0  0  0
    6.6080    2.1490   29.2890 O   0  0  0  0  0  0  0  0  0  0  0  0
    6.1740    3.3590   28.7860 C   0  0  0  0  0  0  0  0  0  0  0  0
    7.0580   -0.2240   29.0440 C   0  0  0  0  0  0  0  0  0  0  0  0
    6.9490   -1.4990   28.2540 C   0  0  0  0  0  0  0  0  0  0  0  0
    5.9500   -4.7910   23.8360 C   0  0  0  0  0  0  0  0  0  0  0  0
    6.6040   -5.3140   22.5450 C   0  0  0  0  0  0  0  0  0  0  0  0
  1  2  1  0
  2  3  2  0
  2  4  1  0
  4  5  1  0
  5  6  1  0
  6  7  1  0
  7  8  1  0
  8  9  2  0
  8 10  1  0
 10 11  1  0
 11 12  1  0
 12 13  2  0
 13 14  1  0
 14 15  2  0
 15 16  1  0
 12 17  1  0
 16 17  2  0
 10 18  1  0
 18 19  2  0
 19 20  1  0
 20 21  2  0
 21 22  1  0
 22 23  1  0
 21 24  1  0
 18 25  1  0
 24 25  2  0
  7 26  1  0
  4 27  1  0
 26 27  1  0
M  END
