piperidine-amides-27187-covalent
     RDKit          3D

 24 26  0  0  0  0  0  0  0  0999 V2000
    7.0220   -3.3530   19.3740 C   0  0  0  0  0  0  0  0  0  0  0  0
    6.3930   -4.2080   20.3870 C   0  0  0  0  0  0  0  0  0  0  0  0
    5.4010   -4.8800   19.9930 O   0  0  0  0  0  0  0  0  0  0  0  0
    6.9050   -4.2940   21.6930 N   0  0  0  0  0  0  0  0  0  0  0  0
    6.7510   -5.5200   22.4590 C   0  0  0  0  0  0  0  0  0  0  0  0
    6.1280   -5.1680   23.7820 C   0  0  0  0  0  0  0  0  0  0  0  0
    6.0240   -3.6800   23.9010 C   0  0  0  0  0  0  0  0  0  0  0  0
    5.4870   -3.2280   25.2130 C   0  0  0  0  0  0  0  0  0  0  0  0
    4.2570   -3.0390   25.2620 O   0  0  0  0  0  0  0  0  0  0  0  0
    6.2200   -2.9480   26.3860 N   0  0  0  0  0  0  0  0  0  0  0  0
    5.6700   -3.3710   27.6540 C   0  0  0  0  0  0  0  0  0  0  0  0
    5.3350   -4.8380   27.8810 C   0  0  0  0  0  0  0  0  0  0  0  0
    6.1690   -5.5790   28.6730 C   0  0  0  0  0  0  0  0  0  0  0  0
    7.2420   -4.9740   29.1940 F   0  0  0  0  0  0  0  0  0  0  0  0
    5.9430   -6.8740   28.9460 C   0  0  0  0  0  0  0  0  0  0  0  0
    4.8620   -7.4750   28.4250 C   0  0  0  0  0  0  0  0  0  0  0  0
    3.9710   -6.8270   27.6200 C   0  0  0  0  0  0  0  0  0  0  0  0
    4.2010   -5.4840   27.3390 C   0  0  0  0  0  0  0  0  0  0  0  0
    3.0270   -4.6810   26.3170 Cl  0  0  0  0  0  0  0  0  0  0  0  0
    6.7800   -1.6480   26.4270 C   0  0  0  0  0  0  0  0  0  0  0  0
    5.9860   -0.5740   26.6120 C   0  0  0  0  0  0  0  0  0  0  0  0
    6.8940   -1.1130   27.7940 C   0  0  0  0  0  0  0  0  0  0  0  0
    7.3450   -3.0400   23.6080 C   0  0  0  0  0  0  0  0  0  0  0  0
    7.7300   -3.2210   22.2940 C   0  0  0  0  0  0  0  0  0  0  0  0
  1  2  1  0
  2  3  2  0
  2  4  1  0
  4  5  1  0
  5  6  1  0
  6  7  1  0
  7  8  1  0
  8  9  2  0
  8 10  1  0
 10 11  1  0
 11 12  1  0
 12 13  2  0
 13 14  1  0
 13 15  1  0
 15 16  2  0
 16 17  1  0
 12 18  1  0
 17 18  2  0
 18 19  1  0
 10 20  1  0
 20 21  1  0
 20 22  1  0
 21 22  1  0
  7 23  1  0
  4 24  1  0
 23 24  1  0
M  END
