piperidine-amides-31546-covalent
     RDKit          3D

 26 28  0  0  0  0  0  0  0  0999 V2000
    6.9850   -3.4100   19.4200 C   0  0  0  0  0  0  0  0  0  0  0  0
    6.3570   -4.2350   20.4440 C   0  0  0  0  0  0  0  0  0  0  0  0
    5.4460   -5.0160   20.0270 O   0  0  0  0  0  0  0  0  0  0  0  0
    6.7120   -4.2420   21.8330 N   0  0  0  0  0  0  0  0  0  0  0  0
    6.6340   -5.5630   22.5330 C   0  0  0  0  0  0  0  0  0  0  0  0
    6.0610   -5.2210   23.9860 C   0  0  0  0  0  0  0  0  0  0  0  0
    5.9800   -3.7200   24.0630 C   0  0  0  0  0  0  0  0  0  0  0  0
    5.0410   -2.9930   25.1870 C   0  0  0  0  0  0  0  0  0  0  0  0
    4.2260   -2.3610   24.5540 O   0  0  0  0  0  0  0  0  0  0  0  0
    5.2800   -3.1870   26.4520 N   0  0  0  0  0  0  0  0  0  0  0  0
    5.2350   -3.0550   27.8300 C   0  0  0  0  0  0  0  0  0  0  0  0
    5.0880   -3.8730   28.9470 C   0  0  0  0  0  0  0  0  0  0  0  0
    4.9490   -5.2430   28.4610 N   0  0  0  0  0  0  0  0  0  0  0  0
    4.7650   -6.4680   29.6610 S   0  0  0  0  0  0  0  0  0  0  0  0
    4.9680   -7.7780   29.0250 O   0  0  0  0  0  0  0  0  0  0  0  0
    5.8070   -6.1800   30.6920 O   0  0  0  0  0  0  0  0  0  0  0  0
    3.1910   -6.4380   30.4220 N   0  0  0  0  0  0  0  0  0  0  0  0
    2.8430   -7.6760   30.8110 C   0  0  0  0  0  0  0  0  0  0  0  0
    2.0520   -7.9300   32.0280 C   0  0  0  0  0  0  0  0  0  0  0  0
    0.9950   -6.9180   31.5400 C   0  0  0  0  0  0  0  0  0  0  0  0
    1.7150   -5.8490   32.1030 C   0  0  0  0  0  0  0  0  0  0  0  0
    2.9810   -5.5520   31.5610 C   0  0  0  0  0  0  0  0  0  0  0  0
    6.0750   -5.4470   27.6250 C   0  0  0  0  0  0  0  0  0  0  0  0
    6.1840   -4.1730   26.7320 C   0  0  0  0  0  0  0  0  0  0  0  0
    7.3360   -3.0790   23.7620 C   0  0  0  0  0  0  0  0  0  0  0  0
    7.5820   -3.2080   22.4110 C   0  0  0  0  0  0  0  0  0  0  0  0
  1  2  1  0
  2  3  2  0
  2  4  1  0
  4  5  1  0
  5  6  1  0
  6  7  1  0
  7  8  1  0
  8  9  2  0
  8 10  1  0
 10 11  1  0
 11 12  1  0
 12 13  1  0
 14 13  1  0
 14 15  2  0
 14 16  2  0
 14 17  1  0
 17 18  1  0
 18 19  1  0
 19 20  1  0
 20 21  1  0
 17 22  1  0
 21 22  1  0
 13 23  1  0
 10 24  1  0
 23 24  1  0
  7 25  1  0
  4 26  1  0
 25 26  1  0
M  END
