piperidine-amides-22361-covalent
     RDKit          3D

 23 24  0  0  0  0  0  0  0  0999 V2000
    7.1090   -3.3100   19.2900 C   0  0  0  0  0  0  0  0  0  0  0  0
    6.4250   -4.1730   20.2570 C   0  0  0  0  0  0  0  0  0  0  0  0
    5.3620   -4.7580   19.9570 O   0  0  0  0  0  0  0  0  0  0  0  0
    7.0040   -4.3990   21.5060 N   0  0  0  0  0  0  0  0  0  0  0  0
    6.6650   -5.5940   22.2330 C   0  0  0  0  0  0  0  0  0  0  0  0
    5.7390   -5.1250   23.3450 C   0  0  0  0  0  0  0  0  0  0  0  0
    6.5610   -4.1740   24.1800 C   0  0  0  0  0  0  0  0  0  0  0  0
    5.7320   -3.6610   25.2720 C   0  0  0  0  0  0  0  0  0  0  0  0
    4.6520   -3.1140   24.9710 O   0  0  0  0  0  0  0  0  0  0  0  0
    6.1300   -3.7780   26.6090 N   0  0  0  0  0  0  0  0  0  0  0  0
    5.9710   -5.0750   27.2800 C   0  0  0  0  0  0  0  0  0  0  0  0
    5.9940   -4.7390   28.7270 C   0  0  0  0  0  0  0  0  0  0  0  0
    5.2880   -3.6100   28.7310 C   0  0  1  0  0  0  0  0  0  0  0  0
    5.0940   -2.8020   29.8140 C   0  0  0  0  0  0  0  0  0  0  0  0
    3.9650   -3.0790   30.6110 C   0  0  0  0  0  0  0  0  0  0  0  0
    3.6230   -4.4100   30.7380 C   0  0  0  0  0  0  0  0  0  0  0  0
    3.0490   -4.9230   32.0490 C   0  0  0  0  0  0  0  0  0  0  0  0
    3.7680   -5.9350   31.1790 C   0  0  0  0  0  0  0  0  0  0  0  0
    4.6930   -6.8770   31.8970 C   0  0  0  0  0  0  0  0  0  0  0  0
    3.7560   -7.5910   31.0220 C   0  0  0  0  0  0  0  0  0  0  0  0
    5.7210   -2.7650   27.6000 C   0  0  0  0  0  0  0  0  0  0  0  0
    6.9470   -2.9450   23.3630 C   0  0  0  0  0  0  0  0  0  0  0  0
    7.7520   -3.3610   22.1750 C   0  0  0  0  0  0  0  0  0  0  0  0
  1  2  1  0
  2  3  2  0
  2  4  1  0
  4  5  1  0
  5  6  1  0
  6  7  1  0
  7  8  1  0
  8  9  2  0
  8 10  1  0
 10 11  1  0
 11 12  1  0
 12 13  1  0
 13 14  1  1
 14 15  1  0
 15 16  1  0
 16 17  1  0
 17 18  1  0
 18 19  1  0
 19 20  1  0
 10 21  1  0
 13 21  1  0
  7 22  1  0
  4 23  1  0
 22 23  1  0
M  END
