piperidine-amides-299-covalent
     RDKit          3D

 30 32  0  0  0  0  0  0  0  0999 V2000
    7.0600   -3.3500   19.1970 C   0  0  0  0  0  0  0  0  0  0  0  0
    6.3290   -4.0610   20.2230 C   0  0  0  0  0  0  0  0  0  0  0  0
    5.2300   -4.5940   19.8920 O   0  0  0  0  0  0  0  0  0  0  0  0
    6.7960   -4.2510   21.5360 N   0  0  0  0  0  0  0  0  0  0  0  0
    7.6980   -3.2360   22.1320 C   0  0  0  0  0  0  0  0  0  0  0  0
    6.7130   -2.6580   23.2020 C   0  0  0  0  0  0  0  0  0  0  0  0
    6.6980   -3.7320   24.2480 C   0  0  0  0  0  0  0  0  0  0  0  0
    5.6080   -3.4600   25.3640 C   0  0  0  0  0  0  0  0  0  0  0  0
    4.5880   -4.1040   25.1530 O   0  0  0  0  0  0  0  0  0  0  0  0
    6.0580   -2.6270   26.2060 N   0  0  0  0  0  0  0  0  0  0  0  0
    6.3580   -1.7060   27.1510 C   0  0  0  0  0  0  0  0  0  0  0  0
    6.9740   -1.5960   28.4250 C   0  0  0  0  0  0  0  0  0  0  0  0
    7.1350   -0.4260   29.2290 C   0  0  0  0  0  0  0  0  0  0  0  0
    6.6340    0.8370   28.7510 C   0  0  0  0  0  0  0  0  0  0  0  0
    6.6030    2.2780   29.2800 C   0  0  0  0  0  0  0  0  0  0  0  0
    5.9710    0.8670   27.4300 C   0  0  0  0  0  0  0  0  0  0  0  0
    5.8510   -0.3020   26.7060 C   0  0  0  0  0  0  0  0  0  0  0  0
    5.2190   -0.1260   25.5150 O   0  0  0  0  0  0  0  0  0  0  0  0
    4.0730    0.6340   25.5400 C   0  0  0  0  0  0  0  0  0  0  0  0
    2.9570    0.2240   26.5370 C   0  0  0  0  0  0  0  0  0  0  0  0
    1.7740    0.9260   26.6310 C   0  0  0  0  0  0  0  0  0  0  0  0
    1.5650    2.0070   25.8370 N   0  0  0  0  0  0  0  0  0  0  0  0
    2.6020    2.3780   24.9180 C   0  0  0  0  0  0  0  0  0  0  0  0
    2.2450    3.4720   24.1950 C   0  0  0  0  0  0  0  0  0  0  0  0
    1.1140    3.9950   24.4670 O   0  0  0  0  0  0  0  0  0  0  0  0
    3.0560    4.0320   23.1850 N   0  0  0  0  0  0  0  0  0  0  0  0
    3.0590    5.4270   22.8360 C   0  0  0  0  0  0  0  0  0  0  0  0
    3.7850    1.7300   24.7790 C   0  0  0  0  0  0  0  0  0  0  0  0
    6.7490   -5.1550   23.7920 C   0  0  0  0  0  0  0  0  0  0  0  0
    6.4780   -5.3920   22.3370 C   0  0  0  0  0  0  0  0  0  0  0  0
  1  2  1  0
  2  3  2  0
  2  4  1  0
  4  5  1  0
  5  6  1  0
  6  7  1  0
  7  8  1  0
  8  9  2  0
  8 10  1  0
 10 11  1  0
 11 12  2  0
 12 13  1  0
 13 14  2  0
 14 15  1  0
 14 16  1  0
 11 17  1  0
 16 17  2  0
 17 18  1  0
 18 19  1  0
 19 20  2  0
 20 21  1  0
 21 22  2  0
 22 23  1  0
 23 24  1  0
 24 25  2  0
 24 26  1  0
 26 27  1  0
 19 28  1  0
 23 28  2  0
  7 29  1  0
  4 30  1  0
 29 30  1  0
M  END
