piperidine-amides-10567-covalent
     RDKit          3D

 23 25  0  0  0  0  0  0  0  0999 V2000
    7.0370   -3.3200   19.2830 C   0  0  0  0  0  0  0  0  0  0  0  0
    6.3440   -4.1200   20.3030 C   0  0  0  0  0  0  0  0  0  0  0  0
    5.3130   -4.7380   19.9370 O   0  0  0  0  0  0  0  0  0  0  0  0
    6.8410   -4.2080   21.6020 N   0  0  0  0  0  0  0  0  0  0  0  0
    7.7500   -3.2040   22.1160 C   0  0  0  0  0  0  0  0  0  0  0  0
    7.3170   -2.7780   23.4780 C   0  0  0  0  0  0  0  0  0  0  0  0
    6.9250   -3.9420   24.3410 C   0  0  0  0  0  0  0  0  0  0  0  0
    6.1700   -3.4070   25.4860 C   0  0  0  0  0  0  0  0  0  0  0  0
    4.9320   -3.6070   25.5350 O   0  0  0  0  0  0  0  0  0  0  0  0
    6.7860   -2.6590   26.5100 N   0  0  0  0  0  0  0  0  0  0  0  0
    5.9460   -1.7990   27.2980 C   0  0  1  0  0  0  0  0  0  0  0  0
    6.5590   -1.1580   28.4960 C   0  0  0  0  0  0  0  0  0  0  0  0
    6.2220    0.1560   28.1940 C   0  0  0  0  0  0  0  0  0  0  0  0
    6.6590    1.1200   29.1970 C   0  0  0  0  0  0  0  0  0  0  0  0
    6.4520    2.4640   29.1470 F   0  0  0  0  0  0  0  0  0  0  0  0
    7.3410    0.5190   30.2760 C   0  0  0  0  0  0  0  0  0  0  0  0
    7.4300   -0.8090   30.1210 C   0  0  0  0  0  0  0  0  0  0  0  0
    6.8060   -0.0640   29.1640 C   0  0  0  0  0  0  0  0  0  0  0  0
    6.0370    0.6020   27.9280 C   0  0  0  0  0  0  0  0  0  0  0  0
    5.6440   -0.4830   26.8890 C   0  0  1  0  0  0  0  0  0  0  0  0
    6.1510   -0.1120   25.5100 C   0  0  0  0  0  0  0  0  0  0  0  0
    6.0460   -4.9210   23.6020 C   0  0  0  0  0  0  0  0  0  0  0  0
    6.6100   -5.3890   22.4370 C   0  0  0  0  0  0  0  0  0  0  0  0
  1  2  1  0
  2  3  2  0
  2  4  1  0
  4  5  1  0
  5  6  1  0
  6  7  1  0
  7  8  1  0
  8  9  2  0
  8 10  1  0
 11 10  1  6
 11 12  1  0
 12 13  2  0
 13 14  1  0
 14 15  1  0
 14 16  2  0
 16 17  1  0
 12 18  1  0
 17 18  2  0
 18 19  1  0
 11 20  1  0
 19 20  1  0
 20 21  1  6
  7 22  1  0
  4 23  1  0
 22 23  1  0
M  END
