piperidine-amides-24755-covalent
     RDKit          3D

 23 23  0  0  0  0  0  0  0  0999 V2000
    7.0330   -3.2730   19.3150 C   0  0  0  0  0  0  0  0  0  0  0  0
    6.3250   -4.0940   20.3150 C   0  0  0  0  0  0  0  0  0  0  0  0
    5.3550   -4.8000   19.9620 O   0  0  0  0  0  0  0  0  0  0  0  0
    6.7230   -4.1400   21.6610 N   0  0  0  0  0  0  0  0  0  0  0  0
    6.6290   -5.4100   22.3480 C   0  0  0  0  0  0  0  0  0  0  0  0
    6.2290   -5.1630   23.8120 C   0  0  0  0  0  0  0  0  0  0  0  0
    5.9990   -3.6760   23.9980 C   0  0  0  0  0  0  0  0  0  0  0  0
    5.3820   -3.3460   25.3260 C   0  0  0  0  0  0  0  0  0  0  0  0
    4.1430   -3.2220   25.3250 O   0  0  0  0  0  0  0  0  0  0  0  0
    6.1110   -3.1740   26.5530 N   0  0  0  0  0  0  0  0  0  0  0  0
    6.6000   -1.8630   26.9290 C   0  0  0  0  0  0  0  0  0  0  0  0
    5.4850   -0.8280   26.8530 C   0  0  0  0  0  0  0  0  0  0  0  0
    5.4590   -0.1230   25.6970 F   0  0  0  0  0  0  0  0  0  0  0  0
    4.2750   -1.5560   26.9680 F   0  0  0  0  0  0  0  0  0  0  0  0
    5.5450   -0.0160   27.9550 F   0  0  0  0  0  0  0  0  0  0  0  0
    6.2610   -4.3180   27.4680 C   0  0  2  0  0  0  0  0  0  0  0  0
    5.9800   -5.5260   26.8800 C   0  0  0  0  0  0  0  0  0  0  0  0
    5.7670   -4.1460   28.6980 C   0  0  0  0  0  0  0  0  0  0  0  0
    5.7020   -2.9390   29.3160 O   0  0  0  0  0  0  0  0  0  0  0  0
    5.3320   -5.2680   29.3740 O   0  0  0  0  0  0  0  0  0  0  0  0
    6.0910   -6.4800   29.3540 C   0  0  0  0  0  0  0  0  0  0  0  0
    7.3210   -2.9600   23.7310 C   0  0  0  0  0  0  0  0  0  0  0  0
    7.6090   -3.1480   22.2600 C   0  0  0  0  0  0  0  0  0  0  0  0
  1  2  1  0
  2  3  2  0
  2  4  1  0
  4  5  1  0
  5  6  1  0
  6  7  1  0
  7  8  1  0
  8  9  2  0
  8 10  1  0
 10 11  1  0
 11 12  1  0
 12 13  1  0
 12 14  1  0
 12 15  1  0
 10 16  1  0
 16 17  1  6
 16 18  1  0
 18 19  2  0
 18 20  1  0
 20 21  1  0
  7 22  1  0
  4 23  1  0
 22 23  1  0
M  END
