piperidine-amides-34899-covalent
     RDKit          3D

 32 34  0  0  0  0  0  0  0  0999 V2000
    7.0410   -3.3650   19.4060 C   0  0  0  0  0  0  0  0  0  0  0  0
    6.4000   -4.2650   20.4020 C   0  0  0  0  0  0  0  0  0  0  0  0
    5.4380   -4.9230   20.0050 O   0  0  0  0  0  0  0  0  0  0  0  0
    6.9190   -4.3630   21.7090 N   0  0  0  0  0  0  0  0  0  0  0  0
    6.7050   -5.5590   22.5130 C   0  0  0  0  0  0  0  0  0  0  0  0
    6.0900   -5.1800   23.8380 C   0  0  0  0  0  0  0  0  0  0  0  0
    6.2240   -3.6720   23.9310 C   0  0  0  0  0  0  0  0  0  0  0  0
    5.5710   -3.0510   25.1070 C   0  0  0  0  0  0  0  0  0  0  0  0
    5.1190   -1.9240   24.9310 O   0  0  0  0  0  0  0  0  0  0  0  0
    5.3720   -3.6200   26.3770 N   0  0  0  0  0  0  0  0  0  0  0  0
    6.3250   -3.3880   27.3940 C   0  0  0  0  0  0  0  0  0  0  0  0
    6.3050   -4.6070   28.3030 C   0  0  0  0  0  0  0  0  0  0  0  0
    4.8660   -4.7370   28.6360 N   0  0  0  0  0  0  0  0  0  0  0  0
    4.7120   -4.8940   30.0580 C   0  0  0  0  0  0  0  0  0  0  0  0
    3.9040   -4.2000   30.7360 O   0  0  0  0  0  0  0  0  0  0  0  0
    5.4250   -5.8090   30.7370 O   0  0  0  0  0  0  0  0  0  0  0  0
    5.1090   -7.1580   30.6470 C   0  0  0  0  0  0  0  0  0  0  0  0
    5.7520   -7.6570   31.7460 C   0  0  0  0  0  0  0  0  0  0  0  0
    4.4670   -7.7370   31.8000 C   0  0  0  0  0  0  0  0  0  0  0  0
    6.0220   -7.9980   29.8840 C   0  0  0  0  0  0  0  0  0  0  0  0
    3.8550   -3.8570   28.1900 C   0  0  0  0  0  0  0  0  0  0  0  0
    4.0720   -3.2940   26.8530 C   0  0  1  0  0  0  0  0  0  0  0  0
    3.9030   -1.7990   26.8520 C   0  0  0  0  0  0  0  0  0  0  0  0
    5.0850   -0.8520   26.9470 C   0  0  0  0  0  0  0  0  0  0  0  0
    4.9150    0.6150   26.9460 C   0  0  0  0  0  0  0  0  0  0  0  0
    3.5650    1.2770   26.8510 C   0  0  0  0  0  0  0  0  0  0  0  0
    3.3160    2.6300   26.8430 C   0  0  0  0  0  0  0  0  0  0  0  0
    2.6880    3.2320   28.0770 C   0  0  0  0  0  0  0  0  0  0  0  0
    2.4390    0.2910   26.7590 C   0  0  0  0  0  0  0  0  0  0  0  0
    2.6490   -1.2290   26.7630 C   0  0  0  0  0  0  0  0  0  0  0  0
    7.5920   -3.1340   23.6710 C   0  0  0  0  0  0  0  0  0  0  0  0
    7.7710   -3.2590   22.1570 C   0  0  0  0  0  0  0  0  0  0  0  0
  1  2  1  0
  2  3  2  0
  2  4  1  0
  4  5  1  0
  5  6  1  0
  6  7  1  0
  7  8  1  0
  8  9  2  0
  8 10  1  0
 10 11  1  0
 11 12  1  0
 12 13  1  0
 13 14  1  0
 14 15  2  0
 14 16  1  0
 17 16  1  0
 17 18  1  0
 17 19  1  0
 17 20  1  0
 13 21  1  0
 10 22  1  0
 21 22  1  0
 22 23  1  1
 23 24  2  0
 24 25  1  0
 25 26  2  0
 26 27  1  0
 27 28  1  0
 26 29  1  0
 23 30  1  0
 29 30  2  0
  7 31  1  0
  4 32  1  0
 31 32  1  0
M  END
