piperidine-amides-26903-covalent
     RDKit          3D

 25 27  0  0  0  0  0  0  0  0999 V2000
    7.0080   -3.3810   19.4150 C   0  0  0  0  0  0  0  0  0  0  0  0
    6.3860   -4.2580   20.4170 C   0  0  0  0  0  0  0  0  0  0  0  0
    5.4230   -4.9600   20.0070 O   0  0  0  0  0  0  0  0  0  0  0  0
    6.8780   -4.3180   21.7340 N   0  0  0  0  0  0  0  0  0  0  0  0
    6.7290   -5.5390   22.5210 C   0  0  0  0  0  0  0  0  0  0  0  0
    6.1910   -5.1850   23.8880 C   0  0  0  0  0  0  0  0  0  0  0  0
    6.1850   -3.6960   24.0380 C   0  0  0  0  0  0  0  0  0  0  0  0
    5.7890   -3.1610   25.3740 C   0  0  0  0  0  0  0  0  0  0  0  0
    5.3250   -2.0060   25.3610 O   0  0  0  0  0  0  0  0  0  0  0  0
    5.8010   -3.7850   26.6470 N   0  0  0  0  0  0  0  0  0  0  0  0
    4.6090   -3.5390   27.4230 C   0  0  0  0  0  0  0  0  0  0  0  0
    4.1560   -4.7400   28.2500 C   0  0  0  0  0  0  0  0  0  0  0  0
    5.2800   -5.2300   29.0320 N   0  0  0  0  0  0  0  0  0  0  0  0
    5.1020   -5.9430   30.1260 C   0  0  0  0  0  0  0  0  0  0  0  0
    5.9430   -6.9870   30.4260 C   0  0  0  0  0  0  0  0  0  0  0  0
    5.7620   -7.7360   31.5860 C   0  0  0  0  0  0  0  0  0  0  0  0
    4.7420   -7.4800   32.4830 C   0  0  0  0  0  0  0  0  0  0  0  0
    3.8550   -6.4650   32.2650 C   0  0  0  0  0  0  0  0  0  0  0  0
    2.8390   -6.1550   33.0820 F   0  0  0  0  0  0  0  0  0  0  0  0
    4.0720   -5.6700   31.0120 C   0  0  0  0  0  0  0  0  0  0  0  0
    3.1530   -4.6650   30.8520 F   0  0  0  0  0  0  0  0  0  0  0  0
    6.5670   -4.9310   28.5790 C   0  0  0  0  0  0  0  0  0  0  0  0
    6.3920   -3.5720   27.9380 C   0  0  0  0  0  0  0  0  0  0  0  0
    7.5160   -3.1450   23.6380 C   0  0  0  0  0  0  0  0  0  0  0  0
    7.7360   -3.2400   22.2830 C   0  0  0  0  0  0  0  0  0  0  0  0
  1  2  1  0
  2  3  2  0
  2  4  1  0
  4  5  1  0
  5  6  1  0
  6  7  1  0
  7  8  1  0
  8  9  2  0
  8 10  1  0
 10 11  1  0
 11 12  1  0
 12 13  1  0
 13 14  1  0
 14 15  2  0
 15 16  1  0
 16 17  2  0
 17 18  1  0
 18 19  1  0
 14 20  1  0
 18 20  2  0
 20 21  1  0
 13 22  1  0
 10 23  1  0
 22 23  1  0
  7 24  1  0
  4 25  1  0
 24 25  1  0
M  END
