piperidine-amides-14801-covalent
     RDKit          3D

 22 24  0  0  0  0  0  0  0  0999 V2000
    7.0270   -3.2900   19.2780 C   0  0  0  0  0  0  0  0  0  0  0  0
    6.3490   -4.1100   20.2800 C   0  0  0  0  0  0  0  0  0  0  0  0
    5.3250   -4.7260   19.9400 O   0  0  0  0  0  0  0  0  0  0  0  0
    6.8790   -4.2290   21.5880 N   0  0  0  0  0  0  0  0  0  0  0  0
    6.4390   -5.3140   22.4090 C   0  0  0  0  0  0  0  0  0  0  0  0
    5.5080   -4.7870   23.4680 C   0  0  0  0  0  0  0  0  0  0  0  0
    6.1850   -3.6020   24.1340 C   0  0  0  0  0  0  0  0  0  0  0  0
    5.2370   -2.9430   25.1130 C   0  0  0  0  0  0  0  0  0  0  0  0
    4.2080   -3.5690   25.3520 O   0  0  0  0  0  0  0  0  0  0  0  0
    5.5440   -1.6900   25.6840 N   0  0  0  0  0  0  0  0  0  0  0  0
    6.6140   -1.5620   26.5960 C   0  0  0  0  0  0  0  0  0  0  0  0
    7.4530   -2.5760   26.3190 C   0  0  0  0  0  0  0  0  0  0  0  0
    8.2770   -2.5120   25.1800 C   0  0  0  0  0  0  0  0  0  0  0  0
    9.1670   -3.5050   24.7560 C   0  0  0  0  0  0  0  0  0  0  0  0
    9.1770   -4.6750   25.6460 C   0  0  0  0  0  0  0  0  0  0  0  0
    9.8660   -5.8090   25.6160 N   0  0  0  0  0  0  0  0  0  0  0  0
    9.5590   -6.5690   26.6020 C   0  0  0  0  0  0  0  0  0  0  0  0
    8.5650   -5.9830   27.4710 C   0  0  0  0  0  0  0  0  0  0  0  0
    8.3180   -4.7000   26.8090 C   0  0  0  0  0  0  0  0  0  0  0  0
    7.3940   -3.6190   27.2070 C   0  0  0  0  0  0  0  0  0  0  0  0
    6.5220   -2.5750   23.0740 C   0  0  0  0  0  0  0  0  0  0  0  0
    7.4880   -3.0980   22.2410 C   0  0  0  0  0  0  0  0  0  0  0  0
  1  2  1  0
  2  3  2  0
  2  4  1  0
  4  5  1  0
  5  6  1  0
  6  7  1  0
  7  8  1  0
  8  9  2  0
  8 10  1  0
 10 11  1  0
 11 12  1  0
 12 13  2  0
 13 14  1  0
 14 15  2  0
 15 16  1  0
 16 17  1  0
 17 18  2  0
 15 19  1  0
 18 19  1  0
 12 20  1  0
 19 20  2  0
  7 21  1  0
  4 22  1  0
 21 22  1  0
M  END
