piperidine-amides-33568-covalent
     RDKit          3D

 28 29  0  0  0  0  0  0  0  0999 V2000
    7.0600   -3.3670   19.3580 C   0  0  0  0  0  0  0  0  0  0  0  0
    6.4230   -4.2210   20.3720 C   0  0  0  0  0  0  0  0  0  0  0  0
    5.4000   -4.8490   19.9950 O   0  0  0  0  0  0  0  0  0  0  0  0
    6.9670   -4.3850   21.6850 N   0  0  0  0  0  0  0  0  0  0  0  0
    6.6010   -5.5050   22.4670 C   0  0  0  0  0  0  0  0  0  0  0  0
    6.2730   -5.0990   23.8230 C   0  0  0  0  0  0  0  0  0  0  0  0
    5.9120   -3.6680   23.9030 C   0  0  0  0  0  0  0  0  0  0  0  0
    5.5300   -3.2160   25.2870 C   0  0  0  0  0  0  0  0  0  0  0  0
    4.3570   -2.8430   25.4710 O   0  0  0  0  0  0  0  0  0  0  0  0
    6.4070   -3.1870   26.3910 N   0  0  0  0  0  0  0  0  0  0  0  0
    6.6880   -4.3040   27.2260 C   0  0  0  0  0  0  0  0  0  0  0  0
    6.4930   -1.8760   27.0600 C   0  0  0  0  0  0  0  0  0  0  0  0
    6.0720   -0.4770   26.5300 C   0  0  0  0  0  0  0  0  0  0  0  0
    6.1580    0.7830   27.1890 C   0  0  0  0  0  0  0  0  0  0  0  0
    6.7660    0.6690   28.6230 C   0  0  0  0  0  0  0  0  0  0  0  0
    6.8240    2.2230   29.3330 S   0  0  0  0  0  0  0  0  0  0  0  0
    6.0840    3.2200   28.4850 O   0  0  0  0  0  0  0  0  0  0  0  0
    8.2500    2.6220   29.4800 O   0  0  0  0  0  0  0  0  0  0  0  0
    6.1120    2.1210   30.7110 N   0  0  0  0  0  0  0  0  0  0  0  0
    6.3640    0.9760   31.6070 C   0  0  0  0  0  0  0  0  0  0  0  0
    5.1610    3.0210   31.0030 C   0  0  0  0  0  0  0  0  0  0  0  0
    3.7740    2.4280   31.1350 C   0  0  0  0  0  0  0  0  0  0  0  0
    3.0840    1.9170   30.0030 O   0  0  0  0  0  0  0  0  0  0  0  0
    3.2370    0.5770   29.7620 C   0  0  0  0  0  0  0  0  0  0  0  0
    7.2020   -0.6320   29.2150 C   0  0  0  0  0  0  0  0  0  0  0  0
    7.0650   -1.8480   28.4580 C   0  0  0  0  0  0  0  0  0  0  0  0
    6.8620   -2.7080   23.2430 C   0  0  0  0  0  0  0  0  0  0  0  0
    7.7170   -3.3420   22.3480 C   0  0  0  0  0  0  0  0  0  0  0  0
  1  2  1  0
  2  3  2  0
  2  4  1  0
  4  5  1  0
  5  6  1  0
  6  7  1  0
  7  8  1  0
  8  9  2  0
  8 10  1  0
 10 11  1  0
 10 12  1  0
 12 13  2  0
 13 14  1  0
 14 15  2  0
 15 16  1  0
 16 17  2  0
 16 18  2  0
 16 19  1  0
 19 20  1  0
 19 21  1  0
 21 22  1  0
 22 23  1  0
 23 24  1  0
 15 25  1  0
 12 26  1  0
 25 26  2  0
  7 27  1  0
  4 28  1  0
 27 28  1  0
M  END
