piperidine-amides-29144-covalent
     RDKit          3D

 25 27  0  0  0  0  0  0  0  0999 V2000
    6.9830   -3.4060   19.4880 C   0  0  0  0  0  0  0  0  0  0  0  0
    6.3160   -4.2830   20.4530 C   0  0  0  0  0  0  0  0  0  0  0  0
    5.4130   -5.0160   20.0150 O   0  0  0  0  0  0  0  0  0  0  0  0
    6.7110   -4.3130   21.8290 N   0  0  0  0  0  0  0  0  0  0  0  0
    6.6260   -5.5640   22.5480 C   0  0  0  0  0  0  0  0  0  0  0  0
    6.1290   -5.3330   23.9600 C   0  0  0  0  0  0  0  0  0  0  0  0
    6.0690   -3.8380   24.0960 C   0  0  0  0  0  0  0  0  0  0  0  0
    5.6260   -3.2350   25.4380 C   0  0  0  0  0  0  0  0  0  0  0  0
    5.3970   -2.0390   25.3360 O   0  0  0  0  0  0  0  0  0  0  0  0
    5.4180   -3.8890   26.6890 N   0  0  0  0  0  0  0  0  0  0  0  0
    5.3440   -3.1120   27.8740 C   0  0  0  0  0  0  0  0  0  0  0  0
    4.5730   -3.6260   28.9360 C   0  0  0  0  0  0  0  0  0  0  0  0
    4.9760   -5.0210   29.2900 N   0  0  0  0  0  0  0  0  0  0  0  0
    4.2220   -5.9670   30.0370 C   0  0  0  0  0  0  0  0  0  0  0  0
    2.8630   -6.1170   29.8480 C   0  0  0  0  0  0  0  0  0  0  0  0
    2.2060   -7.1430   30.7270 C   0  0  0  0  0  0  0  0  0  0  0  0
    3.0240   -7.9590   31.7630 C   0  0  0  0  0  0  0  0  0  0  0  0
    2.1980   -9.1480   32.7850 Cl  0  0  0  0  0  0  0  0  0  0  0  0
    4.4930   -7.7190   31.8750 C   0  0  0  0  0  0  0  0  0  0  0  0
    4.9330   -6.6860   30.9360 N   0  0  0  0  0  0  0  0  0  0  0  0
    6.2290   -6.4440   31.0130 O   0  0  0  0  0  0  0  0  0  0  0  0
    5.6740   -5.7800   28.2910 C   0  0  0  0  0  0  0  0  0  0  0  0
    6.2130   -4.9880   27.1120 C   0  0  0  0  0  0  0  0  0  0  0  0
    7.4440   -3.3040   23.7520 C   0  0  0  0  0  0  0  0  0  0  0  0
    7.5200   -3.2290   22.3710 C   0  0  0  0  0  0  0  0  0  0  0  0
  1  2  1  0
  2  3  2  0
  2  4  1  0
  4  5  1  0
  5  6  1  0
  6  7  1  0
  7  8  1  0
  8  9  2  0
  8 10  1  0
 10 11  1  0
 11 12  1  0
 12 13  1  0
 13 14  1  0
 14 15  2  0
 15 16  1  0
 16 17  2  0
 17 18  1  0
 17 19  1  0
 14 20  1  0
 19 20  2  0
 20 21  1  0
 13 22  1  0
 10 23  1  0
 22 23  1  0
  7 24  1  0
  4 25  1  0
 24 25  1  0
M  CHG  2  20   1  21  -1
M  END
