piperidine-amides-28795-covalent
     RDKit          3D

 27 29  0  0  0  0  0  0  0  0999 V2000
    7.0910   -3.2600   19.2460 C   0  0  0  0  0  0  0  0  0  0  0  0
    6.3370   -4.0260   20.2390 C   0  0  0  0  0  0  0  0  0  0  0  0
    5.2690   -4.5520   19.8830 O   0  0  0  0  0  0  0  0  0  0  0  0
    6.8300   -4.2090   21.5560 N   0  0  0  0  0  0  0  0  0  0  0  0
    7.6830   -3.2060   22.1440 C   0  0  0  0  0  0  0  0  0  0  0  0
    7.1390   -2.7700   23.4710 C   0  0  0  0  0  0  0  0  0  0  0  0
    6.8260   -4.0210   24.2570 C   0  0  0  0  0  0  0  0  0  0  0  0
    6.1750   -3.6420   25.5460 C   0  0  0  0  0  0  0  0  0  0  0  0
    4.9450   -3.7160   25.5800 O   0  0  0  0  0  0  0  0  0  0  0  0
    7.0060   -3.2150   26.5890 N   0  0  0  0  0  0  0  0  0  0  0  0
    7.1940   -1.8320   26.8210 C   0  0  0  0  0  0  0  0  0  0  0  0
    6.0590   -1.0460   26.5800 C   0  0  0  0  0  0  0  0  0  0  0  0
    5.1090   -0.8120   27.5570 C   0  0  0  0  0  0  0  0  0  0  0  0
    3.9360   -0.0460   27.4240 C   0  0  0  0  0  0  0  0  0  0  0  0
    3.7200    0.5700   26.0640 C   0  0  0  0  0  0  0  0  0  0  0  0
    4.7650    0.3190   24.9750 C   0  0  0  0  0  0  0  0  0  0  0  0
    5.9150   -0.5110   25.3300 C   0  0  0  0  0  0  0  0  0  0  0  0
    7.5960   -4.1600   27.5220 C   0  0  2  0  0  0  0  0  0  0  0  0
    8.5310   -5.1390   26.7560 C   0  0  0  0  0  0  0  0  0  0  0  0
    6.6040   -4.9390   28.0690 C   0  0  0  0  0  0  0  0  0  0  0  0
    6.9300   -6.1600   28.6560 C   0  0  0  0  0  0  0  0  0  0  0  0
    5.9130   -7.0840   29.2790 C   0  0  0  0  0  0  0  0  0  0  0  0
    4.4820   -6.6930   29.2770 C   0  0  0  0  0  0  0  0  0  0  0  0
    4.1060   -5.3830   28.6510 C   0  0  0  0  0  0  0  0  0  0  0  0
    5.2620   -4.5560   28.0600 C   0  0  0  0  0  0  0  0  0  0  0  0
    5.9570   -5.0210   23.5600 C   0  0  0  0  0  0  0  0  0  0  0  0
    6.5420   -5.4370   22.2340 C   0  0  0  0  0  0  0  0  0  0  0  0
  1  2  1  0
  2  3  2  0
  2  4  1  0
  4  5  1  0
  5  6  1  0
  6  7  1  0
  7  8  1  0
  8  9  2  0
  8 10  1  0
 10 11  1  0
 11 12  1  0
 12 13  2  0
 13 14  1  0
 14 15  2  0
 15 16  1  0
 12 17  1  0
 16 17  2  0
 10 18  1  0
 18 19  1  6
 18 20  1  0
 20 21  2  0
 21 22  1  0
 22 23  2  0
 23 24  1  0
 20 25  1  0
 24 25  2  0
  7 26  1  0
  4 27  1  0
 26 27  1  0
M  END
