piperidine-amides-12840-covalent
     RDKit          3D

 21 22  0  0  0  0  0  0  0  0999 V2000
    7.0810   -3.3120   19.2530 C   0  0  0  0  0  0  0  0  0  0  0  0
    6.3710   -4.1090   20.2810 C   0  0  0  0  0  0  0  0  0  0  0  0
    5.2980   -4.6280   19.9150 O   0  0  0  0  0  0  0  0  0  0  0  0
    6.9050   -4.3110   21.5700 N   0  0  0  0  0  0  0  0  0  0  0  0
    7.6710   -3.3010   22.2150 C   0  0  0  0  0  0  0  0  0  0  0  0
    7.3160   -3.1880   23.6220 C   0  0  0  0  0  0  0  0  0  0  0  0
    5.9490   -3.6910   23.8760 C   0  0  0  0  0  0  0  0  0  0  0  0
    5.5070   -3.4020   25.2680 C   0  0  0  0  0  0  0  0  0  0  0  0
    4.3260   -3.6670   25.5900 O   0  0  0  0  0  0  0  0  0  0  0  0
    6.3670   -2.8100   26.2050 N   0  0  0  0  0  0  0  0  0  0  0  0
    6.5750   -1.3450   26.2440 C   0  0  0  0  0  0  0  0  0  0  0  0
    6.2800   -0.6720   24.9270 C   0  0  0  0  0  0  0  0  0  0  0  0
    7.2920   -0.3090   23.9520 C   0  0  0  0  0  0  0  0  0  0  0  0
    6.7620    0.3190   22.7800 N   0  0  0  0  0  0  0  0  0  0  0  0
    5.4160    0.6080   22.4830 C   0  0  0  0  0  0  0  0  0  0  0  0
    5.0180    1.4590   20.8120 Br  0  0  0  0  0  0  0  0  0  0  0  0
    4.3620    0.3070   23.3430 C   0  0  0  0  0  0  0  0  0  0  0  0
    3.1340    0.6630   22.8840 C   0  0  0  0  0  0  0  0  0  0  0  0
    4.8150   -0.3650   24.6250 C   0  0  0  0  0  0  0  0  0  0  0  0
    5.7000   -5.0870   23.4310 C   0  0  0  0  0  0  0  0  0  0  0  0
    6.5200   -5.4710   22.3490 C   0  0  0  0  0  0  0  0  0  0  0  0
  1  2  1  0
  2  3  2  0
  2  4  1  0
  4  5  1  0
  5  6  1  0
  6  7  1  0
  7  8  1  0
  8  9  2  0
  8 10  1  0
 10 11  1  0
 11 12  1  0
 12 13  2  0
 13 14  1  0
 14 15  2  0
 15 16  1  0
 15 17  1  0
 17 18  1  0
 12 19  1  0
 17 19  2  0
  7 20  1  0
  4 21  1  0
 20 21  1  0
M  END
