piperidine-amides-24916-covalent
     RDKit          3D

 23 25  0  0  0  0  0  0  0  0999 V2000
    7.0900   -3.3210   19.2710 C   0  0  0  0  0  0  0  0  0  0  0  0
    6.4130   -4.1660   20.2650 C   0  0  0  0  0  0  0  0  0  0  0  0
    5.3640   -4.7740   19.9620 O   0  0  0  0  0  0  0  0  0  0  0  0
    6.9690   -4.3460   21.5380 N   0  0  0  0  0  0  0  0  0  0  0  0
    6.6480   -5.5450   22.2690 C   0  0  0  0  0  0  0  0  0  0  0  0
    5.6820   -5.0970   23.3580 C   0  0  0  0  0  0  0  0  0  0  0  0
    6.4130   -4.0450   24.1570 C   0  0  0  0  0  0  0  0  0  0  0  0
    5.4730   -3.4900   25.1400 C   0  0  0  0  0  0  0  0  0  0  0  0
    4.5850   -2.7140   24.7390 O   0  0  0  0  0  0  0  0  0  0  0  0
    5.5800   -3.8310   26.4920 N   0  0  0  0  0  0  0  0  0  0  0  0
    4.3960   -4.1130   27.2480 C   0  0  0  0  0  0  0  0  0  0  0  0
    4.7820   -4.8360   28.5240 C   0  0  0  0  0  0  0  0  0  0  0  0
    5.6740   -4.2420   29.3420 C   0  0  0  0  0  0  0  0  0  0  0  0
    5.1800   -3.0490   29.9120 N   0  0  0  0  0  0  0  0  0  0  0  0
    3.9700   -2.7600   30.6090 C   0  0  0  0  0  0  0  0  0  0  0  0
    4.0740   -1.3980   30.9200 C   0  0  0  0  0  0  0  0  0  0  0  0
    2.8850   -0.4310   31.7890 Cl  0  0  0  0  0  0  0  0  0  0  0  0
    5.2600   -0.9580   30.4270 C   0  0  0  0  0  0  0  0  0  0  0  0
    5.9010   -1.9400   29.8350 N   0  0  0  0  0  0  0  0  0  0  0  0
    6.6970   -4.0900   28.4930 C   0  0  0  0  0  0  0  0  0  0  0  0
    6.3990   -3.1220   27.3840 C   0  0  0  0  0  0  0  0  0  0  0  0
    6.9560   -2.9030   23.3970 C   0  0  0  0  0  0  0  0  0  0  0  0
    7.6710   -3.2960   22.1940 C   0  0  0  0  0  0  0  0  0  0  0  0
  1  2  1  0
  2  3  2  0
  2  4  1  0
  4  5  1  0
  5  6  1  0
  6  7  1  0
  7  8  1  0
  8  9  2  0
  8 10  1  0
 10 11  1  0
 11 12  1  0
 12 13  1  0
 13 14  1  0
 14 15  1  0
 15 16  2  0
 16 17  1  0
 16 18  1  0
 14 19  1  0
 18 19  2  0
 13 20  1  0
 10 21  1  0
 20 21  1  0
  7 22  1  0
  4 23  1  0
 22 23  1  0
M  END
