piperidine-amides-4938-covalent
     RDKit          3D

 23 24  0  0  0  0  0  0  0  0999 V2000
    7.1170   -3.2680   19.2400 C   0  0  0  0  0  0  0  0  0  0  0  0
    6.3880   -4.0420   20.2740 C   0  0  0  0  0  0  0  0  0  0  0  0
    5.3270   -4.5880   19.9020 O   0  0  0  0  0  0  0  0  0  0  0  0
    6.8860   -4.1880   21.5840 N   0  0  0  0  0  0  0  0  0  0  0  0
    7.7210   -3.1730   22.1440 C   0  0  0  0  0  0  0  0  0  0  0  0
    7.3980   -2.9360   23.5360 C   0  0  0  0  0  0  0  0  0  0  0  0
    6.0860   -3.5070   23.8880 C   0  0  0  0  0  0  0  0  0  0  0  0
    5.6810   -3.1190   25.2610 C   0  0  0  0  0  0  0  0  0  0  0  0
    4.4630   -3.1010   25.5130 O   0  0  0  0  0  0  0  0  0  0  0  0
    6.6140   -2.7760   26.2490 N   0  0  0  0  0  0  0  0  0  0  0  0
    6.2750   -2.8050   27.6890 C   0  0  0  0  0  0  0  0  0  0  0  0
    5.7210   -4.1200   28.1070 C   0  0  0  0  0  0  0  0  0  0  0  0
    6.5590   -5.0780   28.7440 C   0  0  0  0  0  0  0  0  0  0  0  0
    6.1260   -6.2860   29.1510 C   0  0  0  0  0  0  0  0  0  0  0  0
    4.8240   -6.7180   28.9950 C   0  0  0  0  0  0  0  0  0  0  0  0
    4.5950   -7.9520   29.4750 C   0  0  0  0  0  0  0  0  0  0  0  0
    3.8990   -5.7210   28.3170 C   0  0  0  0  0  0  0  0  0  0  0  0
    2.5940   -5.9050   28.0540 N   0  0  0  0  0  0  0  0  0  0  0  0
    2.2120   -6.4070   26.9180 O   0  0  0  0  0  0  0  0  0  0  0  0
    1.5680   -5.5400   28.9420 O   0  0  0  0  0  0  0  0  0  0  0  0
    4.3890   -4.4920   27.9140 C   0  0  0  0  0  0  0  0  0  0  0  0
    6.0320   -5.0020   23.6750 C   0  0  0  0  0  0  0  0  0  0  0  0
    6.6770   -5.3850   22.3780 C   0  0  0  0  0  0  0  0  0  0  0  0
  1  2  1  0
  2  3  2  0
  2  4  1  0
  4  5  1  0
  5  6  1  0
  6  7  1  0
  7  8  1  0
  8  9  2  0
  8 10  1  0
 10 11  1  0
 11 12  1  0
 12 13  2  0
 13 14  1  0
 14 15  2  0
 15 16  1  0
 15 17  1  0
 17 18  1  0
 18 19  2  0
 18 20  1  0
 12 21  1  0
 17 21  2  0
  7 22  1  0
  4 23  1  0
 22 23  1  0
M  CHG  2  18   1  20  -1
M  END
