piperidine-amides-1614-covalent
     RDKit          3D

 21 23  0  0  0  0  0  0  0  0999 V2000
    7.0430   -3.3110   19.3250 C   0  0  0  0  0  0  0  0  0  0  0  0
    6.3300   -4.1590   20.3250 C   0  0  0  0  0  0  0  0  0  0  0  0
    5.3310   -4.7950   19.9600 O   0  0  0  0  0  0  0  0  0  0  0  0
    6.8230   -4.2620   21.6480 N   0  0  0  0  0  0  0  0  0  0  0  0
    6.7010   -5.4810   22.4200 C   0  0  0  0  0  0  0  0  0  0  0  0
    6.0700   -5.1580   23.7850 C   0  0  0  0  0  0  0  0  0  0  0  0
    6.0550   -3.6790   23.9800 C   0  0  0  0  0  0  0  0  0  0  0  0
    5.6410   -3.2570   25.3390 C   0  0  0  0  0  0  0  0  0  0  0  0
    4.4320   -3.3240   25.6110 O   0  0  0  0  0  0  0  0  0  0  0  0
    6.6050   -2.8000   26.2370 N   0  0  0  0  0  0  0  0  0  0  0  0
    6.5410   -1.6430   27.0620 C   0  0  0  0  0  0  0  0  0  0  0  0
    7.0050   -1.5950   28.3610 C   0  0  0  0  0  0  0  0  0  0  0  0
    6.9340   -0.4420   29.1610 C   0  0  0  0  0  0  0  0  0  0  0  0
    6.3840    0.7230   28.6770 C   0  0  0  0  0  0  0  0  0  0  0  0
    6.1590    1.9930   29.1600 O   0  0  0  0  0  0  0  0  0  0  0  0
    5.5780    2.7660   28.2430 C   0  0  0  0  0  0  0  0  0  0  0  0
    5.3620    1.9840   26.9830 C   0  0  0  0  0  0  0  0  0  0  0  0
    5.9240    0.6630   27.3750 C   0  0  0  0  0  0  0  0  0  0  0  0
    5.9930   -0.4640   26.5900 C   0  0  0  0  0  0  0  0  0  0  0  0
    7.3310   -3.0070   23.6410 C   0  0  0  0  0  0  0  0  0  0  0  0
    7.6460   -3.1880   22.1790 C   0  0  0  0  0  0  0  0  0  0  0  0
  1  2  1  0
  2  3  2  0
  2  4  1  0
  4  5  1  0
  5  6  1  0
  6  7  1  0
  7  8  1  0
  8  9  2  0
  8 10  1  0
 10 11  1  0
 11 12  2  0
 12 13  1  0
 13 14  2  0
 14 15  1  0
 15 16  1  0
 16 17  2  0
 14 18  1  0
 17 18  1  0
 11 19  1  0
 18 19  2  0
  7 20  1  0
  4 21  1  0
 20 21  1  0
M  END
