piperidine-amides-4331-covalent
     RDKit          3D

 26 28  0  0  0  0  0  0  0  0999 V2000
    7.1290   -3.2740   19.1900 C   0  0  0  0  0  0  0  0  0  0  0  0
    6.3770   -4.0230   20.2090 C   0  0  0  0  0  0  0  0  0  0  0  0
    5.2680   -4.4910   19.8630 O   0  0  0  0  0  0  0  0  0  0  0  0
    6.9080   -4.2670   21.4950 N   0  0  0  0  0  0  0  0  0  0  0  0
    7.5900   -3.1970   22.1430 C   0  0  0  0  0  0  0  0  0  0  0  0
    7.1000   -2.8520   23.4760 C   0  0  0  0  0  0  0  0  0  0  0  0
    6.4360   -3.9350   24.2360 C   0  0  0  0  0  0  0  0  0  0  0  0
    5.6720   -3.3690   25.3940 C   0  0  0  0  0  0  0  0  0  0  0  0
    4.4730   -3.0690   25.2340 O   0  0  0  0  0  0  0  0  0  0  0  0
    6.2750   -3.1610   26.6520 N   0  0  0  0  0  0  0  0  0  0  0  0
    6.1480   -3.9190   27.8460 C   0  0  1  0  0  0  0  0  0  0  0  0
    5.3560   -3.2900   28.8950 C   0  0  0  0  0  0  0  0  0  0  0  0
    4.1960   -3.7050   29.4830 N   0  0  0  0  0  0  0  0  0  0  0  0
    3.7700   -2.7980   30.4590 C   0  0  0  0  0  0  0  0  0  0  0  0
    2.6480   -2.9060   31.2400 C   0  0  0  0  0  0  0  0  0  0  0  0
    2.4800   -1.6800   32.2510 C   0  0  0  0  0  0  0  0  0  0  0  0
    3.5310   -0.5310   32.2730 C   0  0  0  0  0  0  0  0  0  0  0  0
    4.7000   -0.6430   31.2970 C   0  0  0  0  0  0  0  0  0  0  0  0
    4.7300   -1.7980   30.4430 C   0  0  0  0  0  0  0  0  0  0  0  0
    5.6920   -2.0770   29.5070 N   0  0  0  0  0  0  0  0  0  0  0  0
    5.9110   -5.2810   27.8080 C   0  0  1  0  0  0  0  0  0  0  0  0
    6.6060   -5.8860   29.0310 C   0  0  0  0  0  0  0  0  0  0  0  0
    4.4970   -5.7960   27.8120 C   0  0  0  0  0  0  0  0  0  0  0  0
    4.3690   -7.1210   27.4060 C   0  0  0  0  0  0  0  0  0  0  0  0
    5.6230   -4.8860   23.4260 C   0  0  0  0  0  0  0  0  0  0  0  0
    6.4040   -5.3790   22.2410 C   0  0  0  0  0  0  0  0  0  0  0  0
  1  2  1  0
  2  3  2  0
  2  4  1  0
  4  5  1  0
  5  6  1  0
  6  7  1  0
  7  8  1  0
  8  9  2  0
  8 10  1  0
 11 10  1  6
 11 12  1  0
 12 13  2  0
 13 14  1  0
 14 15  2  0
 15 16  1  0
 16 17  2  0
 17 18  1  0
 14 19  1  0
 18 19  2  0
 12 20  1  0
 19 20  1  0
 11 21  1  0
 21 22  1  1
 21 23  1  0
 23 24  1  0
  7 25  1  0
  4 26  1  0
 25 26  1  0
M  END
