piperidine-amides-18808-covalent
     RDKit          3D

 21 22  0  0  0  0  0  0  0  0999 V2000
    7.0070   -3.4080   19.3320 C   0  0  0  0  0  0  0  0  0  0  0  0
    6.3670   -4.1880   20.3690 C   0  0  0  0  0  0  0  0  0  0  0  0
    5.4090   -4.9410   20.0080 O   0  0  0  0  0  0  0  0  0  0  0  0
    6.7850   -4.1680   21.7180 N   0  0  0  0  0  0  0  0  0  0  0  0
    6.7330   -5.4740   22.4340 C   0  0  0  0  0  0  0  0  0  0  0  0
    5.9190   -5.1130   23.7460 C   0  0  0  0  0  0  0  0  0  0  0  0
    6.3600   -3.7210   24.1330 C   0  0  0  0  0  0  0  0  0  0  0  0
    5.6640   -3.2310   25.4940 C   0  0  0  0  0  0  0  0  0  0  0  0
    5.0670   -2.1810   25.3040 O   0  0  0  0  0  0  0  0  0  0  0  0
    5.8850   -4.0600   26.4360 N   0  0  0  0  0  0  0  0  0  0  0  0
    6.0450   -5.2100   27.1310 C   0  0  0  0  0  0  0  0  0  0  0  0
    6.4440   -5.6040   28.3650 C   0  0  0  0  0  0  0  0  0  0  0  0
    5.1650   -5.4420   28.9980 N   0  0  0  0  0  0  0  0  0  0  0  0
    4.8640   -5.7120   30.2730 C   0  0  0  0  0  0  0  0  0  0  0  0
    3.8420   -6.7590   30.0670 C   0  0  0  0  0  0  0  0  0  0  0  0
    2.9490   -6.6780   31.1380 O   0  0  0  0  0  0  0  0  0  0  0  0
    4.9220   -4.0330   28.6810 C   0  0  0  0  0  0  0  0  0  0  0  0
    6.0180   -3.6210   27.8660 C   0  0  2  0  0  0  0  0  0  0  0  0
    6.3580   -2.2640   27.9500 C   0  0  0  0  0  0  0  0  0  0  0  0
    7.6980   -3.3560   23.7880 C   0  0  0  0  0  0  0  0  0  0  0  0
    7.6660   -3.1830   22.2400 C   0  0  0  0  0  0  0  0  0  0  0  0
  1  2  1  0
  2  3  2  0
  2  4  1  0
  4  5  1  0
  5  6  1  0
  6  7  1  0
  7  8  1  0
  8  9  2  0
  8 10  1  0
 10 11  1  0
 11 12  1  0
 12 13  1  0
 13 14  1  0
 14 15  1  0
 15 16  1  0
 13 17  1  0
 10 18  1  0
 17 18  1  0
 18 19  1  6
  7 20  1  0
  4 21  1  0
 20 21  1  0
M  END
