piperidine-amides-11957-covalent
     RDKit          3D

 26 27  0  0  0  0  0  0  0  0999 V2000
    7.0990   -3.2450   19.2080 C   0  0  0  0  0  0  0  0  0  0  0  0
    6.3120   -3.9850   20.1950 C   0  0  0  0  0  0  0  0  0  0  0  0
    5.2660   -4.5420   19.8700 O   0  0  0  0  0  0  0  0  0  0  0  0
    6.7690   -4.1090   21.5450 N   0  0  0  0  0  0  0  0  0  0  0  0
    7.6410   -3.0940   22.0970 C   0  0  0  0  0  0  0  0  0  0  0  0
    7.2210   -2.7180   23.4880 C   0  0  0  0  0  0  0  0  0  0  0  0
    6.9100   -4.0060   24.2250 C   0  0  0  0  0  0  0  0  0  0  0  0
    6.4950   -3.6910   25.6160 C   0  0  0  0  0  0  0  0  0  0  0  0
    5.4370   -3.0680   25.8830 O   0  0  0  0  0  0  0  0  0  0  0  0
    7.3540   -4.1500   26.6630 N   0  0  0  0  0  0  0  0  0  0  0  0
    7.2980   -5.5750   26.9540 C   0  0  0  0  0  0  0  0  0  0  0  0
    8.5760   -6.1380   27.5880 C   0  0  0  0  0  0  0  0  0  0  0  0
    9.5080   -7.1940   26.4340 S   0  0  0  0  0  0  0  0  0  0  0  0
   10.5970   -6.2450   26.2420 O   0  0  0  0  0  0  0  0  0  0  0  0
    8.7100   -6.8360   25.2260 O   0  0  0  0  0  0  0  0  0  0  0  0
    9.9670   -9.3350   26.6410 N   0  0  0  0  0  0  0  0  0  0  0  0
    9.7920  -10.7320   28.1220 C   0  0  0  0  0  0  0  0  0  0  0  0
   10.4960  -11.8190   28.7600 C   0  0  0  0  0  0  0  0  0  0  0  0
   10.4430  -12.6140   29.8030 C   0  0  0  0  0  0  0  0  0  0  0  0
    9.4610  -12.5080   30.6730 C   0  0  0  0  0  0  0  0  0  0  0  0
    9.3260  -13.2200   31.8700 C   0  0  0  0  0  0  0  0  0  0  0  0
    8.5920  -11.6260   30.2440 C   0  0  0  0  0  0  0  0  0  0  0  0
    7.5800  -11.6160   31.1710 F   0  0  0  0  0  0  0  0  0  0  0  0
    8.7020  -10.7810   29.0780 C   0  0  0  0  0  0  0  0  0  0  0  0
    5.9730   -4.8860   23.5470 C   0  0  0  0  0  0  0  0  0  0  0  0
    6.4830   -5.2850   22.3240 C   0  0  0  0  0  0  0  0  0  0  0  0
  1  2  1  0
  2  3  2  0
  2  4  1  0
  4  5  1  0
  5  6  1  0
  6  7  1  0
  7  8  1  0
  8  9  2  0
  8 10  1  0
 10 11  1  0
 11 12  1  0
 12 13  1  0
 13 14  2  0
 13 15  2  0
 13 16  1  0
 16 17  1  0
 17 18  2  0
 18 19  1  0
 19 20  2  0
 20 21  1  0
 20 22  1  0
 22 23  1  0
 17 24  1  0
 22 24  2  0
  7 25  1  0
  4 26  1  0
 25 26  1  0
M  END
