piperidine-amides-1609-covalent
     RDKit          3D

 21 22  0  0  0  0  0  0  0  0999 V2000
    7.0520   -3.2890   19.2900 C   0  0  0  0  0  0  0  0  0  0  0  0
    6.3160   -4.1100   20.2980 C   0  0  0  0  0  0  0  0  0  0  0  0
    5.3020   -4.7260   19.9360 O   0  0  0  0  0  0  0  0  0  0  0  0
    6.7950   -4.2150   21.6280 N   0  0  0  0  0  0  0  0  0  0  0  0
    6.6820   -5.4460   22.3780 C   0  0  0  0  0  0  0  0  0  0  0  0
    6.0590   -5.1360   23.7510 C   0  0  0  0  0  0  0  0  0  0  0  0
    6.0640   -3.6580   23.9490 C   0  0  0  0  0  0  0  0  0  0  0  0
    5.5820   -3.2300   25.2910 C   0  0  0  0  0  0  0  0  0  0  0  0
    4.4660   -2.7050   25.3190 O   0  0  0  0  0  0  0  0  0  0  0  0
    6.3490   -3.4220   26.4470 N   0  0  0  0  0  0  0  0  0  0  0  0
    6.0490   -4.2540   27.5680 C   0  0  0  0  0  0  0  0  0  0  0  0
    6.0410   -5.6430   27.5480 C   0  0  0  0  0  0  0  0  0  0  0  0
    4.8470   -6.3610   27.6460 C   0  0  0  0  0  0  0  0  0  0  0  0
    4.1050   -6.6000   26.5220 C   0  0  0  0  0  0  0  0  0  0  0  0
    2.8410   -7.3410   26.5380 C   0  0  0  0  0  0  0  0  0  0  0  0
    2.2970   -7.8830   27.8450 C   0  0  0  0  0  0  0  0  0  0  0  0
    3.2070   -7.5620   29.0360 C   0  0  0  0  0  0  0  0  0  0  0  0
    4.3940   -6.8410   28.8710 C   0  0  0  0  0  0  0  0  0  0  0  0
    5.3520   -6.5350   30.2990 Cl  0  0  0  0  0  0  0  0  0  0  0  0
    7.3640   -3.0160   23.6330 C   0  0  0  0  0  0  0  0  0  0  0  0
    7.6520   -3.1650   22.1530 C   0  0  0  0  0  0  0  0  0  0  0  0
  1  2  1  0
  2  3  2  0
  2  4  1  0
  4  5  1  0
  5  6  1  0
  6  7  1  0
  7  8  1  0
  8  9  2  0
  8 10  1  0
 10 11  1  0
 11 12  1  0
 12 13  1  0
 13 14  2  0
 14 15  1  0
 15 16  2  0
 16 17  1  0
 13 18  1  0
 17 18  2  0
 18 19  1  0
  7 20  1  0
  4 21  1  0
 20 21  1  0
M  END
