piperidine-amides-13159-covalent
     RDKit          3D

 20 21  0  0  0  0  0  0  0  0999 V2000
    7.1030   -3.2550   19.1900 C   0  0  0  0  0  0  0  0  0  0  0  0
    6.3420   -3.9950   20.2260 C   0  0  0  0  0  0  0  0  0  0  0  0
    5.2740   -4.5280   19.8670 O   0  0  0  0  0  0  0  0  0  0  0  0
    6.8320   -4.1180   21.5320 N   0  0  0  0  0  0  0  0  0  0  0  0
    6.4860   -5.2600   22.3150 C   0  0  0  0  0  0  0  0  0  0  0  0
    6.0760   -4.9400   23.6900 C   0  0  0  0  0  0  0  0  0  0  0  0
    6.6510   -3.6850   24.2300 C   0  0  0  0  0  0  0  0  0  0  0  0
    5.8800   -3.2020   25.4090 C   0  0  0  0  0  0  0  0  0  0  0  0
    4.6350   -3.2280   25.3470 O   0  0  0  0  0  0  0  0  0  0  0  0
    6.5280   -2.7190   26.5670 N   0  0  0  0  0  0  0  0  0  0  0  0
    6.3160   -3.3010   27.9180 C   0  0  0  0  0  0  0  0  0  0  0  0
    6.2910   -2.2520   28.9860 C   0  0  0  0  0  0  0  0  0  0  0  0
    7.3590   -1.2910   29.2460 C   0  0  0  0  0  0  0  0  0  0  0  0
    7.3620   -0.3260   30.2130 C   0  0  0  0  0  0  0  0  0  0  0  0
    6.2980   -0.1760   31.0520 C   0  0  0  0  0  0  0  0  0  0  0  0
    6.3350    1.0790   32.2800 Cl  0  0  0  0  0  0  0  0  0  0  0  0
    5.2330   -1.0050   30.9220 C   0  0  0  0  0  0  0  0  0  0  0  0
    5.2350   -2.0190   29.9230 N   0  0  0  0  0  0  0  0  0  0  0  0
    6.9070   -2.6040   23.2380 C   0  0  0  0  0  0  0  0  0  0  0  0
    7.6120   -3.0950   22.1820 C   0  0  0  0  0  0  0  0  0  0  0  0
  1  2  1  0
  2  3  2  0
  2  4  1  0
  4  5  1  0
  5  6  1  0
  6  7  1  0
  7  8  1  0
  8  9  2  0
  8 10  1  0
 10 11  1  0
 11 12  1  0
 12 13  2  0
 13 14  1  0
 14 15  2  0
 15 16  1  0
 15 17  1  0
 12 18  1  0
 17 18  2  0
  7 19  1  0
  4 20  1  0
 19 20  1  0
M  END
