piperidine-amides-15454-covalent
     RDKit          3D

 18 19  0  0  0  0  0  0  0  0999 V2000
    7.0460   -3.3190   19.3060 C   0  0  0  0  0  0  0  0  0  0  0  0
    6.3530   -4.1500   20.3100 C   0  0  0  0  0  0  0  0  0  0  0  0
    5.3590   -4.8250   19.9740 O   0  0  0  0  0  0  0  0  0  0  0  0
    6.8100   -4.2360   21.6340 N   0  0  0  0  0  0  0  0  0  0  0  0
    6.6910   -5.5080   22.3250 C   0  0  0  0  0  0  0  0  0  0  0  0
    6.2960   -5.2430   23.7890 C   0  0  0  0  0  0  0  0  0  0  0  0
    6.1560   -3.7510   23.9730 C   0  0  0  0  0  0  0  0  0  0  0  0
    5.6660   -3.4180   25.3300 C   0  0  0  0  0  0  0  0  0  0  0  0
    4.4330   -3.4770   25.5220 O   0  0  0  0  0  0  0  0  0  0  0  0
    6.5410   -3.0260   26.3760 N   0  0  0  0  0  0  0  0  0  0  0  0
    7.5930   -3.8600   26.9060 C   0  0  0  0  0  0  0  0  0  0  0  0
    7.0190   -5.2320   27.2270 C   0  0  0  0  0  0  0  0  0  0  0  0
    6.7660   -5.7480   28.4650 C   0  0  0  0  0  0  0  0  0  0  0  0
    7.2110   -1.8180   26.7640 C   0  0  0  0  0  0  0  0  0  0  0  0
    6.8570   -1.5880   27.9210 C   0  0  0  0  0  0  0  0  0  0  0  0
    6.3150   -0.6940   26.9180 C   0  0  0  0  0  0  0  0  0  0  0  0
    7.5120   -3.1110   23.6910 C   0  0  0  0  0  0  0  0  0  0  0  0
    7.7140   -3.2550   22.2080 C   0  0  0  0  0  0  0  0  0  0  0  0
  1  2  1  0
  2  3  2  0
  2  4  1  0
  4  5  1  0
  5  6  1  0
  6  7  1  0
  7  8  1  0
  8  9  2  0
  8 10  1  0
 10 11  1  0
 11 12  1  0
 12 13  2  3
 10 14  1  0
 14 15  1  0
 14 16  1  0
 15 16  1  0
  7 17  1  0
  4 18  1  0
 17 18  1  0
M  END
