piperidine-amides-13926-covalent
     RDKit          3D

 26 29  0  0  0  0  0  0  0  0999 V2000
    7.1160   -3.2400   19.1480 C   0  0  0  0  0  0  0  0  0  0  0  0
    6.3000   -3.9960   20.1400 C   0  0  0  0  0  0  0  0  0  0  0  0
    5.2020   -4.4680   19.8260 O   0  0  0  0  0  0  0  0  0  0  0  0
    6.8310   -4.1980   21.4140 N   0  0  0  0  0  0  0  0  0  0  0  0
    6.6600   -5.4450   22.1130 C   0  0  0  0  0  0  0  0  0  0  0  0
    5.7270   -5.1710   23.2900 C   0  0  0  0  0  0  0  0  0  0  0  0
    5.9180   -3.7580   23.7380 C   0  0  0  0  0  0  0  0  0  0  0  0
    5.5890   -3.6190   25.1580 C   0  0  0  0  0  0  0  0  0  0  0  0
    4.7720   -2.7440   25.4640 O   0  0  0  0  0  0  0  0  0  0  0  0
    6.2170   -4.4850   26.0540 N   0  0  0  0  0  0  0  0  0  0  0  0
    6.2490   -4.3810   27.4520 C   0  0  2  0  0  0  0  0  0  0  0  0
    5.5780   -5.2790   28.2510 C   0  0  0  0  0  0  0  0  0  0  0  0
    4.3210   -5.8390   27.8920 C   0  0  0  0  0  0  0  0  0  0  0  0
    3.6260   -6.7360   28.7000 C   0  0  0  0  0  0  0  0  0  0  0  0
    4.1920   -7.1480   30.0110 C   0  0  0  0  0  0  0  0  0  0  0  0
    5.4960   -6.6170   30.4500 C   0  0  0  0  0  0  0  0  0  0  0  0
    6.0950   -5.6620   29.4290 C   0  0  0  0  0  0  0  0  0  0  0  0
    6.0100   -6.9980   31.6720 O   0  0  0  0  0  0  0  0  0  0  0  0
    5.3650   -7.7760   32.6330 C   0  0  0  0  0  0  0  0  0  0  0  0
    3.9210   -8.0420   32.2290 C   0  0  0  0  0  0  0  0  0  0  0  0
    3.5400   -8.0110   30.8530 O   0  0  0  0  0  0  0  0  0  0  0  0
    6.0220   -3.0770   28.1180 C   0  0  0  0  0  0  0  0  0  0  0  0
    5.1710   -2.8140   29.2040 C   0  0  0  0  0  0  0  0  0  0  0  0
    4.8830   -2.2000   27.8380 C   0  0  0  0  0  0  0  0  0  0  0  0
    7.2650   -3.1770   23.5220 C   0  0  0  0  0  0  0  0  0  0  0  0
    7.5760   -3.1550   22.0490 C   0  0  0  0  0  0  0  0  0  0  0  0
  1  2  1  0
  2  3  2  0
  2  4  1  0
  4  5  1  0
  5  6  1  0
  6  7  1  0
  7  8  1  0
  8  9  2  0
  8 10  1  0
 11 10  1  6
 11 12  1  0
 12 13  2  0
 13 14  1  0
 14 15  2  0
 15 16  1  0
 12 17  1  0
 16 17  2  0
 16 18  1  0
 18 19  1  0
 19 20  1  0
 15 21  1  0
 20 21  1  0
 11 22  1  0
 22 23  1  0
 22 24  1  0
 23 24  1  0
  7 25  1  0
  4 26  1  0
 25 26  1  0
M  END
