piperidine-amides-7363-covalent
     RDKit          3D

 20 20  0  0  0  0  0  0  0  0999 V2000
    7.1170   -3.2890   19.2570 C   0  0  0  0  0  0  0  0  0  0  0  0
    6.3420   -4.0150   20.2660 C   0  0  0  0  0  0  0  0  0  0  0  0
    5.2640   -4.5310   19.8820 O   0  0  0  0  0  0  0  0  0  0  0  0
    6.8320   -4.1590   21.5690 N   0  0  0  0  0  0  0  0  0  0  0  0
    7.7080   -3.1730   22.1740 C   0  0  0  0  0  0  0  0  0  0  0  0
    7.2690   -2.9820   23.5960 C   0  0  0  0  0  0  0  0  0  0  0  0
    5.8870   -3.5360   23.7940 C   0  0  0  0  0  0  0  0  0  0  0  0
    5.3480   -3.2300   25.1370 C   0  0  0  0  0  0  0  0  0  0  0  0
    4.1660   -3.5460   25.3780 O   0  0  0  0  0  0  0  0  0  0  0  0
    6.0740   -2.5880   26.1520 N   0  0  0  0  0  0  0  0  0  0  0  0
    6.3960   -3.2700   27.3700 C   0  0  1  0  0  0  0  0  0  0  0  0
    5.6010   -4.5680   27.5140 C   0  0  0  0  0  0  0  0  0  0  0  0
    7.8130   -3.5330   27.4090 C   0  0  0  0  0  0  0  0  0  0  0  0
    8.2850   -4.7920   27.2560 C   0  0  0  0  0  0  0  0  0  0  0  0
    8.7240   -5.3170   28.4090 C   0  0  0  0  0  0  0  0  0  0  0  0
    7.3270   -5.8290   26.7940 C   0  0  0  0  0  0  0  0  0  0  0  0
    9.0140   -4.6670   26.2110 O   0  0  0  0  0  0  0  0  0  0  0  0
    9.6260   -5.8890   25.9570 C   0  0  0  0  0  0  0  0  0  0  0  0
    5.8740   -5.0540   23.5840 C   0  0  0  0  0  0  0  0  0  0  0  0
    6.5890   -5.3900   22.2740 C   0  0  0  0  0  0  0  0  0  0  0  0
  1  2  1  0
  2  3  2  0
  2  4  1  0
  4  5  1  0
  5  6  1  0
  6  7  1  0
  7  8  1  0
  8  9  2  0
  8 10  1  0
 10 11  1  0
 11 12  1  6
 11 13  1  0
 13 14  1  0
 14 15  1  0
 14 16  1  0
 14 17  1  0
 17 18  1  0
  7 19  1  0
  4 20  1  0
 19 20  1  0
M  END
