piperidine-amides-3508-covalent
     RDKit          3D

 20 21  0  0  0  0  0  0  0  0999 V2000
    7.0520   -3.3000   19.2520 C   0  0  0  0  0  0  0  0  0  0  0  0
    6.3120   -4.0650   20.2560 C   0  0  0  0  0  0  0  0  0  0  0  0
    5.2900   -4.6580   19.9230 O   0  0  0  0  0  0  0  0  0  0  0  0
    6.7820   -4.1860   21.6140 N   0  0  0  0  0  0  0  0  0  0  0  0
    7.6300   -3.1450   22.1460 C   0  0  0  0  0  0  0  0  0  0  0  0
    7.3680   -2.9620   23.6140 C   0  0  0  0  0  0  0  0  0  0  0  0
    6.1080   -3.7430   23.9500 C   0  0  0  0  0  0  0  0  0  0  0  0
    5.5940   -3.3390   25.2910 C   0  0  0  0  0  0  0  0  0  0  0  0
    4.3960   -3.0650   25.4880 O   0  0  0  0  0  0  0  0  0  0  0  0
    6.4960   -3.2560   26.3720 N   0  0  0  0  0  0  0  0  0  0  0  0
    6.0110   -3.4130   27.7310 C   0  0  0  0  0  0  0  0  0  0  0  0
    6.3970   -4.7720   28.2680 C   0  0  0  0  0  0  0  0  0  0  0  0
    5.6530   -5.3560   29.2630 C   0  0  0  0  0  0  0  0  0  0  0  0
    5.9980   -6.7030   29.6260 N   0  0  0  0  0  0  0  0  0  0  0  0
    5.1000   -6.9050   30.5760 N   0  0  0  0  0  0  0  0  0  0  0  0
    4.2630   -5.7530   30.7770 C   0  0  0  0  0  0  0  0  0  0  0  0
    3.2480   -5.6860   31.7040 C   0  0  0  0  0  0  0  0  0  0  0  0
    4.7110   -4.7910   29.8630 O   0  0  0  0  0  0  0  0  0  0  0  0
    6.4700   -5.1460   23.7050 C   0  0  0  0  0  0  0  0  0  0  0  0
    6.4290   -5.3480   22.3380 C   0  0  0  0  0  0  0  0  0  0  0  0
  1  2  1  0
  2  3  2  0
  2  4  1  0
  4  5  1  0
  5  6  1  0
  6  7  1  0
  7  8  1  0
  8  9  2  0
  8 10  1  0
 10 11  1  0
 11 12  1  0
 12 13  1  0
 13 14  2  0
 14 15  1  0
 15 16  2  0
 16 17  1  0
 13 18  1  0
 16 18  1  0
  7 19  1  0
  4 20  1  0
 19 20  1  0
M  END
