piperidine-amides-4422-covalent
     RDKit          3D

 25 27  0  0  0  0  0  0  0  0999 V2000
    7.1240   -3.2620   19.2130 C   0  0  0  0  0  0  0  0  0  0  0  0
    6.3780   -4.0180   20.2320 C   0  0  0  0  0  0  0  0  0  0  0  0
    5.2880   -4.5300   19.8770 O   0  0  0  0  0  0  0  0  0  0  0  0
    6.8960   -4.2090   21.5340 N   0  0  0  0  0  0  0  0  0  0  0  0
    6.4600   -5.3360   22.2810 C   0  0  0  0  0  0  0  0  0  0  0  0
    6.0430   -5.0210   23.6420 C   0  0  0  0  0  0  0  0  0  0  0  0
    6.6120   -3.7750   24.2050 C   0  0  0  0  0  0  0  0  0  0  0  0
    5.8130   -3.3060   25.3860 C   0  0  0  0  0  0  0  0  0  0  0  0
    4.6210   -2.9810   25.2240 O   0  0  0  0  0  0  0  0  0  0  0  0
    6.3750   -3.2270   26.6790 N   0  0  0  0  0  0  0  0  0  0  0  0
    6.1850   -4.0920   27.7920 C   0  0  0  0  0  0  0  0  0  0  0  0
    5.9620   -5.5440   27.6780 C   0  0  0  0  0  0  0  0  0  0  0  0
    5.2410   -6.2820   28.5380 N   0  0  0  0  0  0  0  0  0  0  0  0
    5.1790   -5.9630   29.9570 C   0  0  0  0  0  0  0  0  0  0  0  0
    5.3890   -7.0500   30.7990 C   0  0  0  0  0  0  0  0  0  0  0  0
    3.9930   -7.5830   30.5220 C   0  0  0  0  0  0  0  0  0  0  0  0
    3.4200   -8.0600   31.8210 C   0  0  0  0  0  0  0  0  0  0  0  0
    2.0030   -8.5870   31.4510 C   0  0  0  0  0  0  0  0  0  0  0  0
    1.2860   -8.6420   30.1050 C   0  0  0  0  0  0  0  0  0  0  0  0
    2.0340   -8.1080   28.9030 C   0  0  0  0  0  0  0  0  0  0  0  0
    3.4230   -7.5730   29.1630 C   0  0  0  0  0  0  0  0  0  0  0  0
    4.2290   -7.0270   28.0520 C   0  0  0  0  0  0  0  0  0  0  0  0
    3.9640   -7.2550   26.8410 O   0  0  0  0  0  0  0  0  0  0  0  0
    6.8000   -2.6860   23.2040 C   0  0  0  0  0  0  0  0  0  0  0  0
    7.6130   -3.1520   22.1950 C   0  0  0  0  0  0  0  0  0  0  0  0
  1  2  1  0
  2  3  2  0
  2  4  1  0
  4  5  1  0
  5  6  1  0
  6  7  1  0
  7  8  1  0
  8  9  2  0
  8 10  1  0
 10 11  1  0
 11 12  1  0
 12 13  1  0
 13 14  1  0
 14 15  1  0
 15 16  1  0
 16 17  2  0
 17 18  1  0
 18 19  2  0
 19 20  1  0
 16 21  1  0
 20 21  2  0
 13 22  1  0
 21 22  1  0
 22 23  2  0
  7 24  1  0
  4 25  1  0
 24 25  1  0
M  END
