piperidine-amides-5136-covalent
     RDKit          3D

 22 24  0  0  0  0  0  0  0  0999 V2000
    7.1070   -3.3440   19.3630 C   0  0  0  0  0  0  0  0  0  0  0  0
    6.3910   -4.1640   20.3590 C   0  0  0  0  0  0  0  0  0  0  0  0
    5.3580   -4.7440   19.9620 O   0  0  0  0  0  0  0  0  0  0  0  0
    6.8950   -4.3100   21.6640 N   0  0  0  0  0  0  0  0  0  0  0  0
    7.6630   -3.2700   22.2790 C   0  0  0  0  0  0  0  0  0  0  0  0
    7.2450   -2.9380   23.6430 C   0  0  0  0  0  0  0  0  0  0  0  0
    6.0000   -3.6170   24.0480 C   0  0  0  0  0  0  0  0  0  0  0  0
    5.6120   -3.2890   25.4430 C   0  0  0  0  0  0  0  0  0  0  0  0
    4.4120   -3.4010   25.7460 O   0  0  0  0  0  0  0  0  0  0  0  0
    6.5490   -2.8680   26.4040 N   0  0  0  0  0  0  0  0  0  0  0  0
    6.4660   -1.5940   27.1580 C   0  0  0  0  0  0  0  0  0  0  0  0
    7.0630   -1.5670   28.4990 C   0  0  0  0  0  0  0  0  0  0  0  0
    7.0150   -0.3650   29.2830 C   0  0  0  0  0  0  0  0  0  0  0  0
    6.3940    0.7300   28.7220 C   0  0  0  0  0  0  0  0  0  0  0  0
    6.3310    1.8850   29.4320 F   0  0  0  0  0  0  0  0  0  0  0  0
    5.8200    0.7160   27.4430 C   0  0  0  0  0  0  0  0  0  0  0  0
    5.8310   -0.4030   26.6380 C   0  0  0  0  0  0  0  0  0  0  0  0
    5.2580   -0.3690   25.4090 C   0  0  0  0  0  0  0  0  0  0  0  0
    4.2280    0.2710   25.1580 C   0  0  0  0  0  0  0  0  0  0  0  0
    4.0160   -1.1340   25.1870 C   0  0  0  0  0  0  0  0  0  0  0  0
    5.9770   -5.0780   23.7900 C   0  0  0  0  0  0  0  0  0  0  0  0
    6.6200   -5.4860   22.4830 C   0  0  0  0  0  0  0  0  0  0  0  0
  1  2  1  0
  2  3  2  0
  2  4  1  0
  4  5  1  0
  5  6  1  0
  6  7  1  0
  7  8  1  0
  8  9  2  0
  8 10  1  0
 10 11  1  0
 11 12  2  0
 12 13  1  0
 13 14  2  0
 14 15  1  0
 14 16  1  0
 11 17  1  0
 16 17  2  0
 17 18  1  0
 18 19  1  0
 18 20  1  0
 19 20  1  0
  7 21  1  0
  4 22  1  0
 21 22  1  0
M  END
