piperidine-amides-28062-covalent
     RDKit          3D

 24 25  0  0  0  0  0  0  0  0999 V2000
    7.1530   -3.2820   19.1300 C   0  0  0  0  0  0  0  0  0  0  0  0
    6.3480   -3.9720   20.1580 C   0  0  0  0  0  0  0  0  0  0  0  0
    5.2330   -4.3950   19.8130 O   0  0  0  0  0  0  0  0  0  0  0  0
    6.8610   -4.1960   21.4360 N   0  0  0  0  0  0  0  0  0  0  0  0
    7.6240   -3.1800   22.0880 C   0  0  0  0  0  0  0  0  0  0  0  0
    7.2420   -2.8980   23.4700 C   0  0  0  0  0  0  0  0  0  0  0  0
    6.4640   -3.9530   24.1580 C   0  0  0  0  0  0  0  0  0  0  0  0
    5.7640   -3.3410   25.3090 C   0  0  0  0  0  0  0  0  0  0  0  0
    4.5200   -3.2610   25.2660 O   0  0  0  0  0  0  0  0  0  0  0  0
    6.4760   -2.8490   26.4170 N   0  0  0  0  0  0  0  0  0  0  0  0
    6.8490   -1.4210   26.4850 C   0  0  0  0  0  0  0  0  0  0  0  0
    6.3820   -3.5630   27.6300 C   0  0  0  0  0  0  0  0  0  0  0  0
    5.1730   -3.4010   28.3850 C   0  0  0  0  0  0  0  0  0  0  0  0
    4.8900   -2.2450   28.8520 O   0  0  0  0  0  0  0  0  0  0  0  0
    4.4280   -4.6230   28.5090 N   0  0  0  0  0  0  0  0  0  0  0  0
    4.7910   -5.6650   29.3720 C   0  0  2  0  0  0  0  0  0  0  0  0
    5.3240   -6.7800   28.7450 C   0  0  0  0  0  0  0  0  0  0  0  0
    5.5720   -7.8110   29.5930 C   0  0  0  0  0  0  0  0  0  0  0  0
    4.7830   -7.2990   31.1490 S   0  0  0  0  0  0  0  0  0  0  0  0
    5.7780   -6.8150   32.1550 O   0  0  0  0  0  0  0  0  0  0  0  0
    3.8220   -8.3070   31.6370 O   0  0  0  0  0  0  0  0  0  0  0  0
    3.8580   -5.9600   30.3440 C   0  0  0  0  0  0  0  0  0  0  0  0
    5.6160   -4.8140   23.3110 C   0  0  0  0  0  0  0  0  0  0  0  0
    6.3290   -5.2770   22.2130 C   0  0  0  0  0  0  0  0  0  0  0  0
  1  2  1  0
  2  3  2  0
  2  4  1  0
  4  5  1  0
  5  6  1  0
  6  7  1  0
  7  8  1  0
  8  9  2  0
  8 10  1  0
 10 11  1  0
 10 12  1  0
 12 13  1  0
 13 14  2  0
 13 15  1  0
 16 15  1  6
 16 17  1  0
 17 18  1  0
 19 18  1  0
 19 20  2  0
 19 21  2  0
 16 22  1  0
 19 22  1  0
  7 23  1  0
  4 24  1  0
 23 24  1  0
M  END
