piperidine-amides-9097-covalent
     RDKit          3D

 21 23  0  0  0  0  0  0  0  0999 V2000
    7.0990   -3.3320   19.2870 C   0  0  0  0  0  0  0  0  0  0  0  0
    6.4000   -4.1480   20.2800 C   0  0  0  0  0  0  0  0  0  0  0  0
    5.3500   -4.7280   19.9520 O   0  0  0  0  0  0  0  0  0  0  0  0
    6.9160   -4.3500   21.5730 N   0  0  0  0  0  0  0  0  0  0  0  0
    6.6300   -5.5300   22.3450 C   0  0  0  0  0  0  0  0  0  0  0  0
    5.8400   -5.0460   23.5320 C   0  0  0  0  0  0  0  0  0  0  0  0
    6.4860   -3.8660   24.2130 C   0  0  0  0  0  0  0  0  0  0  0  0
    5.6530   -3.3220   25.3050 C   0  0  0  0  0  0  0  0  0  0  0  0
    4.4280   -3.0740   25.1070 O   0  0  0  0  0  0  0  0  0  0  0  0
    6.1500   -3.0540   26.5890 N   0  0  0  0  0  0  0  0  0  0  0  0
    6.6230   -1.7030   26.9490 C   0  0  2  0  0  0  0  0  0  0  0  0
    6.9540   -1.7750   28.3700 C   0  0  0  0  0  0  0  0  0  0  0  0
    6.1490   -1.1020   28.9980 O   0  0  0  0  0  0  0  0  0  0  0  0
    5.6800   -0.1530   28.1750 C   0  0  0  0  0  0  0  0  0  0  0  0
    4.6560    0.7370   28.7330 C   0  0  0  0  0  0  0  0  0  0  0  0
    5.4850    1.3090   29.8620 C   0  0  0  0  0  0  0  0  0  0  0  0
    6.8230    1.3900   29.2460 C   0  0  0  0  0  0  0  0  0  0  0  0
    6.7960    0.6060   28.1270 C   0  0  0  0  0  0  0  0  0  0  0  0
    5.5240   -0.6670   26.8890 C   0  0  0  0  0  0  0  0  0  0  0  0
    6.8040   -2.7060   23.2730 C   0  0  0  0  0  0  0  0  0  0  0  0
    7.6910   -3.2920   22.1840 C   0  0  0  0  0  0  0  0  0  0  0  0
  1  2  1  0
  2  3  2  0
  2  4  1  0
  4  5  1  0
  5  6  1  0
  6  7  1  0
  7  8  1  0
  8  9  2  0
  8 10  1  0
 11 10  1  1
 11 12  1  0
 12 13  1  0
 14 13  1  0
 14 15  1  0
 15 16  1  0
 16 17  1  0
 14 18  1  0
 17 18  1  0
 11 19  1  0
 14 19  1  0
  7 20  1  0
  4 21  1  0
 20 21  1  0
M  END
