piperidine-amides-30666-covalent
     RDKit          3D

 27 29  0  0  0  0  0  0  0  0999 V2000
    7.1070   -3.3600   19.3400 C   0  0  0  0  0  0  0  0  0  0  0  0
    6.3770   -4.1690   20.3090 C   0  0  0  0  0  0  0  0  0  0  0  0
    5.3370   -4.7440   19.9560 O   0  0  0  0  0  0  0  0  0  0  0  0
    6.8710   -4.3470   21.6070 N   0  0  0  0  0  0  0  0  0  0  0  0
    7.7100   -3.3560   22.2470 C   0  0  0  0  0  0  0  0  0  0  0  0
    6.9000   -2.8100   23.3890 C   0  0  0  0  0  0  0  0  0  0  0  0
    6.3520   -3.9120   24.2490 C   0  0  0  0  0  0  0  0  0  0  0  0
    5.3240   -3.4210   25.2030 C   0  0  0  0  0  0  0  0  0  0  0  0
    4.3520   -2.7530   24.7680 O   0  0  0  0  0  0  0  0  0  0  0  0
    5.3490   -3.6370   26.6070 N   0  0  0  0  0  0  0  0  0  0  0  0
    6.4810   -3.1530   27.3170 C   0  0  0  0  0  0  0  0  0  0  0  0
    6.7710   -4.2310   28.2780 C   0  0  0  0  0  0  0  0  0  0  0  0
    5.8170   -4.2460   29.3360 C   0  0  0  0  0  0  0  0  0  0  0  0
    4.3910   -4.1250   28.8940 C   0  0  1  0  0  0  0  0  0  0  0  0
    4.2000   -3.6430   27.4660 C   0  0  2  0  0  0  0  0  0  0  0  0
    3.1260   -4.5660   26.9960 C   0  0  0  0  0  0  0  0  0  0  0  0
    2.8990   -5.5530   27.9400 C   0  0  0  0  0  0  0  0  0  0  0  0
    3.7150   -5.3320   29.1430 N   0  0  0  0  0  0  0  0  0  0  0  0
    2.9400   -5.3430   30.3650 C   0  0  0  0  0  0  0  0  0  0  0  0
    1.7160   -4.6700   30.3970 O   0  0  0  0  0  0  0  0  0  0  0  0
    3.4150   -6.0140   31.4910 O   0  0  0  0  0  0  0  0  0  0  0  0
    3.9290   -7.3190   31.3670 C   0  0  0  0  0  0  0  0  0  0  0  0
    3.3510   -8.3340   32.3630 C   0  0  0  0  0  0  0  0  0  0  0  0
    5.4420   -7.1880   31.5910 C   0  0  0  0  0  0  0  0  0  0  0  0
    3.7410   -7.9580   29.9860 C   0  0  0  0  0  0  0  0  0  0  0  0
    5.8160   -5.0980   23.5400 C   0  0  0  0  0  0  0  0  0  0  0  0
    6.4960   -5.4670   22.4030 C   0  0  0  0  0  0  0  0  0  0  0  0
  1  2  1  0
  2  3  2  0
  2  4  1  0
  4  5  1  0
  5  6  1  0
  6  7  1  0
  7  8  1  0
  8  9  2  0
  8 10  1  0
 10 11  1  0
 11 12  1  0
 12 13  1  0
 14 13  1  6
 10 15  1  0
 14 15  1  0
 15 16  1  6
 16 17  1  0
 14 18  1  0
 17 18  1  0
 18 19  1  0
 19 20  2  0
 19 21  1  0
 22 21  1  0
 22 23  1  0
 22 24  1  0
 22 25  1  0
  7 26  1  0
  4 27  1  0
 26 27  1  0
M  END
