piperidine-amides-8367-covalent
     RDKit          3D

 24 26  0  0  0  0  0  0  0  0999 V2000
    7.0050   -3.3420   19.3610 C   0  0  0  0  0  0  0  0  0  0  0  0
    6.3470   -4.1850   20.3670 C   0  0  0  0  0  0  0  0  0  0  0  0
    5.3980   -4.8960   19.9890 O   0  0  0  0  0  0  0  0  0  0  0  0
    6.8000   -4.2170   21.7160 N   0  0  0  0  0  0  0  0  0  0  0  0
    7.7130   -3.2020   22.1740 C   0  0  0  0  0  0  0  0  0  0  0  0
    7.5260   -3.0290   23.6420 C   0  0  0  0  0  0  0  0  0  0  0  0
    6.1300   -3.5280   23.9040 C   0  0  0  0  0  0  0  0  0  0  0  0
    5.6980   -3.2260   25.3100 C   0  0  0  0  0  0  0  0  0  0  0  0
    4.5130   -3.4200   25.5740 O   0  0  0  0  0  0  0  0  0  0  0  0
    6.6640   -2.7570   26.1960 N   0  0  0  0  0  0  0  0  0  0  0  0
    6.5120   -1.5690   26.9820 C   0  0  0  0  0  0  0  0  0  0  0  0
    6.9590   -1.4260   28.2960 C   0  0  0  0  0  0  0  0  0  0  0  0
    6.7820   -0.2460   29.0050 C   0  0  0  0  0  0  0  0  0  0  0  0
    6.1640    0.9240   28.5450 C   0  0  0  0  0  0  0  0  0  0  0  0
    5.6650    0.8140   27.1290 C   0  0  0  0  0  0  0  0  0  0  0  0
    5.8490   -0.4790   26.3280 C   0  0  0  0  0  0  0  0  0  0  0  0
    5.3660   -0.5020   25.0390 F   0  0  0  0  0  0  0  0  0  0  0  0
    6.0280    2.0720   29.3280 C   0  0  0  0  0  0  0  0  0  0  0  0
    5.7520    1.7820   30.7810 C   0  0  0  0  0  0  0  0  0  0  0  0
    6.4200    0.6850   31.1870 N   0  0  0  0  0  0  0  0  0  0  0  0
    7.2240   -0.0990   30.3010 C   0  0  0  0  0  0  0  0  0  0  0  0
    8.3020   -0.5950   30.6910 O   0  0  0  0  0  0  0  0  0  0  0  0
    6.0850   -5.0340   23.7200 C   0  0  0  0  0  0  0  0  0  0  0  0
    6.6630   -5.4150   22.5120 C   0  0  0  0  0  0  0  0  0  0  0  0
  1  2  1  0
  2  3  2  0
  2  4  1  0
  4  5  1  0
  5  6  1  0
  6  7  1  0
  7  8  1  0
  8  9  2  0
  8 10  1  0
 10 11  1  0
 11 12  2  0
 12 13  1  0
 13 14  2  0
 14 15  1  0
 11 16  1  0
 15 16  2  0
 16 17  1  0
 14 18  1  0
 18 19  1  0
 19 20  1  0
 13 21  1  0
 20 21  1  0
 21 22  2  0
  7 23  1  0
  4 24  1  0
 23 24  1  0
M  END
