piperidine-amides-32491-covalent
     RDKit          3D

 28 30  0  0  0  0  0  0  0  0999 V2000
    7.0170   -3.3590   19.4150 C   0  0  0  0  0  0  0  0  0  0  0  0
    6.3580   -4.2690   20.3950 C   0  0  0  0  0  0  0  0  0  0  0  0
    5.3860   -4.9350   20.0010 O   0  0  0  0  0  0  0  0  0  0  0  0
    6.8590   -4.3890   21.7180 N   0  0  0  0  0  0  0  0  0  0  0  0
    6.6990   -5.6150   22.4960 C   0  0  0  0  0  0  0  0  0  0  0  0
    6.1750   -5.2900   23.9160 C   0  0  0  0  0  0  0  0  0  0  0  0
    5.9890   -3.8190   23.9990 C   0  0  0  0  0  0  0  0  0  0  0  0
    5.2520   -3.2560   25.1760 C   0  0  0  0  0  0  0  0  0  0  0  0
    4.4810   -2.3480   24.8720 O   0  0  0  0  0  0  0  0  0  0  0  0
    5.3560   -3.6730   26.5160 N   0  0  0  0  0  0  0  0  0  0  0  0
    4.2020   -3.9280   27.3240 C   0  0  0  0  0  0  0  0  0  0  0  0
    4.1000   -3.6780   28.6820 C   0  0  0  0  0  0  0  0  0  0  0  0
    5.3830   -3.9840   29.1800 N   0  0  0  0  0  0  0  0  0  0  0  0
    6.2970   -4.2920   28.2430 C   0  0  0  0  0  0  0  0  0  0  0  0
    6.9240   -5.5150   28.2690 O   0  0  0  0  0  0  0  0  0  0  0  0
    6.3680   -3.2390   27.3240 C   0  0  2  0  0  0  0  0  0  0  0  0
    6.3450   -1.8600   27.8880 C   0  0  0  0  0  0  0  0  0  0  0  0
    6.4450   -1.6170   29.3990 C   0  0  0  0  0  0  0  0  0  0  0  0
    6.3940   -0.1280   29.7400 C   0  0  0  0  0  0  0  0  0  0  0  0
    6.2730    0.8960   28.8340 C   0  0  0  0  0  0  0  0  0  0  0  0
    6.2260    2.3320   29.2160 C   0  0  0  0  0  0  0  0  0  0  0  0
    7.0990    2.7500   30.1640 F   0  0  0  0  0  0  0  0  0  0  0  0
    6.3450    3.2110   28.1780 F   0  0  0  0  0  0  0  0  0  0  0  0
    4.9700    2.4950   29.7810 F   0  0  0  0  0  0  0  0  0  0  0  0
    6.1920    0.5440   27.4850 C   0  0  0  0  0  0  0  0  0  0  0  0
    6.2280   -0.7640   27.0610 C   0  0  0  0  0  0  0  0  0  0  0  0
    7.2370   -3.0490   23.7400 C   0  0  0  0  0  0  0  0  0  0  0  0
    7.6490   -3.3110   22.3150 C   0  0  0  0  0  0  0  0  0  0  0  0
  1  2  1  0
  2  3  2  0
  2  4  1  0
  4  5  1  0
  5  6  1  0
  6  7  1  0
  7  8  1  0
  8  9  2  0
  8 10  1  0
 10 11  1  0
 11 12  1  0
 12 13  1  0
 13 14  1  0
 14 15  2  0
 10 16  1  0
 14 16  1  0
 16 17  1  1
 17 18  2  0
 18 19  1  0
 19 20  2  0
 20 21  1  0
 21 22  1  0
 21 23  1  0
 21 24  1  0
 20 25  1  0
 17 26  1  0
 25 26  2  0
  7 27  1  0
  4 28  1  0
 27 28  1  0
M  END
