piperidine-amides-34111-covalent
     RDKit          3D

 26 28  0  0  0  0  0  0  0  0999 V2000
    7.0330   -3.3550   19.3380 C   0  0  0  0  0  0  0  0  0  0  0  0
    6.2980   -4.1800   20.3070 C   0  0  0  0  0  0  0  0  0  0  0  0
    5.2900   -4.8210   19.9560 O   0  0  0  0  0  0  0  0  0  0  0  0
    6.7410   -4.2940   21.6230 N   0  0  0  0  0  0  0  0  0  0  0  0
    6.6200   -5.5780   22.2930 C   0  0  0  0  0  0  0  0  0  0  0  0
    6.1550   -5.3390   23.7430 C   0  0  0  0  0  0  0  0  0  0  0  0
    5.9920   -3.8530   23.8990 C   0  0  0  0  0  0  0  0  0  0  0  0
    5.5280   -3.4160   25.2400 C   0  0  0  0  0  0  0  0  0  0  0  0
    4.5000   -2.7120   25.2610 O   0  0  0  0  0  0  0  0  0  0  0  0
    6.1630   -3.7680   26.4650 N   0  0  0  0  0  0  0  0  0  0  0  0
    6.9100   -5.0280   26.5180 C   0  0  0  0  0  0  0  0  0  0  0  0
    7.1360   -5.3730   27.9460 C   0  0  0  0  0  0  0  0  0  0  0  0
    6.4780   -4.4860   28.6570 C   0  0  0  0  0  0  0  0  0  0  0  0
    5.6180   -3.8090   27.8460 C   0  0  1  0  0  0  0  0  0  0  0  0
    5.2970   -2.4760   28.0980 C   0  0  0  0  0  0  0  0  0  0  0  0
    4.0820   -2.1170   28.5860 O   0  0  0  0  0  0  0  0  0  0  0  0
    6.3180   -1.6600   27.8060 N   0  0  0  0  0  0  0  0  0  0  0  0
    6.5490   -0.4740   28.5680 C   0  0  0  0  0  0  0  0  0  0  0  0
    7.1190   -0.6460   29.9560 C   0  0  0  0  0  0  0  0  0  0  0  0
    7.2310    0.7910   30.4840 C   0  0  0  0  0  0  0  0  0  0  0  0
    6.9560    2.2150   30.0410 C   0  0  0  0  0  0  0  0  0  0  0  0
    7.2080    3.8850   30.9450 Br  0  0  0  0  0  0  0  0  0  0  0  0
    6.4380    1.9570   28.7050 C   0  0  0  0  0  0  0  0  0  0  0  0
    6.2440    0.7710   28.0200 C   0  0  0  0  0  0  0  0  0  0  0  0
    7.3390   -3.2520   23.6450 C   0  0  0  0  0  0  0  0  0  0  0  0
    7.6030   -3.2760   22.1770 C   0  0  0  0  0  0  0  0  0  0  0  0
  1  2  1  0
  2  3  2  0
  2  4  1  0
  4  5  1  0
  5  6  1  0
  6  7  1  0
  7  8  1  0
  8  9  2  0
  8 10  1  0
 10 11  1  0
 11 12  1  0
 12 13  1  0
 10 14  1  0
 13 14  1  0
 14 15  1  1
 15 16  2  0
 15 17  1  0
 17 18  1  0
 18 19  2  0
 19 20  1  0
 20 21  2  0
 21 22  1  0
 21 23  1  0
 18 24  1  0
 23 24  2  0
  7 25  1  0
  4 26  1  0
 25 26  1  0
M  END
