piperidine-amides-31045-covalent
     RDKit          3D

 28 31  0  0  0  0  0  0  0  0999 V2000
    7.0090   -3.3380   19.3290 C   0  0  0  0  0  0  0  0  0  0  0  0
    6.3010   -4.1820   20.3000 C   0  0  0  0  0  0  0  0  0  0  0  0
    5.2880   -4.7930   19.9440 O   0  0  0  0  0  0  0  0  0  0  0  0
    6.7520   -4.3620   21.6110 N   0  0  0  0  0  0  0  0  0  0  0  0
    6.5680   -5.5990   22.3290 C   0  0  0  0  0  0  0  0  0  0  0  0
    6.0160   -5.2270   23.6860 C   0  0  0  0  0  0  0  0  0  0  0  0
    5.5080   -3.8020   23.7620 C   0  0  0  0  0  0  0  0  0  0  0  0
    4.7410   -3.5220   25.0270 C   0  0  0  0  0  0  0  0  0  0  0  0
    3.6220   -4.0710   25.1800 O   0  0  0  0  0  0  0  0  0  0  0  0
    5.1170   -2.6910   26.1090 N   0  0  0  0  0  0  0  0  0  0  0  0
    4.1240   -2.2110   27.0920 C   0  0  0  0  0  0  0  0  0  0  0  0
    4.0100   -3.1070   28.2780 C   0  0  0  0  0  0  0  0  0  0  0  0
    2.7500   -3.0980   29.0390 C   0  0  0  0  0  0  0  0  0  0  0  0
    2.6110   -4.0000   30.2380 C   0  0  0  0  0  0  0  0  0  0  0  0
    3.7600   -4.8990   30.6400 C   0  0  0  0  0  0  0  0  0  0  0  0
    4.9390   -4.7540   29.7400 C   0  0  0  0  0  0  0  0  0  0  0  0
    5.0080   -3.9130   28.6640 C   0  0  0  0  0  0  0  0  0  0  0  0
    6.0800   -3.7870   27.8460 C   0  0  0  0  0  0  0  0  0  0  0  0
    6.3070   -2.7720   26.7050 C   0  0  1  0  0  0  0  0  0  0  0  0
    7.4230   -2.9200   25.6420 C   0  0  0  0  0  0  0  0  0  0  0  0
    7.6410   -4.1070   24.9080 N   0  0  0  0  0  0  0  0  0  0  0  0
    8.6950   -3.7800   24.1840 N   0  0  0  0  0  0  0  0  0  0  0  0
    9.0220   -2.4860   24.5020 C   0  0  0  0  0  0  0  0  0  0  0  0
    9.9850   -2.1080   23.8860 C   0  0  0  0  0  0  0  0  0  0  0  0
   11.2750   -2.6310   24.4080 C   0  0  0  0  0  0  0  0  0  0  0  0
    8.1740   -1.9380   25.4490 O   0  0  0  0  0  0  0  0  0  0  0  0
    6.5070   -2.7300   23.3240 C   0  0  0  0  0  0  0  0  0  0  0  0
    7.4500   -3.2990   22.2570 C   0  0  0  0  0  0  0  0  0  0  0  0
  1  2  1  0
  2  3  2  0
  2  4  1  0
  4  5  1  0
  5  6  1  0
  6  7  1  0
  7  8  1  0
  8  9  2  0
  8 10  1  0
 10 11  1  0
 11 12  1  0
 12 13  2  0
 13 14  1  0
 14 15  2  0
 15 16  1  0
 12 17  1  0
 16 17  2  0
 17 18  1  0
 10 19  1  0
 18 19  1  0
 19 20  1  6
 20 21  2  0
 21 22  1  0
 22 23  2  0
 23 24  1  0
 24 25  1  0
 20 26  1  0
 23 26  1  0
  7 27  1  0
  4 28  1  0
 27 28  1  0
M  END
