piperidine-amides-3370-covalent
     RDKit          3D

 21 22  0  0  0  0  0  0  0  0999 V2000
    7.0860   -3.3280   19.2380 C   0  0  0  0  0  0  0  0  0  0  0  0
    6.3650   -4.1080   20.2360 C   0  0  0  0  0  0  0  0  0  0  0  0
    5.3200   -4.6790   19.9340 O   0  0  0  0  0  0  0  0  0  0  0  0
    6.9110   -4.2670   21.5520 N   0  0  0  0  0  0  0  0  0  0  0  0
    6.4960   -5.3860   22.3530 C   0  0  0  0  0  0  0  0  0  0  0  0
    5.7020   -4.8920   23.5300 C   0  0  0  0  0  0  0  0  0  0  0  0
    6.5370   -3.8500   24.2580 C   0  0  0  0  0  0  0  0  0  0  0  0
    5.7720   -3.3060   25.4050 C   0  0  0  0  0  0  0  0  0  0  0  0
    4.5380   -3.1290   25.3660 O   0  0  0  0  0  0  0  0  0  0  0  0
    6.4790   -2.9820   26.5830 N   0  0  0  0  0  0  0  0  0  0  0  0
    6.3850   -1.6500   27.1290 C   0  0  0  0  0  0  0  0  0  0  0  0
    6.9870   -1.5990   28.4970 C   0  0  0  0  0  0  0  0  0  0  0  0
    6.9980   -0.4220   29.2040 C   0  0  0  0  0  0  0  0  0  0  0  0
    6.4360    0.7310   28.6300 C   0  0  0  0  0  0  0  0  0  0  0  0
    6.4440    1.9180   29.3420 C   0  0  2  0  0  0  0  0  0  0  0  0
    6.8700    1.6680   30.7110 C   0  0  0  0  0  0  0  0  0  0  0  0
    5.3820    2.5320   29.1440 O   0  0  0  0  0  0  0  0  0  0  0  0
    5.8820    0.7000   27.3730 C   0  0  0  0  0  0  0  0  0  0  0  0
    5.8680   -0.4820   26.6520 C   0  0  0  0  0  0  0  0  0  0  0  0
    7.1390   -2.7770   23.4370 C   0  0  0  0  0  0  0  0  0  0  0  0
    7.6240   -3.1760   22.1250 C   0  0  0  0  0  0  0  0  0  0  0  0
  1  2  1  0
  2  3  2  0
  2  4  1  0
  4  5  1  0
  5  6  1  0
  6  7  1  0
  7  8  1  0
  8  9  2  0
  8 10  1  0
 10 11  1  0
 11 12  2  0
 12 13  1  0
 13 14  2  0
 14 15  1  0
 15 16  1  1
 15 17  1  0
 14 18  1  0
 11 19  1  0
 18 19  2  0
  7 20  1  0
  4 21  1  0
 20 21  1  0
M  END
