piperidine-amides-31162-covalent
     RDKit          3D

 28 31  0  0  0  0  0  0  0  0999 V2000
    7.2520   -4.1020   19.7410 C   0  0  0  0  0  0  0  0  0  0  0  0
    6.1070   -4.1170   20.5040 C   0  0  0  0  0  0  0  0  0  0  0  0
    5.0710   -4.2540   19.8210 O   0  0  0  0  0  0  0  0  0  0  0  0
    6.2620   -4.1210   21.9010 N   0  0  0  0  0  0  0  0  0  0  0  0
    6.1960   -5.4320   22.5470 C   0  0  0  0  0  0  0  0  0  0  0  0
    5.9990   -5.2020   24.0250 C   0  0  0  0  0  0  0  0  0  0  0  0
    5.9550   -3.7400   24.2770 C   0  0  0  0  0  0  0  0  0  0  0  0
    5.5580   -3.2920   25.6540 C   0  0  0  0  0  0  0  0  0  0  0  0
    4.6500   -2.4170   25.7260 O   0  0  0  0  0  0  0  0  0  0  0  0
    6.0460   -3.7300   26.9240 N   0  0  0  0  0  0  0  0  0  0  0  0
    5.8380   -2.8220   28.0750 C   0  0  0  0  0  0  0  0  0  0  0  0
    4.8530   -3.4450   29.0000 C   0  0  0  0  0  0  0  0  0  0  0  0
    5.1400   -4.7420   29.0640 N   0  0  0  0  0  0  0  0  0  0  0  0
    4.2560   -5.8300   29.2730 C   0  0  0  0  0  0  0  0  0  0  0  0
    3.1300   -6.0060   28.7710 O   0  0  0  0  0  0  0  0  0  0  0  0
    4.9620   -6.7370   30.2380 C   0  0  0  0  0  0  0  0  0  0  0  0
    5.9460   -7.7910   30.1220 N   0  0  0  0  0  0  0  0  0  0  0  0
    6.2200   -8.2490   31.3530 N   0  0  0  0  0  0  0  0  0  0  0  0
    5.4960   -7.6110   32.4080 C   0  0  0  0  0  0  0  0  0  0  0  0
    5.4460   -7.7580   33.8860 C   0  0  0  0  0  0  0  0  0  0  0  0
    4.6110   -6.9590   34.6320 C   0  0  0  0  0  0  0  0  0  0  0  0
    3.7780   -5.9850   34.0690 C   0  0  0  0  0  0  0  0  0  0  0  0
    3.7550   -5.7590   32.5810 C   0  0  0  0  0  0  0  0  0  0  0  0
    4.6640   -6.6180   31.7040 C   0  0  0  0  0  0  0  0  0  0  0  0
    6.2780   -5.1120   28.3480 C   0  0  0  0  0  0  0  0  0  0  0  0
    5.9730   -5.1530   27.1690 C   0  0  0  0  0  0  0  0  0  0  0  0
    7.1260   -3.0190   23.7710 C   0  0  0  0  0  0  0  0  0  0  0  0
    7.3190   -3.2710   22.4220 C   0  0  0  0  0  0  0  0  0  0  0  0
  1  2  1  0
  2  3  2  0
  2  4  1  0
  4  5  1  0
  5  6  1  0
  6  7  1  0
  7  8  1  0
  8  9  2  0
  8 10  1  0
 10 11  1  0
 11 12  1  0
 12 13  1  0
 13 14  1  0
 14 15  2  0
 14 16  1  0
 16 17  1  0
 17 18  1  0
 18 19  2  0
 19 20  1  0
 20 21  2  0
 21 22  1  0
 22 23  2  0
 16 24  2  0
 19 24  1  0
 23 24  1  0
 13 25  1  0
 10 26  1  0
 25 26  1  0
  7 27  1  0
  4 28  1  0
 27 28  1  0
M  END
