piperidine-amides-14780-covalent
     RDKit          3D

 22 23  0  0  0  0  0  0  0  0999 V2000
    7.0750   -3.2770   19.2410 C   0  0  0  0  0  0  0  0  0  0  0  0
    6.3630   -4.0600   20.2550 C   0  0  0  0  0  0  0  0  0  0  0  0
    5.3120   -4.6290   19.9150 O   0  0  0  0  0  0  0  0  0  0  0  0
    6.8800   -4.2100   21.5690 N   0  0  0  0  0  0  0  0  0  0  0  0
    6.4820   -5.3790   22.3110 C   0  0  0  0  0  0  0  0  0  0  0  0
    6.3340   -5.1020   23.7940 C   0  0  0  0  0  0  0  0  0  0  0  0
    6.0930   -3.6180   23.9970 C   0  0  0  0  0  0  0  0  0  0  0  0
    5.6020   -3.3080   25.3810 C   0  0  0  0  0  0  0  0  0  0  0  0
    4.3840   -3.2820   25.5190 O   0  0  0  0  0  0  0  0  0  0  0  0
    6.5290   -3.0620   26.3880 N   0  0  0  0  0  0  0  0  0  0  0  0
    6.2180   -3.1770   27.7810 C   0  0  0  0  0  0  0  0  0  0  0  0
    5.4170   -4.2570   28.1680 C   0  0  0  0  0  0  0  0  0  0  0  0
    5.9500   -5.4570   28.5950 C   0  0  0  0  0  0  0  0  0  0  0  0
    5.1710   -6.5330   28.9900 C   0  0  0  0  0  0  0  0  0  0  0  0
    3.6850   -6.3250   28.9300 C   0  0  0  0  0  0  0  0  0  0  0  0
    2.8580   -7.5460   29.3830 C   0  0  0  0  0  0  0  0  0  0  0  0
    2.4060   -7.4130   30.6780 F   0  0  0  0  0  0  0  0  0  0  0  0
    1.7710   -7.6930   28.5040 F   0  0  0  0  0  0  0  0  0  0  0  0
    3.1910   -5.1410   28.5050 N   0  0  0  0  0  0  0  0  0  0  0  0
    4.0590   -4.0790   28.1140 C   0  0  0  0  0  0  0  0  0  0  0  0
    7.2900   -2.8590   23.5860 C   0  0  0  0  0  0  0  0  0  0  0  0
    7.6660   -3.1320   22.1280 C   0  0  0  0  0  0  0  0  0  0  0  0
  1  2  1  0
  2  3  2  0
  2  4  1  0
  4  5  1  0
  5  6  1  0
  6  7  1  0
  7  8  1  0
  8  9  2  0
  8 10  1  0
 10 11  1  0
 11 12  1  0
 12 13  2  0
 13 14  1  0
 14 15  2  0
 15 16  1  0
 16 17  1  0
 16 18  1  0
 15 19  1  0
 12 20  1  0
 19 20  2  0
  7 21  1  0
  4 22  1  0
 21 22  1  0
M  END
