piperidine-amides-34924-covalent
     RDKit          3D

 32 34  0  0  0  0  0  0  0  0999 V2000
    7.0730   -3.2870   19.2580 C   0  0  0  0  0  0  0  0  0  0  0  0
    6.3420   -4.0920   20.2710 C   0  0  0  0  0  0  0  0  0  0  0  0
    5.2890   -4.6040   19.9060 O   0  0  0  0  0  0  0  0  0  0  0  0
    6.8670   -4.2900   21.5540 N   0  0  0  0  0  0  0  0  0  0  0  0
    6.4320   -5.3860   22.3610 C   0  0  0  0  0  0  0  0  0  0  0  0
    5.6710   -4.8270   23.5330 C   0  0  0  0  0  0  0  0  0  0  0  0
    6.4730   -3.7100   24.2330 C   0  0  0  0  0  0  0  0  0  0  0  0
    5.5950   -3.1520   25.3010 C   0  0  0  0  0  0  0  0  0  0  0  0
    4.3670   -3.2910   25.1900 O   0  0  0  0  0  0  0  0  0  0  0  0
    6.1020   -2.4630   26.4360 N   0  0  0  0  0  0  0  0  0  0  0  0
    6.3810   -3.2110   27.6270 C   0  0  0  0  0  0  0  0  0  0  0  0
    7.4200   -4.1780   27.2060 C   0  0  0  0  0  0  0  0  0  0  0  0
    8.2480   -4.0570   26.1400 C   0  0  0  0  0  0  0  0  0  0  0  0
    9.1640   -4.9840   25.8210 C   0  0  0  0  0  0  0  0  0  0  0  0
    9.3340   -6.1170   26.5430 C   0  0  0  0  0  0  0  0  0  0  0  0
    8.5860   -6.3240   27.5910 N   0  0  0  0  0  0  0  0  0  0  0  0
    7.5640   -5.3920   28.0280 C   0  0  0  0  0  0  0  0  0  0  0  0
    6.6800   -1.1850   26.3240 C   0  0  0  0  0  0  0  0  0  0  0  0
    5.9950    0.1650   26.3770 C   0  0  1  0  0  0  0  0  0  0  0  0
    5.8740    0.4530   24.9180 C   0  0  0  0  0  0  0  0  0  0  0  0
    4.4840    0.9120   24.6000 C   0  0  0  0  0  0  0  0  0  0  0  0
    3.7970    0.8570   25.9110 N   0  0  0  0  0  0  0  0  0  0  0  0
    3.0020    1.9590   26.2970 C   0  0  0  0  0  0  0  0  0  0  0  0
    2.0830    1.8510   27.3350 O   0  0  0  0  0  0  0  0  0  0  0  0
    3.1400    3.1160   25.6580 O   0  0  0  0  0  0  0  0  0  0  0  0
    2.3810    3.4650   24.5080 C   0  0  0  0  0  0  0  0  0  0  0  0
    3.0300    3.1630   23.1780 C   0  0  0  0  0  0  0  0  0  0  0  0
    1.9890    4.8970   24.5950 C   0  0  0  0  0  0  0  0  0  0  0  0
    1.0620    2.7240   24.5280 C   0  0  0  0  0  0  0  0  0  0  0  0
    4.5600    0.0640   26.8840 C   0  0  0  0  0  0  0  0  0  0  0  0
    6.8790   -2.6720   23.1930 C   0  0  0  0  0  0  0  0  0  0  0  0
    7.6390   -3.2850   22.2460 C   0  0  0  0  0  0  0  0  0  0  0  0
  1  2  1  0
  2  3  2  0
  2  4  1  0
  4  5  1  0
  5  6  1  0
  6  7  1  0
  7  8  1  0
  8  9  2  0
  8 10  1  0
 10 11  1  0
 11 12  1  0
 12 13  2  0
 13 14  1  0
 14 15  2  0
 15 16  1  0
 12 17  1  0
 16 17  2  0
 10 18  1  0
 19 18  1  6
 19 20  1  0
 20 21  1  0
 21 22  1  0
 22 23  1  0
 23 24  2  0
 23 25  1  0
 26 25  1  0
 26 27  1  0
 26 28  1  0
 26 29  1  0
 19 30  1  0
 22 30  1  0
  7 31  1  0
  4 32  1  0
 31 32  1  0
M  END
