piperidine-amides-13245-covalent
     RDKit          3D

 18 18  0  0  0  0  0  0  0  0999 V2000
    7.0820   -3.3040   19.3030 C   0  0  0  0  0  0  0  0  0  0  0  0
    6.4000   -4.1340   20.3220 C   0  0  0  0  0  0  0  0  0  0  0  0
    5.3490   -4.6970   19.9440 O   0  0  0  0  0  0  0  0  0  0  0  0
    6.9350   -4.3160   21.6170 N   0  0  0  0  0  0  0  0  0  0  0  0
    6.5530   -5.4690   22.3650 C   0  0  0  0  0  0  0  0  0  0  0  0
    6.0320   -5.1250   23.6920 C   0  0  0  0  0  0  0  0  0  0  0  0
    5.9980   -3.6700   23.9470 C   0  0  0  0  0  0  0  0  0  0  0  0
    5.5160   -3.3710   25.3280 C   0  0  0  0  0  0  0  0  0  0  0  0
    4.2840   -3.3160   25.4840 O   0  0  0  0  0  0  0  0  0  0  0  0
    6.3480   -3.1430   26.4430 N   0  0  0  0  0  0  0  0  0  0  0  0
    6.1670   -3.9290   27.6960 C   0  0  0  0  0  0  0  0  0  0  0  0
    5.7740   -5.3600   27.4840 C   0  0  0  0  0  0  0  0  0  0  0  0
    6.1110   -6.3450   28.5020 C   0  0  0  0  0  0  0  0  0  0  0  0
    5.3640   -6.0180   29.6920 N   0  0  0  0  0  0  0  0  0  0  0  0
    6.8310   -1.9100   26.5200 O   0  0  0  0  0  0  0  0  0  0  0  0
    6.8360   -1.2490   27.7530 C   0  0  0  0  0  0  0  0  0  0  0  0
    7.2690   -2.9870   23.5490 C   0  0  0  0  0  0  0  0  0  0  0  0
    7.6160   -3.2110   22.2430 C   0  0  0  0  0  0  0  0  0  0  0  0
  1  2  1  0
  2  3  2  0
  2  4  1  0
  4  5  1  0
  5  6  1  0
  6  7  1  0
  7  8  1  0
  8  9  2  0
  8 10  1  0
 10 11  1  0
 11 12  1  0
 12 13  1  0
 13 14  1  0
 10 15  1  0
 15 16  1  0
  7 17  1  0
  4 18  1  0
 17 18  1  0
M  END
