piperidine-amides-14925-covalent
     RDKit          3D

 21 22  0  0  0  0  0  0  0  0999 V2000
    7.1060   -3.2990   19.2630 C   0  0  0  0  0  0  0  0  0  0  0  0
    6.3300   -4.0450   20.2480 C   0  0  0  0  0  0  0  0  0  0  0  0
    5.2600   -4.5650   19.8840 O   0  0  0  0  0  0  0  0  0  0  0  0
    6.8260   -4.2140   21.5630 N   0  0  0  0  0  0  0  0  0  0  0  0
    7.6350   -3.1830   22.1520 C   0  0  0  0  0  0  0  0  0  0  0  0
    6.9310   -2.6700   23.3600 C   0  0  0  0  0  0  0  0  0  0  0  0
    6.6920   -3.8880   24.2150 C   0  0  0  0  0  0  0  0  0  0  0  0
    5.8570   -3.5120   25.3920 C   0  0  0  0  0  0  0  0  0  0  0  0
    4.6940   -3.1840   25.1580 O   0  0  0  0  0  0  0  0  0  0  0  0
    6.4440   -3.5670   26.6510 N   0  0  0  0  0  0  0  0  0  0  0  0
    6.8720   -4.8370   27.1560 C   0  0  0  0  0  0  0  0  0  0  0  0
    6.1420   -2.5560   27.6170 C   0  0  0  0  0  0  0  0  0  0  0  0
    6.3850   -1.2360   27.3110 C   0  0  1  0  0  0  0  0  0  0  0  0
    5.8760   -0.7160   26.1290 C   0  0  0  0  0  0  0  0  0  0  0  0
    4.4910   -0.2920   26.5120 C   0  0  0  0  0  0  0  0  0  0  0  0
    4.4400    0.9460   27.4370 C   0  0  2  0  0  0  0  0  0  0  0  0
    3.8750    2.1050   26.8760 N   0  0  0  0  0  0  0  0  0  0  0  0
    5.7610    1.0600   28.1030 C   0  0  0  0  0  0  0  0  0  0  0  0
    6.2850   -0.3250   28.3450 C   0  0  0  0  0  0  0  0  0  0  0  0
    6.0110   -5.0080   23.5440 C   0  0  0  0  0  0  0  0  0  0  0  0
    6.5680   -5.4020   22.3470 C   0  0  0  0  0  0  0  0  0  0  0  0
  1  2  1  0
  2  3  2  0
  2  4  1  0
  4  5  1  0
  5  6  1  0
  6  7  1  0
  7  8  1  0
  8  9  2  0
  8 10  1  0
 10 11  1  0
 10 12  1  0
 13 12  1  1
 13 14  1  0
 14 15  1  0
 15 16  1  0
 16 17  1  6
 16 18  1  0
 13 19  1  0
 18 19  1  0
  7 20  1  0
  4 21  1  0
 20 21  1  0
M  END
