piperidine-amides-27748-covalent
     RDKit          3D

 25 25  0  0  0  0  0  0  0  0999 V2000
    7.0750   -3.2380   19.1760 C   0  0  0  0  0  0  0  0  0  0  0  0
    6.3490   -4.0130   20.2080 C   0  0  0  0  0  0  0  0  0  0  0  0
    5.2740   -4.5390   19.8690 O   0  0  0  0  0  0  0  0  0  0  0  0
    6.8780   -4.1830   21.4890 N   0  0  0  0  0  0  0  0  0  0  0  0
    7.6310   -3.1480   22.1060 C   0  0  0  0  0  0  0  0  0  0  0  0
    7.0610   -2.6700   23.3650 C   0  0  0  0  0  0  0  0  0  0  0  0
    6.0790   -3.5720   24.0170 C   0  0  0  0  0  0  0  0  0  0  0  0
    6.1350   -3.3740   25.4850 C   0  0  0  0  0  0  0  0  0  0  0  0
    5.0420   -3.2730   26.0850 O   0  0  0  0  0  0  0  0  0  0  0  0
    7.3690   -3.2890   26.1870 N   0  0  0  0  0  0  0  0  0  0  0  0
    7.7040   -2.1130   27.0250 C   0  0  0  0  0  0  0  0  0  0  0  0
    8.2820   -4.3920   26.1470 C   0  0  0  0  0  0  0  0  0  0  0  0
    9.4410   -4.3620   25.2290 C   0  0  1  0  0  0  0  0  0  0  0  0
    8.9680   -4.1040   24.0780 O   0  0  0  0  0  0  0  0  0  0  0  0
   10.5120   -3.6650   25.7640 C   0  0  0  0  0  0  0  0  0  0  0  0
   11.8920   -3.8290   25.1950 N   0  0  0  0  0  0  0  0  0  0  0  0
   13.2730   -4.2070   25.9620 C   0  0  0  0  0  0  0  0  0  0  0  0
   13.2620   -4.1790   27.2560 O   0  0  0  0  0  0  0  0  0  0  0  0
   14.4270   -5.0190   25.7220 O   0  0  0  0  0  0  0  0  0  0  0  0
   14.9400   -5.3840   26.9880 C   0  0  0  0  0  0  0  0  0  0  0  0
   15.7630   -6.3840   27.6330 C   0  0  0  0  0  0  0  0  0  0  0  0
   14.5350   -4.9690   28.4060 C   0  0  0  0  0  0  0  0  0  0  0  0
   14.0430   -4.4600   26.9910 C   0  0  0  0  0  0  0  0  0  0  0  0
    6.1170   -5.0260   23.6720 C   0  0  0  0  0  0  0  0  0  0  0  0
    6.6250   -5.3660   22.2920 C   0  0  0  0  0  0  0  0  0  0  0  0
  1  2  1  0
  2  3  2  0
  2  4  1  0
  4  5  1  0
  5  6  1  0
  6  7  1  0
  7  8  1  0
  8  9  2  0
  8 10  1  0
 10 11  1  0
 10 12  1  0
 12 13  1  0
 13 14  1  6
 13 15  1  0
 15 16  1  0
 16 17  1  0
 17 18  2  0
 17 19  1  0
 20 19  1  0
 20 21  1  0
 20 22  1  0
 20 23  1  0
  7 24  1  0
  4 25  1  0
 24 25  1  0
M  END
