piperidine-amides-7041-covalent
     RDKit          3D

 22 22  0  0  0  0  0  0  0  0999 V2000
    7.1260   -3.2450   19.1280 C   0  0  0  0  0  0  0  0  0  0  0  0
    6.3410   -3.9660   20.1450 C   0  0  0  0  0  0  0  0  0  0  0  0
    5.2550   -4.5040   19.8570 O   0  0  0  0  0  0  0  0  0  0  0  0
    6.8340   -4.0990   21.4370 N   0  0  0  0  0  0  0  0  0  0  0  0
    6.5050   -5.2810   22.2020 C   0  0  0  0  0  0  0  0  0  0  0  0
    5.8050   -4.7760   23.4640 C   0  0  0  0  0  0  0  0  0  0  0  0
    6.8250   -3.8860   24.1400 C   0  0  0  0  0  0  0  0  0  0  0  0
    6.2870   -3.3530   25.3890 C   0  0  0  0  0  0  0  0  0  0  0  0
    5.0890   -2.9770   25.4430 O   0  0  0  0  0  0  0  0  0  0  0  0
    7.1820   -3.2930   26.4760 N   0  0  0  0  0  0  0  0  0  0  0  0
    7.4350   -4.5040   27.1960 C   0  0  0  0  0  0  0  0  0  0  0  0
    8.5460   -5.2580   26.4960 C   0  0  0  0  0  0  0  0  0  0  0  0
    7.9100   -4.1110   28.5090 C   0  0  0  0  0  0  0  0  0  0  0  0
    6.2060   -5.2640   27.3710 C   0  0  0  0  0  0  0  0  0  0  0  0
    5.8030   -6.0660   26.3200 O   0  0  0  0  0  0  0  0  0  0  0  0
    5.4210   -5.2200   28.4840 O   0  0  0  0  0  0  0  0  0  0  0  0
    5.0860   -6.4160   29.0550 C   0  0  0  0  0  0  0  0  0  0  0  0
    4.2260   -6.0960   30.0730 C   0  0  0  0  0  0  0  0  0  0  0  0
    6.1440   -7.3270   29.6640 C   0  0  0  0  0  0  0  0  0  0  0  0
    4.3890   -7.1700   27.9750 C   0  0  0  0  0  0  0  0  0  0  0  0
    7.2520   -2.7260   23.3490 C   0  0  0  0  0  0  0  0  0  0  0  0
    7.6460   -3.0760   22.0010 C   0  0  0  0  0  0  0  0  0  0  0  0
  1  2  1  0
  2  3  2  0
  2  4  1  0
  4  5  1  0
  5  6  1  0
  6  7  1  0
  7  8  1  0
  8  9  2  0
  8 10  1  0
 10 11  1  0
 11 12  1  0
 11 13  1  0
 11 14  1  0
 14 15  2  0
 14 16  1  0
 17 16  1  0
 17 18  1  0
 17 19  1  0
 17 20  1  0
  7 21  1  0
  4 22  1  0
 21 22  1  0
M  END
