piperidine-amides-25165-covalent
     RDKit          3D

 24 24  0  0  0  0  0  0  0  0999 V2000
    7.0830   -3.2960   19.3060 C   0  0  0  0  0  0  0  0  0  0  0  0
    6.3910   -4.1300   20.3220 C   0  0  0  0  0  0  0  0  0  0  0  0
    5.3720   -4.7200   19.9530 O   0  0  0  0  0  0  0  0  0  0  0  0
    6.9200   -4.2610   21.6160 N   0  0  0  0  0  0  0  0  0  0  0  0
    6.7150   -5.4510   22.4130 C   0  0  0  0  0  0  0  0  0  0  0  0
    6.4540   -5.0960   23.8610 C   0  0  0  0  0  0  0  0  0  0  0  0
    6.0080   -3.6400   23.9750 C   0  0  0  0  0  0  0  0  0  0  0  0
    5.5790   -3.3400   25.3630 C   0  0  0  0  0  0  0  0  0  0  0  0
    4.3840   -3.0650   25.5240 O   0  0  0  0  0  0  0  0  0  0  0  0
    6.4100   -3.3440   26.5120 N   0  0  0  0  0  0  0  0  0  0  0  0
    5.9070   -2.3940   27.5020 C   0  0  0  0  0  0  0  0  0  0  0  0
    6.9930   -1.8100   28.3840 C   0  0  0  0  0  0  0  0  0  0  0  0
    6.7280   -1.0230   29.4690 C   0  0  0  0  0  0  0  0  0  0  0  0
    7.2840    0.1120   29.6180 O   0  0  0  0  0  0  0  0  0  0  0  0
    5.8610   -1.4970   30.4310 O   0  0  0  0  0  0  0  0  0  0  0  0
    4.4640   -1.2150   30.5050 C   0  0  0  0  0  0  0  0  0  0  0  0
    4.1860   -0.5820   29.3240 C   0  0  0  0  0  0  0  0  0  0  0  0
    3.6020   -1.8190   29.5200 C   0  0  0  0  0  0  0  0  0  0  0  0
    3.9410   -0.0020   31.1590 C   0  0  0  0  0  0  0  0  0  0  0  0
    6.7720   -4.6640   27.0340 C   0  0  0  0  0  0  0  0  0  0  0  0
    7.2020   -4.7590   28.4570 C   0  0  0  0  0  0  0  0  0  0  0  0
    5.7970   -5.8090   26.9880 C   0  0  0  0  0  0  0  0  0  0  0  0
    6.9090   -2.6440   23.3650 C   0  0  0  0  0  0  0  0  0  0  0  0
    7.6820   -3.1850   22.2270 C   0  0  0  0  0  0  0  0  0  0  0  0
  1  2  1  0
  2  3  2  0
  2  4  1  0
  4  5  1  0
  5  6  1  0
  6  7  1  0
  7  8  1  0
  8  9  2  0
  8 10  1  0
 10 11  1  0
 11 12  1  0
 12 13  1  0
 13 14  2  0
 13 15  1  0
 16 15  1  0
 16 17  1  0
 16 18  1  0
 16 19  1  0
 10 20  1  0
 20 21  1  0
 20 22  1  0
  7 23  1  0
  4 24  1  0
 23 24  1  0
M  END
