piperidine-amides-30312-covalent
     RDKit          3D

 27 29  0  0  0  0  0  0  0  0999 V2000
    7.0740   -3.3360   19.3690 C   0  0  0  0  0  0  0  0  0  0  0  0
    6.4000   -4.2090   20.3210 C   0  0  0  0  0  0  0  0  0  0  0  0
    5.3860   -4.8180   19.9810 O   0  0  0  0  0  0  0  0  0  0  0  0
    6.9550   -4.4020   21.6330 N   0  0  0  0  0  0  0  0  0  0  0  0
    7.6680   -3.3390   22.2840 C   0  0  0  0  0  0  0  0  0  0  0  0
    6.8700   -2.8090   23.4430 C   0  0  0  0  0  0  0  0  0  0  0  0
    6.4180   -3.9550   24.3550 C   0  0  0  0  0  0  0  0  0  0  0  0
    5.4390   -3.4330   25.3700 C   0  0  0  0  0  0  0  0  0  0  0  0
    4.2490   -3.2220   25.0870 O   0  0  0  0  0  0  0  0  0  0  0  0
    5.8600   -3.1640   26.7000 N   0  0  0  0  0  0  0  0  0  0  0  0
    4.9880   -3.5380   27.7940 C   0  0  0  0  0  0  0  0  0  0  0  0
    5.8190   -4.3370   28.7820 C   0  0  0  0  0  0  0  0  0  0  0  0
    7.0290   -4.8340   28.3410 C   0  0  0  0  0  0  0  0  0  0  0  0
    7.4650   -4.4060   27.0870 C   0  0  2  0  0  0  0  0  0  0  0  0
    8.7470   -4.6310   26.7170 N   0  0  0  0  0  0  0  0  0  0  0  0
    9.8500   -3.9870   27.1410 C   0  0  0  0  0  0  0  0  0  0  0  0
   11.0810   -4.4930   26.5480 C   0  0  0  0  0  0  0  0  0  0  0  0
   12.5110   -4.2840   26.6140 C   0  0  0  0  0  0  0  0  0  0  0  0
   13.3190   -3.8390   25.6860 O   0  0  0  0  0  0  0  0  0  0  0  0
   13.0780   -4.4840   27.9670 O   0  0  0  0  0  0  0  0  0  0  0  0
   14.5030   -4.8550   28.5630 C   0  0  0  0  0  0  0  0  0  0  0  0
   15.1340   -6.1270   29.0590 C   0  0  0  0  0  0  0  0  0  0  0  0
   10.4730   -5.4360   25.7730 C   0  0  0  0  0  0  0  0  0  0  0  0
    9.1240   -5.5240   25.8660 N   0  0  0  0  0  0  0  0  0  0  0  0
    7.2140   -3.0740   26.9240 C   0  0  0  0  0  0  0  0  0  0  0  0
    5.7310   -5.0650   23.5820 C   0  0  0  0  0  0  0  0  0  0  0  0
    6.5110   -5.5110   22.3860 C   0  0  0  0  0  0  0  0  0  0  0  0
  1  2  1  0
  2  3  2  0
  2  4  1  0
  4  5  1  0
  5  6  1  0
  6  7  1  0
  7  8  1  0
  8  9  2  0
  8 10  1  0
 10 11  1  0
 11 12  1  0
 12 13  1  0
 13 14  1  0
 14 15  1  1
 15 16  1  0
 16 17  2  0
 17 18  1  0
 18 19  2  0
 18 20  1  0
 20 21  1  0
 21 22  1  0
 17 23  1  0
 15 24  1  0
 23 24  2  0
 10 25  1  0
 14 25  1  0
  7 26  1  0
  4 27  1  0
 26 27  1  0
M  END
