piperidine-amides-13691-covalent
     RDKit          3D

 27 29  0  0  0  0  0  0  0  0999 V2000
    7.1460   -3.3050   19.2510 C   0  0  0  0  0  0  0  0  0  0  0  0
    6.3530   -4.0690   20.2440 C   0  0  0  0  0  0  0  0  0  0  0  0
    5.2760   -4.5790   19.8990 O   0  0  0  0  0  0  0  0  0  0  0  0
    6.8970   -4.2350   21.5340 N   0  0  0  0  0  0  0  0  0  0  0  0
    7.6880   -3.2100   22.1600 C   0  0  0  0  0  0  0  0  0  0  0  0
    6.8060   -2.6140   23.2550 C   0  0  0  0  0  0  0  0  0  0  0  0
    6.4840   -3.7050   24.2200 C   0  0  0  0  0  0  0  0  0  0  0  0
    5.6410   -3.2320   25.3460 C   0  0  0  0  0  0  0  0  0  0  0  0
    4.5720   -2.7060   25.0240 O   0  0  0  0  0  0  0  0  0  0  0  0
    6.0450   -3.3750   26.6770 N   0  0  0  0  0  0  0  0  0  0  0  0
    6.0160   -4.5740   27.4490 C   0  0  0  0  0  0  0  0  0  0  0  0
    4.9500   -5.0970   28.1340 C   0  0  1  0  0  0  0  0  0  0  0  0
    3.7720   -5.3160   27.3840 C   0  0  0  0  0  0  0  0  0  0  0  0
    2.7320   -5.9860   27.9920 C   0  0  0  0  0  0  0  0  0  0  0  0
    1.7350   -5.2770   28.8490 C   0  0  0  0  0  0  0  0  0  0  0  0
    0.5440   -5.9730   29.5550 C   0  0  0  0  0  0  0  0  0  0  0  0
    0.4880   -7.4850   29.2840 C   0  0  0  0  0  0  0  0  0  0  0  0
   -0.5050   -8.2230   29.8430 F   0  0  0  0  0  0  0  0  0  0  0  0
    1.4540   -8.0370   28.4800 C   0  0  0  0  0  0  0  0  0  0  0  0
    2.5690   -7.3390   27.8270 C   0  0  0  0  0  0  0  0  0  0  0  0
    5.4290   -6.4820   28.5180 C   0  0  0  0  0  0  0  0  0  0  0  0
    4.6320   -7.2610   29.3840 C   0  0  0  0  0  0  0  0  0  0  0  0
    5.0620   -5.9860   30.1540 C   0  0  0  0  0  0  0  0  0  0  0  0
    4.7470   -4.7460   29.4070 C   0  0  1  0  0  0  0  0  0  0  0  0
    5.4930   -3.5750   29.6180 O   0  0  0  0  0  0  0  0  0  0  0  0
    5.7460   -4.8670   23.5640 C   0  0  0  0  0  0  0  0  0  0  0  0
    6.4600   -5.3550   22.3510 C   0  0  0  0  0  0  0  0  0  0  0  0
  1  2  1  0
  2  3  2  0
  2  4  1  0
  4  5  1  0
  5  6  1  0
  6  7  1  0
  7  8  1  0
  8  9  2  0
  8 10  1  0
 10 11  1  0
 12 11  1  6
 12 13  1  0
 13 14  1  0
 14 15  2  0
 15 16  1  0
 16 17  2  0
 17 18  1  0
 17 19  1  0
 14 20  1  0
 19 20  2  0
 12 21  1  0
 21 22  1  0
 22 23  1  0
 12 24  1  0
 23 24  1  0
 24 25  1  1
  7 26  1  0
  4 27  1  0
 26 27  1  0
M  END
