piperidine-amides-30659-covalent
     RDKit          3D

 28 30  0  0  0  0  0  0  0  0999 V2000
    7.1190   -3.3180   19.2960 C   0  0  0  0  0  0  0  0  0  0  0  0
    6.3350   -4.0820   20.2660 C   0  0  0  0  0  0  0  0  0  0  0  0
    5.2660   -4.5880   19.9010 O   0  0  0  0  0  0  0  0  0  0  0  0
    6.8010   -4.3060   21.5740 N   0  0  0  0  0  0  0  0  0  0  0  0
    7.6530   -3.3580   22.2580 C   0  0  0  0  0  0  0  0  0  0  0  0
    6.8090   -2.7890   23.3640 C   0  0  0  0  0  0  0  0  0  0  0  0
    5.8010   -3.7900   23.8340 C   0  0  0  0  0  0  0  0  0  0  0  0
    5.3780   -3.5800   25.2420 C   0  0  0  0  0  0  0  0  0  0  0  0
    4.1500   -3.6580   25.5340 O   0  0  0  0  0  0  0  0  0  0  0  0
    6.2520   -3.2820   26.3040 N   0  0  0  0  0  0  0  0  0  0  0  0
    6.7500   -4.3500   27.2150 C   0  0  0  0  0  0  0  0  0  0  0  0
    5.7330   -5.3900   27.4240 C   0  0  0  0  0  0  0  0  0  0  0  0
    6.3810   -1.8580   26.6560 C   0  0  2  0  0  0  0  0  0  0  0  0
    5.9450   -1.5490   28.0640 C   0  0  0  0  0  0  0  0  0  0  0  0
    4.5390   -1.7980   28.5360 C   0  0  0  0  0  0  0  0  0  0  0  0
    4.3770   -1.3780   29.9300 C   0  0  0  0  0  0  0  0  0  0  0  0
    5.4420   -0.8510   30.5960 C   0  0  0  0  0  0  0  0  0  0  0  0
    5.7230   -0.3300   31.8660 C   0  0  0  0  0  0  0  0  0  0  0  0
    6.9330   -0.4820   30.4570 C   0  0  0  0  0  0  0  0  0  0  0  0
    6.9920   -0.9540   28.9800 C   0  0  0  0  0  0  0  0  0  0  0  0
    5.7890   -0.8270   25.7640 C   0  0  0  0  0  0  0  0  0  0  0  0
    6.5060   -0.4660   24.8840 C   0  0  0  0  0  0  0  0  0  0  0  0
    6.0500    0.5480   23.9350 C   0  0  0  0  0  0  0  0  0  0  0  0
    4.8150    1.1280   23.9960 C   0  0  0  0  0  0  0  0  0  0  0  0
    4.0330    0.6920   25.0100 N   0  0  0  0  0  0  0  0  0  0  0  0
    4.5240   -0.3030   25.9100 C   0  0  0  0  0  0  0  0  0  0  0  0
    6.2230   -5.2080   23.7030 C   0  0  0  0  0  0  0  0  0  0  0  0
    6.5930   -5.5500   22.2790 C   0  0  0  0  0  0  0  0  0  0  0  0
  1  2  1  0
  2  3  2  0
  2  4  1  0
  4  5  1  0
  5  6  1  0
  6  7  1  0
  7  8  1  0
  8  9  2  0
  8 10  1  0
 10 11  1  0
 11 12  1  0
 13 10  1  6
 13 14  1  0
 14 15  2  0
 15 16  1  0
 16 17  2  0
 17 18  1  0
 17 19  1  0
 14 20  1  0
 19 20  2  0
 13 21  1  0
 21 22  2  0
 22 23  1  0
 23 24  2  0
 24 25  1  0
 21 26  1  0
 25 26  2  0
  7 27  1  0
  4 28  1  0
 27 28  1  0
M  END
