piperidine-amides-27115-covalent
     RDKit          3D

 25 27  0  0  0  0  0  0  0  0999 V2000
    7.0390   -3.3530   19.3740 C   0  0  0  0  0  0  0  0  0  0  0  0
    6.3820   -4.2110   20.3620 C   0  0  0  0  0  0  0  0  0  0  0  0
    5.3530   -4.8200   19.9730 O   0  0  0  0  0  0  0  0  0  0  0  0
    6.9200   -4.3750   21.6460 N   0  0  0  0  0  0  0  0  0  0  0  0
    6.6180   -5.5390   22.4270 C   0  0  0  0  0  0  0  0  0  0  0  0
    5.7900   -5.0900   23.6040 C   0  0  0  0  0  0  0  0  0  0  0  0
    6.3090   -3.8290   24.2630 C   0  0  0  0  0  0  0  0  0  0  0  0
    5.2370   -3.2370   25.1330 C   0  0  0  0  0  0  0  0  0  0  0  0
    4.2090   -2.8180   24.5740 O   0  0  0  0  0  0  0  0  0  0  0  0
    5.3180   -3.1090   26.5430 N   0  0  0  0  0  0  0  0  0  0  0  0
    4.1960   -3.1540   27.4670 C   0  0  0  0  0  0  0  0  0  0  0  0
    4.5100   -3.8340   28.8240 C   0  0  1  0  0  0  0  0  0  0  0  0
    4.1490   -5.1460   29.0310 C   0  0  0  0  0  0  0  0  0  0  0  0
    4.7970   -6.1100   28.2890 C   0  0  1  0  0  0  0  0  0  0  0  0
    4.0330   -6.6150   27.2400 C   0  0  0  0  0  0  0  0  0  0  0  0
    4.6400   -6.9960   26.0690 O   0  0  0  0  0  0  0  0  0  0  0  0
    2.6530   -6.7630   27.3380 O   0  0  0  0  0  0  0  0  0  0  0  0
    2.0960   -8.0400   27.4140 C   0  0  0  0  0  0  0  0  0  0  0  0
    6.0250   -5.5210   27.5930 C   0  0  0  0  0  0  0  0  0  0  0  0
    6.5620   -4.2470   28.2470 C   0  0  1  0  0  0  0  0  0  0  0  0
    6.5230   -3.1820   27.1540 C   0  0  0  0  0  0  0  0  0  0  0  0
    5.8070   -3.8690   29.2640 C   0  0  1  0  0  0  0  0  0  0  0  0
    6.0790   -2.5410   29.6330 O   0  0  0  0  0  0  0  0  0  0  0  0
    6.7430   -2.7840   23.2620 C   0  0  0  0  0  0  0  0  0  0  0  0
    7.6400   -3.3220   22.3590 C   0  0  0  0  0  0  0  0  0  0  0  0
  1  2  1  0
  2  3  2  0
  2  4  1  0
  4  5  1  0
  5  6  1  0
  6  7  1  0
  7  8  1  0
  8  9  2  0
  8 10  1  0
 10 11  1  0
 12 11  1  6
 12 13  1  0
 13 14  1  0
 14 15  1  6
 15 16  2  0
 15 17  1  0
 17 18  1  0
 14 19  1  0
 20 19  1  6
 10 21  1  0
 20 21  1  0
 12 22  1  0
 20 22  1  0
 22 23  1  6
  7 24  1  0
  4 25  1  0
 24 25  1  0
M  END
