piperidine-amides-2386-covalent
     RDKit          3D

 27 29  0  0  0  0  0  0  0  0999 V2000
    6.9870   -3.3410   19.3790 C   0  0  0  0  0  0  0  0  0  0  0  0
    6.3080   -4.2380   20.3540 C   0  0  0  0  0  0  0  0  0  0  0  0
    5.3230   -4.8510   19.9630 O   0  0  0  0  0  0  0  0  0  0  0  0
    6.7990   -4.3980   21.6490 N   0  0  0  0  0  0  0  0  0  0  0  0
    7.5940   -3.3930   22.2940 C   0  0  0  0  0  0  0  0  0  0  0  0
    6.9520   -2.9920   23.5880 C   0  0  0  0  0  0  0  0  0  0  0  0
    5.7660   -3.8840   23.9230 C   0  0  0  0  0  0  0  0  0  0  0  0
    5.2070   -3.4610   25.2380 C   0  0  0  0  0  0  0  0  0  0  0  0
    3.9840   -3.3120   25.3290 O   0  0  0  0  0  0  0  0  0  0  0  0
    5.9950   -3.2120   26.3840 N   0  0  0  0  0  0  0  0  0  0  0  0
    6.4810   -1.8660   26.5770 C   0  0  0  0  0  0  0  0  0  0  0  0
    7.5620   -1.8670   25.5160 C   0  0  0  0  0  0  0  0  0  0  0  0
    7.8900   -1.0540   24.4190 C   0  0  0  0  0  0  0  0  0  0  0  0
    8.9620   -1.2270   23.5860 C   0  0  0  0  0  0  0  0  0  0  0  0
    9.8590   -2.2240   23.6970 C   0  0  0  0  0  0  0  0  0  0  0  0
   10.9380   -2.4060   22.9110 O   0  0  0  0  0  0  0  0  0  0  0  0
   10.8140   -2.1110   21.6240 C   0  0  0  0  0  0  0  0  0  0  0  0
    9.7580   -3.2100   24.6820 C   0  0  0  0  0  0  0  0  0  0  0  0
    8.5970   -3.0240   25.6000 C   0  0  0  0  0  0  0  0  0  0  0  0
    7.3380   -1.7880   27.8090 C   0  0  0  0  0  0  0  0  0  0  0  0
    6.6670   -1.4130   29.0930 C   0  0  0  0  0  0  0  0  0  0  0  0
    6.3520    0.0210   29.4320 C   0  0  0  0  0  0  0  0  0  0  0  0
    5.5680    0.8060   28.4540 C   0  0  0  0  0  0  0  0  0  0  0  0
    5.8520    0.4680   27.0100 C   0  0  0  0  0  0  0  0  0  0  0  0
    5.5440   -0.7980   26.5270 C   0  0  0  0  0  0  0  0  0  0  0  0
    6.1770   -5.3170   23.8030 C   0  0  0  0  0  0  0  0  0  0  0  0
    6.6120   -5.6640   22.3690 C   0  0  0  0  0  0  0  0  0  0  0  0
  1  2  1  0
  2  3  2  0
  2  4  1  0
  4  5  1  0
  5  6  1  0
  6  7  1  0
  7  8  1  0
  8  9  2  0
  8 10  1  0
 11 10  1  0
 11 12  1  0
 12 13  2  0
 13 14  1  0
 14 15  2  0
 15 16  1  0
 16 17  1  0
 15 18  1  0
 12 19  1  0
 18 19  2  0
 11 20  1  0
 20 21  1  0
 21 22  1  0
 22 23  1  0
 23 24  1  0
 11 25  1  0
 24 25  1  0
  7 26  1  0
  4 27  1  0
 26 27  1  0
M  END
