piperidine-amides-27142-covalent
     RDKit          3D

 25 26  0  0  0  0  0  0  0  0999 V2000
    7.0450   -3.3630   19.3920 C   0  0  0  0  0  0  0  0  0  0  0  0
    6.4150   -4.2390   20.3810 C   0  0  0  0  0  0  0  0  0  0  0  0
    5.3930   -4.8700   19.9900 O   0  0  0  0  0  0  0  0  0  0  0  0
    6.9620   -4.3940   21.6630 N   0  0  0  0  0  0  0  0  0  0  0  0
    6.8410   -5.6730   22.3470 C   0  0  0  0  0  0  0  0  0  0  0  0
    6.3460   -5.4080   23.7330 C   0  0  0  0  0  0  0  0  0  0  0  0
    6.1360   -3.9430   23.8570 C   0  0  0  0  0  0  0  0  0  0  0  0
    5.4640   -3.5630   25.1100 C   0  0  0  0  0  0  0  0  0  0  0  0
    4.3000   -3.1410   24.9730 O   0  0  0  0  0  0  0  0  0  0  0  0
    5.9180   -3.5970   26.4340 N   0  0  0  0  0  0  0  0  0  0  0  0
    4.7640   -3.8100   27.3150 C   0  0  0  0  0  0  0  0  0  0  0  0
    5.0140   -4.2740   28.7380 C   0  0  0  0  0  0  0  0  0  0  0  0
    5.6040   -3.0920   29.2850 N   0  0  0  0  0  0  0  0  0  0  0  0
    4.8130   -2.0130   29.4000 C   0  0  0  0  0  0  0  0  0  0  0  0
    5.2400   -0.8410   30.0140 C   0  0  0  0  0  0  0  0  0  0  0  0
    5.1530   -0.9920   31.3210 O   0  0  0  0  0  0  0  0  0  0  0  0
    5.6550    0.2530   29.3420 N   0  0  0  0  0  0  0  0  0  0  0  0
    6.0690    1.2500   30.2610 C   0  0  0  0  0  0  0  0  0  0  0  0
    7.3020    0.9800   30.8180 C   0  0  0  0  0  0  0  0  0  0  0  0
    7.5370    0.0340   31.7900 C   0  0  0  0  0  0  0  0  0  0  0  0
    8.0010   -0.3440   30.4390 C   0  0  0  0  0  0  0  0  0  0  0  0
    6.8050   -2.9440   28.6320 C   0  0  0  0  0  0  0  0  0  0  0  0
    6.4390   -2.5070   27.2320 C   0  0  0  0  0  0  0  0  0  0  0  0
    7.4060   -3.1990   23.6240 C   0  0  0  0  0  0  0  0  0  0  0  0
    7.7820   -3.3290   22.3010 C   0  0  0  0  0  0  0  0  0  0  0  0
  1  2  1  0
  2  3  2  0
  2  4  1  0
  4  5  1  0
  5  6  1  0
  6  7  1  0
  7  8  1  0
  8  9  2  0
  8 10  1  0
 10 11  1  0
 11 12  1  0
 12 13  1  0
 13 14  1  0
 14 15  1  0
 15 16  2  0
 15 17  1  0
 17 18  1  0
 18 19  1  0
 19 20  1  0
 19 21  1  0
 13 22  1  0
 10 23  1  0
 22 23  1  0
  7 24  1  0
  4 25  1  0
 24 25  1  0
M  END
