piperidine-amides-25301-covalent
     RDKit          3D

 24 25  0  0  0  0  0  0  0  0999 V2000
    7.1120   -3.2410   19.1770 C   0  0  0  0  0  0  0  0  0  0  0  0
    6.3270   -3.9890   20.1920 C   0  0  0  0  0  0  0  0  0  0  0  0
    5.2520   -4.4690   19.8420 O   0  0  0  0  0  0  0  0  0  0  0  0
    6.8380   -4.1700   21.4710 N   0  0  0  0  0  0  0  0  0  0  0  0
    7.6610   -3.1630   22.1010 C   0  0  0  0  0  0  0  0  0  0  0  0
    6.9140   -2.5650   23.2530 C   0  0  0  0  0  0  0  0  0  0  0  0
    6.3900   -3.6930   24.1390 C   0  0  0  0  0  0  0  0  0  0  0  0
    5.6060   -3.0730   25.2300 C   0  0  0  0  0  0  0  0  0  0  0  0
    4.3730   -2.9850   25.1340 O   0  0  0  0  0  0  0  0  0  0  0  0
    6.2560   -2.5780   26.3830 N   0  0  0  0  0  0  0  0  0  0  0  0
    6.9340   -1.3250   26.2930 C   0  0  0  0  0  0  0  0  0  0  0  0
    6.4780   -3.4190   27.5010 C   0  0  0  0  0  0  0  0  0  0  0  0
    7.7200   -3.9490   27.4570 C   0  0  2  0  0  0  0  0  0  0  0  0
    8.2110   -3.9300   26.1930 C   0  0  0  0  0  0  0  0  0  0  0  0
    8.8950   -5.0490   26.0740 C   0  0  2  0  0  0  0  0  0  0  0  0
    8.2810   -5.7710   25.0650 F   0  0  0  0  0  0  0  0  0  0  0  0
    8.8600   -5.8530   27.3190 C   0  0  0  0  0  0  0  0  0  0  0  0
    8.0250   -5.1660   28.1590 N   0  0  0  0  0  0  0  0  0  0  0  0
    7.0130   -5.9330   28.6540 C   0  0  0  0  0  0  0  0  0  0  0  0
    5.7330   -6.3350   27.9540 C   0  0  0  0  0  0  0  0  0  0  0  0
    4.7710   -6.8730   28.7420 N   0  0  0  0  0  0  0  0  0  0  0  0
    5.7320   -6.0880   26.5990 O   0  0  0  0  0  0  0  0  0  0  0  0
    5.6560   -4.7690   23.4330 C   0  0  0  0  0  0  0  0  0  0  0  0
    6.3820   -5.2870   22.2400 C   0  0  0  0  0  0  0  0  0  0  0  0
  1  2  1  0
  2  3  2  0
  2  4  1  0
  4  5  1  0
  5  6  1  0
  6  7  1  0
  7  8  1  0
  8  9  2  0
  8 10  1  0
 10 11  1  0
 10 12  1  0
 13 12  1  6
 13 14  1  0
 14 15  1  0
 15 16  1  6
 15 17  1  0
 13 18  1  0
 17 18  1  0
 18 19  1  0
 19 20  1  0
 20 21  1  0
 20 22  2  0
  7 23  1  0
  4 24  1  0
 23 24  1  0
M  END
