piperidine-amides-13677-covalent
     RDKit          3D

 31 33  0  0  0  0  0  0  0  0999 V2000
    7.0880   -3.2800   19.2430 C   0  0  0  0  0  0  0  0  0  0  0  0
    6.3420   -4.0720   20.2600 C   0  0  0  0  0  0  0  0  0  0  0  0
    5.3070   -4.6650   19.9240 O   0  0  0  0  0  0  0  0  0  0  0  0
    6.8610   -4.1680   21.5690 N   0  0  0  0  0  0  0  0  0  0  0  0
    7.6950   -3.1160   22.1220 C   0  0  0  0  0  0  0  0  0  0  0  0
    7.5440   -3.0810   23.6500 C   0  0  0  0  0  0  0  0  0  0  0  0
    6.2160   -3.6650   23.9660 C   0  0  0  0  0  0  0  0  0  0  0  0
    5.6570   -3.2300   25.2620 C   0  0  0  0  0  0  0  0  0  0  0  0
    4.4380   -3.0170   25.2680 O   0  0  0  0  0  0  0  0  0  0  0  0
    6.4550   -3.0740   26.3990 N   0  0  0  0  0  0  0  0  0  0  0  0
    5.9600   -2.9590   27.7220 C   0  0  1  0  0  0  0  0  0  0  0  0
    6.0180   -3.9750   28.6430 C   0  0  0  0  0  0  0  0  0  0  0  0
    4.8010   -3.9710   29.4430 O   0  0  0  0  0  0  0  0  0  0  0  0
    7.0090   -4.9040   28.8560 O   0  0  0  0  0  0  0  0  0  0  0  0
    6.6740   -6.2920   28.8700 C   0  0  0  0  0  0  0  0  0  0  0  0
    6.2100   -1.8120   28.5260 C   0  0  0  0  0  0  0  0  0  0  0  0
    5.1420   -0.7960   28.6190 C   0  0  0  0  0  0  0  0  0  0  0  0
    5.3150    0.4770   29.4630 C   0  0  0  0  0  0  0  0  0  0  0  0
    6.6870    0.5610   30.1740 C   0  0  0  0  0  0  0  0  0  0  0  0
    7.0720    1.5830   30.9740 O   0  0  0  0  0  0  0  0  0  0  0  0
    7.0060    1.7810   32.2970 C   0  0  0  0  0  0  0  0  0  0  0  0
    5.6060    1.6280   32.7600 C   0  0  0  0  0  0  0  0  0  0  0  0
    5.0920    3.0630   32.6310 C   0  0  0  0  0  0  0  0  0  0  0  0
    3.8460    3.6720   32.8930 C   0  0  0  0  0  0  0  0  0  0  0  0
    3.0930    2.3780   33.3830 C   0  0  0  0  0  0  0  0  0  0  0  0
    3.5640    0.9540   33.5250 C   0  0  0  0  0  0  0  0  0  0  0  0
    4.9450    0.5370   33.1840 C   0  0  0  0  0  0  0  0  0  0  0  0
    7.6080   -0.4640   30.0030 C   0  0  0  0  0  0  0  0  0  0  0  0
    7.3820   -1.5790   29.2270 C   0  0  0  0  0  0  0  0  0  0  0  0
    6.1490   -5.1220   23.6710 C   0  0  0  0  0  0  0  0  0  0  0  0
    6.5950   -5.3790   22.2670 C   0  0  0  0  0  0  0  0  0  0  0  0
  1  2  1  0
  2  3  2  0
  2  4  1  0
  4  5  1  0
  5  6  1  0
  6  7  1  0
  7  8  1  0
  8  9  2  0
  8 10  1  0
 11 10  1  6
 11 12  1  0
 12 13  2  0
 12 14  1  0
 14 15  1  0
 11 16  1  0
 16 17  2  0
 17 18  1  0
 18 19  2  0
 19 20  1  0
 20 21  1  0
 21 22  1  0
 22 23  2  0
 23 24  1  0
 24 25  2  0
 25 26  1  0
 22 27  1  0
 26 27  2  0
 19 28  1  0
 16 29  1  0
 28 29  2  0
  7 30  1  0
  4 31  1  0
 30 31  1  0
M  END
