piperidine-amides-3847-covalent
     RDKit          3D

 24 26  0  0  0  0  0  0  0  0999 V2000
    7.2150   -3.9730   19.6010 C   0  0  0  0  0  0  0  0  0  0  0  0
    6.0340   -3.9140   20.3370 C   0  0  0  0  0  0  0  0  0  0  0  0
    5.0060   -4.0330   19.6430 O   0  0  0  0  0  0  0  0  0  0  0  0
    6.1420   -3.8590   21.7250 N   0  0  0  0  0  0  0  0  0  0  0  0
    5.9840   -5.1240   22.3640 C   0  0  0  0  0  0  0  0  0  0  0  0
    5.6270   -4.8740   23.7210 C   0  0  0  0  0  0  0  0  0  0  0  0
    5.5700   -3.4190   23.8650 C   0  0  0  0  0  0  0  0  0  0  0  0
    4.9150   -3.0110   25.1250 C   0  0  0  0  0  0  0  0  0  0  0  0
    3.8590   -3.5680   25.4590 O   0  0  0  0  0  0  0  0  0  0  0  0
    5.4360   -2.0180   25.9400 N   0  0  0  0  0  0  0  0  0  0  0  0
    5.6460   -2.1660   27.3020 C   0  0  0  0  0  0  0  0  0  0  0  0
    6.1030   -3.4340   27.7790 C   0  0  0  0  0  0  0  0  0  0  0  0
    7.3840   -3.9590   27.1470 C   0  0  0  0  0  0  0  0  0  0  0  0
    8.1640   -5.0690   27.2750 C   0  0  0  0  0  0  0  0  0  0  0  0
    9.7510   -5.3670   26.2780 Br  0  0  0  0  0  0  0  0  0  0  0  0
    7.6160   -6.0530   28.3140 C   0  0  0  0  0  0  0  0  0  0  0  0
    6.3640   -5.5850   28.9520 C   0  0  0  0  0  0  0  0  0  0  0  0
    5.9010   -6.6330   29.9560 C   0  0  0  0  0  0  0  0  0  0  0  0
    4.6390   -6.3610   30.7280 C   0  0  0  0  0  0  0  0  0  0  0  0
    3.8950   -5.0580   30.4630 C   0  0  0  0  0  0  0  0  0  0  0  0
    4.3370   -4.1490   29.5620 N   0  0  0  0  0  0  0  0  0  0  0  0
    5.5180   -4.3460   28.8020 C   0  0  0  0  0  0  0  0  0  0  0  0
    6.9120   -2.8050   23.6150 C   0  0  0  0  0  0  0  0  0  0  0  0
    7.2220   -3.0420   22.2650 C   0  0  0  0  0  0  0  0  0  0  0  0
  1  2  1  0
  2  3  2  0
  2  4  1  0
  4  5  1  0
  5  6  1  0
  6  7  1  0
  7  8  1  0
  8  9  2  0
  8 10  1  0
 10 11  1  0
 11 12  1  0
 12 13  2  0
 13 14  1  0
 14 15  1  0
 14 16  2  0
 16 17  1  0
 17 18  1  0
 18 19  2  0
 19 20  1  0
 20 21  2  0
 12 22  1  0
 17 22  2  0
 21 22  1  0
  7 23  1  0
  4 24  1  0
 23 24  1  0
M  END
