piperidine-amides-1768-covalent
     RDKit          3D

 19 20  0  0  0  0  0  0  0  0999 V2000
    7.1100   -3.2760   19.2340 C   0  0  0  0  0  0  0  0  0  0  0  0
    6.3490   -4.0680   20.2410 C   0  0  0  0  0  0  0  0  0  0  0  0
    5.2810   -4.5950   19.9010 O   0  0  0  0  0  0  0  0  0  0  0  0
    6.8830   -4.2460   21.5360 N   0  0  0  0  0  0  0  0  0  0  0  0
    7.7300   -3.2720   22.1810 C   0  0  0  0  0  0  0  0  0  0  0  0
    6.9140   -2.5850   23.2780 C   0  0  0  0  0  0  0  0  0  0  0  0
    5.9850   -3.5760   23.9090 C   0  0  0  0  0  0  0  0  0  0  0  0
    5.6230   -3.2120   25.2900 C   0  0  0  0  0  0  0  0  0  0  0  0
    4.4230   -3.0060   25.5030 O   0  0  0  0  0  0  0  0  0  0  0  0
    6.6030   -3.1090   26.2780 N   0  0  0  0  0  0  0  0  0  0  0  0
    6.4510   -3.4120   27.6520 C   0  0  0  0  0  0  0  0  0  0  0  0
    6.5400   -4.6740   28.1680 C   0  0  0  0  0  0  0  0  0  0  0  0
    7.5800   -5.5110   28.5340 C   0  0  0  0  0  0  0  0  0  0  0  0
    7.0800   -6.6960   29.0080 O   0  0  0  0  0  0  0  0  0  0  0  0
    5.7010   -6.6100   28.9330 C   0  0  0  0  0  0  0  0  0  0  0  0
    4.8090   -7.7140   29.3490 C   0  0  0  0  0  0  0  0  0  0  0  0
    5.3150   -5.4060   28.4360 N   0  0  0  0  0  0  0  0  0  0  0  0
    6.4980   -4.9890   23.7870 C   0  0  0  0  0  0  0  0  0  0  0  0
    6.5810   -5.3900   22.3210 C   0  0  0  0  0  0  0  0  0  0  0  0
  1  2  1  0
  2  3  2  0
  2  4  1  0
  4  5  1  0
  5  6  1  0
  6  7  1  0
  7  8  1  0
  8  9  2  0
  8 10  1  0
 10 11  1  0
 11 12  1  0
 12 13  2  0
 13 14  1  0
 14 15  1  0
 15 16  1  0
 12 17  1  0
 15 17  2  0
  7 18  1  0
  4 19  1  0
 18 19  1  0
M  END
