piperidine-amides-30630-covalent
     RDKit          3D

 26 28  0  0  0  0  0  0  0  0999 V2000
    7.2040   -4.0390   19.7030 C   0  0  0  0  0  0  0  0  0  0  0  0
    6.0180   -3.9780   20.4090 C   0  0  0  0  0  0  0  0  0  0  0  0
    5.0020   -4.1170   19.7160 O   0  0  0  0  0  0  0  0  0  0  0  0
    6.0900   -3.9070   21.7960 N   0  0  0  0  0  0  0  0  0  0  0  0
    5.9400   -5.1530   22.5290 C   0  0  0  0  0  0  0  0  0  0  0  0
    5.7020   -4.7430   23.9460 C   0  0  0  0  0  0  0  0  0  0  0  0
    6.0140   -3.2890   24.0640 C   0  0  0  0  0  0  0  0  0  0  0  0
    5.9420   -2.7430   25.4330 C   0  0  0  0  0  0  0  0  0  0  0  0
    5.3100   -3.3750   26.3300 O   0  0  0  0  0  0  0  0  0  0  0  0
    6.5400   -1.5000   25.7790 N   0  0  0  0  0  0  0  0  0  0  0  0
    6.8620   -1.1570   27.1450 C   0  0  0  0  0  0  0  0  0  0  0  0
    6.2870    0.1450   26.8200 C   0  0  0  0  0  0  0  0  0  0  0  0
    5.2690    0.3110   27.6780 N   0  0  0  0  0  0  0  0  0  0  0  0
    5.4450    1.4010   28.8030 S   0  0  0  0  0  0  0  0  0  0  0  0
    4.4900    1.0750   29.8820 O   0  0  0  0  0  0  0  0  0  0  0  0
    5.0360    2.7220   28.1840 O   0  0  0  0  0  0  0  0  0  0  0  0
    7.1490    1.3620   29.3200 C   0  0  0  0  0  0  0  0  0  0  0  0
    7.7270    2.7560   29.1230 C   0  0  0  0  0  0  0  0  0  0  0  0
    9.1820    3.0200   29.4990 C   0  0  0  0  0  0  0  0  0  0  0  0
    9.8930    1.8430   30.0360 C   0  0  0  0  0  0  0  0  0  0  0  0
   11.0840    1.3870   30.5290 C   0  0  0  0  0  0  0  0  0  0  0  0
    9.3050    0.4800   30.2170 C   0  0  0  0  0  0  0  0  0  0  0  0
    7.8630    0.2890   29.8250 C   0  0  0  0  0  0  0  0  0  0  0  0
    5.9220   -0.2110   25.3910 C   0  0  0  0  0  0  0  0  0  0  0  0
    7.3690   -3.1000   23.3930 C   0  0  0  0  0  0  0  0  0  0  0  0
    7.1850   -2.9990   22.2080 C   0  0  0  0  0  0  0  0  0  0  0  0
  1  2  1  0
  2  3  2  0
  2  4  1  0
  4  5  1  0
  5  6  1  0
  6  7  1  0
  7  8  1  0
  8  9  2  0
  8 10  1  0
 10 11  1  0
 11 12  1  0
 12 13  1  0
 14 13  1  0
 14 15  2  0
 14 16  2  0
 14 17  1  0
 17 18  2  0
 18 19  1  0
 19 20  2  0
 20 21  1  0
 20 22  1  0
 17 23  1  0
 22 23  2  0
 10 24  1  0
 12 24  1  0
  7 25  1  0
  4 26  1  0
 25 26  1  0
M  END
