piperidine-amides-28111-covalent
     RDKit          3D

 26 28  0  0  0  0  0  0  0  0999 V2000
    7.0360   -3.3770   19.4030 C   0  0  0  0  0  0  0  0  0  0  0  0
    6.4110   -4.2700   20.4060 C   0  0  0  0  0  0  0  0  0  0  0  0
    5.4280   -4.9300   20.0070 O   0  0  0  0  0  0  0  0  0  0  0  0
    6.9420   -4.3790   21.7110 N   0  0  0  0  0  0  0  0  0  0  0  0
    6.6430   -5.5320   22.5160 C   0  0  0  0  0  0  0  0  0  0  0  0
    6.0780   -5.1780   23.8220 C   0  0  0  0  0  0  0  0  0  0  0  0
    6.0250   -3.7170   23.9890 C   0  0  0  0  0  0  0  0  0  0  0  0
    5.3810   -3.2060   25.2400 C   0  0  0  0  0  0  0  0  0  0  0  0
    4.6730   -2.2000   25.1020 O   0  0  0  0  0  0  0  0  0  0  0  0
    5.4780   -3.7450   26.5350 N   0  0  0  0  0  0  0  0  0  0  0  0
    4.2270   -4.0230   27.2600 C   0  0  0  0  0  0  0  0  0  0  0  0
    4.4430   -4.1520   28.7260 C   0  0  0  0  0  0  0  0  0  0  0  0
    5.6670   -4.7560   29.1800 C   0  0  0  0  0  0  0  0  0  0  0  0
    5.2370   -6.1090   29.4180 N   0  0  0  0  0  0  0  0  0  0  0  0
    5.1760   -7.1290   28.4400 C   0  0  0  0  0  0  0  0  0  0  0  0
    4.8850   -6.5110   30.7600 C   0  0  0  0  0  0  0  0  0  0  0  0
    5.6740   -7.4850   31.2170 C   0  0  0  0  0  0  0  0  0  0  0  0
    5.4600   -7.9580   32.4610 C   0  0  0  0  0  0  0  0  0  0  0  0
    4.4560   -7.4580   33.2450 C   0  0  0  0  0  0  0  0  0  0  0  0
    4.2770   -7.9860   34.5240 C   0  0  0  0  0  0  0  0  0  0  0  0
    3.7350   -6.4750   32.6550 N   0  0  0  0  0  0  0  0  0  0  0  0
    3.8680   -5.9380   31.4350 N   0  0  0  0  0  0  0  0  0  0  0  0
    6.6700   -4.5320   28.3580 C   0  0  0  0  0  0  0  0  0  0  0  0
    6.4390   -3.3660   27.4240 C   0  0  0  0  0  0  0  0  0  0  0  0
    7.3980   -3.1230   23.6700 C   0  0  0  0  0  0  0  0  0  0  0  0
    7.7350   -3.3030   22.3050 C   0  0  0  0  0  0  0  0  0  0  0  0
  1  2  1  0
  2  3  2  0
  2  4  1  0
  4  5  1  0
  5  6  1  0
  6  7  1  0
  7  8  1  0
  8  9  2  0
  8 10  1  0
 10 11  1  0
 11 12  1  0
 12 13  1  0
 13 14  1  0
 14 15  1  0
 14 16  1  0
 16 17  2  0
 17 18  1  0
 18 19  2  0
 19 20  1  0
 19 21  1  0
 16 22  1  0
 21 22  2  0
 13 23  1  0
 10 24  1  0
 23 24  1  0
  7 25  1  0
  4 26  1  0
 25 26  1  0
M  END
