piperidine-amides-8939-covalent
     RDKit          3D

 22 24  0  0  0  0  0  0  0  0999 V2000
    7.0350   -3.3370   19.3230 C   0  0  0  0  0  0  0  0  0  0  0  0
    6.3470   -4.1470   20.3320 C   0  0  0  0  0  0  0  0  0  0  0  0
    5.3860   -4.8540   19.9830 O   0  0  0  0  0  0  0  0  0  0  0  0
    6.7880   -4.1730   21.6650 N   0  0  0  0  0  0  0  0  0  0  0  0
    7.7290   -3.1770   22.1540 C   0  0  0  0  0  0  0  0  0  0  0  0
    7.4300   -2.9730   23.6030 C   0  0  0  0  0  0  0  0  0  0  0  0
    6.0940   -3.5320   23.9500 C   0  0  0  0  0  0  0  0  0  0  0  0
    5.6930   -3.1920   25.3300 C   0  0  0  0  0  0  0  0  0  0  0  0
    4.5090   -3.3940   25.7270 O   0  0  0  0  0  0  0  0  0  0  0  0
    6.6000   -2.6180   26.2460 N   0  0  0  0  0  0  0  0  0  0  0  0
    6.1630   -1.6490   27.2760 C   0  0  2  0  0  0  0  0  0  0  0  0
    5.8500   -0.3780   26.5830 C   0  0  0  0  0  0  0  0  0  0  0  0
    5.6260    0.8590   27.3950 C   0  0  0  0  0  0  0  0  0  0  0  0
    6.0790    0.9380   28.8560 C   0  0  0  0  0  0  0  0  0  0  0  0
    5.7620    2.1070   29.6370 N   0  0  0  0  0  0  0  0  0  0  0  0
    6.2700    2.0240   31.0190 C   0  0  0  0  0  0  0  0  0  0  0  0
    7.0150    0.8060   31.4290 C   0  0  0  0  0  0  0  0  0  0  0  0
    7.2160   -0.2020   30.5440 C   0  0  0  0  0  0  0  0  0  0  0  0
    6.8230   -0.3150   29.2240 C   0  0  0  0  0  0  0  0  0  0  0  0
    7.0710   -1.4480   28.3050 C   0  0  0  0  0  0  0  0  0  0  0  0
    5.9680   -5.0240   23.7330 C   0  0  0  0  0  0  0  0  0  0  0  0
    6.6630   -5.3920   22.4380 C   0  0  0  0  0  0  0  0  0  0  0  0
  1  2  1  0
  2  3  2  0
  2  4  1  0
  4  5  1  0
  5  6  1  0
  6  7  1  0
  7  8  1  0
  8  9  2  0
  8 10  1  0
 11 10  1  6
 11 12  1  0
 12 13  1  0
 13 14  1  0
 14 15  2  0
 15 16  1  0
 16 17  2  0
 17 18  1  0
 14 19  1  0
 18 19  2  0
 11 20  1  0
 19 20  1  0
  7 21  1  0
  4 22  1  0
 21 22  1  0
M  END
