piperidine-amides-4634-covalent
     RDKit          3D

 24 25  0  0  0  0  0  0  0  0999 V2000
    7.1010   -3.2760   19.2020 C   0  0  0  0  0  0  0  0  0  0  0  0
    6.3690   -4.0300   20.2430 C   0  0  0  0  0  0  0  0  0  0  0  0
    5.2900   -4.5450   19.8870 O   0  0  0  0  0  0  0  0  0  0  0  0
    6.8860   -4.2110   21.5380 N   0  0  0  0  0  0  0  0  0  0  0  0
    6.5150   -5.3630   22.2750 C   0  0  0  0  0  0  0  0  0  0  0  0
    6.0300   -5.0620   23.6230 C   0  0  0  0  0  0  0  0  0  0  0  0
    6.5970   -3.8570   24.2850 C   0  0  0  0  0  0  0  0  0  0  0  0
    5.6530   -3.3940   25.3260 C   0  0  0  0  0  0  0  0  0  0  0  0
    4.7410   -2.6180   24.9860 O   0  0  0  0  0  0  0  0  0  0  0  0
    5.7510   -3.8050   26.6620 N   0  0  0  0  0  0  0  0  0  0  0  0
    6.3180   -5.1080   27.0800 C   0  0  0  0  0  0  0  0  0  0  0  0
    5.7770   -5.5040   28.4090 C   0  0  0  0  0  0  0  0  0  0  0  0
    6.3710   -6.5580   29.1890 C   0  0  0  0  0  0  0  0  0  0  0  0
    5.8930   -6.9480   30.4130 C   0  0  0  0  0  0  0  0  0  0  0  0
    4.7920   -6.3170   30.9620 C   0  0  0  0  0  0  0  0  0  0  0  0
    4.2090   -6.8180   32.5180 S   0  0  0  0  0  0  0  0  0  0  0  0
    2.9550   -7.9470   32.4040 N   0  0  0  0  0  0  0  0  0  0  0  0
    3.6600   -5.6530   33.2430 O   0  0  0  0  0  0  0  0  0  0  0  0
    5.3510   -7.4420   33.2220 O   0  0  0  0  0  0  0  0  0  0  0  0
    4.1840   -5.3020   30.2630 C   0  0  0  0  0  0  0  0  0  0  0  0
    3.0980   -4.6620   30.7760 C   0  0  0  0  0  0  0  0  0  0  0  0
    4.6690   -4.9120   29.0220 C   0  0  0  0  0  0  0  0  0  0  0  0
    6.8750   -2.7370   23.3060 C   0  0  0  0  0  0  0  0  0  0  0  0
    7.7290   -3.2510   22.2190 C   0  0  0  0  0  0  0  0  0  0  0  0
  1  2  1  0
  2  3  2  0
  2  4  1  0
  4  5  1  0
  5  6  1  0
  6  7  1  0
  7  8  1  0
  8  9  2  0
  8 10  1  0
 10 11  1  0
 11 12  1  0
 12 13  2  0
 13 14  1  0
 14 15  2  0
 15 16  1  0
 16 17  1  0
 16 18  2  0
 16 19  2  0
 15 20  1  0
 20 21  1  0
 12 22  1  0
 20 22  2  0
  7 23  1  0
  4 24  1  0
 23 24  1  0
M  END
