piperidine-amides-28640-covalent
     RDKit          3D

 26 27  0  0  0  0  0  0  0  0999 V2000
    7.1200   -3.2780   19.2370 C   0  0  0  0  0  0  0  0  0  0  0  0
    6.3880   -4.0530   20.2360 C   0  0  0  0  0  0  0  0  0  0  0  0
    5.3080   -4.5700   19.8960 O   0  0  0  0  0  0  0  0  0  0  0  0
    6.9280   -4.2570   21.5320 N   0  0  0  0  0  0  0  0  0  0  0  0
    7.7090   -3.2150   22.1400 C   0  0  0  0  0  0  0  0  0  0  0  0
    7.0010   -2.7180   23.3590 C   0  0  0  0  0  0  0  0  0  0  0  0
    6.7490   -3.9100   24.2570 C   0  0  0  0  0  0  0  0  0  0  0  0
    5.9680   -3.4600   25.4450 C   0  0  0  0  0  0  0  0  0  0  0  0
    4.8360   -3.0450   25.2180 O   0  0  0  0  0  0  0  0  0  0  0  0
    6.5600   -3.5380   26.6980 N   0  0  0  0  0  0  0  0  0  0  0  0
    6.6530   -2.4060   27.5740 C   0  0  0  0  0  0  0  0  0  0  0  0
    5.4420   -1.9500   28.1260 C   0  0  0  0  0  0  0  0  0  0  0  0
    5.2970   -1.1750   29.0950 O   0  0  0  0  0  0  0  0  0  0  0  0
    4.3180   -2.5450   27.3700 N   0  0  0  0  0  0  0  0  0  0  0  0
    3.2840   -1.8800   26.6600 C   0  0  0  0  0  0  0  0  0  0  0  0
    3.6130   -0.7900   25.8470 C   0  0  0  0  0  0  0  0  0  0  0  0
    2.4690   -0.1300   25.1210 C   0  0  0  0  0  0  0  0  0  0  0  0
    1.0220   -0.6370   25.2750 C   0  0  0  0  0  0  0  0  0  0  0  0
    0.0450    0.0330   24.5720 F   0  0  0  0  0  0  0  0  0  0  0  0
    0.7490   -1.7910   26.1470 C   0  0  0  0  0  0  0  0  0  0  0  0
    1.9840   -2.3320   26.7930 C   0  0  0  0  0  0  0  0  0  0  0  0
    7.0210   -4.8640   27.1810 C   0  0  0  0  0  0  0  0  0  0  0  0
    7.6350   -5.0100   28.4040 C   0  0  0  0  0  0  0  0  0  0  0  0
    5.9830   -5.7440   27.1490 C   0  0  0  0  0  0  0  0  0  0  0  0
    5.9600   -4.9930   23.5930 C   0  0  0  0  0  0  0  0  0  0  0  0
    6.5850   -5.4150   22.2980 C   0  0  0  0  0  0  0  0  0  0  0  0
  1  2  1  0
  2  3  2  0
  2  4  1  0
  4  5  1  0
  5  6  1  0
  6  7  1  0
  7  8  1  0
  8  9  2  0
  8 10  1  0
 10 11  1  0
 11 12  1  0
 12 13  2  0
 12 14  1  0
 14 15  1  0
 15 16  2  0
 16 17  1  0
 17 18  2  0
 18 19  1  0
 18 20  1  0
 15 21  1  0
 20 21  2  0
 10 22  1  0
 22 23  1  0
 22 24  1  0
  7 25  1  0
  4 26  1  0
 25 26  1  0
M  END
