piperidine-amides-34285-covalent
     RDKit          3D

 30 31  0  0  0  0  0  0  0  0999 V2000
    7.0230   -3.3380   19.4230 C   0  0  0  0  0  0  0  0  0  0  0  0
    6.3660   -4.2290   20.3950 C   0  0  0  0  0  0  0  0  0  0  0  0
    5.4270   -4.9640   20.0090 O   0  0  0  0  0  0  0  0  0  0  0  0
    6.7930   -4.2930   21.7400 N   0  0  0  0  0  0  0  0  0  0  0  0
    6.6460   -5.5540   22.4460 C   0  0  0  0  0  0  0  0  0  0  0  0
    6.1130   -5.2630   23.8660 C   0  0  0  0  0  0  0  0  0  0  0  0
    5.9760   -3.7640   23.9660 C   0  0  0  0  0  0  0  0  0  0  0  0
    5.2500   -3.2460   25.1810 C   0  0  0  0  0  0  0  0  0  0  0  0
    4.4470   -2.3280   24.9530 O   0  0  0  0  0  0  0  0  0  0  0  0
    5.3980   -3.6880   26.5420 N   0  0  0  0  0  0  0  0  0  0  0  0
    4.2630   -3.4590   27.4060 C   0  0  0  0  0  0  0  0  0  0  0  0
    4.3280   -4.2400   28.7300 C   0  0  1  0  0  0  0  0  0  0  0  0
    3.6080   -5.4220   28.7340 C   0  0  0  0  0  0  0  0  0  0  0  0
    2.4290   -5.2660   27.9470 N   0  0  0  0  0  0  0  0  0  0  0  0
    1.9170   -6.3530   27.1950 C   0  0  0  0  0  0  0  0  0  0  0  0
    1.2500   -7.4020   27.8070 O   0  0  0  0  0  0  0  0  0  0  0  0
    2.0510   -6.3860   25.8230 O   0  0  0  0  0  0  0  0  0  0  0  0
    2.0410   -7.5890   25.1290 C   0  0  0  0  0  0  0  0  0  0  0  0
    3.0010   -7.4410   24.1560 C   0  0  0  0  0  0  0  0  0  0  0  0
    0.8090   -8.1040   24.3710 C   0  0  0  0  0  0  0  0  0  0  0  0
    2.4340   -8.6490   26.1030 C   0  0  0  0  0  0  0  0  0  0  0  0
    5.5870   -4.3500   29.2500 C   0  0  0  0  0  0  0  0  0  0  0  0
    6.6530   -4.4320   28.3200 C   0  0  1  0  0  0  0  0  0  0  0  0
    6.5420   -5.6960   27.7460 C   0  0  0  0  0  0  0  0  0  0  0  0
    6.9330   -6.7990   28.4500 O   0  0  0  0  0  0  0  0  0  0  0  0
    6.0460   -5.9110   26.4760 O   0  0  0  0  0  0  0  0  0  0  0  0
    4.7990   -6.5250   26.2440 C   0  0  0  0  0  0  0  0  0  0  0  0
    6.5470   -3.3470   27.2000 C   0  0  0  0  0  0  0  0  0  0  0  0
    7.2910   -3.0500   23.7610 C   0  0  0  0  0  0  0  0  0  0  0  0
    7.6430   -3.2410   22.2730 C   0  0  0  0  0  0  0  0  0  0  0  0
  1  2  1  0
  2  3  2  0
  2  4  1  0
  4  5  1  0
  5  6  1  0
  6  7  1  0
  7  8  1  0
  8  9  2  0
  8 10  1  0
 10 11  1  0
 11 12  1  0
 12 13  1  6
 13 14  1  0
 14 15  1  0
 15 16  2  0
 15 17  1  0
 18 17  1  0
 18 19  1  0
 18 20  1  0
 18 21  1  0
 12 22  1  0
 22 23  1  0
 23 24  1  6
 24 25  2  0
 24 26  1  0
 26 27  1  0
 10 28  1  0
 23 28  1  0
  7 29  1  0
  4 30  1  0
 29 30  1  0
M  END
