piperidine-amides-10263-covalent
     RDKit          3D

 25 27  0  0  0  0  0  0  0  0999 V2000
    7.0420   -3.3240   19.3080 C   0  0  0  0  0  0  0  0  0  0  0  0
    6.3600   -4.1370   20.3210 C   0  0  0  0  0  0  0  0  0  0  0  0
    5.3290   -4.7560   19.9510 O   0  0  0  0  0  0  0  0  0  0  0  0
    6.8730   -4.2370   21.6170 N   0  0  0  0  0  0  0  0  0  0  0  0
    6.7070   -5.4630   22.3730 C   0  0  0  0  0  0  0  0  0  0  0  0
    6.1230   -5.1240   23.7130 C   0  0  0  0  0  0  0  0  0  0  0  0
    6.1250   -3.6390   23.9440 C   0  0  0  0  0  0  0  0  0  0  0  0
    5.7790   -3.2970   25.3340 C   0  0  0  0  0  0  0  0  0  0  0  0
    4.6270   -3.5760   25.7360 O   0  0  0  0  0  0  0  0  0  0  0  0
    6.6780   -2.6650   26.2160 N   0  0  0  0  0  0  0  0  0  0  0  0
    6.2010   -1.6100   27.0760 C   0  0  1  0  0  0  0  0  0  0  0  0
    7.0640   -1.5590   28.3160 C   0  0  0  0  0  0  0  0  0  0  0  0
    6.8670   -0.5590   29.2130 C   0  0  0  0  0  0  0  0  0  0  0  0
    6.3250    0.6350   28.7680 C   0  0  0  0  0  0  0  0  0  0  0  0
    5.6210    0.6320   27.5560 C   0  0  0  0  0  0  0  0  0  0  0  0
    5.9340   -0.3210   26.5830 C   0  0  2  0  0  0  0  0  0  0  0  0
    5.1650   -0.2420   25.4110 O   0  0  0  0  0  0  0  0  0  0  0  0
    5.6900    0.5280   24.3350 C   0  0  0  0  0  0  0  0  0  0  0  0
    6.4590    1.8200   24.6710 C   0  0  0  0  0  0  0  0  0  0  0  0
    6.9790    2.5670   23.4420 C   0  0  0  0  0  0  0  0  0  0  0  0
    6.7460    2.0670   22.0580 C   0  0  0  0  0  0  0  0  0  0  0  0
    5.9820    0.7950   21.8960 C   0  0  0  0  0  0  0  0  0  0  0  0
    5.5100    0.1150   23.0010 C   0  0  0  0  0  0  0  0  0  0  0  0
    7.5130   -3.1190   23.6320 C   0  0  0  0  0  0  0  0  0  0  0  0
    7.7930   -3.2360   22.1480 C   0  0  0  0  0  0  0  0  0  0  0  0
  1  2  1  0
  2  3  2  0
  2  4  1  0
  4  5  1  0
  5  6  1  0
  6  7  1  0
  7  8  1  0
  8  9  2  0
  8 10  1  0
 11 10  1  6
 11 12  1  0
 12 13  1  0
 13 14  1  0
 14 15  1  0
 11 16  1  0
 15 16  1  0
 16 17  1  6
 17 18  1  0
 18 19  2  0
 19 20  1  0
 20 21  2  0
 21 22  1  0
 18 23  1  0
 22 23  2  0
  7 24  1  0
  4 25  1  0
 24 25  1  0
M  END
