piperidine-amides-12222-covalent
     RDKit          3D

 24 26  0  0  0  0  0  0  0  0999 V2000
    7.0720   -3.3520   19.2960 C   0  0  0  0  0  0  0  0  0  0  0  0
    6.4000   -4.1830   20.2840 C   0  0  0  0  0  0  0  0  0  0  0  0
    5.3740   -4.7900   19.9750 O   0  0  0  0  0  0  0  0  0  0  0  0
    6.9690   -4.3380   21.5910 N   0  0  0  0  0  0  0  0  0  0  0  0
    7.7120   -3.2520   22.1770 C   0  0  0  0  0  0  0  0  0  0  0  0
    6.9270   -2.6620   23.3030 C   0  0  0  0  0  0  0  0  0  0  0  0
    6.5470   -3.7950   24.2380 C   0  0  0  0  0  0  0  0  0  0  0  0
    5.7730   -3.2550   25.3850 C   0  0  0  0  0  0  0  0  0  0  0  0
    4.5440   -3.0530   25.3270 O   0  0  0  0  0  0  0  0  0  0  0  0
    6.4670   -2.9790   26.5810 N   0  0  0  0  0  0  0  0  0  0  0  0
    6.3960   -1.6670   27.1850 C   0  0  0  0  0  0  0  0  0  0  0  0
    7.0300   -1.6080   28.5250 C   0  0  0  0  0  0  0  0  0  0  0  0
    7.0310   -0.4310   29.2140 C   0  0  0  0  0  0  0  0  0  0  0  0
    6.4280    0.7100   28.6390 C   0  0  0  0  0  0  0  0  0  0  0  0
    5.8150    0.7160   27.3800 C   0  0  0  0  0  0  0  0  0  0  0  0
    5.2510    1.9980   26.9770 C   0  0  0  0  0  0  0  0  0  0  0  0
    5.5100    2.5530   25.7460 C   0  0  0  0  0  0  0  0  0  0  0  0
    4.8850    3.7430   25.4310 C   0  0  0  0  0  0  0  0  0  0  0  0
    3.5130    3.5760   25.5450 O   0  0  0  0  0  0  0  0  0  0  0  0
    3.1360    3.1050   26.8100 C   0  0  0  0  0  0  0  0  0  0  0  0
    3.8460    1.8720   27.1630 C   0  0  0  0  0  0  0  0  0  0  0  0
    5.8260   -0.4920   26.6910 C   0  0  0  0  0  0  0  0  0  0  0  0
    5.7230   -4.8570   23.5540 C   0  0  0  0  0  0  0  0  0  0  0  0
    6.4920   -5.3990   22.3940 C   0  0  0  0  0  0  0  0  0  0  0  0
  1  2  1  0
  2  3  2  0
  2  4  1  0
  4  5  1  0
  5  6  1  0
  6  7  1  0
  7  8  1  0
  8  9  2  0
  8 10  1  0
 10 11  1  0
 11 12  2  0
 12 13  1  0
 13 14  2  0
 14 15  1  0
 15 16  1  0
 16 17  1  0
 17 18  1  0
 18 19  1  0
 19 20  1  0
 16 21  1  0
 20 21  1  0
 11 22  1  0
 15 22  2  0
  7 23  1  0
  4 24  1  0
 23 24  1  0
M  END
