piperidine-amides-25446-covalent
     RDKit          3D

 25 28  0  0  0  0  0  0  0  0999 V2000
    6.9840   -3.3660   19.3620 C   0  0  0  0  0  0  0  0  0  0  0  0
    6.3260   -4.2580   20.3580 C   0  0  0  0  0  0  0  0  0  0  0  0
    5.3390   -4.8780   19.9760 O   0  0  0  0  0  0  0  0  0  0  0  0
    6.8430   -4.4020   21.6470 N   0  0  0  0  0  0  0  0  0  0  0  0
    6.6470   -5.6110   22.4200 C   0  0  0  0  0  0  0  0  0  0  0  0
    5.9490   -5.3040   23.7270 C   0  0  0  0  0  0  0  0  0  0  0  0
    5.8650   -3.7910   23.9110 C   0  0  0  0  0  0  0  0  0  0  0  0
    5.2790   -3.4170   25.2280 C   0  0  0  0  0  0  0  0  0  0  0  0
    4.5380   -2.4340   25.2740 O   0  0  0  0  0  0  0  0  0  0  0  0
    5.5130   -4.1160   26.4290 N   0  0  0  0  0  0  0  0  0  0  0  0
    6.8610   -4.2870   26.7700 C   0  0  0  0  0  0  0  0  0  0  0  0
    7.0660   -5.4640   27.7090 C   0  0  0  0  0  0  0  0  0  0  0  0
    6.2810   -5.6930   28.8010 C   0  0  0  0  0  0  0  0  0  0  0  0
    6.1140   -6.5260   29.9060 N   0  0  0  0  0  0  0  0  0  0  0  0
    4.9450   -6.0490   30.6050 C   0  0  0  0  0  0  0  0  0  0  0  0
    4.3730   -6.5020   31.7210 C   0  0  0  0  0  0  0  0  0  0  0  0
    3.1400   -5.9450   32.4010 C   0  0  0  0  0  0  0  0  0  0  0  0
    2.5770   -4.7400   31.6410 C   0  0  0  0  0  0  0  0  0  0  0  0
    1.4340   -4.1170   32.1510 F   0  0  0  0  0  0  0  0  0  0  0  0
    3.2300   -4.2100   30.3520 C   0  0  0  0  0  0  0  0  0  0  0  0
    4.4350   -4.9740   29.9380 C   0  0  0  0  0  0  0  0  0  0  0  0
    5.3110   -4.7350   28.7430 C   0  0  0  0  0  0  0  0  0  0  0  0
    5.0610   -3.6310   27.7420 C   0  0  0  0  0  0  0  0  0  0  0  0
    7.2450   -3.2430   23.7230 C   0  0  0  0  0  0  0  0  0  0  0  0
    7.5880   -3.3250   22.2700 C   0  0  0  0  0  0  0  0  0  0  0  0
  1  2  1  0
  2  3  2  0
  2  4  1  0
  4  5  1  0
  5  6  1  0
  6  7  1  0
  7  8  1  0
  8  9  2  0
  8 10  1  0
 10 11  1  0
 11 12  1  0
 12 13  1  0
 13 14  1  0
 14 15  1  0
 15 16  2  0
 16 17  1  0
 17 18  2  0
 18 19  1  0
 18 20  1  0
 15 21  1  0
 20 21  2  0
 13 22  2  0
 21 22  1  0
 10 23  1  0
 22 23  1  0
  7 24  1  0
  4 25  1  0
 24 25  1  0
M  END
