piperidine-amides-10548-covalent
     RDKit          3D

 23 25  0  0  0  0  0  0  0  0999 V2000
    7.1140   -3.2620   19.2000 C   0  0  0  0  0  0  0  0  0  0  0  0
    6.3670   -4.0080   20.2200 C   0  0  0  0  0  0  0  0  0  0  0  0
    5.2730   -4.5150   19.8660 O   0  0  0  0  0  0  0  0  0  0  0  0
    6.8990   -4.1850   21.4930 N   0  0  0  0  0  0  0  0  0  0  0  0
    7.7630   -3.1810   22.0740 C   0  0  0  0  0  0  0  0  0  0  0  0
    7.1260   -2.6860   23.3310 C   0  0  0  0  0  0  0  0  0  0  0  0
    6.6770   -3.8320   24.1810 C   0  0  0  0  0  0  0  0  0  0  0  0
    5.8330   -3.3390   25.2900 C   0  0  0  0  0  0  0  0  0  0  0  0
    4.6170   -3.1550   25.0680 O   0  0  0  0  0  0  0  0  0  0  0  0
    6.3220   -3.0660   26.5780 N   0  0  0  0  0  0  0  0  0  0  0  0
    5.4570   -3.2270   27.7160 C   0  0  1  0  0  0  0  0  0  0  0  0
    6.1610   -3.3590   28.9950 C   0  0  0  0  0  0  0  0  0  0  0  0
    5.5070   -2.2790   29.4010 C   0  0  2  0  0  0  0  0  0  0  0  0
    4.6330   -2.2490   30.4690 C   0  0  0  0  0  0  0  0  0  0  0  0
    4.5550   -1.2200   31.3810 C   0  0  0  0  0  0  0  0  0  0  0  0
    3.6560   -1.2890   32.4150 C   0  0  0  0  0  0  0  0  0  0  0  0
    2.8080   -2.3610   32.5720 C   0  0  0  0  0  0  0  0  0  0  0  0
    2.7660   -3.5710   31.6560 C   0  0  0  0  0  0  0  0  0  0  0  0
    1.9320   -4.6280   31.8120 F   0  0  0  0  0  0  0  0  0  0  0  0
    3.8190   -3.3660   30.5500 C   0  0  0  0  0  0  0  0  0  0  0  0
    4.7440   -1.9510   28.2470 C   0  0  0  0  0  0  0  0  0  0  0  0
    5.8770   -4.8400   23.4030 C   0  0  0  0  0  0  0  0  0  0  0  0
    6.5580   -5.3430   22.3190 C   0  0  0  0  0  0  0  0  0  0  0  0
  1  2  1  0
  2  3  2  0
  2  4  1  0
  4  5  1  0
  5  6  1  0
  6  7  1  0
  7  8  1  0
  8  9  2  0
  8 10  1  0
 11 10  1  6
 11 12  1  0
 12 13  1  0
 13 14  1  1
 14 15  2  0
 15 16  1  0
 16 17  2  0
 17 18  1  0
 18 19  1  0
 14 20  1  0
 18 20  2  0
 11 21  1  0
 13 21  1  0
  7 22  1  0
  4 23  1  0
 22 23  1  0
M  END
