piperidine-amides-25710-covalent
     RDKit          3D

 25 28  0  0  0  0  0  0  0  0999 V2000
    7.0840   -3.3510   19.3270 C   0  0  0  0  0  0  0  0  0  0  0  0
    6.4280   -4.2320   20.3230 C   0  0  0  0  0  0  0  0  0  0  0  0
    5.3850   -4.7860   19.9720 O   0  0  0  0  0  0  0  0  0  0  0  0
    7.0200   -4.4560   21.5700 N   0  0  0  0  0  0  0  0  0  0  0  0
    6.5990   -5.5350   22.4020 C   0  0  0  0  0  0  0  0  0  0  0  0
    5.6510   -4.9830   23.4300 C   0  0  0  0  0  0  0  0  0  0  0  0
    6.2870   -3.8140   24.2040 C   0  0  0  0  0  0  0  0  0  0  0  0
    5.2330   -3.2140   25.0440 C   0  0  0  0  0  0  0  0  0  0  0  0
    4.2720   -2.6750   24.5040 O   0  0  0  0  0  0  0  0  0  0  0  0
    5.3050   -3.2500   26.4380 N   0  0  0  0  0  0  0  0  0  0  0  0
    6.5260   -3.3340   27.0510 C   0  0  1  0  0  0  0  0  0  0  0  0
    6.3920   -2.0380   27.7700 C   0  0  0  0  0  0  0  0  0  0  0  0
    5.1160   -1.6050   27.8080 C   0  0  0  0  0  0  0  0  0  0  0  0
    4.4050   -2.6790   27.3490 C   0  0  2  0  0  0  0  0  0  0  0  0
    4.2440   -3.5860   28.3350 C   0  0  0  0  0  0  0  0  0  0  0  0
    5.4960   -4.1080   29.0020 C   0  0  1  0  0  0  0  0  0  0  0  0
    4.6300   -5.2330   29.4860 C   0  0  0  0  0  0  0  0  0  0  0  0
    3.4270   -4.8050   30.2050 C   0  0  0  0  0  0  0  0  0  0  0  0
    2.7250   -5.8280   30.5870 N   0  0  0  0  0  0  0  0  0  0  0  0
    3.4160   -6.9140   30.1470 N   0  0  0  0  0  0  0  0  0  0  0  0
    2.8430   -8.1900   30.4390 C   0  0  0  0  0  0  0  0  0  0  0  0
    4.6520   -6.5600   29.4360 C   0  0  0  0  0  0  0  0  0  0  0  0
    6.5830   -4.4900   28.0560 C   0  0  0  0  0  0  0  0  0  0  0  0
    6.8720   -2.7670   23.2780 C   0  0  0  0  0  0  0  0  0  0  0  0
    7.7520   -3.4060   22.2490 C   0  0  0  0  0  0  0  0  0  0  0  0
  1  2  1  0
  2  3  2  0
  2  4  1  0
  4  5  1  0
  5  6  1  0
  6  7  1  0
  7  8  1  0
  8  9  2  0
  8 10  1  0
 10 11  1  0
 11 12  1  1
 12 13  1  0
 10 14  1  0
 14 13  1  1
 14 15  1  0
 15 16  1  0
 16 17  1  6
 17 18  1  0
 18 19  2  0
 19 20  1  0
 20 21  1  0
 17 22  2  0
 20 22  1  0
 11 23  1  0
 16 23  1  0
  7 24  1  0
  4 25  1  0
 24 25  1  0
M  END
