piperidine-amides-8456-covalent
     RDKit          3D

 24 25  0  0  0  0  0  0  0  0999 V2000
    7.0640   -3.3380   19.3140 C   0  0  0  0  0  0  0  0  0  0  0  0
    6.4060   -4.1780   20.3130 C   0  0  0  0  0  0  0  0  0  0  0  0
    5.3830   -4.8010   19.9720 O   0  0  0  0  0  0  0  0  0  0  0  0
    6.9660   -4.3060   21.6110 N   0  0  0  0  0  0  0  0  0  0  0  0
    7.7280   -3.2180   22.1570 C   0  0  0  0  0  0  0  0  0  0  0  0
    6.9600   -2.6150   23.2810 C   0  0  0  0  0  0  0  0  0  0  0  0
    6.5690   -3.7680   24.1630 C   0  0  0  0  0  0  0  0  0  0  0  0
    5.7880   -3.2570   25.3350 C   0  0  0  0  0  0  0  0  0  0  0  0
    4.5890   -3.0520   25.1550 O   0  0  0  0  0  0  0  0  0  0  0  0
    6.4670   -3.0560   26.5290 N   0  0  0  0  0  0  0  0  0  0  0  0
    6.4600   -1.8170   27.2410 C   0  0  0  0  0  0  0  0  0  0  0  0
    7.0060   -1.6470   28.5360 C   0  0  0  0  0  0  0  0  0  0  0  0
    6.9950   -0.4440   29.2420 C   0  0  0  0  0  0  0  0  0  0  0  0
    6.4310    0.7220   28.7220 C   0  0  0  0  0  0  0  0  0  0  0  0
    6.5760    1.8280   29.7320 C   0  0  0  0  0  0  0  0  0  0  0  0
    6.1390    1.6060   31.3990 S   0  0  0  0  0  0  0  0  0  0  0  0
    5.1320    2.6220   31.8830 O   0  0  0  0  0  0  0  0  0  0  0  0
    5.5430    0.2490   31.5940 O   0  0  0  0  0  0  0  0  0  0  0  0
    7.5610    1.6580   32.4760 C   0  0  0  0  0  0  0  0  0  0  0  0
    7.6890    0.3220   33.1040 C   0  0  0  0  0  0  0  0  0  0  0  0
    5.8540    0.7110   27.4430 C   0  0  0  0  0  0  0  0  0  0  0  0
    5.8620   -0.5990   26.6620 C   0  0  0  0  0  0  0  0  0  0  0  0
    5.6730   -4.7240   23.4000 C   0  0  0  0  0  0  0  0  0  0  0  0
    6.5250   -5.3440   22.5090 C   0  0  0  0  0  0  0  0  0  0  0  0
  1  2  1  0
  2  3  2  0
  2  4  1  0
  4  5  1  0
  5  6  1  0
  6  7  1  0
  7  8  1  0
  8  9  2  0
  8 10  1  0
 10 11  1  0
 11 12  2  0
 12 13  1  0
 13 14  2  0
 14 15  1  0
 16 15  1  0
 16 17  2  0
 16 18  2  0
 16 19  1  0
 19 20  1  0
 14 21  1  0
 11 22  1  0
 21 22  2  0
  7 23  1  0
  4 24  1  0
 23 24  1  0
M  END
