piperidine-amides-8867-covalent
     RDKit          3D

 22 23  0  0  0  0  0  0  0  0999 V2000
    7.0350   -3.3100   19.3170 C   0  0  0  0  0  0  0  0  0  0  0  0
    6.3570   -4.1220   20.3310 C   0  0  0  0  0  0  0  0  0  0  0  0
    5.3680   -4.7840   19.9660 O   0  0  0  0  0  0  0  0  0  0  0  0
    6.8300   -4.1820   21.6730 N   0  0  0  0  0  0  0  0  0  0  0  0
    6.6710   -5.4130   22.3970 C   0  0  0  0  0  0  0  0  0  0  0  0
    6.0740   -5.1090   23.7370 C   0  0  0  0  0  0  0  0  0  0  0  0
    6.0890   -3.6050   23.8460 C   0  0  0  0  0  0  0  0  0  0  0  0
    5.6120   -3.1570   25.2050 C   0  0  0  0  0  0  0  0  0  0  0  0
    4.4040   -2.9580   25.2910 O   0  0  0  0  0  0  0  0  0  0  0  0
    6.5040   -2.9980   26.2650 N   0  0  0  0  0  0  0  0  0  0  0  0
    6.1590   -3.4420   27.5840 C   0  0  0  0  0  0  0  0  0  0  0  0
    5.9450   -2.4370   28.5460 C   0  0  0  0  0  0  0  0  0  0  0  0
    4.7530   -2.3350   29.2520 C   0  0  0  0  0  0  0  0  0  0  0  0
    4.5770   -1.3350   30.2020 C   0  0  0  0  0  0  0  0  0  0  0  0
    3.2130   -1.4560   30.8110 C   0  0  0  0  0  0  0  0  0  0  0  0
    5.5760   -0.4460   30.4470 C   0  0  0  0  0  0  0  0  0  0  0  0
    6.8430   -0.5330   29.7120 C   0  0  0  0  0  0  0  0  0  0  0  0
    7.7920    0.2660   29.9130 O   0  0  0  0  0  0  0  0  0  0  0  0
    8.1700    0.2900   31.2530 C   0  0  0  0  0  0  0  0  0  0  0  0
    6.9660   -1.5300   28.7900 C   0  0  0  0  0  0  0  0  0  0  0  0
    7.5030   -3.1280   23.6180 C   0  0  0  0  0  0  0  0  0  0  0  0
    7.6530   -3.1230   22.2390 C   0  0  0  0  0  0  0  0  0  0  0  0
  1  2  1  0
  2  3  2  0
  2  4  1  0
  4  5  1  0
  5  6  1  0
  6  7  1  0
  7  8  1  0
  8  9  2  0
  8 10  1  0
 10 11  1  0
 11 12  1  0
 12 13  2  0
 13 14  1  0
 14 15  1  0
 14 16  2  0
 16 17  1  0
 17 18  1  0
 18 19  1  0
 12 20  1  0
 17 20  2  0
  7 21  1  0
  4 22  1  0
 21 22  1  0
M  END
