piperidine-amides-27915-covalent
     RDKit          3D

 25 27  0  0  0  0  0  0  0  0999 V2000
    7.0350   -3.3560   19.3300 C   0  0  0  0  0  0  0  0  0  0  0  0
    6.3930   -4.2000   20.3630 C   0  0  0  0  0  0  0  0  0  0  0  0
    5.3880   -4.8420   19.9870 O   0  0  0  0  0  0  0  0  0  0  0  0
    6.9160   -4.3040   21.6680 N   0  0  0  0  0  0  0  0  0  0  0  0
    6.6560   -5.4680   22.4540 C   0  0  0  0  0  0  0  0  0  0  0  0
    6.1400   -5.1450   23.7840 C   0  0  0  0  0  0  0  0  0  0  0  0
    6.0870   -3.6920   24.0290 C   0  0  0  0  0  0  0  0  0  0  0  0
    5.5480   -3.3710   25.3840 C   0  0  0  0  0  0  0  0  0  0  0  0
    4.3080   -3.3390   25.4760 O   0  0  0  0  0  0  0  0  0  0  0  0
    6.3090   -3.0910   26.5450 N   0  0  0  0  0  0  0  0  0  0  0  0
    6.2470   -4.0540   27.6780 C   0  0  0  0  0  0  0  0  0  0  0  0
    5.8590   -5.4500   27.3160 C   0  0  0  0  0  0  0  0  0  0  0  0
    5.2960   -6.2560   28.3780 C   0  0  0  0  0  0  0  0  0  0  0  0
    3.9830   -6.6700   28.3540 C   0  0  0  0  0  0  0  0  0  0  0  0
    3.4370   -7.4300   29.3660 C   0  0  0  0  0  0  0  0  0  0  0  0
    4.2360   -7.7670   30.4060 C   0  0  0  0  0  0  0  0  0  0  0  0
    5.5350   -7.3630   30.4300 C   0  0  0  0  0  0  0  0  0  0  0  0
    6.0870   -6.6140   29.4380 C   0  0  0  0  0  0  0  0  0  0  0  0
    6.3420   -1.7360   26.9940 C   0  0  0  0  0  0  0  0  0  0  0  0
    5.9510   -0.5900   26.3130 N   0  0  0  0  0  0  0  0  0  0  0  0
    6.0320    0.5850   26.8740 N   0  0  0  0  0  0  0  0  0  0  0  0
    6.5090    0.5860   28.1250 C   0  0  0  0  0  0  0  0  0  0  0  0
    6.8430   -1.0520   28.5040 S   0  0  0  0  0  0  0  0  0  0  0  0
    7.3610   -2.9940   23.7020 C   0  0  0  0  0  0  0  0  0  0  0  0
    7.7220   -3.2380   22.2570 C   0  0  0  0  0  0  0  0  0  0  0  0
  1  2  1  0
  2  3  2  0
  2  4  1  0
  4  5  1  0
  5  6  1  0
  6  7  1  0
  7  8  1  0
  8  9  2  0
  8 10  1  0
 10 11  1  0
 11 12  1  0
 12 13  1  0
 13 14  2  0
 14 15  1  0
 15 16  2  0
 16 17  1  0
 13 18  1  0
 17 18  2  0
 10 19  1  0
 19 20  2  0
 20 21  1  0
 21 22  2  0
 19 23  1  0
 22 23  1  0
  7 24  1  0
  4 25  1  0
 24 25  1  0
M  END
