piperidine-amides-5483-covalent
     RDKit          3D

 19 20  0  0  0  0  0  0  0  0999 V2000
    7.1410   -3.3090   19.2630 C   0  0  0  0  0  0  0  0  0  0  0  0
    6.3670   -4.0340   20.2700 C   0  0  0  0  0  0  0  0  0  0  0  0
    5.3300   -4.6250   19.9230 O   0  0  0  0  0  0  0  0  0  0  0  0
    6.8130   -4.1030   21.5980 N   0  0  0  0  0  0  0  0  0  0  0  0
    7.7190   -3.0950   22.1200 C   0  0  0  0  0  0  0  0  0  0  0  0
    7.4580   -3.0310   23.5930 C   0  0  0  0  0  0  0  0  0  0  0  0
    6.1170   -3.6160   23.9120 C   0  0  0  0  0  0  0  0  0  0  0  0
    5.6890   -3.3850   25.3090 C   0  0  0  0  0  0  0  0  0  0  0  0
    4.4770   -3.5630   25.6320 O   0  0  0  0  0  0  0  0  0  0  0  0
    6.5720   -2.9560   26.3190 N   0  0  0  0  0  0  0  0  0  0  0  0
    6.1700   -2.9880   27.7390 C   0  0  0  0  0  0  0  0  0  0  0  0
    5.7110   -1.6110   28.0600 C   0  0  2  0  0  0  0  0  0  0  0  0
    5.1810   -0.9620   27.1240 O   0  0  0  0  0  0  0  0  0  0  0  0
    6.8110   -0.7000   28.4820 C   0  0  0  0  0  0  0  0  0  0  0  0
    7.0240   -0.5660   29.9610 C   0  0  0  0  0  0  0  0  0  0  0  0
    5.3980   -0.9370   30.5470 S   0  0  0  0  0  0  0  0  0  0  0  0
    4.6280   -1.6160   29.1130 C   0  0  0  0  0  0  0  0  0  0  0  0
    6.1260   -5.0750   23.5990 C   0  0  0  0  0  0  0  0  0  0  0  0
    6.5200   -5.3170   22.3060 C   0  0  0  0  0  0  0  0  0  0  0  0
  1  2  1  0
  2  3  2  0
  2  4  1  0
  4  5  1  0
  5  6  1  0
  6  7  1  0
  7  8  1  0
  8  9  2  0
  8 10  1  0
 10 11  1  0
 11 12  1  0
 12 13  1  6
 12 14  1  0
 14 15  1  0
 15 16  1  0
 12 17  1  0
 16 17  1  0
  7 18  1  0
  4 19  1  0
 18 19  1  0
M  END
