piperidine-amides-25970-covalent
     RDKit          3D

 23 24  0  0  0  0  0  0  0  0999 V2000
    7.0280   -3.3890   19.3670 C   0  0  0  0  0  0  0  0  0  0  0  0
    6.3070   -4.2180   20.3370 C   0  0  0  0  0  0  0  0  0  0  0  0
    5.3140   -4.8560   19.9650 O   0  0  0  0  0  0  0  0  0  0  0  0
    6.7390   -4.3360   21.6590 N   0  0  0  0  0  0  0  0  0  0  0  0
    6.6600   -5.5660   22.4250 C   0  0  0  0  0  0  0  0  0  0  0  0
    5.8830   -5.2370   23.6790 C   0  0  0  0  0  0  0  0  0  0  0  0
    6.0260   -3.7990   24.0750 C   0  0  0  0  0  0  0  0  0  0  0  0
    5.7240   -3.4800   25.5110 C   0  0  0  0  0  0  0  0  0  0  0  0
    4.6560   -2.8390   25.7380 O   0  0  0  0  0  0  0  0  0  0  0  0
    6.4880   -3.8100   26.6860 N   0  0  0  0  0  0  0  0  0  0  0  0
    6.0360   -3.1310   27.9240 C   0  0  0  0  0  0  0  0  0  0  0  0
    5.6590   -4.1060   28.9890 C   0  0  0  0  0  0  0  0  0  0  0  0
    5.0990   -5.2280   28.4880 N   0  0  0  0  0  0  0  0  0  0  0  0
    4.6580   -6.2330   29.6190 S   0  0  0  0  0  0  0  0  0  0  0  0
    4.5510   -7.8500   28.9180 C   0  0  0  0  0  0  0  0  0  0  0  0
    5.6460   -6.2080   30.7150 O   0  0  0  0  0  0  0  0  0  0  0  0
    3.2840   -5.8310   30.1170 O   0  0  0  0  0  0  0  0  0  0  0  0
    5.8070   -5.8820   27.3440 C   0  0  0  0  0  0  0  0  0  0  0  0
    7.0150   -5.1290   26.9630 C   0  0  0  0  0  0  0  0  0  0  0  0
    7.7520   -5.4120   28.2310 C   0  0  0  0  0  0  0  0  0  0  0  0
    7.9130   -5.6590   25.8370 C   0  0  0  0  0  0  0  0  0  0  0  0
    7.3550   -3.2420   23.6870 C   0  0  0  0  0  0  0  0  0  0  0  0
    7.5550   -3.2720   22.2000 C   0  0  0  0  0  0  0  0  0  0  0  0
  1  2  1  0
  2  3  2  0
  2  4  1  0
  4  5  1  0
  5  6  1  0
  6  7  1  0
  7  8  1  0
  8  9  2  0
  8 10  1  0
 10 11  1  0
 11 12  1  0
 12 13  1  0
 13 14  1  0
 14 15  1  0
 14 16  2  0
 14 17  2  0
 13 18  1  0
 10 19  1  0
 18 19  1  0
 19 20  1  0
 19 21  1  0
  7 22  1  0
  4 23  1  0
 22 23  1  0
M  END
