piperidine-amides-5441-covalent
     RDKit          3D

 20 21  0  0  0  0  0  0  0  0999 V2000
    7.0960   -3.2610   19.1760 C   0  0  0  0  0  0  0  0  0  0  0  0
    6.3210   -3.9970   20.1830 C   0  0  0  0  0  0  0  0  0  0  0  0
    5.2430   -4.5160   19.8590 O   0  0  0  0  0  0  0  0  0  0  0  0
    6.7820   -4.1820   21.4890 N   0  0  0  0  0  0  0  0  0  0  0  0
    6.4740   -5.3720   22.2480 C   0  0  0  0  0  0  0  0  0  0  0  0
    5.8870   -4.8790   23.5440 C   0  0  0  0  0  0  0  0  0  0  0  0
    6.7940   -3.8800   24.2040 C   0  0  0  0  0  0  0  0  0  0  0  0
    6.3130   -3.3400   25.4900 C   0  0  0  0  0  0  0  0  0  0  0  0
    5.0800   -3.0680   25.6700 O   0  0  0  0  0  0  0  0  0  0  0  0
    7.2210   -3.0980   26.5480 N   0  0  0  0  0  0  0  0  0  0  0  0
    7.1340   -3.7920   27.8500 C   0  0  0  0  0  0  0  0  0  0  0  0
    6.6480   -5.1800   27.6590 C   0  0  2  0  0  0  0  0  0  0  0  0
    7.3720   -6.0420   27.0970 O   0  0  0  0  0  0  0  0  0  0  0  0
    8.7050   -5.8010   27.0230 C   0  0  0  0  0  0  0  0  0  0  0  0
    5.2100   -5.2290   27.1550 C   0  0  0  0  0  0  0  0  0  0  0  0
    4.5640   -6.5950   27.2450 C   0  0  0  0  0  0  0  0  0  0  0  0
    5.2330   -7.2230   28.7870 S   0  0  0  0  0  0  0  0  0  0  0  0
    6.2560   -5.7300   29.0130 C   0  0  0  0  0  0  0  0  0  0  0  0
    7.0380   -2.7320   23.2510 C   0  0  0  0  0  0  0  0  0  0  0  0
    7.6310   -3.1700   22.0770 C   0  0  0  0  0  0  0  0  0  0  0  0
  1  2  1  0
  2  3  2  0
  2  4  1  0
  4  5  1  0
  5  6  1  0
  6  7  1  0
  7  8  1  0
  8  9  2  0
  8 10  1  0
 10 11  1  0
 12 11  1  1
 12 13  1  0
 13 14  1  0
 12 15  1  0
 15 16  1  0
 16 17  1  0
 12 18  1  0
 17 18  1  0
  7 19  1  0
  4 20  1  0
 19 20  1  0
M  END
