piperidine-amides-27191-covalent
     RDKit          3D

 24 25  0  0  0  0  0  0  0  0999 V2000
    7.0470   -3.3310   19.3580 C   0  0  0  0  0  0  0  0  0  0  0  0
    6.3900   -4.1540   20.3820 C   0  0  0  0  0  0  0  0  0  0  0  0
    5.4060   -4.8390   19.9870 O   0  0  0  0  0  0  0  0  0  0  0  0
    6.8710   -4.1990   21.7080 N   0  0  0  0  0  0  0  0  0  0  0  0
    7.7840   -3.1820   22.2180 C   0  0  0  0  0  0  0  0  0  0  0  0
    7.4470   -2.9170   23.6600 C   0  0  0  0  0  0  0  0  0  0  0  0
    6.1070   -3.5130   23.9530 C   0  0  0  0  0  0  0  0  0  0  0  0
    5.5680   -3.1670   25.2990 C   0  0  0  0  0  0  0  0  0  0  0  0
    4.3190   -3.1410   25.3920 O   0  0  0  0  0  0  0  0  0  0  0  0
    6.2880   -2.8630   26.4840 N   0  0  0  0  0  0  0  0  0  0  0  0
    6.1610   -3.8230   27.5640 C   0  0  0  0  0  0  0  0  0  0  0  0
    5.8420   -5.2220   27.0560 C   0  0  0  0  0  0  0  0  0  0  0  0
    6.4100   -6.2200   27.5500 O   0  0  0  0  0  0  0  0  0  0  0  0
    6.5120   -6.1620   28.9170 C   0  0  0  0  0  0  0  0  0  0  0  0
    6.3060   -1.4970   26.9960 C   0  0  0  0  0  0  0  0  0  0  0  0
    5.8580   -0.4680   26.1990 C   0  0  0  0  0  0  0  0  0  0  0  0
    5.8110    0.8690   26.5720 C   0  0  0  0  0  0  0  0  0  0  0  0
    5.2180    2.1010   25.4710 Cl  0  0  0  0  0  0  0  0  0  0  0  0
    6.2360    1.2460   27.8280 C   0  0  0  0  0  0  0  0  0  0  0  0
    6.7500    0.2200   28.7940 C   0  0  0  0  0  0  0  0  0  0  0  0
    6.7460   -1.1990   28.2590 C   0  0  0  0  0  0  0  0  0  0  0  0
    7.2270   -2.2270   29.1770 C   0  0  0  0  0  0  0  0  0  0  0  0
    6.1330   -5.0100   23.7640 C   0  0  0  0  0  0  0  0  0  0  0  0
    6.6830   -5.3900   22.5480 C   0  0  0  0  0  0  0  0  0  0  0  0
  1  2  1  0
  2  3  2  0
  2  4  1  0
  4  5  1  0
  5  6  1  0
  6  7  1  0
  7  8  1  0
  8  9  2  0
  8 10  1  0
 10 11  1  0
 11 12  1  0
 12 13  1  0
 13 14  1  0
 10 15  1  0
 15 16  2  0
 16 17  1  0
 17 18  1  0
 17 19  2  0
 19 20  1  0
 15 21  1  0
 20 21  2  0
 21 22  1  0
  7 23  1  0
  4 24  1  0
 23 24  1  0
M  END
