piperidine-amides-27658-covalent
     RDKit          3D

 26 28  0  0  0  0  0  0  0  0999 V2000
    7.0570   -3.3410   19.3520 C   0  0  0  0  0  0  0  0  0  0  0  0
    6.3880   -4.1880   20.3460 C   0  0  0  0  0  0  0  0  0  0  0  0
    5.3400   -4.7730   19.9650 O   0  0  0  0  0  0  0  0  0  0  0  0
    6.9340   -4.3710   21.6260 N   0  0  0  0  0  0  0  0  0  0  0  0
    6.6800   -5.6080   22.3400 C   0  0  0  0  0  0  0  0  0  0  0  0
    6.3300   -5.2980   23.7710 C   0  0  0  0  0  0  0  0  0  0  0  0
    6.0870   -3.8330   23.9680 C   0  0  0  0  0  0  0  0  0  0  0  0
    5.4480   -3.5610   25.2810 C   0  0  0  0  0  0  0  0  0  0  0  0
    4.3640   -2.9500   25.2450 O   0  0  0  0  0  0  0  0  0  0  0  0
    5.9220   -3.9510   26.5470 N   0  0  0  0  0  0  0  0  0  0  0  0
    6.7190   -5.1520   26.6770 C   0  0  0  0  0  0  0  0  0  0  0  0
    6.4980   -5.4620   28.1140 C   0  0  0  0  0  0  0  0  0  0  0  0
    5.7050   -4.5120   28.6770 C   0  0  0  0  0  0  0  0  0  0  0  0
    5.1790   -3.5710   27.7730 C   0  0  1  0  0  0  0  0  0  0  0  0
    5.2890   -2.1940   28.0320 C   0  0  0  0  0  0  0  0  0  0  0  0
    5.0190   -1.2110   27.0510 C   0  0  0  0  0  0  0  0  0  0  0  0
    5.1410    0.1530   27.3210 C   0  0  0  0  0  0  0  0  0  0  0  0
    5.5760    0.5680   28.6980 C   0  0  0  0  0  0  0  0  0  0  0  0
    5.6490    2.0930   28.7750 C   0  0  0  0  0  0  0  0  0  0  0  0
    6.2620    2.7940   27.5770 C   0  0  0  0  0  0  0  0  0  0  0  0
    4.2680    2.8410   28.9380 C   0  0  0  0  0  0  0  0  0  0  0  0
    6.3770    2.4280   30.0560 C   0  0  0  0  0  0  0  0  0  0  0  0
    5.8420   -0.3600   29.6710 C   0  0  0  0  0  0  0  0  0  0  0  0
    5.6840   -1.8070   29.2960 C   0  0  0  0  0  0  0  0  0  0  0  0
    7.3080   -3.0690   23.6240 C   0  0  0  0  0  0  0  0  0  0  0  0
    7.7020   -3.2980   22.2210 C   0  0  0  0  0  0  0  0  0  0  0  0
  1  2  1  0
  2  3  2  0
  2  4  1  0
  4  5  1  0
  5  6  1  0
  6  7  1  0
  7  8  1  0
  8  9  2  0
  8 10  1  0
 10 11  1  0
 11 12  1  0
 12 13  1  0
 10 14  1  0
 13 14  1  0
 14 15  1  1
 15 16  2  0
 16 17  1  0
 17 18  2  0
 18 19  1  0
 19 20  1  0
 19 21  1  0
 19 22  1  0
 18 23  1  0
 15 24  1  0
 23 24  2  0
  7 25  1  0
  4 26  1  0
 25 26  1  0
M  END
