piperidine-amides-35469-covalent
     RDKit          3D

 34 36  0  0  0  0  0  0  0  0999 V2000
    7.0990   -3.2740   19.2300 C   0  0  0  0  0  0  0  0  0  0  0  0
    6.3480   -4.0760   20.2320 C   0  0  0  0  0  0  0  0  0  0  0  0
    5.2810   -4.5640   19.8830 O   0  0  0  0  0  0  0  0  0  0  0  0
    6.8920   -4.2880   21.4980 N   0  0  0  0  0  0  0  0  0  0  0  0
    7.6690   -3.2780   22.1380 C   0  0  0  0  0  0  0  0  0  0  0  0
    6.8620   -2.7180   23.2650 C   0  0  0  0  0  0  0  0  0  0  0  0
    6.2700   -3.8510   24.1160 C   0  0  0  0  0  0  0  0  0  0  0  0
    5.3810   -3.1930   25.0930 C   0  0  0  0  0  0  0  0  0  0  0  0
    4.1840   -3.0430   24.8310 O   0  0  0  0  0  0  0  0  0  0  0  0
    5.8730   -2.7490   26.3210 N   0  0  0  0  0  0  0  0  0  0  0  0
    6.2410   -3.7740   27.2420 C   0  0  0  0  0  0  0  0  0  0  0  0
    7.5670   -4.2790   26.7880 C   0  0  0  0  0  0  0  0  0  0  0  0
    8.1980   -5.5380   27.0370 C   0  0  0  0  0  0  0  0  0  0  0  0
    9.4410   -6.0160   26.6320 C   0  0  0  0  0  0  0  0  0  0  0  0
   10.2630   -5.2660   25.8980 C   0  0  0  0  0  0  0  0  0  0  0  0
    9.7620   -3.9890   25.5670 C   0  0  0  0  0  0  0  0  0  0  0  0
   10.4210   -2.9110   24.7650 C   0  0  0  0  0  0  0  0  0  0  0  0
    9.6550   -2.5970   23.6470 F   0  0  0  0  0  0  0  0  0  0  0  0
   10.4980   -1.7650   25.5160 F   0  0  0  0  0  0  0  0  0  0  0  0
   11.7120   -3.2180   24.4130 F   0  0  0  0  0  0  0  0  0  0  0  0
    8.5100   -3.3840   25.9050 C   0  0  0  0  0  0  0  0  0  0  0  0
    6.5250   -1.4490   26.3050 C   0  0  0  0  0  0  0  0  0  0  0  0
    5.4970   -0.4250   25.9740 C   0  0  0  0  0  0  0  0  0  0  0  0
    4.0830   -0.5550   26.4800 C   0  0  0  0  0  0  0  0  0  0  0  0
    3.0690    0.4590   26.1500 C   0  0  0  0  0  0  0  0  0  0  0  0
    3.5210    1.6120   25.2930 C   0  0  0  0  0  0  0  0  0  0  0  0
    4.8230    1.7420   24.8210 C   0  0  0  0  0  0  0  0  0  0  0  0
    5.3310    2.8780   23.9600 C   0  0  0  0  0  0  0  0  0  0  0  0
    4.9710    4.0630   24.6490 F   0  0  0  0  0  0  0  0  0  0  0  0
    4.6000    2.9290   22.8110 F   0  0  0  0  0  0  0  0  0  0  0  0
    6.6600    2.8780   23.6740 F   0  0  0  0  0  0  0  0  0  0  0  0
    5.8180    0.6640   25.1960 C   0  0  0  0  0  0  0  0  0  0  0  0
    5.5170   -4.8290   23.2180 C   0  0  0  0  0  0  0  0  0  0  0  0
    6.4360   -5.3450   22.3540 C   0  0  0  0  0  0  0  0  0  0  0  0
  1  2  1  0
  2  3  2  0
  2  4  1  0
  4  5  1  0
  5  6  1  0
  6  7  1  0
  7  8  1  0
  8  9  2  0
  8 10  1  0
 10 11  1  0
 11 12  1  0
 12 13  2  0
 13 14  1  0
 14 15  2  0
 15 16  1  0
 16 17  1  0
 17 18  1  0
 17 19  1  0
 17 20  1  0
 12 21  1  0
 16 21  2  0
 10 22  1  0
 22 23  1  0
 23 24  2  0
 24 25  1  0
 25 26  2  0
 26 27  1  0
 27 28  1  0
 28 29  1  0
 28 30  1  0
 28 31  1  0
 23 32  1  0
 27 32  2  0
  7 33  1  0
  4 34  1  0
 33 34  1  0
M  END
