piperidine-amides-3043-covalent
     RDKit          3D

 23 23  0  0  0  0  0  0  0  0999 V2000
    7.1190   -3.2710   19.2450 C   0  0  0  0  0  0  0  0  0  0  0  0
    6.3600   -4.0420   20.2230 C   0  0  0  0  0  0  0  0  0  0  0  0
    5.3010   -4.5770   19.8970 O   0  0  0  0  0  0  0  0  0  0  0  0
    6.8770   -4.2310   21.5520 N   0  0  0  0  0  0  0  0  0  0  0  0
    6.5810   -5.4400   22.2670 C   0  0  0  0  0  0  0  0  0  0  0  0
    6.4170   -5.1310   23.7310 C   0  0  0  0  0  0  0  0  0  0  0  0
    5.9750   -3.6830   23.8680 C   0  0  0  0  0  0  0  0  0  0  0  0
    5.6930   -3.3580   25.2950 C   0  0  0  0  0  0  0  0  0  0  0  0
    4.6030   -2.8620   25.6400 O   0  0  0  0  0  0  0  0  0  0  0  0
    6.6720   -3.6050   26.2880 N   0  0  0  0  0  0  0  0  0  0  0  0
    6.9320   -4.9670   26.7220 C   0  0  2  0  0  0  0  0  0  0  0  0
    5.7150   -5.7840   26.4640 C   0  0  0  0  0  0  0  0  0  0  0  0
    7.1380   -5.0660   28.1800 C   0  0  0  0  0  0  0  0  0  0  0  0
    6.1860   -5.7070   28.9810 C   0  0  0  0  0  0  0  0  0  0  0  0
    4.9630   -5.1080   29.2000 C   0  0  0  0  0  0  0  0  0  0  0  0
    4.9210   -3.9730   29.7060 O   0  0  0  0  0  0  0  0  0  0  0  0
    3.7560   -5.6960   28.8910 O   0  0  0  0  0  0  0  0  0  0  0  0
    3.6680   -7.0450   28.7960 C   0  0  0  0  0  0  0  0  0  0  0  0
    3.6970   -7.3070   27.4440 C   0  0  0  0  0  0  0  0  0  0  0  0
    4.4110   -7.7600   29.6700 C   0  0  0  0  0  0  0  0  0  0  0  0
    2.3670   -7.3730   29.0950 C   0  0  0  0  0  0  0  0  0  0  0  0
    6.8120   -2.6800   23.2320 C   0  0  0  0  0  0  0  0  0  0  0  0
    7.6190   -3.2160   22.2490 C   0  0  0  0  0  0  0  0  0  0  0  0
  1  2  1  0
  2  3  2  0
  2  4  1  0
  4  5  1  0
  5  6  1  0
  6  7  1  0
  7  8  1  0
  8  9  2  0
  8 10  1  0
 10 11  1  0
 11 12  1  1
 11 13  1  0
 13 14  1  0
 14 15  1  0
 15 16  2  0
 15 17  1  0
 18 17  1  0
 18 19  1  0
 18 20  1  0
 18 21  1  0
  7 22  1  0
  4 23  1  0
 22 23  1  0
M  END
