piperidine-amides-29993-covalent
     RDKit          3D

 26 29  0  0  0  0  0  0  0  0999 V2000
    7.0100   -3.4100   19.3860 C   0  0  0  0  0  0  0  0  0  0  0  0
    6.2940   -4.2510   20.3400 C   0  0  0  0  0  0  0  0  0  0  0  0
    5.3080   -4.8800   19.9780 O   0  0  0  0  0  0  0  0  0  0  0  0
    6.7710   -4.3770   21.6850 N   0  0  0  0  0  0  0  0  0  0  0  0
    6.5730   -5.6160   22.4190 C   0  0  0  0  0  0  0  0  0  0  0  0
    5.9270   -5.3380   23.7540 C   0  0  0  0  0  0  0  0  0  0  0  0
    5.9620   -3.8400   23.9240 C   0  0  0  0  0  0  0  0  0  0  0  0
    5.4470   -3.3230   25.2360 C   0  0  0  0  0  0  0  0  0  0  0  0
    4.8120   -2.2590   25.2790 O   0  0  0  0  0  0  0  0  0  0  0  0
    5.6240   -3.9930   26.4790 N   0  0  0  0  0  0  0  0  0  0  0  0
    4.8610   -3.4220   27.5930 C   0  0  0  0  0  0  0  0  0  0  0  0
    4.6090   -4.5140   28.6180 C   0  0  0  0  0  0  0  0  0  0  0  0
    5.4730   -5.5050   28.6830 N   0  0  0  0  0  0  0  0  0  0  0  0
    5.3430   -6.5920   29.4610 C   0  0  0  0  0  0  0  0  0  0  0  0
    4.2870   -6.8930   30.3280 C   0  0  0  0  0  0  0  0  0  0  0  0
    4.6480   -6.9040   31.6570 C   0  0  0  0  0  0  0  0  0  0  0  0
    4.0280   -6.1410   32.7260 C   0  0  0  0  0  0  0  0  0  0  0  0
    4.4560   -6.2230   34.0180 C   0  0  0  0  0  0  0  0  0  0  0  0
    5.7130   -7.3300   33.8650 S   0  0  0  0  0  0  0  0  0  0  0  0
    5.6860   -7.6850   32.1350 C   0  0  0  0  0  0  0  0  0  0  0  0
    6.5030   -7.2910   29.1560 N   0  0  0  0  0  0  0  0  0  0  0  0
    7.1770   -6.5620   28.2460 N   0  0  0  0  0  0  0  0  0  0  0  0
    6.5170   -5.4700   27.9670 C   0  0  0  0  0  0  0  0  0  0  0  0
    6.8670   -4.4230   27.0360 C   0  0  0  0  0  0  0  0  0  0  0  0
    7.3320   -3.3180   23.6180 C   0  0  0  0  0  0  0  0  0  0  0  0
    7.5440   -3.3100   22.2550 C   0  0  0  0  0  0  0  0  0  0  0  0
  1  2  1  0
  2  3  2  0
  2  4  1  0
  4  5  1  0
  5  6  1  0
  6  7  1  0
  7  8  1  0
  8  9  2  0
  8 10  1  0
 10 11  1  0
 11 12  1  0
 12 13  1  0
 13 14  1  0
 14 15  1  0
 15 16  1  0
 16 17  1  0
 17 18  2  0
 18 19  1  0
 16 20  2  0
 19 20  1  0
 14 21  2  0
 21 22  1  0
 13 23  1  0
 22 23  2  0
 10 24  1  0
 23 24  1  0
  7 25  1  0
  4 26  1  0
 25 26  1  0
M  END
