piperidine-amides-35219-covalent
     RDKit          3D

 33 37  0  0  0  0  0  0  0  0999 V2000
    7.2360   -4.0540   19.7000 C   0  0  0  0  0  0  0  0  0  0  0  0
    6.0690   -4.0480   20.4740 C   0  0  0  0  0  0  0  0  0  0  0  0
    5.0570   -4.2010   19.7860 O   0  0  0  0  0  0  0  0  0  0  0  0
    6.2500   -3.9940   21.8510 N   0  0  0  0  0  0  0  0  0  0  0  0
    6.0960   -5.2430   22.5850 C   0  0  0  0  0  0  0  0  0  0  0  0
    5.8200   -4.9760   24.0450 C   0  0  0  0  0  0  0  0  0  0  0  0
    5.8850   -3.4700   24.2580 C   0  0  0  0  0  0  0  0  0  0  0  0
    5.3890   -3.1030   25.6060 C   0  0  0  0  0  0  0  0  0  0  0  0
    4.1870   -2.8320   25.6700 O   0  0  0  0  0  0  0  0  0  0  0  0
    6.1560   -3.0360   26.7990 N   0  0  0  0  0  0  0  0  0  0  0  0
    6.2820   -4.2740   27.5650 C   0  0  0  0  0  0  0  0  0  0  0  0
    5.0560   -4.6330   28.3710 C   0  0  0  0  0  0  0  0  0  0  0  0
    4.9810   -5.2110   29.6370 C   0  0  0  0  0  0  0  0  0  0  0  0
    3.8570   -5.5280   30.3390 C   0  0  0  0  0  0  0  0  0  0  0  0
    2.6180   -5.3070   29.8540 C   0  0  0  0  0  0  0  0  0  0  0  0
    1.4890   -5.6220   30.5430 O   0  0  0  0  0  0  0  0  0  0  0  0
    1.4820   -6.7290   31.3280 C   0  0  0  0  0  0  0  0  0  0  0  0
    1.6530   -6.3580   32.6660 F   0  0  0  0  0  0  0  0  0  0  0  0
    0.2080   -7.3080   31.2430 F   0  0  0  0  0  0  0  0  0  0  0  0
    2.3400   -4.7270   28.5800 C   0  0  0  0  0  0  0  0  0  0  0  0
    3.6080   -4.3990   27.8560 C   0  0  0  0  0  0  0  0  0  0  0  0
    5.9590   -1.7780   27.5380 C   0  0  1  0  0  0  0  0  0  0  0  0
    5.6680   -0.6120   26.6450 C   0  0  0  0  0  0  0  0  0  0  0  0
    5.3680    0.6330   27.4630 C   0  0  2  0  0  0  0  0  0  0  0  0
    6.4820    0.9030   28.3990 C   0  0  0  0  0  0  0  0  0  0  0  0
    6.7720   -0.3500   29.1870 C   0  0  1  0  0  0  0  0  0  0  0  0
    5.7130   -0.5960   30.0000 C   0  0  0  0  0  0  0  0  0  0  0  0
    4.4950   -0.7900   29.1640 C   0  0  1  0  0  0  0  0  0  0  0  0
    4.2470    0.4070   28.2290 C   0  0  0  0  0  0  0  0  0  0  0  0
    4.7030   -1.9490   28.4020 C   0  0  0  0  0  0  0  0  0  0  0  0
    7.0320   -1.4870   28.3740 C   0  0  0  0  0  0  0  0  0  0  0  0
    7.1200   -2.8640   23.8050 C   0  0  0  0  0  0  0  0  0  0  0  0
    7.3050   -3.1590   22.3670 C   0  0  0  0  0  0  0  0  0  0  0  0
  1  2  1  0
  2  3  2  0
  2  4  1  0
  4  5  1  0
  5  6  1  0
  6  7  1  0
  7  8  1  0
  8  9  2  0
  8 10  1  0
 10 11  1  0
 11 12  1  0
 12 13  2  0
 13 14  1  0
 14 15  2  0
 15 16  1  0
 16 17  1  0
 17 18  1  0
 17 19  1  0
 15 20  1  0
 12 21  1  0
 20 21  2  0
 22 10  1  6
 22 23  1  0
 24 23  1  1
 24 25  1  0
 26 25  1  6
 26 27  1  0
 28 27  1  6
 24 29  1  0
 28 29  1  0
 22 30  1  0
 28 30  1  0
 22 31  1  0
 26 31  1  0
  7 32  1  0
  4 33  1  0
 32 33  1  0
M  END
