piperidine-amides-9049-covalent
     RDKit          3D

 21 22  0  0  0  0  0  0  0  0999 V2000
    7.0630   -3.3360   19.2960 C   0  0  0  0  0  0  0  0  0  0  0  0
    6.3680   -4.1540   20.2900 C   0  0  0  0  0  0  0  0  0  0  0  0
    5.3430   -4.7710   19.9580 O   0  0  0  0  0  0  0  0  0  0  0  0
    6.8650   -4.2980   21.5950 N   0  0  0  0  0  0  0  0  0  0  0  0
    6.6270   -5.4710   22.3990 C   0  0  0  0  0  0  0  0  0  0  0  0
    5.8800   -4.9880   23.6190 C   0  0  0  0  0  0  0  0  0  0  0  0
    6.5230   -3.7790   24.2440 C   0  0  0  0  0  0  0  0  0  0  0  0
    5.7040   -3.2320   25.3560 C   0  0  0  0  0  0  0  0  0  0  0  0
    4.4620   -3.0510   25.1870 O   0  0  0  0  0  0  0  0  0  0  0  0
    6.2190   -2.8960   26.6280 N   0  0  0  0  0  0  0  0  0  0  0  0
    6.7280   -1.5320   26.9290 C   0  0  0  0  0  0  0  0  0  0  0  0
    5.7550   -0.5590   26.3500 C   0  0  0  0  0  0  0  0  0  0  0  0
    5.0940    0.4010   27.2550 C   0  0  0  0  0  0  0  0  0  0  0  0
    5.4650    1.8400   26.9930 C   0  0  0  0  0  0  0  0  0  0  0  0
    5.3440    2.6920   28.2440 C   0  0  0  0  0  0  0  0  0  0  0  0
    5.5900    1.7850   29.3930 C   0  0  0  0  0  0  0  0  0  0  0  0
    6.6320    0.9060   29.2320 C   0  0  0  0  0  0  0  0  0  0  0  0
    6.3900   -0.4760   29.2570 C   0  0  0  0  0  0  0  0  0  0  0  0
    7.1290   -1.3600   28.2800 C   0  0  0  0  0  0  0  0  0  0  0  0
    6.8380   -2.6630   23.2990 C   0  0  0  0  0  0  0  0  0  0  0  0
    7.6640   -3.2470   22.1890 C   0  0  0  0  0  0  0  0  0  0  0  0
  1  2  1  0
  2  3  2  0
  2  4  1  0
  4  5  1  0
  5  6  1  0
  6  7  1  0
  7  8  1  0
  8  9  2  0
  8 10  1  0
 10 11  1  0
 11 12  1  0
 12 13  1  0
 13 14  1  0
 14 15  1  0
 15 16  1  0
 16 17  1  0
 17 18  1  0
 11 19  1  0
 18 19  1  0
  7 20  1  0
  4 21  1  0
 20 21  1  0
M  END
