piperidine-amides-8923-covalent
     RDKit          3D

 22 24  0  0  0  0  0  0  0  0999 V2000
    7.0000   -3.3480   19.3800 C   0  0  0  0  0  0  0  0  0  0  0  0
    6.3700   -4.2020   20.3900 C   0  0  0  0  0  0  0  0  0  0  0  0
    5.4320   -4.9290   20.0040 O   0  0  0  0  0  0  0  0  0  0  0  0
    6.8250   -4.2310   21.7490 N   0  0  0  0  0  0  0  0  0  0  0  0
    7.7040   -3.1890   22.2470 C   0  0  0  0  0  0  0  0  0  0  0  0
    7.4350   -2.9100   23.7040 C   0  0  0  0  0  0  0  0  0  0  0  0
    6.1070   -3.5550   23.9720 C   0  0  0  0  0  0  0  0  0  0  0  0
    5.5230   -3.2350   25.3350 C   0  0  0  0  0  0  0  0  0  0  0  0
    4.2970   -3.2600   25.3680 O   0  0  0  0  0  0  0  0  0  0  0  0
    6.3230   -2.9440   26.4510 N   0  0  0  0  0  0  0  0  0  0  0  0
    6.7620   -1.6230   26.8180 C   0  0  2  0  0  0  0  0  0  0  0  0
    7.1910   -1.4800   28.1400 C   0  0  0  0  0  0  0  0  0  0  0  0
    6.2600   -0.8620   28.8050 C   0  0  0  0  0  0  0  0  0  0  0  0
    5.1680   -1.0570   27.9430 N   0  0  0  0  0  0  0  0  0  0  0  0
    3.9460   -0.7070   28.5820 C   0  0  0  0  0  0  0  0  0  0  0  0
    3.7500    0.7490   28.8890 C   0  0  0  0  0  0  0  0  0  0  0  0
    2.3880    0.6720   28.1790 C   0  0  0  0  0  0  0  0  0  0  0  0
    2.6990   -0.7580   27.9240 C   0  0  0  0  0  0  0  0  0  0  0  0
    5.5940   -0.5820   26.6010 C   0  0  0  0  0  0  0  0  0  0  0  0
    4.5700    0.1310   26.7510 O   0  0  0  0  0  0  0  0  0  0  0  0
    6.0690   -5.0130   23.7640 C   0  0  0  0  0  0  0  0  0  0  0  0
    6.6540   -5.4110   22.5740 C   0  0  0  0  0  0  0  0  0  0  0  0
  1  2  1  0
  2  3  2  0
  2  4  1  0
  4  5  1  0
  5  6  1  0
  6  7  1  0
  7  8  1  0
  8  9  2  0
  8 10  1  0
 11 10  1  1
 11 12  1  0
 12 13  1  0
 13 14  1  0
 14 15  1  0
 15 16  1  0
 16 17  1  0
 15 18  1  0
 17 18  1  0
 11 19  1  0
 14 19  1  0
 19 20  2  0
  7 21  1  0
  4 22  1  0
 21 22  1  0
M  END
