piperidine-amides-34288-covalent
     RDKit          3D

 30 31  0  0  0  0  0  0  0  0999 V2000
    7.0410   -3.3150   19.3170 C   0  0  0  0  0  0  0  0  0  0  0  0
    6.3500   -4.1640   20.3030 C   0  0  0  0  0  0  0  0  0  0  0  0
    5.3600   -4.8500   19.9710 O   0  0  0  0  0  0  0  0  0  0  0  0
    6.8150   -4.2420   21.6180 N   0  0  0  0  0  0  0  0  0  0  0  0
    6.7210   -5.5160   22.3030 C   0  0  0  0  0  0  0  0  0  0  0  0
    6.2200   -5.2540   23.7340 C   0  0  0  0  0  0  0  0  0  0  0  0
    6.2190   -3.7550   23.9070 C   0  0  0  0  0  0  0  0  0  0  0  0
    5.7260   -3.3070   25.2400 C   0  0  0  0  0  0  0  0  0  0  0  0
    4.8850   -2.3840   25.2370 O   0  0  0  0  0  0  0  0  0  0  0  0
    6.1400   -3.8790   26.4810 N   0  0  0  0  0  0  0  0  0  0  0  0
    5.2840   -3.6390   27.6130 C   0  0  0  0  0  0  0  0  0  0  0  0
    5.3320   -4.8450   28.5230 C   0  0  1  0  0  0  0  0  0  0  0  0
    4.6440   -5.9770   28.1290 C   0  0  0  0  0  0  0  0  0  0  0  0
    3.5380   -5.6540   27.3040 N   0  0  0  0  0  0  0  0  0  0  0  0
    3.2300   -6.5630   26.2710 C   0  0  0  0  0  0  0  0  0  0  0  0
    4.1620   -7.4660   25.8010 O   0  0  0  0  0  0  0  0  0  0  0  0
    2.0050   -6.6080   25.6750 O   0  0  0  0  0  0  0  0  0  0  0  0
    1.7620   -7.7100   24.8820 C   0  0  0  0  0  0  0  0  0  0  0  0
    0.4560   -7.5530   24.4790 C   0  0  0  0  0  0  0  0  0  0  0  0
    1.8620   -9.1480   25.4220 C   0  0  0  0  0  0  0  0  0  0  0  0
    2.7000   -7.5860   23.7210 C   0  0  0  0  0  0  0  0  0  0  0  0
    6.6100   -5.1330   28.8690 C   0  0  0  0  0  0  0  0  0  0  0  0
    7.7120   -4.9210   27.9330 C   0  0  0  0  0  0  0  0  0  0  0  0
    7.4780   -3.8450   27.0490 C   0  0  1  0  0  0  0  0  0  0  0  0
    8.3640   -3.7460   26.0280 C   0  0  0  0  0  0  0  0  0  0  0  0
    8.7740   -2.6680   25.5410 O   0  0  0  0  0  0  0  0  0  0  0  0
    8.8730   -4.9510   25.4810 O   0  0  0  0  0  0  0  0  0  0  0  0
    9.6020   -5.8310   26.2760 C   0  0  0  0  0  0  0  0  0  0  0  0
    7.5610   -3.1520   23.6110 C   0  0  0  0  0  0  0  0  0  0  0  0
    7.6870   -3.1860   22.0920 C   0  0  0  0  0  0  0  0  0  0  0  0
  1  2  1  0
  2  3  2  0
  2  4  1  0
  4  5  1  0
  5  6  1  0
  6  7  1  0
  7  8  1  0
  8  9  2  0
  8 10  1  0
 10 11  1  0
 11 12  1  0
 12 13  1  6
 13 14  1  0
 14 15  1  0
 15 16  2  0
 15 17  1  0
 18 17  1  0
 18 19  1  0
 18 20  1  0
 18 21  1  0
 12 22  1  0
 22 23  1  0
 10 24  1  0
 23 24  1  0
 24 25  1  6
 25 26  2  0
 25 27  1  0
 27 28  1  0
  7 29  1  0
  4 30  1  0
 29 30  1  0
M  END
