piperidine-amides-30467-covalent
     RDKit          3D

 27 28  0  0  0  0  0  0  0  0999 V2000
    7.0490   -3.2680   19.2710 C   0  0  0  0  0  0  0  0  0  0  0  0
    6.3040   -4.0500   20.2640 C   0  0  0  0  0  0  0  0  0  0  0  0
    5.2650   -4.6210   19.9030 O   0  0  0  0  0  0  0  0  0  0  0  0
    6.7370   -4.2190   21.5930 N   0  0  0  0  0  0  0  0  0  0  0  0
    6.4630   -5.4500   22.3020 C   0  0  0  0  0  0  0  0  0  0  0  0
    5.6890   -5.0550   23.5350 C   0  0  0  0  0  0  0  0  0  0  0  0
    6.4800   -4.0940   24.3620 C   0  0  0  0  0  0  0  0  0  0  0  0
    5.7300   -3.6490   25.5920 C   0  0  0  0  0  0  0  0  0  0  0  0
    4.4710   -3.5090   25.5270 O   0  0  0  0  0  0  0  0  0  0  0  0
    6.3230   -3.3350   26.8650 N   0  0  0  0  0  0  0  0  0  0  0  0
    6.6400   -1.9040   27.1200 C   0  0  0  0  0  0  0  0  0  0  0  0
    6.1520   -4.1720   28.1210 C   0  0  0  0  0  0  0  0  0  0  0  0
    5.7350   -5.6000   27.9420 C   0  0  0  0  0  0  0  0  0  0  0  0
    6.3340   -6.6700   28.8900 C   0  0  0  0  0  0  0  0  0  0  0  0
    5.8560   -6.5390   30.2000 O   0  0  0  0  0  0  0  0  0  0  0  0
    6.1480   -7.6850   30.9950 C   0  0  0  0  0  0  0  0  0  0  0  0
    5.6260   -7.5440   32.3390 C   0  0  0  0  0  0  0  0  0  0  0  0
    5.7970   -8.5390   33.2890 C   0  0  0  0  0  0  0  0  0  0  0  0
    5.3490   -8.3970   34.4340 O   0  0  0  0  0  0  0  0  0  0  0  0
    6.2430   -7.8380   35.3280 C   0  0  0  0  0  0  0  0  0  0  0  0
    6.5430   -9.9310   33.1040 C   0  0  0  0  0  0  0  0  0  0  0  0
    7.0440   -9.9260   31.5940 C   0  0  0  0  0  0  0  0  0  0  0  0
    7.7380  -11.0570   31.1030 O   0  0  0  0  0  0  0  0  0  0  0  0
    8.3700  -11.0720   29.8420 C   0  0  0  0  0  0  0  0  0  0  0  0
    6.8130   -8.8500   30.7100 C   0  0  0  0  0  0  0  0  0  0  0  0
    6.9880   -2.9240   23.6070 C   0  0  0  0  0  0  0  0  0  0  0  0
    7.4190   -3.1800   22.3150 C   0  0  0  0  0  0  0  0  0  0  0  0
  1  2  1  0
  2  3  2  0
  2  4  1  0
  4  5  1  0
  5  6  1  0
  6  7  1  0
  7  8  1  0
  8  9  2  0
  8 10  1  0
 10 11  1  0
 10 12  1  0
 12 13  1  0
 13 14  1  0
 14 15  1  0
 15 16  1  0
 16 17  2  0
 17 18  1  0
 18 19  1  0
 19 20  1  0
 18 21  2  0
 21 22  1  0
 22 23  1  0
 23 24  1  0
 16 25  1  0
 22 25  2  0
  7 26  1  0
  4 27  1  0
 26 27  1  0
M  END
