piperidine-amides-12505-covalent
     RDKit          3D

 23 24  0  0  0  0  0  0  0  0999 V2000
    7.1120   -3.2440   19.1840 C   0  0  0  0  0  0  0  0  0  0  0  0
    6.3510   -3.9940   20.2080 C   0  0  0  0  0  0  0  0  0  0  0  0
    5.2660   -4.4900   19.8520 O   0  0  0  0  0  0  0  0  0  0  0  0
    6.8500   -4.1820   21.4980 N   0  0  0  0  0  0  0  0  0  0  0  0
    7.6120   -3.1370   22.1130 C   0  0  0  0  0  0  0  0  0  0  0  0
    7.2410   -2.8230   23.4950 C   0  0  0  0  0  0  0  0  0  0  0  0
    6.5020   -3.8860   24.1950 C   0  0  0  0  0  0  0  0  0  0  0  0
    5.7240   -3.3190   25.3300 C   0  0  0  0  0  0  0  0  0  0  0  0
    4.5090   -3.1170   25.1510 O   0  0  0  0  0  0  0  0  0  0  0  0
    6.3300   -3.0070   26.5680 N   0  0  0  0  0  0  0  0  0  0  0  0
    6.2290   -3.8960   27.7560 C   0  0  0  0  0  0  0  0  0  0  0  0
    4.9930   -3.6420   28.5560 C   0  0  0  0  0  0  0  0  0  0  0  0
    4.8490   -2.3870   29.2480 N   0  0  0  0  0  0  0  0  0  0  0  0
    3.6860   -2.0470   30.0550 C   0  0  0  0  0  0  0  0  0  0  0  0
    2.6670   -2.9490   30.1740 C   0  0  0  0  0  0  0  0  0  0  0  0
    2.7610   -4.1520   29.5350 C   0  0  0  0  0  0  0  0  0  0  0  0
    1.7580   -5.0690   29.6400 C   0  0  0  0  0  0  0  0  0  0  0  0
    1.7630   -6.1800   28.8320 F   0  0  0  0  0  0  0  0  0  0  0  0
    0.5560   -4.3860   29.3470 F   0  0  0  0  0  0  0  0  0  0  0  0
    1.6350   -5.4370   30.9410 F   0  0  0  0  0  0  0  0  0  0  0  0
    3.9140   -4.4430   28.7570 N   0  0  0  0  0  0  0  0  0  0  0  0
    5.6780   -4.7990   23.3420 C   0  0  0  0  0  0  0  0  0  0  0  0
    6.4540   -5.2770   22.3270 C   0  0  0  0  0  0  0  0  0  0  0  0
  1  2  1  0
  2  3  2  0
  2  4  1  0
  4  5  1  0
  5  6  1  0
  6  7  1  0
  7  8  1  0
  8  9  2  0
  8 10  1  0
 10 11  1  0
 11 12  1  0
 12 13  2  0
 13 14  1  0
 14 15  2  0
 15 16  1  0
 16 17  1  0
 17 18  1  0
 17 19  1  0
 17 20  1  0
 12 21  1  0
 16 21  2  0
  7 22  1  0
  4 23  1  0
 22 23  1  0
M  END
