piperidine-amides-25325-covalent
     RDKit          3D

 25 28  0  0  0  0  0  0  0  0999 V2000
    7.1050   -3.3010   19.2000 C   0  0  0  0  0  0  0  0  0  0  0  0
    6.3280   -4.0510   20.2190 C   0  0  0  0  0  0  0  0  0  0  0  0
    5.2610   -4.5410   19.8720 O   0  0  0  0  0  0  0  0  0  0  0  0
    6.8430   -4.2260   21.4930 N   0  0  0  0  0  0  0  0  0  0  0  0
    6.6410   -5.4640   22.1980 C   0  0  0  0  0  0  0  0  0  0  0  0
    6.1540   -5.1390   23.5700 C   0  0  0  0  0  0  0  0  0  0  0  0
    7.0800   -4.0830   24.1660 C   0  0  0  0  0  0  0  0  0  0  0  0
    6.4940   -3.6450   25.4190 C   0  0  0  0  0  0  0  0  0  0  0  0
    5.6420   -2.7380   25.4310 O   0  0  0  0  0  0  0  0  0  0  0  0
    6.8770   -4.2910   26.5960 N   0  0  0  0  0  0  0  0  0  0  0  0
    5.8180   -5.1430   27.0540 C   0  0  0  0  0  0  0  0  0  0  0  0
    4.6800   -4.1840   27.2410 C   0  0  0  0  0  0  0  0  0  0  0  0
    5.3090   -3.0620   27.6580 O   0  0  0  0  0  0  0  0  0  0  0  0
    6.2860   -3.2730   28.4990 C   0  0  2  0  0  0  0  0  0  0  0  0
    5.7160   -4.2620   29.2880 C   0  0  0  0  0  0  0  0  0  0  0  0
    4.6590   -3.5720   29.9240 C   0  0  0  0  0  0  0  0  0  0  0  0
    5.2430   -2.2290   30.1970 C   0  0  0  0  0  0  0  0  0  0  0  0
    4.7080   -1.3400   31.2710 C   0  0  0  0  0  0  0  0  0  0  0  0
    5.4510   -0.0080   31.4370 C   0  0  0  0  0  0  0  0  0  0  0  0
    6.6310    0.2820   30.5210 C   0  0  0  0  0  0  0  0  0  0  0  0
    7.0430   -0.7120   29.4840 C   0  0  0  0  0  0  0  0  0  0  0  0
    6.3310   -2.0050   29.3080 C   0  0  0  0  0  0  0  0  0  0  0  0
    7.5130   -3.8220   27.7910 C   0  0  0  0  0  0  0  0  0  0  0  0
    7.1780   -2.8670   23.2690 C   0  0  0  0  0  0  0  0  0  0  0  0
    7.7290   -3.2220   22.0760 C   0  0  0  0  0  0  0  0  0  0  0  0
  1  2  1  0
  2  3  2  0
  2  4  1  0
  4  5  1  0
  5  6  1  0
  6  7  1  0
  7  8  1  0
  8  9  2  0
  8 10  1  0
 10 11  1  0
 11 12  1  0
 12 13  1  0
 14 13  1  0
 14 15  1  1
 15 16  1  0
 16 17  1  0
 17 18  1  0
 18 19  2  0
 19 20  1  0
 20 21  2  0
 14 22  1  0
 17 22  2  0
 21 22  1  0
 10 23  1  0
 14 23  1  0
  7 24  1  0
  4 25  1  0
 24 25  1  0
M  END
