piperidine-amides-13450-covalent
     RDKit          3D

 24 25  0  0  0  0  0  0  0  0999 V2000
    7.1170   -3.2580   19.2270 C   0  0  0  0  0  0  0  0  0  0  0  0
    6.3440   -4.0380   20.2340 C   0  0  0  0  0  0  0  0  0  0  0  0
    5.2810   -4.5780   19.8910 O   0  0  0  0  0  0  0  0  0  0  0  0
    6.8530   -4.1940   21.5380 N   0  0  0  0  0  0  0  0  0  0  0  0
    6.6810   -5.4250   22.2820 C   0  0  0  0  0  0  0  0  0  0  0  0
    6.1060   -5.0890   23.6640 C   0  0  0  0  0  0  0  0  0  0  0  0
    6.1030   -3.6070   23.8030 C   0  0  0  0  0  0  0  0  0  0  0  0
    5.5890   -3.1330   25.0960 C   0  0  0  0  0  0  0  0  0  0  0  0
    4.4000   -2.7960   25.1210 O   0  0  0  0  0  0  0  0  0  0  0  0
    6.4130   -3.0810   26.2100 N   0  0  0  0  0  0  0  0  0  0  0  0
    6.0090   -3.3520   27.5300 C   0  0  0  0  0  0  0  0  0  0  0  0
    5.6090   -4.5810   27.9900 C   0  0  1  0  0  0  0  0  0  0  0  0
    6.0910   -4.8770   29.2520 C   0  0  0  0  0  0  0  0  0  0  0  0
    5.0470   -5.5650   29.9930 N   0  0  0  0  0  0  0  0  0  0  0  0
    4.9950   -6.8650   30.3410 C   0  0  0  0  0  0  0  0  0  0  0  0
    3.7040   -7.5830   30.1520 C   0  0  0  0  0  0  0  0  0  0  0  0
    5.9640   -7.6760   29.7850 C   0  0  0  0  0  0  0  0  0  0  0  0
    3.8180   -4.8580   30.1200 C   0  0  0  0  0  0  0  0  0  0  0  0
    3.3470   -4.4680   31.3650 O   0  0  0  0  0  0  0  0  0  0  0  0
    3.2950   -4.6870   28.8940 N   0  0  0  0  0  0  0  0  0  0  0  0
    4.2500   -4.7600   27.9740 C   0  0  0  0  0  0  0  0  0  0  0  0
    4.0440   -5.0880   26.6520 O   0  0  0  0  0  0  0  0  0  0  0  0
    7.4210   -2.9810   23.5450 C   0  0  0  0  0  0  0  0  0  0  0  0
    7.7130   -3.1560   22.0820 C   0  0  0  0  0  0  0  0  0  0  0  0
  1  2  1  0
  2  3  2  0
  2  4  1  0
  4  5  1  0
  5  6  1  0
  6  7  1  0
  7  8  1  0
  8  9  2  0
  8 10  1  0
 10 11  1  0
 12 11  1  1
 12 13  1  0
 13 14  1  0
 14 15  1  0
 15 16  1  0
 15 17  1  0
 14 18  1  0
 18 19  2  0
 18 20  1  0
 12 21  1  0
 20 21  1  0
 21 22  2  0
  7 23  1  0
  4 24  1  0
 23 24  1  0
M  END
