piperidine-amides-2551-covalent
     RDKit          3D

 26 27  0  0  0  0  0  0  0  0999 V2000
    7.1110   -3.3460   19.3170 C   0  0  0  0  0  0  0  0  0  0  0  0
    6.3820   -4.1620   20.3110 C   0  0  0  0  0  0  0  0  0  0  0  0
    5.3450   -4.7130   19.9460 O   0  0  0  0  0  0  0  0  0  0  0  0
    6.9250   -4.3050   21.5880 N   0  0  0  0  0  0  0  0  0  0  0  0
    7.6590   -3.2250   22.1810 C   0  0  0  0  0  0  0  0  0  0  0  0
    6.8390   -2.6840   23.3080 C   0  0  0  0  0  0  0  0  0  0  0  0
    6.5610   -3.8110   24.2990 C   0  0  0  0  0  0  0  0  0  0  0  0
    5.7570   -3.2420   25.4020 C   0  0  0  0  0  0  0  0  0  0  0  0
    4.5850   -2.9100   25.1880 O   0  0  0  0  0  0  0  0  0  0  0  0
    6.3000   -3.0840   26.6920 N   0  0  0  0  0  0  0  0  0  0  0  0
    6.4720   -1.7570   27.2440 C   0  0  0  0  0  0  0  0  0  0  0  0
    5.9340   -0.4830   26.6940 C   0  0  0  0  0  0  0  0  0  0  0  0
    6.0890    0.7790   27.2080 C   0  0  0  0  0  0  0  0  0  0  0  0
    6.8210    0.9730   28.3720 C   0  0  0  0  0  0  0  0  0  0  0  0
    7.4250   -0.0690   29.0670 C   0  0  0  0  0  0  0  0  0  0  0  0
    8.2350    0.1240   30.3370 C   0  0  0  0  0  0  0  0  0  0  0  0
    8.3900    1.4390   30.7200 O   0  0  0  0  0  0  0  0  0  0  0  0
    9.4730    2.1740   30.2170 C   0  0  0  0  0  0  0  0  0  0  0  0
   10.8070    1.6210   30.6670 C   0  0  0  0  0  0  0  0  0  0  0  0
   10.5090    1.1450   32.0550 C   0  0  0  0  0  0  0  0  0  0  0  0
   10.6700    2.2390   33.0640 C   0  0  0  0  0  0  0  0  0  0  0  0
   10.7790    3.6590   32.5430 C   0  0  0  0  0  0  0  0  0  0  0  0
   11.3120    4.6360   33.5350 C   0  0  0  0  0  0  0  0  0  0  0  0
    7.2600   -1.4350   28.5290 C   0  0  0  0  0  0  0  0  0  0  0  0
    5.7720   -4.9050   23.6100 C   0  0  0  0  0  0  0  0  0  0  0  0
    6.4800   -5.4100   22.3770 C   0  0  0  0  0  0  0  0  0  0  0  0
  1  2  1  0
  2  3  2  0
  2  4  1  0
  4  5  1  0
  5  6  1  0
  6  7  1  0
  7  8  1  0
  8  9  2  0
  8 10  1  0
 10 11  1  0
 11 12  2  0
 12 13  1  0
 13 14  2  0
 14 15  1  0
 15 16  1  0
 16 17  1  0
 17 18  1  0
 18 19  1  0
 19 20  1  0
 20 21  1  0
 21 22  1  0
 22 23  1  0
 11 24  1  0
 15 24  2  0
  7 25  1  0
  4 26  1  0
 25 26  1  0
M  END
