piperidine-amides-25244-covalent
     RDKit          3D

 25 26  0  0  0  0  0  0  0  0999 V2000
    7.1290   -3.2280   19.1620 C   0  0  0  0  0  0  0  0  0  0  0  0
    6.3160   -4.0080   20.1320 C   0  0  0  0  0  0  0  0  0  0  0  0
    5.1970   -4.3620   19.7850 O   0  0  0  0  0  0  0  0  0  0  0  0
    6.8510   -4.3550   21.3630 N   0  0  0  0  0  0  0  0  0  0  0  0
    6.4150   -5.5510   22.0450 C   0  0  0  0  0  0  0  0  0  0  0  0
    5.6310   -5.1630   23.2650 C   0  0  0  0  0  0  0  0  0  0  0  0
    6.4600   -4.1130   23.9720 C   0  0  0  0  0  0  0  0  0  0  0  0
    5.8030   -3.5880   25.1560 C   0  0  0  0  0  0  0  0  0  0  0  0
    4.5710   -3.5580   25.2880 O   0  0  0  0  0  0  0  0  0  0  0  0
    6.6610   -3.1090   26.1230 N   0  0  0  0  0  0  0  0  0  0  0  0
    7.2030   -1.8190   25.7860 C   0  0  0  0  0  0  0  0  0  0  0  0
    8.5340   -1.9290   25.0210 C   0  0  0  0  0  0  0  0  0  0  0  0
    8.9360   -1.2770   23.8270 C   0  0  0  0  0  0  0  0  0  0  0  0
   10.1420   -1.3670   23.1800 C   0  0  0  0  0  0  0  0  0  0  0  0
   11.0740   -2.1540   23.7090 C   0  0  0  0  0  0  0  0  0  0  0  0
   12.4770   -2.7160   23.6380 C   0  0  0  0  0  0  0  0  0  0  0  0
   13.2090   -2.0700   24.5650 N   0  0  0  0  0  0  0  0  0  0  0  0
   11.0500   -2.9630   24.8540 C   0  0  0  0  0  0  0  0  0  0  0  0
    9.7220   -2.8350   25.5170 C   0  0  0  0  0  0  0  0  0  0  0  0
    7.5180   -4.1720   26.6000 C   0  0  0  0  0  0  0  0  0  0  0  0
    6.7830   -4.8790   27.6760 C   0  0  0  0  0  0  0  0  0  0  0  0
    7.6180   -5.7360   28.5780 C   0  0  0  0  0  0  0  0  0  0  0  0
    5.7790   -5.8370   27.0400 C   0  0  0  0  0  0  0  0  0  0  0  0
    6.7290   -2.9420   23.0590 C   0  0  0  0  0  0  0  0  0  0  0  0
    7.6070   -3.3650   22.1110 C   0  0  0  0  0  0  0  0  0  0  0  0
  1  2  1  0
  2  3  2  0
  2  4  1  0
  4  5  1  0
  5  6  1  0
  6  7  1  0
  7  8  1  0
  8  9  2  0
  8 10  1  0
 10 11  1  0
 11 12  1  0
 12 13  2  0
 13 14  1  0
 14 15  2  0
 15 16  1  0
 16 17  3  0
 15 18  1  0
 12 19  1  0
 18 19  2  0
 10 20  1  0
 20 21  1  0
 21 22  1  0
 21 23  1  0
  7 24  1  0
  4 25  1  0
 24 25  1  0
M  END
