piperidine-amides-8510-covalent
     RDKit          3D

 24 25  0  0  0  0  0  0  0  0999 V2000
    7.0880   -3.2630   19.1920 C   0  0  0  0  0  0  0  0  0  0  0  0
    6.3510   -4.0030   20.2160 C   0  0  0  0  0  0  0  0  0  0  0  0
    5.2920   -4.5600   19.8830 O   0  0  0  0  0  0  0  0  0  0  0  0
    6.8730   -4.1080   21.5300 N   0  0  0  0  0  0  0  0  0  0  0  0
    7.5480   -2.9770   22.0920 C   0  0  0  0  0  0  0  0  0  0  0  0
    7.3850   -3.0040   23.5780 C   0  0  0  0  0  0  0  0  0  0  0  0
    5.9410   -3.3930   23.8580 C   0  0  0  0  0  0  0  0  0  0  0  0
    5.5470   -3.1280   25.2890 C   0  0  0  0  0  0  0  0  0  0  0  0
    4.3600   -2.8810   25.4580 O   0  0  0  0  0  0  0  0  0  0  0  0
    6.4950   -3.1690   26.3140 N   0  0  0  0  0  0  0  0  0  0  0  0
    6.1580   -3.6200   27.6360 C   0  0  0  0  0  0  0  0  0  0  0  0
    5.4730   -4.8540   27.6710 C   0  0  2  0  0  0  0  0  0  0  0  0
    5.2980   -5.5080   28.8700 C   0  0  0  0  0  0  0  0  0  0  0  0
    4.3530   -4.8670   29.6360 O   0  0  0  0  0  0  0  0  0  0  0  0
    6.1550   -5.8610   26.9040 C   0  0  0  0  0  0  0  0  0  0  0  0
    7.5320   -5.4440   26.6130 C   0  0  0  0  0  0  0  0  0  0  0  0
    8.5360   -5.4970   27.7460 C   0  0  0  0  0  0  0  0  0  0  0  0
    9.9140   -5.0930   27.5750 C   0  0  0  0  0  0  0  0  0  0  0  0
   10.3990   -4.6070   26.2470 C   0  0  0  0  0  0  0  0  0  0  0  0
   11.6950   -4.2260   26.0080 F   0  0  0  0  0  0  0  0  0  0  0  0
    9.3090   -4.5730   25.1670 C   0  0  0  0  0  0  0  0  0  0  0  0
    7.9940   -4.9450   25.2740 C   0  0  0  0  0  0  0  0  0  0  0  0
    5.7590   -4.8630   23.5650 C   0  0  0  0  0  0  0  0  0  0  0  0
    6.4770   -5.2580   22.3000 C   0  0  0  0  0  0  0  0  0  0  0  0
  1  2  1  0
  2  3  2  0
  2  4  1  0
  4  5  1  0
  5  6  1  0
  6  7  1  0
  7  8  1  0
  8  9  2  0
  8 10  1  0
 10 11  1  0
 12 11  1  1
 12 13  1  0
 13 14  1  0
 12 15  1  0
 15 16  1  0
 16 17  2  0
 17 18  1  0
 18 19  2  0
 19 20  1  0
 19 21  1  0
 16 22  1  0
 21 22  2  0
  7 23  1  0
  4 24  1  0
 23 24  1  0
M  END
