piperidine-amides-10225-covalent
     RDKit          3D

 25 26  0  0  0  0  0  0  0  0999 V2000
    7.0280   -3.3500   19.3590 C   0  0  0  0  0  0  0  0  0  0  0  0
    6.3780   -4.1980   20.3660 C   0  0  0  0  0  0  0  0  0  0  0  0
    5.3700   -4.8460   19.9780 O   0  0  0  0  0  0  0  0  0  0  0  0
    6.8850   -4.3050   21.6690 N   0  0  0  0  0  0  0  0  0  0  0  0
    6.6400   -5.4830   22.4740 C   0  0  0  0  0  0  0  0  0  0  0  0
    6.0480   -5.0720   23.8030 C   0  0  0  0  0  0  0  0  0  0  0  0
    6.0400   -3.5750   23.9920 C   0  0  0  0  0  0  0  0  0  0  0  0
    5.6130   -3.2120   25.3640 C   0  0  0  0  0  0  0  0  0  0  0  0
    4.3850   -3.1530   25.5850 O   0  0  0  0  0  0  0  0  0  0  0  0
    6.4910   -2.9240   26.4260 N   0  0  0  0  0  0  0  0  0  0  0  0
    6.4490   -1.6620   27.1220 C   0  0  0  0  0  0  0  0  0  0  0  0
    7.0760   -1.5200   28.5000 C   0  0  0  0  0  0  0  0  0  0  0  0
    7.0720   -0.3670   29.2060 C   0  0  0  0  0  0  0  0  0  0  0  0
    6.4800    0.7560   28.6920 C   0  0  0  0  0  0  0  0  0  0  0  0
    6.4650    1.9520   29.3910 C   0  0  0  0  0  0  0  0  0  0  0  0
    6.2570    3.1420   28.7260 O   0  0  0  0  0  0  0  0  0  0  0  0
    6.6530    1.9220   30.7210 N   0  0  0  0  0  0  0  0  0  0  0  0
    5.7510    2.4390   31.5630 C   0  0  0  0  0  0  0  0  0  0  0  0
    4.5780    1.7920   31.8930 C   0  0  0  0  0  0  0  0  0  0  0  0
    4.4070    2.8800   30.9480 C   0  0  0  0  0  0  0  0  0  0  0  0
    6.1220    3.4190   32.6350 C   0  0  0  0  0  0  0  0  0  0  0  0
    5.8840    0.6960   27.4370 C   0  0  0  0  0  0  0  0  0  0  0  0
    5.7700   -0.4860   26.4640 C   0  0  0  0  0  0  0  0  0  0  0  0
    7.3420   -2.9560   23.6520 C   0  0  0  0  0  0  0  0  0  0  0  0
    7.6930   -3.2430   22.2140 C   0  0  0  0  0  0  0  0  0  0  0  0
  1  2  1  0
  2  3  2  0
  2  4  1  0
  4  5  1  0
  5  6  1  0
  6  7  1  0
  7  8  1  0
  8  9  2  0
  8 10  1  0
 10 11  1  0
 11 12  2  0
 12 13  1  0
 13 14  2  0
 14 15  1  0
 15 16  2  0
 15 17  1  0
 18 17  1  0
 18 19  1  0
 18 20  1  0
 18 21  1  0
 14 22  1  0
 11 23  1  0
 22 23  2  0
  7 24  1  0
  4 25  1  0
 24 25  1  0
M  END
