piperidine-amides-13518-covalent
     RDKit          3D

 21 22  0  0  0  0  0  0  0  0999 V2000
    7.1180   -3.3060   19.2940 C   0  0  0  0  0  0  0  0  0  0  0  0
    6.3310   -4.0810   20.2830 C   0  0  0  0  0  0  0  0  0  0  0  0
    5.2770   -4.6200   19.9120 O   0  0  0  0  0  0  0  0  0  0  0  0
    6.8290   -4.2290   21.5940 N   0  0  0  0  0  0  0  0  0  0  0  0
    7.6460   -3.2420   22.2590 C   0  0  0  0  0  0  0  0  0  0  0  0
    6.8420   -2.7280   23.4610 C   0  0  0  0  0  0  0  0  0  0  0  0
    6.4370   -3.9010   24.2970 C   0  0  0  0  0  0  0  0  0  0  0  0
    5.6190   -3.5060   25.4810 C   0  0  0  0  0  0  0  0  0  0  0  0
    4.5260   -2.9990   25.2100 O   0  0  0  0  0  0  0  0  0  0  0  0
    6.0640   -3.6880   26.8090 N   0  0  0  0  0  0  0  0  0  0  0  0
    6.0380   -4.8870   27.6120 C   0  0  1  0  0  0  0  0  0  0  0  0
    6.6870   -5.0300   28.8140 C   0  0  0  0  0  0  0  0  0  0  0  0
    4.6450   -5.2610   27.9920 C   0  0  2  0  0  0  0  0  0  0  0  0
    3.7720   -4.9570   26.9780 C   0  0  0  0  0  0  0  0  0  0  0  0
    3.9700   -4.6500   29.0450 O   0  0  0  0  0  0  0  0  0  0  0  0
    4.3520   -3.4050   29.2210 C   0  0  0  0  0  0  0  0  0  0  0  0
    4.5870   -6.5930   28.3560 C   0  0  0  0  0  0  0  0  0  0  0  0
    3.6440   -7.0920   29.1630 C   0  0  0  0  0  0  0  0  0  0  0  0
    5.0070   -7.0740   29.7070 C   0  0  0  0  0  0  0  0  0  0  0  0
    5.6760   -4.9580   23.5570 C   0  0  0  0  0  0  0  0  0  0  0  0
    6.4680   -5.4020   22.3420 C   0  0  0  0  0  0  0  0  0  0  0  0
  1  2  1  0
  2  3  2  0
  2  4  1  0
  4  5  1  0
  5  6  1  0
  6  7  1  0
  7  8  1  0
  8  9  2  0
  8 10  1  0
 10 11  1  0
 11 12  1  1
 11 13  1  0
 13 14  1  6
 13 15  1  0
 15 16  1  0
 13 17  1  0
 17 18  1  0
 17 19  1  0
 18 19  1  0
  7 20  1  0
  4 21  1  0
 20 21  1  0
M  END
