piperidine-amides-29498-covalent
     RDKit          3D

 27 30  0  0  0  0  0  0  0  0999 V2000
    7.1200   -3.3470   19.3090 C   0  0  0  0  0  0  0  0  0  0  0  0
    6.4440   -4.1990   20.2780 C   0  0  0  0  0  0  0  0  0  0  0  0
    5.4020   -4.7860   19.9710 O   0  0  0  0  0  0  0  0  0  0  0  0
    7.0430   -4.3960   21.5650 N   0  0  0  0  0  0  0  0  0  0  0  0
    7.8550   -3.3220   22.1300 C   0  0  0  0  0  0  0  0  0  0  0  0
    7.4890   -3.1230   23.5510 C   0  0  0  0  0  0  0  0  0  0  0  0
    6.1520   -3.7980   23.6340 C   0  0  0  0  0  0  0  0  0  0  0  0
    5.3790   -3.3540   24.7820 C   0  0  0  0  0  0  0  0  0  0  0  0
    4.3800   -2.6300   24.6440 O   0  0  0  0  0  0  0  0  0  0  0  0
    5.7270   -3.7140   26.0740 N   0  0  0  0  0  0  0  0  0  0  0  0
    5.9920   -2.7430   26.8110 C   0  0  0  0  0  0  0  0  0  0  0  0
    6.0720   -4.3030   27.1190 C   0  0  0  0  0  0  0  0  0  0  0  0
    6.3380   -5.3270   28.0760 C   0  0  0  0  0  0  0  0  0  0  0  0
    6.5890   -4.5280   29.1010 C   0  0  0  0  0  0  0  0  0  0  0  0
    6.5810   -3.2050   29.1710 C   0  0  0  0  0  0  0  0  0  0  0  0
    6.3110   -2.4400   28.1080 C   0  0  0  0  0  0  0  0  0  0  0  0
    6.2240   -1.1940   28.0010 C   0  0  0  0  0  0  0  0  0  0  0  0
    7.3600   -1.1270   28.6460 O   0  0  0  0  0  0  0  0  0  0  0  0
    5.0530   -1.8840   27.3800 N   0  0  0  0  0  0  0  0  0  0  0  0
    4.7180   -3.4160   27.1080 C   0  0  0  0  0  0  0  0  0  0  0  0
    3.3960   -3.3580   26.6220 C   0  0  0  0  0  0  0  0  0  0  0  0
    2.3310   -3.8430   27.5100 C   0  0  0  0  0  0  0  0  0  0  0  0
    2.4840   -5.0900   28.0690 C   0  0  0  0  0  0  0  0  0  0  0  0
    3.8200   -5.4140   28.2020 C   0  0  0  0  0  0  0  0  0  0  0  0
    4.7690   -4.2550   28.2000 C   0  0  0  0  0  0  0  0  0  0  0  0
    6.2100   -5.2780   23.6270 C   0  0  0  0  0  0  0  0  0  0  0  0
    6.8050   -5.6270   22.2890 C   0  0  0  0  0  0  0  0  0  0  0  0
  1  2  1  0
  2  3  2  0
  2  4  1  0
  4  5  1  0
  5  6  1  0
  6  7  1  0
  7  8  1  0
  8  9  2  0
  8 10  1  0
 10 11  1  0
 11 12  2  0
 12 13  1  0
 13 14  2  0
 14 15  1  0
 11 16  1  0
 15 16  2  0
 16 17  1  0
 17 18  2  0
 17 19  1  0
 20 10  1  0
 19 20  1  0
 20 21  1  0
 21 22  1  0
 22 23  1  0
 23 24  1  0
 20 25  1  0
 24 25  1  0
  7 26  1  0
  4 27  1  0
 26 27  1  0
M  END
