piperidine-amides-2315-covalent
     RDKit          3D

 27 28  0  0  0  0  0  0  0  0999 V2000
    7.0650   -3.3330   19.2580 C   0  0  0  0  0  0  0  0  0  0  0  0
    6.3830   -4.1600   20.2840 C   0  0  0  0  0  0  0  0  0  0  0  0
    5.3480   -4.7350   19.9500 O   0  0  0  0  0  0  0  0  0  0  0  0
    6.9490   -4.3030   21.5510 N   0  0  0  0  0  0  0  0  0  0  0  0
    7.6620   -3.2060   22.1470 C   0  0  0  0  0  0  0  0  0  0  0  0
    6.8370   -2.6820   23.2770 C   0  0  0  0  0  0  0  0  0  0  0  0
    6.5960   -3.8140   24.2640 C   0  0  0  0  0  0  0  0  0  0  0  0
    5.8160   -3.2590   25.3840 C   0  0  0  0  0  0  0  0  0  0  0  0
    4.6350   -2.9290   25.2040 O   0  0  0  0  0  0  0  0  0  0  0  0
    6.4000   -3.1070   26.6500 N   0  0  0  0  0  0  0  0  0  0  0  0
    6.4040   -1.8100   27.2790 C   0  0  0  0  0  0  0  0  0  0  0  0
    5.8080   -0.5550   26.7390 C   0  0  0  0  0  0  0  0  0  0  0  0
    5.7980    0.6830   27.3260 C   0  0  0  0  0  0  0  0  0  0  0  0
    6.3900    0.8710   28.5690 C   0  0  0  0  0  0  0  0  0  0  0  0
    7.0150   -0.1550   29.2760 C   0  0  0  0  0  0  0  0  0  0  0  0
    7.6610    0.0500   30.6380 C   0  0  0  0  0  0  0  0  0  0  0  0
    6.3120    0.1490   31.2830 C   0  0  0  0  0  0  0  0  0  0  0  0
    6.6310    0.6530   32.6690 C   0  0  0  0  0  0  0  0  0  0  0  0
    7.1780    1.9270   32.6710 O   0  0  0  0  0  0  0  0  0  0  0  0
    6.3420   -0.1880   33.7420 O   0  0  0  0  0  0  0  0  0  0  0  0
    6.9630   -0.1330   34.9990 C   0  0  0  0  0  0  0  0  0  0  0  0
    7.1210   -1.5200   35.5260 C   0  0  0  0  0  0  0  0  0  0  0  0
    6.4700    0.7710   36.0870 C   0  0  0  0  0  0  0  0  0  0  0  0
    8.4720   -0.0940   34.8830 C   0  0  0  0  0  0  0  0  0  0  0  0
    7.0350   -1.5000   28.6490 C   0  0  0  0  0  0  0  0  0  0  0  0
    5.8200   -4.9260   23.5940 C   0  0  0  0  0  0  0  0  0  0  0  0
    6.5100   -5.4060   22.3430 C   0  0  0  0  0  0  0  0  0  0  0  0
  1  2  1  0
  2  3  2  0
  2  4  1  0
  4  5  1  0
  5  6  1  0
  6  7  1  0
  7  8  1  0
  8  9  2  0
  8 10  1  0
 10 11  1  0
 11 12  2  0
 12 13  1  0
 13 14  2  0
 14 15  1  0
 15 16  1  0
 16 17  1  0
 17 18  1  0
 18 19  2  0
 18 20  1  0
 21 20  1  0
 21 22  1  0
 21 23  1  0
 21 24  1  0
 11 25  1  0
 15 25  2  0
  7 26  1  0
  4 27  1  0
 26 27  1  0
M  END
