piperidine-amides-19236-covalent
     RDKit          3D

 20 21  0  0  0  0  0  0  0  0999 V2000
    7.0770   -3.4010   19.3160 C   0  0  0  0  0  0  0  0  0  0  0  0
    6.3980   -4.1660   20.3360 C   0  0  0  0  0  0  0  0  0  0  0  0
    5.3640   -4.8110   19.9830 O   0  0  0  0  0  0  0  0  0  0  0  0
    6.8690   -4.2760   21.6630 N   0  0  0  0  0  0  0  0  0  0  0  0
    6.8100   -5.6000   22.2990 C   0  0  0  0  0  0  0  0  0  0  0  0
    5.9860   -5.2520   23.5900 C   0  0  0  0  0  0  0  0  0  0  0  0
    6.5890   -4.0150   24.2420 C   0  0  0  0  0  0  0  0  0  0  0  0
    5.5710   -3.5680   25.3710 C   0  0  0  0  0  0  0  0  0  0  0  0
    4.5160   -3.3470   24.8370 O   0  0  0  0  0  0  0  0  0  0  0  0
    6.0180   -3.5170   26.5500 N   0  0  0  0  0  0  0  0  0  0  0  0
    6.0570   -3.0440   27.8170 C   0  0  0  0  0  0  0  0  0  0  0  0
    5.7190   -3.6140   28.9750 C   0  0  0  0  0  0  0  0  0  0  0  0
    5.4610   -5.2640   28.8970 S   0  0  0  0  0  0  0  0  0  0  0  0
    6.0840   -5.9430   30.0570 O   0  0  0  0  0  0  0  0  0  0  0  0
    3.9750   -5.4280   28.8930 O   0  0  0  0  0  0  0  0  0  0  0  0
    6.0730   -5.8460   27.4000 C   0  0  1  0  0  0  0  0  0  0  0  0
    5.0180   -6.2350   26.4440 C   0  0  0  0  0  0  0  0  0  0  0  0
    6.8690   -4.6590   26.9140 C   0  0  0  0  0  0  0  0  0  0  0  0
    6.9260   -2.8380   23.3430 C   0  0  0  0  0  0  0  0  0  0  0  0
    7.6980   -3.2660   22.2700 C   0  0  0  0  0  0  0  0  0  0  0  0
  1  2  1  0
  2  3  2  0
  2  4  1  0
  4  5  1  0
  5  6  1  0
  6  7  1  0
  7  8  1  0
  8  9  2  0
  8 10  1  0
 10 11  1  0
 11 12  1  0
 13 12  1  0
 13 14  2  0
 13 15  2  0
 13 16  1  0
 16 17  1  6
 10 18  1  0
 16 18  1  0
  7 19  1  0
  4 20  1  0
 19 20  1  0
M  END
