piperidine-amides-30180-covalent
     RDKit          3D

 27 29  0  0  0  0  0  0  0  0999 V2000
    7.0650   -3.3570   19.3750 C   0  0  0  0  0  0  0  0  0  0  0  0
    6.4060   -4.2430   20.3270 C   0  0  0  0  0  0  0  0  0  0  0  0
    5.3910   -4.8490   19.9860 O   0  0  0  0  0  0  0  0  0  0  0  0
    6.9690   -4.4610   21.6320 N   0  0  0  0  0  0  0  0  0  0  0  0
    7.6960   -3.4160   22.3010 C   0  0  0  0  0  0  0  0  0  0  0  0
    6.8810   -2.8620   23.4370 C   0  0  0  0  0  0  0  0  0  0  0  0
    6.3140   -3.9930   24.2980 C   0  0  0  0  0  0  0  0  0  0  0  0
    5.3070   -3.4270   25.2530 C   0  0  0  0  0  0  0  0  0  0  0  0
    4.3620   -2.7380   24.8460 O   0  0  0  0  0  0  0  0  0  0  0  0
    5.4070   -3.6490   26.6540 N   0  0  0  0  0  0  0  0  0  0  0  0
    6.5170   -3.0910   27.2710 C   0  0  0  0  0  0  0  0  0  0  0  0
    6.7800   -4.0780   28.3810 C   0  0  0  0  0  0  0  0  0  0  0  0
    5.7590   -4.2290   29.2180 C   0  0  0  0  0  0  0  0  0  0  0  0
    5.5720   -3.1990   29.9200 O   0  0  0  0  0  0  0  0  0  0  0  0
    4.3020   -2.7050   30.2510 C   0  0  0  0  0  0  0  0  0  0  0  0
    3.8630   -1.4710   29.7900 C   0  0  0  0  0  0  0  0  0  0  0  0
    2.5510   -1.0090   30.1730 C   0  0  0  0  0  0  0  0  0  0  0  0
    1.7060   -1.7150   30.9640 C   0  0  0  0  0  0  0  0  0  0  0  0
    0.4960   -1.2170   31.2780 N   0  0  0  0  0  0  0  0  0  0  0  0
    0.3540    0.1430   31.3410 O   0  0  0  0  0  0  0  0  0  0  0  0
   -0.5070   -2.0400   31.7190 O   0  0  0  0  0  0  0  0  0  0  0  0
    2.1350   -2.9300   31.4170 C   0  0  0  0  0  0  0  0  0  0  0  0
    3.4060   -3.4140   31.0680 C   0  0  0  0  0  0  0  0  0  0  0  0
    4.5550   -4.4810   28.6590 C   0  0  0  0  0  0  0  0  0  0  0  0
    4.2500   -3.8510   27.4460 C   0  0  0  0  0  0  0  0  0  0  0  0
    5.6290   -5.0670   23.4840 C   0  0  0  0  0  0  0  0  0  0  0  0
    6.5010   -5.5600   22.3790 C   0  0  0  0  0  0  0  0  0  0  0  0
  1  2  1  0
  2  3  2  0
  2  4  1  0
  4  5  1  0
  5  6  1  0
  6  7  1  0
  7  8  1  0
  8  9  2  0
  8 10  1  0
 10 11  1  0
 11 12  1  0
 12 13  1  0
 13 14  1  0
 14 15  1  0
 15 16  2  0
 16 17  1  0
 17 18  2  0
 18 19  1  0
 19 20  2  0
 19 21  1  0
 18 22  1  0
 15 23  1  0
 22 23  2  0
 13 24  1  0
 10 25  1  0
 24 25  1  0
  7 26  1  0
  4 27  1  0
 26 27  1  0
M  CHG  2  19   1  21  -1
M  END
