piperidine-amides-8252-covalent
     RDKit          3D

 25 27  0  0  0  0  0  0  0  0999 V2000
    7.1320   -3.2670   19.2150 C   0  0  0  0  0  0  0  0  0  0  0  0
    6.3970   -4.0320   20.2210 C   0  0  0  0  0  0  0  0  0  0  0  0
    5.3170   -4.5480   19.8910 O   0  0  0  0  0  0  0  0  0  0  0  0
    6.9440   -4.2230   21.5170 N   0  0  0  0  0  0  0  0  0  0  0  0
    6.6000   -5.4250   22.2230 C   0  0  0  0  0  0  0  0  0  0  0  0
    6.2800   -5.0940   23.6510 C   0  0  0  0  0  0  0  0  0  0  0  0
    6.0170   -3.6050   23.7110 C   0  0  0  0  0  0  0  0  0  0  0  0
    5.3830   -3.2440   25.0140 C   0  0  0  0  0  0  0  0  0  0  0  0
    4.3360   -3.8310   25.2530 O   0  0  0  0  0  0  0  0  0  0  0  0
    5.9620   -2.2910   25.8410 N   0  0  0  0  0  0  0  0  0  0  0  0
    5.1160   -1.4250   26.6020 C   0  0  0  0  0  0  0  0  0  0  0  0
    3.8060   -1.9250   26.8700 C   0  0  0  0  0  0  0  0  0  0  0  0
    3.8210   -3.0960   27.4550 C   0  0  0  0  0  0  0  0  0  0  0  0
    5.0180   -3.5780   27.4670 N   0  0  0  0  0  0  0  0  0  0  0  0
    4.9030   -4.7360   28.0660 C   0  0  0  0  0  0  0  0  0  0  0  0
    6.2640   -5.1110   27.9880 C   0  0  0  0  0  0  0  0  0  0  0  0
    7.1700   -4.1270   28.6680 C   0  0  0  0  0  0  0  0  0  0  0  0
    8.5850   -4.3190   28.6370 C   0  0  0  0  0  0  0  0  0  0  0  0
    9.1480   -5.4760   27.9380 C   0  0  0  0  0  0  0  0  0  0  0  0
    8.1780   -6.3770   27.2960 C   0  0  0  0  0  0  0  0  0  0  0  0
    6.8130   -6.2610   27.2910 C   0  0  0  0  0  0  0  0  0  0  0  0
    3.5830   -5.0230   28.4660 N   0  0  0  0  0  0  0  0  0  0  0  0
    2.8850   -3.9200   28.0500 O   0  0  0  0  0  0  0  0  0  0  0  0
    7.3260   -2.9260   23.5130 C   0  0  0  0  0  0  0  0  0  0  0  0
    7.7240   -3.1400   22.0860 C   0  0  0  0  0  0  0  0  0  0  0  0
  1  2  1  0
  2  3  2  0
  2  4  1  0
  4  5  1  0
  5  6  1  0
  6  7  1  0
  7  8  1  0
  8  9  2  0
  8 10  1  0
 10 11  1  0
 11 12  1  0
 12 13  1  0
 13 14  2  0
 14 15  1  0
 15 16  1  0
 16 17  2  0
 17 18  1  0
 18 19  2  0
 19 20  1  0
 16 21  1  0
 20 21  2  0
 15 22  2  0
 13 23  1  0
 22 23  1  0
  7 24  1  0
  4 25  1  0
 24 25  1  0
M  END
