piperidine-amides-32926-covalent
     RDKit          3D

 28 30  0  0  0  0  0  0  0  0999 V2000
    7.1790   -3.3040   19.2210 C   0  0  0  0  0  0  0  0  0  0  0  0
    6.3480   -4.0030   20.2340 C   0  0  0  0  0  0  0  0  0  0  0  0
    5.2750   -4.5290   19.8860 O   0  0  0  0  0  0  0  0  0  0  0  0
    6.8420   -4.0910   21.5480 N   0  0  0  0  0  0  0  0  0  0  0  0
    7.6340   -3.0250   22.1100 C   0  0  0  0  0  0  0  0  0  0  0  0
    6.8960   -2.5640   23.3560 C   0  0  0  0  0  0  0  0  0  0  0  0
    6.6400   -3.7770   24.1800 C   0  0  0  0  0  0  0  0  0  0  0  0
    5.8160   -3.4440   25.3510 C   0  0  0  0  0  0  0  0  0  0  0  0
    4.5940   -3.3800   25.1680 O   0  0  0  0  0  0  0  0  0  0  0  0
    6.4080   -3.2160   26.5860 N   0  0  0  0  0  0  0  0  0  0  0  0
    6.5170   -1.8970   27.1290 C   0  0  0  0  0  0  0  0  0  0  0  0
    6.1980   -1.4850   28.4040 C   0  0  0  0  0  0  0  0  0  0  0  0
    4.9600   -1.4180   29.0820 C   0  0  0  0  0  0  0  0  0  0  0  0
    5.0040   -0.9250   30.3770 C   0  0  0  0  0  0  0  0  0  0  0  0
    6.3680   -0.5500   30.8310 C   0  0  0  0  0  0  0  0  0  0  0  0
    6.9950    0.0290   32.1070 C   0  0  0  0  0  0  0  0  0  0  0  0
    8.3830    0.5520   31.9300 C   0  0  0  0  0  0  0  0  0  0  0  0
    9.0440    1.0900   33.0080 C   0  0  0  0  0  0  0  0  0  0  0  0
    8.5300    1.2290   34.4220 C   0  0  0  0  0  0  0  0  0  0  0  0
    9.2000    1.7620   35.4710 F   0  0  0  0  0  0  0  0  0  0  0  0
    7.0870    0.6470   34.4550 C   0  0  0  0  0  0  0  0  0  0  0  0
    6.3720    0.0990   33.4130 C   0  0  0  0  0  0  0  0  0  0  0  0
    7.4900   -0.8870   29.5200 S   0  0  0  0  0  0  0  0  0  0  0  0
    6.4380   -4.3470   27.5190 C   0  0  0  0  0  0  0  0  0  0  0  0
    6.9890   -5.5550   26.8100 C   0  0  0  0  0  0  0  0  0  0  0  0
    7.1350   -4.0470   28.6560 C   0  0  0  0  0  0  0  0  0  0  0  0
    5.8230   -4.8550   23.4800 C   0  0  0  0  0  0  0  0  0  0  0  0
    6.4660   -5.2310   22.3120 C   0  0  0  0  0  0  0  0  0  0  0  0
  1  2  1  0
  2  3  2  0
  2  4  1  0
  4  5  1  0
  5  6  1  0
  6  7  1  0
  7  8  1  0
  8  9  2  0
  8 10  1  0
 10 11  1  0
 11 12  1  0
 12 13  2  0
 13 14  1  0
 14 15  2  0
 15 16  1  0
 16 17  2  0
 17 18  1  0
 18 19  2  0
 19 20  1  0
 19 21  1  0
 16 22  1  0
 21 22  2  0
 12 23  1  0
 15 23  1  0
 10 24  1  0
 24 25  1  0
 24 26  1  0
  7 27  1  0
  4 28  1  0
 27 28  1  0
M  END
