piperidine-amides-10597-covalent
     RDKit          3D

 23 24  0  0  0  0  0  0  0  0999 V2000
    7.0740   -3.2810   19.2410 C   0  0  0  0  0  0  0  0  0  0  0  0
    6.3340   -4.0320   20.2620 C   0  0  0  0  0  0  0  0  0  0  0  0
    5.2670   -4.5840   19.8880 O   0  0  0  0  0  0  0  0  0  0  0  0
    6.8300   -4.1470   21.5620 N   0  0  0  0  0  0  0  0  0  0  0  0
    7.6010   -3.0850   22.1510 C   0  0  0  0  0  0  0  0  0  0  0  0
    6.6770   -2.3760   23.0910 C   0  0  0  0  0  0  0  0  0  0  0  0
    5.5410   -3.2700   23.5430 C   0  0  0  0  0  0  0  0  0  0  0  0
    5.0290   -2.8470   24.8820 C   0  0  0  0  0  0  0  0  0  0  0  0
    4.4210   -3.7000   25.5660 O   0  0  0  0  0  0  0  0  0  0  0  0
    5.1600   -1.5390   25.4280 N   0  0  0  0  0  0  0  0  0  0  0  0
    6.2410   -1.2970   26.3280 C   0  0  0  0  0  0  0  0  0  0  0  0
    7.0850   -2.4760   26.1020 C   0  0  0  0  0  0  0  0  0  0  0  0
    7.6490   -2.8260   24.9150 C   0  0  0  0  0  0  0  0  0  0  0  0
    8.3950   -3.9350   24.7300 C   0  0  0  0  0  0  0  0  0  0  0  0
    8.6170   -4.7610   25.7770 C   0  0  0  0  0  0  0  0  0  0  0  0
    9.3470   -5.8340   25.6040 O   0  0  0  0  0  0  0  0  0  0  0  0
    9.4660   -6.5480   26.7480 C   0  0  0  0  0  0  0  0  0  0  0  0
    8.1250   -4.5420   27.0260 C   0  0  0  0  0  0  0  0  0  0  0  0
    7.3010   -3.3580   27.3180 C   0  0  0  0  0  0  0  0  0  0  0  0
    6.6460   -2.8840   28.6030 C   0  0  0  0  0  0  0  0  0  0  0  0
    7.2500   -1.6620   29.2680 C   0  0  0  0  0  0  0  0  0  0  0  0
    5.9230   -4.7400   23.6300 C   0  0  0  0  0  0  0  0  0  0  0  0
    6.4610   -5.2450   22.4520 C   0  0  0  0  0  0  0  0  0  0  0  0
  1  2  1  0
  2  3  2  0
  2  4  1  0
  4  5  1  0
  5  6  1  0
  6  7  1  0
  7  8  1  0
  8  9  2  0
  8 10  1  0
 10 11  1  0
 11 12  1  0
 12 13  2  0
 13 14  1  0
 14 15  2  0
 15 16  1  0
 16 17  1  0
 15 18  1  0
 12 19  1  0
 18 19  2  0
 19 20  1  0
 20 21  1  0
  7 22  1  0
  4 23  1  0
 22 23  1  0
M  END
