piperidine-amides-24615-covalent
     RDKit          3D

 23 24  0  0  0  0  0  0  0  0999 V2000
    7.0890   -3.2980   19.2760 C   0  0  0  0  0  0  0  0  0  0  0  0
    6.2760   -4.0930   20.2030 C   0  0  0  0  0  0  0  0  0  0  0  0
    5.1800   -4.5640   19.8590 O   0  0  0  0  0  0  0  0  0  0  0  0
    6.7620   -4.3740   21.4700 N   0  0  0  0  0  0  0  0  0  0  0  0
    6.2790   -5.5490   22.1610 C   0  0  0  0  0  0  0  0  0  0  0  0
    5.5240   -5.0610   23.4140 C   0  0  0  0  0  0  0  0  0  0  0  0
    6.4640   -4.1130   24.1200 C   0  0  0  0  0  0  0  0  0  0  0  0
    5.9170   -3.6210   25.3870 C   0  0  0  0  0  0  0  0  0  0  0  0
    4.6860   -3.4150   25.5070 O   0  0  0  0  0  0  0  0  0  0  0  0
    6.8510   -3.3910   26.4120 N   0  0  0  0  0  0  0  0  0  0  0  0
    7.5170   -2.1240   26.3650 C   0  0  0  0  0  0  0  0  0  0  0  0
    8.1470   -1.9560   24.9830 C   0  0  0  0  0  0  0  0  0  0  0  0
    9.0970   -2.7670   24.3960 C   0  0  0  0  0  0  0  0  0  0  0  0
    9.6220   -2.5210   23.1420 C   0  0  0  0  0  0  0  0  0  0  0  0
    9.2370   -1.4440   22.3670 C   0  0  0  0  0  0  0  0  0  0  0  0
    8.3100   -0.5460   22.7780 C   0  0  0  0  0  0  0  0  0  0  0  0
    7.8530    0.8070   21.7530 Cl  0  0  0  0  0  0  0  0  0  0  0  0
    7.6910   -0.7530   24.1430 C   0  0  0  0  0  0  0  0  0  0  0  0
    7.8160   -4.4240   26.7760 C   0  0  0  0  0  0  0  0  0  0  0  0
    8.1150   -4.6120   28.2260 C   0  0  0  0  0  0  0  0  0  0  0  0
    7.2370   -5.6380   27.4920 C   0  0  0  0  0  0  0  0  0  0  0  0
    6.6810   -2.9390   23.2380 C   0  0  0  0  0  0  0  0  0  0  0  0
    7.3790   -3.3060   22.1490 C   0  0  0  0  0  0  0  0  0  0  0  0
  1  2  1  0
  2  3  2  0
  2  4  1  0
  4  5  1  0
  5  6  1  0
  6  7  1  0
  7  8  1  0
  8  9  2  0
  8 10  1  0
 10 11  1  0
 11 12  1  0
 12 13  2  0
 13 14  1  0
 14 15  2  0
 15 16  1  0
 16 17  1  0
 12 18  1  0
 16 18  2  0
 10 19  1  0
 19 20  1  0
 19 21  1  0
  7 22  1  0
  4 23  1  0
 22 23  1  0
M  END
