piperidine-amides-11741-covalent
     RDKit          3D

 28 30  0  0  0  0  0  0  0  0999 V2000
    7.1090   -3.2970   19.2160 C   0  0  0  0  0  0  0  0  0  0  0  0
    6.3000   -4.0130   20.1930 C   0  0  0  0  0  0  0  0  0  0  0  0
    5.2230   -4.4950   19.8590 O   0  0  0  0  0  0  0  0  0  0  0  0
    6.7830   -4.2120   21.5240 N   0  0  0  0  0  0  0  0  0  0  0  0
    6.3510   -5.3540   22.2820 C   0  0  0  0  0  0  0  0  0  0  0  0
    5.6150   -4.8870   23.5110 C   0  0  0  0  0  0  0  0  0  0  0  0
    6.5030   -3.8960   24.2580 C   0  0  0  0  0  0  0  0  0  0  0  0
    5.8330   -3.4040   25.4940 C   0  0  0  0  0  0  0  0  0  0  0  0
    4.7250   -2.8270   25.4720 O   0  0  0  0  0  0  0  0  0  0  0  0
    6.4840   -3.6120   26.7350 N   0  0  0  0  0  0  0  0  0  0  0  0
    7.0750   -4.9080   26.9650 C   0  0  2  0  0  0  0  0  0  0  0  0
    6.4990   -5.5340   28.1980 C   0  0  0  0  0  0  0  0  0  0  0  0
    8.5260   -4.7820   27.1410 C   0  0  0  0  0  0  0  0  0  0  0  0
    9.0470   -4.2300   28.1360 O   0  0  0  0  0  0  0  0  0  0  0  0
    9.3240   -5.3110   26.0950 N   0  0  0  0  0  0  0  0  0  0  0  0
   10.0670   -4.2900   25.4490 C   0  0  0  0  0  0  0  0  0  0  0  0
    9.4290   -3.4640   24.5530 C   0  0  0  0  0  0  0  0  0  0  0  0
   10.2220   -2.4310   23.9290 C   0  0  0  0  0  0  0  0  0  0  0  0
   11.5450   -2.2630   24.2020 C   0  0  0  0  0  0  0  0  0  0  0  0
   12.1430   -1.2510   23.5700 N   0  0  0  0  0  0  0  0  0  0  0  0
   13.0470   -1.4230   22.5020 C   0  0  0  0  0  0  0  0  0  0  0  0
   13.5080   -0.1660   22.0820 N   0  0  0  0  0  0  0  0  0  0  0  0
   12.8820    0.7410   22.8860 C   0  0  0  0  0  0  0  0  0  0  0  0
   12.0870    0.0460   23.7460 N   0  0  0  0  0  0  0  0  0  0  0  0
   12.1900   -3.1730   25.1540 C   0  0  0  0  0  0  0  0  0  0  0  0
   11.4060   -4.1380   25.7280 C   0  0  0  0  0  0  0  0  0  0  0  0
    6.8370   -2.7120   23.3930 C   0  0  0  0  0  0  0  0  0  0  0  0
    7.4970   -3.1540   22.1330 C   0  0  0  0  0  0  0  0  0  0  0  0
  1  2  1  0
  2  3  2  0
  2  4  1  0
  4  5  1  0
  5  6  1  0
  6  7  1  0
  7  8  1  0
  8  9  2  0
  8 10  1  0
 10 11  1  0
 11 12  1  1
 11 13  1  0
 13 14  2  0
 13 15  1  0
 15 16  1  0
 16 17  2  0
 17 18  1  0
 18 19  2  0
 19 20  1  0
 20 21  1  0
 21 22  2  0
 22 23  1  0
 20 24  1  0
 23 24  2  0
 19 25  1  0
 16 26  1  0
 25 26  2  0
  7 27  1  0
  4 28  1  0
 27 28  1  0
M  END
