piperidine-amides-9031-covalent
     RDKit          3D

 21 21  0  0  0  0  0  0  0  0999 V2000
    7.0990   -3.3130   19.3190 C   0  0  0  0  0  0  0  0  0  0  0  0
    6.3280   -4.0670   20.3100 C   0  0  0  0  0  0  0  0  0  0  0  0
    5.3020   -4.6560   19.9300 O   0  0  0  0  0  0  0  0  0  0  0  0
    6.7450   -4.1880   21.6550 N   0  0  0  0  0  0  0  0  0  0  0  0
    6.6490   -5.4510   22.3600 C   0  0  0  0  0  0  0  0  0  0  0  0
    6.0750   -5.1360   23.7170 C   0  0  0  0  0  0  0  0  0  0  0  0
    6.0010   -3.6600   23.9390 C   0  0  0  0  0  0  0  0  0  0  0  0
    5.4470   -3.2390   25.2580 C   0  0  0  0  0  0  0  0  0  0  0  0
    4.2870   -2.7400   25.3030 O   0  0  0  0  0  0  0  0  0  0  0  0
    6.1090   -3.3470   26.5070 N   0  0  0  0  0  0  0  0  0  0  0  0
    6.1190   -4.6260   27.2580 C   0  0  0  0  0  0  0  0  0  0  0  0
    4.8520   -4.9140   27.8950 C   0  0  0  0  0  0  0  0  0  0  0  0
    4.7390   -6.2070   28.5900 C   0  0  1  0  0  0  0  0  0  0  0  0
    5.1140   -6.0450   30.0430 C   0  0  0  0  0  0  0  0  0  0  0  0
    5.5010   -7.3680   30.6830 C   0  0  0  0  0  0  0  0  0  0  0  0
    3.8670   -5.4710   30.7420 C   0  0  0  0  0  0  0  0  0  0  0  0
    3.4140   -6.8260   28.5100 N   0  0  0  0  0  0  0  0  0  0  0  0
    2.9980   -7.2370   27.2950 C   0  0  0  0  0  0  0  0  0  0  0  0
    3.2580   -7.8870   29.4820 C   0  0  0  0  0  0  0  0  0  0  0  0
    7.3460   -2.9770   23.6720 C   0  0  0  0  0  0  0  0  0  0  0  0
    7.6330   -3.1530   22.1700 C   0  0  0  0  0  0  0  0  0  0  0  0
  1  2  1  0
  2  3  2  0
  2  4  1  0
  4  5  1  0
  5  6  1  0
  6  7  1  0
  7  8  1  0
  8  9  2  0
  8 10  1  0
 10 11  1  0
 11 12  1  0
 13 12  1  1
 13 14  1  0
 14 15  1  0
 14 16  1  0
 13 17  1  0
 17 18  1  0
 17 19  1  0
  7 20  1  0
  4 21  1  0
 20 21  1  0
M  END
