piperidine-amides-19037-covalent
     RDKit          3D

 22 24  0  0  0  0  0  0  0  0999 V2000
    7.1450   -3.3440   19.4220 C   0  0  0  0  0  0  0  0  0  0  0  0
    6.4350   -4.1740   20.3640 C   0  0  0  0  0  0  0  0  0  0  0  0
    5.3980   -4.7980   19.9720 O   0  0  0  0  0  0  0  0  0  0  0  0
    6.8870   -4.3370   21.6860 N   0  0  0  0  0  0  0  0  0  0  0  0
    6.7030   -5.6490   22.3300 C   0  0  0  0  0  0  0  0  0  0  0  0
    5.7830   -5.1930   23.5180 C   0  0  0  0  0  0  0  0  0  0  0  0
    6.5270   -4.0790   24.2330 C   0  0  0  0  0  0  0  0  0  0  0  0
    5.6660   -3.5460   25.4520 C   0  0  0  0  0  0  0  0  0  0  0  0
    4.9310   -2.6340   25.1010 O   0  0  0  0  0  0  0  0  0  0  0  0
    5.9920   -4.2210   26.4690 N   0  0  0  0  0  0  0  0  0  0  0  0
    6.7150   -4.9950   27.2820 C   0  0  0  0  0  0  0  0  0  0  0  0
    6.7430   -6.1890   27.7910 C   0  0  0  0  0  0  0  0  0  0  0  0
    5.8070   -6.1430   28.7960 C   0  0  0  0  0  0  0  0  0  0  0  0
    5.6400   -7.1320   29.8730 C   0  0  0  0  0  0  0  0  0  0  0  0
    4.4940   -6.8480   30.8540 C   0  0  0  0  0  0  0  0  0  0  0  0
    3.7160   -5.6950   30.6540 C   0  0  0  0  0  0  0  0  0  0  0  0
    3.6630   -4.6160   29.7420 C   0  0  0  0  0  0  0  0  0  0  0  0
    4.8290   -5.0090   28.8360 C   0  0  0  0  0  0  0  0  0  0  0  0
    5.1170   -4.0210   27.6220 C   0  0  2  0  0  0  0  0  0  0  0  0
    3.9680   -3.4920   27.0930 C   0  0  0  0  0  0  0  0  0  0  0  0
    7.0040   -2.9100   23.3780 C   0  0  0  0  0  0  0  0  0  0  0  0
    7.7180   -3.3450   22.3180 C   0  0  0  0  0  0  0  0  0  0  0  0
  1  2  1  0
  2  3  2  0
  2  4  1  0
  4  5  1  0
  5  6  1  0
  6  7  1  0
  7  8  1  0
  8  9  2  0
  8 10  1  0
 10 11  1  0
 11 12  1  0
 12 13  1  0
 13 14  2  0
 14 15  1  0
 15 16  2  0
 16 17  1  0
 13 18  1  0
 17 18  2  0
 10 19  1  0
 18 19  1  0
 19 20  1  6
  7 21  1  0
  4 22  1  0
 21 22  1  0
M  END
