piperidine-amides-24294-covalent
     RDKit          3D

 24 25  0  0  0  0  0  0  0  0999 V2000
    7.1000   -3.2870   19.2690 C   0  0  0  0  0  0  0  0  0  0  0  0
    6.2880   -4.0570   20.2210 C   0  0  0  0  0  0  0  0  0  0  0  0
    5.2040   -4.5490   19.8650 O   0  0  0  0  0  0  0  0  0  0  0  0
    6.7070   -4.3250   21.5210 N   0  0  0  0  0  0  0  0  0  0  0  0
    7.5440   -3.3840   22.2350 C   0  0  0  0  0  0  0  0  0  0  0  0
    6.6080   -2.6190   23.1700 C   0  0  0  0  0  0  0  0  0  0  0  0
    5.8390   -3.6650   23.9550 C   0  0  0  0  0  0  0  0  0  0  0  0
    6.1540   -3.5560   25.3720 C   0  0  0  0  0  0  0  0  0  0  0  0
    7.1540   -4.1680   25.6730 O   0  0  0  0  0  0  0  0  0  0  0  0
    5.4230   -2.8380   26.3550 N   0  0  0  0  0  0  0  0  0  0  0  0
    5.2870   -3.4900   27.6470 C   0  0  0  0  0  0  0  0  0  0  0  0
    5.8160   -4.9370   27.6290 C   0  0  0  0  0  0  0  0  0  0  0  0
    4.8970   -5.9080   28.0930 O   0  0  0  0  0  0  0  0  0  0  0  0
    7.1570   -5.2280   27.1620 N   0  0  0  0  0  0  0  0  0  0  0  0
    8.0630   -6.1840   27.7640 C   0  0  0  0  0  0  0  0  0  0  0  0
    5.6110   -1.5170   26.9860 C   0  0  0  0  0  0  0  0  0  0  0  0
    5.7220   -1.5320   28.3570 C   0  0  0  0  0  0  0  0  0  0  0  0
    5.9350   -0.3890   29.0880 C   0  0  0  0  0  0  0  0  0  0  0  0
    6.0860    1.0870   28.6840 C   0  0  0  0  0  0  0  0  0  0  0  0
    5.9240    0.9340   27.1590 C   0  0  0  0  0  0  0  0  0  0  0  0
    6.0010    2.0990   26.4680 F   0  0  0  0  0  0  0  0  0  0  0  0
    5.7030   -0.3310   26.3910 C   0  0  0  0  0  0  0  0  0  0  0  0
    6.2990   -5.0660   23.5920 C   0  0  0  0  0  0  0  0  0  0  0  0
    5.9760   -5.3170   22.2620 C   0  0  0  0  0  0  0  0  0  0  0  0
  1  2  1  0
  2  3  2  0
  2  4  1  0
  4  5  1  0
  5  6  1  0
  6  7  1  0
  7  8  1  0
  8  9  2  0
  8 10  1  0
 10 11  1  0
 11 12  1  0
 12 13  2  0
 12 14  1  0
 14 15  1  0
 10 16  1  0
 16 17  2  0
 17 18  1  0
 18 19  2  0
 19 20  1  0
 20 21  1  0
 16 22  1  0
 20 22  2  0
  7 23  1  0
  4 24  1  0
 23 24  1  0
M  END
