piperidine-amides-35401-covalent
     RDKit          3D

 30 32  0  0  0  0  0  0  0  0999 V2000
    6.9900   -3.3300   19.2680 C   0  0  0  0  0  0  0  0  0  0  0  0
    6.2920   -4.1650   20.2860 C   0  0  0  0  0  0  0  0  0  0  0  0
    5.2860   -4.7660   19.9350 O   0  0  0  0  0  0  0  0  0  0  0  0
    6.7950   -4.2790   21.5770 N   0  0  0  0  0  0  0  0  0  0  0  0
    6.4020   -5.3490   22.4350 C   0  0  0  0  0  0  0  0  0  0  0  0
    5.4520   -4.8350   23.5010 C   0  0  0  0  0  0  0  0  0  0  0  0
    5.4930   -3.2930   23.7030 C   0  0  0  0  0  0  0  0  0  0  0  0
    5.2100   -2.9970   25.1360 C   0  0  0  0  0  0  0  0  0  0  0  0
    4.0880   -2.6300   25.5020 O   0  0  0  0  0  0  0  0  0  0  0  0
    6.2650   -3.1600   26.0550 N   0  0  0  0  0  0  0  0  0  0  0  0
    7.1830   -4.1200   25.4690 C   0  0  0  0  0  0  0  0  0  0  0  0
    8.5070   -3.5240   25.0730 C   0  0  0  0  0  0  0  0  0  0  0  0
    9.1170   -2.5990   24.1560 C   0  0  0  0  0  0  0  0  0  0  0  0
   10.4770   -2.2680   24.0410 C   0  0  0  0  0  0  0  0  0  0  0  0
   11.0830   -1.0190   22.7540 Br  0  0  0  0  0  0  0  0  0  0  0  0
   11.3820   -2.8410   24.8580 C   0  0  0  0  0  0  0  0  0  0  0  0
   12.7100   -2.5580   24.8030 O   0  0  0  0  0  0  0  0  0  0  0  0
   10.9290   -3.7950   25.8490 C   0  0  0  0  0  0  0  0  0  0  0  0
   11.4370   -4.5350   26.8080 O   0  0  0  0  0  0  0  0  0  0  0  0
   10.2950   -5.0100   27.5460 C   0  0  0  0  0  0  0  0  0  0  0  0
    9.5550   -4.1030   25.9260 C   0  0  0  0  0  0  0  0  0  0  0  0
    6.6990   -1.9350   26.7940 C   0  0  0  0  0  0  0  0  0  0  0  0
    6.4460   -0.8670   26.0470 C   0  0  0  0  0  0  0  0  0  0  0  0
    6.2760   -2.3320   25.9730 N   0  0  0  0  0  0  0  0  0  0  0  0
    6.7820   -2.9800   27.2150 N   0  0  0  0  0  0  0  0  0  0  0  0
    6.7190   -4.3940   27.4190 C   0  0  0  0  0  0  0  0  0  0  0  0
    7.6750   -4.9370   28.4270 C   0  0  0  0  0  0  0  0  0  0  0  0
    7.2980   -1.9470   28.1020 C   0  0  0  0  0  0  0  0  0  0  0  0
    6.8520   -2.7040   23.4030 C   0  0  0  0  0  0  0  0  0  0  0  0
    7.4560   -3.1450   22.1000 C   0  0  0  0  0  0  0  0  0  0  0  0
  1  2  1  0
  2  3  2  0
  2  4  1  0
  4  5  1  0
  5  6  1  0
  6  7  1  0
  7  8  1  0
  8  9  2  0
  8 10  1  0
 10 11  1  0
 11 12  1  0
 12 13  2  0
 13 14  1  0
 14 15  1  0
 14 16  2  0
 16 17  1  0
 16 18  1  0
 18 19  1  0
 19 20  1  0
 12 21  1  0
 18 21  2  0
 10 22  1  0
 22 23  1  0
 23 24  2  0
 24 25  1  0
 25 26  1  0
 26 27  1  0
 22 28  2  0
 25 28  1  0
  7 29  1  0
  4 30  1  0
 29 30  1  0
M  END
