piperidine-amides-5260-covalent
     RDKit          3D

 21 23  0  0  0  0  0  0  0  0999 V2000
    7.1350   -3.2890   19.1780 C   0  0  0  0  0  0  0  0  0  0  0  0
    6.3380   -3.9900   20.2030 C   0  0  0  0  0  0  0  0  0  0  0  0
    5.2390   -4.4510   19.8440 O   0  0  0  0  0  0  0  0  0  0  0  0
    6.8370   -4.1760   21.4910 N   0  0  0  0  0  0  0  0  0  0  0  0
    7.6000   -3.1490   22.1250 C   0  0  0  0  0  0  0  0  0  0  0  0
    7.2430   -2.8760   23.5170 C   0  0  0  0  0  0  0  0  0  0  0  0
    6.4650   -3.9330   24.2030 C   0  0  0  0  0  0  0  0  0  0  0  0
    5.7320   -3.3450   25.3500 C   0  0  0  0  0  0  0  0  0  0  0  0
    4.5040   -3.1660   25.2280 O   0  0  0  0  0  0  0  0  0  0  0  0
    6.3850   -2.9920   26.5480 N   0  0  0  0  0  0  0  0  0  0  0  0
    6.3760   -1.6180   27.1000 C   0  0  0  0  0  0  0  0  0  0  0  0
    5.5000   -1.5380   28.3060 C   0  0  0  0  0  0  0  0  0  0  0  0
    4.3830   -2.3690   28.5510 N   0  0  0  0  0  0  0  0  0  0  0  0
    3.9100   -1.9070   29.7920 C   0  0  0  0  0  0  0  0  0  0  0  0
    4.5100   -0.9590   30.3620 O   0  0  0  0  0  0  0  0  0  0  0  0
    5.5770   -0.6220   29.4830 C   0  0  0  0  0  0  0  0  0  0  0  0
    6.5580    0.3390   29.5850 C   0  0  0  0  0  0  0  0  0  0  0  0
    6.6340    0.9320   30.6280 C   0  0  0  0  0  0  0  0  0  0  0  0
    7.5810   -0.2100   30.5410 C   0  0  0  0  0  0  0  0  0  0  0  0
    5.6220   -4.7890   23.3350 C   0  0  0  0  0  0  0  0  0  0  0  0
    6.3710   -5.2840   22.2730 C   0  0  0  0  0  0  0  0  0  0  0  0
  1  2  1  0
  2  3  2  0
  2  4  1  0
  4  5  1  0
  5  6  1  0
  6  7  1  0
  7  8  1  0
  8  9  2  0
  8 10  1  0
 10 11  1  0
 11 12  1  0
 12 13  1  0
 13 14  2  0
 14 15  1  0
 12 16  2  0
 15 16  1  0
 16 17  1  0
 17 18  1  0
 17 19  1  0
 18 19  1  0
  7 20  1  0
  4 21  1  0
 20 21  1  0
M  END
