piperidine-amides-2970-covalent
     RDKit          3D

 23 24  0  0  0  0  0  0  0  0999 V2000
    7.0330   -3.3140   19.3200 C   0  0  0  0  0  0  0  0  0  0  0  0
    6.3710   -4.1700   20.3010 C   0  0  0  0  0  0  0  0  0  0  0  0
    5.3880   -4.8350   19.9770 O   0  0  0  0  0  0  0  0  0  0  0  0
    6.8820   -4.2750   21.6380 N   0  0  0  0  0  0  0  0  0  0  0  0
    7.7970   -3.2880   22.1450 C   0  0  0  0  0  0  0  0  0  0  0  0
    7.2950   -2.7230   23.4370 C   0  0  0  0  0  0  0  0  0  0  0  0
    6.7460   -3.8450   24.3040 C   0  0  0  0  0  0  0  0  0  0  0  0
    6.0450   -3.1790   25.4420 C   0  0  0  0  0  0  0  0  0  0  0  0
    4.7970   -3.1740   25.5510 O   0  0  0  0  0  0  0  0  0  0  0  0
    6.8640   -2.5000   26.4200 N   0  0  0  0  0  0  0  0  0  0  0  0
    6.3160   -1.3310   27.1210 C   0  0  0  0  0  0  0  0  0  0  0  0
    5.8300   -0.6120   26.0930 C   0  0  0  0  0  0  0  0  0  0  0  0
    6.4880   -1.8330   26.0730 N   0  0  0  0  0  0  0  0  0  0  0  0
    6.8460   -2.2450   27.4670 N   0  0  0  0  0  0  0  0  0  0  0  0
    7.5350   -3.4710   27.8450 C   0  0  0  0  0  0  0  0  0  0  0  0
    6.5030   -4.1320   28.5070 C   0  0  0  0  0  0  0  0  0  0  0  0
    6.3430   -5.4020   28.0500 C   0  0  0  0  0  0  0  0  0  0  0  0
    4.9570   -5.6700   27.6940 C   0  0  0  0  0  0  0  0  0  0  0  0
    6.4130   -1.2790   28.3710 C   0  0  0  0  0  0  0  0  0  0  0  0
    5.7660   -0.0610   28.5620 C   0  0  0  0  0  0  0  0  0  0  0  0
    6.3900    1.0570   28.0220 C   0  0  0  0  0  0  0  0  0  0  0  0
    5.9020   -4.8420   23.6500 C   0  0  0  0  0  0  0  0  0  0  0  0
    6.5160   -5.3480   22.5100 C   0  0  0  0  0  0  0  0  0  0  0  0
  1  2  1  0
  2  3  2  0
  2  4  1  0
  4  5  1  0
  5  6  1  0
  6  7  1  0
  7  8  1  0
  8  9  2  0
  8 10  1  0
 10 11  1  0
 11 12  1  0
 12 13  2  0
 13 14  1  0
 14 15  1  0
 15 16  1  0
 16 17  1  0
 17 18  1  0
 11 19  2  0
 14 19  1  0
 19 20  1  0
 20 21  1  0
  7 22  1  0
  4 23  1  0
 22 23  1  0
M  END
