piperidine-amides-5099-covalent
     RDKit          3D

 22 24  0  0  0  0  0  0  0  0999 V2000
    7.0930   -3.2900   19.2270 C   0  0  0  0  0  0  0  0  0  0  0  0
    6.3590   -4.0820   20.2390 C   0  0  0  0  0  0  0  0  0  0  0  0
    5.2780   -4.5870   19.8880 O   0  0  0  0  0  0  0  0  0  0  0  0
    6.8980   -4.2950   21.5090 N   0  0  0  0  0  0  0  0  0  0  0  0
    7.6320   -3.2400   22.1380 C   0  0  0  0  0  0  0  0  0  0  0  0
    7.1060   -2.8130   23.4270 C   0  0  0  0  0  0  0  0  0  0  0  0
    6.4810   -3.8920   24.2100 C   0  0  0  0  0  0  0  0  0  0  0  0
    5.7660   -3.3200   25.3760 C   0  0  0  0  0  0  0  0  0  0  0  0
    4.5180   -3.3300   25.3910 O   0  0  0  0  0  0  0  0  0  0  0  0
    6.5080   -2.7810   26.4400 N   0  0  0  0  0  0  0  0  0  0  0  0
    6.0150   -1.7250   27.3530 C   0  0  1  0  0  0  0  0  0  0  0  0
    7.0040   -1.4190   28.4170 C   0  0  0  0  0  0  0  0  0  0  0  0
    6.7640   -0.2760   29.2730 C   0  0  0  0  0  0  0  0  0  0  0  0
    6.2550    0.8510   28.6730 C   0  0  0  0  0  0  0  0  0  0  0  0
    5.9020    0.8100   27.3350 C   0  0  0  0  0  0  0  0  0  0  0  0
    5.6780    1.9870   26.6810 C   0  0  0  0  0  0  0  0  0  0  0  0
    5.3240    2.0290   25.3570 C   0  0  0  0  0  0  0  0  0  0  0  0
    5.1770    0.8880   24.6140 C   0  0  0  0  0  0  0  0  0  0  0  0
    5.3960   -0.3350   25.2360 C   0  0  0  0  0  0  0  0  0  0  0  0
    5.7760   -0.3830   26.6590 C   0  0  0  0  0  0  0  0  0  0  0  0
    5.6140   -4.8070   23.4260 C   0  0  0  0  0  0  0  0  0  0  0  0
    6.4320   -5.3980   22.3180 C   0  0  0  0  0  0  0  0  0  0  0  0
  1  2  1  0
  2  3  2  0
  2  4  1  0
  4  5  1  0
  5  6  1  0
  6  7  1  0
  7  8  1  0
  8  9  2  0
  8 10  1  0
 11 10  1  6
 11 12  1  0
 12 13  1  0
 13 14  1  0
 14 15  1  0
 15 16  2  0
 16 17  1  0
 17 18  2  0
 18 19  1  0
 11 20  1  0
 15 20  1  0
 19 20  2  0
  7 21  1  0
  4 22  1  0
 21 22  1  0
M  END
