piperidine-amides-23798-covalent
     RDKit          3D

 24 26  0  0  0  0  0  0  0  0999 V2000
    7.0100   -3.3530   19.4140 C   0  0  0  0  0  0  0  0  0  0  0  0
    6.3780   -4.2220   20.4290 C   0  0  0  0  0  0  0  0  0  0  0  0
    5.4300   -4.9320   20.0080 O   0  0  0  0  0  0  0  0  0  0  0  0
    6.8290   -4.2920   21.7910 N   0  0  0  0  0  0  0  0  0  0  0  0
    6.6450   -5.5200   22.4920 C   0  0  0  0  0  0  0  0  0  0  0  0
    6.2850   -5.3210   23.8890 C   0  0  0  0  0  0  0  0  0  0  0  0
    6.1770   -3.8950   24.2340 C   0  0  0  0  0  0  0  0  0  0  0  0
    5.5690   -3.5880   25.6180 C   0  0  0  0  0  0  0  0  0  0  0  0
    4.3580   -3.3020   25.5870 O   0  0  0  0  0  0  0  0  0  0  0  0
    6.1590   -3.5570   26.9440 N   0  0  0  0  0  0  0  0  0  0  0  0
    5.8960   -2.5160   27.8790 C   0  0  2  0  0  0  0  0  0  0  0  0
    6.9540   -2.0040   28.7400 C   0  0  0  0  0  0  0  0  0  0  0  0
    4.8780   -2.9860   28.8900 C   0  0  0  0  0  0  0  0  0  0  0  0
    4.9710   -4.2780   29.2900 C   0  0  0  0  0  0  0  0  0  0  0  0
    4.0110   -4.2590   30.5000 C   0  0  0  0  0  0  0  0  0  0  0  0
    3.8910   -5.6220   31.2020 C   0  0  0  0  0  0  0  0  0  0  0  0
    3.0340   -5.6740   32.3100 F   0  0  0  0  0  0  0  0  0  0  0  0
    4.7770   -6.6970   30.5160 C   0  0  0  0  0  0  0  0  0  0  0  0
    5.6750   -6.5910   29.3300 C   0  0  0  0  0  0  0  0  0  0  0  0
    5.6790   -5.2280   28.7640 C   0  0  0  0  0  0  0  0  0  0  0  0
    6.4700   -4.8380   27.5710 C   0  0  1  0  0  0  0  0  0  0  0  0
    6.2750   -6.0410   26.7640 C   0  0  0  0  0  0  0  0  0  0  0  0
    7.3720   -3.0990   23.7900 C   0  0  0  0  0  0  0  0  0  0  0  0
    7.5900   -3.2090   22.3990 C   0  0  0  0  0  0  0  0  0  0  0  0
  1  2  1  0
  2  3  2  0
  2  4  1  0
  4  5  1  0
  5  6  1  0
  6  7  1  0
  7  8  1  0
  8  9  2  0
  8 10  1  0
 10 11  1  0
 11 12  1  1
 11 13  1  0
 13 14  1  0
 14 15  2  0
 15 16  1  0
 16 17  1  0
 16 18  2  0
 18 19  1  0
 14 20  1  0
 19 20  2  0
 10 21  1  0
 20 21  1  0
 21 22  1  6
  7 23  1  0
  4 24  1  0
 23 24  1  0
M  END
