piperidine-amides-33407-covalent
     RDKit          3D

 30 34  0  0  0  0  0  0  0  0999 V2000
    7.0270   -3.3760   19.3650 C   0  0  0  0  0  0  0  0  0  0  0  0
    6.4000   -4.2390   20.3860 C   0  0  0  0  0  0  0  0  0  0  0  0
    5.4080   -4.9070   20.0000 O   0  0  0  0  0  0  0  0  0  0  0  0
    6.9150   -4.3410   21.7150 N   0  0  0  0  0  0  0  0  0  0  0  0
    6.5350   -5.4760   22.4990 C   0  0  0  0  0  0  0  0  0  0  0  0
    6.1880   -5.1580   23.8920 C   0  0  0  0  0  0  0  0  0  0  0  0
    6.2010   -3.7130   24.2080 C   0  0  0  0  0  0  0  0  0  0  0  0
    5.7140   -3.3180   25.5980 C   0  0  0  0  0  0  0  0  0  0  0  0
    5.0630   -2.2630   25.6770 O   0  0  0  0  0  0  0  0  0  0  0  0
    5.9070   -4.0710   26.8120 N   0  0  0  0  0  0  0  0  0  0  0  0
    5.9350   -5.4900   26.9300 C   0  0  0  0  0  0  0  0  0  0  0  0
    6.1970   -5.5270   28.2900 C   0  0  1  0  0  0  0  0  0  0  0  0
    6.1080   -4.0430   28.0120 C   0  0  0  0  0  0  0  0  0  0  0  0
    4.7590   -3.7860   27.5130 C   0  0  0  0  0  0  0  0  0  0  0  0
    4.1560   -4.9590   28.3400 C   0  0  0  0  0  0  0  0  0  0  0  0
    5.3710   -4.6700   29.0240 C   0  0  1  0  0  0  0  0  0  0  0  0
    4.4350   -5.0360   30.1860 C   0  0  0  0  0  0  0  0  0  0  0  0
    4.2800   -6.3910   30.4890 N   0  0  0  0  0  0  0  0  0  0  0  0
    3.3810   -6.2860   31.5500 C   0  0  0  0  0  0  0  0  0  0  0  0
    2.7450   -7.3820   32.3900 C   0  0  0  0  0  0  0  0  0  0  0  0
    2.8710   -7.5240   33.9020 C   0  0  0  0  0  0  0  0  0  0  0  0
    2.1490   -8.6880   34.4540 C   0  0  0  0  0  0  0  0  0  0  0  0
    1.4140   -9.5860   33.6820 C   0  0  0  0  0  0  0  0  0  0  0  0
    1.2520   -9.5130   32.2660 N   0  0  0  0  0  0  0  0  0  0  0  0
    1.9390   -8.3900   31.6550 C   0  0  0  0  0  0  0  0  0  0  0  0
    3.0330   -4.9850   31.8580 N   0  0  0  0  0  0  0  0  0  0  0  0
    3.6920   -4.1900   31.0020 O   0  0  0  0  0  0  0  0  0  0  0  0
    5.7200   -3.4640   28.2440 C   0  0  0  0  0  0  0  0  0  0  0  0
    7.5150   -3.1300   23.7790 C   0  0  0  0  0  0  0  0  0  0  0  0
    7.6690   -3.2420   22.2670 C   0  0  0  0  0  0  0  0  0  0  0  0
  1  2  1  0
  2  3  2  0
  2  4  1  0
  4  5  1  0
  5  6  1  0
  6  7  1  0
  7  8  1  0
  8  9  2  0
  8 10  1  0
 10 11  1  0
 12 11  1  6
 12 13  1  0
 13 14  1  0
 14 15  1  0
 12 16  1  0
 15 16  1  0
 16 17  1  1
 17 18  2  0
 18 19  1  0
 19 20  1  0
 20 21  2  0
 21 22  1  0
 22 23  2  0
 23 24  1  0
 20 25  1  0
 24 25  2  0
 19 26  2  0
 17 27  1  0
 26 27  1  0
 10 28  1  0
 16 28  1  0
  7 29  1  0
  4 30  1  0
 29 30  1  0
M  END
