piperidine-amides-28705-covalent
     RDKit          3D

 25 27  0  0  0  0  0  0  0  0999 V2000
    7.0340   -3.3300   19.3740 C   0  0  0  0  0  0  0  0  0  0  0  0
    6.3600   -4.1850   20.3500 C   0  0  0  0  0  0  0  0  0  0  0  0
    5.3550   -4.8100   19.9720 O   0  0  0  0  0  0  0  0  0  0  0  0
    6.8640   -4.3380   21.6730 N   0  0  0  0  0  0  0  0  0  0  0  0
    6.5860   -5.5760   22.3500 C   0  0  0  0  0  0  0  0  0  0  0  0
    6.3950   -5.3550   23.8300 C   0  0  0  0  0  0  0  0  0  0  0  0
    6.0930   -3.8910   24.0400 C   0  0  0  0  0  0  0  0  0  0  0  0
    5.5350   -3.6130   25.4200 C   0  0  0  0  0  0  0  0  0  0  0  0
    4.3150   -3.4670   25.4360 O   0  0  0  0  0  0  0  0  0  0  0  0
    6.3310   -3.5170   26.5720 N   0  0  0  0  0  0  0  0  0  0  0  0
    6.2530   -4.5170   27.5920 C   0  0  0  0  0  0  0  0  0  0  0  0
    5.9280   -5.8300   27.2390 C   0  0  0  0  0  0  0  0  0  0  0  0
    5.6100   -6.6560   28.2870 C   0  0  0  0  0  0  0  0  0  0  0  0
    6.3640   -2.1690   27.0820 C   0  0  0  0  0  0  0  0  0  0  0  0
    5.8510   -1.0320   26.5340 N   0  0  0  0  0  0  0  0  0  0  0  0
    6.1220   -0.0600   27.3940 O   0  0  0  0  0  0  0  0  0  0  0  0
    6.8360   -0.2600   28.6550 C   0  0  0  0  0  0  0  0  0  0  0  0
    6.6280    1.2280   28.8140 C   0  0  0  0  0  0  0  0  0  0  0  0
    5.9230    1.7500   27.6880 C   0  0  0  0  0  0  0  0  0  0  0  0
    5.6440    0.6310   26.7490 C   0  0  0  0  0  0  0  0  0  0  0  0
    4.7820    0.9270   25.2430 Cl  0  0  0  0  0  0  0  0  0  0  0  0
    6.1320   -0.8460   27.1190 C   0  0  0  0  0  0  0  0  0  0  0  0
    6.8220   -1.5950   28.1390 C   0  0  0  0  0  0  0  0  0  0  0  0
    7.3530   -3.1460   23.7370 C   0  0  0  0  0  0  0  0  0  0  0  0
    7.6140   -3.2380   22.2570 C   0  0  0  0  0  0  0  0  0  0  0  0
  1  2  1  0
  2  3  2  0
  2  4  1  0
  4  5  1  0
  5  6  1  0
  6  7  1  0
  7  8  1  0
  8  9  2  0
  8 10  1  0
 10 11  1  0
 11 12  1  0
 12 13  1  0
 10 14  1  0
 14 15  2  0
 15 16  1  0
 16 17  1  0
 17 18  1  0
 18 19  2  0
 19 20  1  0
 20 21  1  0
 20 22  2  0
 14 23  1  0
 17 23  2  0
 22 23  1  0
  7 24  1  0
  4 25  1  0
 24 25  1  0
M  END
