piperidine-amides-6543-covalent
     RDKit          3D

 24 26  0  0  0  0  0  0  0  0999 V2000
    7.1040   -3.3630   19.2990 C   0  0  0  0  0  0  0  0  0  0  0  0
    6.4010   -4.1800   20.2940 C   0  0  0  0  0  0  0  0  0  0  0  0
    5.3640   -4.7980   19.9750 O   0  0  0  0  0  0  0  0  0  0  0  0
    6.9260   -4.3200   21.5860 N   0  0  0  0  0  0  0  0  0  0  0  0
    7.6900   -3.2290   22.1380 C   0  0  0  0  0  0  0  0  0  0  0  0
    6.8050   -2.6410   23.2280 C   0  0  0  0  0  0  0  0  0  0  0  0
    6.5490   -3.7820   24.1760 C   0  0  0  0  0  0  0  0  0  0  0  0
    5.8030   -3.2750   25.3460 C   0  0  0  0  0  0  0  0  0  0  0  0
    4.5580   -3.1780   25.2690 O   0  0  0  0  0  0  0  0  0  0  0  0
    6.5140   -2.9220   26.5130 N   0  0  0  0  0  0  0  0  0  0  0  0
    6.4210   -1.6190   27.1220 C   0  0  0  0  0  0  0  0  0  0  0  0
    7.0500   -1.6120   28.4810 C   0  0  0  0  0  0  0  0  0  0  0  0
    7.0660   -0.4870   29.2180 C   0  0  0  0  0  0  0  0  0  0  0  0
    6.4910    0.6380   28.6870 C   0  0  0  0  0  0  0  0  0  0  0  0
    5.8840    0.7000   27.4180 C   0  0  0  0  0  0  0  0  0  0  0  0
    5.3370    1.8230   26.9660 C   0  0  0  0  0  0  0  0  0  0  0  0
    5.7260    3.0780   27.2860 O   0  0  0  0  0  0  0  0  0  0  0  0
    4.3310    1.6820   26.1380 N   0  0  0  0  0  0  0  0  0  0  0  0
    3.2240    2.0220   26.8140 C   0  0  0  0  0  0  0  0  0  0  0  0
    4.4170    0.7070   25.1170 C   0  0  0  0  0  0  0  0  0  0  0  0
    5.2530   -0.5760   25.2390 C   0  0  0  0  0  0  0  0  0  0  0  0
    5.8510   -0.4550   26.6190 C   0  0  0  0  0  0  0  0  0  0  0  0
    5.7430   -4.8590   23.4970 C   0  0  0  0  0  0  0  0  0  0  0  0
    6.4240   -5.3600   22.4180 C   0  0  0  0  0  0  0  0  0  0  0  0
  1  2  1  0
  2  3  2  0
  2  4  1  0
  4  5  1  0
  5  6  1  0
  6  7  1  0
  7  8  1  0
  8  9  2  0
  8 10  1  0
 10 11  1  0
 11 12  2  0
 12 13  1  0
 13 14  2  0
 14 15  1  0
 15 16  1  0
 16 17  2  0
 16 18  1  0
 18 19  1  0
 18 20  1  0
 20 21  2  0
 11 22  1  0
 15 22  2  0
 21 22  1  0
  7 23  1  0
  4 24  1  0
 23 24  1  0
M  END
