piperidine-amides-14512-covalent
     RDKit          3D

 23 25  0  0  0  0  0  0  0  0999 V2000
    7.0500   -3.3440   19.3250 C   0  0  0  0  0  0  0  0  0  0  0  0
    6.4010   -4.1990   20.3180 C   0  0  0  0  0  0  0  0  0  0  0  0
    5.3830   -4.8270   19.9760 O   0  0  0  0  0  0  0  0  0  0  0  0
    6.9580   -4.3260   21.6150 N   0  0  0  0  0  0  0  0  0  0  0  0
    7.6330   -3.1800   22.1710 C   0  0  0  0  0  0  0  0  0  0  0  0
    7.4560   -3.1050   23.6610 C   0  0  0  0  0  0  0  0  0  0  0  0
    6.0610   -3.5930   23.9850 C   0  0  0  0  0  0  0  0  0  0  0  0
    5.6520   -3.1520   25.3540 C   0  0  0  0  0  0  0  0  0  0  0  0
    4.4520   -3.1850   25.6110 O   0  0  0  0  0  0  0  0  0  0  0  0
    6.6600   -2.7430   26.2100 N   0  0  0  0  0  0  0  0  0  0  0  0
    6.5550   -1.6030   27.0620 C   0  0  0  0  0  0  0  0  0  0  0  0
    7.0270   -1.5870   28.3700 C   0  0  0  0  0  0  0  0  0  0  0  0
    6.9210   -0.4770   29.1730 C   0  0  0  0  0  0  0  0  0  0  0  0
    6.3380    0.7330   28.7740 C   0  0  0  0  0  0  0  0  0  0  0  0
    5.8200    0.7790   27.4050 C   0  0  0  0  0  0  0  0  0  0  0  0
    5.9250   -0.4480   26.4770 C   0  0  0  0  0  0  0  0  0  0  0  0
    5.1740    2.3180   27.1690 S   0  0  0  0  0  0  0  0  0  0  0  0
    5.8760    3.1650   26.1350 O   0  0  0  0  0  0  0  0  0  0  0  0
    3.7110    2.2610   26.8680 O   0  0  0  0  0  0  0  0  0  0  0  0
    5.4770    3.0220   28.7590 N   0  0  0  0  0  0  0  0  0  0  0  0
    6.1710    1.9330   29.5040 C   0  0  0  0  0  0  0  0  0  0  0  0
    5.9900   -5.0550   23.7570 C   0  0  0  0  0  0  0  0  0  0  0  0
    6.5790   -5.4750   22.4000 C   0  0  0  0  0  0  0  0  0  0  0  0
  1  2  1  0
  2  3  2  0
  2  4  1  0
  4  5  1  0
  5  6  1  0
  6  7  1  0
  7  8  1  0
  8  9  2  0
  8 10  1  0
 10 11  1  0
 11 12  2  0
 12 13  1  0
 13 14  2  0
 14 15  1  0
 11 16  1  0
 15 16  2  0
 15 17  1  0
 17 18  2  0
 17 19  2  0
 17 20  1  0
 14 21  1  0
 20 21  1  0
  7 22  1  0
  4 23  1  0
 22 23  1  0
M  END
