piperidine-amides-978-covalent
     RDKit          3D

 24 25  0  0  0  0  0  0  0  0999 V2000
    7.1420   -3.2970   19.2520 C   0  0  0  0  0  0  0  0  0  0  0  0
    6.3440   -4.0470   20.2550 C   0  0  0  0  0  0  0  0  0  0  0  0
    5.2830   -4.5850   19.9020 O   0  0  0  0  0  0  0  0  0  0  0  0
    6.8470   -4.1670   21.5680 N   0  0  0  0  0  0  0  0  0  0  0  0
    7.7160   -3.1690   22.1410 C   0  0  0  0  0  0  0  0  0  0  0  0
    6.9620   -2.5620   23.3200 C   0  0  0  0  0  0  0  0  0  0  0  0
    6.5440   -3.7020   24.1750 C   0  0  0  0  0  0  0  0  0  0  0  0
    5.7610   -3.2620   25.3590 C   0  0  0  0  0  0  0  0  0  0  0  0
    4.5680   -3.0100   25.1570 O   0  0  0  0  0  0  0  0  0  0  0  0
    6.3610   -3.1460   26.6190 N   0  0  0  0  0  0  0  0  0  0  0  0
    6.2310   -4.0790   27.6870 C   0  0  0  0  0  0  0  0  0  0  0  0
    6.1290   -5.4240   27.4630 C   0  0  0  0  0  0  0  0  0  0  0  0
    5.8180   -6.7290   28.0010 O   0  0  0  0  0  0  0  0  0  0  0  0
    5.8070   -5.1100   28.8560 N   0  0  0  0  0  0  0  0  0  0  0  0
    5.4480   -3.8140   29.2440 C   0  0  0  0  0  0  0  0  0  0  0  0
    5.7240   -6.1650   29.7060 C   0  0  0  0  0  0  0  0  0  0  0  0
    4.4010   -6.7460   30.0300 C   0  0  0  0  0  0  0  0  0  0  0  0
    3.6470   -7.6650   29.0780 C   0  0  0  0  0  0  0  0  0  0  0  0
    2.3100   -8.1310   29.6310 C   0  0  0  0  0  0  0  0  0  0  0  0
    1.7130   -7.8590   30.8010 N   0  0  0  0  0  0  0  0  0  0  0  0
    2.4730   -7.0450   31.5480 C   0  0  0  0  0  0  0  0  0  0  0  0
    3.8050   -6.4580   31.2370 C   0  0  0  0  0  0  0  0  0  0  0  0
    5.7690   -4.7830   23.4690 C   0  0  0  0  0  0  0  0  0  0  0  0
    6.4850   -5.2710   22.4040 C   0  0  0  0  0  0  0  0  0  0  0  0
  1  2  1  0
  2  3  2  0
  2  4  1  0
  4  5  1  0
  5  6  1  0
  6  7  1  0
  7  8  1  0
  8  9  2  0
  8 10  1  0
 10 11  1  0
 11 12  1  0
 12 13  2  0
 12 14  1  0
 14 15  1  0
 14 16  1  0
 16 17  1  0
 17 18  2  0
 18 19  1  0
 19 20  2  0
 20 21  1  0
 17 22  1  0
 21 22  2  0
  7 23  1  0
  4 24  1  0
 23 24  1  0
M  END
