piperidine-amides-29333-covalent
     RDKit          3D

 26 27  0  0  0  0  0  0  0  0999 V2000
    7.0890   -3.3470   19.3040 C   0  0  0  0  0  0  0  0  0  0  0  0
    6.4370   -4.2090   20.2860 C   0  0  0  0  0  0  0  0  0  0  0  0
    5.3730   -4.7670   19.9610 O   0  0  0  0  0  0  0  0  0  0  0  0
    7.0500   -4.4430   21.5420 N   0  0  0  0  0  0  0  0  0  0  0  0
    6.6130   -5.5660   22.3030 C   0  0  0  0  0  0  0  0  0  0  0  0
    5.7540   -5.0540   23.4170 C   0  0  0  0  0  0  0  0  0  0  0  0
    6.5910   -4.1170   24.2760 C   0  0  0  0  0  0  0  0  0  0  0  0
    5.7060   -3.5680   25.3460 C   0  0  0  0  0  0  0  0  0  0  0  0
    4.6920   -2.9880   24.9680 O   0  0  0  0  0  0  0  0  0  0  0  0
    6.0810   -3.7510   26.6630 N   0  0  0  0  0  0  0  0  0  0  0  0
    7.4350   -3.8380   27.0430 C   0  0  1  0  0  0  0  0  0  0  0  0
    7.9830   -2.6540   27.4830 C   0  0  0  0  0  0  0  0  0  0  0  0
    8.6070   -1.8940   26.7440 O   0  0  0  0  0  0  0  0  0  0  0  0
    7.8350   -2.2890   28.7980 O   0  0  0  0  0  0  0  0  0  0  0  0
    7.6410   -1.0580   29.3570 C   0  0  0  0  0  0  0  0  0  0  0  0
    6.4640   -1.1600   30.0650 C   0  0  0  0  0  0  0  0  0  0  0  0
    7.4330   -4.8320   28.1240 C   0  0  0  0  0  0  0  0  0  0  0  0
    6.0300   -4.8050   28.7630 C   0  0  0  0  0  0  0  0  0  0  0  0
    5.1800   -4.2230   27.6900 C   0  0  1  0  0  0  0  0  0  0  0  0
    4.2600   -3.1680   28.2570 C   0  0  0  0  0  0  0  0  0  0  0  0
    4.7070   -1.9120   28.6050 O   0  0  0  0  0  0  0  0  0  0  0  0
    2.9140   -3.4590   28.4320 O   0  0  0  0  0  0  0  0  0  0  0  0
    2.0740   -2.4770   28.9760 C   0  0  0  0  0  0  0  0  0  0  0  0
    2.4510   -1.2530   28.4780 C   0  0  0  0  0  0  0  0  0  0  0  0
    7.0510   -2.9460   23.4530 C   0  0  0  0  0  0  0  0  0  0  0  0
    7.7010   -3.3170   22.1580 C   0  0  0  0  0  0  0  0  0  0  0  0
  1  2  1  0
  2  3  2  0
  2  4  1  0
  4  5  1  0
  5  6  1  0
  6  7  1  0
  7  8  1  0
  8  9  2  0
  8 10  1  0
 10 11  1  0
 11 12  1  1
 12 13  2  0
 12 14  1  0
 14 15  1  0
 15 16  1  0
 11 17  1  0
 17 18  1  0
 10 19  1  0
 18 19  1  0
 19 20  1  1
 20 21  2  0
 20 22  1  0
 22 23  1  0
 23 24  1  0
  7 25  1  0
  4 26  1  0
 25 26  1  0
M  END
