piperidine-amides-32204-covalent
     RDKit          3D

 27 28  0  0  0  0  0  0  0  0999 V2000
    7.1130   -3.2840   19.2790 C   0  0  0  0  0  0  0  0  0  0  0  0
    6.3030   -4.0420   20.2730 C   0  0  0  0  0  0  0  0  0  0  0  0
    5.2510   -4.5810   19.8930 O   0  0  0  0  0  0  0  0  0  0  0  0
    6.7680   -4.1760   21.5980 N   0  0  0  0  0  0  0  0  0  0  0  0
    6.6350   -5.4500   22.2740 C   0  0  0  0  0  0  0  0  0  0  0  0
    6.2310   -5.2170   23.7410 C   0  0  0  0  0  0  0  0  0  0  0  0
    6.0900   -3.7540   23.9630 C   0  0  0  0  0  0  0  0  0  0  0  0
    5.4860   -3.4170   25.2780 C   0  0  0  0  0  0  0  0  0  0  0  0
    4.2520   -3.4230   25.3130 O   0  0  0  0  0  0  0  0  0  0  0  0
    6.2650   -3.0900   26.3930 N   0  0  0  0  0  0  0  0  0  0  0  0
    6.7080   -1.7540   26.6020 C   0  0  0  0  0  0  0  0  0  0  0  0
    5.8820   -0.6620   26.4680 C   0  0  0  0  0  0  0  0  0  0  0  0
    4.9780   -0.3600   27.4910 C   0  0  0  0  0  0  0  0  0  0  0  0
    6.3090   -3.8140   27.6010 C   0  0  1  0  0  0  0  0  0  0  0  0
    5.8910   -3.2530   28.8690 C   0  0  0  0  0  0  0  0  0  0  0  0
    5.7680   -5.0880   27.5710 C   0  0  0  0  0  0  0  0  0  0  0  0
    5.5890   -5.7430   26.3600 O   0  0  0  0  0  0  0  0  0  0  0  0
    5.4310   -5.6560   28.8500 N   0  0  0  0  0  0  0  0  0  0  0  0
    4.3120   -6.5170   28.9640 C   0  0  0  0  0  0  0  0  0  0  0  0
    3.6160   -6.9110   27.9040 C   0  0  0  0  0  0  0  0  0  0  0  0
    2.4740   -7.7860   28.0280 C   0  0  0  0  0  0  0  0  0  0  0  0
    2.2720   -8.1210   29.5210 C   0  0  0  0  0  0  0  0  0  0  0  0
    2.8590   -7.8320   30.7800 C   0  0  0  0  0  0  0  0  0  0  0  0
    2.4530   -8.3370   32.4190 Cl  0  0  0  0  0  0  0  0  0  0  0  0
    3.9990   -6.9070   30.2250 C   0  0  0  0  0  0  0  0  0  0  0  0
    7.3300   -2.9840   23.6690 C   0  0  0  0  0  0  0  0  0  0  0  0
    7.6380   -3.1620   22.1850 C   0  0  0  0  0  0  0  0  0  0  0  0
  1  2  1  0
  2  3  2  0
  2  4  1  0
  4  5  1  0
  5  6  1  0
  6  7  1  0
  7  8  1  0
  8  9  2  0
  8 10  1  0
 10 11  1  0
 11 12  1  0
 12 13  1  0
 10 14  1  0
 14 15  1  1
 14 16  1  0
 16 17  2  0
 16 18  1  0
 18 19  1  0
 19 20  2  0
 20 21  1  0
 21 22  2  0
 22 23  1  0
 23 24  1  0
 19 25  1  0
 23 25  2  0
  7 26  1  0
  4 27  1  0
 26 27  1  0
M  END
