piperidine-amides-12206-covalent
     RDKit          3D

 25 27  0  0  0  0  0  0  0  0999 V2000
    7.0550   -3.3070   19.2960 C   0  0  0  0  0  0  0  0  0  0  0  0
    6.3270   -4.0850   20.2970 C   0  0  0  0  0  0  0  0  0  0  0  0
    5.3300   -4.7180   19.9480 O   0  0  0  0  0  0  0  0  0  0  0  0
    6.7810   -4.1610   21.6660 N   0  0  0  0  0  0  0  0  0  0  0  0
    7.6560   -3.1340   22.1900 C   0  0  0  0  0  0  0  0  0  0  0  0
    7.3990   -2.9650   23.6570 C   0  0  0  0  0  0  0  0  0  0  0  0
    6.0800   -3.6600   23.9240 C   0  0  0  0  0  0  0  0  0  0  0  0
    5.5400   -3.3740   25.2860 C   0  0  0  0  0  0  0  0  0  0  0  0
    4.3450   -3.5710   25.5690 O   0  0  0  0  0  0  0  0  0  0  0  0
    6.3860   -2.8520   26.2900 N   0  0  0  0  0  0  0  0  0  0  0  0
    6.7100   -1.4560   26.2060 C   0  0  0  0  0  0  0  0  0  0  0  0
    6.6130   -0.8220   27.5760 C   0  0  0  0  0  0  0  0  0  0  0  0
    6.9730   -1.4760   28.7520 C   0  0  0  0  0  0  0  0  0  0  0  0
    6.8660   -0.8310   30.0020 C   0  0  0  0  0  0  0  0  0  0  0  0
    6.3870    0.4950   30.0840 N   0  0  0  0  0  0  0  0  0  0  0  0
    6.0350    1.1210   28.9010 C   0  0  0  0  0  0  0  0  0  0  0  0
    5.5590    2.4760   29.1250 N   0  0  0  0  0  0  0  0  0  0  0  0
    6.6500    3.3750   29.0400 C   0  0  0  0  0  0  0  0  0  0  0  0
    6.4860    4.6450   29.4680 C   0  0  0  0  0  0  0  0  0  0  0  0
    5.2740    4.7900   29.8700 O   0  0  0  0  0  0  0  0  0  0  0  0
    4.0970    4.0050   29.9820 C   0  0  0  0  0  0  0  0  0  0  0  0
    4.2340    2.8520   29.1700 C   0  0  0  0  0  0  0  0  0  0  0  0
    6.1490    0.4730   27.6960 C   0  0  0  0  0  0  0  0  0  0  0  0
    6.1300   -5.1540   23.6620 C   0  0  0  0  0  0  0  0  0  0  0  0
    6.6630   -5.4030   22.3900 C   0  0  0  0  0  0  0  0  0  0  0  0
  1  2  1  0
  2  3  2  0
  2  4  1  0
  4  5  1  0
  5  6  1  0
  6  7  1  0
  7  8  1  0
  8  9  2  0
  8 10  1  0
 10 11  1  0
 11 12  1  0
 12 13  2  0
 13 14  1  0
 14 15  2  0
 15 16  1  0
 16 17  1  0
 17 18  1  0
 18 19  1  0
 19 20  1  0
 20 21  1  0
 17 22  1  0
 21 22  1  0
 12 23  1  0
 16 23  2  0
  7 24  1  0
  4 25  1  0
 24 25  1  0
M  END
