piperidine-amides-11679-covalent
     RDKit          3D

 29 31  0  0  0  0  0  0  0  0999 V2000
    7.1150   -3.3100   19.2140 C   0  0  0  0  0  0  0  0  0  0  0  0
    6.3380   -4.0300   20.2190 C   0  0  0  0  0  0  0  0  0  0  0  0
    5.2790   -4.5600   19.8940 O   0  0  0  0  0  0  0  0  0  0  0  0
    6.8300   -4.1790   21.5600 N   0  0  0  0  0  0  0  0  0  0  0  0
    6.5850   -5.4070   22.2800 C   0  0  0  0  0  0  0  0  0  0  0  0
    6.1280   -5.1210   23.6900 C   0  0  0  0  0  0  0  0  0  0  0  0
    6.0320   -3.6120   23.8700 C   0  0  0  0  0  0  0  0  0  0  0  0
    5.6190   -3.2520   25.2480 C   0  0  0  0  0  0  0  0  0  0  0  0
    4.4370   -3.0090   25.5480 O   0  0  0  0  0  0  0  0  0  0  0  0
    6.6160   -3.1710   26.2400 N   0  0  0  0  0  0  0  0  0  0  0  0
    6.3570   -3.6960   27.5610 C   0  0  0  0  0  0  0  0  0  0  0  0
    5.9160   -5.1420   27.4810 C   0  0  0  0  0  0  0  0  0  0  0  0
    5.0110   -5.4720   28.9690 S   0  0  0  0  0  0  0  0  0  0  0  0
    4.8880   -4.1720   29.6900 O   0  0  0  0  0  0  0  0  0  0  0  0
    5.8590   -6.3770   29.7950 O   0  0  0  0  0  0  0  0  0  0  0  0
    3.4260   -6.1840   28.8490 N   0  0  0  0  0  0  0  0  0  0  0  0
    2.3480   -5.5640   28.3480 C   0  0  0  0  0  0  0  0  0  0  0  0
    1.0610   -6.1160   28.2690 C   0  0  0  0  0  0  0  0  0  0  0  0
    0.9460   -7.3770   28.7640 N   0  0  0  0  0  0  0  0  0  0  0  0
    0.2160   -8.3550   28.2440 C   0  0  0  0  0  0  0  0  0  0  0  0
    0.4840   -9.7660   28.2600 C   0  0  0  0  0  0  0  0  0  0  0  0
   -0.3840  -10.6180   27.6760 C   0  0  0  0  0  0  0  0  0  0  0  0
   -1.5220  -10.1460   27.0650 C   0  0  0  0  0  0  0  0  0  0  0  0
   -1.7870   -8.7550   27.0490 C   0  0  0  0  0  0  0  0  0  0  0  0
   -0.8950   -7.8730   27.6500 N   0  0  0  0  0  0  0  0  0  0  0  0
    2.0570   -7.7480   29.6580 C   0  0  0  0  0  0  0  0  0  0  0  0
    3.2240   -7.5760   28.9330 C   0  0  0  0  0  0  0  0  0  0  0  0
    7.3380   -2.9520   23.5500 C   0  0  0  0  0  0  0  0  0  0  0  0
    7.6290   -3.1350   22.1070 C   0  0  0  0  0  0  0  0  0  0  0  0
  1  2  1  0
  2  3  2  0
  2  4  1  0
  4  5  1  0
  5  6  1  0
  6  7  1  0
  7  8  1  0
  8  9  2  0
  8 10  1  0
 10 11  1  0
 11 12  1  0
 13 12  1  0
 13 14  2  0
 13 15  2  0
 13 16  1  0
 16 17  1  0
 17 18  1  0
 18 19  1  0
 19 20  1  0
 20 21  2  0
 21 22  1  0
 22 23  2  0
 23 24  1  0
 20 25  1  0
 24 25  2  0
 19 26  1  0
 16 27  1  0
 26 27  1  0
  7 28  1  0
  4 29  1  0
 28 29  1  0
M  END
