piperidine-amides-9074-covalent
     RDKit          3D

 21 22  0  0  0  0  0  0  0  0999 V2000
    7.0590   -3.3350   19.3350 C   0  0  0  0  0  0  0  0  0  0  0  0
    6.3740   -4.1620   20.3320 C   0  0  0  0  0  0  0  0  0  0  0  0
    5.3760   -4.8160   19.9760 O   0  0  0  0  0  0  0  0  0  0  0  0
    6.8330   -4.2800   21.6570 N   0  0  0  0  0  0  0  0  0  0  0  0
    6.7010   -5.5110   22.4080 C   0  0  0  0  0  0  0  0  0  0  0  0
    6.1240   -5.1310   23.7500 C   0  0  0  0  0  0  0  0  0  0  0  0
    6.1320   -3.6460   23.9540 C   0  0  0  0  0  0  0  0  0  0  0  0
    5.7210   -3.2090   25.3120 C   0  0  0  0  0  0  0  0  0  0  0  0
    4.5170   -3.3540   25.6680 O   0  0  0  0  0  0  0  0  0  0  0  0
    6.6070   -2.6210   26.2490 N   0  0  0  0  0  0  0  0  0  0  0  0
    6.1180   -1.6020   27.2190 C   0  0  0  0  0  0  0  0  0  0  0  0
    4.8790   -2.1320   27.8320 C   0  0  0  0  0  0  0  0  0  0  0  0
    4.0870   -1.1690   28.3340 N   0  0  0  0  0  0  0  0  0  0  0  0
    4.5150   -3.3340   27.9300 O   0  0  0  0  0  0  0  0  0  0  0  0
    5.7180   -0.2910   26.4970 C   0  0  0  0  0  0  0  0  0  0  0  0
    5.8690    0.8620   27.4940 C   0  0  0  0  0  0  0  0  0  0  0  0
    5.7700    0.4600   28.7960 O   0  0  0  0  0  0  0  0  0  0  0  0
    6.6680   -0.4910   29.3070 C   0  0  0  0  0  0  0  0  0  0  0  0
    7.0990   -1.4620   28.3130 C   0  0  0  0  0  0  0  0  0  0  0  0
    7.4860   -3.1160   23.5710 C   0  0  0  0  0  0  0  0  0  0  0  0
    7.6700   -3.2100   22.1870 C   0  0  0  0  0  0  0  0  0  0  0  0
  1  2  1  0
  2  3  2  0
  2  4  1  0
  4  5  1  0
  5  6  1  0
  6  7  1  0
  7  8  1  0
  8  9  2  0
  8 10  1  0
 10 11  1  0
 11 12  1  0
 12 13  1  0
 12 14  2  0
 11 15  1  0
 15 16  1  0
 16 17  1  0
 17 18  1  0
 11 19  1  0
 18 19  1  0
  7 20  1  0
  4 21  1  0
 20 21  1  0
M  END
