piperidine-amides-12176-covalent
     RDKit          3D

 25 27  0  0  0  0  0  0  0  0999 V2000
    7.1050   -3.3550   19.3520 C   0  0  0  0  0  0  0  0  0  0  0  0
    6.3710   -4.1620   20.3140 C   0  0  0  0  0  0  0  0  0  0  0  0
    5.3560   -4.7650   19.9660 O   0  0  0  0  0  0  0  0  0  0  0  0
    6.8730   -4.3050   21.6530 N   0  0  0  0  0  0  0  0  0  0  0  0
    6.5240   -5.4720   22.4290 C   0  0  0  0  0  0  0  0  0  0  0  0
    6.0090   -5.1070   23.8080 C   0  0  0  0  0  0  0  0  0  0  0  0
    6.0390   -3.5930   23.9890 C   0  0  0  0  0  0  0  0  0  0  0  0
    5.5920   -3.2020   25.3510 C   0  0  0  0  0  0  0  0  0  0  0  0
    4.3930   -3.2190   25.6890 O   0  0  0  0  0  0  0  0  0  0  0  0
    6.5680   -2.8080   26.2850 N   0  0  0  0  0  0  0  0  0  0  0  0
    6.4240   -1.5500   26.9790 C   0  0  0  0  0  0  0  0  0  0  0  0
    6.9830   -1.6400   28.3690 C   0  0  0  0  0  0  0  0  0  0  0  0
    6.9450   -0.5480   29.1980 C   0  0  0  0  0  0  0  0  0  0  0  0
    6.3790    0.6440   28.7340 C   0  0  0  0  0  0  0  0  0  0  0  0
    6.3500    1.7460   29.6000 O   0  0  0  0  0  0  0  0  0  0  0  0
    6.3510    1.5250   31.0010 C   0  0  0  0  0  0  0  0  0  0  0  0
    5.8600    0.7300   27.4490 C   0  0  0  0  0  0  0  0  0  0  0  0
    5.3680    1.9540   27.2130 N   0  0  0  0  0  0  0  0  0  0  0  0
    4.1580    2.5330   27.6610 C   0  0  0  0  0  0  0  0  0  0  0  0
    4.0350    3.7640   27.2090 N   0  0  0  0  0  0  0  0  0  0  0  0
    5.0690    4.0890   26.4820 N   0  0  0  0  0  0  0  0  0  0  0  0
    5.8760    2.9780   26.4900 N   0  0  0  0  0  0  0  0  0  0  0  0
    5.8940   -0.3450   26.6160 C   0  0  0  0  0  0  0  0  0  0  0  0
    7.2920   -2.9320   23.5740 C   0  0  0  0  0  0  0  0  0  0  0  0
    7.6550   -3.2520   22.2090 C   0  0  0  0  0  0  0  0  0  0  0  0
  1  2  1  0
  2  3  2  0
  2  4  1  0
  4  5  1  0
  5  6  1  0
  6  7  1  0
  7  8  1  0
  8  9  2  0
  8 10  1  0
 10 11  1  0
 11 12  2  0
 12 13  1  0
 13 14  2  0
 14 15  1  0
 15 16  1  0
 14 17  1  0
 17 18  1  0
 18 19  1  0
 19 20  2  0
 20 21  1  0
 18 22  1  0
 21 22  2  0
 11 23  1  0
 17 23  2  0
  7 24  1  0
  4 25  1  0
 24 25  1  0
M  END
