piperidine-amides-35255-covalent
     RDKit          3D

 34 37  0  0  0  0  0  0  0  0999 V2000
    7.0360   -3.3180   19.2830 C   0  0  0  0  0  0  0  0  0  0  0  0
    6.3500   -4.1460   20.3050 C   0  0  0  0  0  0  0  0  0  0  0  0
    5.3450   -4.7580   19.9520 O   0  0  0  0  0  0  0  0  0  0  0  0
    6.8700   -4.2470   21.5950 N   0  0  0  0  0  0  0  0  0  0  0  0
    6.4290   -5.2880   22.4740 C   0  0  0  0  0  0  0  0  0  0  0  0
    5.4740   -4.6740   23.4620 C   0  0  0  0  0  0  0  0  0  0  0  0
    5.8670   -3.2090   23.7350 C   0  0  0  0  0  0  0  0  0  0  0  0
    5.3500   -2.8170   25.0770 C   0  0  0  0  0  0  0  0  0  0  0  0
    4.1240   -2.7820   25.2480 O   0  0  0  0  0  0  0  0  0  0  0  0
    6.1960   -2.4990   26.1590 N   0  0  0  0  0  0  0  0  0  0  0  0
    6.4330   -3.5540   27.0930 C   0  0  0  0  0  0  0  0  0  0  0  0
    7.5240   -4.2760   26.4090 C   0  0  2  0  0  0  0  0  0  0  0  0
    7.2340   -5.2930   25.5360 C   0  0  0  0  0  0  0  0  0  0  0  0
    8.3840   -5.7580   25.1470 C   0  0  0  0  0  0  0  0  0  0  0  0
    9.1130   -5.9980   26.3040 N   0  0  0  0  0  0  0  0  0  0  0  0
    9.0840   -7.2730   26.9240 C   0  0  0  0  0  0  0  0  0  0  0  0
    9.9190   -9.0820   26.7040 C   0  0  0  0  0  0  0  0  0  0  0  0
    9.6390  -10.6950   28.0460 C   0  0  0  0  0  0  0  0  0  0  0  0
   10.2350  -11.9210   28.0920 O   0  0  0  0  0  0  0  0  0  0  0  0
   10.2590  -12.4400   29.3740 C   0  0  0  0  0  0  0  0  0  0  0  0
    8.6070  -10.4880   29.1190 N   0  0  0  0  0  0  0  0  0  0  0  0
    7.7480   -9.2260   29.4480 C   0  0  0  0  0  0  0  0  0  0  0  0
    7.9030   -7.5070   28.4730 N   0  0  0  0  0  0  0  0  0  0  0  0
    8.4120   -5.2030   27.2220 C   0  0  0  0  0  0  0  0  0  0  0  0
    6.1670   -1.2930   27.0100 C   0  0  0  0  0  0  0  0  0  0  0  0
    5.3060   -0.2980   26.6370 N   0  0  0  0  0  0  0  0  0  0  0  0
    5.3190    0.7800   27.4600 C   0  0  0  0  0  0  0  0  0  0  0  0
    6.1600    0.9410   28.6800 C   0  0  0  0  0  0  0  0  0  0  0  0
    6.9820   -0.0580   29.0000 C   0  0  0  0  0  0  0  0  0  0  0  0
    6.9960   -1.2480   28.1140 C   0  0  0  0  0  0  0  0  0  0  0  0
    7.9120   -2.4130   28.4080 C   0  0  0  0  0  0  0  0  0  0  0  0
    8.5860   -3.3250   28.5940 N   0  0  0  0  0  0  0  0  0  0  0  0
    7.3690   -3.0690   23.5370 C   0  0  0  0  0  0  0  0  0  0  0  0
    7.6160   -3.1640   22.2010 C   0  0  0  0  0  0  0  0  0  0  0  0
  1  2  1  0
  2  3  2  0
  2  4  1  0
  4  5  1  0
  5  6  1  0
  6  7  1  0
  7  8  1  0
  8  9  2  0
  8 10  1  0
 10 11  1  0
 12 11  1  1
 12 13  1  0
 13 14  1  0
 14 15  1  0
 15 16  1  0
 16 17  2  0
 17 18  1  0
 18 19  1  0
 19 20  1  0
 18 21  2  0
 21 22  1  0
 16 23  1  0
 22 23  2  0
 12 24  1  0
 15 24  1  0
 10 25  1  0
 25 26  2  0
 26 27  1  0
 27 28  2  0
 28 29  1  0
 25 30  1  0
 29 30  2  0
 30 31  1  0
 31 32  3  0
  7 33  1  0
  4 34  1  0
 33 34  1  0
M  END
