piperidine-amides-32295-covalent
     RDKit          3D

 24 26  0  0  0  0  0  0  0  0999 V2000
    7.0800   -3.3550   19.3800 C   0  0  0  0  0  0  0  0  0  0  0  0
    6.3370   -4.1920   20.3600 C   0  0  0  0  0  0  0  0  0  0  0  0
    5.3410   -4.8210   19.9720 O   0  0  0  0  0  0  0  0  0  0  0  0
    6.8110   -4.2930   21.6850 N   0  0  0  0  0  0  0  0  0  0  0  0
    6.6740   -5.5490   22.3940 C   0  0  0  0  0  0  0  0  0  0  0  0
    6.4040   -5.2880   23.8890 C   0  0  0  0  0  0  0  0  0  0  0  0
    6.3230   -3.8120   24.1210 C   0  0  0  0  0  0  0  0  0  0  0  0
    5.7040   -3.4050   25.4190 C   0  0  0  0  0  0  0  0  0  0  0  0
    4.7040   -2.6860   25.2950 O   0  0  0  0  0  0  0  0  0  0  0  0
    6.1790   -3.7780   26.7010 N   0  0  0  0  0  0  0  0  0  0  0  0
    5.9660   -2.9850   27.8360 C   0  0  0  0  0  0  0  0  0  0  0  0
    5.4590   -3.6030   28.9400 C   0  0  0  0  0  0  0  0  0  0  0  0
    4.5160   -4.6180   28.7290 C   0  0  0  0  0  0  0  0  0  0  0  0
    3.3460   -4.7970   29.4630 C   0  0  0  0  0  0  0  0  0  0  0  0
    2.8280   -3.6620   30.8810 Br  0  0  0  0  0  0  0  0  0  0  0  0
    2.4510   -5.9220   29.1160 C   0  0  0  0  0  0  0  0  0  0  0  0
    2.7470   -6.8890   27.9820 C   0  0  0  0  0  0  0  0  0  0  0  0
    4.0370   -6.6150   27.2160 C   0  0  0  0  0  0  0  0  0  0  0  0
    4.3200   -7.4760   26.1670 O   0  0  0  0  0  0  0  0  0  0  0  0
    3.4020   -7.2870   25.1570 C   0  0  0  0  0  0  0  0  0  0  0  0
    4.8450   -5.4530   27.6800 C   0  0  0  0  0  0  0  0  0  0  0  0
    6.0680   -5.2170   26.9170 C   0  0  0  0  0  0  0  0  0  0  0  0
    7.6290   -3.2710   23.7640 C   0  0  0  0  0  0  0  0  0  0  0  0
    7.6520   -3.2420   22.2260 C   0  0  0  0  0  0  0  0  0  0  0  0
  1  2  1  0
  2  3  2  0
  2  4  1  0
  4  5  1  0
  5  6  1  0
  6  7  1  0
  7  8  1  0
  8  9  2  0
  8 10  1  0
 10 11  1  0
 11 12  1  0
 12 13  1  0
 13 14  2  0
 14 15  1  0
 14 16  1  0
 16 17  2  0
 17 18  1  0
 18 19  1  0
 19 20  1  0
 13 21  1  0
 18 21  2  0
 10 22  1  0
 21 22  1  0
  7 23  1  0
  4 24  1  0
 23 24  1  0
M  END
