piperidine-amides-14026-covalent
     RDKit          3D

 25 26  0  0  0  0  0  0  0  0999 V2000
    7.1380   -3.2670   19.2160 C   0  0  0  0  0  0  0  0  0  0  0  0
    6.3530   -4.0510   20.2100 C   0  0  0  0  0  0  0  0  0  0  0  0
    5.2670   -4.5470   19.8770 O   0  0  0  0  0  0  0  0  0  0  0  0
    6.8910   -4.2560   21.4900 N   0  0  0  0  0  0  0  0  0  0  0  0
    6.4620   -5.3650   22.2970 C   0  0  0  0  0  0  0  0  0  0  0  0
    5.6240   -4.7610   23.4340 C   0  0  0  0  0  0  0  0  0  0  0  0
    6.4890   -3.7890   24.1830 C   0  0  0  0  0  0  0  0  0  0  0  0
    5.9140   -3.4170   25.4940 C   0  0  0  0  0  0  0  0  0  0  0  0
    4.7070   -3.1220   25.5040 O   0  0  0  0  0  0  0  0  0  0  0  0
    6.7300   -3.4050   26.6330 N   0  0  0  0  0  0  0  0  0  0  0  0
    7.4570   -4.5000   27.1780 C   0  0  2  0  0  0  0  0  0  0  0  0
    8.6280   -4.9070   26.5620 C   0  0  0  0  0  0  0  0  0  0  0  0
    9.4480   -3.9790   25.8680 C   0  0  0  0  0  0  0  0  0  0  0  0
    8.9190   -2.8680   25.2380 C   0  0  0  0  0  0  0  0  0  0  0  0
    9.7820   -1.8970   24.5130 C   0  0  0  0  0  0  0  0  0  0  0  0
   11.2930   -2.0780   24.4340 C   0  0  0  0  0  0  0  0  0  0  0  0
   12.0360   -1.1150   23.7310 F   0  0  0  0  0  0  0  0  0  0  0  0
   11.7000   -3.3350   25.1740 C   0  0  0  0  0  0  0  0  0  0  0  0
   10.8070   -4.1750   25.8150 C   0  0  0  0  0  0  0  0  0  0  0  0
    6.6190   -5.6520   27.5080 C   0  0  0  0  0  0  0  0  0  0  0  0
    5.8210   -6.3310   26.8350 O   0  0  0  0  0  0  0  0  0  0  0  0
    6.6840   -6.1140   28.8330 O   0  0  0  0  0  0  0  0  0  0  0  0
    5.8240   -7.1570   29.3010 C   0  0  0  0  0  0  0  0  0  0  0  0
    6.7480   -2.6600   23.2790 C   0  0  0  0  0  0  0  0  0  0  0  0
    7.6130   -3.1970   22.1360 C   0  0  0  0  0  0  0  0  0  0  0  0
  1  2  1  0
  2  3  2  0
  2  4  1  0
  4  5  1  0
  5  6  1  0
  6  7  1  0
  7  8  1  0
  8  9  2  0
  8 10  1  0
 10 11  1  0
 11 12  1  6
 12 13  1  0
 13 14  2  0
 14 15  1  0
 15 16  2  0
 16 17  1  0
 16 18  1  0
 13 19  1  0
 18 19  2  0
 11 20  1  0
 20 21  2  0
 20 22  1  0
 22 23  1  0
  7 24  1  0
  4 25  1  0
 24 25  1  0
M  END
