piperidine-amides-12882-covalent
     RDKit          3D

 21 22  0  0  0  0  0  0  0  0999 V2000
    7.0890   -3.2660   19.2170 C   0  0  0  0  0  0  0  0  0  0  0  0
    6.3330   -4.0450   20.2280 C   0  0  0  0  0  0  0  0  0  0  0  0
    5.2580   -4.5520   19.8700 O   0  0  0  0  0  0  0  0  0  0  0  0
    6.8470   -4.2320   21.5090 N   0  0  0  0  0  0  0  0  0  0  0  0
    7.6060   -3.2020   22.0990 C   0  0  0  0  0  0  0  0  0  0  0  0
    7.2150   -2.9860   23.4670 C   0  0  0  0  0  0  0  0  0  0  0  0
    5.9470   -3.6330   23.8420 C   0  0  0  0  0  0  0  0  0  0  0  0
    5.7680   -3.4080   25.2870 C   0  0  0  0  0  0  0  0  0  0  0  0
    4.6190   -3.4500   25.7620 O   0  0  0  0  0  0  0  0  0  0  0  0
    6.8800   -3.1320   26.0940 N   0  0  0  0  0  0  0  0  0  0  0  0
    7.7370   -1.9550   25.8310 C   0  0  0  0  0  0  0  0  0  0  0  0
    8.9900   -2.2450   25.0310 C   0  0  0  0  0  0  0  0  0  0  0  0
    9.9630   -3.2740   25.0840 N   0  0  0  0  0  0  0  0  0  0  0  0
   10.8780   -3.0590   24.1880 N   0  0  0  0  0  0  0  0  0  0  0  0
   10.7960   -1.9340   23.3370 C   0  0  0  0  0  0  0  0  0  0  0  0
   11.6210   -1.4790   22.3400 C   0  0  0  0  0  0  0  0  0  0  0  0
   11.8140   -0.2420   22.3380 O   0  0  0  0  0  0  0  0  0  0  0  0
   12.9300    0.1170   22.9150 C   0  0  0  0  0  0  0  0  0  0  0  0
    9.3930   -1.0710   23.7210 S   0  0  0  0  0  0  0  0  0  0  0  0
    5.7610   -5.0620   23.4000 C   0  0  0  0  0  0  0  0  0  0  0  0
    6.5010   -5.3750   22.2810 C   0  0  0  0  0  0  0  0  0  0  0  0
  1  2  1  0
  2  3  2  0
  2  4  1  0
  4  5  1  0
  5  6  1  0
  6  7  1  0
  7  8  1  0
  8  9  2  0
  8 10  1  0
 10 11  1  0
 11 12  1  0
 12 13  2  0
 13 14  1  0
 14 15  2  0
 15 16  1  0
 16 17  1  0
 17 18  1  0
 12 19  1  0
 15 19  1  0
  7 20  1  0
  4 21  1  0
 20 21  1  0
M  END
