piperidine-amides-35521-covalent
     RDKit          3D

 31 33  0  0  0  0  0  0  0  0999 V2000
    7.0530   -3.3190   19.3190 C   0  0  0  0  0  0  0  0  0  0  0  0
    6.3720   -4.1920   20.3070 C   0  0  0  0  0  0  0  0  0  0  0  0
    5.3330   -4.7400   19.9470 O   0  0  0  0  0  0  0  0  0  0  0  0
    6.9310   -4.4180   21.5680 N   0  0  0  0  0  0  0  0  0  0  0  0
    7.6940   -3.3940   22.2530 C   0  0  0  0  0  0  0  0  0  0  0  0
    7.0280   -3.1090   23.5600 C   0  0  0  0  0  0  0  0  0  0  0  0
    5.8450   -4.0650   23.6760 C   0  0  0  0  0  0  0  0  0  0  0  0
    5.1710   -3.9080   24.9680 C   0  0  0  0  0  0  0  0  0  0  0  0
    3.9390   -3.9170   25.0300 O   0  0  0  0  0  0  0  0  0  0  0  0
    5.8940   -3.7080   26.1220 N   0  0  0  0  0  0  0  0  0  0  0  0
    5.5160   -4.5030   27.3010 C   0  0  0  0  0  0  0  0  0  0  0  0
    4.4290   -3.8300   28.1360 C   0  0  0  0  0  0  0  0  0  0  0  0
    4.1820   -2.4960   27.5590 N   0  0  0  0  0  0  0  0  0  0  0  0
    3.3070   -1.8220   28.5300 C   0  0  0  0  0  0  0  0  0  0  0  0
    2.1700   -2.2680   28.8510 O   0  0  0  0  0  0  0  0  0  0  0  0
    3.6890   -0.6510   29.1350 O   0  0  0  0  0  0  0  0  0  0  0  0
    4.1940   -0.5560   30.4720 C   0  0  0  0  0  0  0  0  0  0  0  0
    4.3090   -1.8630   30.8640 C   0  0  0  0  0  0  0  0  0  0  0  0
    3.3960   -1.1200   31.5370 C   0  0  0  0  0  0  0  0  0  0  0  0
    5.6290   -0.4750   30.7700 C   0  0  0  0  0  0  0  0  0  0  0  0
    5.2850   -1.7060   27.1550 C   0  0  1  0  0  0  0  0  0  0  0  0
    6.4780   -1.9940   27.7900 C   0  0  0  0  0  0  0  0  0  0  0  0
    7.1370   -1.0210   28.6490 C   0  0  0  0  0  0  0  0  0  0  0  0
    8.3790   -1.4610   29.2570 C   0  0  0  0  0  0  0  0  0  0  0  0
    8.8000   -2.8180   28.9190 C   0  0  0  0  0  0  0  0  0  0  0  0
    8.0610   -3.7290   28.0290 C   0  0  0  0  0  0  0  0  0  0  0  0
    8.6580   -5.4900   27.6310 Br  0  0  0  0  0  0  0  0  0  0  0  0
    6.9460   -3.2450   27.5270 C   0  0  0  0  0  0  0  0  0  0  0  0
    6.2460   -2.3460   26.2000 C   0  0  0  0  0  0  0  0  0  0  0  0
    6.2320   -5.5300   23.5730 C   0  0  0  0  0  0  0  0  0  0  0  0
    6.7210   -5.7270   22.1520 C   0  0  0  0  0  0  0  0  0  0  0  0
  1  2  1  0
  2  3  2  0
  2  4  1  0
  4  5  1  0
  5  6  1  0
  6  7  1  0
  7  8  1  0
  8  9  2  0
  8 10  1  0
 10 11  1  0
 11 12  1  0
 12 13  1  0
 13 14  1  0
 14 15  2  0
 14 16  1  0
 17 16  1  0
 17 18  1  0
 17 19  1  0
 17 20  1  0
 13 21  1  0
 21 22  1  1
 22 23  2  0
 23 24  1  0
 24 25  2  0
 25 26  1  0
 26 27  1  0
 22 28  1  0
 26 28  2  0
 10 29  1  0
 21 29  1  0
  7 30  1  0
  4 31  1  0
 30 31  1  0
M  END
