piperidine-amides-29548-covalent
     RDKit          3D

 26 26  0  0  0  0  0  0  0  0999 V2000
    7.1190   -3.3280   19.2730 C   0  0  0  0  0  0  0  0  0  0  0  0
    6.3520   -4.0770   20.2570 C   0  0  0  0  0  0  0  0  0  0  0  0
    5.2980   -4.6190   19.9210 O   0  0  0  0  0  0  0  0  0  0  0  0
    6.8650   -4.2350   21.5920 N   0  0  0  0  0  0  0  0  0  0  0  0
    7.6240   -3.1770   22.2160 C   0  0  0  0  0  0  0  0  0  0  0  0
    6.8410   -2.5830   23.3560 C   0  0  0  0  0  0  0  0  0  0  0  0
    5.8710   -3.6290   23.8780 C   0  0  0  0  0  0  0  0  0  0  0  0
    5.4290   -3.3450   25.2700 C   0  0  0  0  0  0  0  0  0  0  0  0
    4.2250   -3.1910   25.5330 O   0  0  0  0  0  0  0  0  0  0  0  0
    6.3450   -3.2330   26.3370 N   0  0  0  0  0  0  0  0  0  0  0  0
    6.4900   -1.8480   26.7940 C   0  0  0  0  0  0  0  0  0  0  0  0
    5.7240   -1.6370   28.0790 C   0  0  0  0  0  0  0  0  0  0  0  0
    6.2700   -1.0270   29.1560 N   0  0  0  0  0  0  0  0  0  0  0  0
    7.5680   -1.3390   29.2170 C   0  0  0  0  0  0  0  0  0  0  0  0
    6.0430    0.3820   29.2270 C   0  0  0  0  0  0  0  0  0  0  0  0
    4.7670    0.8090   29.6300 O   0  0  0  0  0  0  0  0  0  0  0  0
    6.9860    1.3160   28.9380 O   0  0  0  0  0  0  0  0  0  0  0  0
    6.7120    2.4900   28.1910 C   0  0  0  0  0  0  0  0  0  0  0  0
    5.7270    3.1780   29.0130 C   0  0  0  0  0  0  0  0  0  0  0  0
    7.6630    3.4810   28.1380 C   0  0  0  0  0  0  0  0  0  0  0  0
    6.3640    2.1480   26.8990 C   0  0  0  0  0  0  0  0  0  0  0  0
    6.3360   -4.3270   27.3020 C   0  0  0  0  0  0  0  0  0  0  0  0
    6.9140   -4.0450   28.6050 C   0  0  0  0  0  0  0  0  0  0  0  0
    7.1110   -5.5490   26.8440 C   0  0  0  0  0  0  0  0  0  0  0  0
    6.4230   -5.0210   23.7530 C   0  0  0  0  0  0  0  0  0  0  0  0
    6.5390   -5.4050   22.3160 C   0  0  0  0  0  0  0  0  0  0  0  0
  1  2  1  0
  2  3  2  0
  2  4  1  0
  4  5  1  0
  5  6  1  0
  6  7  1  0
  7  8  1  0
  8  9  2  0
  8 10  1  0
 10 11  1  0
 11 12  1  0
 12 13  1  0
 13 14  1  0
 13 15  1  0
 15 16  2  0
 15 17  1  0
 18 17  1  0
 18 19  1  0
 18 20  1  0
 18 21  1  0
 10 22  1  0
 22 23  1  0
 22 24  1  0
  7 25  1  0
  4 26  1  0
 25 26  1  0
M  END
