piperidine-amides-21691-covalent
     RDKit          3D

 22 24  0  0  0  0  0  0  0  0999 V2000
    7.0720   -3.3480   19.3520 C   0  0  0  0  0  0  0  0  0  0  0  0
    6.4210   -4.2030   20.3470 C   0  0  0  0  0  0  0  0  0  0  0  0
    5.3680   -4.7860   19.9700 O   0  0  0  0  0  0  0  0  0  0  0  0
    6.9780   -4.3960   21.6150 N   0  0  0  0  0  0  0  0  0  0  0  0
    6.5930   -5.5020   22.4480 C   0  0  0  0  0  0  0  0  0  0  0  0
    5.7450   -4.9540   23.5650 C   0  0  0  0  0  0  0  0  0  0  0  0
    6.3760   -3.7530   24.2460 C   0  0  0  0  0  0  0  0  0  0  0  0
    5.4980   -3.2570   25.3490 C   0  0  0  0  0  0  0  0  0  0  0  0
    4.5720   -2.4690   25.0770 O   0  0  0  0  0  0  0  0  0  0  0  0
    5.6830   -3.6650   26.6800 N   0  0  0  0  0  0  0  0  0  0  0  0
    5.4720   -2.7540   27.7710 C   0  0  0  0  0  0  0  0  0  0  0  0
    4.4050   -3.3280   28.6780 C   0  0  0  0  0  0  0  0  0  0  0  0
    4.7410   -5.0440   28.8060 S   0  0  0  0  0  0  0  0  0  0  0  0
    6.4790   -4.9420   29.1050 C   0  0  0  0  0  0  0  0  0  0  0  0
    7.1440   -5.2170   27.9620 C   0  0  0  0  0  0  0  0  0  0  0  0
    8.1820   -6.0800   27.9670 C   0  0  0  0  0  0  0  0  0  0  0  0
    8.8620   -6.3780   26.8360 C   0  0  0  0  0  0  0  0  0  0  0  0
    8.5020   -5.8190   25.6700 C   0  0  0  0  0  0  0  0  0  0  0  0
    7.4070   -4.8680   25.5230 C   0  0  0  0  0  0  0  0  0  0  0  0
    6.7220   -4.5840   26.8140 C   0  0  0  0  0  0  0  0  0  0  0  0
    6.7260   -2.6570   23.2310 C   0  0  0  0  0  0  0  0  0  0  0  0
    7.7060   -3.3140   22.2770 C   0  0  0  0  0  0  0  0  0  0  0  0
  1  2  1  0
  2  3  2  0
  2  4  1  0
  4  5  1  0
  5  6  1  0
  6  7  1  0
  7  8  1  0
  8  9  2  0
  8 10  1  0
 10 11  1  0
 11 12  1  0
 12 13  1  0
 13 14  1  0
 14 15  1  0
 15 16  1  0
 16 17  2  0
 17 18  1  0
 18 19  2  0
 10 20  1  0
 15 20  2  0
 19 20  1  0
  7 21  1  0
  4 22  1  0
 21 22  1  0
M  END
