piperidine-amides-12948-covalent
     RDKit          3D

 21 22  0  0  0  0  0  0  0  0999 V2000
    7.0450   -3.3940   19.3800 C   0  0  0  0  0  0  0  0  0  0  0  0
    6.3760   -4.2180   20.4120 C   0  0  0  0  0  0  0  0  0  0  0  0
    5.4110   -4.9010   20.0050 O   0  0  0  0  0  0  0  0  0  0  0  0
    6.8360   -4.2570   21.7490 N   0  0  0  0  0  0  0  0  0  0  0  0
    6.4440   -5.3250   22.6080 C   0  0  0  0  0  0  0  0  0  0  0  0
    5.8730   -4.8420   23.8740 C   0  0  0  0  0  0  0  0  0  0  0  0
    6.1200   -3.3940   24.0760 C   0  0  0  0  0  0  0  0  0  0  0  0
    5.6650   -2.9090   25.4490 C   0  0  0  0  0  0  0  0  0  0  0  0
    4.4660   -3.0950   25.7270 O   0  0  0  0  0  0  0  0  0  0  0  0
    6.5330   -2.2550   26.4170 N   0  0  0  0  0  0  0  0  0  0  0  0
    6.2060   -1.0370   27.2930 C   0  0  0  0  0  0  0  0  0  0  0  0
    5.9940   -0.8220   25.9420 C   0  0  0  0  0  0  0  0  0  0  0  0
    6.3480   -2.0530   25.4740 N   0  0  0  0  0  0  0  0  0  0  0  0
    6.6890   -2.7290   26.6250 N   0  0  0  0  0  0  0  0  0  0  0  0
    6.6630   -2.1760   28.0320 C   0  0  0  0  0  0  0  0  0  0  0  0
    6.4850   -1.2760   29.0770 C   0  0  0  0  0  0  0  0  0  0  0  0
    7.2020   -0.2530   29.2230 O   0  0  0  0  0  0  0  0  0  0  0  0
    5.4960   -1.5320   29.9930 O   0  0  0  0  0  0  0  0  0  0  0  0
    5.1960   -0.6210   31.0440 C   0  0  0  0  0  0  0  0  0  0  0  0
    7.4900   -3.0050   23.6160 C   0  0  0  0  0  0  0  0  0  0  0  0
    7.6320   -3.1640   22.2540 C   0  0  0  0  0  0  0  0  0  0  0  0
  1  2  1  0
  2  3  2  0
  2  4  1  0
  4  5  1  0
  5  6  1  0
  6  7  1  0
  7  8  1  0
  8  9  2  0
  8 10  1  0
 10 11  1  0
 11 12  1  0
 12 13  2  0
 13 14  1  0
 11 15  2  0
 14 15  1  0
 15 16  1  0
 16 17  2  0
 16 18  1  0
 18 19  1  0
  7 20  1  0
  4 21  1  0
 20 21  1  0
M  END
