piperidine-amides-13079-covalent
     RDKit          3D

 20 21  0  0  0  0  0  0  0  0999 V2000
    7.0980   -3.3090   19.2870 C   0  0  0  0  0  0  0  0  0  0  0  0
    6.3900   -4.1270   20.2960 C   0  0  0  0  0  0  0  0  0  0  0  0
    5.3320   -4.6750   19.9300 O   0  0  0  0  0  0  0  0  0  0  0  0
    6.9280   -4.3070   21.5760 N   0  0  0  0  0  0  0  0  0  0  0  0
    7.6330   -3.2330   22.1990 C   0  0  0  0  0  0  0  0  0  0  0  0
    7.1180   -2.8270   23.5090 C   0  0  0  0  0  0  0  0  0  0  0  0
    6.4060   -3.8800   24.2650 C   0  0  0  0  0  0  0  0  0  0  0  0
    5.6170   -3.2700   25.3730 C   0  0  0  0  0  0  0  0  0  0  0  0
    4.4120   -3.0440   25.1610 O   0  0  0  0  0  0  0  0  0  0  0  0
    6.1830   -2.9570   26.6280 N   0  0  0  0  0  0  0  0  0  0  0  0
    6.6970   -1.6030   26.9770 C   0  0  1  0  0  0  0  0  0  0  0  0
    5.7240   -0.5070   26.7360 C   0  0  0  0  0  0  0  0  0  0  0  0
    5.8060    0.6690   27.5960 C   0  0  0  0  0  0  0  0  0  0  0  0
    6.2970    0.5390   28.8850 C   0  0  2  0  0  0  0  0  0  0  0  0
    7.2480    1.2890   29.1550 O   0  0  0  0  0  0  0  0  0  0  0  0
    6.3540   -0.7580   29.3720 C   0  0  1  0  0  0  0  0  0  0  0  0
    5.1870   -1.1780   29.9290 C   0  0  0  0  0  0  0  0  0  0  0  0
    7.1740   -1.4910   28.3710 C   0  0  0  0  0  0  0  0  0  0  0  0
    5.6550   -4.8680   23.4560 C   0  0  0  0  0  0  0  0  0  0  0  0
    6.4270   -5.3660   22.4070 C   0  0  0  0  0  0  0  0  0  0  0  0
  1  2  1  0
  2  3  2  0
  2  4  1  0
  4  5  1  0
  5  6  1  0
  6  7  1  0
  7  8  1  0
  8  9  2  0
  8 10  1  0
 11 10  1  1
 11 12  1  0
 12 13  1  0
 13 14  1  0
 14 15  1  6
 14 16  1  0
 16 17  1  6
 11 18  1  0
 16 18  1  0
  7 19  1  0
  4 20  1  0
 19 20  1  0
M  END
