piperidine-amides-25173-covalent
     RDKit          3D

 23 25  0  0  0  0  0  0  0  0999 V2000
    7.0490   -3.3250   19.3550 C   0  0  0  0  0  0  0  0  0  0  0  0
    6.3620   -4.1950   20.3430 C   0  0  0  0  0  0  0  0  0  0  0  0
    5.3520   -4.7850   19.9600 O   0  0  0  0  0  0  0  0  0  0  0  0
    6.8820   -4.3610   21.6330 N   0  0  0  0  0  0  0  0  0  0  0  0
    6.7420   -5.6330   22.3030 C   0  0  0  0  0  0  0  0  0  0  0  0
    6.2800   -5.4180   23.7130 C   0  0  0  0  0  0  0  0  0  0  0  0
    6.0890   -3.9290   23.9470 C   0  0  0  0  0  0  0  0  0  0  0  0
    5.4360   -3.7450   25.2580 C   0  0  0  0  0  0  0  0  0  0  0  0
    4.2140   -3.5640   25.2850 O   0  0  0  0  0  0  0  0  0  0  0  0
    6.1410   -3.7480   26.4670 N   0  0  0  0  0  0  0  0  0  0  0  0
    6.4750   -2.4430   26.9260 C   0  0  0  0  0  0  0  0  0  0  0  0
    6.6030   -2.6960   28.3850 C   0  0  0  0  0  0  0  0  0  0  0  0
    7.1240   -1.7510   29.2400 C   0  0  0  0  0  0  0  0  0  0  0  0
    6.8240   -0.5450   28.6630 C   0  0  0  0  0  0  0  0  0  0  0  0
    5.1810   -0.9210   28.7340 S   0  0  0  0  0  0  0  0  0  0  0  0
    5.6090   -2.1200   29.8310 C   0  0  0  0  0  0  0  0  0  0  0  0
    5.3860   -3.3670   29.0060 C   0  0  0  0  0  0  0  0  0  0  0  0
    6.4310   -4.0690   28.8000 C   0  0  0  0  0  0  0  0  0  0  0  0
    5.6940   -4.5970   27.5800 C   0  0  2  0  0  0  0  0  0  0  0  0
    5.9520   -6.0640   27.6540 C   0  0  0  0  0  0  0  0  0  0  0  0
    4.8700   -6.7070   28.2720 O   0  0  0  0  0  0  0  0  0  0  0  0
    7.3550   -3.1600   23.7170 C   0  0  0  0  0  0  0  0  0  0  0  0
    7.6640   -3.2890   22.2370 C   0  0  0  0  0  0  0  0  0  0  0  0
  1  2  1  0
  2  3  2  0
  2  4  1  0
  4  5  1  0
  5  6  1  0
  6  7  1  0
  7  8  1  0
  8  9  2  0
  8 10  1  0
 10 11  1  0
 12 11  1  0
 12 13  1  0
 13 14  1  0
 14 15  1  0
 15 16  1  0
 12 17  1  0
 16 17  1  0
 12 18  1  0
 10 19  1  0
 18 19  1  0
 19 20  1  6
 20 21  1  0
  7 22  1  0
  4 23  1  0
 22 23  1  0
M  END
