piperidine-amides-1854-covalent
     RDKit          3D

 18 19  0  0  0  0  0  0  0  0999 V2000
    7.0810   -3.3570   19.3720 C   0  0  0  0  0  0  0  0  0  0  0  0
    6.3770   -4.1880   20.3730 C   0  0  0  0  0  0  0  0  0  0  0  0
    5.3880   -4.8140   19.9820 O   0  0  0  0  0  0  0  0  0  0  0  0
    6.8810   -4.2640   21.6790 N   0  0  0  0  0  0  0  0  0  0  0  0
    7.5910   -3.1700   22.2750 C   0  0  0  0  0  0  0  0  0  0  0  0
    6.7980   -2.6720   23.4510 C   0  0  0  0  0  0  0  0  0  0  0  0
    6.3800   -3.8510   24.3380 C   0  0  0  0  0  0  0  0  0  0  0  0
    5.6440   -3.3080   25.5240 C   0  0  0  0  0  0  0  0  0  0  0  0
    4.4100   -3.1990   25.4810 O   0  0  0  0  0  0  0  0  0  0  0  0
    6.2840   -2.9250   26.7270 N   0  0  0  0  0  0  0  0  0  0  0  0
    6.8110   -1.5760   26.8980 C   0  0  2  0  0  0  0  0  0  0  0  0
    7.1520   -1.3410   28.3490 C   0  0  0  0  0  0  0  0  0  0  0  0
    6.8150   -0.0210   28.4950 O   0  0  0  0  0  0  0  0  0  0  0  0
    5.9810    0.4750   27.5610 C   0  0  0  0  0  0  0  0  0  0  0  0
    5.4170    1.7210   27.6640 O   0  0  0  0  0  0  0  0  0  0  0  0
    5.8370   -0.4670   26.5690 C   0  0  0  0  0  0  0  0  0  0  0  0
    5.5480   -4.8630   23.5220 C   0  0  0  0  0  0  0  0  0  0  0  0
    6.4900   -5.4100   22.4640 C   0  0  0  0  0  0  0  0  0  0  0  0
  1  2  1  0
  2  3  2  0
  2  4  1  0
  4  5  1  0
  5  6  1  0
  6  7  1  0
  7  8  1  0
  8  9  2  0
  8 10  1  0
 11 10  1  1
 11 12  1  0
 12 13  1  0
 13 14  1  0
 14 15  2  0
 11 16  1  0
 14 16  1  0
  7 17  1  0
  4 18  1  0
 17 18  1  0
M  END
