piperidine-amides-31807-covalent
     RDKit          3D

 28 30  0  0  0  0  0  0  0  0999 V2000
    7.0770   -3.3550   19.4770 C   0  0  0  0  0  0  0  0  0  0  0  0
    6.4140   -4.2140   20.4430 C   0  0  0  0  0  0  0  0  0  0  0  0
    5.4720   -4.9610   20.0130 O   0  0  0  0  0  0  0  0  0  0  0  0
    6.8000   -4.2570   21.8150 N   0  0  0  0  0  0  0  0  0  0  0  0
    6.6690   -5.5900   22.4890 C   0  0  0  0  0  0  0  0  0  0  0  0
    6.1750   -5.2680   23.9750 C   0  0  0  0  0  0  0  0  0  0  0  0
    6.3010   -3.7810   24.1570 C   0  0  0  0  0  0  0  0  0  0  0  0
    5.4620   -3.1040   25.3550 C   0  0  0  0  0  0  0  0  0  0  0  0
    4.5600   -2.4780   24.8290 O   0  0  0  0  0  0  0  0  0  0  0  0
    5.8590   -3.3400   26.5610 N   0  0  0  0  0  0  0  0  0  0  0  0
    6.4380   -3.7270   27.6930 C   0  0  0  0  0  0  0  0  0  0  0  0
    6.4560   -4.8280   28.4510 C   0  0  0  0  0  0  0  0  0  0  0  0
    5.1540   -4.6990   28.9420 C   0  0  0  0  0  0  0  0  0  0  0  0
    4.4040   -3.6280   28.3650 C   0  0  0  0  0  0  0  0  0  0  0  0
    3.1790   -3.6650   28.9670 N   0  0  0  0  0  0  0  0  0  0  0  0
    3.1450   -4.6810   29.8470 N   0  0  0  0  0  0  0  0  0  0  0  0
    4.3620   -5.3500   29.8470 N   0  0  0  0  0  0  0  0  0  0  0  0
    4.2330   -6.4490   30.8050 C   0  0  0  0  0  0  0  0  0  0  0  0
    4.8650   -6.5010   32.0520 C   0  0  0  0  0  0  0  0  0  0  0  0
    3.4510   -5.9160   32.0010 C   0  0  0  0  0  0  0  0  0  0  0  0
    3.5070   -7.5510   30.1550 C   0  0  0  0  0  0  0  0  0  0  0  0
    4.8980   -7.2040   29.4800 C   0  0  0  0  0  0  0  0  0  0  0  0
    5.9820   -7.9450   29.8040 C   0  0  0  0  0  0  0  0  0  0  0  0
    4.8660   -7.0120   28.0120 C   0  0  0  0  0  0  0  0  0  0  0  0
    5.7330   -6.0820   30.0310 C   0  0  0  0  0  0  0  0  0  0  0  0
    4.8290   -2.7380   27.3810 C   0  0  0  0  0  0  0  0  0  0  0  0
    7.5730   -3.1370   23.7880 C   0  0  0  0  0  0  0  0  0  0  0  0
    7.7370   -3.2490   22.3080 C   0  0  0  0  0  0  0  0  0  0  0  0
  1  2  1  0
  2  3  2  0
  2  4  1  0
  4  5  1  0
  5  6  1  0
  6  7  1  0
  7  8  1  0
  8  9  2  0
  8 10  1  0
 10 11  1  0
 11 12  1  0
 12 13  1  0
 13 14  2  0
 14 15  1  0
 15 16  2  0
 13 17  1  0
 16 17  1  0
 17 18  1  0
 18 19  1  0
 18 20  1  0
 18 21  1  0
 22 21  1  0
 22 23  1  0
 22 24  1  0
 22 25  1  0
 10 26  1  0
 14 26  1  0
  7 27  1  0
  4 28  1  0
 27 28  1  0
M  END
