piperidine-amides-21581-covalent
     RDKit          3D

 23 24  0  0  0  0  0  0  0  0999 V2000
    7.0860   -3.2700   19.2370 C   0  0  0  0  0  0  0  0  0  0  0  0
    6.3390   -4.0240   20.2470 C   0  0  0  0  0  0  0  0  0  0  0  0
    5.2540   -4.5350   19.8740 O   0  0  0  0  0  0  0  0  0  0  0  0
    6.8470   -4.2040   21.5320 N   0  0  0  0  0  0  0  0  0  0  0  0
    6.5620   -5.4050   22.2720 C   0  0  0  0  0  0  0  0  0  0  0  0
    5.8930   -5.0040   23.5550 C   0  0  0  0  0  0  0  0  0  0  0  0
    6.6220   -3.8680   24.2270 C   0  0  0  0  0  0  0  0  0  0  0  0
    5.8200   -3.3580   25.3680 C   0  0  0  0  0  0  0  0  0  0  0  0
    4.5960   -3.1710   25.1830 O   0  0  0  0  0  0  0  0  0  0  0  0
    6.3520   -3.0640   26.6450 N   0  0  0  0  0  0  0  0  0  0  0  0
    6.7380   -1.6990   26.9110 C   0  0  0  0  0  0  0  0  0  0  0  0
    6.1270   -3.9880   27.7470 C   0  0  0  0  0  0  0  0  0  0  0  0
    5.7760   -5.2530   27.3090 C   0  0  0  0  0  0  0  0  0  0  0  0
    4.3830   -5.5430   27.3020 O   0  0  0  0  0  0  0  0  0  0  0  0
    3.6710   -5.9380   28.3800 C   0  0  0  0  0  0  0  0  0  0  0  0
    3.6030   -5.1090   29.5070 C   0  0  0  0  0  0  0  0  0  0  0  0
    2.9020   -5.4220   30.6510 C   0  0  0  0  0  0  0  0  0  0  0  0
    2.2150   -6.5910   30.7440 C   0  0  0  0  0  0  0  0  0  0  0  0
    2.2480   -7.5180   29.5710 C   0  0  0  0  0  0  0  0  0  0  0  0
    1.4140   -8.7620   29.8820 C   0  0  0  0  0  0  0  0  0  0  0  0
    2.9730   -7.1460   28.4540 C   0  0  0  0  0  0  0  0  0  0  0  0
    6.8740   -2.7270   23.2810 C   0  0  0  0  0  0  0  0  0  0  0  0
    7.6300   -3.1750   22.2230 C   0  0  0  0  0  0  0  0  0  0  0  0
  1  2  1  0
  2  3  2  0
  2  4  1  0
  4  5  1  0
  5  6  1  0
  6  7  1  0
  7  8  1  0
  8  9  2  0
  8 10  1  0
 10 11  1  0
 10 12  1  0
 12 13  1  0
 13 14  1  0
 14 15  1  0
 15 16  2  0
 16 17  1  0
 17 18  2  0
 18 19  1  0
 19 20  1  0
 15 21  1  0
 19 21  2  0
  7 22  1  0
  4 23  1  0
 22 23  1  0
M  END
