piperidine-amides-8557-covalent
     RDKit          3D

 24 26  0  0  0  0  0  0  0  0999 V2000
    7.1360   -3.2810   19.2140 C   0  0  0  0  0  0  0  0  0  0  0  0
    6.4210   -4.0490   20.2240 C   0  0  0  0  0  0  0  0  0  0  0  0
    5.3390   -4.5760   19.9050 O   0  0  0  0  0  0  0  0  0  0  0  0
    6.9960   -4.2260   21.5050 N   0  0  0  0  0  0  0  0  0  0  0  0
    7.6460   -3.1110   22.1200 C   0  0  0  0  0  0  0  0  0  0  0  0
    6.7700   -2.6230   23.2280 C   0  0  0  0  0  0  0  0  0  0  0  0
    6.6370   -3.7630   24.2120 C   0  0  0  0  0  0  0  0  0  0  0  0
    5.8530   -3.2830   25.4030 C   0  0  0  0  0  0  0  0  0  0  0  0
    4.6660   -3.0270   25.2050 O   0  0  0  0  0  0  0  0  0  0  0  0
    6.5070   -3.1470   26.6210 N   0  0  0  0  0  0  0  0  0  0  0  0
    6.1610   -3.8790   27.8070 C   0  0  0  0  0  0  0  0  0  0  0  0
    6.1080   -5.2870   27.7020 C   0  0  0  0  0  0  0  0  0  0  0  0
    4.7910   -5.6380   28.2880 N   0  0  0  0  0  0  0  0  0  0  0  0
    4.3940   -6.4290   29.3840 C   0  0  0  0  0  0  0  0  0  0  0  0
    4.9670   -6.0630   30.5740 O   0  0  0  0  0  0  0  0  0  0  0  0
    3.4780   -7.4570   29.0230 C   0  0  0  0  0  0  0  0  0  0  0  0
    3.4870   -7.2940   27.5070 C   0  0  0  0  0  0  0  0  0  0  0  0
    2.7500   -8.1640   26.4470 C   0  0  0  0  0  0  0  0  0  0  0  0
    2.8950   -7.8320   24.9880 C   0  0  0  0  0  0  0  0  0  0  0  0
    3.7690   -6.6400   24.6510 C   0  0  0  0  0  0  0  0  0  0  0  0
    4.4590   -5.8320   25.7790 C   0  0  0  0  0  0  0  0  0  0  0  0
    4.3090   -6.1600   27.0760 C   0  0  0  0  0  0  0  0  0  0  0  0
    5.8700   -4.8750   23.5400 C   0  0  0  0  0  0  0  0  0  0  0  0
    6.5210   -5.3430   22.2670 C   0  0  0  0  0  0  0  0  0  0  0  0
  1  2  1  0
  2  3  2  0
  2  4  1  0
  4  5  1  0
  5  6  1  0
  6  7  1  0
  7  8  1  0
  8  9  2  0
  8 10  1  0
 10 11  1  0
 11 12  1  0
 12 13  1  0
 13 14  1  0
 14 15  2  0
 14 16  1  0
 16 17  1  0
 17 18  1  0
 18 19  2  0
 19 20  1  0
 20 21  2  0
 13 22  1  0
 17 22  2  0
 21 22  1  0
  7 23  1  0
  4 24  1  0
 23 24  1  0
M  END
