piperidine-amides-10135-covalent
     RDKit          3D

 25 26  0  0  0  0  0  0  0  0999 V2000
    7.0910   -3.2860   19.2470 C   0  0  0  0  0  0  0  0  0  0  0  0
    6.3640   -4.0570   20.2620 C   0  0  0  0  0  0  0  0  0  0  0  0
    5.2820   -4.5830   19.8950 O   0  0  0  0  0  0  0  0  0  0  0  0
    6.8940   -4.2270   21.5440 N   0  0  0  0  0  0  0  0  0  0  0  0
    7.6970   -3.2010   22.1780 C   0  0  0  0  0  0  0  0  0  0  0  0
    6.9980   -2.7400   23.4270 C   0  0  0  0  0  0  0  0  0  0  0  0
    5.7680   -3.5630   23.7180 C   0  0  0  0  0  0  0  0  0  0  0  0
    5.1680   -3.2130   25.0310 C   0  0  0  0  0  0  0  0  0  0  0  0
    3.9690   -3.5010   25.2100 O   0  0  0  0  0  0  0  0  0  0  0  0
    5.8420   -2.5680   26.0780 N   0  0  0  0  0  0  0  0  0  0  0  0
    5.8040   -3.0600   27.4320 C   0  0  1  0  0  0  0  0  0  0  0  0
    5.4960   -4.5700   27.4660 C   0  0  0  0  0  0  0  0  0  0  0  0
    4.9060   -5.2040   28.5320 C   0  0  0  0  0  0  0  0  0  0  0  0
    5.3370   -4.9740   29.8630 O   0  0  0  0  0  0  0  0  0  0  0  0
    3.8900   -6.0550   28.1910 O   0  0  0  0  0  0  0  0  0  0  0  0
    4.1470   -7.3850   27.8140 C   0  0  0  0  0  0  0  0  0  0  0  0
    7.0920   -2.6810   27.9930 C   0  0  0  0  0  0  0  0  0  0  0  0
    7.8530   -3.5610   27.3580 C   0  0  0  0  0  0  0  0  0  0  0  0
    8.2790   -3.3760   26.0410 C   0  0  0  0  0  0  0  0  0  0  0  0
    9.1210   -4.2810   25.1710 C   0  0  0  0  0  0  0  0  0  0  0  0
    9.4960   -5.5220   25.9350 C   0  0  0  0  0  0  0  0  0  0  0  0
    9.0770   -5.7670   27.3100 C   0  0  0  0  0  0  0  0  0  0  0  0
    8.2550   -4.8140   28.0580 C   0  0  0  0  0  0  0  0  0  0  0  0
    6.0140   -5.0270   23.6330 C   0  0  0  0  0  0  0  0  0  0  0  0
    6.5740   -5.4170   22.2810 C   0  0  0  0  0  0  0  0  0  0  0  0
  1  2  1  0
  2  3  2  0
  2  4  1  0
  4  5  1  0
  5  6  1  0
  6  7  1  0
  7  8  1  0
  8  9  2  0
  8 10  1  0
 10 11  1  0
 11 12  1  6
 12 13  1  0
 13 14  2  0
 13 15  1  0
 15 16  1  0
 11 17  1  0
 17 18  1  0
 18 19  2  0
 19 20  1  0
 20 21  2  0
 21 22  1  0
 18 23  1  0
 22 23  2  0
  7 24  1  0
  4 25  1  0
 24 25  1  0
M  END
