piperidine-amides-19715-covalent
     RDKit          3D

 22 23  0  0  0  0  0  0  0  0999 V2000
    7.0240   -3.3410   19.3580 C   0  0  0  0  0  0  0  0  0  0  0  0
    6.3660   -4.1970   20.3800 C   0  0  0  0  0  0  0  0  0  0  0  0
    5.4050   -4.8640   19.9920 O   0  0  0  0  0  0  0  0  0  0  0  0
    6.8570   -4.2600   21.6960 N   0  0  0  0  0  0  0  0  0  0  0  0
    7.7000   -3.2150   22.2440 C   0  0  0  0  0  0  0  0  0  0  0  0
    7.3340   -2.9490   23.6740 C   0  0  0  0  0  0  0  0  0  0  0  0
    6.0050   -3.6410   23.9650 C   0  0  0  0  0  0  0  0  0  0  0  0
    5.4360   -3.1700   25.2510 C   0  0  0  0  0  0  0  0  0  0  0  0
    4.2550   -2.8010   25.2590 O   0  0  0  0  0  0  0  0  0  0  0  0
    6.1520   -3.1260   26.4660 N   0  0  0  0  0  0  0  0  0  0  0  0
    6.2260   -4.3920   27.1840 C   0  0  0  0  0  0  0  0  0  0  0  0
    4.9190   -4.7020   27.8220 C   0  0  0  0  0  0  0  0  0  0  0  0
    6.2660   -1.8650   27.0510 C   0  0  0  0  0  0  0  0  0  0  0  0
    5.9370   -0.7270   26.3710 C   0  0  0  0  0  0  0  0  0  0  0  0
    6.0590    0.4710   26.9970 C   0  0  0  0  0  0  0  0  0  0  0  0
    5.9060    1.9750   26.9020 C   0  0  0  0  0  0  0  0  0  0  0  0
    6.4860    0.8690   28.3030 C   0  0  0  0  0  0  0  0  0  0  0  0
    6.8800   -0.2860   29.1540 C   0  0  0  0  0  0  0  0  0  0  0  0
    6.7470   -1.6200   28.4810 C   0  0  0  0  0  0  0  0  0  0  0  0
    7.0610   -2.7390   29.1580 F   0  0  0  0  0  0  0  0  0  0  0  0
    6.0940   -5.1350   23.8160 C   0  0  0  0  0  0  0  0  0  0  0  0
    6.6730   -5.4870   22.4530 C   0  0  0  0  0  0  0  0  0  0  0  0
  1  2  1  0
  2  3  2  0
  2  4  1  0
  4  5  1  0
  5  6  1  0
  6  7  1  0
  7  8  1  0
  8  9  2  0
  8 10  1  0
 10 11  1  0
 11 12  1  0
 10 13  1  0
 13 14  2  0
 14 15  1  0
 15 16  1  0
 15 17  2  0
 17 18  1  0
 13 19  1  0
 18 19  2  0
 19 20  1  0
  7 21  1  0
  4 22  1  0
 21 22  1  0
M  END
