piperidine-amides-24549-covalent
     RDKit          3D

 24 26  0  0  0  0  0  0  0  0999 V2000
    7.0190   -3.3300   19.2670 C   0  0  0  0  0  0  0  0  0  0  0  0
    6.3070   -4.1500   20.2600 C   0  0  0  0  0  0  0  0  0  0  0  0
    5.3010   -4.8110   19.9510 O   0  0  0  0  0  0  0  0  0  0  0  0
    6.7800   -4.2270   21.5630 N   0  0  0  0  0  0  0  0  0  0  0  0
    6.5990   -5.4660   22.2940 C   0  0  0  0  0  0  0  0  0  0  0  0
    6.3130   -5.1200   23.7700 C   0  0  0  0  0  0  0  0  0  0  0  0
    5.9510   -3.6480   23.8370 C   0  0  0  0  0  0  0  0  0  0  0  0
    5.5970   -3.2170   25.2050 C   0  0  0  0  0  0  0  0  0  0  0  0
    4.8770   -2.2090   25.3230 O   0  0  0  0  0  0  0  0  0  0  0  0
    6.0240   -3.9380   26.3390 N   0  0  0  0  0  0  0  0  0  0  0  0
    7.0970   -3.5020   27.1480 C   0  0  2  0  0  0  0  0  0  0  0  0
    8.2070   -3.2110   26.2020 C   0  0  0  0  0  0  0  0  0  0  0  0
    8.7450   -1.9380   26.3850 O   0  0  0  0  0  0  0  0  0  0  0  0
    8.5530   -4.2190   25.2870 O   0  0  0  0  0  0  0  0  0  0  0  0
    8.8950   -3.8210   24.0070 C   0  0  0  0  0  0  0  0  0  0  0  0
    7.3410   -4.6180   28.0200 C   0  0  0  0  0  0  0  0  0  0  0  0
    6.1520   -5.3460   28.1530 C   0  0  1  0  0  0  0  0  0  0  0  0
    5.6700   -5.3700   29.4270 C   0  0  0  0  0  0  0  0  0  0  0  0
    4.6960   -4.2970   29.8880 C   0  0  0  0  0  0  0  0  0  0  0  0
    4.4030   -4.9700   28.5870 C   0  0  0  0  0  0  0  0  0  0  0  0
    4.1100   -3.9800   27.5240 C   0  0  0  0  0  0  0  0  0  0  0  0
    5.2700   -4.8210   27.1820 C   0  0  1  0  0  0  0  0  0  0  0  0
    7.0740   -2.7940   23.3420 C   0  0  0  0  0  0  0  0  0  0  0  0
    7.4550   -3.0850   22.0730 C   0  0  0  0  0  0  0  0  0  0  0  0
  1  2  1  0
  2  3  2  0
  2  4  1  0
  4  5  1  0
  5  6  1  0
  6  7  1  0
  7  8  1  0
  8  9  2  0
  8 10  1  0
 10 11  1  0
 11 12  1  6
 12 13  2  0
 12 14  1  0
 14 15  1  0
 11 16  1  0
 17 16  1  1
 17 18  1  0
 18 19  1  0
 19 20  1  0
 20 21  1  0
 10 22  1  0
 17 22  1  0
 22 21  1  1
  7 23  1  0
  4 24  1  0
 23 24  1  0
M  END
