piperidine-amides-6878-covalent
     RDKit          3D

 23 24  0  0  0  0  0  0  0  0999 V2000
    7.0480   -3.2780   19.2530 C   0  0  0  0  0  0  0  0  0  0  0  0
    6.3290   -4.0890   20.2510 C   0  0  0  0  0  0  0  0  0  0  0  0
    5.3010   -4.7190   19.9350 O   0  0  0  0  0  0  0  0  0  0  0  0
    6.8070   -4.1980   21.5570 N   0  0  0  0  0  0  0  0  0  0  0  0
    7.5770   -3.1000   22.0890 C   0  0  0  0  0  0  0  0  0  0  0  0
    7.2640   -3.0340   23.5790 C   0  0  0  0  0  0  0  0  0  0  0  0
    5.8880   -3.6140   23.7710 C   0  0  0  0  0  0  0  0  0  0  0  0
    5.3700   -3.3380   25.1340 C   0  0  0  0  0  0  0  0  0  0  0  0
    4.1430   -3.4580   25.3270 O   0  0  0  0  0  0  0  0  0  0  0  0
    6.2290   -2.9390   26.1830 N   0  0  0  0  0  0  0  0  0  0  0  0
    7.2990   -3.7940   26.5690 C   0  0  0  0  0  0  0  0  0  0  0  0
    8.4950   -3.2920   25.8040 C   0  0  0  0  0  0  0  0  0  0  0  0
    8.4750   -2.1400   25.0540 C   0  0  0  0  0  0  0  0  0  0  0  0
    9.5760   -1.6940   24.3470 C   0  0  0  0  0  0  0  0  0  0  0  0
   10.7780   -2.3790   24.3540 C   0  0  0  0  0  0  0  0  0  0  0  0
   11.8540   -1.9340   23.6560 O   0  0  0  0  0  0  0  0  0  0  0  0
   13.1350   -2.4210   23.7920 C   0  0  0  0  0  0  0  0  0  0  0  0
   13.3650   -3.0490   25.1570 C   0  0  0  0  0  0  0  0  0  0  0  0
   13.1630   -1.5920   24.9580 C   0  0  0  0  0  0  0  0  0  0  0  0
   10.8010   -3.5020   25.0960 C   0  0  0  0  0  0  0  0  0  0  0  0
    9.6520   -3.9750   25.8320 C   0  0  0  0  0  0  0  0  0  0  0  0
    5.9650   -5.0970   23.5430 C   0  0  0  0  0  0  0  0  0  0  0  0
    6.5060   -5.3680   22.3150 C   0  0  0  0  0  0  0  0  0  0  0  0
  1  2  1  0
  2  3  2  0
  2  4  1  0
  4  5  1  0
  5  6  1  0
  6  7  1  0
  7  8  1  0
  8  9  2  0
  8 10  1  0
 10 11  1  0
 11 12  1  0
 12 13  2  0
 13 14  1  0
 14 15  2  0
 15 16  1  0
 16 17  1  0
 17 18  1  0
 18 19  1  0
 15 20  1  0
 12 21  1  0
 20 21  2  0
  7 22  1  0
  4 23  1  0
 22 23  1  0
M  END
