piperidine-amides-5207-covalent
     RDKit          3D

 21 22  0  0  0  0  0  0  0  0999 V2000
    7.1180   -3.2700   19.1680 C   0  0  0  0  0  0  0  0  0  0  0  0
    6.3610   -4.0120   20.2000 C   0  0  0  0  0  0  0  0  0  0  0  0
    5.2630   -4.4810   19.8540 O   0  0  0  0  0  0  0  0  0  0  0  0
    6.8890   -4.2220   21.4780 N   0  0  0  0  0  0  0  0  0  0  0  0
    6.4940   -5.3590   22.2280 C   0  0  0  0  0  0  0  0  0  0  0  0
    5.9810   -5.0310   23.5550 C   0  0  0  0  0  0  0  0  0  0  0  0
    6.6340   -3.8810   24.2350 C   0  0  0  0  0  0  0  0  0  0  0  0
    5.7360   -3.3690   25.2940 C   0  0  0  0  0  0  0  0  0  0  0  0
    4.5850   -3.0120   24.9770 O   0  0  0  0  0  0  0  0  0  0  0  0
    6.1660   -3.2730   26.6220 N   0  0  0  0  0  0  0  0  0  0  0  0
    6.0550   -4.3720   27.6130 C   0  0  1  0  0  0  0  0  0  0  0  0
    5.5990   -5.6650   27.0390 C   0  0  0  0  0  0  0  0  0  0  0  0
    4.2800   -6.1550   27.4360 C   0  0  0  0  0  0  0  0  0  0  0  0
    3.3480   -6.1830   26.5600 O   0  0  0  0  0  0  0  0  0  0  0  0
    4.0260   -6.5740   28.7160 O   0  0  0  0  0  0  0  0  0  0  0  0
    4.6570   -7.7280   29.2720 C   0  0  0  0  0  0  0  0  0  0  0  0
    7.2580   -4.4900   28.3700 C   0  0  0  0  0  0  0  0  0  0  0  0
    8.2990   -4.6880   27.8400 C   0  0  0  0  0  0  0  0  0  0  0  0
    8.0700   -3.2520   28.1700 C   0  0  0  0  0  0  0  0  0  0  0  0
    7.1360   -2.7940   23.3590 C   0  0  0  0  0  0  0  0  0  0  0  0
    7.6570   -3.1960   22.1350 C   0  0  0  0  0  0  0  0  0  0  0  0
  1  2  1  0
  2  3  2  0
  2  4  1  0
  4  5  1  0
  5  6  1  0
  6  7  1  0
  7  8  1  0
  8  9  2  0
  8 10  1  0
 10 11  1  0
 11 12  1  6
 12 13  1  0
 13 14  2  0
 13 15  1  0
 15 16  1  0
 11 17  1  0
 17 18  1  0
 17 19  1  0
 18 19  1  0
  7 20  1  0
  4 21  1  0
 20 21  1  0
M  END
