piperidine-amides-8447-covalent
     RDKit          3D

 24 26  0  0  0  0  0  0  0  0999 V2000
    7.0740   -3.3090   19.3130 C   0  0  0  0  0  0  0  0  0  0  0  0
    6.3200   -4.0720   20.3090 C   0  0  0  0  0  0  0  0  0  0  0  0
    5.3030   -4.6730   19.9270 O   0  0  0  0  0  0  0  0  0  0  0  0
    6.7660   -4.1570   21.6540 N   0  0  0  0  0  0  0  0  0  0  0  0
    7.6850   -3.1570   22.1580 C   0  0  0  0  0  0  0  0  0  0  0  0
    7.4090   -2.9160   23.6070 C   0  0  0  0  0  0  0  0  0  0  0  0
    6.0850   -3.5870   23.8540 C   0  0  0  0  0  0  0  0  0  0  0  0
    5.5720   -3.3310   25.2370 C   0  0  0  0  0  0  0  0  0  0  0  0
    4.3570   -3.1560   25.3240 O   0  0  0  0  0  0  0  0  0  0  0  0
    6.4460   -3.3050   26.3190 N   0  0  0  0  0  0  0  0  0  0  0  0
    5.9690   -3.5380   27.6410 C   0  0  1  0  0  0  0  0  0  0  0  0
    6.5580   -4.5760   28.3860 C   0  0  0  0  0  0  0  0  0  0  0  0
    6.2690   -2.3140   28.4010 C   0  0  0  0  0  0  0  0  0  0  0  0
    6.0200   -2.0460   29.7980 N   0  0  0  0  0  0  0  0  0  0  0  0
    6.4790   -0.7610   30.0830 C   0  0  0  0  0  0  0  0  0  0  0  0
    6.3930   -0.1660   31.4490 C   0  0  0  0  0  0  0  0  0  0  0  0
    7.7480    0.2460   32.0640 C   0  0  0  0  0  0  0  0  0  0  0  0
    7.5500    0.8120   33.4070 C   0  0  0  0  0  0  0  0  0  0  0  0
    6.0860    0.7960   33.7180 C   0  0  0  0  0  0  0  0  0  0  0  0
    5.0020    0.1310   32.4550 S   0  0  0  0  0  0  0  0  0  0  0  0
    6.9500   -0.3380   28.8850 N   0  0  0  0  0  0  0  0  0  0  0  0
    6.8540   -1.1890   27.8920 N   0  0  0  0  0  0  0  0  0  0  0  0
    6.0470   -5.0380   23.6100 C   0  0  0  0  0  0  0  0  0  0  0  0
    6.6420   -5.3860   22.4130 C   0  0  0  0  0  0  0  0  0  0  0  0
  1  2  1  0
  2  3  2  0
  2  4  1  0
  4  5  1  0
  5  6  1  0
  6  7  1  0
  7  8  1  0
  8  9  2  0
  8 10  1  0
 10 11  1  0
 11 12  1  1
 11 13  1  0
 13 14  2  0
 14 15  1  0
 15 16  1  0
 16 17  2  0
 17 18  1  0
 18 19  2  0
 16 20  1  0
 19 20  1  0
 15 21  2  0
 13 22  1  0
 21 22  1  0
  7 23  1  0
  4 24  1  0
 23 24  1  0
M  END
