piperidine-amides-6379-covalent
     RDKit          3D

 25 27  0  0  0  0  0  0  0  0999 V2000
    7.1250   -3.2670   19.2650 C   0  0  0  0  0  0  0  0  0  0  0  0
    6.3840   -4.0730   20.2430 C   0  0  0  0  0  0  0  0  0  0  0  0
    5.3150   -4.6370   19.9190 O   0  0  0  0  0  0  0  0  0  0  0  0
    6.8950   -4.2730   21.5300 N   0  0  0  0  0  0  0  0  0  0  0  0
    6.4690   -5.4350   22.2560 C   0  0  0  0  0  0  0  0  0  0  0  0
    5.6390   -4.8910   23.4200 C   0  0  0  0  0  0  0  0  0  0  0  0
    6.5260   -3.9110   24.1660 C   0  0  0  0  0  0  0  0  0  0  0  0
    5.7880   -3.3900   25.3330 C   0  0  0  0  0  0  0  0  0  0  0  0
    4.5710   -3.1410   25.1980 O   0  0  0  0  0  0  0  0  0  0  0  0
    6.4550   -3.1800   26.5610 N   0  0  0  0  0  0  0  0  0  0  0  0
    6.1650   -3.9920   27.7150 C   0  0  0  0  0  0  0  0  0  0  0  0
    5.7320   -5.3880   27.2700 C   0  0  0  0  0  0  0  0  0  0  0  0
    5.6950   -6.2660   28.4270 N   0  0  0  0  0  0  0  0  0  0  0  0
    4.8490   -5.9690   29.5800 C   0  0  0  0  0  0  0  0  0  0  0  0
    4.0120   -4.9830   29.2110 N   0  0  0  0  0  0  0  0  0  0  0  0
    3.1470   -4.5380   30.1010 C   0  0  0  0  0  0  0  0  0  0  0  0
    3.1360   -5.0730   31.3120 N   0  0  0  0  0  0  0  0  0  0  0  0
    3.9750   -6.0740   31.7080 C   0  0  0  0  0  0  0  0  0  0  0  0
    3.8290   -6.4960   32.9620 C   0  0  0  0  0  0  0  0  0  0  0  0
    4.5620   -7.5540   33.7190 C   0  0  0  0  0  0  0  0  0  0  0  0
    5.5280   -8.0050   32.6040 C   0  0  0  0  0  0  0  0  0  0  0  0
    5.8610   -7.6740   31.1390 C   0  0  0  0  0  0  0  0  0  0  0  0
    4.9130   -6.6070   30.8440 C   0  0  0  0  0  0  0  0  0  0  0  0
    6.8900   -2.7510   23.2820 C   0  0  0  0  0  0  0  0  0  0  0  0
    7.5670   -3.1970   22.1890 C   0  0  0  0  0  0  0  0  0  0  0  0
  1  2  1  0
  2  3  2  0
  2  4  1  0
  4  5  1  0
  5  6  1  0
  6  7  1  0
  7  8  1  0
  8  9  2  0
  8 10  1  0
 10 11  1  0
 11 12  1  0
 12 13  1  0
 13 14  1  0
 14 15  2  0
 15 16  1  0
 16 17  2  0
 17 18  1  0
 18 19  1  0
 19 20  2  0
 20 21  1  0
 21 22  2  0
 14 23  1  0
 18 23  2  0
 22 23  1  0
  7 24  1  0
  4 25  1  0
 24 25  1  0
M  END
