piperidine-amides-10156-covalent
     RDKit          3D

 25 26  0  0  0  0  0  0  0  0999 V2000
    7.0120   -3.3520   19.3580 C   0  0  0  0  0  0  0  0  0  0  0  0
    6.3770   -4.1980   20.3760 C   0  0  0  0  0  0  0  0  0  0  0  0
    5.3850   -4.8720   19.9880 O   0  0  0  0  0  0  0  0  0  0  0  0
    6.8810   -4.2740   21.6830 N   0  0  0  0  0  0  0  0  0  0  0  0
    6.7080   -5.4820   22.4640 C   0  0  0  0  0  0  0  0  0  0  0  0
    6.0390   -5.1000   23.7530 C   0  0  0  0  0  0  0  0  0  0  0  0
    6.0300   -3.6060   23.9200 C   0  0  0  0  0  0  0  0  0  0  0  0
    5.6300   -3.2170   25.2960 C   0  0  0  0  0  0  0  0  0  0  0  0
    4.4070   -3.1670   25.5430 O   0  0  0  0  0  0  0  0  0  0  0  0
    6.5280   -2.9080   26.3350 N   0  0  0  0  0  0  0  0  0  0  0  0
    6.4560   -1.6640   27.0650 C   0  0  0  0  0  0  0  0  0  0  0  0
    7.0600   -1.5390   28.4430 C   0  0  0  0  0  0  0  0  0  0  0  0
    7.0190   -0.3710   29.1750 C   0  0  0  0  0  0  0  0  0  0  0  0
    6.4220    0.8290   28.7460 C   0  0  0  0  0  0  0  0  0  0  0  0
    6.4170    1.9720   29.5430 C   0  0  0  0  0  0  0  0  0  0  0  0
    6.9250    3.0210   28.8680 N   0  0  0  0  0  0  0  0  0  0  0  0
    8.2280    3.3200   28.9310 C   0  0  0  0  0  0  0  0  0  0  0  0
    6.0710    3.9090   28.3060 C   0  0  0  0  0  0  0  0  0  0  0  0
    4.7440    3.5420   28.0540 O   0  0  0  0  0  0  0  0  0  0  0  0
    6.4440    5.1650   27.9720 O   0  0  0  0  0  0  0  0  0  0  0  0
    5.3380    5.9780   27.8740 C   0  0  0  0  0  0  0  0  0  0  0  0
    5.8340    0.8020   27.4750 C   0  0  0  0  0  0  0  0  0  0  0  0
    5.8190   -0.4160   26.5850 C   0  0  0  0  0  0  0  0  0  0  0  0
    7.3780   -3.0280   23.5970 C   0  0  0  0  0  0  0  0  0  0  0  0
    7.7270   -3.2180   22.2730 C   0  0  0  0  0  0  0  0  0  0  0  0
  1  2  1  0
  2  3  2  0
  2  4  1  0
  4  5  1  0
  5  6  1  0
  6  7  1  0
  7  8  1  0
  8  9  2  0
  8 10  1  0
 10 11  1  0
 11 12  2  0
 12 13  1  0
 13 14  2  0
 14 15  1  0
 15 16  1  0
 16 17  1  0
 16 18  1  0
 18 19  2  0
 18 20  1  0
 20 21  1  0
 14 22  1  0
 11 23  1  0
 22 23  2  0
  7 24  1  0
  4 25  1  0
 24 25  1  0
M  END
