piperidine-amides-24416-covalent
     RDKit          3D

 23 25  0  0  0  0  0  0  0  0999 V2000
    7.1360   -3.3490   19.3860 C   0  0  0  0  0  0  0  0  0  0  0  0
    6.4110   -4.1990   20.3310 C   0  0  0  0  0  0  0  0  0  0  0  0
    5.3700   -4.7970   19.9750 O   0  0  0  0  0  0  0  0  0  0  0  0
    6.9150   -4.3920   21.6250 N   0  0  0  0  0  0  0  0  0  0  0  0
    6.6290   -5.6120   22.3250 C   0  0  0  0  0  0  0  0  0  0  0  0
    5.8290   -5.1850   23.5550 C   0  0  0  0  0  0  0  0  0  0  0  0
    6.5900   -4.0590   24.2340 C   0  0  0  0  0  0  0  0  0  0  0  0
    5.7690   -3.5460   25.3430 C   0  0  0  0  0  0  0  0  0  0  0  0
    4.5850   -3.2290   25.1040 O   0  0  0  0  0  0  0  0  0  0  0  0
    6.3060   -3.4210   26.6420 N   0  0  0  0  0  0  0  0  0  0  0  0
    5.6280   -3.9790   27.8050 C   0  0  0  0  0  0  0  0  0  0  0  0
    6.6350   -4.9120   28.3840 C   0  0  0  0  0  0  0  0  0  0  0  0
    7.8150   -4.5300   27.8920 C   0  0  0  0  0  0  0  0  0  0  0  0
    7.6090   -3.3070   27.2840 C   0  0  2  0  0  0  0  0  0  0  0  0
    7.3510   -2.1620   28.0510 C   0  0  0  0  0  0  0  0  0  0  0  0
    8.0960   -1.7310   29.1180 C   0  0  0  0  0  0  0  0  0  0  0  0
    8.0640   -0.5780   30.1330 C   0  0  0  0  0  0  0  0  0  0  0  0
    6.8200    0.1940   29.6860 C   0  0  0  0  0  0  0  0  0  0  0  0
    6.4410    1.6350   30.6400 Cl  0  0  0  0  0  0  0  0  0  0  0  0
    5.9480   -0.1670   28.5500 N   0  0  0  0  0  0  0  0  0  0  0  0
    6.2950   -1.3540   27.8040 C   0  0  0  0  0  0  0  0  0  0  0  0
    6.8610   -2.9090   23.2800 C   0  0  0  0  0  0  0  0  0  0  0  0
    7.7230   -3.3990   22.2940 C   0  0  0  0  0  0  0  0  0  0  0  0
  1  2  1  0
  2  3  2  0
  2  4  1  0
  4  5  1  0
  5  6  1  0
  6  7  1  0
  7  8  1  0
  8  9  2  0
  8 10  1  0
 10 11  1  0
 11 12  1  0
 12 13  1  0
 10 14  1  0
 13 14  1  0
 14 15  1  1
 15 16  2  0
 16 17  1  0
 17 18  2  0
 18 19  1  0
 18 20  1  0
 15 21  1  0
 20 21  2  0
  7 22  1  0
  4 23  1  0
 22 23  1  0
M  END
