piperidine-amides-33214-covalent
     RDKit          3D

 28 29  0  0  0  0  0  0  0  0999 V2000
    7.0550   -3.3750   19.3820 C   0  0  0  0  0  0  0  0  0  0  0  0
    6.4280   -4.2620   20.3700 C   0  0  0  0  0  0  0  0  0  0  0  0
    5.3820   -4.8460   19.9910 O   0  0  0  0  0  0  0  0  0  0  0  0
    7.0010   -4.5120   21.6550 N   0  0  0  0  0  0  0  0  0  0  0  0
    6.4800   -5.5750   22.4220 C   0  0  0  0  0  0  0  0  0  0  0  0
    5.8750   -5.1550   23.6900 C   0  0  0  0  0  0  0  0  0  0  0  0
    6.4280   -3.9420   24.3480 C   0  0  0  0  0  0  0  0  0  0  0  0
    5.4910   -3.4150   25.4230 C   0  0  0  0  0  0  0  0  0  0  0  0
    4.6430   -2.5760   25.0810 O   0  0  0  0  0  0  0  0  0  0  0  0
    5.4870   -3.8110   26.8000 N   0  0  0  0  0  0  0  0  0  0  0  0
    5.3250   -2.9420   27.9000 C   0  0  0  0  0  0  0  0  0  0  0  0
    5.5380   -3.4100   29.2800 C   0  0  0  0  0  0  0  0  0  0  0  0
    5.8230   -4.9280   29.3410 C   0  0  1  0  0  0  0  0  0  0  0  0
    5.1070   -5.6430   30.2770 C   0  0  0  0  0  0  0  0  0  0  0  0
    5.6390   -6.7370   30.9310 O   0  0  0  0  0  0  0  0  0  0  0  0
    3.9670   -5.2110   30.5050 O   0  0  0  0  0  0  0  0  0  0  0  0
    3.4080   -5.2900   31.8090 C   0  0  0  0  0  0  0  0  0  0  0  0
    5.2560   -5.7470   28.2690 C   0  0  1  0  0  0  0  0  0  0  0  0
    3.9400   -6.0190   28.3590 N   0  0  0  0  0  0  0  0  0  0  0  0
    3.4770   -7.1530   28.9340 C   0  0  0  0  0  0  0  0  0  0  0  0
    4.2670   -8.0510   29.6460 O   0  0  0  0  0  0  0  0  0  0  0  0
    1.9990   -7.5070   28.8240 C   0  0  0  0  0  0  0  0  0  0  0  0
    1.2360   -6.4100   29.1550 F   0  0  0  0  0  0  0  0  0  0  0  0
    1.7610   -7.8350   27.4860 F   0  0  0  0  0  0  0  0  0  0  0  0
    1.6730   -8.5720   29.6440 F   0  0  0  0  0  0  0  0  0  0  0  0
    5.9680   -5.0520   27.2200 C   0  0  0  0  0  0  0  0  0  0  0  0
    6.7190   -2.8150   23.3320 C   0  0  0  0  0  0  0  0  0  0  0  0
    7.6640   -3.3860   22.3320 C   0  0  0  0  0  0  0  0  0  0  0  0
  1  2  1  0
  2  3  2  0
  2  4  1  0
  4  5  1  0
  5  6  1  0
  6  7  1  0
  7  8  1  0
  8  9  2  0
  8 10  1  0
 10 11  1  0
 11 12  1  0
 12 13  1  0
 13 14  1  1
 14 15  2  0
 14 16  1  0
 16 17  1  0
 13 18  1  0
 18 19  1  6
 19 20  1  0
 20 21  2  0
 20 22  1  0
 22 23  1  0
 22 24  1  0
 22 25  1  0
 10 26  1  0
 18 26  1  0
  7 27  1  0
  4 28  1  0
 27 28  1  0
M  END
