piperidine-amides-6855-covalent
     RDKit          3D

 23 24  0  0  0  0  0  0  0  0999 V2000
    7.0270   -3.3010   19.2970 C   0  0  0  0  0  0  0  0  0  0  0  0
    6.3140   -4.1370   20.2670 C   0  0  0  0  0  0  0  0  0  0  0  0
    5.2820   -4.7610   19.9410 O   0  0  0  0  0  0  0  0  0  0  0  0
    6.8120   -4.2820   21.5620 N   0  0  0  0  0  0  0  0  0  0  0  0
    7.6380   -3.2540   22.1360 C   0  0  0  0  0  0  0  0  0  0  0  0
    6.8310   -2.7220   23.3130 C   0  0  0  0  0  0  0  0  0  0  0  0
    6.5410   -3.9290   24.1840 C   0  0  0  0  0  0  0  0  0  0  0  0
    5.8210   -3.5130   25.4050 C   0  0  0  0  0  0  0  0  0  0  0  0
    4.6170   -3.1750   25.3030 O   0  0  0  0  0  0  0  0  0  0  0  0
    6.4870   -3.5050   26.6600 N   0  0  0  0  0  0  0  0  0  0  0  0
    7.5560   -4.4290   26.9180 C   0  0  0  0  0  0  0  0  0  0  0  0
    8.7420   -3.9570   26.1040 C   0  0  0  0  0  0  0  0  0  0  0  0
    8.6940   -2.8220   25.3470 C   0  0  0  0  0  0  0  0  0  0  0  0
    9.7760   -2.4060   24.6030 C   0  0  0  0  0  0  0  0  0  0  0  0
   11.0050   -3.0710   24.5430 C   0  0  0  0  0  0  0  0  0  0  0  0
   12.0250   -2.6010   23.7750 O   0  0  0  0  0  0  0  0  0  0  0  0
   13.3530   -2.5790   24.1390 C   0  0  0  0  0  0  0  0  0  0  0  0
   13.5630   -3.1970   25.5030 C   0  0  0  0  0  0  0  0  0  0  0  0
   13.1090   -1.7960   25.2760 C   0  0  0  0  0  0  0  0  0  0  0  0
   11.0300   -4.1750   25.3060 N   0  0  0  0  0  0  0  0  0  0  0  0
    9.9000   -4.6360   26.0900 C   0  0  0  0  0  0  0  0  0  0  0  0
    5.7060   -4.9380   23.4210 C   0  0  0  0  0  0  0  0  0  0  0  0
    6.4940   -5.4320   22.3690 C   0  0  0  0  0  0  0  0  0  0  0  0
  1  2  1  0
  2  3  2  0
  2  4  1  0
  4  5  1  0
  5  6  1  0
  6  7  1  0
  7  8  1  0
  8  9  2  0
  8 10  1  0
 10 11  1  0
 11 12  1  0
 12 13  2  0
 13 14  1  0
 14 15  2  0
 15 16  1  0
 16 17  1  0
 17 18  1  0
 18 19  1  0
 15 20  1  0
 12 21  1  0
 20 21  2  0
  7 22  1  0
  4 23  1  0
 22 23  1  0
M  END
