piperidine-amides-8293-covalent
     RDKit          3D

 25 27  0  0  0  0  0  0  0  0999 V2000
    7.0950   -3.2900   19.2610 C   0  0  0  0  0  0  0  0  0  0  0  0
    6.3890   -4.0820   20.2660 C   0  0  0  0  0  0  0  0  0  0  0  0
    5.3370   -4.6580   19.9270 O   0  0  0  0  0  0  0  0  0  0  0  0
    6.9260   -4.2210   21.5680 N   0  0  0  0  0  0  0  0  0  0  0  0
    7.6630   -3.1200   22.1370 C   0  0  0  0  0  0  0  0  0  0  0  0
    7.5040   -3.1010   23.6290 C   0  0  0  0  0  0  0  0  0  0  0  0
    6.1040   -3.5880   23.9180 C   0  0  0  0  0  0  0  0  0  0  0  0
    5.6850   -3.2950   25.3240 C   0  0  0  0  0  0  0  0  0  0  0  0
    4.5140   -3.5400   25.5910 O   0  0  0  0  0  0  0  0  0  0  0  0
    6.6200   -2.7800   26.2180 N   0  0  0  0  0  0  0  0  0  0  0  0
    6.5680   -1.4310   26.6640 C   0  0  0  0  0  0  0  0  0  0  0  0
    5.3500   -1.0690   27.2490 C   0  0  0  0  0  0  0  0  0  0  0  0
    4.0700   -1.2030   26.8750 C   0  0  0  0  0  0  0  0  0  0  0  0
    3.3100   -0.6590   27.8620 C   0  0  0  0  0  0  0  0  0  0  0  0
    1.8480   -0.7620   27.5430 C   0  0  0  0  0  0  0  0  0  0  0  0
    1.3300   -2.0120   26.7940 C   0  0  0  0  0  0  0  0  0  0  0  0
   -0.0780   -2.2690   26.4060 C   0  0  0  0  0  0  0  0  0  0  0  0
   -1.0200   -1.1720   26.8100 C   0  0  0  0  0  0  0  0  0  0  0  0
   -0.4450    0.0540   27.5550 C   0  0  0  0  0  0  0  0  0  0  0  0
    0.8530    0.3130   27.9250 C   0  0  0  0  0  0  0  0  0  0  0  0
    1.0770    1.5200   28.5970 F   0  0  0  0  0  0  0  0  0  0  0  0
    4.1460   -0.1670   28.8830 O   0  0  0  0  0  0  0  0  0  0  0  0
    5.4300   -0.3960   28.5580 N   0  0  0  0  0  0  0  0  0  0  0  0
    6.1130   -5.0670   23.6950 C   0  0  0  0  0  0  0  0  0  0  0  0
    6.5580   -5.4070   22.3040 C   0  0  0  0  0  0  0  0  0  0  0  0
  1  2  1  0
  2  3  2  0
  2  4  1  0
  4  5  1  0
  5  6  1  0
  6  7  1  0
  7  8  1  0
  8  9  2  0
  8 10  1  0
 10 11  1  0
 11 12  1  0
 12 13  1  0
 13 14  2  0
 14 15  1  0
 15 16  2  0
 16 17  1  0
 17 18  2  0
 18 19  1  0
 15 20  1  0
 19 20  2  0
 20 21  1  0
 14 22  1  0
 12 23  2  0
 22 23  1  0
  7 24  1  0
  4 25  1  0
 24 25  1  0
M  END
