piperidine-amides-12603-covalent
     RDKit          3D

 23 24  0  0  0  0  0  0  0  0999 V2000
    7.0850   -3.2960   19.2330 C   0  0  0  0  0  0  0  0  0  0  0  0
    6.3670   -4.0950   20.2540 C   0  0  0  0  0  0  0  0  0  0  0  0
    5.2960   -4.6250   19.9030 O   0  0  0  0  0  0  0  0  0  0  0  0
    6.9050   -4.2790   21.5330 N   0  0  0  0  0  0  0  0  0  0  0  0
    7.6290   -3.2070   22.1380 C   0  0  0  0  0  0  0  0  0  0  0  0
    7.0860   -2.7520   23.4160 C   0  0  0  0  0  0  0  0  0  0  0  0
    6.5000   -3.8230   24.2380 C   0  0  0  0  0  0  0  0  0  0  0  0
    5.7360   -3.2630   25.3840 C   0  0  0  0  0  0  0  0  0  0  0  0
    4.5470   -2.9430   25.1950 O   0  0  0  0  0  0  0  0  0  0  0  0
    6.3250   -3.1060   26.6520 N   0  0  0  0  0  0  0  0  0  0  0  0
    6.4330   -1.8110   27.3760 C   0  0  0  0  0  0  0  0  0  0  0  0
    5.7860   -0.6270   26.7490 C   0  0  0  0  0  0  0  0  0  0  0  0
    5.8200    0.6960   27.3680 C   0  0  0  0  0  0  0  0  0  0  0  0
    6.4770    0.8550   28.5760 C   0  0  0  0  0  0  0  0  0  0  0  0
    6.5550    2.0720   29.2200 C   0  0  0  0  0  0  0  0  0  0  0  0
    5.8700    2.0040   30.3940 C   0  0  0  0  0  0  0  0  0  0  0  0
    5.3490    3.2250   30.6910 C   0  0  0  0  0  0  0  0  0  0  0  0
    4.5660    3.7790   29.7170 C   0  0  0  0  0  0  0  0  0  0  0  0
    4.4630    3.2060   31.7610 C   0  0  0  0  0  0  0  0  0  0  0  0
    7.0890   -0.2320   29.1780 C   0  0  0  0  0  0  0  0  0  0  0  0
    7.0680   -1.6050   28.5640 C   0  0  0  0  0  0  0  0  0  0  0  0
    5.7010   -4.8100   23.3850 C   0  0  0  0  0  0  0  0  0  0  0  0
    6.4960   -5.3840   22.3710 C   0  0  0  0  0  0  0  0  0  0  0  0
  1  2  1  0
  2  3  2  0
  2  4  1  0
  4  5  1  0
  5  6  1  0
  6  7  1  0
  7  8  1  0
  8  9  2  0
  8 10  1  0
 10 11  1  0
 11 12  2  0
 12 13  1  0
 13 14  2  0
 14 15  1  0
 15 16  1  0
 16 17  1  0
 17 18  1  0
 17 19  1  0
 14 20  1  0
 11 21  1  0
 20 21  2  0
  7 22  1  0
  4 23  1  0
 22 23  1  0
M  END
