piperidine-amides-32633-covalent
     RDKit          3D

 28 31  0  0  0  0  0  0  0  0999 V2000
    7.0170   -3.3280   19.3190 C   0  0  0  0  0  0  0  0  0  0  0  0
    6.2910   -4.1980   20.2840 C   0  0  0  0  0  0  0  0  0  0  0  0
    5.2600   -4.7770   19.9330 O   0  0  0  0  0  0  0  0  0  0  0  0
    6.8140   -4.3860   21.5670 N   0  0  0  0  0  0  0  0  0  0  0  0
    6.3960   -5.5050   22.3610 C   0  0  0  0  0  0  0  0  0  0  0  0
    5.3030   -4.9730   23.3050 C   0  0  0  0  0  0  0  0  0  0  0  0
    5.8420   -3.8140   24.1100 C   0  0  0  0  0  0  0  0  0  0  0  0
    4.8160   -3.2300   25.0220 C   0  0  0  0  0  0  0  0  0  0  0  0
    3.7870   -2.8650   24.4690 O   0  0  0  0  0  0  0  0  0  0  0  0
    4.9700   -3.0960   26.4120 N   0  0  0  0  0  0  0  0  0  0  0  0
    3.8950   -3.1370   27.3310 C   0  0  0  0  0  0  0  0  0  0  0  0
    4.0140   -3.6360   28.5900 C   0  0  0  0  0  0  0  0  0  0  0  0
    5.2790   -3.6810   29.0640 C   0  0  0  0  0  0  0  0  0  0  0  0
    6.1910   -3.7130   28.1150 C   0  0  0  0  0  0  0  0  0  0  0  0
    6.2230   -2.7710   26.9350 C   0  0  1  0  0  0  0  0  0  0  0  0
    7.1560   -3.0420   25.7700 C   0  0  0  0  0  0  0  0  0  0  0  0
    8.2200   -2.2130   25.2970 N   0  0  0  0  0  0  0  0  0  0  0  0
    8.9440   -2.7790   24.2310 C   0  0  0  0  0  0  0  0  0  0  0  0
   10.0630   -2.2460   23.6370 C   0  0  0  0  0  0  0  0  0  0  0  0
   11.1100   -1.6540   24.5130 C   0  0  0  0  0  0  0  0  0  0  0  0
   12.3640   -1.1090   23.8160 C   0  0  0  0  0  0  0  0  0  0  0  0
   12.7770   -1.0350   22.5060 C   0  0  0  0  0  0  0  0  0  0  0  0
   11.5290   -1.6970   21.9180 C   0  0  0  0  0  0  0  0  0  0  0  0
   10.3760   -2.2110   22.3550 N   0  0  0  0  0  0  0  0  0  0  0  0
    8.4700   -3.9740   23.8050 C   0  0  0  0  0  0  0  0  0  0  0  0
    7.1710   -4.4600   24.7470 S   0  0  0  0  0  0  0  0  0  0  0  0
    6.3440   -2.6720   23.2240 C   0  0  0  0  0  0  0  0  0  0  0  0
    7.3330   -3.2160   22.2450 C   0  0  0  0  0  0  0  0  0  0  0  0
  1  2  1  0
  2  3  2  0
  2  4  1  0
  4  5  1  0
  5  6  1  0
  6  7  1  0
  7  8  1  0
  8  9  2  0
  8 10  1  0
 10 11  1  0
 11 12  1  0
 12 13  1  0
 13 14  1  0
 10 15  1  0
 14 15  1  0
 15 16  1  6
 16 17  2  0
 17 18  1  0
 18 19  1  0
 19 20  2  0
 20 21  1  0
 21 22  2  0
 22 23  1  0
 19 24  1  0
 23 24  2  0
 18 25  2  0
 16 26  1  0
 25 26  1  0
  7 27  1  0
  4 28  1  0
 27 28  1  0
M  END
