piperidine-amides-8636-covalent
     RDKit          3D

 23 25  0  0  0  0  0  0  0  0999 V2000
    7.1280   -3.2890   19.2450 C   0  0  0  0  0  0  0  0  0  0  0  0
    6.4230   -4.0900   20.2400 C   0  0  0  0  0  0  0  0  0  0  0  0
    5.3360   -4.5990   19.9130 O   0  0  0  0  0  0  0  0  0  0  0  0
    7.0030   -4.3300   21.5120 N   0  0  0  0  0  0  0  0  0  0  0  0
    7.6360   -3.2380   22.1870 C   0  0  0  0  0  0  0  0  0  0  0  0
    6.7370   -2.7770   23.2910 C   0  0  0  0  0  0  0  0  0  0  0  0
    6.4880   -3.9720   24.1930 C   0  0  0  0  0  0  0  0  0  0  0  0
    5.6370   -3.5530   25.3460 C   0  0  0  0  0  0  0  0  0  0  0  0
    4.8970   -4.3980   25.8290 O   0  0  0  0  0  0  0  0  0  0  0  0
    5.7190   -2.2500   25.7800 N   0  0  0  0  0  0  0  0  0  0  0  0
    6.6720   -1.8200   26.7190 C   0  0  0  0  0  0  0  0  0  0  0  0
    6.3410   -0.5980   27.3110 C   0  0  0  0  0  0  0  0  0  0  0  0
    5.6520    0.4620   26.6760 C   0  0  0  0  0  0  0  0  0  0  0  0
    5.5110    1.5380   27.6080 N   0  0  0  0  0  0  0  0  0  0  0  0
    4.8700    2.7510   27.2910 C   0  0  0  0  0  0  0  0  0  0  0  0
    6.1250    1.1090   28.8150 C   0  0  0  0  0  0  0  0  0  0  0  0
    6.2230    1.9360   30.1150 C   0  0  0  0  0  0  0  0  0  0  0  0
    6.9100    1.3230   31.2930 C   0  0  0  0  0  0  0  0  0  0  0  0
    7.4480   -0.0790   31.0740 C   0  0  0  0  0  0  0  0  0  0  0  0
    7.2800   -0.7980   29.7160 C   0  0  0  0  0  0  0  0  0  0  0  0
    6.6590   -0.2490   28.6440 C   0  0  0  0  0  0  0  0  0  0  0  0
    5.7160   -5.0020   23.4230 C   0  0  0  0  0  0  0  0  0  0  0  0
    6.4880   -5.4660   22.2240 C   0  0  0  0  0  0  0  0  0  0  0  0
  1  2  1  0
  2  3  2  0
  2  4  1  0
  4  5  1  0
  5  6  1  0
  6  7  1  0
  7  8  1  0
  8  9  2  0
  8 10  1  0
 10 11  1  0
 11 12  1  0
 12 13  2  0
 13 14  1  0
 14 15  1  0
 14 16  1  0
 16 17  1  0
 17 18  2  0
 18 19  1  0
 19 20  2  0
 12 21  1  0
 16 21  2  0
 20 21  1  0
  7 22  1  0
  4 23  1  0
 22 23  1  0
M  END
