piperidine-amides-13673-covalent
     RDKit          3D

 27 28  0  0  0  0  0  0  0  0999 V2000
    7.1770   -3.2780   19.2030 C   0  0  0  0  0  0  0  0  0  0  0  0
    6.3540   -3.9990   20.2040 C   0  0  0  0  0  0  0  0  0  0  0  0
    5.2690   -4.4950   19.8650 O   0  0  0  0  0  0  0  0  0  0  0  0
    6.8690   -4.1440   21.5010 N   0  0  0  0  0  0  0  0  0  0  0  0
    7.7500   -3.1560   22.0730 C   0  0  0  0  0  0  0  0  0  0  0  0
    6.9910   -2.5220   23.2290 C   0  0  0  0  0  0  0  0  0  0  0  0
    6.5900   -3.6320   24.1400 C   0  0  0  0  0  0  0  0  0  0  0  0
    6.0040   -3.1060   25.3860 C   0  0  0  0  0  0  0  0  0  0  0  0
    4.8720   -2.6120   25.3070 O   0  0  0  0  0  0  0  0  0  0  0  0
    6.7320   -3.2020   26.5780 N   0  0  0  0  0  0  0  0  0  0  0  0
    6.6840   -4.3430   27.3970 C   0  0  1  0  0  0  0  0  0  0  0  0
    5.5440   -4.5280   28.1310 C   0  0  0  0  0  0  0  0  0  0  0  0
    5.4220   -5.4260   29.2060 C   0  0  0  0  0  0  0  0  0  0  0  0
    6.1990   -6.5450   29.4050 C   0  0  0  0  0  0  0  0  0  0  0  0
    5.9270   -7.3830   30.5950 C   0  0  0  0  0  0  0  0  0  0  0  0
    4.8120   -6.9680   31.5380 C   0  0  0  0  0  0  0  0  0  0  0  0
    4.6850   -7.9460   32.7070 C   0  0  0  0  0  0  0  0  0  0  0  0
    5.5790   -8.0380   33.7090 N   0  0  0  0  0  0  0  0  0  0  0  0
    4.0420   -5.8270   31.3070 C   0  0  0  0  0  0  0  0  0  0  0  0
    4.4050   -5.0630   30.0770 C   0  0  0  0  0  0  0  0  0  0  0  0
    6.8680   -5.6620   26.8110 C   0  0  0  0  0  0  0  0  0  0  0  0
    5.9930   -6.7180   27.0480 O   0  0  0  0  0  0  0  0  0  0  0  0
    7.9590   -5.8380   25.9580 O   0  0  0  0  0  0  0  0  0  0  0  0
    9.2430   -5.8570   26.4720 C   0  0  0  0  0  0  0  0  0  0  0  0
    9.1260   -5.5080   27.9580 C   0  0  0  0  0  0  0  0  0  0  0  0
    5.6960   -4.6620   23.5040 C   0  0  0  0  0  0  0  0  0  0  0  0
    6.4750   -5.2570   22.3300 C   0  0  0  0  0  0  0  0  0  0  0  0
  1  2  1  0
  2  3  2  0
  2  4  1  0
  4  5  1  0
  5  6  1  0
  6  7  1  0
  7  8  1  0
  8  9  2  0
  8 10  1  0
 10 11  1  0
 11 12  1  6
 12 13  1  0
 13 14  2  0
 14 15  1  0
 15 16  2  0
 16 17  1  0
 17 18  3  0
 16 19  1  0
 13 20  1  0
 19 20  2  0
 11 21  1  0
 21 22  2  0
 21 23  1  0
 23 24  1  0
 24 25  1  0
  7 26  1  0
  4 27  1  0
 26 27  1  0
M  END
