piperidine-amides-7142-covalent
     RDKit          3D

 21 22  0  0  0  0  0  0  0  0999 V2000
    7.1000   -3.2970   19.2850 C   0  0  0  0  0  0  0  0  0  0  0  0
    6.3130   -4.0500   20.2670 C   0  0  0  0  0  0  0  0  0  0  0  0
    5.2270   -4.5340   19.8690 O   0  0  0  0  0  0  0  0  0  0  0  0
    6.7890   -4.2550   21.5610 N   0  0  0  0  0  0  0  0  0  0  0  0
    6.5460   -5.4810   22.2730 C   0  0  0  0  0  0  0  0  0  0  0  0
    6.1160   -5.1050   23.6660 C   0  0  0  0  0  0  0  0  0  0  0  0
    5.7420   -3.6470   23.7540 C   0  0  0  0  0  0  0  0  0  0  0  0
    5.2230   -3.2950   25.1010 C   0  0  0  0  0  0  0  0  0  0  0  0
    3.9920   -3.3570   25.2800 O   0  0  0  0  0  0  0  0  0  0  0  0
    6.0190   -2.8930   26.1840 N   0  0  0  0  0  0  0  0  0  0  0  0
    6.5540   -3.8610   27.0960 C   0  0  1  0  0  0  0  0  0  0  0  0
    5.7000   -5.1150   27.2020 C   0  0  0  0  0  0  0  0  0  0  0  0
    7.8790   -4.2480   26.6840 C   0  0  0  0  0  0  0  0  0  0  0  0
    8.3900   -5.4510   27.0410 C   0  0  0  0  0  0  0  0  0  0  0  0
    9.6350   -5.7870   26.6450 C   0  0  0  0  0  0  0  0  0  0  0  0
   10.3990   -4.9280   25.8950 C   0  0  0  0  0  0  0  0  0  0  0  0
    9.8830   -3.7470   25.5430 N   0  0  0  0  0  0  0  0  0  0  0  0
    8.6470   -3.3930   25.9140 C   0  0  0  0  0  0  0  0  0  0  0  0
    8.0880   -2.1470   25.5440 O   0  0  0  0  0  0  0  0  0  0  0  0
    6.9260   -2.7340   23.4210 C   0  0  0  0  0  0  0  0  0  0  0  0
    7.6260   -3.2540   22.1690 C   0  0  0  0  0  0  0  0  0  0  0  0
  1  2  1  0
  2  3  2  0
  2  4  1  0
  4  5  1  0
  5  6  1  0
  6  7  1  0
  7  8  1  0
  8  9  2  0
  8 10  1  0
 10 11  1  0
 11 12  1  6
 11 13  1  0
 13 14  2  0
 14 15  1  0
 15 16  2  0
 16 17  1  0
 13 18  1  0
 17 18  2  0
 18 19  1  0
  7 20  1  0
  4 21  1  0
 20 21  1  0
M  END
