piperidine-amides-29268-covalent
     RDKit          3D

 26 27  0  0  0  0  0  0  0  0999 V2000
    6.9260   -3.3750   19.4600 C   0  0  0  0  0  0  0  0  0  0  0  0
    6.2880   -4.2780   20.4300 C   0  0  0  0  0  0  0  0  0  0  0  0
    5.3770   -5.0010   20.0000 O   0  0  0  0  0  0  0  0  0  0  0  0
    6.6840   -4.3590   21.8020 N   0  0  0  0  0  0  0  0  0  0  0  0
    6.4470   -5.6130   22.4650 C   0  0  0  0  0  0  0  0  0  0  0  0
    6.4070   -5.5010   23.9770 C   0  0  0  0  0  0  0  0  0  0  0  0
    6.1490   -4.0720   24.4130 C   0  0  0  0  0  0  0  0  0  0  0  0
    6.0610   -3.8250   25.9380 C   0  0  0  0  0  0  0  0  0  0  0  0
    6.1590   -2.6360   26.2050 O   0  0  0  0  0  0  0  0  0  0  0  0
    5.8080   -4.8170   26.9670 N   0  0  0  0  0  0  0  0  0  0  0  0
    4.7960   -4.6200   27.9330 C   0  0  0  0  0  0  0  0  0  0  0  0
    4.9260   -5.6970   28.8380 C   0  0  0  0  0  0  0  0  0  0  0  0
    5.9550   -6.5190   28.4190 C   0  0  2  0  0  0  0  0  0  0  0  0
    6.6430   -7.4280   29.3480 C   0  0  0  0  0  0  0  0  0  0  0  0
    6.3450   -8.7530   30.1510 N   0  0  0  0  0  0  0  0  0  0  0  0
    5.7590   -8.3490   31.4320 C   0  0  0  0  0  0  0  0  0  0  0  0
    7.3300   -9.9400   30.1390 C   0  0  0  0  0  0  0  0  0  0  0  0
    8.3030   -9.8560   29.5080 O   0  0  0  0  0  0  0  0  0  0  0  0
    7.3440  -11.3300   30.7770 O   0  0  0  0  0  0  0  0  0  0  0  0
    7.7520  -12.0820   32.1120 C   0  0  0  0  0  0  0  0  0  0  0  0
    9.1830  -12.6040   32.0870 C   0  0  0  0  0  0  0  0  0  0  0  0
    7.0500  -13.2130   32.4980 C   0  0  0  0  0  0  0  0  0  0  0  0
    7.2920  -11.4150   33.2680 C   0  0  0  0  0  0  0  0  0  0  0  0
    6.7990   -5.6670   27.6480 C   0  0  0  0  0  0  0  0  0  0  0  0
    7.1270   -3.0850   23.8240 C   0  0  0  0  0  0  0  0  0  0  0  0
    7.5470   -3.3760   22.4050 C   0  0  0  0  0  0  0  0  0  0  0  0
  1  2  1  0
  2  3  2  0
  2  4  1  0
  4  5  1  0
  5  6  1  0
  6  7  1  0
  7  8  1  0
  8  9  2  0
  8 10  1  0
 10 11  1  0
 11 12  1  0
 12 13  1  0
 13 14  1  1
 14 15  1  0
 15 16  1  0
 15 17  1  0
 17 18  2  0
 17 19  1  0
 20 19  1  0
 20 21  1  0
 20 22  1  0
 20 23  1  0
 10 24  1  0
 13 24  1  0
  7 25  1  0
  4 26  1  0
 25 26  1  0
M  END
