piperidine-amides-19838-covalent
     RDKit          3D

 21 23  0  0  0  0  0  0  0  0999 V2000
    7.0230   -3.3460   19.3480 C   0  0  0  0  0  0  0  0  0  0  0  0
    6.3770   -4.2010   20.3790 C   0  0  0  0  0  0  0  0  0  0  0  0
    5.4230   -4.8860   19.9980 O   0  0  0  0  0  0  0  0  0  0  0  0
    6.8650   -4.2410   21.6990 N   0  0  0  0  0  0  0  0  0  0  0  0
    6.6380   -5.3900   22.5460 C   0  0  0  0  0  0  0  0  0  0  0  0
    5.9820   -4.9560   23.8410 C   0  0  0  0  0  0  0  0  0  0  0  0
    6.0950   -3.4330   23.9740 C   0  0  0  0  0  0  0  0  0  0  0  0
    5.5410   -2.9880   25.2950 C   0  0  0  0  0  0  0  0  0  0  0  0
    4.3210   -2.8240   25.3790 O   0  0  0  0  0  0  0  0  0  0  0  0
    6.3250   -2.7680   26.4550 N   0  0  0  0  0  0  0  0  0  0  0  0
    5.5410   -2.3840   27.6210 C   0  0  0  0  0  0  0  0  0  0  0  0
    5.4860   -3.6730   28.3180 C   0  0  0  0  0  0  0  0  0  0  0  0
    6.5110   -4.4130   27.9340 C   0  0  0  0  0  0  0  0  0  0  0  0
    6.7450   -5.5450   28.7500 C   0  0  0  0  0  0  0  0  0  0  0  0
    7.7730   -6.2700   28.3480 C   0  0  0  0  0  0  0  0  0  0  0  0
    8.4320   -5.7690   27.2360 C   0  0  0  0  0  0  0  0  0  0  0  0
    9.6870   -5.9320   26.0950 Cl  0  0  0  0  0  0  0  0  0  0  0  0
    7.3350   -4.8700   27.5270 C   0  0  0  0  0  0  0  0  0  0  0  0
    7.2670   -3.8490   26.6070 C   0  0  0  0  0  0  0  0  0  0  0  0
    7.4050   -2.8830   23.5990 C   0  0  0  0  0  0  0  0  0  0  0  0
    7.7340   -3.1790   22.1720 C   0  0  0  0  0  0  0  0  0  0  0  0
  1  2  1  0
  2  3  2  0
  2  4  1  0
  4  5  1  0
  5  6  1  0
  6  7  1  0
  7  8  1  0
  8  9  2  0
  8 10  1  0
 10 11  1  0
 11 12  1  0
 12 13  1  0
 13 14  1  0
 14 15  2  0
 15 16  1  0
 16 17  1  0
 16 18  2  0
 10 19  1  0
 13 19  2  0
 18 19  1  0
  7 20  1  0
  4 21  1  0
 20 21  1  0
M  END
