piperidine-amides-11005-covalent
     RDKit          3D

 21 21  0  0  0  0  0  0  0  0999 V2000
    7.0870   -3.2670   19.1540 C   0  0  0  0  0  0  0  0  0  0  0  0
    6.2950   -3.9850   20.1620 C   0  0  0  0  0  0  0  0  0  0  0  0
    5.2220   -4.5100   19.8450 O   0  0  0  0  0  0  0  0  0  0  0  0
    6.7510   -4.1300   21.4660 N   0  0  0  0  0  0  0  0  0  0  0  0
    6.6320   -5.3580   22.2120 C   0  0  0  0  0  0  0  0  0  0  0  0
    5.8560   -4.9970   23.4500 C   0  0  0  0  0  0  0  0  0  0  0  0
    5.9800   -3.5310   23.7660 C   0  0  0  0  0  0  0  0  0  0  0  0
    5.7050   -3.1810   25.1770 C   0  0  0  0  0  0  0  0  0  0  0  0
    4.6700   -2.5200   25.4840 O   0  0  0  0  0  0  0  0  0  0  0  0
    6.5680   -3.5450   26.2270 N   0  0  0  0  0  0  0  0  0  0  0  0
    6.4060   -4.8380   26.9210 C   0  0  0  0  0  0  0  0  0  0  0  0
    5.0490   -4.8180   27.5180 C   0  0  1  0  0  0  0  0  0  0  0  0
    3.9140   -4.8260   26.5590 C   0  0  0  0  0  0  0  0  0  0  0  0
    4.0930   -5.4880   25.2630 N   0  0  0  0  0  0  0  0  0  0  0  0
    3.8680   -6.9350   25.5750 C   0  0  0  0  0  0  0  0  0  0  0  0
    2.9940   -5.1260   24.3590 C   0  0  0  0  0  0  0  0  0  0  0  0
    4.7010   -5.7660   28.2590 O   0  0  0  0  0  0  0  0  0  0  0  0
    5.5780   -6.7930   28.4080 C   0  0  0  0  0  0  0  0  0  0  0  0
    6.5940   -6.5000   29.2620 C   0  0  0  0  0  0  0  0  0  0  0  0
    7.3650   -3.0580   23.4760 C   0  0  0  0  0  0  0  0  0  0  0  0
    7.6160   -3.1060   22.0050 C   0  0  0  0  0  0  0  0  0  0  0  0
  1  2  1  0
  2  3  2  0
  2  4  1  0
  4  5  1  0
  5  6  1  0
  6  7  1  0
  7  8  1  0
  8  9  2  0
  8 10  1  0
 10 11  1  0
 12 11  1  6
 12 13  1  0
 13 14  1  0
 14 15  1  0
 14 16  1  0
 12 17  1  0
 17 18  1  0
 18 19  1  0
  7 20  1  0
  4 21  1  0
 20 21  1  0
M  END
