piperidine-amides-24020-covalent
     RDKit          3D

 24 26  0  0  0  0  0  0  0  0999 V2000
    7.1290   -3.3970   19.3620 C   0  0  0  0  0  0  0  0  0  0  0  0
    6.4370   -4.2350   20.3460 C   0  0  0  0  0  0  0  0  0  0  0  0
    5.3630   -4.7640   19.9720 O   0  0  0  0  0  0  0  0  0  0  0  0
    7.0160   -4.4880   21.6220 N   0  0  0  0  0  0  0  0  0  0  0  0
    6.5000   -5.5390   22.4110 C   0  0  0  0  0  0  0  0  0  0  0  0
    5.9900   -5.1210   23.7190 C   0  0  0  0  0  0  0  0  0  0  0  0
    6.4180   -3.8040   24.2740 C   0  0  0  0  0  0  0  0  0  0  0  0
    5.3590   -3.2590   25.1910 C   0  0  0  0  0  0  0  0  0  0  0  0
    4.4230   -2.6190   24.6930 O   0  0  0  0  0  0  0  0  0  0  0  0
    5.3630   -3.4430   26.5860 N   0  0  0  0  0  0  0  0  0  0  0  0
    4.3790   -4.0650   27.3550 C   0  0  0  0  0  0  0  0  0  0  0  0
    4.7900   -5.0370   28.3550 C   0  0  0  0  0  0  0  0  0  0  0  0
    5.6180   -4.3020   29.4070 C   0  0  0  0  0  0  0  0  0  0  0  0
    5.0810   -3.0980   29.8350 C   0  0  0  0  0  0  0  0  0  0  0  0
    5.8360   -1.9030   29.7010 N   0  0  0  0  0  0  0  0  0  0  0  0
    5.0000   -1.0010   30.2160 N   0  0  0  0  0  0  0  0  0  0  0  0
    3.7300   -1.5250   30.6830 C   0  0  0  0  0  0  0  0  0  0  0  0
    3.8910   -2.8200   30.4020 N   0  0  0  0  0  0  0  0  0  0  0  0
    2.8610   -3.8070   30.6930 C   0  0  0  0  0  0  0  0  0  0  0  0
    1.4180   -3.5060   30.2770 C   0  0  0  0  0  0  0  0  0  0  0  0
    6.7040   -4.1870   28.4180 C   0  0  0  0  0  0  0  0  0  0  0  0
    6.4580   -3.1140   27.3500 C   0  0  0  0  0  0  0  0  0  0  0  0
    6.7370   -2.7530   23.1980 C   0  0  0  0  0  0  0  0  0  0  0  0
    7.7090   -3.3690   22.2670 C   0  0  0  0  0  0  0  0  0  0  0  0
  1  2  1  0
  2  3  2  0
  2  4  1  0
  4  5  1  0
  5  6  1  0
  6  7  1  0
  7  8  1  0
  8  9  2  0
  8 10  1  0
 10 11  1  0
 11 12  1  0
 12 13  1  0
 13 14  1  0
 14 15  2  0
 15 16  1  0
 16 17  2  0
 14 18  1  0
 17 18  1  0
 18 19  1  0
 19 20  1  0
 13 21  1  0
 10 22  1  0
 21 22  1  0
  7 23  1  0
  4 24  1  0
 23 24  1  0
M  END
