piperidine-amides-191-covalent
     RDKit          3D

 22 23  0  0  0  0  0  0  0  0999 V2000
    7.1550   -3.2790   19.3770 C   0  0  0  0  0  0  0  0  0  0  0  0
    6.3300   -4.0090   20.3200 C   0  0  0  0  0  0  0  0  0  0  0  0
    5.2790   -4.5820   19.8930 O   0  0  0  0  0  0  0  0  0  0  0  0
    6.6650   -4.1590   21.6810 N   0  0  0  0  0  0  0  0  0  0  0  0
    7.7050   -3.1980   22.1910 C   0  0  0  0  0  0  0  0  0  0  0  0
    7.2330   -2.8190   23.6530 C   0  0  0  0  0  0  0  0  0  0  0  0
    6.3920   -3.9800   24.0950 C   0  0  0  0  0  0  0  0  0  0  0  0
    5.7160   -3.7270   25.5070 C   0  0  0  0  0  0  0  0  0  0  0  0
    4.9590   -4.6440   25.7580 O   0  0  0  0  0  0  0  0  0  0  0  0
    6.0800   -2.6350   26.0420 N   0  0  0  0  0  0  0  0  0  0  0  0
    6.1980   -1.4400   26.6830 C   0  0  0  0  0  0  0  0  0  0  0  0
    5.9620   -0.0680   26.4250 C   0  0  0  0  0  0  0  0  0  0  0  0
    6.1210    1.0980   27.2590 C   0  0  0  0  0  0  0  0  0  0  0  0
    5.7780    2.3250   26.6550 F   0  0  0  0  0  0  0  0  0  0  0  0
    6.5820    1.2150   28.6440 C   0  0  0  0  0  0  0  0  0  0  0  0
    6.7920   -0.2410   28.7940 C   0  0  0  0  0  0  0  0  0  0  0  0
    7.2470   -0.7240   30.0180 C   0  0  0  0  0  0  0  0  0  0  0  0
    6.1430   -1.1890   30.7440 F   0  0  0  0  0  0  0  0  0  0  0  0
    7.8220    0.2850   30.7330 F   0  0  0  0  0  0  0  0  0  0  0  0
    6.7150   -1.5670   28.1380 C   0  0  0  0  0  0  0  0  0  0  0  0
    6.8660   -5.2920   23.8030 C   0  0  0  0  0  0  0  0  0  0  0  0
    6.5800   -5.4310   22.2830 C   0  0  0  0  0  0  0  0  0  0  0  0
  1  2  1  0
  2  3  2  0
  2  4  1  0
  4  5  1  0
  5  6  1  0
  6  7  1  0
  7  8  1  0
  8  9  2  0
  8 10  1  0
 10 11  1  0
 11 12  2  0
 12 13  1  0
 13 14  1  0
 13 15  2  0
 15 16  1  0
 16 17  1  0
 17 18  1  0
 17 19  1  0
 11 20  1  0
 16 20  2  0
  7 21  1  0
  4 22  1  0
 21 22  1  0
M  END
