piperidine-amides-13023-covalent
     RDKit          3D

 23 24  0  0  0  0  0  0  0  0999 V2000
    7.0590   -3.3480   19.3750 C   0  0  0  0  0  0  0  0  0  0  0  0
    6.4070   -4.2230   20.3760 C   0  0  0  0  0  0  0  0  0  0  0  0
    5.3920   -4.8400   19.9840 O   0  0  0  0  0  0  0  0  0  0  0  0
    6.9350   -4.3860   21.6750 N   0  0  0  0  0  0  0  0  0  0  0  0
    7.6780   -3.3380   22.3120 C   0  0  0  0  0  0  0  0  0  0  0  0
    7.2270   -3.0590   23.6750 C   0  0  0  0  0  0  0  0  0  0  0  0
    5.9560   -3.7430   23.9960 C   0  0  0  0  0  0  0  0  0  0  0  0
    5.3960   -3.4300   25.3500 C   0  0  0  0  0  0  0  0  0  0  0  0
    4.1700   -3.5640   25.4810 O   0  0  0  0  0  0  0  0  0  0  0  0
    6.1470   -2.9900   26.4570 N   0  0  0  0  0  0  0  0  0  0  0  0
    6.2680   -1.5490   26.7950 C   0  0  2  0  0  0  0  0  0  0  0  0
    6.6780   -0.8120   25.5760 C   0  0  0  0  0  0  0  0  0  0  0  0
    5.9210   -0.8500   24.5620 O   0  0  0  0  0  0  0  0  0  0  0  0
    7.0980   -1.3830   28.0200 C   0  0  0  0  0  0  0  0  0  0  0  0
    6.7540   -0.5270   29.0290 C   0  0  2  0  0  0  0  0  0  0  0  0
    5.9140   -0.9930   30.0180 C   0  0  0  0  0  0  0  0  0  0  0  0
    6.1420    0.7140   28.5200 C   0  0  0  0  0  0  0  0  0  0  0  0
    5.0720    0.5440   27.6950 C   0  0  0  0  0  0  0  0  0  0  0  0
    5.0730    1.0740   26.4330 C   0  0  0  0  0  0  0  0  0  0  0  0
    3.8290    0.8850   28.2180 C   0  0  0  0  0  0  0  0  0  0  0  0
    4.9350   -0.8660   27.1030 C   0  0  0  0  0  0  0  0  0  0  0  0
    6.0080   -5.2200   23.7710 C   0  0  0  0  0  0  0  0  0  0  0  0
    6.6510   -5.5770   22.4510 C   0  0  0  0  0  0  0  0  0  0  0  0
  1  2  1  0
  2  3  2  0
  2  4  1  0
  4  5  1  0
  5  6  1  0
  6  7  1  0
  7  8  1  0
  8  9  2  0
  8 10  1  0
 11 10  1  0
 11 12  1  6
 12 13  1  0
 11 14  1  0
 14 15  1  0
 15 16  1  1
 15 17  1  0
 17 18  1  0
 18 19  1  0
 18 20  1  0
 11 21  1  0
 18 21  1  0
  7 22  1  0
  4 23  1  0
 22 23  1  0
M  END
