piperidine-amides-14797-covalent
     RDKit          3D

 22 24  0  0  0  0  0  0  0  0999 V2000
    7.0620   -3.3450   19.3220 C   0  0  0  0  0  0  0  0  0  0  0  0
    6.4100   -4.1850   20.3240 C   0  0  0  0  0  0  0  0  0  0  0  0
    5.3970   -4.8250   19.9800 O   0  0  0  0  0  0  0  0  0  0  0  0
    6.9590   -4.2890   21.6320 N   0  0  0  0  0  0  0  0  0  0  0  0
    7.7190   -3.1930   22.1690 C   0  0  0  0  0  0  0  0  0  0  0  0
    6.9200   -2.5300   23.2440 C   0  0  0  0  0  0  0  0  0  0  0  0
    6.5860   -3.6120   24.2370 C   0  0  0  0  0  0  0  0  0  0  0  0
    5.6970   -3.0400   25.3290 C   0  0  0  0  0  0  0  0  0  0  0  0
    4.5220   -2.8130   24.9830 O   0  0  0  0  0  0  0  0  0  0  0  0
    6.2320   -2.8120   26.6440 N   0  0  0  0  0  0  0  0  0  0  0  0
    6.6460   -1.5180   27.1650 C   0  0  0  0  0  0  0  0  0  0  0  0
    6.5120   -1.3320   25.8930 C   0  0  0  0  0  0  0  0  0  0  0  0
    6.1300   -2.7190   25.8350 N   0  0  0  0  0  0  0  0  0  0  0  0
    6.1710   -3.2380   27.1350 N   0  0  0  0  0  0  0  0  0  0  0  0
    5.8490   -4.5950   27.5670 C   0  0  0  0  0  0  0  0  0  0  0  0
    4.9100   -5.3840   26.9310 N   0  0  0  0  0  0  0  0  0  0  0  0
    4.8320   -6.6600   27.5920 C   0  0  0  0  0  0  0  0  0  0  0  0
    5.7700   -6.6800   28.7090 C   0  0  0  0  0  0  0  0  0  0  0  0
    6.6770   -5.2590   28.9370 S   0  0  0  0  0  0  0  0  0  0  0  0
    6.5570   -2.4290   28.2490 C   0  0  0  0  0  0  0  0  0  0  0  0
    5.8520   -4.7930   23.6720 C   0  0  0  0  0  0  0  0  0  0  0  0
    6.4990   -5.3630   22.4360 C   0  0  0  0  0  0  0  0  0  0  0  0
  1  2  1  0
  2  3  2  0
  2  4  1  0
  4  5  1  0
  5  6  1  0
  6  7  1  0
  7  8  1  0
  8  9  2  0
  8 10  1  0
 10 11  1  0
 11 12  1  0
 12 13  2  0
 13 14  1  0
 14 15  1  0
 15 16  2  0
 16 17  1  0
 17 18  2  0
 15 19  1  0
 18 19  1  0
 11 20  2  0
 14 20  1  0
  7 21  1  0
  4 22  1  0
 21 22  1  0
M  END
