piperidine-amides-12019-covalent
     RDKit          3D

 26 28  0  0  0  0  0  0  0  0999 V2000
    7.0880   -3.3330   19.3210 C   0  0  0  0  0  0  0  0  0  0  0  0
    6.3890   -4.1670   20.2920 C   0  0  0  0  0  0  0  0  0  0  0  0
    5.3690   -4.7760   19.9660 O   0  0  0  0  0  0  0  0  0  0  0  0
    6.9260   -4.3180   21.6120 N   0  0  0  0  0  0  0  0  0  0  0  0
    7.7190   -3.2590   22.1850 C   0  0  0  0  0  0  0  0  0  0  0  0
    6.9840   -2.6320   23.3230 C   0  0  0  0  0  0  0  0  0  0  0  0
    6.6170   -3.7440   24.2800 C   0  0  0  0  0  0  0  0  0  0  0  0
    5.8230   -3.1740   25.3990 C   0  0  0  0  0  0  0  0  0  0  0  0
    4.6260   -2.8490   25.2730 O   0  0  0  0  0  0  0  0  0  0  0  0
    6.4560   -3.0110   26.6530 N   0  0  0  0  0  0  0  0  0  0  0  0
    6.4530   -1.7230   27.3170 C   0  0  0  0  0  0  0  0  0  0  0  0
    5.8210   -0.5500   26.6330 C   0  0  0  0  0  0  0  0  0  0  0  0
    5.8090    0.6800   27.2770 C   0  0  0  0  0  0  0  0  0  0  0  0
    6.3880    0.8180   28.5630 C   0  0  0  0  0  0  0  0  0  0  0  0
    6.3550    2.0810   29.1940 O   0  0  0  0  0  0  0  0  0  0  0  0
    7.5410    2.7240   29.6330 C   0  0  0  0  0  0  0  0  0  0  0  0
    8.1010    2.1860   30.8670 C   0  0  0  0  0  0  0  0  0  0  0  0
    9.2580    2.7330   31.3860 C   0  0  0  0  0  0  0  0  0  0  0  0
    9.8950    3.7890   30.7530 C   0  0  0  0  0  0  0  0  0  0  0  0
    9.3940    4.3380   29.5700 C   0  0  0  0  0  0  0  0  0  0  0  0
    8.1710    3.7750   29.0020 C   0  0  0  0  0  0  0  0  0  0  0  0
    7.7420    4.3660   27.8480 F   0  0  0  0  0  0  0  0  0  0  0  0
    6.9860   -0.2860   29.2000 C   0  0  0  0  0  0  0  0  0  0  0  0
    7.0060   -1.5170   28.5720 C   0  0  0  0  0  0  0  0  0  0  0  0
    5.7800   -4.8170   23.6100 C   0  0  0  0  0  0  0  0  0  0  0  0
    6.5790   -5.4330   22.4500 C   0  0  0  0  0  0  0  0  0  0  0  0
  1  2  1  0
  2  3  2  0
  2  4  1  0
  4  5  1  0
  5  6  1  0
  6  7  1  0
  7  8  1  0
  8  9  2  0
  8 10  1  0
 10 11  1  0
 11 12  2  0
 12 13  1  0
 13 14  2  0
 14 15  1  0
 15 16  1  0
 16 17  2  0
 17 18  1  0
 18 19  2  0
 19 20  1  0
 16 21  1  0
 20 21  2  0
 21 22  1  0
 14 23  1  0
 11 24  1  0
 23 24  2  0
  7 25  1  0
  4 26  1  0
 25 26  1  0
M  END
