piperidine-amides-1899-covalent
     RDKit          3D

 21 23  0  0  0  0  0  0  0  0999 V2000
    7.0560   -3.3280   19.2890 C   0  0  0  0  0  0  0  0  0  0  0  0
    6.3900   -4.1660   20.3220 C   0  0  0  0  0  0  0  0  0  0  0  0
    5.3860   -4.7850   19.9680 O   0  0  0  0  0  0  0  0  0  0  0  0
    6.9240   -4.2680   21.6150 N   0  0  0  0  0  0  0  0  0  0  0  0
    6.7300   -5.4620   22.4060 C   0  0  0  0  0  0  0  0  0  0  0  0
    6.0750   -5.1160   23.7150 C   0  0  0  0  0  0  0  0  0  0  0  0
    6.1910   -3.6110   23.9530 C   0  0  0  0  0  0  0  0  0  0  0  0
    5.8070   -3.3410   25.3410 C   0  0  0  0  0  0  0  0  0  0  0  0
    4.7590   -3.8390   25.7700 O   0  0  0  0  0  0  0  0  0  0  0  0
    6.5730   -2.5140   26.1830 N   0  0  0  0  0  0  0  0  0  0  0  0
    5.7980   -1.7970   27.1590 C   0  0  2  0  0  0  0  0  0  0  0  0
    5.6820   -0.3620   26.7620 C   0  0  0  0  0  0  0  0  0  0  0  0
    5.4300    0.2540   27.9280 C   0  0  2  0  0  0  0  0  0  0  0  0
    6.5640    0.6130   28.5680 C   0  0  0  0  0  0  0  0  0  0  0  0
    7.0880   -0.6050   28.9200 C   0  0  0  0  0  0  0  0  0  0  0  0
    6.1570   -1.6910   28.4920 C   0  0  2  0  0  0  0  0  0  0  0  0
    5.2610   -1.7250   29.6940 C   0  0  0  0  0  0  0  0  0  0  0  0
    4.5210   -2.8670   29.8130 O   0  0  0  0  0  0  0  0  0  0  0  0
    4.8350   -0.9040   28.6980 C   0  0  0  0  0  0  0  0  0  0  0  0
    7.4700   -3.0120   23.5640 C   0  0  0  0  0  0  0  0  0  0  0  0
    7.7600   -3.2000   22.1240 C   0  0  0  0  0  0  0  0  0  0  0  0
  1  2  1  0
  2  3  2  0
  2  4  1  0
  4  5  1  0
  5  6  1  0
  6  7  1  0
  7  8  1  0
  8  9  2  0
  8 10  1  0
 11 10  1  6
 11 12  1  0
 13 12  1  6
 13 14  1  0
 14 15  1  0
 11 16  1  0
 15 16  1  0
 16 17  1  6
 17 18  1  0
 13 19  1  0
 16 19  1  0
  7 20  1  0
  4 21  1  0
 20 21  1  0
M  END
