piperidine-amides-8321-covalent
     RDKit          3D

 24 26  0  0  0  0  0  0  0  0999 V2000
    7.0310   -3.3210   19.3470 C   0  0  0  0  0  0  0  0  0  0  0  0
    6.3600   -4.1430   20.3560 C   0  0  0  0  0  0  0  0  0  0  0  0
    5.4030   -4.8450   19.9840 O   0  0  0  0  0  0  0  0  0  0  0  0
    6.8090   -4.1670   21.7090 N   0  0  0  0  0  0  0  0  0  0  0  0
    7.7300   -3.1510   22.1590 C   0  0  0  0  0  0  0  0  0  0  0  0
    7.6110   -3.0470   23.6390 C   0  0  0  0  0  0  0  0  0  0  0  0
    6.2340   -3.5900   23.9020 C   0  0  0  0  0  0  0  0  0  0  0  0
    5.7500   -3.2820   25.2880 C   0  0  0  0  0  0  0  0  0  0  0  0
    4.6380   -3.7270   25.5450 O   0  0  0  0  0  0  0  0  0  0  0  0
    6.5400   -2.5240   26.1660 N   0  0  0  0  0  0  0  0  0  0  0  0
    5.9570   -1.6950   27.1830 C   0  0  0  0  0  0  0  0  0  0  0  0
    4.8100   -2.2570   27.7840 C   0  0  0  0  0  0  0  0  0  0  0  0
    4.7890   -2.0820   29.2210 N   0  0  0  0  0  0  0  0  0  0  0  0
    3.7980   -2.5160   30.0930 C   0  0  0  0  0  0  0  0  0  0  0  0
    2.6990   -3.1900   29.5890 C   0  0  0  0  0  0  0  0  0  0  0  0
    2.6890   -3.3920   28.0830 C   0  0  0  0  0  0  0  0  0  0  0  0
    3.7190   -2.9190   27.3230 N   0  0  0  0  0  0  0  0  0  0  0  0
    5.7860   -0.3860   26.5750 C   0  0  0  0  0  0  0  0  0  0  0  0
    5.9460    0.8030   27.4710 C   0  0  0  0  0  0  0  0  0  0  0  0
    5.8500    0.6410   28.7320 O   0  0  0  0  0  0  0  0  0  0  0  0
    6.6860   -0.3470   29.2720 C   0  0  0  0  0  0  0  0  0  0  0  0
    6.9580   -1.4530   28.2380 C   0  0  0  0  0  0  0  0  0  0  0  0
    6.2350   -5.1020   23.7490 C   0  0  0  0  0  0  0  0  0  0  0  0
    6.7060   -5.3900   22.4720 C   0  0  0  0  0  0  0  0  0  0  0  0
  1  2  1  0
  2  3  2  0
  2  4  1  0
  4  5  1  0
  5  6  1  0
  6  7  1  0
  7  8  1  0
  8  9  2  0
  8 10  1  0
 11 10  1  0
 11 12  1  0
 12 13  2  0
 13 14  1  0
 14 15  2  0
 15 16  1  0
 12 17  1  0
 16 17  2  0
 11 18  1  0
 18 19  1  0
 19 20  1  0
 20 21  1  0
 11 22  1  0
 21 22  1  0
  7 23  1  0
  4 24  1  0
 23 24  1  0
M  END
