piperidine-amides-27988-covalent
     RDKit          3D

 26 28  0  0  0  0  0  0  0  0999 V2000
    7.0530   -3.3670   19.3230 C   0  0  0  0  0  0  0  0  0  0  0  0
    6.4090   -4.2200   20.3470 C   0  0  0  0  0  0  0  0  0  0  0  0
    5.3890   -4.8400   19.9830 O   0  0  0  0  0  0  0  0  0  0  0  0
    6.9560   -4.3510   21.6370 N   0  0  0  0  0  0  0  0  0  0  0  0
    6.5950   -5.4300   22.4860 C   0  0  0  0  0  0  0  0  0  0  0  0
    6.2050   -5.0620   23.8650 C   0  0  0  0  0  0  0  0  0  0  0  0
    6.4760   -3.6750   24.3540 C   0  0  0  0  0  0  0  0  0  0  0  0
    5.3560   -3.2540   25.2500 C   0  0  0  0  0  0  0  0  0  0  0  0
    4.3810   -2.7190   24.7060 O   0  0  0  0  0  0  0  0  0  0  0  0
    5.3300   -3.4310   26.6570 N   0  0  0  0  0  0  0  0  0  0  0  0
    4.2180   -4.0250   27.3770 C   0  0  0  0  0  0  0  0  0  0  0  0
    4.7670   -4.9010   28.4380 C   0  0  0  0  0  0  0  0  0  0  0  0
    5.7560   -4.3650   29.3530 C   0  0  0  0  0  0  0  0  0  0  0  0
    5.4650   -3.2320   29.8720 O   0  0  0  0  0  0  0  0  0  0  0  0
    4.1640   -3.0920   30.3730 C   0  0  0  0  0  0  0  0  0  0  0  0
    3.1010   -3.9830   30.4130 C   0  0  0  0  0  0  0  0  0  0  0  0
    1.9140   -3.5690   30.9760 C   0  0  0  0  0  0  0  0  0  0  0  0
    1.7780   -2.3030   31.4880 C   0  0  0  0  0  0  0  0  0  0  0  0
    0.6600   -1.7740   32.0680 C   0  0  0  0  0  0  0  0  0  0  0  0
    2.8300   -1.4080   31.4560 C   0  0  0  0  0  0  0  0  0  0  0  0
    2.6550   -0.0480   32.0180 C   0  0  0  0  0  0  0  0  0  0  0  0
    3.9990   -1.8390   30.8930 C   0  0  0  0  0  0  0  0  0  0  0  0
    6.6660   -4.3130   28.3290 C   0  0  0  0  0  0  0  0  0  0  0  0
    6.4560   -3.1870   27.4690 C   0  0  0  0  0  0  0  0  0  0  0  0
    6.8850   -2.7160   23.3260 C   0  0  0  0  0  0  0  0  0  0  0  0
    7.7400   -3.3060   22.2690 C   0  0  0  0  0  0  0  0  0  0  0  0
  1  2  1  0
  2  3  2  0
  2  4  1  0
  4  5  1  0
  5  6  1  0
  6  7  1  0
  7  8  1  0
  8  9  2  0
  8 10  1  0
 10 11  1  0
 11 12  1  0
 12 13  1  0
 13 14  1  0
 14 15  1  0
 15 16  2  0
 16 17  1  0
 17 18  2  0
 18 19  1  0
 18 20  1  0
 20 21  1  0
 15 22  1  0
 20 22  2  0
 13 23  1  0
 10 24  1  0
 23 24  1  0
  7 25  1  0
  4 26  1  0
 25 26  1  0
M  END
