piperidine-amides-14966-covalent
     RDKit          3D

 21 22  0  0  0  0  0  0  0  0999 V2000
    7.0980   -3.2800   19.2130 C   0  0  0  0  0  0  0  0  0  0  0  0
    6.3800   -4.0520   20.2260 C   0  0  0  0  0  0  0  0  0  0  0  0
    5.3080   -4.5910   19.8970 O   0  0  0  0  0  0  0  0  0  0  0  0
    6.9150   -4.2190   21.5260 N   0  0  0  0  0  0  0  0  0  0  0  0
    7.7600   -3.1960   22.0880 C   0  0  0  0  0  0  0  0  0  0  0  0
    7.1130   -2.6130   23.2990 C   0  0  0  0  0  0  0  0  0  0  0  0
    6.7500   -3.7640   24.2030 C   0  0  0  0  0  0  0  0  0  0  0  0
    5.8720   -3.2290   25.2780 C   0  0  0  0  0  0  0  0  0  0  0  0
    4.6990   -3.6000   25.2810 O   0  0  0  0  0  0  0  0  0  0  0  0
    6.4390   -2.3460   26.1890 N   0  0  0  0  0  0  0  0  0  0  0  0
    5.7800   -2.0770   27.4140 C   0  0  0  0  0  0  0  0  0  0  0  0
    5.6690   -0.7370   27.8010 C   0  0  0  0  0  0  0  0  0  0  0  0
    4.8560    0.2360   27.0470 N   0  0  0  0  0  0  0  0  0  0  0  0
    5.0700    1.3140   27.7880 N   0  0  0  0  0  0  0  0  0  0  0  0
    5.9200    1.1810   28.9440 C   0  0  0  0  0  0  0  0  0  0  0  0
    6.2830   -0.1040   28.9310 N   0  0  0  0  0  0  0  0  0  0  0  0
    7.1490   -0.6780   29.9200 C   0  0  0  0  0  0  0  0  0  0  0  0
    7.7310    0.3090   30.8810 C   0  0  0  0  0  0  0  0  0  0  0  0
    8.0370   -1.4660   29.2340 C   0  0  0  0  0  0  0  0  0  0  0  0
    5.9710   -4.8710   23.5680 C   0  0  0  0  0  0  0  0  0  0  0  0
    6.4720   -5.3570   22.2420 C   0  0  0  0  0  0  0  0  0  0  0  0
  1  2  1  0
  2  3  2  0
  2  4  1  0
  4  5  1  0
  5  6  1  0
  6  7  1  0
  7  8  1  0
  8  9  2  0
  8 10  1  0
 10 11  1  0
 11 12  1  0
 12 13  2  0
 13 14  1  0
 14 15  2  0
 12 16  1  0
 15 16  1  0
 16 17  1  0
 17 18  1  0
 17 19  1  0
  7 20  1  0
  4 21  1  0
 20 21  1  0
M  END
