piperidine-amides-13650-covalent
     RDKit          3D

 28 29  0  0  0  0  0  0  0  0999 V2000
    7.0580   -3.3260   19.3440 C   0  0  0  0  0  0  0  0  0  0  0  0
    6.3600   -4.1750   20.3510 C   0  0  0  0  0  0  0  0  0  0  0  0
    5.3880   -4.8570   19.9860 O   0  0  0  0  0  0  0  0  0  0  0  0
    6.8480   -4.2080   21.6770 N   0  0  0  0  0  0  0  0  0  0  0  0
    7.7270   -3.1630   22.1740 C   0  0  0  0  0  0  0  0  0  0  0  0
    7.5320   -3.0600   23.6860 C   0  0  0  0  0  0  0  0  0  0  0  0
    6.1790   -3.5960   23.9610 C   0  0  0  0  0  0  0  0  0  0  0  0
    5.7010   -3.2810   25.3260 C   0  0  0  0  0  0  0  0  0  0  0  0
    4.5030   -3.4770   25.5520 O   0  0  0  0  0  0  0  0  0  0  0  0
    6.5920   -2.7700   26.2680 N   0  0  0  0  0  0  0  0  0  0  0  0
    6.4420   -1.5390   26.9570 C   0  0  0  0  0  0  0  0  0  0  0  0
    5.9030   -0.4170   26.3830 C   0  0  0  0  0  0  0  0  0  0  0  0
    5.7440    0.7990   27.0570 C   0  0  0  0  0  0  0  0  0  0  0  0
    6.1150    0.9860   28.3670 C   0  0  0  0  0  0  0  0  0  0  0  0
    6.0610    2.0180   29.2010 O   0  0  0  0  0  0  0  0  0  0  0  0
    5.8100    3.1420   28.5630 C   0  0  0  0  0  0  0  0  0  0  0  0
    4.3450    3.5580   28.7960 C   0  0  0  0  0  0  0  0  0  0  0  0
    3.5440    3.0010   27.7840 F   0  0  0  0  0  0  0  0  0  0  0  0
    3.8540    3.0900   30.0330 F   0  0  0  0  0  0  0  0  0  0  0  0
    4.2030    4.9070   28.7540 F   0  0  0  0  0  0  0  0  0  0  0  0
    6.6700   -0.0760   29.0410 C   0  0  0  0  0  0  0  0  0  0  0  0
    7.0900   -0.0510   30.3510 C   0  0  0  0  0  0  0  0  0  0  0  0
    7.4390    1.2240   30.7430 F   0  0  0  0  0  0  0  0  0  0  0  0
    8.1620   -0.8870   30.5260 F   0  0  0  0  0  0  0  0  0  0  0  0
    6.0660   -0.4820   31.2060 F   0  0  0  0  0  0  0  0  0  0  0  0
    6.8540   -1.3780   28.3530 C   0  0  0  0  0  0  0  0  0  0  0  0
    6.0360   -5.0590   23.6820 C   0  0  0  0  0  0  0  0  0  0  0  0
    6.6580   -5.3770   22.4980 C   0  0  0  0  0  0  0  0  0  0  0  0
  1  2  1  0
  2  3  2  0
  2  4  1  0
  4  5  1  0
  5  6  1  0
  6  7  1  0
  7  8  1  0
  8  9  2  0
  8 10  1  0
 10 11  1  0
 11 12  2  0
 12 13  1  0
 13 14  2  0
 14 15  1  0
 15 16  1  0
 16 17  1  0
 17 18  1  0
 17 19  1  0
 17 20  1  0
 14 21  1  0
 21 22  1  0
 22 23  1  0
 22 24  1  0
 22 25  1  0
 11 26  1  0
 21 26  2  0
  7 27  1  0
  4 28  1  0
 27 28  1  0
M  END
