piperidine-amides-28739-covalent
     RDKit          3D

 26 28  0  0  0  0  0  0  0  0999 V2000
    7.0830   -3.3540   19.3220 C   0  0  0  0  0  0  0  0  0  0  0  0
    6.4360   -4.2120   20.3050 C   0  0  0  0  0  0  0  0  0  0  0  0
    5.3900   -4.7980   19.9750 O   0  0  0  0  0  0  0  0  0  0  0  0
    7.0460   -4.4030   21.5710 N   0  0  0  0  0  0  0  0  0  0  0  0
    6.6580   -5.5290   22.3560 C   0  0  0  0  0  0  0  0  0  0  0  0
    5.8480   -5.0470   23.5270 C   0  0  0  0  0  0  0  0  0  0  0  0
    6.6480   -3.9820   24.2660 C   0  0  0  0  0  0  0  0  0  0  0  0
    5.9130   -3.5460   25.4890 C   0  0  0  0  0  0  0  0  0  0  0  0
    4.8850   -2.8970   25.3120 O   0  0  0  0  0  0  0  0  0  0  0  0
    6.4390   -3.9050   26.7140 N   0  0  0  0  0  0  0  0  0  0  0  0
    7.0580   -5.1560   26.8890 C   0  0  0  0  0  0  0  0  0  0  0  0
    7.0130   -5.3540   28.2500 C   0  0  0  0  0  0  0  0  0  0  0  0
    6.1260   -4.4230   28.7610 C   0  0  0  0  0  0  0  0  0  0  0  0
    5.7700   -3.3770   27.9020 C   0  0  2  0  0  0  0  0  0  0  0  0
    4.2940   -3.6100   27.8060 C   0  0  0  0  0  0  0  0  0  0  0  0
    6.2580   -2.1540   28.2770 C   0  0  0  0  0  0  0  0  0  0  0  0
    5.4060   -1.1210   28.9080 C   0  0  0  0  0  0  0  0  0  0  0  0
    4.8190   -1.5190   30.2200 C   0  0  0  0  0  0  0  0  0  0  0  0
    3.9400   -0.4060   30.8340 C   0  0  0  0  0  0  0  0  0  0  0  0
    3.7220    0.8200   30.2340 C   0  0  0  0  0  0  0  0  0  0  0  0
    2.8850    1.6330   31.0050 F   0  0  0  0  0  0  0  0  0  0  0  0
    4.2750    1.1740   29.0150 C   0  0  0  0  0  0  0  0  0  0  0  0
    4.0640    2.3780   28.4200 F   0  0  0  0  0  0  0  0  0  0  0  0
    5.1450    0.1210   28.3710 C   0  0  0  0  0  0  0  0  0  0  0  0
    6.8820   -2.7960   23.3330 C   0  0  0  0  0  0  0  0  0  0  0  0
    7.7340   -3.3330   22.2170 C   0  0  0  0  0  0  0  0  0  0  0  0
  1  2  1  0
  2  3  2  0
  2  4  1  0
  4  5  1  0
  5  6  1  0
  6  7  1  0
  7  8  1  0
  8  9  2  0
  8 10  1  0
 10 11  1  0
 11 12  1  0
 12 13  1  0
 10 14  1  0
 13 14  1  0
 14 15  1  6
 14 16  1  0
 16 17  1  0
 17 18  2  0
 18 19  1  0
 19 20  2  0
 20 21  1  0
 20 22  1  0
 22 23  1  0
 17 24  1  0
 22 24  2  0
  7 25  1  0
  4 26  1  0
 25 26  1  0
M  END
