piperidine-amides-2659-covalent
     RDKit          3D

 25 27  0  0  0  0  0  0  0  0999 V2000
    7.0260   -3.3360   19.3800 C   0  0  0  0  0  0  0  0  0  0  0  0
    6.3760   -4.2090   20.3940 C   0  0  0  0  0  0  0  0  0  0  0  0
    5.4350   -4.8980   19.9970 O   0  0  0  0  0  0  0  0  0  0  0  0
    6.8540   -4.2550   21.7160 N   0  0  0  0  0  0  0  0  0  0  0  0
    6.6740   -5.4230   22.5520 C   0  0  0  0  0  0  0  0  0  0  0  0
    5.9870   -5.0400   23.8420 C   0  0  0  0  0  0  0  0  0  0  0  0
    6.0540   -3.5220   24.0230 C   0  0  0  0  0  0  0  0  0  0  0  0
    5.5330   -3.1650   25.3700 C   0  0  0  0  0  0  0  0  0  0  0  0
    4.3070   -3.1170   25.5120 O   0  0  0  0  0  0  0  0  0  0  0  0
    6.3490   -2.8830   26.4920 N   0  0  0  0  0  0  0  0  0  0  0  0
    6.7380   -1.5120   26.8090 C   0  0  1  0  0  0  0  0  0  0  0  0
    5.6440   -0.6030   26.4130 C   0  0  0  0  0  0  0  0  0  0  0  0
    5.5140    0.1580   27.4450 C   0  0  0  0  0  0  0  0  0  0  0  0
    6.2520   -0.3350   28.5330 N   0  0  0  0  0  0  0  0  0  0  0  0
    5.6760   -0.4000   29.8590 C   0  0  0  0  0  0  0  0  0  0  0  0
    4.7610   -1.3470   30.1730 C   0  0  0  0  0  0  0  0  0  0  0  0
    4.1010   -1.5050   31.5290 C   0  0  0  0  0  0  0  0  0  0  0  0
    4.5800   -0.4690   32.5210 C   0  0  0  0  0  0  0  0  0  0  0  0
    5.6080    0.5770   32.1280 C   0  0  0  0  0  0  0  0  0  0  0  0
    6.1310    0.5540   30.7360 C   0  0  0  0  0  0  0  0  0  0  0  0
    7.0590    1.4680   30.3130 F   0  0  0  0  0  0  0  0  0  0  0  0
    7.2920   -1.3640   28.2330 C   0  0  0  0  0  0  0  0  0  0  0  0
    7.5580   -1.0590   29.4450 O   0  0  0  0  0  0  0  0  0  0  0  0
    7.3380   -2.9100   23.6320 C   0  0  0  0  0  0  0  0  0  0  0  0
    7.7270   -3.2010   22.2270 C   0  0  0  0  0  0  0  0  0  0  0  0
  1  2  1  0
  2  3  2  0
  2  4  1  0
  4  5  1  0
  5  6  1  0
  6  7  1  0
  7  8  1  0
  8  9  2  0
  8 10  1  0
 11 10  1  1
 11 12  1  0
 12 13  1  0
 13 14  1  0
 14 15  1  0
 15 16  2  0
 16 17  1  0
 17 18  2  0
 18 19  1  0
 15 20  1  0
 19 20  2  0
 20 21  1  0
 11 22  1  0
 14 22  1  0
 22 23  2  0
  7 24  1  0
  4 25  1  0
 24 25  1  0
M  END
