piperidine-amides-13867-covalent
     RDKit          3D

 26 28  0  0  0  0  0  0  0  0999 V2000
    7.0740   -3.2820   19.2740 C   0  0  0  0  0  0  0  0  0  0  0  0
    6.3390   -4.0870   20.2900 C   0  0  0  0  0  0  0  0  0  0  0  0
    5.3250   -4.7160   19.9420 O   0  0  0  0  0  0  0  0  0  0  0  0
    6.8340   -4.1540   21.6110 N   0  0  0  0  0  0  0  0  0  0  0  0
    7.7100   -3.1320   22.1630 C   0  0  0  0  0  0  0  0  0  0  0  0
    7.4660   -3.0000   23.6760 C   0  0  0  0  0  0  0  0  0  0  0  0
    6.1190   -3.5680   23.9620 C   0  0  0  0  0  0  0  0  0  0  0  0
    5.5990   -3.2980   25.3240 C   0  0  0  0  0  0  0  0  0  0  0  0
    4.3690   -3.2100   25.4230 O   0  0  0  0  0  0  0  0  0  0  0  0
    6.4560   -3.1500   26.4150 N   0  0  0  0  0  0  0  0  0  0  0  0
    6.1910   -3.5010   27.7710 C   0  0  0  0  0  0  0  0  0  0  0  0
    6.2490   -4.7720   28.3040 C   0  0  0  0  0  0  0  0  0  0  0  0
    5.3380   -5.1690   29.2910 C   0  0  0  0  0  0  0  0  0  0  0  0
    4.0330   -4.7740   29.3680 C   0  0  0  0  0  0  0  0  0  0  0  0
    3.4010   -5.3680   30.5220 C   0  0  0  0  0  0  0  0  0  0  0  0
    4.4820   -6.0950   31.0250 N   0  0  0  0  0  0  0  0  0  0  0  0
    4.4890   -6.9120   32.2090 C   0  0  0  0  0  0  0  0  0  0  0  0
    5.5600   -7.9400   32.4040 C   0  0  0  0  0  0  0  0  0  0  0  0
    5.5860   -8.7210   33.5200 C   0  0  0  0  0  0  0  0  0  0  0  0
    4.6460   -8.7260   34.6810 C   0  0  0  0  0  0  0  0  0  0  0  0
    4.6970   -9.5140   35.7800 F   0  0  0  0  0  0  0  0  0  0  0  0
    3.5940   -7.6320   34.3610 C   0  0  0  0  0  0  0  0  0  0  0  0
    3.4800   -6.7900   33.2640 C   0  0  0  0  0  0  0  0  0  0  0  0
    5.6460   -6.0180   30.3330 N   0  0  0  0  0  0  0  0  0  0  0  0
    6.0380   -5.0370   23.7140 C   0  0  0  0  0  0  0  0  0  0  0  0
    6.6570   -5.3770   22.3820 C   0  0  0  0  0  0  0  0  0  0  0  0
  1  2  1  0
  2  3  2  0
  2  4  1  0
  4  5  1  0
  5  6  1  0
  6  7  1  0
  7  8  1  0
  8  9  2  0
  8 10  1  0
 10 11  1  0
 11 12  1  0
 12 13  1  0
 13 14  1  0
 14 15  2  0
 15 16  1  0
 16 17  1  0
 17 18  2  0
 18 19  1  0
 19 20  2  0
 20 21  1  0
 20 22  1  0
 17 23  1  0
 22 23  2  0
 13 24  2  0
 16 24  1  0
  7 25  1  0
  4 26  1  0
 25 26  1  0
M  END
