piperidine-amides-5438-covalent
     RDKit          3D

 20 21  0  0  0  0  0  0  0  0999 V2000
    7.0420   -3.3370   19.3290 C   0  0  0  0  0  0  0  0  0  0  0  0
    6.3580   -4.1430   20.3400 C   0  0  0  0  0  0  0  0  0  0  0  0
    5.4020   -4.8570   19.9900 O   0  0  0  0  0  0  0  0  0  0  0  0
    6.7930   -4.1530   21.6810 N   0  0  0  0  0  0  0  0  0  0  0  0
    7.7160   -3.1460   22.1680 C   0  0  0  0  0  0  0  0  0  0  0  0
    7.4540   -3.0280   23.6320 C   0  0  0  0  0  0  0  0  0  0  0  0
    6.1030   -3.5670   23.9500 C   0  0  0  0  0  0  0  0  0  0  0  0
    5.6420   -3.2230   25.3180 C   0  0  0  0  0  0  0  0  0  0  0  0
    4.4090   -3.2360   25.5960 O   0  0  0  0  0  0  0  0  0  0  0  0
    6.5300   -2.8730   26.3600 N   0  0  0  0  0  0  0  0  0  0  0  0
    6.4340   -1.5750   27.0650 C   0  0  0  0  0  0  0  0  0  0  0  0
    7.0560   -1.6210   28.4010 C   0  0  0  0  0  0  0  0  0  0  0  0
    7.0200   -0.4460   29.1600 C   0  0  0  0  0  0  0  0  0  0  0  0
    7.6300   -0.3830   30.5370 C   0  0  0  0  0  0  0  0  0  0  0  0
    6.3920    0.7220   28.6190 C   0  0  0  0  0  0  0  0  0  0  0  0
    5.7880    0.7020   27.2780 N   0  0  0  0  0  0  0  0  0  0  0  0
    5.7210   -0.4470   26.3010 C   0  0  0  0  0  0  0  0  0  0  0  0
    4.9440    0.9730   25.6070 Cl  0  0  0  0  0  0  0  0  0  0  0  0
    6.0900   -5.0620   23.6960 C   0  0  0  0  0  0  0  0  0  0  0  0
    6.6400   -5.3850   22.4360 C   0  0  0  0  0  0  0  0  0  0  0  0
  1  2  1  0
  2  3  2  0
  2  4  1  0
  4  5  1  0
  5  6  1  0
  6  7  1  0
  7  8  1  0
  8  9  2  0
  8 10  1  0
 10 11  1  0
 11 12  2  0
 12 13  1  0
 13 14  1  0
 13 15  2  0
 15 16  1  0
 11 17  1  0
 16 17  2  0
 17 18  1  0
  7 19  1  0
  4 20  1  0
 19 20  1  0
M  END
