piperidine-amides-10582-covalent
     RDKit          3D

 23 25  0  0  0  0  0  0  0  0999 V2000
    7.1700   -3.2920   19.1920 C   0  0  0  0  0  0  0  0  0  0  0  0
    6.3880   -4.0020   20.1990 C   0  0  0  0  0  0  0  0  0  0  0  0
    5.2670   -4.4520   19.8470 O   0  0  0  0  0  0  0  0  0  0  0  0
    6.9380   -4.1990   21.4590 N   0  0  0  0  0  0  0  0  0  0  0  0
    7.7760   -3.2070   22.0830 C   0  0  0  0  0  0  0  0  0  0  0  0
    7.0420   -2.6830   23.2670 C   0  0  0  0  0  0  0  0  0  0  0  0
    6.4710   -3.8010   24.0870 C   0  0  0  0  0  0  0  0  0  0  0  0
    5.7510   -3.2310   25.2260 C   0  0  0  0  0  0  0  0  0  0  0  0
    4.5630   -2.8820   25.0640 O   0  0  0  0  0  0  0  0  0  0  0  0
    6.3380   -3.0770   26.4800 N   0  0  0  0  0  0  0  0  0  0  0  0
    6.0430   -4.0630   27.4690 C   0  0  0  0  0  0  0  0  0  0  0  0
    6.5900   -3.7460   28.8360 C   0  0  0  0  0  0  0  0  0  0  0  0
    6.4910   -2.2770   29.1130 N   0  0  0  0  0  0  0  0  0  0  0  0
    7.5060   -1.4430   29.2490 C   0  0  0  0  0  0  0  0  0  0  0  0
    7.1650   -0.1960   29.4850 N   0  0  0  0  0  0  0  0  0  0  0  0
    5.8220   -0.1730   29.5240 C   0  0  0  0  0  0  0  0  0  0  0  0
    5.3950   -1.4870   29.2880 C   0  0  0  0  0  0  0  0  0  0  0  0
    4.0640   -1.8360   29.2560 C   0  0  0  0  0  0  0  0  0  0  0  0
    3.2600   -0.7010   29.1820 C   0  0  0  0  0  0  0  0  0  0  0  0
    3.5800    0.4040   30.1830 C   0  0  0  0  0  0  0  0  0  0  0  0
    4.9730    0.8830   29.7470 C   0  0  0  0  0  0  0  0  0  0  0  0
    5.5620   -4.7380   23.2760 C   0  0  0  0  0  0  0  0  0  0  0  0
    6.5100   -5.3340   22.2600 C   0  0  0  0  0  0  0  0  0  0  0  0
  1  2  1  0
  2  3  2  0
  2  4  1  0
  4  5  1  0
  5  6  1  0
  6  7  1  0
  7  8  1  0
  8  9  2  0
  8 10  1  0
 10 11  1  0
 11 12  1  0
 12 13  1  0
 13 14  1  0
 14 15  2  0
 15 16  1  0
 13 17  1  0
 16 17  2  0
 17 18  1  0
 18 19  1  0
 19 20  1  0
 16 21  1  0
 20 21  1  0
  7 22  1  0
  4 23  1  0
 22 23  1  0
M  END
