piperidine-amides-32719-covalent
     RDKit          3D

 23 25  0  0  0  0  0  0  0  0999 V2000
    7.0410   -3.3730   19.3910 C   0  0  0  0  0  0  0  0  0  0  0  0
    6.3280   -4.2380   20.3700 C   0  0  0  0  0  0  0  0  0  0  0  0
    5.3350   -4.8760   19.9820 O   0  0  0  0  0  0  0  0  0  0  0  0
    6.8100   -4.3640   21.6960 N   0  0  0  0  0  0  0  0  0  0  0  0
    6.7130   -5.6140   22.4210 C   0  0  0  0  0  0  0  0  0  0  0  0
    6.2600   -5.3260   23.8630 C   0  0  0  0  0  0  0  0  0  0  0  0
    6.1170   -3.8530   23.9880 C   0  0  0  0  0  0  0  0  0  0  0  0
    5.4720   -3.3450   25.2310 C   0  0  0  0  0  0  0  0  0  0  0  0
    4.7020   -2.3990   25.0560 O   0  0  0  0  0  0  0  0  0  0  0  0
    5.6790   -3.8750   26.5140 N   0  0  0  0  0  0  0  0  0  0  0  0
    4.7200   -4.6750   27.1770 C   0  0  0  0  0  0  0  0  0  0  0  0
    4.6120   -4.6720   28.5470 C   0  0  0  0  0  0  0  0  0  0  0  0
    5.6480   -4.0550   29.2140 C   0  0  0  0  0  0  0  0  0  0  0  0
    5.3190   -2.8510   29.7950 C   0  0  0  0  0  0  0  0  0  0  0  0
    6.0590   -1.6840   29.7910 N   0  0  0  0  0  0  0  0  0  0  0  0
    5.5460   -0.6260   30.4210 C   0  0  0  0  0  0  0  0  0  0  0  0
    4.2080   -0.8790   31.0520 C   0  0  0  0  0  0  0  0  0  0  0  0
    3.2890    0.4780   31.9980 Br  0  0  0  0  0  0  0  0  0  0  0  0
    3.7890   -2.5520   30.7160 S   0  0  0  0  0  0  0  0  0  0  0  0
    6.7260   -3.9260   28.4130 C   0  0  0  0  0  0  0  0  0  0  0  0
    6.4590   -3.0700   27.3560 C   0  0  0  0  0  0  0  0  0  0  0  0
    7.3650   -3.1060   23.6980 C   0  0  0  0  0  0  0  0  0  0  0  0
    7.6710   -3.3100   22.2300 C   0  0  0  0  0  0  0  0  0  0  0  0
  1  2  1  0
  2  3  2  0
  2  4  1  0
  4  5  1  0
  5  6  1  0
  6  7  1  0
  7  8  1  0
  8  9  2  0
  8 10  1  0
 10 11  1  0
 11 12  1  0
 12 13  1  0
 13 14  1  0
 14 15  2  0
 15 16  1  0
 16 17  2  0
 17 18  1  0
 14 19  1  0
 17 19  1  0
 13 20  1  0
 10 21  1  0
 20 21  1  0
  7 22  1  0
  4 23  1  0
 22 23  1  0
M  END
