piperidine-amides-33458-covalent
     RDKit          3D

 28 30  0  0  0  0  0  0  0  0999 V2000
    7.1080   -3.3580   19.3870 C   0  0  0  0  0  0  0  0  0  0  0  0
    6.4020   -4.1690   20.3900 C   0  0  0  0  0  0  0  0  0  0  0  0
    5.3910   -4.7980   19.9820 O   0  0  0  0  0  0  0  0  0  0  0  0
    6.8770   -4.2820   21.7290 N   0  0  0  0  0  0  0  0  0  0  0  0
    7.6990   -3.2440   22.2660 C   0  0  0  0  0  0  0  0  0  0  0  0
    7.3150   -2.9260   23.6200 C   0  0  0  0  0  0  0  0  0  0  0  0
    6.0600   -3.6170   23.9270 C   0  0  0  0  0  0  0  0  0  0  0  0
    5.3830   -3.1440   25.1890 C   0  0  0  0  0  0  0  0  0  0  0  0
    4.2140   -2.7350   25.0790 O   0  0  0  0  0  0  0  0  0  0  0  0
    5.9440   -3.1350   26.4870 N   0  0  0  0  0  0  0  0  0  0  0  0
    5.6130   -4.1860   27.4200 C   0  0  0  0  0  0  0  0  0  0  0  0
    5.7560   -5.6410   27.1580 C   0  0  0  0  0  0  0  0  0  0  0  0
    5.0370   -6.6630   27.6250 N   0  0  0  0  0  0  0  0  0  0  0  0
    4.1750   -6.1430   28.4230 N   0  0  0  0  0  0  0  0  0  0  0  0
    3.5420   -7.1490   29.0490 C   0  0  0  0  0  0  0  0  0  0  0  0
    4.9780   -5.2950   29.0940 C   0  0  0  0  0  0  0  0  0  0  0  0
    5.8630   -5.6780   30.0800 O   0  0  0  0  0  0  0  0  0  0  0  0
    4.9850   -3.7910   28.8140 C   0  0  0  0  0  0  0  0  0  0  0  0
    4.4990   -2.3670   29.7270 Cl  0  0  0  0  0  0  0  0  0  0  0  0
    6.4580   -1.8680   27.0460 C   0  0  2  0  0  0  0  0  0  0  0  0
    6.7670   -2.0220   28.5360 C   0  0  0  0  0  0  0  0  0  0  0  0
    7.1050   -0.7710   29.3030 C   0  0  0  0  0  0  0  0  0  0  0  0
    6.3870    0.4010   28.6470 C   0  0  0  0  0  0  0  0  0  0  0  0
    6.1060    0.3040   27.2560 N   0  0  0  0  0  0  0  0  0  0  0  0
    6.1310    1.3600   26.4390 C   0  0  0  0  0  0  0  0  0  0  0  0
    5.5340   -0.8780   26.7200 C   0  0  0  0  0  0  0  0  0  0  0  0
    6.1480   -5.1090   23.8000 C   0  0  0  0  0  0  0  0  0  0  0  0
    6.5940   -5.4610   22.5150 C   0  0  0  0  0  0  0  0  0  0  0  0
  1  2  1  0
  2  3  2  0
  2  4  1  0
  4  5  1  0
  5  6  1  0
  6  7  1  0
  7  8  1  0
  8  9  2  0
  8 10  1  0
 10 11  1  0
 11 12  1  0
 12 13  2  0
 13 14  1  0
 14 15  1  0
 14 16  1  0
 16 17  2  0
 11 18  2  0
 16 18  1  0
 18 19  1  0
 20 10  1  1
 20 21  1  0
 21 22  1  0
 22 23  1  0
 23 24  1  0
 24 25  1  0
 20 26  1  0
 24 26  1  0
  7 27  1  0
  4 28  1  0
 27 28  1  0
M  END
