piperidine-amides-14980-covalent
     RDKit          3D

 21 22  0  0  0  0  0  0  0  0999 V2000
    7.0730   -3.2890   19.3060 C   0  0  0  0  0  0  0  0  0  0  0  0
    6.3520   -4.0710   20.3120 C   0  0  0  0  0  0  0  0  0  0  0  0
    5.3400   -4.6980   19.9440 O   0  0  0  0  0  0  0  0  0  0  0  0
    6.8210   -4.1410   21.6550 N   0  0  0  0  0  0  0  0  0  0  0  0
    7.7050   -3.1110   22.1640 C   0  0  0  0  0  0  0  0  0  0  0  0
    7.4420   -2.8530   23.6190 C   0  0  0  0  0  0  0  0  0  0  0  0
    6.1000   -3.4740   23.9010 C   0  0  0  0  0  0  0  0  0  0  0  0
    5.6390   -3.2090   25.3050 C   0  0  0  0  0  0  0  0  0  0  0  0
    4.4470   -3.4290   25.5160 O   0  0  0  0  0  0  0  0  0  0  0  0
    6.5420   -2.7430   26.2600 N   0  0  0  0  0  0  0  0  0  0  0  0
    6.9070   -1.3670   26.4160 C   0  0  0  0  0  0  0  0  0  0  0  0
    5.8710   -0.4880   26.7870 C   0  0  2  0  0  0  0  0  0  0  0  0
    5.4850    0.5040   25.9150 C   0  0  0  0  0  0  0  0  0  0  0  0
    6.0040    1.7950   25.9910 C   0  0  0  0  0  0  0  0  0  0  0  0
    5.5080    2.2830   27.3190 C   0  0  0  0  0  0  0  0  0  0  0  0
    5.7760    1.2920   28.4670 C   0  0  0  0  0  0  0  0  0  0  0  0
    6.3270    0.0550   28.0910 N   0  0  0  0  0  0  0  0  0  0  0  0
    7.7170   -0.0440   28.4390 C   0  0  0  0  0  0  0  0  0  0  0  0
    7.8380   -1.2010   29.3910 C   0  0  0  0  0  0  0  0  0  0  0  0
    6.0240   -4.9190   23.6540 C   0  0  0  0  0  0  0  0  0  0  0  0
    6.6070   -5.3210   22.4710 C   0  0  0  0  0  0  0  0  0  0  0  0
  1  2  1  0
  2  3  2  0
  2  4  1  0
  4  5  1  0
  5  6  1  0
  6  7  1  0
  7  8  1  0
  8  9  2  0
  8 10  1  0
 10 11  1  0
 12 11  1  6
 12 13  1  0
 13 14  1  0
 14 15  1  0
 15 16  1  0
 12 17  1  0
 16 17  1  0
 17 18  1  0
 18 19  1  0
  7 20  1  0
  4 21  1  0
 20 21  1  0
M  END
