piperidine-amides-11658-covalent
     RDKit          3D

 30 32  0  0  0  0  0  0  0  0999 V2000
    7.0140   -3.3580   19.3500 C   0  0  0  0  0  0  0  0  0  0  0  0
    6.3410   -4.1920   20.3440 C   0  0  0  0  0  0  0  0  0  0  0  0
    5.3840   -4.8810   19.9920 O   0  0  0  0  0  0  0  0  0  0  0  0
    6.8040   -4.2490   21.7080 N   0  0  0  0  0  0  0  0  0  0  0  0
    7.6640   -3.2070   22.2320 C   0  0  0  0  0  0  0  0  0  0  0  0
    7.4550   -3.0110   23.7110 C   0  0  0  0  0  0  0  0  0  0  0  0
    6.1240   -3.6480   24.0550 C   0  0  0  0  0  0  0  0  0  0  0  0
    5.6150   -3.2750   25.4140 C   0  0  0  0  0  0  0  0  0  0  0  0
    4.3950   -3.2830   25.6590 O   0  0  0  0  0  0  0  0  0  0  0  0
    6.4940   -2.8940   26.4610 N   0  0  0  0  0  0  0  0  0  0  0  0
    6.3190   -1.5730   27.0420 C   0  0  0  0  0  0  0  0  0  0  0  0
    7.0960   -1.3500   28.3360 C   0  0  0  0  0  0  0  0  0  0  0  0
    7.0620   -0.1380   29.0280 C   0  0  0  0  0  0  0  0  0  0  0  0
    7.8510   -0.0380   30.2070 N   0  0  0  0  0  0  0  0  0  0  0  0
    7.2470    0.8250   31.1870 C   0  0  0  0  0  0  0  0  0  0  0  0
    7.7430    2.1300   31.3600 O   0  0  0  0  0  0  0  0  0  0  0  0
    6.1780    0.3370   31.9200 C   0  0  0  0  0  0  0  0  0  0  0  0
    6.5050    0.8730   33.2350 N   0  0  0  0  0  0  0  0  0  0  0  0
    7.7420    0.3450   33.6420 C   0  0  0  0  0  0  0  0  0  0  0  0
    7.9360   -0.3680   34.8030 C   0  0  0  0  0  0  0  0  0  0  0  0
    6.8150   -0.7160   35.5230 C   0  0  0  0  0  0  0  0  0  0  0  0
    5.5540   -0.3560   35.0510 C   0  0  0  0  0  0  0  0  0  0  0  0
    5.4490    0.8860   34.2600 C   0  0  1  0  0  0  0  0  0  0  0  0
    5.6590    2.0570   34.9700 C   0  0  0  0  0  0  0  0  0  0  0  0
    6.2770    0.9030   28.5240 C   0  0  0  0  0  0  0  0  0  0  0  0
    5.5010    0.7420   27.2810 C   0  0  0  0  0  0  0  0  0  0  0  0
    5.5250   -0.5590   26.5000 C   0  0  0  0  0  0  0  0  0  0  0  0
    4.8330   -0.7560   25.3500 F   0  0  0  0  0  0  0  0  0  0  0  0
    6.1500   -5.1240   23.8040 C   0  0  0  0  0  0  0  0  0  0  0  0
    6.6630   -5.4870   22.4450 C   0  0  0  0  0  0  0  0  0  0  0  0
  1  2  1  0
  2  3  2  0
  2  4  1  0
  4  5  1  0
  5  6  1  0
  6  7  1  0
  7  8  1  0
  8  9  2  0
  8 10  1  0
 10 11  1  0
 11 12  2  0
 12 13  1  0
 13 14  1  0
 14 15  1  0
 15 16  2  0
 15 17  1  0
 17 18  1  0
 18 19  1  0
 19 20  1  0
 20 21  1  0
 21 22  1  0
 18 23  1  0
 22 23  1  0
 23 24  1  1
 13 25  2  0
 25 26  1  0
 11 27  1  0
 26 27  2  0
 27 28  1  0
  7 29  1  0
  4 30  1  0
 29 30  1  0
M  END
