piperidine-amides-21561-covalent
     RDKit          3D

 23 24  0  0  0  0  0  0  0  0999 V2000
    7.0630   -3.2690   19.2020 C   0  0  0  0  0  0  0  0  0  0  0  0
    6.3140   -4.0070   20.2320 C   0  0  0  0  0  0  0  0  0  0  0  0
    5.2420   -4.5510   19.8690 O   0  0  0  0  0  0  0  0  0  0  0  0
    6.8020   -4.1250   21.5310 N   0  0  0  0  0  0  0  0  0  0  0  0
    7.7050   -3.1320   22.0740 C   0  0  0  0  0  0  0  0  0  0  0  0
    7.2530   -2.7580   23.4500 C   0  0  0  0  0  0  0  0  0  0  0  0
    6.8720   -3.9620   24.2690 C   0  0  0  0  0  0  0  0  0  0  0  0
    6.2090   -3.5080   25.5100 C   0  0  0  0  0  0  0  0  0  0  0  0
    4.9540   -3.4590   25.5410 O   0  0  0  0  0  0  0  0  0  0  0  0
    6.9510   -3.1120   26.6480 N   0  0  0  0  0  0  0  0  0  0  0  0
    7.1100   -3.9680   27.7960 C   0  0  0  0  0  0  0  0  0  0  0  0
    8.0350   -5.1500   27.5400 C   0  0  0  0  0  0  0  0  0  0  0  0
    7.5680   -6.3000   27.6880 O   0  0  0  0  0  0  0  0  0  0  0  0
    6.6280   -6.3580   28.6940 C   0  0  0  0  0  0  0  0  0  0  0  0
    7.2670   -1.7390   26.8830 C   0  0  0  0  0  0  0  0  0  0  0  0
    6.8020   -1.2920   28.1100 C   0  0  0  0  0  0  0  0  0  0  0  0
    5.4840   -0.9150   28.3450 C   0  0  0  0  0  0  0  0  0  0  0  0
    4.9750   -0.4580   29.5550 C   0  0  0  0  0  0  0  0  0  0  0  0
    5.8030   -0.3000   30.8180 C   0  0  0  0  0  0  0  0  0  0  0  0
    7.2330   -0.7200   30.5290 C   0  0  0  0  0  0  0  0  0  0  0  0
    7.6610   -1.2010   29.1780 C   0  0  0  0  0  0  0  0  0  0  0  0
    5.9250   -4.8650   23.5170 C   0  0  0  0  0  0  0  0  0  0  0  0
    6.5290   -5.3020   22.3600 C   0  0  0  0  0  0  0  0  0  0  0  0
  1  2  1  0
  2  3  2  0
  2  4  1  0
  4  5  1  0
  5  6  1  0
  6  7  1  0
  7  8  1  0
  8  9  2  0
  8 10  1  0
 10 11  1  0
 11 12  1  0
 12 13  1  0
 13 14  1  0
 10 15  1  0
 15 16  1  0
 16 17  2  0
 17 18  1  0
 18 19  2  0
 19 20  1  0
 16 21  1  0
 20 21  2  0
  7 22  1  0
  4 23  1  0
 22 23  1  0
M  END
