piperidine-amides-30951-covalent
     RDKit          3D

 27 28  0  0  0  0  0  0  0  0999 V2000
    7.0910   -3.3560   19.3390 C   0  0  0  0  0  0  0  0  0  0  0  0
    6.4190   -4.1990   20.3280 C   0  0  0  0  0  0  0  0  0  0  0  0
    5.3960   -4.8180   19.9850 O   0  0  0  0  0  0  0  0  0  0  0  0
    6.9420   -4.3670   21.6260 N   0  0  0  0  0  0  0  0  0  0  0  0
    7.7920   -3.3670   22.2450 C   0  0  0  0  0  0  0  0  0  0  0  0
    6.9330   -2.6960   23.2770 C   0  0  0  0  0  0  0  0  0  0  0  0
    5.9820   -3.6670   23.9010 C   0  0  0  0  0  0  0  0  0  0  0  0
    5.6310   -3.2860   25.2970 C   0  0  0  0  0  0  0  0  0  0  0  0
    4.7120   -2.4390   25.4600 O   0  0  0  0  0  0  0  0  0  0  0  0
    6.2190   -3.7830   26.4820 N   0  0  0  0  0  0  0  0  0  0  0  0
    7.0020   -5.0400   26.3330 C   0  0  0  0  0  0  0  0  0  0  0  0
    7.3900   -5.7410   27.5730 C   0  0  0  0  0  0  0  0  0  0  0  0
    7.1030   -5.1160   28.8430 C   0  0  0  0  0  0  0  0  0  0  0  0
    5.7910   -4.4370   28.8230 C   0  0  0  0  0  0  0  0  0  0  0  0
    5.8010   -3.3340   27.8120 C   0  0  2  0  0  0  0  0  0  0  0  0
    4.4090   -2.7950   27.8500 C   0  0  0  0  0  0  0  0  0  0  0  0
    3.7300   -3.1960   29.0410 N   0  0  0  0  0  0  0  0  0  0  0  0
    3.1500   -4.4080   28.9560 C   0  0  0  0  0  0  0  0  0  0  0  0
    2.8160   -2.2240   29.6020 C   0  0  0  0  0  0  0  0  0  0  0  0
    2.1060   -2.5740   30.7540 O   0  0  0  0  0  0  0  0  0  0  0  0
    2.6380   -0.9740   29.0180 O   0  0  0  0  0  0  0  0  0  0  0  0
    2.1970    0.0970   29.8080 C   0  0  0  0  0  0  0  0  0  0  0  0
    2.3350    1.4890   29.1860 C   0  0  0  0  0  0  0  0  0  0  0  0
    3.0500    0.0010   31.0790 C   0  0  0  0  0  0  0  0  0  0  0  0
    0.7330    0.0060   30.2470 C   0  0  0  0  0  0  0  0  0  0  0  0
    6.3330   -5.1000   23.7590 C   0  0  0  0  0  0  0  0  0  0  0  0
    6.5810   -5.4720   22.4570 C   0  0  0  0  0  0  0  0  0  0  0  0
  1  2  1  0
  2  3  2  0
  2  4  1  0
  4  5  1  0
  5  6  1  0
  6  7  1  0
  7  8  1  0
  8  9  2  0
  8 10  1  0
 10 11  1  0
 11 12  1  0
 12 13  1  0
 13 14  1  0
 10 15  1  0
 14 15  1  0
 15 16  1  6
 16 17  1  0
 17 18  1  0
 17 19  1  0
 19 20  2  0
 19 21  1  0
 22 21  1  0
 22 23  1  0
 22 24  1  0
 22 25  1  0
  7 26  1  0
  4 27  1  0
 26 27  1  0
M  END
