piperidine-amides-27356-covalent
     RDKit          3D

 26 29  0  0  0  0  0  0  0  0999 V2000
    7.0220   -3.3450   19.3360 C   0  0  0  0  0  0  0  0  0  0  0  0
    6.3530   -4.1850   20.3360 C   0  0  0  0  0  0  0  0  0  0  0  0
    5.3250   -4.8010   19.9580 O   0  0  0  0  0  0  0  0  0  0  0  0
    6.8730   -4.3210   21.6240 N   0  0  0  0  0  0  0  0  0  0  0  0
    6.6210   -5.5090   22.4040 C   0  0  0  0  0  0  0  0  0  0  0  0
    5.9210   -5.0990   23.6740 C   0  0  0  0  0  0  0  0  0  0  0  0
    6.6210   -3.9390   24.3340 C   0  0  0  0  0  0  0  0  0  0  0  0
    5.8250   -3.3970   25.4870 C   0  0  0  0  0  0  0  0  0  0  0  0
    5.1000   -2.4150   25.2210 O   0  0  0  0  0  0  0  0  0  0  0  0
    5.7480   -3.8770   26.8400 N   0  0  0  0  0  0  0  0  0  0  0  0
    4.6340   -3.3440   27.6230 C   0  0  0  0  0  0  0  0  0  0  0  0
    4.1370   -4.2530   28.7620 C   0  0  0  0  0  0  0  0  0  0  0  0
    5.1100   -5.3110   28.9240 N   0  0  0  0  0  0  0  0  0  0  0  0
    6.3270   -5.0750   28.5740 C   0  0  0  0  0  0  0  0  0  0  0  0
    7.1290   -6.1620   28.7790 N   0  0  0  0  0  0  0  0  0  0  0  0
    6.2420   -7.0190   29.2780 N   0  0  0  0  0  0  0  0  0  0  0  0
    4.9110   -6.5250   29.4000 C   0  0  0  0  0  0  0  0  0  0  0  0
    3.8160   -7.2120   29.8930 C   0  0  0  0  0  0  0  0  0  0  0  0
    3.6460   -7.6600   31.1940 C   0  0  0  0  0  0  0  0  0  0  0  0
    2.4920   -8.3260   31.5130 C   0  0  0  0  0  0  0  0  0  0  0  0
    1.4300   -8.5680   30.4740 C   0  0  0  0  0  0  0  0  0  0  0  0
    1.6190   -8.1230   29.2200 N   0  0  0  0  0  0  0  0  0  0  0  0
    2.7450   -7.4650   28.8720 C   0  0  0  0  0  0  0  0  0  0  0  0
    6.4470   -3.7820   28.1050 C   0  0  0  0  0  0  0  0  0  0  0  0
    6.8390   -2.8330   23.3510 C   0  0  0  0  0  0  0  0  0  0  0  0
    7.6090   -3.2370   22.2860 C   0  0  0  0  0  0  0  0  0  0  0  0
  1  2  1  0
  2  3  2  0
  2  4  1  0
  4  5  1  0
  5  6  1  0
  6  7  1  0
  7  8  1  0
  8  9  2  0
  8 10  1  0
 10 11  1  0
 11 12  1  0
 12 13  1  0
 13 14  1  0
 14 15  2  0
 15 16  1  0
 13 17  1  0
 16 17  2  0
 17 18  1  0
 18 19  2  0
 19 20  1  0
 20 21  2  0
 21 22  1  0
 18 23  1  0
 22 23  2  0
 10 24  1  0
 14 24  1  0
  7 25  1  0
  4 26  1  0
 25 26  1  0
M  END
