piperidine-amides-4090-covalent
     RDKit          3D

 27 28  0  0  0  0  0  0  0  0999 V2000
    7.1250   -3.2900   19.1990 C   0  0  0  0  0  0  0  0  0  0  0  0
    6.3990   -4.0580   20.2250 C   0  0  0  0  0  0  0  0  0  0  0  0
    5.2910   -4.5380   19.8850 O   0  0  0  0  0  0  0  0  0  0  0  0
    6.9550   -4.3120   21.5060 N   0  0  0  0  0  0  0  0  0  0  0  0
    7.6360   -3.2510   22.1780 C   0  0  0  0  0  0  0  0  0  0  0  0
    7.1390   -3.0160   23.5210 C   0  0  0  0  0  0  0  0  0  0  0  0
    5.9360   -3.8130   23.8270 C   0  0  0  0  0  0  0  0  0  0  0  0
    5.3850   -3.5100   25.1730 C   0  0  0  0  0  0  0  0  0  0  0  0
    4.2440   -3.0230   25.2670 O   0  0  0  0  0  0  0  0  0  0  0  0
    6.1060   -3.7460   26.3390 N   0  0  0  0  0  0  0  0  0  0  0  0
    6.2920   -2.7970   27.3350 C   0  0  0  0  0  0  0  0  0  0  0  0
    6.6160   -3.0950   28.7110 C   0  0  0  0  0  0  0  0  0  0  0  0
    6.9100   -1.7140   29.3300 C   0  0  0  0  0  0  0  0  0  0  0  0
    6.1250   -0.6870   28.8380 C   0  0  0  0  0  0  0  0  0  0  0  0
    7.0670    0.4310   29.2800 C   0  0  0  0  0  0  0  0  0  0  0  0
    5.9870    1.4130   29.6700 C   0  0  0  0  0  0  0  0  0  0  0  0
    6.5660    2.7480   30.1940 C   0  0  0  0  0  0  0  0  0  0  0  0
    5.7860    3.8230   30.6190 O   0  0  0  0  0  0  0  0  0  0  0  0
    4.5440    4.1210   29.9880 C   0  0  0  0  0  0  0  0  0  0  0  0
    8.0480    3.0510   30.3080 C   0  0  0  0  0  0  0  0  0  0  0  0
    8.6460    4.1940   30.7570 O   0  0  0  0  0  0  0  0  0  0  0  0
    8.9110    1.8890   29.8480 C   0  0  0  0  0  0  0  0  0  0  0  0
   10.2360    2.1570   29.9520 O   0  0  0  0  0  0  0  0  0  0  0  0
   10.9460    1.2140   30.6280 C   0  0  0  0  0  0  0  0  0  0  0  0
    8.4060    0.7060   29.3850 C   0  0  0  0  0  0  0  0  0  0  0  0
    6.0960   -5.2700   23.5830 C   0  0  0  0  0  0  0  0  0  0  0  0
    6.6160   -5.5320   22.1890 C   0  0  0  0  0  0  0  0  0  0  0  0
  1  2  1  0
  2  3  2  0
  2  4  1  0
  4  5  1  0
  5  6  1  0
  6  7  1  0
  7  8  1  0
  8  9  2  0
  8 10  1  0
 10 11  1  0
 11 12  1  0
 12 13  1  0
 13 14  1  0
 14 15  1  0
 15 16  2  0
 16 17  1  0
 17 18  1  0
 18 19  1  0
 17 20  2  0
 20 21  1  0
 20 22  1  0
 22 23  1  0
 23 24  1  0
 15 25  1  0
 22 25  2  0
  7 26  1  0
  4 27  1  0
 26 27  1  0
M  END
