piperidine-amides-32986-covalent
     RDKit          3D

 28 31  0  0  0  0  0  0  0  0999 V2000
    6.9930   -3.3610   19.4190 C   0  0  0  0  0  0  0  0  0  0  0  0
    6.3290   -4.2620   20.4070 C   0  0  0  0  0  0  0  0  0  0  0  0
    5.3880   -4.9650   20.0050 O   0  0  0  0  0  0  0  0  0  0  0  0
    6.7850   -4.3380   21.7540 N   0  0  0  0  0  0  0  0  0  0  0  0
    6.6440   -5.5420   22.5520 C   0  0  0  0  0  0  0  0  0  0  0  0
    6.0050   -5.2060   23.9250 C   0  0  0  0  0  0  0  0  0  0  0  0
    5.8900   -3.7220   24.0480 C   0  0  0  0  0  0  0  0  0  0  0  0
    5.2610   -3.1400   25.2990 C   0  0  0  0  0  0  0  0  0  0  0  0
    4.8380   -1.9990   25.1550 O   0  0  0  0  0  0  0  0  0  0  0  0
    5.1160   -3.7930   26.5530 N   0  0  0  0  0  0  0  0  0  0  0  0
    4.5840   -3.2250   27.7190 C   0  0  0  0  0  0  0  0  0  0  0  0
    4.7210   -3.9080   28.8970 C   0  0  0  0  0  0  0  0  0  0  0  0
    4.8010   -5.2950   28.4810 N   0  0  0  0  0  0  0  0  0  0  0  0
    4.6230   -6.4270   29.2890 C   0  0  0  0  0  0  0  0  0  0  0  0
    3.2800   -6.7310   29.4280 C   0  0  0  0  0  0  0  0  0  0  0  0
    2.3650   -5.6170   29.4760 N   0  0  0  0  0  0  0  0  0  0  0  0
    0.9730   -5.8630   29.6340 C   0  0  0  0  0  0  0  0  0  0  0  0
   -0.2400   -4.9360   29.4320 C   0  0  0  0  0  0  0  0  0  0  0  0
   -1.4420   -5.7780   29.7610 C   0  0  0  0  0  0  0  0  0  0  0  0
   -1.2100   -7.4380   30.2450 S   0  0  0  0  0  0  0  0  0  0  0  0
    0.5930   -7.2430   30.0720 C   0  0  0  0  0  0  0  0  0  0  0  0
    1.6420   -8.2390   30.3020 C   0  0  0  0  0  0  0  0  0  0  0  0
    1.4140   -9.1230   31.1500 O   0  0  0  0  0  0  0  0  0  0  0  0
    2.7080   -8.0060   29.5250 N   0  0  0  0  0  0  0  0  0  0  0  0
    6.0470   -5.4820   27.8590 C   0  0  0  0  0  0  0  0  0  0  0  0
    6.2410   -4.5760   26.8420 C   0  0  0  0  0  0  0  0  0  0  0  0
    7.1670   -2.9990   23.7480 C   0  0  0  0  0  0  0  0  0  0  0  0
    7.6090   -3.2740   22.3260 C   0  0  0  0  0  0  0  0  0  0  0  0
  1  2  1  0
  2  3  2  0
  2  4  1  0
  4  5  1  0
  5  6  1  0
  6  7  1  0
  7  8  1  0
  8  9  2  0
  8 10  1  0
 10 11  1  0
 11 12  1  0
 12 13  1  0
 13 14  1  0
 14 15  1  0
 15 16  2  0
 16 17  1  0
 17 18  1  0
 18 19  2  0
 19 20  1  0
 17 21  2  0
 20 21  1  0
 21 22  1  0
 22 23  2  0
 15 24  1  0
 22 24  1  0
 13 25  1  0
 10 26  1  0
 25 26  1  0
  7 27  1  0
  4 28  1  0
 27 28  1  0
M  END
