piperidine-amides-31494-covalent
     RDKit          3D

 28 30  0  0  0  0  0  0  0  0999 V2000
    6.9920   -3.3860   19.3250 C   0  0  0  0  0  0  0  0  0  0  0  0
    6.3220   -4.1670   20.3480 C   0  0  0  0  0  0  0  0  0  0  0  0
    5.3360   -4.8660   19.9780 O   0  0  0  0  0  0  0  0  0  0  0  0
    6.7170   -4.2360   21.7030 N   0  0  0  0  0  0  0  0  0  0  0  0
    6.7220   -5.6010   22.2920 C   0  0  0  0  0  0  0  0  0  0  0  0
    6.0470   -5.3940   23.7080 C   0  0  0  0  0  0  0  0  0  0  0  0
    6.0620   -3.9180   23.9570 C   0  0  0  0  0  0  0  0  0  0  0  0
    5.2440   -3.5570   25.2780 C   0  0  0  0  0  0  0  0  0  0  0  0
    4.0680   -3.7420   25.0270 O   0  0  0  0  0  0  0  0  0  0  0  0
    5.9090   -3.1460   26.3020 N   0  0  0  0  0  0  0  0  0  0  0  0
    6.2670   -2.2200   27.2610 C   0  0  0  0  0  0  0  0  0  0  0  0
    5.7690   -0.9310   27.2620 N   0  0  0  0  0  0  0  0  0  0  0  0
    6.2890   -0.3110   28.3160 C   0  0  0  0  0  0  0  0  0  0  0  0
    6.0670    1.0230   28.7390 C   0  0  0  0  0  0  0  0  0  0  0  0
    4.8160    1.0730   29.3830 O   0  0  0  0  0  0  0  0  0  0  0  0
    3.8790    1.6810   28.5630 C   0  0  0  0  0  0  0  0  0  0  0  0
    3.2840    0.9100   27.4190 C   0  0  0  0  0  0  0  0  0  0  0  0
    2.3530    1.8080   26.7640 C   0  0  0  0  0  0  0  0  0  0  0  0
    1.7920    3.1760   26.8140 C   0  0  0  0  0  0  0  0  0  0  0  0
    2.5630    3.7110   28.0480 C   0  0  0  0  0  0  0  0  0  0  0  0
    3.5880    3.0190   28.9290 C   0  0  0  0  0  0  0  0  0  0  0  0
    7.0900   -1.1560   28.9630 N   0  0  0  0  0  0  0  0  0  0  0  0
    7.0590   -2.2930   28.3120 O   0  0  0  0  0  0  0  0  0  0  0  0
    6.1260   -4.1370   27.3910 C   0  0  0  0  0  0  0  0  0  0  0  0
    6.8430   -3.8300   28.5180 C   0  0  0  0  0  0  0  0  0  0  0  0
    6.8550   -5.2970   26.7780 C   0  0  0  0  0  0  0  0  0  0  0  0
    7.3300   -3.2450   23.6690 C   0  0  0  0  0  0  0  0  0  0  0  0
    7.5540   -3.2220   22.2960 C   0  0  0  0  0  0  0  0  0  0  0  0
  1  2  1  0
  2  3  2  0
  2  4  1  0
  4  5  1  0
  5  6  1  0
  6  7  1  0
  7  8  1  0
  8  9  2  0
  8 10  1  0
 10 11  1  0
 11 12  2  0
 12 13  1  0
 13 14  1  0
 14 15  1  0
 15 16  1  0
 16 17  2  0
 17 18  1  0
 18 19  2  0
 19 20  1  0
 16 21  1  0
 20 21  2  0
 13 22  2  0
 11 23  1  0
 22 23  1  0
 10 24  1  0
 24 25  1  0
 24 26  1  0
  7 27  1  0
  4 28  1  0
 27 28  1  0
M  END
