piperidine-amides-30687-covalent
     RDKit          3D

 27 29  0  0  0  0  0  0  0  0999 V2000
    7.0500   -3.3770   19.3870 C   0  0  0  0  0  0  0  0  0  0  0  0
    6.4070   -4.2600   20.3640 C   0  0  0  0  0  0  0  0  0  0  0  0
    5.4080   -4.9070   19.9990 O   0  0  0  0  0  0  0  0  0  0  0  0
    6.9230   -4.4320   21.6700 N   0  0  0  0  0  0  0  0  0  0  0  0
    7.7050   -3.4090   22.3360 C   0  0  0  0  0  0  0  0  0  0  0  0
    6.8160   -2.8390   23.4120 C   0  0  0  0  0  0  0  0  0  0  0  0
    5.7530   -3.8100   23.8280 C   0  0  0  0  0  0  0  0  0  0  0  0
    5.1790   -3.4920   25.1710 C   0  0  0  0  0  0  0  0  0  0  0  0
    4.3200   -2.5740   25.2610 O   0  0  0  0  0  0  0  0  0  0  0  0
    5.5190   -4.1320   26.3790 N   0  0  0  0  0  0  0  0  0  0  0  0
    6.9120   -4.3560   26.5170 C   0  0  0  0  0  0  0  0  0  0  0  0
    7.1330   -5.5180   27.3730 C   0  0  0  0  0  0  0  0  0  0  0  0
    6.8540   -5.2060   28.7620 C   0  0  0  0  0  0  0  0  0  0  0  0
    5.8710   -4.0630   28.9020 C   0  0  0  0  0  0  0  0  0  0  0  0
    4.9730   -3.7760   27.6890 C   0  0  0  0  0  0  0  0  0  0  0  0
    4.5630   -2.4070   27.8130 C   0  0  0  0  0  0  0  0  0  0  0  0
    3.2940   -3.0200   27.7620 N   0  0  0  0  0  0  0  0  0  0  0  0
    2.4320   -2.5930   28.7140 C   0  0  0  0  0  0  0  0  0  0  0  0
    1.2660   -3.0940   28.8570 O   0  0  0  0  0  0  0  0  0  0  0  0
    2.8690   -1.6750   29.4300 O   0  0  0  0  0  0  0  0  0  0  0  0
    3.0290   -1.9660   30.7720 C   0  0  0  0  0  0  0  0  0  0  0  0
    1.9760   -1.4940   31.7520 C   0  0  0  0  0  0  0  0  0  0  0  0
    4.3210   -1.3210   31.1660 C   0  0  0  0  0  0  0  0  0  0  0  0
    3.2730   -3.4310   30.9680 C   0  0  0  0  0  0  0  0  0  0  0  0
    3.7310   -4.3830   27.6240 C   0  0  0  0  0  0  0  0  0  0  0  0
    6.1020   -5.2400   23.7040 C   0  0  0  0  0  0  0  0  0  0  0  0
    6.5950   -5.5800   22.4610 C   0  0  0  0  0  0  0  0  0  0  0  0
  1  2  1  0
  2  3  2  0
  2  4  1  0
  4  5  1  0
  5  6  1  0
  6  7  1  0
  7  8  1  0
  8  9  2  0
  8 10  1  0
 10 11  1  0
 11 12  1  0
 12 13  1  0
 13 14  1  0
 15 10  1  0
 14 15  1  0
 15 16  1  0
 16 17  1  0
 17 18  1  0
 18 19  2  0
 18 20  1  0
 21 20  1  0
 21 22  1  0
 21 23  1  0
 21 24  1  0
 15 25  1  0
 17 25  1  0
  7 26  1  0
  4 27  1  0
 26 27  1  0
M  END
