piperidine-amides-12584-covalent
     RDKit          3D

 23 25  0  0  0  0  0  0  0  0999 V2000
    7.1040   -3.2610   19.2320 C   0  0  0  0  0  0  0  0  0  0  0  0
    6.3540   -4.0290   20.2490 C   0  0  0  0  0  0  0  0  0  0  0  0
    5.2770   -4.5350   19.8790 O   0  0  0  0  0  0  0  0  0  0  0  0
    6.8610   -4.2240   21.5410 N   0  0  0  0  0  0  0  0  0  0  0  0
    7.5660   -3.1750   22.2120 C   0  0  0  0  0  0  0  0  0  0  0  0
    7.1830   -2.9480   23.6120 C   0  0  0  0  0  0  0  0  0  0  0  0
    6.3740   -4.0070   24.2690 C   0  0  0  0  0  0  0  0  0  0  0  0
    5.5580   -3.4060   25.3620 C   0  0  0  0  0  0  0  0  0  0  0  0
    4.4670   -2.8980   25.0390 O   0  0  0  0  0  0  0  0  0  0  0  0
    5.9670   -3.3860   26.7220 N   0  0  0  0  0  0  0  0  0  0  0  0
    6.0360   -4.6050   27.5740 C   0  0  0  0  0  0  0  0  0  0  0  0
    4.7470   -5.0510   28.1730 C   0  0  0  0  0  0  0  0  0  0  0  0
    3.6870   -4.1730   28.4790 N   0  0  0  0  0  0  0  0  0  0  0  0
    2.7620   -4.9390   28.9800 O   0  0  0  0  0  0  0  0  0  0  0  0
    3.0970   -6.2110   29.0350 C   0  0  0  0  0  0  0  0  0  0  0  0
    2.3570   -7.2740   29.5060 C   0  0  0  0  0  0  0  0  0  0  0  0
    1.6690   -8.2400   28.7630 C   0  0  0  0  0  0  0  0  0  0  0  0
    0.9990   -9.2040   29.4590 C   0  0  0  0  0  0  0  0  0  0  0  0
    1.1080   -9.0680   30.7930 C   0  0  0  0  0  0  0  0  0  0  0  0
    2.0710   -7.7120   31.2760 S   0  0  0  0  0  0  0  0  0  0  0  0
    4.3400   -6.2840   28.5290 N   0  0  0  0  0  0  0  0  0  0  0  0
    5.5800   -4.8710   23.3540 C   0  0  0  0  0  0  0  0  0  0  0  0
    6.3960   -5.3300   22.3250 C   0  0  0  0  0  0  0  0  0  0  0  0
  1  2  1  0
  2  3  2  0
  2  4  1  0
  4  5  1  0
  5  6  1  0
  6  7  1  0
  7  8  1  0
  8  9  2  0
  8 10  1  0
 10 11  1  0
 11 12  1  0
 12 13  2  0
 13 14  1  0
 14 15  1  0
 15 16  1  0
 16 17  2  0
 17 18  1  0
 18 19  2  0
 16 20  1  0
 19 20  1  0
 12 21  1  0
 15 21  2  0
  7 22  1  0
  4 23  1  0
 22 23  1  0
M  END
