piperidine-amides-27123-covalent
     RDKit          3D

 24 25  0  0  0  0  0  0  0  0999 V2000
    7.0490   -3.3380   19.2900 C   0  0  0  0  0  0  0  0  0  0  0  0
    6.3720   -4.1580   20.2980 C   0  0  0  0  0  0  0  0  0  0  0  0
    5.3230   -4.7490   19.9460 O   0  0  0  0  0  0  0  0  0  0  0  0
    6.9210   -4.3020   21.5690 N   0  0  0  0  0  0  0  0  0  0  0  0
    7.7540   -3.2930   22.1780 C   0  0  0  0  0  0  0  0  0  0  0  0
    7.1090   -2.8830   23.4600 C   0  0  0  0  0  0  0  0  0  0  0  0
    6.7070   -4.0710   24.2960 C   0  0  0  0  0  0  0  0  0  0  0  0
    6.0860   -3.5950   25.5430 C   0  0  0  0  0  0  0  0  0  0  0  0
    4.8410   -3.6960   25.6750 O   0  0  0  0  0  0  0  0  0  0  0  0
    6.8430   -3.0280   26.5860 N   0  0  0  0  0  0  0  0  0  0  0  0
    7.5810   -3.9440   27.4530 C   0  0  0  0  0  0  0  0  0  0  0  0
    8.3750   -5.0030   26.6920 C   0  0  0  0  0  0  0  0  0  0  0  0
    6.6520   -1.7440   27.1940 C   0  0  0  0  0  0  0  0  0  0  0  0
    7.1840   -1.6040   28.4670 C   0  0  0  0  0  0  0  0  0  0  0  0
    7.0870   -0.4300   29.2090 C   0  0  0  0  0  0  0  0  0  0  0  0
    6.4470    0.7100   28.7380 C   0  0  0  0  0  0  0  0  0  0  0  0
    5.8850    0.6880   27.4880 C   0  0  0  0  0  0  0  0  0  0  0  0
    6.0080   -0.5900   26.7180 C   0  0  0  0  0  0  0  0  0  0  0  0
    5.2900   -0.6390   25.1140 S   0  0  0  0  0  0  0  0  0  0  0  0
    3.7410    0.2410   25.3400 C   0  0  0  0  0  0  0  0  0  0  0  0
    4.9570   -1.9990   24.6430 O   0  0  0  0  0  0  0  0  0  0  0  0
    6.0630    0.1480   24.1120 O   0  0  0  0  0  0  0  0  0  0  0  0
    5.7820   -5.0230   23.5180 C   0  0  0  0  0  0  0  0  0  0  0  0
    6.6230   -5.4920   22.3500 C   0  0  0  0  0  0  0  0  0  0  0  0
  1  2  1  0
  2  3  2  0
  2  4  1  0
  4  5  1  0
  5  6  1  0
  6  7  1  0
  7  8  1  0
  8  9  2  0
  8 10  1  0
 10 11  1  0
 11 12  1  0
 10 13  1  0
 13 14  2  0
 14 15  1  0
 15 16  2  0
 16 17  1  0
 13 18  1  0
 17 18  2  0
 18 19  1  0
 19 20  1  0
 19 21  2  0
 19 22  2  0
  7 23  1  0
  4 24  1  0
 23 24  1  0
M  END
