piperidine-amides-24264-covalent
     RDKit          3D

 23 25  0  0  0  0  0  0  0  0999 V2000
    7.0420   -3.3350   19.3380 C   0  0  0  0  0  0  0  0  0  0  0  0
    6.3690   -4.1960   20.3240 C   0  0  0  0  0  0  0  0  0  0  0  0
    5.3610   -4.8510   19.9810 O   0  0  0  0  0  0  0  0  0  0  0  0
    6.8600   -4.3440   21.6330 N   0  0  0  0  0  0  0  0  0  0  0  0
    6.6410   -5.6110   22.2950 C   0  0  0  0  0  0  0  0  0  0  0  0
    6.3330   -5.3210   23.7710 C   0  0  0  0  0  0  0  0  0  0  0  0
    6.1350   -3.8280   23.8890 C   0  0  0  0  0  0  0  0  0  0  0  0
    5.6580   -3.4600   25.2440 C   0  0  0  0  0  0  0  0  0  0  0  0
    4.5850   -2.8250   25.3190 O   0  0  0  0  0  0  0  0  0  0  0  0
    6.3720   -3.8240   26.4100 N   0  0  0  0  0  0  0  0  0  0  0  0
    5.6880   -4.1350   27.6630 C   0  0  0  0  0  0  0  0  0  0  0  0
    6.6860   -4.9790   28.3780 C   0  0  0  0  0  0  0  0  0  0  0  0
    7.8680   -4.7030   27.8090 C   0  0  0  0  0  0  0  0  0  0  0  0
    7.6590   -3.5680   27.0560 C   0  0  2  0  0  0  0  0  0  0  0  0
    7.3860   -2.3740   27.7330 C   0  0  0  0  0  0  0  0  0  0  0  0
    8.0610   -2.0420   28.8200 C   0  0  0  0  0  0  0  0  0  0  0  0
    7.9200   -0.8450   29.7140 C   0  0  0  0  0  0  0  0  0  0  0  0
    6.7650   -0.1090   28.9800 C   0  0  0  0  0  0  0  0  0  0  0  0
    6.3490    1.3950   29.8160 Cl  0  0  0  0  0  0  0  0  0  0  0  0
    5.8920   -0.3330   27.7290 C   0  0  0  0  0  0  0  0  0  0  0  0
    6.4040   -1.6030   27.2310 C   0  0  0  0  0  0  0  0  0  0  0  0
    7.4230   -3.1450   23.5610 C   0  0  0  0  0  0  0  0  0  0  0  0
    7.6420   -3.2870   22.2200 C   0  0  0  0  0  0  0  0  0  0  0  0
  1  2  1  0
  2  3  2  0
  2  4  1  0
  4  5  1  0
  5  6  1  0
  6  7  1  0
  7  8  1  0
  8  9  2  0
  8 10  1  0
 10 11  1  0
 11 12  1  0
 12 13  1  0
 10 14  1  0
 13 14  1  0
 14 15  1  1
 15 16  2  0
 16 17  1  0
 17 18  2  0
 18 19  1  0
 18 20  1  0
 15 21  1  0
 20 21  2  0
  7 22  1  0
  4 23  1  0
 22 23  1  0
M  END
