piperidine-amides-19534-covalent
     RDKit          3D

 22 23  0  0  0  0  0  0  0  0999 V2000
    7.0540   -3.3850   19.4460 C   0  0  0  0  0  0  0  0  0  0  0  0
    6.3200   -4.2010   20.3940 C   0  0  0  0  0  0  0  0  0  0  0  0
    5.3780   -4.9410   19.9840 O   0  0  0  0  0  0  0  0  0  0  0  0
    6.6570   -4.1890   21.7520 N   0  0  0  0  0  0  0  0  0  0  0  0
    6.5430   -5.4810   22.4850 C   0  0  0  0  0  0  0  0  0  0  0  0
    5.7990   -5.0570   23.8290 C   0  0  0  0  0  0  0  0  0  0  0  0
    6.1660   -3.6150   24.0760 C   0  0  0  0  0  0  0  0  0  0  0  0
    5.4520   -2.9820   25.3690 C   0  0  0  0  0  0  0  0  0  0  0  0
    4.4550   -2.4070   25.0190 O   0  0  0  0  0  0  0  0  0  0  0  0
    6.0660   -3.2230   26.4560 N   0  0  0  0  0  0  0  0  0  0  0  0
    6.5260   -4.0340   27.4560 C   0  0  0  0  0  0  0  0  0  0  0  0
    6.2370   -1.9320   27.1160 C   0  0  0  0  0  0  0  0  0  0  0  0
    6.9470   -1.9300   28.3330 C   0  0  0  0  0  0  0  0  0  0  0  0
    7.2650   -0.7930   29.2260 C   0  0  0  0  0  0  0  0  0  0  0  0
    6.7020    0.5470   28.6740 C   0  0  0  0  0  0  0  0  0  0  0  0
    6.0180    0.4100   27.4530 C   0  0  0  0  0  0  0  0  0  0  0  0
    5.7790   -0.7360   26.6920 C   0  0  0  0  0  0  0  0  0  0  0  0
    5.0810   -0.5350   25.5680 N   0  0  0  0  0  0  0  0  0  0  0  0
    5.7040   -0.6260   24.4360 O   0  0  0  0  0  0  0  0  0  0  0  0
    3.9170    0.0600   25.5870 O   0  0  0  0  0  0  0  0  0  0  0  0
    7.4740   -3.2350   23.7640 C   0  0  0  0  0  0  0  0  0  0  0  0
    7.5940   -3.2640   22.2290 C   0  0  0  0  0  0  0  0  0  0  0  0
  1  2  1  0
  2  3  2  0
  2  4  1  0
  4  5  1  0
  5  6  1  0
  6  7  1  0
  7  8  1  0
  8  9  2  0
  8 10  1  0
 10 11  1  0
 10 12  1  0
 12 13  2  0
 13 14  1  0
 14 15  2  0
 15 16  1  0
 12 17  1  0
 16 17  2  0
 17 18  1  0
 18 19  2  0
 18 20  1  0
  7 21  1  0
  4 22  1  0
 21 22  1  0
M  CHG  2  18   1  20  -1
M  END
