piperidine-amides-27361-covalent
     RDKit          3D

 26 28  0  0  0  0  0  0  0  0999 V2000
    7.0190   -3.3480   19.3570 C   0  0  0  0  0  0  0  0  0  0  0  0
    6.3660   -4.1830   20.3760 C   0  0  0  0  0  0  0  0  0  0  0  0
    5.3820   -4.8650   19.9800 O   0  0  0  0  0  0  0  0  0  0  0  0
    6.8430   -4.2380   21.6980 N   0  0  0  0  0  0  0  0  0  0  0  0
    6.6480   -5.4210   22.5050 C   0  0  0  0  0  0  0  0  0  0  0  0
    6.1700   -5.0050   23.8780 C   0  0  0  0  0  0  0  0  0  0  0  0
    5.9810   -3.5090   23.9720 C   0  0  0  0  0  0  0  0  0  0  0  0
    5.4120   -3.0930   25.2950 C   0  0  0  0  0  0  0  0  0  0  0  0
    4.1830   -2.8780   25.3200 O   0  0  0  0  0  0  0  0  0  0  0  0
    6.1130   -2.9220   26.5180 N   0  0  0  0  0  0  0  0  0  0  0  0
    6.3210   -4.0720   27.3390 C   0  0  0  0  0  0  0  0  0  0  0  0
    7.6160   -4.5880   26.8680 C   0  0  0  0  0  0  0  0  0  0  0  0
    8.1490   -5.8020   27.1740 C   0  0  0  0  0  0  0  0  0  0  0  0
    9.3450   -6.1280   26.6460 C   0  0  0  0  0  0  0  0  0  0  0  0
   10.0540   -5.3260   25.8370 C   0  0  0  0  0  0  0  0  0  0  0  0
    9.5200   -4.1150   25.5340 C   0  0  0  0  0  0  0  0  0  0  0  0
    8.3290   -3.7520   26.0400 C   0  0  0  0  0  0  0  0  0  0  0  0
    6.2020   -1.6500   27.1280 C   0  0  0  0  0  0  0  0  0  0  0  0
    5.6330   -0.3810   26.5430 C   0  0  0  0  0  0  0  0  0  0  0  0
    5.8220    0.8460   27.3720 C   0  0  0  0  0  0  0  0  0  0  0  0
    6.5310    0.8610   28.7110 C   0  0  0  0  0  0  0  0  0  0  0  0
    6.6420    2.0290   29.3750 F   0  0  0  0  0  0  0  0  0  0  0  0
    7.0530   -0.3300   29.2200 C   0  0  0  0  0  0  0  0  0  0  0  0
    6.8580   -1.5880   28.3680 C   0  0  0  0  0  0  0  0  0  0  0  0
    7.2540   -2.7990   23.6290 C   0  0  0  0  0  0  0  0  0  0  0  0
    7.6850   -3.1550   22.1990 C   0  0  0  0  0  0  0  0  0  0  0  0
  1  2  1  0
  2  3  2  0
  2  4  1  0
  4  5  1  0
  5  6  1  0
  6  7  1  0
  7  8  1  0
  8  9  2  0
  8 10  1  0
 10 11  1  0
 11 12  1  0
 12 13  2  0
 13 14  1  0
 14 15  2  0
 15 16  1  0
 12 17  1  0
 16 17  2  0
 10 18  1  0
 18 19  2  0
 19 20  1  0
 20 21  2  0
 21 22  1  0
 21 23  1  0
 18 24  1  0
 23 24  2  0
  7 25  1  0
  4 26  1  0
 25 26  1  0
M  END
