piperidine-amides-24552-covalent
     RDKit          3D

 24 25  0  0  0  0  0  0  0  0999 V2000
    7.0640   -3.3410   19.4130 C   0  0  0  0  0  0  0  0  0  0  0  0
    6.4040   -4.2360   20.3760 C   0  0  0  0  0  0  0  0  0  0  0  0
    5.4180   -4.9160   20.0040 O   0  0  0  0  0  0  0  0  0  0  0  0
    6.8870   -4.3720   21.6890 N   0  0  0  0  0  0  0  0  0  0  0  0
    6.6120   -5.6130   22.3990 C   0  0  0  0  0  0  0  0  0  0  0  0
    6.2730   -5.2780   23.8650 C   0  0  0  0  0  0  0  0  0  0  0  0
    6.0860   -3.7820   23.9200 C   0  0  0  0  0  0  0  0  0  0  0  0
    5.5420   -3.2660   25.2020 C   0  0  0  0  0  0  0  0  0  0  0  0
    4.7070   -2.3480   25.1130 O   0  0  0  0  0  0  0  0  0  0  0  0
    5.8890   -3.7610   26.4810 N   0  0  0  0  0  0  0  0  0  0  0  0
    6.4380   -2.8000   27.3870 C   0  0  0  0  0  0  0  0  0  0  0  0
    6.5370   -3.5800   28.6620 C   0  0  0  0  0  0  0  0  0  0  0  0
    5.4360   -4.3290   28.6440 C   0  0  1  0  0  0  0  0  0  0  0  0
    5.2490   -5.4460   29.4180 C   0  0  0  0  0  0  0  0  0  0  0  0
    6.2060   -6.4430   29.3120 C   0  0  0  0  0  0  0  0  0  0  0  0
    5.9450   -7.6770   29.8520 C   0  0  0  0  0  0  0  0  0  0  0  0
    4.4890   -3.4800   29.1920 C   0  0  0  0  0  0  0  0  0  0  0  0
    4.4440   -2.2790   28.9110 O   0  0  0  0  0  0  0  0  0  0  0  0
    3.5650   -3.9330   30.0780 O   0  0  0  0  0  0  0  0  0  0  0  0
    3.3620   -3.0640   31.1250 C   0  0  0  0  0  0  0  0  0  0  0  0
    1.9260   -2.6710   31.0010 C   0  0  0  0  0  0  0  0  0  0  0  0
    5.0700   -4.6480   27.3290 C   0  0  0  0  0  0  0  0  0  0  0  0
    7.3800   -3.1340   23.5770 C   0  0  0  0  0  0  0  0  0  0  0  0
    7.6600   -3.3020   22.2610 C   0  0  0  0  0  0  0  0  0  0  0  0
  1  2  1  0
  2  3  2  0
  2  4  1  0
  4  5  1  0
  5  6  1  0
  6  7  1  0
  7  8  1  0
  8  9  2  0
  8 10  1  0
 10 11  1  0
 11 12  1  0
 12 13  1  0
 13 14  1  1
 14 15  1  0
 15 16  2  3
 13 17  1  0
 17 18  2  0
 17 19  1  0
 19 20  1  0
 20 21  1  0
 10 22  1  0
 13 22  1  0
  7 23  1  0
  4 24  1  0
 23 24  1  0
M  END
