piperidine-amides-35144-covalent
     RDKit          3D

 33 36  0  0  0  0  0  0  0  0999 V2000
    6.9930   -3.3690   19.3710 C   0  0  0  0  0  0  0  0  0  0  0  0
    6.3670   -4.2570   20.3920 C   0  0  0  0  0  0  0  0  0  0  0  0
    5.4200   -4.9400   20.0030 O   0  0  0  0  0  0  0  0  0  0  0  0
    6.8720   -4.3110   21.7020 N   0  0  0  0  0  0  0  0  0  0  0  0
    6.6580   -5.4720   22.5400 C   0  0  0  0  0  0  0  0  0  0  0  0
    6.1990   -5.0540   23.9200 C   0  0  0  0  0  0  0  0  0  0  0  0
    6.3900   -3.5410   24.0700 C   0  0  0  0  0  0  0  0  0  0  0  0
    6.0860   -3.0440   25.4420 C   0  0  0  0  0  0  0  0  0  0  0  0
    5.9240   -1.8370   25.5920 O   0  0  0  0  0  0  0  0  0  0  0  0
    5.9120   -3.8620   26.5730 N   0  0  0  0  0  0  0  0  0  0  0  0
    6.4270   -3.4230   27.8440 C   0  0  0  0  0  0  0  0  0  0  0  0
    6.4520   -4.6760   28.6880 C   0  0  0  0  0  0  0  0  0  0  0  0
    5.2330   -5.1770   28.9050 C   0  0  0  0  0  0  0  0  0  0  0  0
    4.3520   -4.9950   27.9300 C   0  0  0  0  0  0  0  0  0  0  0  0
    3.1260   -5.5210   28.2090 C   0  0  0  0  0  0  0  0  0  0  0  0
    1.8780   -5.5060   27.3410 C   0  0  0  0  0  0  0  0  0  0  0  0
    1.0240   -6.5790   27.3760 O   0  0  0  0  0  0  0  0  0  0  0  0
    1.6140   -4.4140   26.5340 O   0  0  0  0  0  0  0  0  0  0  0  0
    1.1670   -4.5550   25.1970 C   0  0  0  0  0  0  0  0  0  0  0  0
    2.3100   -4.9950   24.3120 C   0  0  0  0  0  0  0  0  0  0  0  0
    3.2960   -6.0420   29.4100 N   0  0  0  0  0  0  0  0  0  0  0  0
    4.5330   -5.8490   29.8440 N   0  0  0  0  0  0  0  0  0  0  0  0
    4.7240   -6.4130   31.1550 C   0  0  0  0  0  0  0  0  0  0  0  0
    4.1080   -5.9700   32.4560 C   0  0  0  0  0  0  0  0  0  0  0  0
    4.3450   -6.6350   33.8010 C   0  0  0  0  0  0  0  0  0  0  0  0
    5.2390   -7.8060   33.8660 C   0  0  0  0  0  0  0  0  0  0  0  0
    5.5340   -8.5070   35.0150 O   0  0  0  0  0  0  0  0  0  0  0  0
    6.1000   -9.8020   34.9160 C   0  0  0  0  0  0  0  0  0  0  0  0
    5.8240   -8.2080   32.5790 C   0  0  0  0  0  0  0  0  0  0  0  0
    5.5590   -7.5100   31.2720 C   0  0  0  0  0  0  0  0  0  0  0  0
    4.5870   -4.3530   26.7390 C   0  0  0  0  0  0  0  0  0  0  0  0
    7.7820   -3.2330   23.5770 C   0  0  0  0  0  0  0  0  0  0  0  0
    7.7420   -3.2610   22.2210 C   0  0  0  0  0  0  0  0  0  0  0  0
  1  2  1  0
  2  3  2  0
  2  4  1  0
  4  5  1  0
  5  6  1  0
  6  7  1  0
  7  8  1  0
  8  9  2  0
  8 10  1  0
 10 11  1  0
 11 12  1  0
 12 13  1  0
 13 14  2  0
 14 15  1  0
 15 16  1  0
 16 17  2  0
 16 18  1  0
 18 19  1  0
 19 20  1  0
 15 21  2  0
 13 22  1  0
 21 22  1  0
 22 23  1  0
 23 24  2  0
 24 25  1  0
 25 26  2  0
 26 27  1  0
 27 28  1  0
 26 29  1  0
 23 30  1  0
 29 30  2  0
 10 31  1  0
 14 31  1  0
  7 32  1  0
  4 33  1  0
 32 33  1  0
M  END
