piperidine-amides-31311-covalent
     RDKit          3D

 27 28  0  0  0  0  0  0  0  0999 V2000
    7.0990   -3.3310   19.2300 C   0  0  0  0  0  0  0  0  0  0  0  0
    6.3780   -4.0410   20.2600 C   0  0  0  0  0  0  0  0  0  0  0  0
    5.2930   -4.6030   19.9180 O   0  0  0  0  0  0  0  0  0  0  0  0
    6.8510   -4.1910   21.5820 N   0  0  0  0  0  0  0  0  0  0  0  0
    6.6320   -5.4890   22.2420 C   0  0  0  0  0  0  0  0  0  0  0  0
    5.6080   -5.0030   23.3250 C   0  0  0  0  0  0  0  0  0  0  0  0
    6.3330   -3.9260   24.1030 C   0  0  0  0  0  0  0  0  0  0  0  0
    5.4010   -3.5620   25.3430 C   0  0  0  0  0  0  0  0  0  0  0  0
    4.2630   -3.9410   25.1370 O   0  0  0  0  0  0  0  0  0  0  0  0
    6.0530   -2.9550   26.2470 N   0  0  0  0  0  0  0  0  0  0  0  0
    6.7120   -1.9280   26.8400 C   0  0  0  0  0  0  0  0  0  0  0  0
    6.3800   -0.7130   27.3600 C   0  0  0  0  0  0  0  0  0  0  0  0
    5.7240   -3.8730   27.3600 C   0  0  1  0  0  0  0  0  0  0  0  0
    5.8850   -5.3390   27.1920 C   0  0  0  0  0  0  0  0  0  0  0  0
    6.5770   -3.4590   28.5160 C   0  0  0  0  0  0  0  0  0  0  0  0
    5.6410   -2.9130   29.3850 C   0  0  0  0  0  0  0  0  0  0  0  0
    6.1620   -1.6220   29.8520 C   0  0  0  0  0  0  0  0  0  0  0  0
    5.0980   -1.0330   30.8160 C   0  0  0  0  0  0  0  0  0  0  0  0
    3.7550   -1.6370   31.2340 C   0  0  0  0  0  0  0  0  0  0  0  0
    2.8590   -1.0580   32.0970 C   0  0  0  0  0  0  0  0  0  0  0  0
    3.1850   -1.2560   33.4070 F   0  0  0  0  0  0  0  0  0  0  0  0
    2.6990    0.3210   31.9880 F   0  0  0  0  0  0  0  0  0  0  0  0
    1.6150   -1.5490   31.8260 F   0  0  0  0  0  0  0  0  0  0  0  0
    3.4420   -2.8930   30.6690 C   0  0  0  0  0  0  0  0  0  0  0  0
    4.3150   -3.4440   29.8370 C   0  0  0  0  0  0  0  0  0  0  0  0
    6.8520   -2.7380   23.3470 C   0  0  0  0  0  0  0  0  0  0  0  0
    7.6230   -3.1920   22.2730 C   0  0  0  0  0  0  0  0  0  0  0  0
  1  2  1  0
  2  3  2  0
  2  4  1  0
  4  5  1  0
  5  6  1  0
  6  7  1  0
  7  8  1  0
  8  9  2  0
  8 10  1  0
 10 11  1  0
 11 12  1  0
 10 13  1  0
 13 14  1  6
 13 15  1  0
 15 16  1  0
 16 17  2  0
 17 18  1  0
 18 19  2  0
 19 20  1  0
 20 21  1  0
 20 22  1  0
 20 23  1  0
 19 24  1  0
 16 25  1  0
 24 25  2  0
  7 26  1  0
  4 27  1  0
 26 27  1  0
M  END
