piperidine-amides-10577-covalent
     RDKit          3D

 23 26  0  0  0  0  0  0  0  0999 V2000
    7.0530   -3.3660   19.3700 C   0  0  0  0  0  0  0  0  0  0  0  0
    6.3560   -4.1680   20.3780 C   0  0  0  0  0  0  0  0  0  0  0  0
    5.3540   -4.8180   19.9750 O   0  0  0  0  0  0  0  0  0  0  0  0
    6.8300   -4.2290   21.6950 N   0  0  0  0  0  0  0  0  0  0  0  0
    7.7370   -3.2170   22.2080 C   0  0  0  0  0  0  0  0  0  0  0  0
    7.3530   -2.9210   23.6230 C   0  0  0  0  0  0  0  0  0  0  0  0
    6.0190   -3.5310   23.9260 C   0  0  0  0  0  0  0  0  0  0  0  0
    5.6090   -3.2350   25.3190 C   0  0  0  0  0  0  0  0  0  0  0  0
    4.3970   -3.3520   25.6060 O   0  0  0  0  0  0  0  0  0  0  0  0
    6.5060   -2.8340   26.3220 N   0  0  0  0  0  0  0  0  0  0  0  0
    6.4090   -1.5760   27.0260 C   0  0  0  0  0  0  0  0  0  0  0  0
    7.0220   -1.5540   28.4270 C   0  0  0  0  0  0  0  0  0  0  0  0
    6.9950   -0.4170   29.2040 C   0  0  0  0  0  0  0  0  0  0  0  0
    6.3940    0.7140   28.6820 C   0  0  0  0  0  0  0  0  0  0  0  0
    5.8340    0.7140   27.4190 C   0  0  0  0  0  0  0  0  0  0  0  0
    5.8350   -0.3580   26.6340 C   0  0  0  0  0  0  0  0  0  0  0  0
    5.1850    0.0600   25.5090 C   0  0  2  0  0  0  0  0  0  0  0  0
    6.0650    0.7990   24.5390 C   0  0  0  0  0  0  0  0  0  0  0  0
    5.9240    2.0650   25.4110 C   0  0  0  0  0  0  0  0  0  0  0  0
    5.1990    1.6950   26.7000 C   0  0  1  0  0  0  0  0  0  0  0  0
    4.1830    0.8900   26.0710 O   0  0  0  0  0  0  0  0  0  0  0  0
    6.0420   -5.0240   23.7190 C   0  0  0  0  0  0  0  0  0  0  0  0
    6.6350   -5.4200   22.5310 C   0  0  0  0  0  0  0  0  0  0  0  0
  1  2  1  0
  2  3  2  0
  2  4  1  0
  4  5  1  0
  5  6  1  0
  6  7  1  0
  7  8  1  0
  8  9  2  0
  8 10  1  0
 10 11  1  0
 11 12  2  0
 12 13  1  0
 13 14  2  0
 14 15  1  0
 11 16  1  0
 15 16  2  0
 16 17  1  0
 17 18  1  6
 18 19  1  0
 15 20  1  0
 20 19  1  6
 17 21  1  0
 20 21  1  0
  7 22  1  0
  4 23  1  0
 22 23  1  0
M  END
