piperidine-amides-2867-covalent
     RDKit          3D

 24 25  0  0  0  0  0  0  0  0999 V2000
    7.1040   -3.3150   19.3590 C   0  0  0  0  0  0  0  0  0  0  0  0
    6.3320   -4.0920   20.3230 C   0  0  0  0  0  0  0  0  0  0  0  0
    5.3320   -4.7050   19.9450 O   0  0  0  0  0  0  0  0  0  0  0  0
    6.7590   -4.1810   21.6990 N   0  0  0  0  0  0  0  0  0  0  0  0
    7.6710   -3.1830   22.2200 C   0  0  0  0  0  0  0  0  0  0  0  0
    7.3930   -2.9170   23.6740 C   0  0  0  0  0  0  0  0  0  0  0  0
    6.1210   -3.6690   24.0110 C   0  0  0  0  0  0  0  0  0  0  0  0
    5.6250   -3.3190   25.3820 C   0  0  0  0  0  0  0  0  0  0  0  0
    4.4400   -2.9800   25.5640 O   0  0  0  0  0  0  0  0  0  0  0  0
    6.4830   -3.3670   26.5150 N   0  0  0  0  0  0  0  0  0  0  0  0
    5.9110   -3.7760   27.7860 C   0  0  1  0  0  0  0  0  0  0  0  0
    6.6800   -4.9050   28.4260 C   0  0  0  0  0  0  0  0  0  0  0  0
    5.8820   -2.6570   28.7650 C   0  0  0  0  0  0  0  0  0  0  0  0
    6.9140   -1.7060   28.8290 C   0  0  0  0  0  0  0  0  0  0  0  0
    6.8420   -0.6840   29.7650 C   0  0  0  0  0  0  0  0  0  0  0  0
    5.6920   -0.6180   30.6640 C   0  0  0  0  0  0  0  0  0  0  0  0
    5.7250    0.4080   31.5260 N   0  0  0  0  0  0  0  0  0  0  0  0
    5.5590    1.8080   31.2320 C   0  0  0  0  0  0  0  0  0  0  0  0
    5.7890    2.8360   32.1070 N   0  0  0  0  0  0  0  0  0  0  0  0
    5.1610    2.2760   30.0780 O   0  0  0  0  0  0  0  0  0  0  0  0
    4.7280   -1.5540   30.5620 C   0  0  0  0  0  0  0  0  0  0  0  0
    4.8290   -2.5600   29.6200 C   0  0  0  0  0  0  0  0  0  0  0  0
    6.1520   -5.0970   23.7550 C   0  0  0  0  0  0  0  0  0  0  0  0
    6.5780   -5.3970   22.4620 C   0  0  0  0  0  0  0  0  0  0  0  0
  1  2  1  0
  2  3  2  0
  2  4  1  0
  4  5  1  0
  5  6  1  0
  6  7  1  0
  7  8  1  0
  8  9  2  0
  8 10  1  0
 10 11  1  0
 11 12  1  1
 11 13  1  0
 13 14  2  0
 14 15  1  0
 15 16  2  0
 16 17  1  0
 17 18  1  0
 18 19  1  0
 18 20  2  0
 16 21  1  0
 13 22  1  0
 21 22  2  0
  7 23  1  0
  4 24  1  0
 23 24  1  0
M  END
