piperidine-amides-31600-covalent
     RDKit          3D

 28 30  0  0  0  0  0  0  0  0999 V2000
    7.0800   -3.3470   19.4880 C   0  0  0  0  0  0  0  0  0  0  0  0
    6.4030   -4.2000   20.4430 C   0  0  0  0  0  0  0  0  0  0  0  0
    5.4500   -4.9280   20.0080 O   0  0  0  0  0  0  0  0  0  0  0  0
    6.7800   -4.2740   21.8120 N   0  0  0  0  0  0  0  0  0  0  0  0
    6.6560   -5.6410   22.4160 C   0  0  0  0  0  0  0  0  0  0  0  0
    6.3290   -5.4030   23.9570 C   0  0  0  0  0  0  0  0  0  0  0  0
    6.2430   -3.9190   24.1590 C   0  0  0  0  0  0  0  0  0  0  0  0
    5.2870   -3.3900   25.3520 C   0  0  0  0  0  0  0  0  0  0  0  0
    4.2850   -2.9600   24.8080 O   0  0  0  0  0  0  0  0  0  0  0  0
    5.7010   -3.4940   26.5760 N   0  0  0  0  0  0  0  0  0  0  0  0
    5.8810   -3.1200   27.8700 C   0  0  0  0  0  0  0  0  0  0  0  0
    5.6870   -3.7050   29.0940 C   0  0  0  0  0  0  0  0  0  0  0  0
    6.0420   -5.0840   29.1470 C   0  0  0  0  0  0  0  0  0  0  0  0
    5.1600   -5.9530   28.6310 N   0  0  0  0  0  0  0  0  0  0  0  0
    4.0630   -6.1100   29.4650 C   0  0  0  0  0  0  0  0  0  0  0  0
    2.8280   -5.5390   29.1570 O   0  0  0  0  0  0  0  0  0  0  0  0
    4.2560   -6.9360   30.7460 C   0  0  0  0  0  0  0  0  0  0  0  0
    2.9390   -7.3600   30.9980 C   0  0  0  0  0  0  0  0  0  0  0  0
    2.3890   -8.1740   32.0580 C   0  0  0  0  0  0  0  0  0  0  0  0
    3.6980   -8.4560   32.8670 C   0  0  0  0  0  0  0  0  0  0  0  0
    5.1770   -8.0190   32.6380 C   0  0  0  0  0  0  0  0  0  0  0  0
    6.1110   -8.3490   33.4050 O   0  0  0  0  0  0  0  0  0  0  0  0
    6.1420   -9.5820   34.1160 C   0  0  0  0  0  0  0  0  0  0  0  0
    5.3330   -7.2170   31.4750 C   0  0  0  0  0  0  0  0  0  0  0  0
    4.8910   -5.4520   27.3390 C   0  0  0  0  0  0  0  0  0  0  0  0
    5.9850   -4.8780   26.8440 C   0  0  0  0  0  0  0  0  0  0  0  0
    7.4230   -3.1060   23.8050 C   0  0  0  0  0  0  0  0  0  0  0  0
    7.7050   -3.2750   22.3410 C   0  0  0  0  0  0  0  0  0  0  0  0
  1  2  1  0
  2  3  2  0
  2  4  1  0
  4  5  1  0
  5  6  1  0
  6  7  1  0
  7  8  1  0
  8  9  2  0
  8 10  1  0
 10 11  1  0
 11 12  1  0
 12 13  1  0
 13 14  1  0
 14 15  1  0
 15 16  2  0
 15 17  1  0
 17 18  2  0
 18 19  1  0
 19 20  2  0
 20 21  1  0
 21 22  1  0
 22 23  1  0
 17 24  1  0
 21 24  2  0
 14 25  1  0
 10 26  1  0
 25 26  1  0
  7 27  1  0
  4 28  1  0
 27 28  1  0
M  END
