piperidine-amides-33405-covalent
     RDKit          3D

 30 33  0  0  0  0  0  0  0  0999 V2000
    7.1060   -3.3350   19.3410 C   0  0  0  0  0  0  0  0  0  0  0  0
    6.4390   -4.1730   20.3490 C   0  0  0  0  0  0  0  0  0  0  0  0
    5.3970   -4.7710   19.9790 O   0  0  0  0  0  0  0  0  0  0  0  0
    6.9820   -4.3420   21.6550 N   0  0  0  0  0  0  0  0  0  0  0  0
    7.7140   -3.2530   22.2250 C   0  0  0  0  0  0  0  0  0  0  0  0
    7.3450   -2.9680   23.6040 C   0  0  0  0  0  0  0  0  0  0  0  0
    6.0710   -3.6050   23.9670 C   0  0  0  0  0  0  0  0  0  0  0  0
    5.4580   -3.0820   25.2340 C   0  0  0  0  0  0  0  0  0  0  0  0
    4.3070   -2.6140   25.1670 O   0  0  0  0  0  0  0  0  0  0  0  0
    6.0730   -3.0850   26.5000 N   0  0  0  0  0  0  0  0  0  0  0  0
    6.2640   -1.8840   27.2500 C   0  0  0  0  0  0  0  0  0  0  0  0
    6.9800   -1.7600   28.5340 C   0  0  0  0  0  0  0  0  0  0  0  0
    7.1340   -0.3940   29.3020 C   0  0  0  0  0  0  0  0  0  0  0  0
    6.5070    0.6510   28.6110 C   0  0  0  0  0  0  0  0  0  0  0  0
    6.5370    1.9500   29.1550 N   0  0  0  0  0  0  0  0  0  0  0  0
    5.9540    2.1910   30.4330 C   0  0  0  0  0  0  0  0  0  0  0  0
    5.9310    3.6650   30.7140 C   0  0  0  0  0  0  0  0  0  0  0  0
    5.4810    4.3410   29.5790 O   0  0  0  0  0  0  0  0  0  0  0  0
    6.1170    4.0870   28.4130 C   0  0  0  0  0  0  0  0  0  0  0  0
    7.0520    2.9200   28.2720 C   0  0  0  0  0  0  0  0  0  0  0  0
    5.8280    0.6660   27.4390 C   0  0  0  0  0  0  0  0  0  0  0  0
    5.6780   -0.6300   26.6940 C   0  0  0  0  0  0  0  0  0  0  0  0
    5.8340   -4.3210   27.2150 C   0  0  0  0  0  0  0  0  0  0  0  0
    5.1410   -5.3790   26.5520 N   0  0  0  0  0  0  0  0  0  0  0  0
    4.8740   -6.6520   27.2190 C   0  0  0  0  0  0  0  0  0  0  0  0
    5.3250   -6.7640   28.5070 C   0  0  0  0  0  0  0  0  0  0  0  0
    6.0500   -5.6400   29.1910 C   0  0  0  0  0  0  0  0  0  0  0  0
    6.2310   -4.5340   28.4820 N   0  0  0  0  0  0  0  0  0  0  0  0
    6.1890   -5.0960   23.8500 C   0  0  0  0  0  0  0  0  0  0  0  0
    6.5910   -5.4930   22.4300 C   0  0  0  0  0  0  0  0  0  0  0  0
  1  2  1  0
  2  3  2  0
  2  4  1  0
  4  5  1  0
  5  6  1  0
  6  7  1  0
  7  8  1  0
  8  9  2  0
  8 10  1  0
 10 11  1  0
 11 12  2  0
 12 13  1  0
 13 14  2  0
 14 15  1  0
 15 16  1  0
 16 17  1  0
 17 18  1  0
 18 19  1  0
 15 20  1  0
 19 20  1  0
 14 21  1  0
 11 22  1  0
 21 22  2  0
 10 23  1  0
 23 24  2  0
 24 25  1  0
 25 26  2  0
 26 27  1  0
 23 28  1  0
 27 28  2  0
  7 29  1  0
  4 30  1  0
 29 30  1  0
M  END
