piperidine-amides-31167-covalent
     RDKit          3D

 28 30  0  0  0  0  0  0  0  0999 V2000
    7.0660   -3.3000   19.3000 C   0  0  0  0  0  0  0  0  0  0  0  0
    6.3570   -4.0920   20.3090 C   0  0  0  0  0  0  0  0  0  0  0  0
    5.3540   -4.7340   19.9580 O   0  0  0  0  0  0  0  0  0  0  0  0
    6.8080   -4.1880   21.6460 N   0  0  0  0  0  0  0  0  0  0  0  0
    7.6960   -3.1970   22.2320 C   0  0  0  0  0  0  0  0  0  0  0  0
    7.4800   -3.2480   23.7240 C   0  0  0  0  0  0  0  0  0  0  0  0
    6.0770   -3.6800   24.0250 C   0  0  0  0  0  0  0  0  0  0  0  0
    5.5740   -3.4510   25.4110 C   0  0  0  0  0  0  0  0  0  0  0  0
    4.3330   -3.5900   25.6240 O   0  0  0  0  0  0  0  0  0  0  0  0
    6.3420   -3.0820   26.5460 N   0  0  0  0  0  0  0  0  0  0  0  0
    6.1770   -3.8770   27.7990 C   0  0  0  0  0  0  0  0  0  0  0  0
    5.9260   -5.3090   27.4970 C   0  0  0  0  0  0  0  0  0  0  0  0
    6.5010   -1.6410   26.7640 C   0  0  2  0  0  0  0  0  0  0  0  0
    6.2060   -1.2680   28.1940 C   0  0  0  0  0  0  0  0  0  0  0  0
    7.4200   -1.0900   29.0960 C   0  0  0  0  0  0  0  0  0  0  0  0
    7.1080   -0.7020   30.5090 C   0  0  0  0  0  0  0  0  0  0  0  0
    5.8180   -0.5200   30.9680 C   0  0  0  0  0  0  0  0  0  0  0  0
    5.5400   -0.1680   32.2530 F   0  0  0  0  0  0  0  0  0  0  0  0
    4.7430   -0.7000   30.1100 C   0  0  0  0  0  0  0  0  0  0  0  0
    4.9580   -1.0840   28.6880 C   0  0  0  0  0  0  0  0  0  0  0  0
    5.9030   -0.7980   25.8480 C   0  0  0  0  0  0  0  0  0  0  0  0
    6.4600   -0.3500   24.5410 C   0  0  0  0  0  0  0  0  0  0  0  0
    6.2290    0.3030   23.6180 C   0  0  0  0  0  0  0  0  0  0  0  0
    4.9290    0.7550   24.0590 C   0  0  0  0  0  0  0  0  0  0  0  0
    4.1440    0.6990   24.8990 N   0  0  0  0  0  0  0  0  0  0  0  0
    4.6340   -0.1900   25.9860 C   0  0  0  0  0  0  0  0  0  0  0  0
    5.8260   -5.1040   23.6150 C   0  0  0  0  0  0  0  0  0  0  0  0
    6.6420   -5.4340   22.3710 C   0  0  0  0  0  0  0  0  0  0  0  0
  1  2  1  0
  2  3  2  0
  2  4  1  0
  4  5  1  0
  5  6  1  0
  6  7  1  0
  7  8  1  0
  8  9  2  0
  8 10  1  0
 10 11  1  0
 11 12  1  0
 13 10  1  6
 13 14  1  0
 14 15  2  0
 15 16  1  0
 16 17  2  0
 17 18  1  0
 17 19  1  0
 14 20  1  0
 19 20  2  0
 13 21  1  0
 21 22  2  0
 22 23  1  0
 23 24  2  0
 24 25  1  0
 21 26  1  0
 25 26  2  0
  7 27  1  0
  4 28  1  0
 27 28  1  0
M  END
