piperidine-amides-3019-covalent
     RDKit          3D

 23 25  0  0  0  0  0  0  0  0999 V2000
    7.1510   -3.2800   19.2060 C   0  0  0  0  0  0  0  0  0  0  0  0
    6.3420   -3.9990   20.1790 C   0  0  0  0  0  0  0  0  0  0  0  0
    5.2680   -4.5030   19.8580 O   0  0  0  0  0  0  0  0  0  0  0  0
    6.8280   -4.1590   21.5080 N   0  0  0  0  0  0  0  0  0  0  0  0
    7.6730   -3.1450   22.0830 C   0  0  0  0  0  0  0  0  0  0  0  0
    7.3530   -2.9940   23.5330 C   0  0  0  0  0  0  0  0  0  0  0  0
    5.9870   -3.6230   23.7480 C   0  0  0  0  0  0  0  0  0  0  0  0
    5.4970   -3.3360   25.1080 C   0  0  0  0  0  0  0  0  0  0  0  0
    4.3520   -2.9050   25.3390 O   0  0  0  0  0  0  0  0  0  0  0  0
    6.3730   -3.5790   26.1710 N   0  0  0  0  0  0  0  0  0  0  0  0
    5.7980   -4.0540   27.3940 C   0  0  0  0  0  0  0  0  0  0  0  0
    6.7140   -3.5700   28.4490 C   0  0  1  0  0  0  0  0  0  0  0  0
    8.0290   -3.5990   28.1980 C   0  0  0  0  0  0  0  0  0  0  0  0
    8.0940   -2.2710   27.9670 C   0  0  0  0  0  0  0  0  0  0  0  0
    6.7690   -1.9600   28.2090 C   0  0  2  0  0  0  0  0  0  0  0  0
    6.2830   -1.3560   29.4420 C   0  0  0  0  0  0  0  0  0  0  0  0
    4.9670   -1.3150   29.9170 C   0  0  0  0  0  0  0  0  0  0  0  0
    4.6580   -0.6940   31.1120 C   0  0  0  0  0  0  0  0  0  0  0  0
    5.6040   -0.0850   31.9000 C   0  0  0  0  0  0  0  0  0  0  0  0
    6.9670   -0.1160   31.4310 C   0  0  0  0  0  0  0  0  0  0  0  0
    7.2560   -0.7410   30.2380 C   0  0  0  0  0  0  0  0  0  0  0  0
    6.0280   -5.1110   23.5430 C   0  0  0  0  0  0  0  0  0  0  0  0
    6.5470   -5.3810   22.1750 C   0  0  0  0  0  0  0  0  0  0  0  0
  1  2  1  0
  2  3  2  0
  2  4  1  0
  4  5  1  0
  5  6  1  0
  6  7  1  0
  7  8  1  0
  8  9  2  0
  8 10  1  0
 10 11  1  0
 12 11  1  6
 12 13  1  0
 13 14  1  0
 12 15  1  0
 14 15  1  0
 15 16  1  1
 16 17  2  0
 17 18  1  0
 18 19  2  0
 19 20  1  0
 16 21  1  0
 20 21  2  0
  7 22  1  0
  4 23  1  0
 22 23  1  0
M  END
