piperidine-amides-35229-covalent
     RDKit          3D

 31 33  0  0  0  0  0  0  0  0999 V2000
    6.9890   -3.3480   19.3900 C   0  0  0  0  0  0  0  0  0  0  0  0
    6.3630   -4.2210   20.4230 C   0  0  0  0  0  0  0  0  0  0  0  0
    5.4470   -4.9430   20.0120 O   0  0  0  0  0  0  0  0  0  0  0  0
    6.8130   -4.2340   21.7670 N   0  0  0  0  0  0  0  0  0  0  0  0
    7.7100   -3.2090   22.2920 C   0  0  0  0  0  0  0  0  0  0  0  0
    7.4230   -2.9750   23.7530 C   0  0  0  0  0  0  0  0  0  0  0  0
    6.0600   -3.5790   24.0260 C   0  0  0  0  0  0  0  0  0  0  0  0
    5.4880   -3.2440   25.3750 C   0  0  0  0  0  0  0  0  0  0  0  0
    4.2650   -3.0750   25.4160 O   0  0  0  0  0  0  0  0  0  0  0  0
    6.2010   -3.0960   26.6030 N   0  0  0  0  0  0  0  0  0  0  0  0
    5.6610   -3.8940   27.7210 C   0  0  0  0  0  0  0  0  0  0  0  0
    4.4840   -3.6250   28.3940 N   0  0  0  0  0  0  0  0  0  0  0  0
    4.1700   -4.4910   29.3610 C   0  0  0  0  0  0  0  0  0  0  0  0
    3.2610   -4.8420   30.3340 C   0  0  0  0  0  0  0  0  0  0  0  0
    2.3490   -3.8000   30.4230 F   0  0  0  0  0  0  0  0  0  0  0  0
    3.7740   -5.2340   31.5640 F   0  0  0  0  0  0  0  0  0  0  0  0
    2.4220   -5.9520   29.9490 F   0  0  0  0  0  0  0  0  0  0  0  0
    5.0270   -5.5830   29.6340 C   0  0  0  0  0  0  0  0  0  0  0  0
    5.1720   -6.6970   30.4460 C   0  0  0  0  0  0  0  0  0  0  0  0
    4.8360   -7.9440   30.0240 O   0  0  0  0  0  0  0  0  0  0  0  0
    5.6890   -6.4940   31.7170 O   0  0  0  0  0  0  0  0  0  0  0  0
    5.0640   -7.0300   32.8610 C   0  0  0  0  0  0  0  0  0  0  0  0
    5.6230   -8.3610   33.2450 C   0  0  0  0  0  0  0  0  0  0  0  0
    6.3010   -5.3870   28.5130 S   0  0  0  0  0  0  0  0  0  0  0  0
    6.6220   -1.7360   26.9470 C   0  0  0  0  0  0  0  0  0  0  0  0
    5.7300   -0.5820   26.5580 C   0  0  0  0  0  0  0  0  0  0  0  0
    5.8000    0.4180   27.6430 C   0  0  0  0  0  0  0  0  0  0  0  0
    6.4480   -0.2460   28.8190 C   0  0  0  0  0  0  0  0  0  0  0  0
    6.9320   -1.6000   28.4360 C   0  0  0  0  0  0  0  0  0  0  0  0
    6.0930   -5.0870   23.8050 C   0  0  0  0  0  0  0  0  0  0  0  0
    6.6500   -5.4410   22.5750 C   0  0  0  0  0  0  0  0  0  0  0  0
  1  2  1  0
  2  3  2  0
  2  4  1  0
  4  5  1  0
  5  6  1  0
  6  7  1  0
  7  8  1  0
  8  9  2  0
  8 10  1  0
 10 11  1  0
 11 12  2  0
 12 13  1  0
 13 14  1  0
 14 15  1  0
 14 16  1  0
 14 17  1  0
 13 18  2  0
 18 19  1  0
 19 20  2  0
 19 21  1  0
 21 22  1  0
 22 23  1  0
 11 24  1  0
 18 24  1  0
 10 25  1  0
 25 26  1  0
 26 27  1  0
 27 28  1  0
 25 29  1  0
 28 29  1  0
  7 30  1  0
  4 31  1  0
 30 31  1  0
M  END
