piperidine-amides-6622-covalent
     RDKit          3D

 24 25  0  0  0  0  0  0  0  0999 V2000
    7.0600   -3.3320   19.2960 C   0  0  0  0  0  0  0  0  0  0  0  0
    6.4000   -4.1750   20.3000 C   0  0  0  0  0  0  0  0  0  0  0  0
    5.3840   -4.8320   19.9840 O   0  0  0  0  0  0  0  0  0  0  0  0
    6.9310   -4.2900   21.5950 N   0  0  0  0  0  0  0  0  0  0  0  0
    7.6930   -3.1900   22.1360 C   0  0  0  0  0  0  0  0  0  0  0  0
    6.8280   -2.6130   23.2480 C   0  0  0  0  0  0  0  0  0  0  0  0
    6.6060   -3.7490   24.2130 C   0  0  0  0  0  0  0  0  0  0  0  0
    5.8240   -3.2470   25.3580 C   0  0  0  0  0  0  0  0  0  0  0  0
    4.6090   -3.0060   25.1900 O   0  0  0  0  0  0  0  0  0  0  0  0
    6.4560   -3.0610   26.6080 N   0  0  0  0  0  0  0  0  0  0  0  0
    6.4380   -1.7830   27.2730 C   0  0  0  0  0  0  0  0  0  0  0  0
    5.8970   -0.6210   26.4560 C   0  0  0  0  0  0  0  0  0  0  0  0
    5.8160    0.6550   26.9660 C   0  0  0  0  0  0  0  0  0  0  0  0
    5.3180    1.6470   26.1660 C   0  0  0  0  0  0  0  0  0  0  0  0
    6.2370    0.8640   28.2430 C   0  0  0  0  0  0  0  0  0  0  0  0
    6.2180    2.0800   28.8890 C   0  0  0  0  0  0  0  0  0  0  0  0
    6.7880   -0.2600   29.1080 C   0  0  0  0  0  0  0  0  0  0  0  0
    7.2620   -0.0740   30.5220 C   0  0  0  0  0  0  0  0  0  0  0  0
    8.4360    0.3680   30.4820 O   0  0  0  0  0  0  0  0  0  0  0  0
    6.6150   -0.2800   31.6050 O   0  0  0  0  0  0  0  0  0  0  0  0
    7.1000    0.2660   32.8160 C   0  0  0  0  0  0  0  0  0  0  0  0
    6.8690   -1.5740   28.5650 C   0  0  0  0  0  0  0  0  0  0  0  0
    5.8360   -4.8610   23.5480 C   0  0  0  0  0  0  0  0  0  0  0  0
    6.4730   -5.3430   22.4360 C   0  0  0  0  0  0  0  0  0  0  0  0
  1  2  1  0
  2  3  2  0
  2  4  1  0
  4  5  1  0
  5  6  1  0
  6  7  1  0
  7  8  1  0
  8  9  2  0
  8 10  1  0
 10 11  1  0
 11 12  2  0
 12 13  1  0
 13 14  1  0
 13 15  2  0
 15 16  1  0
 15 17  1  0
 17 18  1  0
 18 19  2  0
 18 20  1  0
 20 21  1  0
 11 22  1  0
 17 22  2  0
  7 23  1  0
  4 24  1  0
 23 24  1  0
M  END
