piperidine-amides-24470-covalent
     RDKit          3D

 24 26  0  0  0  0  0  0  0  0999 V2000
    7.0480   -3.3410   19.3500 C   0  0  0  0  0  0  0  0  0  0  0  0
    6.3880   -4.2100   20.3390 C   0  0  0  0  0  0  0  0  0  0  0  0
    5.3820   -4.8670   19.9910 O   0  0  0  0  0  0  0  0  0  0  0  0
    6.8910   -4.3590   21.6430 N   0  0  0  0  0  0  0  0  0  0  0  0
    6.6560   -5.6270   22.3200 C   0  0  0  0  0  0  0  0  0  0  0  0
    6.3840   -5.3250   23.8030 C   0  0  0  0  0  0  0  0  0  0  0  0
    6.1280   -3.8470   23.8720 C   0  0  0  0  0  0  0  0  0  0  0  0
    5.5340   -3.4000   25.1540 C   0  0  0  0  0  0  0  0  0  0  0  0
    4.5960   -2.5880   25.0670 O   0  0  0  0  0  0  0  0  0  0  0  0
    5.9470   -3.8590   26.4290 N   0  0  0  0  0  0  0  0  0  0  0  0
    6.7530   -5.0750   26.5240 C   0  0  0  0  0  0  0  0  0  0  0  0
    6.7260   -5.5540   27.9260 C   0  0  0  0  0  0  0  0  0  0  0  0
    5.8950   -4.7720   28.5990 C   0  0  0  0  0  0  0  0  0  0  0  0
    5.2450   -3.9100   27.7450 C   0  0  1  0  0  0  0  0  0  0  0  0
    5.0780   -2.5470   28.0750 C   0  0  0  0  0  0  0  0  0  0  0  0
    5.3250   -1.5280   27.2530 C   0  0  0  0  0  0  0  0  0  0  0  0
    5.1830   -0.0580   27.5160 C   0  0  0  0  0  0  0  0  0  0  0  0
    4.6770   -0.0960   28.9860 C   0  0  0  0  0  0  0  0  0  0  0  0
    4.4850    1.1750   29.4160 F   0  0  0  0  0  0  0  0  0  0  0  0
    4.3370   -1.1410   30.0780 C   0  0  0  0  0  0  0  0  0  0  0  0
    3.8960   -0.9910   31.3400 F   0  0  0  0  0  0  0  0  0  0  0  0
    4.6390   -2.3530   29.3250 C   0  0  0  0  0  0  0  0  0  0  0  0
    7.4010   -3.1340   23.5600 C   0  0  0  0  0  0  0  0  0  0  0  0
    7.6650   -3.2980   22.2330 C   0  0  0  0  0  0  0  0  0  0  0  0
  1  2  1  0
  2  3  2  0
  2  4  1  0
  4  5  1  0
  5  6  1  0
  6  7  1  0
  7  8  1  0
  8  9  2  0
  8 10  1  0
 10 11  1  0
 11 12  1  0
 12 13  1  0
 10 14  1  0
 13 14  1  0
 14 15  1  1
 15 16  2  0
 16 17  1  0
 17 18  2  0
 18 19  1  0
 18 20  1  0
 20 21  1  0
 15 22  1  0
 20 22  2  0
  7 23  1  0
  4 24  1  0
 23 24  1  0
M  END
