piperidine-amides-30773-covalent
     RDKit          3D

 28 31  0  0  0  0  0  0  0  0999 V2000
    7.0470   -3.3100   19.2520 C   0  0  0  0  0  0  0  0  0  0  0  0
    6.2450   -4.0660   20.2180 C   0  0  0  0  0  0  0  0  0  0  0  0
    5.1890   -4.5900   19.8650 O   0  0  0  0  0  0  0  0  0  0  0  0
    6.6670   -4.2580   21.5300 N   0  0  0  0  0  0  0  0  0  0  0  0
    6.3460   -5.4710   22.2550 C   0  0  0  0  0  0  0  0  0  0  0  0
    5.5970   -5.0280   23.4900 C   0  0  0  0  0  0  0  0  0  0  0  0
    6.3650   -3.9490   24.1760 C   0  0  0  0  0  0  0  0  0  0  0  0
    5.7090   -3.3890   25.3830 C   0  0  0  0  0  0  0  0  0  0  0  0
    4.4960   -3.0170   25.3790 O   0  0  0  0  0  0  0  0  0  0  0  0
    6.4550   -3.2670   26.5720 N   0  0  0  0  0  0  0  0  0  0  0  0
    7.6680   -4.1130   26.5600 C   0  0  0  0  0  0  0  0  0  0  0  0
    8.4850   -3.3870   25.5780 C   0  0  0  0  0  0  0  0  0  0  0  0
    9.0190   -2.0930   25.7440 C   0  0  0  0  0  0  0  0  0  0  0  0
    9.7740   -1.6370   24.5720 N   0  0  0  0  0  0  0  0  0  0  0  0
    9.6890   -2.6530   23.7320 N   0  0  0  0  0  0  0  0  0  0  0  0
   10.3320   -2.4550   22.5370 C   0  0  0  0  0  0  0  0  0  0  0  0
    8.9710   -3.6810   24.2360 C   0  0  0  0  0  0  0  0  0  0  0  0
    6.4610   -1.9830   27.2480 C   0  0  0  0  0  0  0  0  0  0  0  0
    5.8340   -0.9310   26.5610 C   0  0  0  0  0  0  0  0  0  0  0  0
    5.8030    0.3240   27.1780 C   0  0  0  0  0  0  0  0  0  0  0  0
    6.4430    0.4220   28.5150 C   0  0  0  0  0  0  0  0  0  0  0  0
    6.6350    1.5070   29.5000 C   0  0  0  0  0  0  0  0  0  0  0  0
    7.2960    1.0300   30.5630 N   0  0  0  0  0  0  0  0  0  0  0  0
    7.5590   -0.2990   30.3530 N   0  0  0  0  0  0  0  0  0  0  0  0
    7.0800   -0.7750   29.1320 C   0  0  0  0  0  0  0  0  0  0  0  0
    7.0510   -1.8160   28.5050 C   0  0  0  0  0  0  0  0  0  0  0  0
    6.7660   -2.8200   23.3180 C   0  0  0  0  0  0  0  0  0  0  0  0
    7.4300   -3.2570   22.1960 C   0  0  0  0  0  0  0  0  0  0  0  0
  1  2  1  0
  2  3  2  0
  2  4  1  0
  4  5  1  0
  5  6  1  0
  6  7  1  0
  7  8  1  0
  8  9  2  0
  8 10  1  0
 10 11  1  0
 11 12  1  0
 12 13  1  0
 13 14  2  0
 14 15  1  0
 15 16  1  0
 12 17  2  0
 15 17  1  0
 10 18  1  0
 18 19  1  0
 19 20  2  0
 20 21  1  0
 21 22  2  0
 22 23  1  0
 23 24  1  0
 21 25  1  0
 24 25  2  0
 18 26  2  0
 25 26  1  0
  7 27  1  0
  4 28  1  0
 27 28  1  0
M  END
