piperidine-amides-28809-covalent
     RDKit          3D

 27 30  0  0  0  0  0  0  0  0999 V2000
    6.9800   -3.3530   19.4150 C   0  0  0  0  0  0  0  0  0  0  0  0
    6.3430   -4.2130   20.4150 C   0  0  0  0  0  0  0  0  0  0  0  0
    5.4230   -4.9520   20.0090 O   0  0  0  0  0  0  0  0  0  0  0  0
    6.7780   -4.2340   21.7790 N   0  0  0  0  0  0  0  0  0  0  0  0
    6.3800   -5.3100   22.6340 C   0  0  0  0  0  0  0  0  0  0  0  0
    5.3960   -4.8280   23.6830 C   0  0  0  0  0  0  0  0  0  0  0  0
    5.8890   -3.5350   24.3400 C   0  0  0  0  0  0  0  0  0  0  0  0
    4.7230   -2.9020   25.1310 C   0  0  0  0  0  0  0  0  0  0  0  0
    3.6280   -3.1080   24.6290 O   0  0  0  0  0  0  0  0  0  0  0  0
    4.8660   -2.1510   26.3530 N   0  0  0  0  0  0  0  0  0  0  0  0
    5.6470   -0.9480   26.3350 C   0  0  0  0  0  0  0  0  0  0  0  0
    5.4600    0.0850   27.0270 C   0  0  0  0  0  0  0  0  0  0  0  0
    6.4010   -0.7420   27.6940 C   0  0  0  0  0  0  0  0  0  0  0  0
    5.1390   -2.9850   27.4700 C   0  0  1  0  0  0  0  0  0  0  0  0
    4.2590   -4.1600   27.7430 C   0  0  0  0  0  0  0  0  0  0  0  0
    6.2460   -3.2440   26.9840 C   0  0  0  0  0  0  0  0  0  0  0  0
    6.8780   -2.2530   26.0580 C   0  0  0  0  0  0  0  0  0  0  0  0
    8.1460   -2.6700   25.4680 C   0  0  0  0  0  0  0  0  0  0  0  0
    8.6090   -4.0310   25.8960 C   0  0  0  0  0  0  0  0  0  0  0  0
    9.7400   -4.4520   25.3810 C   0  0  0  0  0  0  0  0  0  0  0  0
   10.2740   -5.6120   25.6940 C   0  0  0  0  0  0  0  0  0  0  0  0
    9.6590   -6.5250   26.5820 C   0  0  0  0  0  0  0  0  0  0  0  0
    8.4440   -6.1510   27.1750 C   0  0  0  0  0  0  0  0  0  0  0  0
    7.9600   -4.8560   26.7760 C   0  0  0  0  0  0  0  0  0  0  0  0
    6.7330   -4.4170   27.3250 C   0  0  0  0  0  0  0  0  0  0  0  0
    6.4720   -2.5250   23.3730 C   0  0  0  0  0  0  0  0  0  0  0  0
    7.4480   -3.1060   22.3620 C   0  0  0  0  0  0  0  0  0  0  0  0
  1  2  1  0
  2  3  2  0
  2  4  1  0
  4  5  1  0
  5  6  1  0
  6  7  1  0
  7  8  1  0
  8  9  2  0
  8 10  1  0
 10 11  1  0
 11 12  1  0
 11 13  1  0
 12 13  1  0
 10 14  1  0
 14 15  1  6
 14 16  1  0
 16 17  2  0
 17 18  1  0
 18 19  2  0
 19 20  1  0
 20 21  2  0
 21 22  1  0
 22 23  2  0
 19 24  1  0
 23 24  1  0
 16 25  1  0
 24 25  2  0
  7 26  1  0
  4 27  1  0
 26 27  1  0
M  END
