piperidine-amides-23946-covalent
     RDKit          3D

 24 26  0  0  0  0  0  0  0  0999 V2000
    7.0960   -3.3990   19.4010 C   0  0  0  0  0  0  0  0  0  0  0  0
    6.4160   -4.2470   20.3890 C   0  0  0  0  0  0  0  0  0  0  0  0
    5.3940   -4.8640   19.9940 O   0  0  0  0  0  0  0  0  0  0  0  0
    6.9390   -4.3890   21.7050 N   0  0  0  0  0  0  0  0  0  0  0  0
    6.5920   -5.5540   22.4620 C   0  0  0  0  0  0  0  0  0  0  0  0
    6.2730   -5.2470   23.8550 C   0  0  0  0  0  0  0  0  0  0  0  0
    6.3420   -3.8020   24.1150 C   0  0  0  0  0  0  0  0  0  0  0  0
    5.6820   -3.2770   25.3630 C   0  0  0  0  0  0  0  0  0  0  0  0
    4.9020   -2.3260   25.1880 O   0  0  0  0  0  0  0  0  0  0  0  0
    5.7790   -3.7150   26.7100 N   0  0  0  0  0  0  0  0  0  0  0  0
    6.3970   -2.8710   27.6260 C   0  0  0  0  0  0  0  0  0  0  0  0
    6.7780   -3.7270   28.6180 C   0  0  0  0  0  0  0  0  0  0  0  0
    6.4590   -4.7680   28.0400 O   0  0  0  0  0  0  0  0  0  0  0  0
    5.2100   -5.0170   28.4260 C   0  0  0  0  0  0  0  0  0  0  0  0
    6.0600   -5.6690   29.2170 C   0  0  0  0  0  0  0  0  0  0  0  0
    4.9620   -6.2780   30.0840 C   0  0  0  0  0  0  0  0  0  0  0  0
    5.0670   -7.1490   31.2300 N   0  0  0  0  0  0  0  0  0  0  0  0
    6.1430   -7.1830   32.0490 O   0  0  0  0  0  0  0  0  0  0  0  0
    3.9010   -7.6600   31.7410 O   0  0  0  0  0  0  0  0  0  0  0  0
    3.5870   -5.8180   29.5650 C   0  0  0  0  0  0  0  0  0  0  0  0
    3.5630   -4.8470   28.3060 C   0  0  0  0  0  0  0  0  0  0  0  0
    4.5470   -4.1500   27.3470 C   0  0  0  0  0  0  0  0  0  0  0  0
    7.7100   -3.2820   23.7740 C   0  0  0  0  0  0  0  0  0  0  0  0
    7.7450   -3.3060   22.2360 C   0  0  0  0  0  0  0  0  0  0  0  0
  1  2  1  0
  2  3  2  0
  2  4  1  0
  4  5  1  0
  5  6  1  0
  6  7  1  0
  7  8  1  0
  8  9  2  0
  8 10  1  0
 10 11  1  0
 11 12  1  0
 12 13  1  0
 13 14  1  0
 14 15  2  0
 15 16  1  0
 16 17  1  0
 17 18  2  0
 17 19  1  0
 16 20  2  0
 20 21  1  0
 10 22  1  0
 14 22  1  0
 21 22  2  0
  7 23  1  0
  4 24  1  0
 23 24  1  0
M  CHG  2  17   1  19  -1
M  END
