piperidine-amides-11817-covalent
     RDKit          3D

 27 29  0  0  0  0  0  0  0  0999 V2000
    7.1020   -3.2880   19.2450 C   0  0  0  0  0  0  0  0  0  0  0  0
    6.2840   -4.0330   20.1960 C   0  0  0  0  0  0  0  0  0  0  0  0
    5.2240   -4.5400   19.8600 O   0  0  0  0  0  0  0  0  0  0  0  0
    6.7590   -4.2150   21.5280 N   0  0  0  0  0  0  0  0  0  0  0  0
    7.6140   -3.2210   22.1030 C   0  0  0  0  0  0  0  0  0  0  0  0
    7.3470   -3.1610   23.5650 C   0  0  0  0  0  0  0  0  0  0  0  0
    5.9310   -3.5950   23.7950 C   0  0  0  0  0  0  0  0  0  0  0  0
    5.5460   -3.3080   25.2070 C   0  0  0  0  0  0  0  0  0  0  0  0
    4.3970   -2.9320   25.5070 O   0  0  0  0  0  0  0  0  0  0  0  0
    6.5100   -3.4540   26.2310 N   0  0  0  0  0  0  0  0  0  0  0  0
    6.3540   -2.6310   27.4050 C   0  0  0  0  0  0  0  0  0  0  0  0
    6.4810   -3.4690   28.6550 C   0  0  0  0  0  0  0  0  0  0  0  0
    5.4410   -4.3020   29.0090 C   0  0  0  0  0  0  0  0  0  0  0  0
    4.9590   -5.2260   28.1000 C   0  0  0  0  0  0  0  0  0  0  0  0
    3.7600   -5.7120   27.7540 C   0  0  0  0  0  0  0  0  0  0  0  0
    3.9240   -6.6560   26.7130 N   0  0  0  0  0  0  0  0  0  0  0  0
    3.0230   -7.4670   25.9590 C   0  0  0  0  0  0  0  0  0  0  0  0
    2.2280   -8.2300   26.8010 C   0  0  0  0  0  0  0  0  0  0  0  0
    1.2870   -9.0920   26.2880 C   0  0  0  0  0  0  0  0  0  0  0  0
    1.1020   -9.2280   24.9350 C   0  0  0  0  0  0  0  0  0  0  0  0
    1.9390   -8.4240   24.0620 C   0  0  0  0  0  0  0  0  0  0  0  0
    2.8880   -7.5550   24.5710 C   0  0  0  0  0  0  0  0  0  0  0  0
    5.2200   -6.7940   26.3830 N   0  0  0  0  0  0  0  0  0  0  0  0
    5.9440   -5.9060   27.2320 C   0  0  0  0  0  0  0  0  0  0  0  0
    7.4320   -5.7790   27.1490 C   0  0  0  0  0  0  0  0  0  0  0  0
    5.7160   -5.0520   23.5270 C   0  0  0  0  0  0  0  0  0  0  0  0
    6.4560   -5.4150   22.2500 C   0  0  0  0  0  0  0  0  0  0  0  0
  1  2  1  0
  2  3  2  0
  2  4  1  0
  4  5  1  0
  5  6  1  0
  6  7  1  0
  7  8  1  0
  8  9  2  0
  8 10  1  0
 10 11  1  0
 11 12  1  0
 12 13  1  0
 13 14  1  0
 14 15  2  0
 15 16  1  0
 16 17  1  0
 17 18  2  0
 18 19  1  0
 19 20  2  0
 20 21  1  0
 17 22  1  0
 21 22  2  0
 16 23  1  0
 14 24  1  0
 23 24  2  0
 24 25  1  0
  7 26  1  0
  4 27  1  0
 26 27  1  0
M  END
