piperidine-amides-34870-covalent
     RDKit          3D

 32 34  0  0  0  0  0  0  0  0999 V2000
    7.0420   -3.2930   19.3020 C   0  0  0  0  0  0  0  0  0  0  0  0
    6.3610   -4.1420   20.3130 C   0  0  0  0  0  0  0  0  0  0  0  0
    5.3550   -4.7480   19.9490 O   0  0  0  0  0  0  0  0  0  0  0  0
    6.8820   -4.2600   21.6060 N   0  0  0  0  0  0  0  0  0  0  0  0
    6.6430   -5.4420   22.3930 C   0  0  0  0  0  0  0  0  0  0  0  0
    6.1040   -5.0270   23.7370 C   0  0  0  0  0  0  0  0  0  0  0  0
    6.2780   -3.5130   23.8840 C   0  0  0  0  0  0  0  0  0  0  0  0
    5.9340   -3.0870   25.2560 C   0  0  0  0  0  0  0  0  0  0  0  0
    5.0950   -3.7090   25.9230 O   0  0  0  0  0  0  0  0  0  0  0  0
    6.5570   -1.9230   25.7540 N   0  0  0  0  0  0  0  0  0  0  0  0
    6.6120   -1.6180   27.1610 C   0  0  0  0  0  0  0  0  0  0  0  0
    7.3910   -2.6670   27.8540 C   0  0  0  0  0  0  0  0  0  0  0  0
    6.7370   -3.7480   28.2650 C   0  0  0  0  0  0  0  0  0  0  0  0
    5.5710   -3.8930   28.9390 C   0  0  0  0  0  0  0  0  0  0  0  0
    5.2240   -5.1970   29.1760 C   0  0  0  0  0  0  0  0  0  0  0  0
    5.9800   -6.4360   28.7720 C   0  0  0  0  0  0  0  0  0  0  0  0
    5.5550   -7.7040   29.0490 O   0  0  0  0  0  0  0  0  0  0  0  0
    4.4070   -7.8080   29.8420 C   0  0  0  0  0  0  0  0  0  0  0  0
    7.2300   -6.0720   28.0370 C   0  0  0  0  0  0  0  0  0  0  0  0
    8.2100   -6.8240   27.4770 O   0  0  0  0  0  0  0  0  0  0  0  0
    9.3050   -6.2250   26.8460 C   0  0  0  0  0  0  0  0  0  0  0  0
    7.5890   -4.6740   27.7970 C   0  0  0  0  0  0  0  0  0  0  0  0
    6.2510   -0.6170   25.1660 C   0  0  0  0  0  0  0  0  0  0  0  0
    5.4980    0.3530   26.0230 C   0  0  0  0  0  0  0  0  0  0  0  0
    5.9370    1.1610   27.1670 C   0  0  0  0  0  0  0  0  0  0  0  0
    4.9390    1.9140   27.6630 C   0  0  0  0  0  0  0  0  0  0  0  0
    3.8490    1.6590   26.9170 N   0  0  0  0  0  0  0  0  0  0  0  0
    4.1990    0.7500   25.9700 N   0  0  0  0  0  0  0  0  0  0  0  0
    3.2950    0.2250   24.9770 C   0  0  0  0  0  0  0  0  0  0  0  0
    3.9430    0.4690   23.6060 C   0  0  0  0  0  0  0  0  0  0  0  0
    7.7070   -3.1850   23.5050 C   0  0  0  0  0  0  0  0  0  0  0  0
    7.8040   -3.2840   22.1540 C   0  0  0  0  0  0  0  0  0  0  0  0
  1  2  1  0
  2  3  2  0
  2  4  1  0
  4  5  1  0
  5  6  1  0
  6  7  1  0
  7  8  1  0
  8  9  2  0
  8 10  1  0
 10 11  1  0
 11 12  1  0
 12 13  1  0
 13 14  2  0
 14 15  1  0
 15 16  2  0
 16 17  1  0
 17 18  1  0
 16 19  1  0
 19 20  1  0
 20 21  1  0
 13 22  1  0
 19 22  2  0
 10 23  1  0
 23 24  1  0
 24 25  2  0
 25 26  1  0
 26 27  2  0
 24 28  1  0
 27 28  1  0
 28 29  1  0
 29 30  1  0
  7 31  1  0
  4 32  1  0
 31 32  1  0
M  END
