piperidine-amides-8177-covalent
     RDKit          3D

 25 27  0  0  0  0  0  0  0  0999 V2000
    7.0540   -3.3820   19.4080 C   0  0  0  0  0  0  0  0  0  0  0  0
    6.3780   -4.3210   20.2980 C   0  0  0  0  0  0  0  0  0  0  0  0
    5.2800   -4.7660   19.9450 O   0  0  0  0  0  0  0  0  0  0  0  0
    7.0000   -4.7590   21.4930 N   0  0  0  0  0  0  0  0  0  0  0  0
    7.5130   -3.7470   22.3180 C   0  0  0  0  0  0  0  0  0  0  0  0
    6.3350   -3.2090   23.0490 C   0  0  0  0  0  0  0  0  0  0  0  0
    5.8340   -4.2950   23.9910 C   0  0  0  0  0  0  0  0  0  0  0  0
    4.5790   -3.7800   24.6110 C   0  0  0  0  0  0  0  0  0  0  0  0
    3.8370   -3.1620   23.8670 O   0  0  0  0  0  0  0  0  0  0  0  0
    4.3100   -3.9640   25.9530 N   0  0  0  0  0  0  0  0  0  0  0  0
    4.3810   -2.7800   26.6870 C   0  0  0  0  0  0  0  0  0  0  0  0
    5.6030   -2.2970   26.4240 C   0  0  0  0  0  0  0  0  0  0  0  0
    6.3370   -1.6230   27.2730 C   0  0  0  0  0  0  0  0  0  0  0  0
    7.4520   -1.3770   26.6650 C   0  0  0  0  0  0  0  0  0  0  0  0
    7.5560   -1.8600   25.3370 N   0  0  0  0  0  0  0  0  0  0  0  0
    8.6930   -1.8330   24.2930 C   0  0  0  0  0  0  0  0  0  0  0  0
   10.1490   -1.4650   24.7320 C   0  0  0  0  0  0  0  0  0  0  0  0
   11.3350   -1.4560   23.8770 C   0  0  0  0  0  0  0  0  0  0  0  0
   11.2190   -1.8160   22.4600 C   0  0  0  0  0  0  0  0  0  0  0  0
   12.5980   -1.8620   21.3850 Cl  0  0  0  0  0  0  0  0  0  0  0  0
    9.7580   -2.1440   22.0680 C   0  0  0  0  0  0  0  0  0  0  0  0
    8.5890   -2.1700   22.8190 C   0  0  0  0  0  0  0  0  0  0  0  0
    6.3470   -2.4210   25.2490 N   0  0  0  0  0  0  0  0  0  0  0  0
    5.4470   -5.5110   23.1940 C   0  0  0  0  0  0  0  0  0  0  0  0
    6.3970   -5.9060   22.0980 C   0  0  0  0  0  0  0  0  0  0  0  0
  1  2  1  0
  2  3  2  0
  2  4  1  0
  4  5  1  0
  5  6  1  0
  6  7  1  0
  7  8  1  0
  8  9  2  0
  8 10  1  0
 10 11  1  0
 11 12  1  0
 12 13  1  0
 13 14  2  0
 14 15  1  0
 15 16  1  0
 16 17  2  0
 17 18  1  0
 18 19  2  0
 19 20  1  0
 19 21  1  0
 16 22  1  0
 21 22  2  0
 12 23  2  0
 15 23  1  0
  7 24  1  0
  4 25  1  0
 24 25  1  0
M  END
