piperidine-amides-24168-covalent
     RDKit          3D

 24 26  0  0  0  0  0  0  0  0999 V2000
    7.1950   -3.3500   19.3000 C   0  0  0  0  0  0  0  0  0  0  0  0
    6.4620   -4.1750   20.2510 C   0  0  0  0  0  0  0  0  0  0  0  0
    5.3650   -4.7000   19.9490 O   0  0  0  0  0  0  0  0  0  0  0  0
    7.0580   -4.4360   21.4860 N   0  0  0  0  0  0  0  0  0  0  0  0
    6.6790   -5.6050   22.2210 C   0  0  0  0  0  0  0  0  0  0  0  0
    5.8470   -5.0800   23.3830 C   0  0  0  0  0  0  0  0  0  0  0  0
    6.6260   -3.9310   23.9960 C   0  0  0  0  0  0  0  0  0  0  0  0
    5.8060   -3.3290   25.0210 C   0  0  0  0  0  0  0  0  0  0  0  0
    5.0290   -2.4020   24.7210 O   0  0  0  0  0  0  0  0  0  0  0  0
    5.8800   -3.8110   26.3030 N   0  0  0  0  0  0  0  0  0  0  0  0
    4.6150   -4.0880   26.9090 C   0  0  0  0  0  0  0  0  0  0  0  0
    4.8120   -5.0830   28.0080 C   0  0  0  0  0  0  0  0  0  0  0  0
    5.4510   -4.6000   29.0590 C   0  0  0  0  0  0  0  0  0  0  0  0
    5.5170   -5.4000   30.0360 O   0  0  0  0  0  0  0  0  0  0  0  0
    4.8490   -3.3670   29.3170 C   0  0  0  0  0  0  0  0  0  0  0  0
    3.4370   -3.1910   29.4440 N   0  0  0  0  0  0  0  0  0  0  0  0
    3.1900   -1.8340   29.7060 C   0  0  0  0  0  0  0  0  0  0  0  0
    4.4420   -1.2510   29.7270 C   0  0  0  0  0  0  0  0  0  0  0  0
    5.3800   -2.1520   29.5020 N   0  0  0  0  0  0  0  0  0  0  0  0
    6.6840   -1.7860   29.4780 C   0  0  0  0  0  0  0  0  0  0  0  0
    6.6230   -4.4590   28.4410 C   0  0  0  0  0  0  0  0  0  0  0  0
    6.3060   -3.3120   27.5470 C   0  0  0  0  0  0  0  0  0  0  0  0
    6.9590   -2.8360   23.0280 C   0  0  0  0  0  0  0  0  0  0  0  0
    7.8360   -3.4220   22.1430 C   0  0  0  0  0  0  0  0  0  0  0  0
  1  2  1  0
  2  3  2  0
  2  4  1  0
  4  5  1  0
  5  6  1  0
  6  7  1  0
  7  8  1  0
  8  9  2  0
  8 10  1  0
 10 11  1  0
 11 12  1  0
 12 13  1  0
 13 14  1  0
 13 15  1  0
 15 16  2  0
 16 17  1  0
 17 18  2  0
 15 19  1  0
 18 19  1  0
 19 20  1  0
 13 21  1  0
 10 22  1  0
 21 22  1  0
  7 23  1  0
  4 24  1  0
 23 24  1  0
M  END
