piperidine-amides-31555-covalent
     RDKit          3D

 28 30  0  0  0  0  0  0  0  0999 V2000
    7.0390   -3.4510   19.4390 C   0  0  0  0  0  0  0  0  0  0  0  0
    6.3670   -4.2700   20.4200 C   0  0  0  0  0  0  0  0  0  0  0  0
    5.3850   -4.9600   20.0070 O   0  0  0  0  0  0  0  0  0  0  0  0
    6.7830   -4.3720   21.7690 N   0  0  0  0  0  0  0  0  0  0  0  0
    6.4600   -5.6250   22.4800 C   0  0  0  0  0  0  0  0  0  0  0  0
    5.4360   -5.0590   23.5410 C   0  0  0  0  0  0  0  0  0  0  0  0
    6.2690   -4.2280   24.4930 C   0  0  0  0  0  0  0  0  0  0  0  0
    5.4070   -3.1310   25.2900 C   0  0  0  0  0  0  0  0  0  0  0  0
    5.1450   -2.2330   24.5190 O   0  0  0  0  0  0  0  0  0  0  0  0
    5.1560   -3.4080   26.5390 N   0  0  0  0  0  0  0  0  0  0  0  0
    4.4360   -3.5440   27.6760 C   0  0  0  0  0  0  0  0  0  0  0  0
    4.7240   -3.7680   28.9790 C   0  0  0  0  0  0  0  0  0  0  0  0
    5.5730   -4.8530   29.0090 C   0  0  0  0  0  0  0  0  0  0  0  0
    4.8720   -6.1520   28.8680 C   0  0  0  0  0  0  0  0  0  0  0  0
    5.9670   -6.8470   29.6760 C   0  0  0  0  0  0  0  0  0  0  0  0
    5.2460   -6.8360   30.8870 C   0  0  0  0  0  0  0  0  0  0  0  0
    4.1320   -5.8930   30.9930 C   0  0  0  0  0  0  0  0  0  0  0  0
    3.6300   -6.2040   32.4310 C   0  0  0  0  0  0  0  0  0  0  0  0
    4.1540   -7.2180   33.4610 C   0  0  0  0  0  0  0  0  0  0  0  0
    3.7260   -7.4470   34.6180 O   0  0  0  0  0  0  0  0  0  0  0  0
    3.5920   -6.4400   35.5940 C   0  0  0  0  0  0  0  0  0  0  0  0
    3.8850   -5.1480   35.2410 C   0  0  0  0  0  0  0  0  0  0  0  0
    5.2850   -7.9970   33.0240 C   0  0  0  0  0  0  0  0  0  0  0  0
    5.7550   -7.7640   31.7830 C   0  0  0  0  0  0  0  0  0  0  0  0
    6.5730   -4.6770   28.0960 C   0  0  0  0  0  0  0  0  0  0  0  0
    6.4150   -3.3930   27.2540 C   0  0  0  0  0  0  0  0  0  0  0  0
    7.5330   -3.5910   23.9050 C   0  0  0  0  0  0  0  0  0  0  0  0
    7.3300   -3.2150   22.4300 C   0  0  0  0  0  0  0  0  0  0  0  0
  1  2  1  0
  2  3  2  0
  2  4  1  0
  4  5  1  0
  5  6  1  0
  6  7  1  0
  7  8  1  0
  8  9  2  0
  8 10  1  0
 10 11  1  0
 11 12  1  0
 12 13  1  0
 13 14  1  0
 14 15  1  0
 15 16  1  0
 16 17  2  0
 17 18  1  0
 18 19  2  0
 19 20  1  0
 20 21  1  0
 21 22  1  0
 19 23  1  0
 16 24  1  0
 23 24  2  0
 13 25  1  0
 10 26  1  0
 25 26  1  0
  7 27  1  0
  4 28  1  0
 27 28  1  0
M  END
