piperidine-amides-23270-covalent
     RDKit          3D

 24 26  0  0  0  0  0  0  0  0999 V2000
    7.1050   -3.3490   19.3530 C   0  0  0  0  0  0  0  0  0  0  0  0
    6.3620   -4.1560   20.3330 C   0  0  0  0  0  0  0  0  0  0  0  0
    5.3000   -4.6830   19.9330 O   0  0  0  0  0  0  0  0  0  0  0  0
    6.8560   -4.3730   21.6480 N   0  0  0  0  0  0  0  0  0  0  0  0
    6.3300   -5.4530   22.3990 C   0  0  0  0  0  0  0  0  0  0  0  0
    5.7460   -5.0380   23.6750 C   0  0  0  0  0  0  0  0  0  0  0  0
    6.2570   -3.7620   24.2330 C   0  0  0  0  0  0  0  0  0  0  0  0
    5.2420   -3.1130   25.1550 C   0  0  0  0  0  0  0  0  0  0  0  0
    4.1890   -2.6890   24.6640 O   0  0  0  0  0  0  0  0  0  0  0  0
    5.4230   -2.9840   26.5580 N   0  0  0  0  0  0  0  0  0  0  0  0
    4.3880   -2.8290   27.5100 C   0  0  0  0  0  0  0  0  0  0  0  0
    3.9980   -3.9710   28.3620 C   0  0  0  0  0  0  0  0  0  0  0  0
    5.2570   -4.4390   29.0660 C   0  0  0  0  0  0  0  0  0  0  0  0
    6.2440   -4.4600   28.2070 C   0  0  0  0  0  0  0  0  0  0  0  0
    7.1790   -5.4050   28.8500 C   0  0  0  0  0  0  0  0  0  0  0  0
    8.4140   -5.5570   28.0000 C   0  0  0  0  0  0  0  0  0  0  0  0
    8.5590   -4.7740   26.6450 C   0  0  0  0  0  0  0  0  0  0  0  0
    9.5470   -4.8250   25.8170 N   0  0  0  0  0  0  0  0  0  0  0  0
    8.9430   -4.3240   24.6550 C   0  0  0  0  0  0  0  0  0  0  0  0
    9.9450   -6.0140   25.8800 C   0  0  0  0  0  0  0  0  0  0  0  0
    7.5190   -3.9440   26.2700 C   0  0  0  0  0  0  0  0  0  0  0  0
    6.4290   -3.8100   27.0150 C   0  0  0  0  0  0  0  0  0  0  0  0
    6.7240   -2.7710   23.1960 C   0  0  0  0  0  0  0  0  0  0  0  0
    7.6240   -3.3700   22.3260 C   0  0  0  0  0  0  0  0  0  0  0  0
  1  2  1  0
  2  3  2  0
  2  4  1  0
  4  5  1  0
  5  6  1  0
  6  7  1  0
  7  8  1  0
  8  9  2  0
  8 10  1  0
 10 11  1  0
 11 12  1  0
 12 13  1  0
 13 14  1  0
 14 15  2  0
 15 16  1  0
 16 17  2  0
 17 18  1  0
 18 19  1  0
 18 20  1  0
 17 21  1  0
 10 22  1  0
 14 22  1  0
 21 22  2  0
  7 23  1  0
  4 24  1  0
 23 24  1  0
M  END
