piperidine-amides-24504-covalent
     RDKit          3D

 23 25  0  0  0  0  0  0  0  0999 V2000
    7.2450   -4.0380   19.6920 C   0  0  0  0  0  0  0  0  0  0  0  0
    6.0670   -4.0280   20.4240 C   0  0  0  0  0  0  0  0  0  0  0  0
    5.0250   -4.2150   19.7650 O   0  0  0  0  0  0  0  0  0  0  0  0
    6.1900   -3.9380   21.7990 N   0  0  0  0  0  0  0  0  0  0  0  0
    6.1650   -5.2070   22.4820 C   0  0  0  0  0  0  0  0  0  0  0  0
    5.7010   -4.9090   23.9010 C   0  0  0  0  0  0  0  0  0  0  0  0
    6.6880   -3.9400   24.5390 C   0  0  0  0  0  0  0  0  0  0  0  0
    5.9560   -3.2590   25.6270 C   0  0  0  0  0  0  0  0  0  0  0  0
    4.8010   -2.8500   25.3710 O   0  0  0  0  0  0  0  0  0  0  0  0
    6.5360   -3.0890   26.9230 N   0  0  0  0  0  0  0  0  0  0  0  0
    5.6380   -2.5700   27.9620 C   0  0  0  0  0  0  0  0  0  0  0  0
    5.5690   -3.8310   28.6940 C   0  0  0  0  0  0  0  0  0  0  0  0
    6.7790   -4.0280   27.9380 C   0  0  0  0  0  0  0  0  0  0  0  0
    7.4940   -5.2690   28.0580 C   0  0  0  0  0  0  0  0  0  0  0  0
    8.6480   -5.7030   27.4600 C   0  0  0  0  0  0  0  0  0  0  0  0
    8.7070   -6.9450   27.0260 O   0  0  0  0  0  0  0  0  0  0  0  0
    9.7140   -4.8950   27.2280 O   0  0  0  0  0  0  0  0  0  0  0  0
   10.3330   -5.1170   25.9930 C   0  0  0  0  0  0  0  0  0  0  0  0
    6.7740   -6.4310   29.1500 S   0  0  0  0  0  0  0  0  0  0  0  0
    6.4500   -4.8520   28.5810 C   0  0  0  0  0  0  0  0  0  0  0  0
    7.3670   -4.1730   27.5490 C   0  0  0  0  0  0  0  0  0  0  0  0
    7.2440   -2.8690   23.6760 C   0  0  0  0  0  0  0  0  0  0  0  0
    7.2510   -3.1030   22.2380 C   0  0  0  0  0  0  0  0  0  0  0  0
  1  2  1  0
  2  3  2  0
  2  4  1  0
  4  5  1  0
  5  6  1  0
  6  7  1  0
  7  8  1  0
  8  9  2  0
  8 10  1  0
 10 11  1  0
 11 12  1  0
 12 13  1  0
 13 14  2  0
 14 15  1  0
 15 16  2  0
 15 17  1  0
 17 18  1  0
 14 19  1  0
 12 20  2  0
 19 20  1  0
 10 21  1  0
 20 21  1  0
  7 22  1  0
  4 23  1  0
 22 23  1  0
M  END
