piperidine-amides-12610-covalent
     RDKit          3D

 23 24  0  0  0  0  0  0  0  0999 V2000
    7.1500   -3.2560   19.0770 C   0  0  0  0  0  0  0  0  0  0  0  0
    6.3660   -3.9610   20.1140 C   0  0  0  0  0  0  0  0  0  0  0  0
    5.2360   -4.3730   19.7980 O   0  0  0  0  0  0  0  0  0  0  0  0
    6.9050   -4.2110   21.3750 N   0  0  0  0  0  0  0  0  0  0  0  0
    7.6680   -3.1880   22.0110 C   0  0  0  0  0  0  0  0  0  0  0  0
    7.2750   -2.8910   23.3780 C   0  0  0  0  0  0  0  0  0  0  0  0
    6.5320   -3.9530   24.0840 C   0  0  0  0  0  0  0  0  0  0  0  0
    5.7780   -3.3450   25.1820 C   0  0  0  0  0  0  0  0  0  0  0  0
    4.5690   -3.0970   25.0150 O   0  0  0  0  0  0  0  0  0  0  0  0
    6.4140   -3.0430   26.3820 N   0  0  0  0  0  0  0  0  0  0  0  0
    5.7190   -3.1240   27.6630 C   0  0  2  0  0  0  0  0  0  0  0  0
    6.5470   -3.7370   28.7170 C   0  0  0  0  0  0  0  0  0  0  0  0
    6.9370   -4.9320   28.7060 O   0  0  0  0  0  0  0  0  0  0  0  0
    4.4040   -3.8080   27.5470 C   0  0  0  0  0  0  0  0  0  0  0  0
    3.2380   -3.0480   27.5470 C   0  0  0  0  0  0  0  0  0  0  0  0
    3.3750   -1.3100   27.6850 Cl  0  0  0  0  0  0  0  0  0  0  0  0
    1.9770   -3.6110   27.4410 C   0  0  0  0  0  0  0  0  0  0  0  0
    1.8680   -4.9600   27.3340 C   0  0  0  0  0  0  0  0  0  0  0  0
    2.9920   -5.7190   27.3340 C   0  0  0  0  0  0  0  0  0  0  0  0
    4.2330   -5.1750   27.4370 C   0  0  0  0  0  0  0  0  0  0  0  0
    5.5500   -6.3540   27.4180 Cl  0  0  0  0  0  0  0  0  0  0  0  0
    5.6540   -4.7700   23.1840 C   0  0  0  0  0  0  0  0  0  0  0  0
    6.5140   -5.3570   22.1510 C   0  0  0  0  0  0  0  0  0  0  0  0
  1  2  1  0
  2  3  2  0
  2  4  1  0
  4  5  1  0
  5  6  1  0
  6  7  1  0
  7  8  1  0
  8  9  2  0
  8 10  1  0
 10 11  1  0
 11 12  1  1
 12 13  1  0
 11 14  1  0
 14 15  2  0
 15 16  1  0
 15 17  1  0
 17 18  2  0
 18 19  1  0
 14 20  1  0
 19 20  2  0
 20 21  1  0
  7 22  1  0
  4 23  1  0
 22 23  1  0
M  END
