piperidine-amides-3143-covalent
     RDKit          3D

 23 25  0  0  0  0  0  0  0  0999 V2000
    7.1000   -3.3420   19.3210 C   0  0  0  0  0  0  0  0  0  0  0  0
    6.4160   -4.1840   20.2910 C   0  0  0  0  0  0  0  0  0  0  0  0
    5.3920   -4.7910   19.9750 O   0  0  0  0  0  0  0  0  0  0  0  0
    6.9840   -4.3440   21.5990 N   0  0  0  0  0  0  0  0  0  0  0  0
    7.7210   -3.2490   22.1600 C   0  0  0  0  0  0  0  0  0  0  0  0
    6.9420   -2.6860   23.3020 C   0  0  0  0  0  0  0  0  0  0  0  0
    6.5270   -3.8400   24.1970 C   0  0  0  0  0  0  0  0  0  0  0  0
    5.7870   -3.3020   25.3610 C   0  0  0  0  0  0  0  0  0  0  0  0
    4.5750   -3.0090   25.3070 O   0  0  0  0  0  0  0  0  0  0  0  0
    6.4850   -3.1260   26.5670 N   0  0  0  0  0  0  0  0  0  0  0  0
    6.4320   -1.8450   27.2270 C   0  0  0  0  0  0  0  0  0  0  0  0
    5.9960   -0.5960   26.6190 C   0  0  0  0  0  0  0  0  0  0  0  0
    6.0000    0.5890   27.4310 C   0  0  0  0  0  0  0  0  0  0  0  0
    6.3680    0.8700   28.8590 C   0  0  0  0  0  0  0  0  0  0  0  0
    6.7760    0.8420   30.2130 N   0  0  0  0  0  0  0  0  0  0  0  0
    5.9130    1.3390   31.1160 N   0  0  0  0  0  0  0  0  0  0  0  0
    6.5780    1.1560   32.2260 C   0  0  0  0  0  0  0  0  0  0  0  0
    7.8680    0.5550   32.1330 C   0  0  0  0  0  0  0  0  0  0  0  0
    7.9080    0.3880   30.7790 N   0  0  0  0  0  0  0  0  0  0  0  0
    6.7350   -0.4100   29.2000 N   0  0  0  0  0  0  0  0  0  0  0  0
    6.7150   -1.4540   28.4230 C   0  0  0  0  0  0  0  0  0  0  0  0
    5.6190   -4.7960   23.4290 C   0  0  0  0  0  0  0  0  0  0  0  0
    6.4080   -5.3740   22.4360 C   0  0  0  0  0  0  0  0  0  0  0  0
  1  2  1  0
  2  3  2  0
  2  4  1  0
  4  5  1  0
  5  6  1  0
  6  7  1  0
  7  8  1  0
  8  9  2  0
  8 10  1  0
 10 11  1  0
 11 12  2  0
 12 13  1  0
 13 14  2  0
 14 15  1  0
 15 16  1  0
 16 17  2  0
 17 18  1  0
 15 19  1  0
 18 19  2  0
 14 20  1  0
 11 21  1  0
 20 21  2  0
  7 22  1  0
  4 23  1  0
 22 23  1  0
M  END
