piperidine-amides-24122-covalent
     RDKit          3D

 24 26  0  0  0  0  0  0  0  0999 V2000
    7.0910   -3.3480   19.3020 C   0  0  0  0  0  0  0  0  0  0  0  0
    6.3790   -4.1920   20.2740 C   0  0  0  0  0  0  0  0  0  0  0  0
    5.2700   -4.6430   19.9150 O   0  0  0  0  0  0  0  0  0  0  0  0
    6.9490   -4.5450   21.5230 N   0  0  0  0  0  0  0  0  0  0  0  0
    6.3220   -5.5990   22.2260 C   0  0  0  0  0  0  0  0  0  0  0  0
    5.5660   -5.1490   23.3940 C   0  0  0  0  0  0  0  0  0  0  0  0
    6.1740   -4.0270   24.1410 C   0  0  0  0  0  0  0  0  0  0  0  0
    5.2920   -3.5110   25.2540 C   0  0  0  0  0  0  0  0  0  0  0  0
    4.2850   -2.8250   24.9950 O   0  0  0  0  0  0  0  0  0  0  0  0
    5.6010   -3.8090   26.5860 N   0  0  0  0  0  0  0  0  0  0  0  0
    4.7750   -3.8890   27.6900 C   0  0  0  0  0  0  0  0  0  0  0  0
    5.0690   -4.9740   28.5670 C   0  0  0  0  0  0  0  0  0  0  0  0
    6.5240   -4.7660   28.9470 C   0  0  0  0  0  0  0  0  0  0  0  0
    7.5340   -4.9200   28.0160 C   0  0  0  0  0  0  0  0  0  0  0  0
    6.8310   -4.5520   26.6710 C   0  0  2  0  0  0  0  0  0  0  0  0
    7.6800   -3.3790   26.4560 C   0  0  0  0  0  0  0  0  0  0  0  0
    8.0140   -2.4870   27.3660 N   0  0  0  0  0  0  0  0  0  0  0  0
    8.8430   -1.6380   26.6410 O   0  0  0  0  0  0  0  0  0  0  0  0
    8.8570   -2.1460   25.3710 C   0  0  0  0  0  0  0  0  0  0  0  0
    9.5660   -1.7050   24.1040 C   0  0  0  0  0  0  0  0  0  0  0  0
   11.0390   -2.0260   24.3170 C   0  0  0  0  0  0  0  0  0  0  0  0
    8.1160   -3.2520   25.1980 N   0  0  0  0  0  0  0  0  0  0  0  0
    6.5990   -2.8770   23.2130 C   0  0  0  0  0  0  0  0  0  0  0  0
    7.5870   -3.4440   22.2610 C   0  0  0  0  0  0  0  0  0  0  0  0
  1  2  1  0
  2  3  2  0
  2  4  1  0
  4  5  1  0
  5  6  1  0
  6  7  1  0
  7  8  1  0
  8  9  2  0
  8 10  1  0
 10 11  1  0
 11 12  1  0
 12 13  1  0
 13 14  1  0
 10 15  1  0
 14 15  1  0
 15 16  1  6
 16 17  2  0
 17 18  1  0
 18 19  1  0
 19 20  1  0
 20 21  1  0
 16 22  1  0
 19 22  2  0
  7 23  1  0
  4 24  1  0
 23 24  1  0
M  END
