piperidine-amides-33715-covalent
     RDKit          3D

 24 26  0  0  0  0  0  0  0  0999 V2000
    7.0240   -3.3790   19.3910 C   0  0  0  0  0  0  0  0  0  0  0  0
    6.3890   -4.2510   20.3900 C   0  0  0  0  0  0  0  0  0  0  0  0
    5.3910   -4.8930   19.9990 O   0  0  0  0  0  0  0  0  0  0  0  0
    6.9220   -4.3980   21.7090 N   0  0  0  0  0  0  0  0  0  0  0  0
    6.6130   -5.5650   22.4670 C   0  0  0  0  0  0  0  0  0  0  0  0
    6.2410   -5.2760   23.8470 C   0  0  0  0  0  0  0  0  0  0  0  0
    6.2200   -3.8330   24.1260 C   0  0  0  0  0  0  0  0  0  0  0  0
    5.6550   -3.4100   25.4690 C   0  0  0  0  0  0  0  0  0  0  0  0
    4.7470   -2.5620   25.4400 O   0  0  0  0  0  0  0  0  0  0  0  0
    6.0300   -3.8850   26.7670 N   0  0  0  0  0  0  0  0  0  0  0  0
    6.0170   -5.2410   27.1660 C   0  0  0  0  0  0  0  0  0  0  0  0
    4.9970   -5.6690   28.0250 C   0  0  0  0  0  0  0  0  0  0  0  0
    4.7240   -4.8970   29.0520 N   0  0  0  0  0  0  0  0  0  0  0  0
    3.6660   -5.1430   29.9990 C   0  0  0  0  0  0  0  0  0  0  0  0
    4.1140   -5.9650   31.0180 C   0  0  0  0  0  0  0  0  0  0  0  0
    5.4960   -7.0040   30.6000 S   0  0  0  0  0  0  0  0  0  0  0  0
    5.4220   -7.6410   32.2620 C   0  0  0  0  0  0  0  0  0  0  0  0
    4.3480   -7.0710   33.1610 C   0  0  0  0  0  0  0  0  0  0  0  0
    3.4930   -5.9920   32.3750 C   0  0  0  0  0  0  0  0  0  0  0  0
    2.0260   -4.9950   33.0740 Br  0  0  0  0  0  0  0  0  0  0  0  0
    5.5690   -3.7840   29.1740 C   0  0  0  0  0  0  0  0  0  0  0  0
    5.8630   -2.9960   27.8880 C   0  0  0  0  0  0  0  0  0  0  0  0
    7.5770   -3.2110   23.7810 C   0  0  0  0  0  0  0  0  0  0  0  0
    7.6250   -3.2130   22.2810 C   0  0  0  0  0  0  0  0  0  0  0  0
  1  2  1  0
  2  3  2  0
  2  4  1  0
  4  5  1  0
  5  6  1  0
  6  7  1  0
  7  8  1  0
  8  9  2  0
  8 10  1  0
 10 11  1  0
 11 12  1  0
 12 13  1  0
 13 14  1  0
 14 15  1  0
 15 16  1  0
 16 17  1  0
 17 18  2  0
 15 19  2  0
 18 19  1  0
 19 20  1  0
 13 21  1  0
 10 22  1  0
 21 22  1  0
  7 23  1  0
  4 24  1  0
 23 24  1  0
M  END
