piperidine-amides-4869-covalent
     RDKit          3D

 23 24  0  0  0  0  0  0  0  0999 V2000
    7.0470   -3.3380   19.3410 C   0  0  0  0  0  0  0  0  0  0  0  0
    6.3970   -4.1900   20.3610 C   0  0  0  0  0  0  0  0  0  0  0  0
    5.3950   -4.8330   19.9830 O   0  0  0  0  0  0  0  0  0  0  0  0
    6.9180   -4.2900   21.6660 N   0  0  0  0  0  0  0  0  0  0  0  0
    7.6870   -3.2230   22.2270 C   0  0  0  0  0  0  0  0  0  0  0  0
    7.3210   -2.9410   23.6040 C   0  0  0  0  0  0  0  0  0  0  0  0
    6.0870   -3.6400   23.9990 C   0  0  0  0  0  0  0  0  0  0  0  0
    5.6660   -3.2480   25.3700 C   0  0  0  0  0  0  0  0  0  0  0  0
    4.4490   -3.3000   25.6310 O   0  0  0  0  0  0  0  0  0  0  0  0
    6.5790   -2.8210   26.3500 N   0  0  0  0  0  0  0  0  0  0  0  0
    6.4540   -1.5270   27.0660 C   0  0  0  0  0  0  0  0  0  0  0  0
    6.9780   -1.5560   28.4220 C   0  0  0  0  0  0  0  0  0  0  0  0
    6.9250   -0.4170   29.2300 C   0  0  0  0  0  0  0  0  0  0  0  0
    6.3600    0.6810   28.6660 C   0  0  0  0  0  0  0  0  0  0  0  0
    6.1850    1.9200   29.2600 C   0  0  0  0  0  0  0  0  0  0  0  0
    6.3490    3.0250   28.4900 F   0  0  0  0  0  0  0  0  0  0  0  0
    7.0680    1.9880   30.3210 F   0  0  0  0  0  0  0  0  0  0  0  0
    4.9170    1.9900   29.8290 F   0  0  0  0  0  0  0  0  0  0  0  0
    5.8750    0.6020   27.3110 N   0  0  0  0  0  0  0  0  0  0  0  0
    5.8310   -0.4180   26.3360 C   0  0  0  0  0  0  0  0  0  0  0  0
    5.3110    0.7790   25.9450 C   0  0  0  0  0  0  0  0  0  0  0  0
    6.0750   -5.1090   23.7460 C   0  0  0  0  0  0  0  0  0  0  0  0
    6.6280   -5.4430   22.4920 C   0  0  0  0  0  0  0  0  0  0  0  0
  1  2  1  0
  2  3  2  0
  2  4  1  0
  4  5  1  0
  5  6  1  0
  6  7  1  0
  7  8  1  0
  8  9  2  0
  8 10  1  0
 10 11  1  0
 11 12  2  0
 12 13  1  0
 13 14  2  0
 14 15  1  0
 15 16  1  0
 15 17  1  0
 15 18  1  0
 14 19  1  0
 11 20  1  0
 19 20  2  0
 20 21  1  0
  7 22  1  0
  4 23  1  0
 22 23  1  0
M  END
