piperidine-amides-33424-covalent
     RDKit          3D

 29 31  0  0  0  0  0  0  0  0999 V2000
    7.0680   -3.3880   19.3900 C   0  0  0  0  0  0  0  0  0  0  0  0
    6.4020   -4.2170   20.4030 C   0  0  0  0  0  0  0  0  0  0  0  0
    5.4060   -4.8690   20.0030 O   0  0  0  0  0  0  0  0  0  0  0  0
    6.9020   -4.3130   21.7420 N   0  0  0  0  0  0  0  0  0  0  0  0
    6.6600   -5.5150   22.4740 C   0  0  0  0  0  0  0  0  0  0  0  0
    6.1730   -5.2380   23.8190 C   0  0  0  0  0  0  0  0  0  0  0  0
    6.0970   -3.7920   24.0580 C   0  0  0  0  0  0  0  0  0  0  0  0
    5.5150   -3.3840   25.4040 C   0  0  0  0  0  0  0  0  0  0  0  0
    4.3330   -2.9990   25.3840 O   0  0  0  0  0  0  0  0  0  0  0  0
    6.1530   -3.3760   26.6750 N   0  0  0  0  0  0  0  0  0  0  0  0
    6.1220   -2.3180   27.5830 C   0  0  0  0  0  0  0  0  0  0  0  0
    5.7370   -2.7090   28.9110 C   0  0  0  0  0  0  0  0  0  0  0  0
    4.8250   -3.5680   28.8930 O   0  0  0  0  0  0  0  0  0  0  0  0
    5.2500   -4.7630   28.3690 C   0  0  1  0  0  0  0  0  0  0  0  0
    5.7400   -5.4410   29.4690 C   0  0  0  0  0  0  0  0  0  0  0  0
    6.0160   -6.7350   28.6960 C   0  0  0  0  0  0  0  0  0  0  0  0
    4.6190   -7.2220   28.9190 C   0  0  0  0  0  0  0  0  0  0  0  0
    3.7010   -6.4520   28.3480 N   0  0  0  0  0  0  0  0  0  0  0  0
    2.5370   -6.9120   27.8480 C   0  0  0  0  0  0  0  0  0  0  0  0
    1.7900   -7.6160   28.5560 O   0  0  0  0  0  0  0  0  0  0  0  0
    2.0850   -6.6400   26.5600 O   0  0  0  0  0  0  0  0  0  0  0  0
    2.5170   -7.2980   25.3990 C   0  0  0  0  0  0  0  0  0  0  0  0
    2.1710   -8.7770   25.4240 C   0  0  0  0  0  0  0  0  0  0  0  0
    1.9500   -6.6900   24.1380 C   0  0  0  0  0  0  0  0  0  0  0  0
    4.0180   -7.1820   25.3080 C   0  0  0  0  0  0  0  0  0  0  0  0
    4.1390   -5.2750   27.7240 C   0  0  0  0  0  0  0  0  0  0  0  0
    6.1990   -4.6170   27.4190 C   0  0  0  0  0  0  0  0  0  0  0  0
    7.3870   -3.1270   23.7050 C   0  0  0  0  0  0  0  0  0  0  0  0
    7.7210   -3.2670   22.3430 C   0  0  0  0  0  0  0  0  0  0  0  0
  1  2  1  0
  2  3  2  0
  2  4  1  0
  4  5  1  0
  5  6  1  0
  6  7  1  0
  7  8  1  0
  8  9  2  0
  8 10  1  0
 10 11  1  0
 11 12  1  0
 12 13  1  0
 14 13  1  0
 14 15  1  1
 15 16  1  0
 16 17  1  0
 17 18  1  0
 18 19  1  0
 19 20  2  0
 19 21  1  0
 22 21  1  0
 22 23  1  0
 22 24  1  0
 22 25  1  0
 14 26  1  0
 18 26  1  0
 10 27  1  0
 14 27  1  0
  7 28  1  0
  4 29  1  0
 28 29  1  0
M  END
