piperidine-amides-8870-covalent
     RDKit          3D

 22 23  0  0  0  0  0  0  0  0999 V2000
    7.0080   -3.3430   19.3550 C   0  0  0  0  0  0  0  0  0  0  0  0
    6.3500   -4.1830   20.3610 C   0  0  0  0  0  0  0  0  0  0  0  0
    5.4020   -4.8950   19.9880 O   0  0  0  0  0  0  0  0  0  0  0  0
    6.8040   -4.2080   21.7100 N   0  0  0  0  0  0  0  0  0  0  0  0
    7.7010   -3.1810   22.1770 C   0  0  0  0  0  0  0  0  0  0  0  0
    7.4320   -2.9070   23.6180 C   0  0  0  0  0  0  0  0  0  0  0  0
    6.0910   -3.5340   23.8840 C   0  0  0  0  0  0  0  0  0  0  0  0
    5.6560   -3.2130   25.2810 C   0  0  0  0  0  0  0  0  0  0  0  0
    4.4540   -3.2980   25.5170 O   0  0  0  0  0  0  0  0  0  0  0  0
    6.6380   -2.8440   26.1890 N   0  0  0  0  0  0  0  0  0  0  0  0
    6.5480   -1.6950   27.0330 C   0  0  0  0  0  0  0  0  0  0  0  0
    7.0130   -1.5620   28.3450 C   0  0  0  0  0  0  0  0  0  0  0  0
    6.9000   -0.4180   29.1170 C   0  0  0  0  0  0  0  0  0  0  0  0
    6.3100    0.7930   28.7350 C   0  0  0  0  0  0  0  0  0  0  0  0
    6.1760    2.2450   29.7420 Cl  0  0  0  0  0  0  0  0  0  0  0  0
    5.7760    0.7410   27.3330 C   0  0  0  0  0  0  0  0  0  0  0  0
    5.1530    1.7530   26.6940 N   0  0  0  0  0  0  0  0  0  0  0  0
    3.8340    1.7260   26.5160 C   0  0  0  0  0  0  0  0  0  0  0  0
    5.8490    2.4150   25.6290 C   0  0  0  0  0  0  0  0  0  0  0  0
    5.8870   -0.4580   26.4970 C   0  0  0  0  0  0  0  0  0  0  0  0
    6.0070   -4.9960   23.6890 C   0  0  0  0  0  0  0  0  0  0  0  0
    6.6670   -5.3920   22.5370 C   0  0  0  0  0  0  0  0  0  0  0  0
  1  2  1  0
  2  3  2  0
  2  4  1  0
  4  5  1  0
  5  6  1  0
  6  7  1  0
  7  8  1  0
  8  9  2  0
  8 10  1  0
 10 11  1  0
 11 12  2  0
 12 13  1  0
 13 14  2  0
 14 15  1  0
 14 16  1  0
 16 17  1  0
 17 18  1  0
 17 19  1  0
 11 20  1  0
 16 20  2  0
  7 21  1  0
  4 22  1  0
 21 22  1  0
M  END
