piperidine-amides-5031-covalent
     RDKit          3D

 22 23  0  0  0  0  0  0  0  0999 V2000
    7.1010   -3.2920   19.2410 C   0  0  0  0  0  0  0  0  0  0  0  0
    6.3700   -4.0880   20.2530 C   0  0  0  0  0  0  0  0  0  0  0  0
    5.2940   -4.5990   19.8960 O   0  0  0  0  0  0  0  0  0  0  0  0
    6.8990   -4.2940   21.5310 N   0  0  0  0  0  0  0  0  0  0  0  0
    7.6310   -3.2400   22.1540 C   0  0  0  0  0  0  0  0  0  0  0  0
    7.1700   -2.8700   23.4880 C   0  0  0  0  0  0  0  0  0  0  0  0
    6.4790   -3.9390   24.2400 C   0  0  0  0  0  0  0  0  0  0  0  0
    5.7550   -3.3670   25.3980 C   0  0  0  0  0  0  0  0  0  0  0  0
    4.5210   -3.2100   25.3070 O   0  0  0  0  0  0  0  0  0  0  0  0
    6.4370   -3.0070   26.5740 N   0  0  0  0  0  0  0  0  0  0  0  0
    6.3770   -1.6580   27.1740 C   0  0  0  0  0  0  0  0  0  0  0  0
    6.9880   -1.5560   28.5160 C   0  0  0  0  0  0  0  0  0  0  0  0
    7.0010   -0.3070   29.2410 C   0  0  0  0  0  0  0  0  0  0  0  0
    6.4180    0.7800   28.6260 C   0  0  0  0  0  0  0  0  0  0  0  0
    6.3950    1.9840   29.2500 F   0  0  0  0  0  0  0  0  0  0  0  0
    5.8500    0.6630   27.3600 C   0  0  0  0  0  0  0  0  0  0  0  0
    5.2540    1.6800   26.6720 C   0  0  1  0  0  0  0  0  0  0  0  0
    4.2560    1.2390   25.8490 C   0  0  0  0  0  0  0  0  0  0  0  0
    4.6940    2.4090   27.7430 O   0  0  0  0  0  0  0  0  0  0  0  0
    5.8060   -0.4990   26.6120 C   0  0  0  0  0  0  0  0  0  0  0  0
    5.5900   -4.7720   23.3630 C   0  0  0  0  0  0  0  0  0  0  0  0
    6.4780   -5.3990   22.3600 C   0  0  0  0  0  0  0  0  0  0  0  0
  1  2  1  0
  2  3  2  0
  2  4  1  0
  4  5  1  0
  5  6  1  0
  6  7  1  0
  7  8  1  0
  8  9  2  0
  8 10  1  0
 10 11  1  0
 11 12  2  0
 12 13  1  0
 13 14  2  0
 14 15  1  0
 14 16  1  0
 16 17  1  0
 17 18  1  6
 17 19  1  0
 11 20  1  0
 16 20  2  0
  7 21  1  0
  4 22  1  0
 21 22  1  0
M  END
