piperidine-amides-2759-covalent
     RDKit          3D

 25 26  0  0  0  0  0  0  0  0999 V2000
    7.2130   -3.9690   19.6360 C   0  0  0  0  0  0  0  0  0  0  0  0
    5.9920   -3.8740   20.2730 C   0  0  0  0  0  0  0  0  0  0  0  0
    4.9850   -3.9670   19.5870 O   0  0  0  0  0  0  0  0  0  0  0  0
    6.0720   -3.8000   21.6750 N   0  0  0  0  0  0  0  0  0  0  0  0
    5.9310   -5.0750   22.3340 C   0  0  0  0  0  0  0  0  0  0  0  0
    5.6970   -4.8210   23.7720 C   0  0  0  0  0  0  0  0  0  0  0  0
    5.6200   -3.3180   23.8690 C   0  0  0  0  0  0  0  0  0  0  0  0
    5.0980   -2.8560   25.1760 C   0  0  0  0  0  0  0  0  0  0  0  0
    4.1060   -2.1120   25.2370 O   0  0  0  0  0  0  0  0  0  0  0  0
    5.6920   -3.2310   26.3890 N   0  0  0  0  0  0  0  0  0  0  0  0
    6.1060   -4.5790   26.6310 C   0  0  1  0  0  0  0  0  0  0  0  0
    5.1480   -5.6500   26.2170 C   0  0  0  0  0  0  0  0  0  0  0  0
    3.8150   -5.5530   26.5910 C   0  0  0  0  0  0  0  0  0  0  0  0
    3.2370   -6.5560   27.0740 O   0  0  0  0  0  0  0  0  0  0  0  0
    3.0300   -4.4210   26.4780 O   0  0  0  0  0  0  0  0  0  0  0  0
    2.3540   -3.9760   25.3410 C   0  0  0  0  0  0  0  0  0  0  0  0
    7.4860   -4.6470   26.1760 C   0  0  0  0  0  0  0  0  0  0  0  0
    8.2970   -5.8110   26.3600 C   0  0  0  0  0  0  0  0  0  0  0  0
    9.5900   -5.8410   26.0060 C   0  0  0  0  0  0  0  0  0  0  0  0
   10.1430   -4.7120   25.4440 C   0  0  0  0  0  0  0  0  0  0  0  0
    9.4740   -3.5310   25.1890 C   0  0  0  0  0  0  0  0  0  0  0  0
   10.3460   -2.2020   24.4570 Cl  0  0  0  0  0  0  0  0  0  0  0  0
    8.0610   -3.5250   25.5910 C   0  0  0  0  0  0  0  0  0  0  0  0
    6.9110   -2.6390   23.4610 C   0  0  0  0  0  0  0  0  0  0  0  0
    7.1590   -2.9690   22.1410 C   0  0  0  0  0  0  0  0  0  0  0  0
  1  2  1  0
  2  3  2  0
  2  4  1  0
  4  5  1  0
  5  6  1  0
  6  7  1  0
  7  8  1  0
  8  9  2  0
  8 10  1  0
 10 11  1  0
 11 12  1  6
 12 13  1  0
 13 14  2  0
 13 15  1  0
 15 16  1  0
 11 17  1  0
 17 18  2  0
 18 19  1  0
 19 20  2  0
 20 21  1  0
 21 22  1  0
 17 23  1  0
 21 23  2  0
  7 24  1  0
  4 25  1  0
 24 25  1  0
M  END
