piperidine-amides-4237-covalent
     RDKit          3D

 26 29  0  0  0  0  0  0  0  0999 V2000
    7.1270   -3.3070   19.2670 C   0  0  0  0  0  0  0  0  0  0  0  0
    6.4110   -4.1160   20.2680 C   0  0  0  0  0  0  0  0  0  0  0  0
    5.3230   -4.6300   19.9150 O   0  0  0  0  0  0  0  0  0  0  0  0
    6.9570   -4.3580   21.5490 N   0  0  0  0  0  0  0  0  0  0  0  0
    7.6370   -3.2750   22.1760 C   0  0  0  0  0  0  0  0  0  0  0  0
    7.0800   -2.8460   23.4550 C   0  0  0  0  0  0  0  0  0  0  0  0
    6.4180   -3.8920   24.2510 C   0  0  0  0  0  0  0  0  0  0  0  0
    5.6680   -3.2830   25.3960 C   0  0  0  0  0  0  0  0  0  0  0  0
    4.4230   -3.2590   25.3590 O   0  0  0  0  0  0  0  0  0  0  0  0
    6.3480   -2.7380   26.5040 N   0  0  0  0  0  0  0  0  0  0  0  0
    5.9760   -1.6810   27.3770 C   0  0  1  0  0  0  0  0  0  0  0  0
    6.0380   -1.9610   28.7820 C   0  0  0  0  0  0  0  0  0  0  0  0
    5.9480   -0.6350   29.5370 C   0  0  1  0  0  0  0  0  0  0  0  0
    7.0070    0.2140   29.3270 C   0  0  0  0  0  0  0  0  0  0  0  0
    6.6750    0.7550   27.8910 C   0  0  1  0  0  0  0  0  0  0  0  0
    6.9190   -0.5770   27.2110 C   0  0  0  0  0  0  0  0  0  0  0  0
    5.2320    1.0930   27.6280 C   0  0  0  0  0  0  0  0  0  0  0  0
    4.3450    0.0030   27.9440 C   0  0  2  0  0  0  0  0  0  0  0  0
    2.8850    0.3920   27.7390 C   0  0  0  0  0  0  0  0  0  0  0  0
    2.5420    1.3700   27.0270 O   0  0  0  0  0  0  0  0  0  0  0  0
    1.9170   -0.3490   28.3630 O   0  0  0  0  0  0  0  0  0  0  0  0
    0.7510   -0.8280   27.7160 C   0  0  0  0  0  0  0  0  0  0  0  0
    4.6670   -0.1720   29.4000 C   0  0  0  0  0  0  0  0  0  0  0  0
    4.6570   -1.1420   26.9620 C   0  0  0  0  0  0  0  0  0  0  0  0
    5.6140   -4.8790   23.4780 C   0  0  0  0  0  0  0  0  0  0  0  0
    6.4200   -5.4320   22.3320 C   0  0  0  0  0  0  0  0  0  0  0  0
  1  2  1  0
  2  3  2  0
  2  4  1  0
  4  5  1  0
  5  6  1  0
  6  7  1  0
  7  8  1  0
  8  9  2  0
  8 10  1  0
 11 10  1  6
 11 12  1  0
 13 12  1  6
 13 14  1  0
 15 14  1  1
 11 16  1  0
 15 16  1  0
 15 17  1  0
 17 18  1  0
 18 19  1  1
 19 20  2  0
 19 21  1  0
 21 22  1  0
 13 23  1  0
 18 23  1  0
 11 24  1  0
 18 24  1  0
  7 25  1  0
  4 26  1  0
 25 26  1  0
M  END
