piperidine-amides-5605-covalent
     RDKit          3D

 19 19  0  0  0  0  0  0  0  0999 V2000
    7.1720   -3.2860   19.1550 C   0  0  0  0  0  0  0  0  0  0  0  0
    6.3460   -3.9750   20.1420 C   0  0  0  0  0  0  0  0  0  0  0  0
    5.2410   -4.4390   19.8290 O   0  0  0  0  0  0  0  0  0  0  0  0
    6.8390   -4.1630   21.4290 N   0  0  0  0  0  0  0  0  0  0  0  0
    7.7240   -3.1940   22.0270 C   0  0  0  0  0  0  0  0  0  0  0  0
    7.3130   -3.2050   23.4470 C   0  0  0  0  0  0  0  0  0  0  0  0
    5.9030   -3.6280   23.5520 C   0  0  0  0  0  0  0  0  0  0  0  0
    5.3720   -3.2960   24.8600 C   0  0  0  0  0  0  0  0  0  0  0  0
    4.1430   -3.4280   25.1300 O   0  0  0  0  0  0  0  0  0  0  0  0
    6.2020   -2.8040   25.8560 N   0  0  0  0  0  0  0  0  0  0  0  0
    5.5760   -2.5650   27.1360 C   0  0  0  0  0  0  0  0  0  0  0  0
    5.9300   -3.6750   27.9970 C   0  0  1  0  0  0  0  0  0  0  0  0
    6.9510   -3.2090   28.8730 C   0  0  0  0  0  0  0  0  0  0  0  0
    5.0690   -4.1340   28.7940 O   0  0  0  0  0  0  0  0  0  0  0  0
    6.5220   -4.8370   27.2350 C   0  0  0  0  0  0  0  0  0  0  0  0
    7.3170   -5.7340   28.1580 C   0  0  0  0  0  0  0  0  0  0  0  0
    6.3350   -6.4910   28.9750 C   0  0  0  0  0  0  0  0  0  0  0  0
    5.8150   -5.1040   23.2590 C   0  0  0  0  0  0  0  0  0  0  0  0
    6.5540   -5.4110   22.1090 C   0  0  0  0  0  0  0  0  0  0  0  0
  1  2  1  0
  2  3  2  0
  2  4  1  0
  4  5  1  0
  5  6  1  0
  6  7  1  0
  7  8  1  0
  8  9  2  0
  8 10  1  0
 10 11  1  0
 11 12  1  0
 12 13  1  1
 12 14  1  0
 12 15  1  0
 15 16  1  0
 16 17  1  0
  7 18  1  0
  4 19  1  0
 18 19  1  0
M  END
