piperidine-amides-9120-covalent
     RDKit          3D

 21 22  0  0  0  0  0  0  0  0999 V2000
    7.0920   -3.2780   19.2210 C   0  0  0  0  0  0  0  0  0  0  0  0
    6.3460   -4.0440   20.2260 C   0  0  0  0  0  0  0  0  0  0  0  0
    5.2810   -4.5830   19.8940 O   0  0  0  0  0  0  0  0  0  0  0  0
    6.8310   -4.2340   21.5270 N   0  0  0  0  0  0  0  0  0  0  0  0
    6.5990   -5.4380   22.2960 C   0  0  0  0  0  0  0  0  0  0  0  0
    5.9020   -5.0020   23.5620 C   0  0  0  0  0  0  0  0  0  0  0  0
    6.6400   -3.9090   24.2860 C   0  0  0  0  0  0  0  0  0  0  0  0
    5.8950   -3.4500   25.4790 C   0  0  0  0  0  0  0  0  0  0  0  0
    4.7400   -2.9430   25.3480 O   0  0  0  0  0  0  0  0  0  0  0  0
    6.4070   -3.5440   26.7930 N   0  0  0  0  0  0  0  0  0  0  0  0
    6.8950   -4.8450   27.3190 C   0  0  0  0  0  0  0  0  0  0  0  0
    5.7370   -5.7270   27.5480 C   0  0  0  0  0  0  0  0  0  0  0  0
    5.3820   -6.0810   28.9380 C   0  0  0  0  0  0  0  0  0  0  0  0
    4.4140   -5.3010   29.7390 N   0  0  0  0  0  0  0  0  0  0  0  0
    4.3570   -5.9820   31.0720 C   0  0  0  0  0  0  0  0  0  0  0  0
    3.4910   -5.5260   32.2280 C   0  0  0  0  0  0  0  0  0  0  0  0
    5.2160   -7.2130   31.3120 C   0  0  0  0  0  0  0  0  0  0  0  0
    5.1740   -7.8350   32.5340 C   0  0  0  0  0  0  0  0  0  0  0  0
    6.0320   -7.4350   29.8390 S   0  0  0  0  0  0  0  0  0  0  0  0
    6.8740   -2.7260   23.3780 C   0  0  0  0  0  0  0  0  0  0  0  0
    7.6250   -3.2010   22.1650 C   0  0  0  0  0  0  0  0  0  0  0  0
  1  2  1  0
  2  3  2  0
  2  4  1  0
  4  5  1  0
  5  6  1  0
  6  7  1  0
  7  8  1  0
  8  9  2  0
  8 10  1  0
 10 11  1  0
 11 12  1  0
 12 13  1  0
 13 14  2  0
 14 15  1  0
 15 16  1  0
 15 17  2  0
 17 18  1  0
 13 19  1  0
 17 19  1  0
  7 20  1  0
  4 21  1  0
 20 21  1  0
M  END
