piperidine-amides-29878-covalent
     RDKit          3D

 27 29  0  0  0  0  0  0  0  0999 V2000
    7.0890   -3.3510   19.2910 C   0  0  0  0  0  0  0  0  0  0  0  0
    6.4030   -4.1740   20.2770 C   0  0  0  0  0  0  0  0  0  0  0  0
    5.3680   -4.7630   19.9690 O   0  0  0  0  0  0  0  0  0  0  0  0
    6.9810   -4.3500   21.5830 N   0  0  0  0  0  0  0  0  0  0  0  0
    7.7260   -3.2850   22.1920 C   0  0  0  0  0  0  0  0  0  0  0  0
    6.8950   -2.6560   23.2660 C   0  0  0  0  0  0  0  0  0  0  0  0
    6.4390   -3.7690   24.1920 C   0  0  0  0  0  0  0  0  0  0  0  0
    5.4660   -3.2300   25.1840 C   0  0  0  0  0  0  0  0  0  0  0  0
    4.4760   -2.5610   24.8530 O   0  0  0  0  0  0  0  0  0  0  0  0
    5.6750   -3.5030   26.5450 N   0  0  0  0  0  0  0  0  0  0  0  0
    4.5450   -3.4060   27.4470 C   0  0  0  0  0  0  0  0  0  0  0  0
    4.9460   -4.2060   28.6640 C   0  0  0  0  0  0  0  0  0  0  0  0
    6.2760   -4.1450   28.8940 C   0  0  2  0  0  0  0  0  0  0  0  0
    6.6480   -2.7790   28.8460 C   0  0  0  0  0  0  0  0  0  0  0  0
    6.1090   -1.9020   29.7800 C   0  0  0  0  0  0  0  0  0  0  0  0
    5.0320   -2.1700   30.3360 O   0  0  0  0  0  0  0  0  0  0  0  0
    6.7110   -0.7120   30.1360 O   0  0  0  0  0  0  0  0  0  0  0  0
    6.2900    0.0020   31.2050 C   0  0  0  0  0  0  0  0  0  0  0  0
    7.4340    0.2630   31.9250 C   0  0  0  0  0  0  0  0  0  0  0  0
    7.0220   -4.8070   27.9610 C   0  0  0  0  0  0  0  0  0  0  0  0
    8.0290   -5.7560   28.0730 C   0  0  0  0  0  0  0  0  0  0  0  0
    8.6890   -6.2830   26.8690 C   0  0  0  0  0  0  0  0  0  0  0  0
    8.3160   -5.8590   25.6170 C   0  0  0  0  0  0  0  0  0  0  0  0
    7.3280   -4.9520   25.5190 C   0  0  0  0  0  0  0  0  0  0  0  0
    6.7010   -4.4440   26.7330 C   0  0  0  0  0  0  0  0  0  0  0  0
    5.7330   -4.9230   23.5250 C   0  0  0  0  0  0  0  0  0  0  0  0
    6.5840   -5.4570   22.3910 C   0  0  0  0  0  0  0  0  0  0  0  0
  1  2  1  0
  2  3  2  0
  2  4  1  0
  4  5  1  0
  5  6  1  0
  6  7  1  0
  7  8  1  0
  8  9  2  0
  8 10  1  0
 10 11  1  0
 11 12  1  0
 12 13  1  0
 13 14  1  6
 14 15  1  0
 15 16  2  0
 15 17  1  0
 17 18  1  0
 18 19  1  0
 13 20  1  0
 20 21  2  0
 21 22  1  0
 22 23  2  0
 23 24  1  0
 10 25  1  0
 20 25  1  0
 24 25  2  0
  7 26  1  0
  4 27  1  0
 26 27  1  0
M  END
