piperidine-amides-4680-covalent
     RDKit          3D

 24 25  0  0  0  0  0  0  0  0999 V2000
    7.1420   -3.2460   19.1130 C   0  0  0  0  0  0  0  0  0  0  0  0
    6.3560   -3.9730   20.1470 C   0  0  0  0  0  0  0  0  0  0  0  0
    5.2500   -4.4290   19.8190 O   0  0  0  0  0  0  0  0  0  0  0  0
    6.8830   -4.1810   21.4220 N   0  0  0  0  0  0  0  0  0  0  0  0
    6.4520   -5.3080   22.1760 C   0  0  0  0  0  0  0  0  0  0  0  0
    5.9890   -4.9630   23.5190 C   0  0  0  0  0  0  0  0  0  0  0  0
    6.7550   -3.8750   24.1590 C   0  0  0  0  0  0  0  0  0  0  0  0
    6.0990   -3.3820   25.3750 C   0  0  0  0  0  0  0  0  0  0  0  0
    4.9610   -2.8740   25.2890 O   0  0  0  0  0  0  0  0  0  0  0  0
    6.7710   -3.5070   26.5910 N   0  0  0  0  0  0  0  0  0  0  0  0
    6.8750   -4.8160   27.2620 C   0  0  1  0  0  0  0  0  0  0  0  0
    8.2150   -5.4330   27.1500 C   0  0  0  0  0  0  0  0  0  0  0  0
    6.4990   -4.6880   28.6630 C   0  0  1  0  0  0  0  0  0  0  0  0
    6.1200   -3.4350   29.0880 C   0  0  0  0  0  0  0  0  0  0  0  0
    4.9120   -3.2010   29.7260 C   0  0  0  0  0  0  0  0  0  0  0  0
    4.5600   -1.9460   30.1420 C   0  0  0  0  0  0  0  0  0  0  0  0
    5.4040   -0.9010   29.9290 C   0  0  0  0  0  0  0  0  0  0  0  0
    6.5930   -1.1000   29.3070 C   0  0  0  0  0  0  0  0  0  0  0  0
    6.9620   -2.3670   28.8800 C   0  0  0  0  0  0  0  0  0  0  0  0
    5.5380   -5.5890   29.2650 N   0  0  0  0  0  0  0  0  0  0  0  0
    4.3880   -5.5510   28.3560 C   0  0  0  0  0  0  0  0  0  0  0  0
    5.9330   -6.8980   29.6430 C   0  0  0  0  0  0  0  0  0  0  0  0
    7.0180   -2.7270   23.1850 C   0  0  0  0  0  0  0  0  0  0  0  0
    7.7250   -3.1990   22.0750 C   0  0  0  0  0  0  0  0  0  0  0  0
  1  2  1  0
  2  3  2  0
  2  4  1  0
  4  5  1  0
  5  6  1  0
  6  7  1  0
  7  8  1  0
  8  9  2  0
  8 10  1  0
 10 11  1  0
 11 12  1  1
 11 13  1  0
 13 14  1  0
 14 15  2  0
 15 16  1  0
 16 17  2  0
 17 18  1  0
 14 19  1  0
 18 19  2  0
 13 20  1  6
 20 21  1  0
 20 22  1  0
  7 23  1  0
  4 24  1  0
 23 24  1  0
M  END
