piperidine-amides-8654-covalent
     RDKit          3D

 23 24  0  0  0  0  0  0  0  0999 V2000
    7.1260   -3.2620   19.1730 C   0  0  0  0  0  0  0  0  0  0  0  0
    6.3820   -4.0080   20.1930 C   0  0  0  0  0  0  0  0  0  0  0  0
    5.2980   -4.5220   19.8730 O   0  0  0  0  0  0  0  0  0  0  0  0
    6.9130   -4.1810   21.4890 N   0  0  0  0  0  0  0  0  0  0  0  0
    6.6080   -5.3990   22.1860 C   0  0  0  0  0  0  0  0  0  0  0  0
    6.2620   -5.1030   23.6140 C   0  0  0  0  0  0  0  0  0  0  0  0
    6.1090   -3.6010   23.7530 C   0  0  0  0  0  0  0  0  0  0  0  0
    5.7270   -3.2550   25.1420 C   0  0  0  0  0  0  0  0  0  0  0  0
    4.5800   -2.8530   25.2980 O   0  0  0  0  0  0  0  0  0  0  0  0
    6.7040   -3.4080   26.1110 N   0  0  0  0  0  0  0  0  0  0  0  0
    6.3970   -3.4060   27.4850 C   0  0  1  0  0  0  0  0  0  0  0  0
    5.0330   -3.4080   27.7110 C   0  0  0  0  0  0  0  0  0  0  0  0
    4.4750   -2.2960   27.8650 O   0  0  0  0  0  0  0  0  0  0  0  0
    6.7280   -4.6830   28.1240 C   0  0  0  0  0  0  0  0  0  0  0  0
    5.6990   -5.1180   28.9230 C   0  0  0  0  0  0  0  0  0  0  0  0
    5.0570   -3.9970   29.6590 C   0  0  0  0  0  0  0  0  0  0  0  0
    3.8570   -4.2040   30.6110 C   0  0  0  0  0  0  0  0  0  0  0  0
    3.3880   -5.6160   30.7420 C   0  0  0  0  0  0  0  0  0  0  0  0
    4.1590   -6.6260   29.9220 C   0  0  0  0  0  0  0  0  0  0  0  0
    3.7280   -8.0840   30.0040 C   0  0  0  0  0  0  0  0  0  0  0  0
    5.2210   -6.3880   29.0900 C   0  0  0  0  0  0  0  0  0  0  0  0
    7.4270   -2.9650   23.4680 C   0  0  0  0  0  0  0  0  0  0  0  0
    7.7240   -3.1040   22.0200 C   0  0  0  0  0  0  0  0  0  0  0  0
  1  2  1  0
  2  3  2  0
  2  4  1  0
  4  5  1  0
  5  6  1  0
  6  7  1  0
  7  8  1  0
  8  9  2  0
  8 10  1  0
 10 11  1  0
 11 12  1  6
 12 13  1  0
 11 14  1  0
 14 15  1  0
 15 16  2  0
 16 17  1  0
 17 18  2  0
 18 19  1  0
 19 20  1  0
 15 21  1  0
 19 21  2  0
  7 22  1  0
  4 23  1  0
 22 23  1  0
M  END
