piperidine-amides-9236-covalent
     RDKit          3D

 20 21  0  0  0  0  0  0  0  0999 V2000
    7.0690   -3.3610   19.3340 C   0  0  0  0  0  0  0  0  0  0  0  0
    6.3630   -4.1480   20.3480 C   0  0  0  0  0  0  0  0  0  0  0  0
    5.3970   -4.8450   19.9890 O   0  0  0  0  0  0  0  0  0  0  0  0
    6.7920   -4.1570   21.6930 N   0  0  0  0  0  0  0  0  0  0  0  0
    7.7490   -3.1780   22.1750 C   0  0  0  0  0  0  0  0  0  0  0  0
    7.5060   -3.0630   23.6450 C   0  0  0  0  0  0  0  0  0  0  0  0
    6.1310   -3.5430   23.9650 C   0  0  0  0  0  0  0  0  0  0  0  0
    5.6670   -3.1720   25.3260 C   0  0  0  0  0  0  0  0  0  0  0  0
    4.4390   -3.2760   25.6230 O   0  0  0  0  0  0  0  0  0  0  0  0
    6.5290   -2.6920   26.3390 N   0  0  0  0  0  0  0  0  0  0  0  0
    6.3840   -1.3300   26.9260 C   0  0  0  0  0  0  0  0  0  0  0  0
    5.7810   -0.4370   25.8400 C   0  0  0  0  0  0  0  0  0  0  0  0
    5.7560    0.6890   26.6120 N   0  0  0  0  0  0  0  0  0  0  0  0
    6.0550    1.2170   27.8740 C   0  0  0  0  0  0  0  0  0  0  0  0
    5.7860    2.9210   28.3690 Cl  0  0  0  0  0  0  0  0  0  0  0  0
    6.6200    0.2850   28.8140 C   0  0  0  0  0  0  0  0  0  0  0  0
    6.7850   -1.0770   28.2790 C   0  0  0  0  0  0  0  0  0  0  0  0
    7.3410   -2.0300   29.2050 C   0  0  0  0  0  0  0  0  0  0  0  0
    6.0570   -5.0380   23.7090 C   0  0  0  0  0  0  0  0  0  0  0  0
    6.6150   -5.3800   22.4570 C   0  0  0  0  0  0  0  0  0  0  0  0
  1  2  1  0
  2  3  2  0
  2  4  1  0
  4  5  1  0
  5  6  1  0
  6  7  1  0
  7  8  1  0
  8  9  2  0
  8 10  1  0
 10 11  1  0
 11 12  2  0
 12 13  1  0
 13 14  2  0
 14 15  1  0
 14 16  1  0
 11 17  1  0
 16 17  2  0
 17 18  1  0
  7 19  1  0
  4 20  1  0
 19 20  1  0
M  END
