piperidine-amides-10260-covalent
     RDKit          3D

 25 26  0  0  0  0  0  0  0  0999 V2000
    7.0460   -3.3730   19.3940 C   0  0  0  0  0  0  0  0  0  0  0  0
    6.3570   -4.1890   20.3960 C   0  0  0  0  0  0  0  0  0  0  0  0
    5.3630   -4.8430   19.9830 O   0  0  0  0  0  0  0  0  0  0  0  0
    6.8300   -4.2530   21.7160 N   0  0  0  0  0  0  0  0  0  0  0  0
    6.6610   -5.4560   22.5070 C   0  0  0  0  0  0  0  0  0  0  0  0
    6.0140   -5.0520   23.8020 C   0  0  0  0  0  0  0  0  0  0  0  0
    6.0330   -3.5540   23.9490 C   0  0  0  0  0  0  0  0  0  0  0  0
    5.6140   -3.1220   25.3120 C   0  0  0  0  0  0  0  0  0  0  0  0
    4.3900   -2.9670   25.4990 O   0  0  0  0  0  0  0  0  0  0  0  0
    6.4780   -2.8840   26.4090 N   0  0  0  0  0  0  0  0  0  0  0  0
    6.7900   -1.5540   26.9100 C   0  0  0  0  0  0  0  0  0  0  0  0
    5.8400   -0.4550   26.4880 C   0  0  0  0  0  0  0  0  0  0  0  0
    5.7520    0.7260   27.2030 C   0  0  0  0  0  0  0  0  0  0  0  0
    6.1630    0.7910   28.5130 N   0  0  0  0  0  0  0  0  0  0  0  0
    5.9900    1.9300   29.2190 C   0  0  0  0  0  0  0  0  0  0  0  0
    6.4980    2.0240   30.5070 C   0  0  0  0  0  0  0  0  0  0  0  0
    7.7480    2.5410   30.7890 O   0  0  0  0  0  0  0  0  0  0  0  0
    5.6410    1.5550   31.5480 N   0  0  0  0  0  0  0  0  0  0  0  0
    6.2680    1.5940   32.8520 C   0  0  0  0  0  0  0  0  0  0  0  0
    6.3000    2.6660   33.7180 C   0  0  0  0  0  0  0  0  0  0  0  0
    6.9580    2.4750   35.0650 C   0  0  0  0  0  0  0  0  0  0  0  0
    7.1340   -0.1240   29.0150 C   0  0  0  0  0  0  0  0  0  0  0  0
    6.9040   -1.4780   28.4020 C   0  0  0  0  0  0  0  0  0  0  0  0
    7.3890   -3.0110   23.6100 C   0  0  0  0  0  0  0  0  0  0  0  0
    7.7120   -3.2140   22.2790 C   0  0  0  0  0  0  0  0  0  0  0  0
  1  2  1  0
  2  3  2  0
  2  4  1  0
  4  5  1  0
  5  6  1  0
  6  7  1  0
  7  8  1  0
  8  9  2  0
  8 10  1  0
 10 11  1  0
 11 12  1  0
 12 13  1  0
 13 14  1  0
 14 15  1  0
 15 16  1  0
 16 17  2  0
 16 18  1  0
 18 19  1  0
 19 20  1  0
 20 21  1  0
 14 22  1  0
 11 23  1  0
 22 23  1  0
  7 24  1  0
  4 25  1  0
 24 25  1  0
M  END
