piperidine-amides-4885-covalent
     RDKit          3D

 23 25  0  0  0  0  0  0  0  0999 V2000
    7.0770   -3.3100   19.2240 C   0  0  0  0  0  0  0  0  0  0  0  0
    6.3630   -4.0950   20.2580 C   0  0  0  0  0  0  0  0  0  0  0  0
    5.2950   -4.6310   19.9080 O   0  0  0  0  0  0  0  0  0  0  0  0
    6.8980   -4.2690   21.5350 N   0  0  0  0  0  0  0  0  0  0  0  0
    7.6240   -3.2010   22.1520 C   0  0  0  0  0  0  0  0  0  0  0  0
    7.0800   -2.7570   23.4310 C   0  0  0  0  0  0  0  0  0  0  0  0
    6.5000   -3.8420   24.2380 C   0  0  0  0  0  0  0  0  0  0  0  0
    5.7110   -3.2870   25.3680 C   0  0  0  0  0  0  0  0  0  0  0  0
    4.4950   -3.0870   25.1920 O   0  0  0  0  0  0  0  0  0  0  0  0
    6.3120   -2.9970   26.6080 N   0  0  0  0  0  0  0  0  0  0  0  0
    6.0180   -1.7770   27.4000 C   0  0  2  0  0  0  0  0  0  0  0  0
    5.8730   -0.5230   26.5730 C   0  0  0  0  0  0  0  0  0  0  0  0
    5.9900    0.6740   27.3570 C   0  0  0  0  0  0  0  0  0  0  0  0
    5.7820    2.0490   27.1150 C   0  0  0  0  0  0  0  0  0  0  0  0
    5.9830    3.1140   28.1150 C   0  0  0  0  0  0  0  0  0  0  0  0
    6.4140    2.9330   29.4750 C   0  0  0  0  0  0  0  0  0  0  0  0
    6.3710    1.7590   28.9610 C   0  0  0  0  0  0  0  0  0  0  0  0
    6.3630    0.5620   28.5570 C   0  0  0  0  0  0  0  0  0  0  0  0
    6.7190   -0.5280   29.3640 N   0  0  0  0  0  0  0  0  0  0  0  0
    7.3340   -0.4440   30.6320 C   0  0  0  0  0  0  0  0  0  0  0  0
    7.1640   -1.5800   28.4360 C   0  0  0  0  0  0  0  0  0  0  0  0
    5.7010   -4.8310   23.4680 C   0  0  0  0  0  0  0  0  0  0  0  0
    6.5130   -5.4030   22.3440 C   0  0  0  0  0  0  0  0  0  0  0  0
  1  2  1  0
  2  3  2  0
  2  4  1  0
  4  5  1  0
  5  6  1  0
  6  7  1  0
  7  8  1  0
  8  9  2  0
  8 10  1  0
 11 10  1  6
 11 12  1  0
 12 13  1  0
 13 14  2  0
 14 15  1  0
 15 16  2  0
 16 17  1  0
 13 18  1  0
 17 18  2  0
 18 19  1  0
 19 20  1  0
 11 21  1  0
 19 21  1  0
  7 22  1  0
  4 23  1  0
 22 23  1  0
M  END
