piperidine-amides-30215-covalent
     RDKit          3D

 27 29  0  0  0  0  0  0  0  0999 V2000
    7.0690   -3.3610   19.3090 C   0  0  0  0  0  0  0  0  0  0  0  0
    6.3820   -4.1960   20.2830 C   0  0  0  0  0  0  0  0  0  0  0  0
    5.3450   -4.7760   19.9650 O   0  0  0  0  0  0  0  0  0  0  0  0
    6.9510   -4.4070   21.5830 N   0  0  0  0  0  0  0  0  0  0  0  0
    7.6670   -3.3510   22.2530 C   0  0  0  0  0  0  0  0  0  0  0  0
    6.8620   -2.8690   23.4200 C   0  0  0  0  0  0  0  0  0  0  0  0
    6.5090   -4.0650   24.2930 C   0  0  0  0  0  0  0  0  0  0  0  0
    5.5370   -3.6340   25.3360 C   0  0  0  0  0  0  0  0  0  0  0  0
    4.6550   -2.7880   25.1230 O   0  0  0  0  0  0  0  0  0  0  0  0
    5.6270   -4.2070   26.6180 N   0  0  0  0  0  0  0  0  0  0  0  0
    6.9400   -4.4640   26.9770 C   0  0  0  0  0  0  0  0  0  0  0  0
    6.9890   -5.5310   27.9940 C   0  0  0  0  0  0  0  0  0  0  0  0
    6.1850   -5.2180   29.0320 C   0  0  0  0  0  0  0  0  0  0  0  0
    4.9950   -4.5270   28.7480 C   0  0  0  0  0  0  0  0  0  0  0  0
    4.9550   -3.5770   27.7250 C   0  0  1  0  0  0  0  0  0  0  0  0
    5.3100   -2.2030   28.0700 C   0  0  0  0  0  0  0  0  0  0  0  0
    6.3800   -1.3870   27.8740 C   0  0  0  0  0  0  0  0  0  0  0  0
    6.0530   -0.2210   28.4580 C   0  0  0  0  0  0  0  0  0  0  0  0
    4.7930   -0.2240   29.0410 C   0  0  0  0  0  0  0  0  0  0  0  0
    4.1310    0.8770   29.7550 C   0  0  0  0  0  0  0  0  0  0  0  0
    3.2890    1.6210   29.2420 O   0  0  0  0  0  0  0  0  0  0  0  0
    4.4370    1.1290   31.0790 O   0  0  0  0  0  0  0  0  0  0  0  0
    3.6700    1.9660   31.8910 C   0  0  0  0  0  0  0  0  0  0  0  0
    4.3730   -1.4910   28.7680 N   0  0  0  0  0  0  0  0  0  0  0  0
    3.1040   -2.0200   29.1620 C   0  0  0  0  0  0  0  0  0  0  0  0
    5.8140   -5.1590   23.5030 C   0  0  0  0  0  0  0  0  0  0  0  0
    6.6830   -5.6000   22.3250 C   0  0  0  0  0  0  0  0  0  0  0  0
  1  2  1  0
  2  3  2  0
  2  4  1  0
  4  5  1  0
  5  6  1  0
  6  7  1  0
  7  8  1  0
  8  9  2  0
  8 10  1  0
 10 11  1  0
 11 12  1  0
 12 13  1  0
 13 14  1  0
 10 15  1  0
 14 15  1  0
 15 16  1  1
 16 17  2  0
 17 18  1  0
 18 19  2  0
 19 20  1  0
 20 21  2  0
 20 22  1  0
 22 23  1  0
 16 24  1  0
 19 24  1  0
 24 25  1  0
  7 26  1  0
  4 27  1  0
 26 27  1  0
M  END
