piperidine-amides-19535-covalent
     RDKit          3D

 22 23  0  0  0  0  0  0  0  0999 V2000
    7.0440   -3.4250   19.3700 C   0  0  0  0  0  0  0  0  0  0  0  0
    6.3550   -4.1680   20.4030 C   0  0  0  0  0  0  0  0  0  0  0  0
    5.4090   -4.9240   20.0120 O   0  0  0  0  0  0  0  0  0  0  0  0
    6.7100   -4.1250   21.7790 N   0  0  0  0  0  0  0  0  0  0  0  0
    6.7170   -5.4370   22.4920 C   0  0  0  0  0  0  0  0  0  0  0  0
    6.0720   -5.0840   23.8960 C   0  0  0  0  0  0  0  0  0  0  0  0
    6.2400   -3.5950   24.0250 C   0  0  0  0  0  0  0  0  0  0  0  0
    5.5190   -2.9020   25.2810 C   0  0  0  0  0  0  0  0  0  0  0  0
    4.6610   -2.1520   24.8480 O   0  0  0  0  0  0  0  0  0  0  0  0
    5.9760   -3.2840   26.4170 N   0  0  0  0  0  0  0  0  0  0  0  0
    6.2840   -4.1480   27.4370 C   0  0  0  0  0  0  0  0  0  0  0  0
    6.0840   -2.0800   27.1720 C   0  0  0  0  0  0  0  0  0  0  0  0
    6.0390   -0.8200   26.5420 C   0  0  0  0  0  0  0  0  0  0  0  0
    6.1290    0.4770   27.2440 C   0  0  0  0  0  0  0  0  0  0  0  0
    6.2810    0.1680   28.7540 C   0  0  0  0  0  0  0  0  0  0  0  0
    6.3480    1.4850   29.1960 C   0  0  0  0  0  0  0  0  0  0  0  0
    5.1260    2.1630   29.3480 N   0  0  0  0  0  0  0  0  0  0  0  0
    7.5090    1.8910   29.4000 O   0  0  0  0  0  0  0  0  0  0  0  0
    6.3230   -1.0570   29.3260 N   0  0  0  0  0  0  0  0  0  0  0  0
    6.2190   -2.1060   28.5080 N   0  0  0  0  0  0  0  0  0  0  0  0
    7.6350   -3.1320   23.7160 C   0  0  0  0  0  0  0  0  0  0  0  0
    7.6560   -3.0700   22.1920 C   0  0  0  0  0  0  0  0  0  0  0  0
  1  2  1  0
  2  3  2  0
  2  4  1  0
  4  5  1  0
  5  6  1  0
  6  7  1  0
  7  8  1  0
  8  9  2  0
  8 10  1  0
 10 11  1  0
 10 12  1  0
 12 13  2  0
 13 14  1  0
 14 15  2  0
 15 16  1  0
 16 17  1  0
 16 18  2  0
 15 19  1  0
 12 20  1  0
 19 20  2  0
  7 21  1  0
  4 22  1  0
 21 22  1  0
M  END
