piperidine-amides-26864-covalent
     RDKit          3D

 24 26  0  0  0  0  0  0  0  0999 V2000
    7.0080   -3.3180   19.3040 C   0  0  0  0  0  0  0  0  0  0  0  0
    6.2960   -4.1420   20.2850 C   0  0  0  0  0  0  0  0  0  0  0  0
    5.2230   -4.6520   19.8990 O   0  0  0  0  0  0  0  0  0  0  0  0
    6.8180   -4.3940   21.5530 N   0  0  0  0  0  0  0  0  0  0  0  0
    6.4460   -5.5990   22.2540 C   0  0  0  0  0  0  0  0  0  0  0  0
    5.6370   -5.1860   23.4520 C   0  0  0  0  0  0  0  0  0  0  0  0
    6.3850   -4.1500   24.2370 C   0  0  0  0  0  0  0  0  0  0  0  0
    5.5920   -3.6260   25.3830 C   0  0  0  0  0  0  0  0  0  0  0  0
    4.4100   -3.2470   25.2420 O   0  0  0  0  0  0  0  0  0  0  0  0
    6.2300   -3.5790   26.6150 N   0  0  0  0  0  0  0  0  0  0  0  0
    5.7200   -4.2500   27.8670 C   0  0  0  0  0  0  0  0  0  0  0  0
    6.8640   -5.0370   28.5390 C   0  0  0  0  0  0  0  0  0  0  0  0
    7.8960   -4.7540   27.7730 C   0  0  0  0  0  0  0  0  0  0  0  0
    9.4410   -4.9130   27.4730 C   0  0  0  0  0  0  0  0  0  0  0  0
   10.3150   -4.2880   26.2590 C   0  0  0  0  0  0  0  0  0  0  0  0
   11.6690   -4.4130   26.0050 O   0  0  0  0  0  0  0  0  0  0  0  0
   12.3380   -3.2310   25.5210 C   0  0  0  0  0  0  0  0  0  0  0  0
   12.7360   -2.9460   24.2400 C   0  0  0  0  0  0  0  0  0  0  0  0
    9.6080   -3.5200   25.3700 C   0  0  0  0  0  0  0  0  0  0  0  0
    9.8250   -2.5580   23.8930 Cl  0  0  0  0  0  0  0  0  0  0  0  0
    8.6780   -3.8820   26.2260 C   0  0  0  0  0  0  0  0  0  0  0  0
    7.5590   -4.0290   26.8300 C   0  0  0  0  0  0  0  0  0  0  0  0
    6.8260   -3.0060   23.3610 C   0  0  0  0  0  0  0  0  0  0  0  0
    7.6090   -3.4100   22.2990 C   0  0  0  0  0  0  0  0  0  0  0  0
  1  2  1  0
  2  3  2  0
  2  4  1  0
  4  5  1  0
  5  6  1  0
  6  7  1  0
  7  8  1  0
  8  9  2  0
  8 10  1  0
 10 11  1  0
 11 12  1  0
 12 13  1  0
 13 14  1  0
 14 15  2  0
 15 16  1  0
 16 17  1  0
 17 18  1  0
 15 19  1  0
 19 20  1  0
 19 21  2  0
 10 22  1  0
 13 22  2  0
 21 22  1  0
  7 23  1  0
  4 24  1  0
 23 24  1  0
M  END
