piperidine-amides-10838-covalent
     RDKit          3D

 22 23  0  0  0  0  0  0  0  0999 V2000
    7.0590   -3.3270   19.3200 C   0  0  0  0  0  0  0  0  0  0  0  0
    6.3740   -4.1370   20.3340 C   0  0  0  0  0  0  0  0  0  0  0  0
    5.4010   -4.8310   19.9870 O   0  0  0  0  0  0  0  0  0  0  0  0
    6.8160   -4.1740   21.6720 N   0  0  0  0  0  0  0  0  0  0  0  0
    7.7590   -3.1910   22.1800 C   0  0  0  0  0  0  0  0  0  0  0  0
    7.3650   -2.8990   23.5990 C   0  0  0  0  0  0  0  0  0  0  0  0
    6.0840   -3.5790   23.9490 C   0  0  0  0  0  0  0  0  0  0  0  0
    5.6310   -3.2550   25.3230 C   0  0  0  0  0  0  0  0  0  0  0  0
    4.3980   -3.2720   25.6130 O   0  0  0  0  0  0  0  0  0  0  0  0
    6.5320   -2.9090   26.3490 N   0  0  0  0  0  0  0  0  0  0  0  0
    6.4360   -1.6170   27.0570 C   0  0  0  0  0  0  0  0  0  0  0  0
    5.8850   -0.4300   26.3860 C   0  0  0  0  0  0  0  0  0  0  0  0
    5.8060    0.8300   27.1310 C   0  0  0  0  0  0  0  0  0  0  0  0
    5.2920    1.9390   26.4970 F   0  0  0  0  0  0  0  0  0  0  0  0
    6.2550    0.9950   28.5580 C   0  0  0  0  0  0  0  0  0  0  0  0
    6.8180   -0.2480   29.2210 C   0  0  0  0  0  0  0  0  0  0  0  0
    7.2630   -0.1440   30.6110 N   0  0  0  0  0  0  0  0  0  0  0  0
    8.3080    0.5850   30.8760 O   0  0  0  0  0  0  0  0  0  0  0  0
    6.3590   -0.3560   31.6260 O   0  0  0  0  0  0  0  0  0  0  0  0
    6.9000   -1.5270   28.4620 C   0  0  0  0  0  0  0  0  0  0  0  0
    6.2340   -5.0700   23.7300 C   0  0  0  0  0  0  0  0  0  0  0  0
    6.6170   -5.4030   22.4150 C   0  0  0  0  0  0  0  0  0  0  0  0
  1  2  1  0
  2  3  2  0
  2  4  1  0
  4  5  1  0
  5  6  1  0
  6  7  1  0
  7  8  1  0
  8  9  2  0
  8 10  1  0
 10 11  1  0
 11 12  2  0
 12 13  1  0
 13 14  1  0
 13 15  2  0
 15 16  1  0
 16 17  1  0
 17 18  2  0
 17 19  1  0
 11 20  1  0
 16 20  2  0
  7 21  1  0
  4 22  1  0
 21 22  1  0
M  CHG  2  17   1  19  -1
M  END
