piperidine-amides-28822-covalent
     RDKit          3D

 26 28  0  0  0  0  0  0  0  0999 V2000
    7.0480   -3.3270   19.3260 C   0  0  0  0  0  0  0  0  0  0  0  0
    6.3790   -4.1650   20.3170 C   0  0  0  0  0  0  0  0  0  0  0  0
    5.3660   -4.7950   19.9660 O   0  0  0  0  0  0  0  0  0  0  0  0
    6.9080   -4.2900   21.6270 N   0  0  0  0  0  0  0  0  0  0  0  0
    6.6080   -5.4800   22.3650 C   0  0  0  0  0  0  0  0  0  0  0  0
    6.1040   -5.1220   23.7370 C   0  0  0  0  0  0  0  0  0  0  0  0
    5.8830   -3.6190   23.7670 C   0  0  0  0  0  0  0  0  0  0  0  0
    5.0960   -3.1720   24.9730 C   0  0  0  0  0  0  0  0  0  0  0  0
    4.6570   -2.0340   24.9660 O   0  0  0  0  0  0  0  0  0  0  0  0
    4.9490   -4.0830   25.9890 N   0  0  0  0  0  0  0  0  0  0  0  0
    6.0900   -4.5710   26.3860 C   0  0  0  0  0  0  0  0  0  0  0  0
    5.7900   -4.3840   27.6810 C   0  0  0  0  0  0  0  0  0  0  0  0
    5.6660   -5.4890   28.4950 C   0  0  0  0  0  0  0  0  0  0  0  0
    5.0510   -5.0860   29.6720 C   0  0  0  0  0  0  0  0  0  0  0  0
    5.3270   -3.6340   29.4810 C   0  0  0  0  0  0  0  0  0  0  0  0
    6.4850   -3.5460   28.5160 C   0  0  0  0  0  0  0  0  0  0  0  0
    4.5210   -3.8340   27.3620 C   0  0  2  0  0  0  0  0  0  0  0  0
    3.2540   -4.5210   27.7920 C   0  0  0  0  0  0  0  0  0  0  0  0
    2.4230   -3.9370   28.5360 O   0  0  0  0  0  0  0  0  0  0  0  0
    3.0170   -5.6940   27.4060 O   0  0  0  0  0  0  0  0  0  0  0  0
    2.7730   -6.8250   28.2380 C   0  0  0  0  0  0  0  0  0  0  0  0
    2.2860   -7.8410   27.4540 C   0  0  0  0  0  0  0  0  0  0  0  0
    1.9300   -6.6640   29.3050 C   0  0  0  0  0  0  0  0  0  0  0  0
    3.9460   -7.5800   28.8900 C   0  0  0  0  0  0  0  0  0  0  0  0
    7.2510   -2.9530   23.6500 C   0  0  0  0  0  0  0  0  0  0  0  0
    7.6910   -3.2450   22.2330 C   0  0  0  0  0  0  0  0  0  0  0  0
  1  2  1  0
  2  3  2  0
  2  4  1  0
  4  5  1  0
  5  6  1  0
  6  7  1  0
  7  8  1  0
  8  9  2  0
  8 10  1  0
 10 11  1  0
 12 11  1  0
 12 13  1  0
 13 14  1  0
 14 15  1  0
 12 16  1  0
 15 16  1  0
 10 17  1  0
 12 17  1  0
 17 18  1  1
 18 19  2  0
 18 20  1  0
 21 20  1  0
 21 22  1  0
 21 23  1  0
 21 24  1  0
  7 25  1  0
  4 26  1  0
 25 26  1  0
M  END
