piperidine-amides-32282-covalent
     RDKit          3D

 24 26  0  0  0  0  0  0  0  0999 V2000
    7.1060   -3.3090   19.2720 C   0  0  0  0  0  0  0  0  0  0  0  0
    6.4040   -4.1400   20.2890 C   0  0  0  0  0  0  0  0  0  0  0  0
    5.3620   -4.7270   19.9560 O   0  0  0  0  0  0  0  0  0  0  0  0
    6.9680   -4.2870   21.5800 N   0  0  0  0  0  0  0  0  0  0  0  0
    6.6000   -5.3780   22.4280 C   0  0  0  0  0  0  0  0  0  0  0  0
    5.6530   -4.7730   23.4690 C   0  0  0  0  0  0  0  0  0  0  0  0
    6.3430   -3.6800   24.2490 C   0  0  0  0  0  0  0  0  0  0  0  0
    5.4150   -3.2340   25.3180 C   0  0  0  0  0  0  0  0  0  0  0  0
    4.2290   -3.2170   24.9860 O   0  0  0  0  0  0  0  0  0  0  0  0
    5.8100   -2.8550   26.6090 N   0  0  0  0  0  0  0  0  0  0  0  0
    6.3680   -1.6320   26.9610 C   0  0  0  0  0  0  0  0  0  0  0  0
    5.6340   -1.5650   28.0450 C   0  0  0  0  0  0  0  0  0  0  0  0
    4.9180   -2.7710   27.7970 C   0  0  2  0  0  0  0  0  0  0  0  0
    4.9520   -3.8530   28.6440 C   0  0  0  0  0  0  0  0  0  0  0  0
    5.9670   -4.9280   28.5370 C   0  0  0  0  0  0  0  0  0  0  0  0
    5.9950   -6.1370   29.4860 C   0  0  0  0  0  0  0  0  0  0  0  0
    4.8600   -6.0650   30.5210 C   0  0  0  0  0  0  0  0  0  0  0  0
    4.6660   -7.4370   31.8310 Br  0  0  0  0  0  0  0  0  0  0  0  0
    3.9580   -5.0210   30.5370 C   0  0  0  0  0  0  0  0  0  0  0  0
    3.0230   -5.1530   31.5400 O   0  0  0  0  0  0  0  0  0  0  0  0
    3.2100   -4.5270   32.7840 C   0  0  0  0  0  0  0  0  0  0  0  0
    4.0160   -3.9670   29.6300 C   0  0  0  0  0  0  0  0  0  0  0  0
    6.7710   -2.6150   23.3200 C   0  0  0  0  0  0  0  0  0  0  0  0
    7.6660   -3.2070   22.2150 C   0  0  0  0  0  0  0  0  0  0  0  0
  1  2  1  0
  2  3  2  0
  2  4  1  0
  4  5  1  0
  5  6  1  0
  6  7  1  0
  7  8  1  0
  8  9  2  0
  8 10  1  0
 10 11  1  0
 11 12  1  0
 10 13  1  0
 12 13  1  0
 13 14  1  1
 14 15  2  0
 15 16  1  0
 16 17  2  0
 17 18  1  0
 17 19  1  0
 19 20  1  0
 20 21  1  0
 14 22  1  0
 19 22  2  0
  7 23  1  0
  4 24  1  0
 23 24  1  0
M  END
