piperidine-amides-8073-covalent
     RDKit          3D

 26 28  0  0  0  0  0  0  0  0999 V2000
    7.1730   -3.2420   19.1660 C   0  0  0  0  0  0  0  0  0  0  0  0
    6.3330   -3.9500   20.1260 C   0  0  0  0  0  0  0  0  0  0  0  0
    5.2070   -4.3310   19.7750 O   0  0  0  0  0  0  0  0  0  0  0  0
    6.8180   -4.2430   21.4150 N   0  0  0  0  0  0  0  0  0  0  0  0
    7.4640   -3.1820   22.1250 C   0  0  0  0  0  0  0  0  0  0  0  0
    6.4660   -2.5650   23.0580 C   0  0  0  0  0  0  0  0  0  0  0  0
    6.0610   -3.6570   24.0220 C   0  0  0  0  0  0  0  0  0  0  0  0
    5.1310   -3.1360   25.0750 C   0  0  0  0  0  0  0  0  0  0  0  0
    4.1550   -3.8380   25.3190 O   0  0  0  0  0  0  0  0  0  0  0  0
    5.4000   -1.9240   25.6980 N   0  0  0  0  0  0  0  0  0  0  0  0
    4.3340   -1.1530   26.2680 C   0  0  0  0  0  0  0  0  0  0  0  0
    4.5390   -0.7150   27.5830 C   0  0  0  0  0  0  0  0  0  0  0  0
    5.5930   -1.2710   28.0960 C   0  0  0  0  0  0  0  0  0  0  0  0
    6.0390   -2.3420   27.4370 N   0  0  0  0  0  0  0  0  0  0  0  0
    7.1090   -2.6900   28.1340 C   0  0  0  0  0  0  0  0  0  0  0  0
    7.7390   -3.8320   27.5230 C   0  0  0  0  0  0  0  0  0  0  0  0
    8.6940   -4.6350   28.2820 C   0  0  0  0  0  0  0  0  0  0  0  0
    9.3510   -5.7230   27.6640 C   0  0  0  0  0  0  0  0  0  0  0  0
    9.0940   -6.0950   26.2800 C   0  0  0  0  0  0  0  0  0  0  0  0
    8.0540   -5.2470   25.5310 C   0  0  0  0  0  0  0  0  0  0  0  0
    7.6160   -5.6000   23.8710 Cl  0  0  0  0  0  0  0  0  0  0  0  0
    7.4170   -4.1790   26.1020 C   0  0  0  0  0  0  0  0  0  0  0  0
    7.3150   -1.8330   29.2360 N   0  0  0  0  0  0  0  0  0  0  0  0
    6.3250   -0.9320   29.1940 O   0  0  0  0  0  0  0  0  0  0  0  0
    5.3090   -4.7090   23.2520 C   0  0  0  0  0  0  0  0  0  0  0  0
    6.0590   -5.2710   22.0710 C   0  0  0  0  0  0  0  0  0  0  0  0
  1  2  1  0
  2  3  2  0
  2  4  1  0
  4  5  1  0
  5  6  1  0
  6  7  1  0
  7  8  1  0
  8  9  2  0
  8 10  1  0
 10 11  1  0
 11 12  1  0
 12 13  1  0
 13 14  2  0
 14 15  1  0
 15 16  1  0
 16 17  2  0
 17 18  1  0
 18 19  2  0
 19 20  1  0
 20 21  1  0
 16 22  1  0
 20 22  2  0
 15 23  2  0
 13 24  1  0
 23 24  1  0
  7 25  1  0
  4 26  1  0
 25 26  1  0
M  END
