piperidine-amides-34373-covalent
     RDKit          3D

 25 27  0  0  0  0  0  0  0  0999 V2000
    7.0820   -3.3460   19.3370 C   0  0  0  0  0  0  0  0  0  0  0  0
    6.4210   -4.2230   20.3060 C   0  0  0  0  0  0  0  0  0  0  0  0
    5.3770   -4.8330   19.9830 O   0  0  0  0  0  0  0  0  0  0  0  0
    6.9850   -4.4390   21.5700 N   0  0  0  0  0  0  0  0  0  0  0  0
    6.5920   -5.6000   22.3190 C   0  0  0  0  0  0  0  0  0  0  0  0
    5.5650   -5.0890   23.3240 C   0  0  0  0  0  0  0  0  0  0  0  0
    6.2820   -4.1010   24.2190 C   0  0  0  0  0  0  0  0  0  0  0  0
    5.3190   -3.5220   25.1750 C   0  0  0  0  0  0  0  0  0  0  0  0
    4.4090   -2.8050   24.7220 O   0  0  0  0  0  0  0  0  0  0  0  0
    5.4320   -3.7760   26.5500 N   0  0  0  0  0  0  0  0  0  0  0  0
    6.4910   -3.1690   27.1920 C   0  0  0  0  0  0  0  0  0  0  0  0
    6.7350   -4.0760   28.3720 C   0  0  0  0  0  0  0  0  0  0  0  0
    5.7050   -4.0970   29.1980 C   0  0  0  0  0  0  0  0  0  0  0  0
    5.4540   -2.8570   29.7520 C   0  0  0  0  0  0  0  0  0  0  0  0
    6.2680   -1.7780   29.6320 C   0  0  0  0  0  0  0  0  0  0  0  0
    6.1110   -0.5250   30.1420 C   0  0  0  0  0  0  0  0  0  0  0  0
    5.0010    0.0990   31.0050 C   0  0  0  0  0  0  0  0  0  0  0  0
    4.7490    1.6830   31.6830 Cl  0  0  0  0  0  0  0  0  0  0  0  0
    4.1540   -1.1960   31.0720 C   0  0  0  0  0  0  0  0  0  0  0  0
    4.3610   -2.5700   30.4930 C   0  0  0  0  0  0  0  0  0  0  0  0
    3.0540   -3.9360   30.8160 Br  0  0  0  0  0  0  0  0  0  0  0  0
    4.5240   -4.5320   28.6120 C   0  0  0  0  0  0  0  0  0  0  0  0
    4.3980   -3.5990   27.5590 C   0  0  0  0  0  0  0  0  0  0  0  0
    6.8190   -2.9210   23.3950 C   0  0  0  0  0  0  0  0  0  0  0  0
    7.6950   -3.3950   22.2710 C   0  0  0  0  0  0  0  0  0  0  0  0
  1  2  1  0
  2  3  2  0
  2  4  1  0
  4  5  1  0
  5  6  1  0
  6  7  1  0
  7  8  1  0
  8  9  2  0
  8 10  1  0
 10 11  1  0
 11 12  1  0
 12 13  1  0
 13 14  1  0
 14 15  2  0
 15 16  1  0
 16 17  2  0
 17 18  1  0
 17 19  1  0
 14 20  1  0
 19 20  2  0
 20 21  1  0
 13 22  1  0
 10 23  1  0
 22 23  1  0
  7 24  1  0
  4 25  1  0
 24 25  1  0
M  END
