piperidine-amides-10925-covalent
     RDKit          3D

 21 22  0  0  0  0  0  0  0  0999 V2000
    7.0490   -3.3390   19.3300 C   0  0  0  0  0  0  0  0  0  0  0  0
    6.3690   -4.1670   20.3290 C   0  0  0  0  0  0  0  0  0  0  0  0
    5.3800   -4.8310   19.9780 O   0  0  0  0  0  0  0  0  0  0  0  0
    6.8270   -4.2660   21.6580 N   0  0  0  0  0  0  0  0  0  0  0  0
    6.7140   -5.4890   22.4290 C   0  0  0  0  0  0  0  0  0  0  0  0
    6.0790   -5.1150   23.7470 C   0  0  0  0  0  0  0  0  0  0  0  0
    6.0980   -3.6340   23.9810 C   0  0  0  0  0  0  0  0  0  0  0  0
    5.6780   -3.2510   25.3500 C   0  0  0  0  0  0  0  0  0  0  0  0
    4.4640   -3.3660   25.6830 O   0  0  0  0  0  0  0  0  0  0  0  0
    6.5620   -2.7410   26.3270 N   0  0  0  0  0  0  0  0  0  0  0  0
    6.0990   -1.6840   27.2600 C   0  0  0  0  0  0  0  0  0  0  0  0
    4.8850   -2.1700   27.9520 C   0  0  0  0  0  0  0  0  0  0  0  0
    5.7870   -0.3790   26.5140 C   0  0  0  0  0  0  0  0  0  0  0  0
    5.1900    0.5030   27.5770 C   0  0  0  0  0  0  0  0  0  0  0  0
    6.0590    0.7320   28.8040 C   0  0  0  0  0  0  0  0  0  0  0  0
    5.1980    1.3230   29.7930 F   0  0  0  0  0  0  0  0  0  0  0  0
    7.0350    1.6070   28.5490 F   0  0  0  0  0  0  0  0  0  0  0  0
    6.5590   -0.5920   29.2900 C   0  0  0  0  0  0  0  0  0  0  0  0
    7.1600   -1.3710   28.3350 C   0  0  0  0  0  0  0  0  0  0  0  0
    7.4430   -3.0520   23.6600 C   0  0  0  0  0  0  0  0  0  0  0  0
    7.7020   -3.2210   22.1830 C   0  0  0  0  0  0  0  0  0  0  0  0
  1  2  1  0
  2  3  2  0
  2  4  1  0
  4  5  1  0
  5  6  1  0
  6  7  1  0
  7  8  1  0
  8  9  2  0
  8 10  1  0
 11 10  1  0
 11 12  1  0
 11 13  1  0
 13 14  1  0
 14 15  1  0
 15 16  1  0
 15 17  1  0
 15 18  1  0
 11 19  1  0
 18 19  1  0
  7 20  1  0
  4 21  1  0
 20 21  1  0
M  END
