piperidine-amides-1169-covalent
     RDKit          3D

 23 25  0  0  0  0  0  0  0  0999 V2000
    7.0650   -3.3580   19.3480 C   0  0  0  0  0  0  0  0  0  0  0  0
    6.3330   -4.1770   20.3510 C   0  0  0  0  0  0  0  0  0  0  0  0
    5.3540   -4.8430   19.9800 O   0  0  0  0  0  0  0  0  0  0  0  0
    6.8070   -4.2000   21.6780 N   0  0  0  0  0  0  0  0  0  0  0  0
    7.7120   -3.1730   22.1580 C   0  0  0  0  0  0  0  0  0  0  0  0
    7.5260   -3.0390   23.6690 C   0  0  0  0  0  0  0  0  0  0  0  0
    6.1780   -3.5890   23.9650 C   0  0  0  0  0  0  0  0  0  0  0  0
    5.7060   -3.2750   25.3320 C   0  0  0  0  0  0  0  0  0  0  0  0
    4.5010   -3.4520   25.5500 O   0  0  0  0  0  0  0  0  0  0  0  0
    6.5990   -2.7900   26.2870 N   0  0  0  0  0  0  0  0  0  0  0  0
    6.4700   -1.5800   27.0190 C   0  0  0  0  0  0  0  0  0  0  0  0
    5.9030   -0.4350   26.5130 C   0  0  0  0  0  0  0  0  0  0  0  0
    5.7680    0.7600   27.2430 C   0  0  0  0  0  0  0  0  0  0  0  0
    6.1900    0.9160   28.5450 C   0  0  0  0  0  0  0  0  0  0  0  0
    6.1300    1.9930   29.3680 O   0  0  0  0  0  0  0  0  0  0  0  0
    5.5350    1.8260   30.5320 C   0  0  0  0  0  0  0  0  0  0  0  0
    6.0950    0.6760   31.3120 C   0  0  0  0  0  0  0  0  0  0  0  0
    7.1590    0.0620   30.4520 C   0  0  0  0  0  0  0  0  0  0  0  0
    8.4370   -0.1910   30.8850 O   0  0  0  0  0  0  0  0  0  0  0  0
    6.7820   -0.1880   29.1510 C   0  0  0  0  0  0  0  0  0  0  0  0
    6.9340   -1.4520   28.3990 C   0  0  0  0  0  0  0  0  0  0  0  0
    6.0410   -5.0550   23.6980 C   0  0  0  0  0  0  0  0  0  0  0  0
    6.6280   -5.3750   22.4970 C   0  0  0  0  0  0  0  0  0  0  0  0
  1  2  1  0
  2  3  2  0
  2  4  1  0
  4  5  1  0
  5  6  1  0
  6  7  1  0
  7  8  1  0
  8  9  2  0
  8 10  1  0
 10 11  1  0
 11 12  2  0
 12 13  1  0
 13 14  2  0
 14 15  1  0
 15 16  1  0
 16 17  2  0
 17 18  1  0
 18 19  2  0
 14 20  1  0
 18 20  1  0
 11 21  1  0
 20 21  2  0
  7 22  1  0
  4 23  1  0
 22 23  1  0
M  END
