piperidine-amides-32600-covalent
     RDKit          3D

 28 30  0  0  0  0  0  0  0  0999 V2000
    7.0680   -3.3690   19.3850 C   0  0  0  0  0  0  0  0  0  0  0  0
    6.3750   -4.2250   20.3820 C   0  0  0  0  0  0  0  0  0  0  0  0
    5.3980   -4.8960   20.0010 O   0  0  0  0  0  0  0  0  0  0  0  0
    6.8680   -4.2890   21.7120 N   0  0  0  0  0  0  0  0  0  0  0  0
    6.5770   -5.3920   22.5830 C   0  0  0  0  0  0  0  0  0  0  0  0
    5.7940   -4.8320   23.7910 C   0  0  0  0  0  0  0  0  0  0  0  0
    6.4730   -3.6080   24.3690 C   0  0  0  0  0  0  0  0  0  0  0  0
    5.6220   -2.9720   25.4240 C   0  0  0  0  0  0  0  0  0  0  0  0
    4.5700   -2.4890   24.9940 O   0  0  0  0  0  0  0  0  0  0  0  0
    5.9670   -2.9350   26.8020 N   0  0  0  0  0  0  0  0  0  0  0  0
    6.0620   -4.1490   27.5450 C   0  0  0  0  0  0  0  0  0  0  0  0
    5.0730   -4.8070   28.2290 C   0  0  0  0  0  0  0  0  0  0  0  0
    3.7110   -4.4500   28.0270 C   0  0  0  0  0  0  0  0  0  0  0  0
    2.6430   -5.0610   28.6630 C   0  0  0  0  0  0  0  0  0  0  0  0
    2.9050   -6.1570   29.6180 C   0  0  0  0  0  0  0  0  0  0  0  0
    4.3250   -6.6050   29.8990 C   0  0  0  0  0  0  0  0  0  0  0  0
    5.3630   -5.8200   29.1090 C   0  0  0  0  0  0  0  0  0  0  0  0
    5.8100   -1.6570   27.4850 C   0  0  2  0  0  0  0  0  0  0  0  0
    4.6390   -1.5190   28.3970 C   0  0  0  0  0  0  0  0  0  0  0  0
    4.4510   -2.4860   29.3250 F   0  0  0  0  0  0  0  0  0  0  0  0
    4.5770   -0.3360   29.0850 F   0  0  0  0  0  0  0  0  0  0  0  0
    3.5330   -1.5790   27.5630 F   0  0  0  0  0  0  0  0  0  0  0  0
    5.9870   -0.5870   26.6060 C   0  0  0  0  0  0  0  0  0  0  0  0
    6.1880    0.5580   27.3230 C   0  0  0  0  0  0  0  0  0  0  0  0
    6.7970    0.1350   28.3890 O   0  0  0  0  0  0  0  0  0  0  0  0
    6.9050   -1.2410   28.4570 C   0  0  0  0  0  0  0  0  0  0  0  0
    6.8790   -2.5670   23.3720 C   0  0  0  0  0  0  0  0  0  0  0  0
    7.6960   -3.2470   22.2750 C   0  0  0  0  0  0  0  0  0  0  0  0
  1  2  1  0
  2  3  2  0
  2  4  1  0
  4  5  1  0
  5  6  1  0
  6  7  1  0
  7  8  1  0
  8  9  2  0
  8 10  1  0
 10 11  1  0
 11 12  1  0
 12 13  2  0
 13 14  1  0
 14 15  2  0
 15 16  1  0
 12 17  1  0
 16 17  2  0
 18 10  1  6
 18 19  1  0
 19 20  1  0
 19 21  1  0
 19 22  1  0
 18 23  1  0
 23 24  1  0
 24 25  1  0
 18 26  1  0
 25 26  1  0
  7 27  1  0
  4 28  1  0
 27 28  1  0
M  END
