piperidine-amides-13978-covalent
     RDKit          3D

 26 27  0  0  0  0  0  0  0  0999 V2000
    7.0670   -3.2620   19.2120 C   0  0  0  0  0  0  0  0  0  0  0  0
    6.2910   -4.0280   20.2280 C   0  0  0  0  0  0  0  0  0  0  0  0
    5.2430   -4.5950   19.8880 O   0  0  0  0  0  0  0  0  0  0  0  0
    6.7820   -4.1310   21.5390 N   0  0  0  0  0  0  0  0  0  0  0  0
    7.6170   -3.1020   22.1090 C   0  0  0  0  0  0  0  0  0  0  0  0
    7.3470   -3.1250   23.6070 C   0  0  0  0  0  0  0  0  0  0  0  0
    5.9570   -3.6330   23.7640 C   0  0  0  0  0  0  0  0  0  0  0  0
    5.4450   -3.5240   25.1490 C   0  0  0  0  0  0  0  0  0  0  0  0
    4.3360   -2.9980   25.2830 O   0  0  0  0  0  0  0  0  0  0  0  0
    6.2090   -3.9960   26.2200 N   0  0  0  0  0  0  0  0  0  0  0  0
    6.0830   -5.2450   26.8960 C   0  0  0  0  0  0  0  0  0  0  0  0
    5.5840   -5.4270   28.1810 C   0  0  0  0  0  0  0  0  0  0  0  0
    5.1400   -4.3580   28.9960 C   0  0  0  0  0  0  0  0  0  0  0  0
    6.0320   -3.3190   29.0760 O   0  0  0  0  0  0  0  0  0  0  0  0
    7.0760   -3.4830   28.2240 C   0  0  0  0  0  0  0  0  0  0  0  0
    7.9880   -4.5900   28.5450 C   0  0  0  0  0  0  0  0  0  0  0  0
    9.1890   -4.9730   27.7220 C   0  0  0  0  0  0  0  0  0  0  0  0
    9.3720   -4.1190   26.4940 C   0  0  0  0  0  0  0  0  0  0  0  0
   10.3430   -4.2750   25.5750 C   0  0  0  0  0  0  0  0  0  0  0  0
   10.2260   -3.6870   24.3500 F   0  0  0  0  0  0  0  0  0  0  0  0
   11.6320   -3.8820   25.9770 F   0  0  0  0  0  0  0  0  0  0  0  0
   10.5480   -5.6380   25.6120 F   0  0  0  0  0  0  0  0  0  0  0  0
    8.3750   -3.0490   26.2950 C   0  0  0  0  0  0  0  0  0  0  0  0
    7.2660   -2.7260   27.1370 N   0  0  0  0  0  0  0  0  0  0  0  0
    5.7140   -5.0320   23.2760 C   0  0  0  0  0  0  0  0  0  0  0  0
    6.6230   -5.3460   22.2920 C   0  0  0  0  0  0  0  0  0  0  0  0
  1  2  1  0
  2  3  2  0
  2  4  1  0
  4  5  1  0
  5  6  1  0
  6  7  1  0
  7  8  1  0
  8  9  2  0
  8 10  1  0
 10 11  1  0
 11 12  1  0
 12 13  1  0
 13 14  1  0
 14 15  1  0
 15 16  2  0
 16 17  1  0
 17 18  2  0
 18 19  1  0
 19 20  1  0
 19 21  1  0
 19 22  1  0
 18 23  1  0
 15 24  1  0
 23 24  2  0
  7 25  1  0
  4 26  1  0
 25 26  1  0
M  END
