piperidine-amides-19390-covalent
     RDKit          3D

 22 24  0  0  0  0  0  0  0  0999 V2000
    7.0840   -3.3580   19.4320 C   0  0  0  0  0  0  0  0  0  0  0  0
    6.3830   -4.1950   20.3840 C   0  0  0  0  0  0  0  0  0  0  0  0
    5.4080   -4.9040   19.9850 O   0  0  0  0  0  0  0  0  0  0  0  0
    6.7820   -4.2510   21.7290 N   0  0  0  0  0  0  0  0  0  0  0  0
    6.5220   -5.5050   22.4730 C   0  0  0  0  0  0  0  0  0  0  0  0
    5.5270   -4.9530   23.5650 C   0  0  0  0  0  0  0  0  0  0  0  0
    6.3630   -4.0510   24.4460 C   0  0  0  0  0  0  0  0  0  0  0  0
    5.4330   -2.9850   25.1890 C   0  0  0  0  0  0  0  0  0  0  0  0
    5.0920   -2.1500   24.3790 O   0  0  0  0  0  0  0  0  0  0  0  0
    5.2240   -3.2210   26.4450 N   0  0  0  0  0  0  0  0  0  0  0  0
    4.5180   -3.2760   27.6020 C   0  0  0  0  0  0  0  0  0  0  0  0
    3.9140   -4.2640   28.3090 C   0  0  0  0  0  0  0  0  0  0  0  0
    4.9120   -5.1210   28.6770 C   0  0  0  0  0  0  0  0  0  0  0  0
    4.7730   -6.2230   29.4680 N   0  0  0  0  0  0  0  0  0  0  0  0
    5.8370   -7.1090   29.3980 C   0  0  0  0  0  0  0  0  0  0  0  0
    6.8770   -6.8300   28.6580 N   0  0  0  0  0  0  0  0  0  0  0  0
    7.0340   -5.5780   28.6190 C   0  0  0  0  0  0  0  0  0  0  0  0
    8.0570   -4.8780   29.1840 O   0  0  0  0  0  0  0  0  0  0  0  0
    6.1980   -4.6740   28.0860 C   0  0  0  0  0  0  0  0  0  0  0  0
    6.3790   -3.5340   27.2380 C   0  0  0  0  0  0  0  0  0  0  0  0
    7.6270   -3.6220   23.8850 C   0  0  0  0  0  0  0  0  0  0  0  0
    7.3540   -3.1640   22.4190 C   0  0  0  0  0  0  0  0  0  0  0  0
  1  2  1  0
  2  3  2  0
  2  4  1  0
  4  5  1  0
  5  6  1  0
  6  7  1  0
  7  8  1  0
  8  9  2  0
  8 10  1  0
 10 11  1  0
 11 12  1  0
 12 13  1  0
 13 14  1  0
 14 15  2  0
 15 16  1  0
 16 17  1  0
 17 18  2  0
 13 19  2  0
 17 19  1  0
 10 20  1  0
 19 20  1  0
  7 21  1  0
  4 22  1  0
 21 22  1  0
M  END
