piperidine-amides-2539-covalent
     RDKit          3D

 26 28  0  0  0  0  0  0  0  0999 V2000
    7.1010   -3.2650   19.1690 C   0  0  0  0  0  0  0  0  0  0  0  0
    6.3560   -4.0260   20.2080 C   0  0  0  0  0  0  0  0  0  0  0  0
    5.2870   -4.5310   19.8760 O   0  0  0  0  0  0  0  0  0  0  0  0
    6.8930   -4.1890   21.4850 N   0  0  0  0  0  0  0  0  0  0  0  0
    7.7340   -3.1930   22.0930 C   0  0  0  0  0  0  0  0  0  0  0  0
    7.1020   -2.7110   23.3570 C   0  0  0  0  0  0  0  0  0  0  0  0
    6.5900   -3.8990   24.1740 C   0  0  0  0  0  0  0  0  0  0  0  0
    5.6970   -3.3450   25.1980 C   0  0  0  0  0  0  0  0  0  0  0  0
    4.4780   -3.5700   25.1610 O   0  0  0  0  0  0  0  0  0  0  0  0
    6.2270   -2.5490   26.2160 N   0  0  0  0  0  0  0  0  0  0  0  0
    6.5300   -3.1810   27.4610 C   0  0  1  0  0  0  0  0  0  0  0  0
    7.6500   -4.1100   27.0800 C   0  0  0  0  0  0  0  0  0  0  0  0
    8.2340   -4.9640   27.9420 C   0  0  0  0  0  0  0  0  0  0  0  0
    9.1150   -5.7870   27.3480 C   0  0  0  0  0  0  0  0  0  0  0  0
    7.0950   -5.7980   28.5200 C   0  0  0  0  0  0  0  0  0  0  0  0
    6.7410   -2.3190   28.5100 C   0  0  0  0  0  0  0  0  0  0  0  0
    5.6130   -1.9700   29.1440 N   0  0  0  0  0  0  0  0  0  0  0  0
    5.9880   -1.1050   30.1570 C   0  0  0  0  0  0  0  0  0  0  0  0
    5.1610   -0.3830   31.2040 C   0  0  0  0  0  0  0  0  0  0  0  0
    5.9310    0.4870   32.1550 C   0  0  0  0  0  0  0  0  0  0  0  0
    7.4060    0.6240   32.0640 C   0  0  0  0  0  0  0  0  0  0  0  0
    8.1760   -0.1150   31.0040 C   0  0  0  0  0  0  0  0  0  0  0  0
    7.3890   -0.9680   30.0800 C   0  0  0  0  0  0  0  0  0  0  0  0
    7.8290   -1.7120   29.0760 N   0  0  0  0  0  0  0  0  0  0  0  0
    5.7840   -4.8940   23.3430 C   0  0  0  0  0  0  0  0  0  0  0  0
    6.5430   -5.3440   22.2880 C   0  0  0  0  0  0  0  0  0  0  0  0
  1  2  1  0
  2  3  2  0
  2  4  1  0
  4  5  1  0
  5  6  1  0
  6  7  1  0
  7  8  1  0
  8  9  2  0
  8 10  1  0
 10 11  1  0
 11 12  1  6
 12 13  1  0
 13 14  1  0
 13 15  1  0
 11 16  1  0
 16 17  2  0
 17 18  1  0
 18 19  2  0
 19 20  1  0
 20 21  2  0
 21 22  1  0
 18 23  1  0
 22 23  2  0
 16 24  1  0
 23 24  1  0
  7 25  1  0
  4 26  1  0
 25 26  1  0
M  END
