piperidine-amides-10373-covalent
     RDKit          3D

 24 25  0  0  0  0  0  0  0  0999 V2000
    7.0740   -3.2740   19.2150 C   0  0  0  0  0  0  0  0  0  0  0  0
    6.3210   -4.0260   20.2280 C   0  0  0  0  0  0  0  0  0  0  0  0
    5.2410   -4.5490   19.8660 O   0  0  0  0  0  0  0  0  0  0  0  0
    6.8230   -4.1700   21.5140 N   0  0  0  0  0  0  0  0  0  0  0  0
    7.6520   -3.1470   22.0890 C   0  0  0  0  0  0  0  0  0  0  0  0
    7.2880   -3.0660   23.5260 C   0  0  0  0  0  0  0  0  0  0  0  0
    5.8960   -3.5280   23.7930 C   0  0  0  0  0  0  0  0  0  0  0  0
    5.6460   -3.4230   25.2440 C   0  0  0  0  0  0  0  0  0  0  0  0
    4.5200   -3.0400   25.6300 O   0  0  0  0  0  0  0  0  0  0  0  0
    6.6380   -3.7270   26.2000 N   0  0  0  0  0  0  0  0  0  0  0  0
    6.3560   -3.7620   27.6130 C   0  0  0  0  0  0  0  0  0  0  0  0
    6.6620   -5.1170   28.2480 C   0  0  2  0  0  0  0  0  0  0  0  0
    7.7890   -5.8540   28.0480 C   0  0  0  0  0  0  0  0  0  0  0  0
    8.1520   -6.0770   26.6910 O   0  0  0  0  0  0  0  0  0  0  0  0
    5.5160   -6.0530   27.9770 C   0  0  0  0  0  0  0  0  0  0  0  0
    5.1430   -6.2240   29.3070 C   0  0  0  0  0  0  0  0  0  0  0  0
    5.7100   -7.1770   30.1360 C   0  0  0  0  0  0  0  0  0  0  0  0
    5.3750   -7.3960   31.4640 C   0  0  0  0  0  0  0  0  0  0  0  0
    4.3240   -6.6330   32.2530 C   0  0  0  0  0  0  0  0  0  0  0  0
    3.8310   -6.9180   34.0970 Br  0  0  0  0  0  0  0  0  0  0  0  0
    3.7510   -5.6070   31.2760 C   0  0  0  0  0  0  0  0  0  0  0  0
    4.1690   -5.4270   29.8420 C   0  0  0  0  0  0  0  0  0  0  0  0
    5.6960   -4.9640   23.3630 C   0  0  0  0  0  0  0  0  0  0  0  0
    6.5490   -5.3450   22.3440 C   0  0  0  0  0  0  0  0  0  0  0  0
  1  2  1  0
  2  3  2  0
  2  4  1  0
  4  5  1  0
  5  6  1  0
  6  7  1  0
  7  8  1  0
  8  9  2  0
  8 10  1  0
 10 11  1  0
 12 11  1  6
 12 13  1  0
 13 14  1  0
 12 15  1  0
 15 16  1  0
 16 17  2  0
 17 18  1  0
 18 19  2  0
 19 20  1  0
 19 21  1  0
 16 22  1  0
 21 22  2  0
  7 23  1  0
  4 24  1  0
 23 24  1  0
M  END
