piperidine-amides-1651-covalent
     RDKit          3D

 21 23  0  0  0  0  0  0  0  0999 V2000
    7.1010   -3.3280   19.3160 C   0  0  0  0  0  0  0  0  0  0  0  0
    6.3190   -4.1220   20.3050 C   0  0  0  0  0  0  0  0  0  0  0  0
    5.2820   -4.6880   19.9260 O   0  0  0  0  0  0  0  0  0  0  0  0
    6.7980   -4.2570   21.6240 N   0  0  0  0  0  0  0  0  0  0  0  0
    6.6870   -5.5030   22.3490 C   0  0  0  0  0  0  0  0  0  0  0  0
    6.0940   -5.1950   23.7280 C   0  0  0  0  0  0  0  0  0  0  0  0
    6.1270   -3.7190   23.9140 C   0  0  0  0  0  0  0  0  0  0  0  0
    5.6830   -3.2820   25.2480 C   0  0  0  0  0  0  0  0  0  0  0  0
    4.4850   -3.4640   25.5350 O   0  0  0  0  0  0  0  0  0  0  0  0
    6.5850   -2.6670   26.1090 N   0  0  0  0  0  0  0  0  0  0  0  0
    6.2390   -1.8420   27.2030 C   0  0  1  0  0  0  0  0  0  0  0  0
    7.0690   -1.5510   28.2410 C   0  0  0  0  0  0  0  0  0  0  0  0
    6.5100   -0.2590   28.6950 O   0  0  0  0  0  0  0  0  0  0  0  0
    5.9170    0.5660   27.7130 C   0  0  0  0  0  0  0  0  0  0  0  0
    6.1550    1.4380   28.7140 C   0  0  0  0  0  0  0  0  0  0  0  0
    6.7740    0.8080   29.8340 C   0  0  0  0  0  0  0  0  0  0  0  0
    7.0010   -0.6500   29.6230 C   0  0  0  0  0  0  0  0  0  0  0  0
    6.4950   -1.1060   28.2040 C   0  0  0  0  0  0  0  0  0  0  0  0
    5.8660   -0.5790   27.0050 C   0  0  0  0  0  0  0  0  0  0  0  0
    7.4420   -3.1030   23.6160 C   0  0  0  0  0  0  0  0  0  0  0  0
    7.6870   -3.2290   22.1360 C   0  0  0  0  0  0  0  0  0  0  0  0
  1  2  1  0
  2  3  2  0
  2  4  1  0
  4  5  1  0
  5  6  1  0
  6  7  1  0
  7  8  1  0
  8  9  2  0
  8 10  1  0
 11 10  1  6
 11 12  1  0
 12 13  1  0
 13 14  1  0
 14 15  1  0
 15 16  2  0
 16 17  1  0
 17 18  2  0
 11 19  1  0
 14 19  2  0
 18 19  1  0
  7 20  1  0
  4 21  1  0
 20 21  1  0
M  END
