piperidine-amides-25950-covalent
     RDKit          3D

 25 27  0  0  0  0  0  0  0  0999 V2000
    7.1240   -3.3740   19.3690 C   0  0  0  0  0  0  0  0  0  0  0  0
    6.3960   -4.2010   20.3240 C   0  0  0  0  0  0  0  0  0  0  0  0
    5.3430   -4.7430   19.9590 O   0  0  0  0  0  0  0  0  0  0  0  0
    6.8970   -4.4480   21.6150 N   0  0  0  0  0  0  0  0  0  0  0  0
    6.4590   -5.5790   22.3720 C   0  0  0  0  0  0  0  0  0  0  0  0
    5.5400   -4.9610   23.3910 C   0  0  0  0  0  0  0  0  0  0  0  0
    6.2430   -3.9940   24.3080 C   0  0  0  0  0  0  0  0  0  0  0  0
    5.3120   -3.3930   25.3020 C   0  0  0  0  0  0  0  0  0  0  0  0
    4.4280   -2.5860   24.9110 O   0  0  0  0  0  0  0  0  0  0  0  0
    5.3360   -3.6490   26.6950 N   0  0  0  0  0  0  0  0  0  0  0  0
    6.4560   -3.2740   27.4790 C   0  0  0  0  0  0  0  0  0  0  0  0
    6.7200   -4.4910   28.2770 C   0  0  0  0  0  0  0  0  0  0  0  0
    5.6070   -4.8940   29.0970 C   0  0  0  0  0  0  0  0  0  0  0  0
    5.5160   -3.9470   29.8790 O   0  0  0  0  0  0  0  0  0  0  0  0
    5.9300   -6.3080   29.5230 C   0  0  0  0  0  0  0  0  0  0  0  0
    4.7480   -6.8740   30.2870 C   0  0  0  0  0  0  0  0  0  0  0  0
    3.7860   -7.5830   29.4150 C   0  0  0  0  0  0  0  0  0  0  0  0
    2.7250   -8.0960   30.0890 C   0  0  0  0  0  0  0  0  0  0  0  0
    2.5510   -7.9730   31.4630 C   0  0  0  0  0  0  0  0  0  0  0  0
    3.4320   -7.3300   32.2290 N   0  0  0  0  0  0  0  0  0  0  0  0
    4.5380   -6.7760   31.6460 C   0  0  0  0  0  0  0  0  0  0  0  0
    4.3820   -4.9010   28.4680 C   0  0  0  0  0  0  0  0  0  0  0  0
    4.1170   -3.8430   27.4170 C   0  0  0  0  0  0  0  0  0  0  0  0
    6.9940   -2.9300   23.5500 C   0  0  0  0  0  0  0  0  0  0  0  0
    7.5840   -3.3810   22.2640 C   0  0  0  0  0  0  0  0  0  0  0  0
  1  2  1  0
  2  3  2  0
  2  4  1  0
  4  5  1  0
  5  6  1  0
  6  7  1  0
  7  8  1  0
  8  9  2  0
  8 10  1  0
 10 11  1  0
 11 12  1  0
 12 13  1  0
 13 14  1  0
 13 15  1  0
 15 16  1  0
 16 17  2  0
 17 18  1  0
 18 19  2  0
 19 20  1  0
 16 21  1  0
 20 21  2  0
 13 22  1  0
 10 23  1  0
 22 23  1  0
  7 24  1  0
  4 25  1  0
 24 25  1  0
M  END
