piperidine-amides-12069-covalent
     RDKit          3D

 25 26  0  0  0  0  0  0  0  0999 V2000
    7.1270   -3.2990   19.2920 C   0  0  0  0  0  0  0  0  0  0  0  0
    6.3410   -4.0400   20.2680 C   0  0  0  0  0  0  0  0  0  0  0  0
    5.3160   -4.6240   19.9180 O   0  0  0  0  0  0  0  0  0  0  0  0
    6.7930   -4.1300   21.6260 N   0  0  0  0  0  0  0  0  0  0  0  0
    6.6240   -5.3700   22.3390 C   0  0  0  0  0  0  0  0  0  0  0  0
    6.0610   -5.0840   23.7010 C   0  0  0  0  0  0  0  0  0  0  0  0
    6.1050   -3.5750   23.8650 C   0  0  0  0  0  0  0  0  0  0  0  0
    5.6230   -3.1400   25.2110 C   0  0  0  0  0  0  0  0  0  0  0  0
    4.5060   -2.6140   25.3700 O   0  0  0  0  0  0  0  0  0  0  0  0
    6.4580   -3.3080   26.3330 N   0  0  0  0  0  0  0  0  0  0  0  0
    5.9690   -4.0270   27.4950 C   0  0  0  0  0  0  0  0  0  0  0  0
    5.6280   -5.4540   27.1070 C   0  0  2  0  0  0  0  0  0  0  0  0
    4.4520   -5.7630   26.4430 C   0  0  0  0  0  0  0  0  0  0  0  0
    4.2320   -6.9520   26.1090 O   0  0  0  0  0  0  0  0  0  0  0  0
    3.4630   -4.8600   26.1020 O   0  0  0  0  0  0  0  0  0  0  0  0
    2.8640   -4.7150   24.8510 C   0  0  0  0  0  0  0  0  0  0  0  0
    5.3930   -6.1030   28.5170 C   0  0  0  0  0  0  0  0  0  0  0  0
    4.0290   -5.8490   28.9220 C   0  0  0  0  0  0  0  0  0  0  0  0
    3.5280   -6.3030   30.1270 C   0  0  0  0  0  0  0  0  0  0  0  0
    4.3450   -7.0320   30.9920 C   0  0  0  0  0  0  0  0  0  0  0  0
    3.7170   -7.6130   32.5270 Cl  0  0  0  0  0  0  0  0  0  0  0  0
    5.6680   -7.2860   30.6120 C   0  0  0  0  0  0  0  0  0  0  0  0
    6.2170   -6.8120   29.3400 C   0  0  0  0  0  0  0  0  0  0  0  0
    7.4690   -3.0130   23.5310 C   0  0  0  0  0  0  0  0  0  0  0  0
    7.6750   -3.1100   22.1550 C   0  0  0  0  0  0  0  0  0  0  0  0
  1  2  1  0
  2  3  2  0
  2  4  1  0
  4  5  1  0
  5  6  1  0
  6  7  1  0
  7  8  1  0
  8  9  2  0
  8 10  1  0
 10 11  1  0
 12 11  1  1
 12 13  1  0
 13 14  2  0
 13 15  1  0
 15 16  1  0
 12 17  1  0
 17 18  2  0
 18 19  1  0
 19 20  2  0
 20 21  1  0
 20 22  1  0
 17 23  1  0
 22 23  2  0
  7 24  1  0
  4 25  1  0
 24 25  1  0
M  END
