piperidine-amides-25693-covalent
     RDKit          3D

 25 28  0  0  0  0  0  0  0  0999 V2000
    7.0530   -3.3360   19.2920 C   0  0  0  0  0  0  0  0  0  0  0  0
    6.3850   -4.1920   20.3040 C   0  0  0  0  0  0  0  0  0  0  0  0
    5.3570   -4.7720   19.9590 O   0  0  0  0  0  0  0  0  0  0  0  0
    6.9530   -4.3620   21.5670 N   0  0  0  0  0  0  0  0  0  0  0  0
    6.6870   -5.5340   22.3560 C   0  0  0  0  0  0  0  0  0  0  0  0
    5.9910   -5.1390   23.6320 C   0  0  0  0  0  0  0  0  0  0  0  0
    6.7780   -4.0390   24.3570 C   0  0  0  0  0  0  0  0  0  0  0  0
    6.0180   -3.6500   25.5540 C   0  0  0  0  0  0  0  0  0  0  0  0
    4.8920   -3.1450   25.4270 O   0  0  0  0  0  0  0  0  0  0  0  0
    6.5650   -3.8510   26.8350 N   0  0  0  0  0  0  0  0  0  0  0  0
    6.2600   -2.9170   27.8920 C   0  0  0  0  0  0  0  0  0  0  0  0
    4.9050   -3.2800   28.4140 C   0  0  0  0  0  0  0  0  0  0  0  0
    5.1250   -4.5390   29.0760 N   0  0  0  0  0  0  0  0  0  0  0  0
    4.4200   -5.0080   30.2280 C   0  0  0  0  0  0  0  0  0  0  0  0
    4.9860   -6.2100   30.4650 C   0  0  0  0  0  0  0  0  0  0  0  0
    4.4740   -6.8670   31.5560 C   0  0  0  0  0  0  0  0  0  0  0  0
    4.0430   -6.1950   32.8550 C   0  0  0  0  0  0  0  0  0  0  0  0
    3.3730   -7.4140   33.3810 C   0  0  0  0  0  0  0  0  0  0  0  0
    4.2690   -8.4980   32.8790 C   0  0  0  0  0  0  0  0  0  0  0  0
    5.4380   -7.7270   32.3430 C   0  0  0  0  0  0  0  0  0  0  0  0
    5.9870   -6.6110   29.6000 N   0  0  0  0  0  0  0  0  0  0  0  0
    6.0690   -5.4770   28.6720 C   0  0  0  0  0  0  0  0  0  0  0  0
    6.9170   -5.1660   27.4430 C   0  0  0  0  0  0  0  0  0  0  0  0
    6.9290   -2.8550   23.4330 C   0  0  0  0  0  0  0  0  0  0  0  0
    7.6760   -3.2840   22.2120 C   0  0  0  0  0  0  0  0  0  0  0  0
  1  2  1  0
  2  3  2  0
  2  4  1  0
  4  5  1  0
  5  6  1  0
  6  7  1  0
  7  8  1  0
  8  9  2  0
  8 10  1  0
 10 11  1  0
 11 12  1  0
 12 13  1  0
 13 14  1  0
 14 15  2  0
 15 16  1  0
 16 17  1  0
 17 18  1  0
 18 19  1  0
 16 20  1  0
 19 20  1  0
 15 21  1  0
 13 22  1  0
 21 22  2  0
 10 23  1  0
 22 23  1  0
  7 24  1  0
  4 25  1  0
 24 25  1  0
M  END
