piperidine-amides-14550-covalent
     RDKit          3D

 23 23  0  0  0  0  0  0  0  0999 V2000
    7.1590   -3.2820   19.2210 C   0  0  0  0  0  0  0  0  0  0  0  0
    6.3790   -4.0070   20.2160 C   0  0  0  0  0  0  0  0  0  0  0  0
    5.2910   -4.5050   19.8740 O   0  0  0  0  0  0  0  0  0  0  0  0
    6.9140   -4.1770   21.5130 N   0  0  0  0  0  0  0  0  0  0  0  0
    6.5910   -5.3390   22.2700 C   0  0  0  0  0  0  0  0  0  0  0  0
    5.8950   -4.9030   23.5220 C   0  0  0  0  0  0  0  0  0  0  0  0
    6.7220   -3.7980   24.1650 C   0  0  0  0  0  0  0  0  0  0  0  0
    5.9590   -3.1690   25.2910 C   0  0  0  0  0  0  0  0  0  0  0  0
    4.9290   -2.5760   24.9750 O   0  0  0  0  0  0  0  0  0  0  0  0
    6.4270   -3.2970   26.5980 N   0  0  0  0  0  0  0  0  0  0  0  0
    5.5720   -3.7940   27.6130 C   0  0  2  0  0  0  0  0  0  0  0  0
    6.1290   -4.5650   28.6220 C   0  0  0  0  0  0  0  0  0  0  0  0
    5.5870   -5.8300   28.6850 C   0  0  0  0  0  0  0  0  0  0  0  0
    5.5670   -6.6700   27.5880 C   0  0  0  0  0  0  0  0  0  0  0  0
    6.4380   -6.6910   29.6250 C   0  0  0  0  0  0  0  0  0  0  0  0
    4.5880   -4.5460   26.8620 C   0  0  0  0  0  0  0  0  0  0  0  0
    4.8840   -5.0680   25.7610 O   0  0  0  0  0  0  0  0  0  0  0  0
    3.3910   -4.6280   27.4220 O   0  0  0  0  0  0  0  0  0  0  0  0
    2.7930   -5.8750   27.2310 C   0  0  0  0  0  0  0  0  0  0  0  0
    2.3150   -6.3640   25.8890 C   0  0  0  0  0  0  0  0  0  0  0  0
    2.4890   -7.8620   25.5260 C   0  0  0  0  0  0  0  0  0  0  0  0
    6.9600   -2.6730   23.1840 C   0  0  0  0  0  0  0  0  0  0  0  0
    7.7020   -3.1490   22.1420 C   0  0  0  0  0  0  0  0  0  0  0  0
  1  2  1  0
  2  3  2  0
  2  4  1  0
  4  5  1  0
  5  6  1  0
  6  7  1  0
  7  8  1  0
  8  9  2  0
  8 10  1  0
 10 11  1  0
 11 12  1  1
 12 13  1  0
 13 14  1  0
 13 15  1  0
 11 16  1  0
 16 17  2  0
 16 18  1  0
 18 19  1  0
 19 20  1  0
 20 21  2  3
  7 22  1  0
  4 23  1  0
 22 23  1  0
M  END
