piperidine-amides-1520-covalent
     RDKit          3D

 21 22  0  0  0  0  0  0  0  0999 V2000
    7.1090   -3.2940   19.2510 C   0  0  0  0  0  0  0  0  0  0  0  0
    6.3950   -4.1060   20.2720 C   0  0  0  0  0  0  0  0  0  0  0  0
    5.3510   -4.7010   19.9450 O   0  0  0  0  0  0  0  0  0  0  0  0
    6.9480   -4.2230   21.5670 N   0  0  0  0  0  0  0  0  0  0  0  0
    7.7100   -3.1530   22.1520 C   0  0  0  0  0  0  0  0  0  0  0  0
    6.8580   -2.6110   23.2960 C   0  0  0  0  0  0  0  0  0  0  0  0
    6.4670   -3.7680   24.1630 C   0  0  0  0  0  0  0  0  0  0  0  0
    5.7390   -3.3180   25.3710 C   0  0  0  0  0  0  0  0  0  0  0  0
    4.5050   -3.4090   25.3260 O   0  0  0  0  0  0  0  0  0  0  0  0
    6.4230   -2.8160   26.4830 N   0  0  0  0  0  0  0  0  0  0  0  0
    6.6470   -1.4490   26.8010 C   0  0  0  0  0  0  0  0  0  0  0  0
    5.7620   -0.6430   27.4740 C   0  0  0  0  0  0  0  0  0  0  0  0
    5.6750    0.7050   27.0760 C   0  0  0  0  0  0  0  0  0  0  0  0
    4.8370    1.6190   27.6610 C   0  0  0  0  0  0  0  0  0  0  0  0
    3.9620    1.2100   28.7710 C   0  0  0  0  0  0  0  0  0  0  0  0
    3.9660   -0.2220   29.2930 C   0  0  0  0  0  0  0  0  0  0  0  0
    2.9630   -0.8280   30.6200 Cl  0  0  0  0  0  0  0  0  0  0  0  0
    4.9690   -1.0770   28.5050 C   0  0  0  0  0  0  0  0  0  0  0  0
    5.0960   -2.3790   28.8470 F   0  0  0  0  0  0  0  0  0  0  0  0
    5.5950   -4.7800   23.4000 C   0  0  0  0  0  0  0  0  0  0  0  0
    6.4910   -5.3290   22.3540 C   0  0  0  0  0  0  0  0  0  0  0  0
  1  2  1  0
  2  3  2  0
  2  4  1  0
  4  5  1  0
  5  6  1  0
  6  7  1  0
  7  8  1  0
  8  9  2  0
  8 10  1  0
 10 11  1  0
 11 12  1  0
 12 13  2  0
 13 14  1  0
 14 15  2  0
 15 16  1  0
 16 17  1  0
 12 18  1  0
 16 18  2  0
 18 19  1  0
  7 20  1  0
  4 21  1  0
 20 21  1  0
M  END
