piperidine-amides-24464-covalent
     RDKit          3D

 24 26  0  0  0  0  0  0  0  0999 V2000
    7.0760   -3.3420   19.3810 C   0  0  0  0  0  0  0  0  0  0  0  0
    6.4190   -4.2380   20.3400 C   0  0  0  0  0  0  0  0  0  0  0  0
    5.3980   -4.8720   19.9910 O   0  0  0  0  0  0  0  0  0  0  0  0
    6.9590   -4.4410   21.6240 N   0  0  0  0  0  0  0  0  0  0  0  0
    6.5280   -5.5850   22.3610 C   0  0  0  0  0  0  0  0  0  0  0  0
    5.5180   -5.0310   23.3670 C   0  0  0  0  0  0  0  0  0  0  0  0
    6.2070   -3.9620   24.2060 C   0  0  0  0  0  0  0  0  0  0  0  0
    5.1600   -3.3220   25.0470 C   0  0  0  0  0  0  0  0  0  0  0  0
    4.1250   -2.9440   24.4830 O   0  0  0  0  0  0  0  0  0  0  0  0
    5.3140   -3.1370   26.4380 N   0  0  0  0  0  0  0  0  0  0  0  0
    6.5990   -2.9480   26.9230 C   0  0  0  0  0  0  0  0  0  0  0  0
    6.5840   -3.8310   28.1380 C   0  0  0  0  0  0  0  0  0  0  0  0
    5.3250   -3.8170   28.5970 C   0  0  2  0  0  0  0  0  0  0  0  0
    5.1770   -2.8040   29.4940 F   0  0  0  0  0  0  0  0  0  0  0  0
    4.7780   -5.0150   28.9820 C   0  0  0  0  0  0  0  0  0  0  0  0
    3.6830   -5.1530   29.7930 C   0  0  0  0  0  0  0  0  0  0  0  0
    3.1500   -6.3520   30.1610 C   0  0  0  0  0  0  0  0  0  0  0  0
    3.5160   -7.7960   29.8510 C   0  0  0  0  0  0  0  0  0  0  0  0
    4.7290   -7.5070   28.9550 C   0  0  0  0  0  0  0  0  0  0  0  0
    5.3100   -6.1820   28.5550 C   0  0  0  0  0  0  0  0  0  0  0  0
    6.3830   -6.1740   27.7520 F   0  0  0  0  0  0  0  0  0  0  0  0
    4.4410   -3.4570   27.5670 C   0  0  0  0  0  0  0  0  0  0  0  0
    6.8440   -2.8850   23.3520 C   0  0  0  0  0  0  0  0  0  0  0  0
    7.5900   -3.3640   22.3080 C   0  0  0  0  0  0  0  0  0  0  0  0
  1  2  1  0
  2  3  2  0
  2  4  1  0
  4  5  1  0
  5  6  1  0
  6  7  1  0
  7  8  1  0
  8  9  2  0
  8 10  1  0
 10 11  1  0
 11 12  1  0
 12 13  1  0
 13 14  1  1
 13 15  1  0
 15 16  2  0
 16 17  1  0
 17 18  2  0
 18 19  1  0
 15 20  1  0
 19 20  2  0
 20 21  1  0
 10 22  1  0
 13 22  1  0
  7 23  1  0
  4 24  1  0
 23 24  1  0
M  END
