piperidine-amides-29382-covalent
     RDKit          3D

 26 27  0  0  0  0  0  0  0  0999 V2000
    7.0140   -3.3710   19.4150 C   0  0  0  0  0  0  0  0  0  0  0  0
    6.3920   -4.2580   20.3990 C   0  0  0  0  0  0  0  0  0  0  0  0
    5.4290   -4.9470   20.0100 O   0  0  0  0  0  0  0  0  0  0  0  0
    6.9040   -4.3450   21.7310 N   0  0  0  0  0  0  0  0  0  0  0  0
    6.6260   -5.5430   22.5010 C   0  0  0  0  0  0  0  0  0  0  0  0
    6.0990   -5.1980   23.8800 C   0  0  0  0  0  0  0  0  0  0  0  0
    5.9820   -3.6970   23.9180 C   0  0  0  0  0  0  0  0  0  0  0  0
    5.2150   -3.1000   25.0830 C   0  0  0  0  0  0  0  0  0  0  0  0
    4.4680   -2.1950   24.7490 O   0  0  0  0  0  0  0  0  0  0  0  0
    5.3100   -3.5080   26.4150 N   0  0  0  0  0  0  0  0  0  0  0  0
    6.5010   -3.3350   27.0600 C   0  0  0  0  0  0  0  0  0  0  0  0
    6.6400   -4.2720   28.0820 C   0  0  2  0  0  0  0  0  0  0  0  0
    6.5530   -5.4970   27.8530 O   0  0  0  0  0  0  0  0  0  0  0  0
    6.7410   -6.3960   28.8440 C   0  0  0  0  0  0  0  0  0  0  0  0
    5.6060   -4.0640   29.0110 C   0  0  0  0  0  0  0  0  0  0  0  0
    4.2670   -3.6380   28.5450 C   0  0  2  0  0  0  0  0  0  0  0  0
    3.1680   -4.6780   28.8740 C   0  0  0  0  0  0  0  0  0  0  0  0
    1.9060   -4.4270   28.6130 O   0  0  0  0  0  0  0  0  0  0  0  0
    3.5370   -5.8870   29.4550 O   0  0  0  0  0  0  0  0  0  0  0  0
    3.6580   -7.0810   28.6950 C   0  0  0  0  0  0  0  0  0  0  0  0
    4.4660   -7.8800   29.6650 C   0  0  0  0  0  0  0  0  0  0  0  0
    2.4650   -7.6590   28.3490 C   0  0  0  0  0  0  0  0  0  0  0  0
    4.2970   -6.8210   27.4870 C   0  0  0  0  0  0  0  0  0  0  0  0
    4.1600   -3.2020   27.2290 C   0  0  0  0  0  0  0  0  0  0  0  0
    7.2970   -3.0350   23.7130 C   0  0  0  0  0  0  0  0  0  0  0  0
    7.7150   -3.2850   22.2980 C   0  0  0  0  0  0  0  0  0  0  0  0
  1  2  1  0
  2  3  2  0
  2  4  1  0
  4  5  1  0
  5  6  1  0
  6  7  1  0
  7  8  1  0
  8  9  2  0
  8 10  1  0
 10 11  1  0
 11 12  1  0
 12 13  1  6
 13 14  1  0
 12 15  1  0
 15 16  1  0
 16 17  1  6
 17 18  2  0
 17 19  1  0
 20 19  1  0
 20 21  1  0
 20 22  1  0
 20 23  1  0
 10 24  1  0
 16 24  1  0
  7 25  1  0
  4 26  1  0
 25 26  1  0
M  END
