piperidine-amides-26105-covalent
     RDKit          3D

 25 27  0  0  0  0  0  0  0  0999 V2000
    7.0350   -3.3790   19.4150 C   0  0  0  0  0  0  0  0  0  0  0  0
    6.3970   -4.2710   20.3870 C   0  0  0  0  0  0  0  0  0  0  0  0
    5.4080   -4.9210   20.0030 O   0  0  0  0  0  0  0  0  0  0  0  0
    6.8840   -4.4600   21.7010 N   0  0  0  0  0  0  0  0  0  0  0  0
    6.6130   -5.6250   22.4850 C   0  0  0  0  0  0  0  0  0  0  0  0
    5.9500   -5.1240   23.7530 C   0  0  0  0  0  0  0  0  0  0  0  0
    6.4150   -3.7720   24.2670 C   0  0  0  0  0  0  0  0  0  0  0  0
    5.3800   -3.1520   25.1600 C   0  0  0  0  0  0  0  0  0  0  0  0
    4.4340   -2.5250   24.6150 O   0  0  0  0  0  0  0  0  0  0  0  0
    5.3060   -3.1920   26.5900 N   0  0  0  0  0  0  0  0  0  0  0  0
    4.1290   -3.6920   27.2580 C   0  0  0  0  0  0  0  0  0  0  0  0
    4.5610   -4.9690   27.8260 C   0  0  0  0  0  0  0  0  0  0  0  0
    5.1760   -4.7090   28.9680 N   0  0  0  0  0  0  0  0  0  0  0  0
    5.0550   -5.5850   30.0700 C   0  0  0  0  0  0  0  0  0  0  0  0
    3.9470   -5.3720   31.0670 C   0  0  0  0  0  0  0  0  0  0  0  0
    3.8200   -6.3180   32.2360 C   0  0  0  0  0  0  0  0  0  0  0  0
    4.8080   -7.4210   32.3370 C   0  0  0  0  0  0  0  0  0  0  0  0
    4.8400   -8.3640   33.3280 O   0  0  0  0  0  0  0  0  0  0  0  0
    3.6100   -8.9260   33.6530 C   0  0  0  0  0  0  0  0  0  0  0  0
    5.8560   -7.4880   31.2410 C   0  0  0  0  0  0  0  0  0  0  0  0
    5.8950   -6.5940   30.2310 N   0  0  0  0  0  0  0  0  0  0  0  0
    6.3630   -4.4860   28.3110 C   0  0  0  0  0  0  0  0  0  0  0  0
    6.4460   -3.1980   27.4280 C   0  0  0  0  0  0  0  0  0  0  0  0
    6.7520   -2.8300   23.0800 C   0  0  0  0  0  0  0  0  0  0  0  0
    7.5690   -3.3630   22.3720 C   0  0  0  0  0  0  0  0  0  0  0  0
  1  2  1  0
  2  3  2  0
  2  4  1  0
  4  5  1  0
  5  6  1  0
  6  7  1  0
  7  8  1  0
  8  9  2  0
  8 10  1  0
 10 11  1  0
 11 12  1  0
 12 13  1  0
 13 14  1  0
 14 15  2  0
 15 16  1  0
 16 17  2  0
 17 18  1  0
 18 19  1  0
 17 20  1  0
 14 21  1  0
 20 21  2  0
 13 22  1  0
 10 23  1  0
 22 23  1  0
  7 24  1  0
  4 25  1  0
 24 25  1  0
M  END
