piperidine-amides-34180-covalent
     RDKit          3D

 30 32  0  0  0  0  0  0  0  0999 V2000
    7.0930   -3.3310   19.3010 C   0  0  0  0  0  0  0  0  0  0  0  0
    6.4030   -4.1850   20.2780 C   0  0  0  0  0  0  0  0  0  0  0  0
    5.3480   -4.7700   19.9590 O   0  0  0  0  0  0  0  0  0  0  0  0
    6.9530   -4.4010   21.5490 N   0  0  0  0  0  0  0  0  0  0  0  0
    7.7260   -3.3660   22.1920 C   0  0  0  0  0  0  0  0  0  0  0  0
    6.8510   -2.8800   23.3350 C   0  0  0  0  0  0  0  0  0  0  0  0
    6.6030   -4.1030   24.1890 C   0  0  0  0  0  0  0  0  0  0  0  0
    5.8230   -3.7070   25.3600 C   0  0  0  0  0  0  0  0  0  0  0  0
    4.5760   -3.7910   25.3180 O   0  0  0  0  0  0  0  0  0  0  0  0
    6.5050   -3.2250   26.4800 N   0  0  0  0  0  0  0  0  0  0  0  0
    6.4260   -3.9140   27.7450 C   0  0  0  0  0  0  0  0  0  0  0  0
    6.7610   -5.3860   27.5520 C   0  0  0  0  0  0  0  0  0  0  0  0
    5.8490   -6.3270   27.9400 C   0  0  0  0  0  0  0  0  0  0  0  0
    6.4930   -1.9630   27.1590 C   0  0  0  0  0  0  0  0  0  0  0  0
    5.8420   -0.9480   26.3690 C   0  0  0  0  0  0  0  0  0  0  0  0
    5.7370    0.3950   26.9230 C   0  0  0  0  0  0  0  0  0  0  0  0
    6.2470    0.6830   28.1600 N   0  0  0  0  0  0  0  0  0  0  0  0
    6.4390   -0.5170   27.8610 C   0  0  0  0  0  0  0  0  0  0  0  0
    5.7970   -0.3580   26.5530 C   0  0  0  0  0  0  0  0  0  0  0  0
    5.2050    0.5150   25.7950 O   0  0  0  0  0  0  0  0  0  0  0  0
    5.8750    0.9250   24.6030 C   0  0  0  0  0  0  0  0  0  0  0  0
    6.6280    2.0090   24.8670 F   0  0  0  0  0  0  0  0  0  0  0  0
    6.6590   -0.0750   24.1650 F   0  0  0  0  0  0  0  0  0  0  0  0
    5.0030    1.2580   23.5840 F   0  0  0  0  0  0  0  0  0  0  0  0
    5.8490    0.9380   27.4510 C   0  0  0  0  0  0  0  0  0  0  0  0
    6.4860    0.8770   28.7870 C   0  0  0  0  0  0  0  0  0  0  0  0
    7.0480   -0.3110   29.2870 C   0  0  0  0  0  0  0  0  0  0  0  0
    6.9980   -1.5350   28.4700 C   0  0  0  0  0  0  0  0  0  0  0  0
    5.8120   -5.1700   23.4680 C   0  0  0  0  0  0  0  0  0  0  0  0
    6.6390   -5.6110   22.2570 C   0  0  0  0  0  0  0  0  0  0  0  0
  1  2  1  0
  2  3  2  0
  2  4  1  0
  4  5  1  0
  5  6  1  0
  6  7  1  0
  7  8  1  0
  8  9  2  0
  8 10  1  0
 10 11  1  0
 11 12  1  0
 12 13  1  0
 10 14  1  0
 14 15  2  0
 15 16  1  0
 16 17  2  0
 17 18  1  0
 18 19  1  0
 19 20  1  0
 20 21  1  0
 21 22  1  0
 21 23  1  0
 21 24  1  0
 19 25  2  0
 25 26  1  0
 26 27  2  0
 14 28  1  0
 18 28  2  0
 27 28  1  0
  7 29  1  0
  4 30  1  0
 29 30  1  0
M  END
