piperidine-amides-14994-covalent
     RDKit          3D

 21 22  0  0  0  0  0  0  0  0999 V2000
    7.1230   -3.2940   19.2220 C   0  0  0  0  0  0  0  0  0  0  0  0
    6.4210   -4.0870   20.2270 C   0  0  0  0  0  0  0  0  0  0  0  0
    5.3420   -4.6200   19.9150 O   0  0  0  0  0  0  0  0  0  0  0  0
    7.0100   -4.2810   21.4990 N   0  0  0  0  0  0  0  0  0  0  0  0
    6.5310   -5.3460   22.3080 C   0  0  0  0  0  0  0  0  0  0  0  0
    5.5670   -4.7670   23.3000 C   0  0  0  0  0  0  0  0  0  0  0  0
    6.3050   -3.8280   24.2470 C   0  0  0  0  0  0  0  0  0  0  0  0
    5.2820   -3.0670   25.0260 C   0  0  0  0  0  0  0  0  0  0  0  0
    4.4100   -2.4970   24.3880 O   0  0  0  0  0  0  0  0  0  0  0  0
    5.3610   -3.0560   26.3980 N   0  0  0  0  0  0  0  0  0  0  0  0
    5.1300   -4.2300   27.1500 C   0  0  1  0  0  0  0  0  0  0  0  0
    4.7050   -5.3760   26.4830 C   0  0  0  0  0  0  0  0  0  0  0  0
    6.4420   -4.5970   27.4820 C   0  0  0  0  0  0  0  0  0  0  0  0
    7.0090   -5.7840   27.0680 C   0  0  0  0  0  0  0  0  0  0  0  0
    8.3800   -6.1030   27.4370 C   0  0  0  0  0  0  0  0  0  0  0  0
    9.1390   -5.3540   28.1580 N   0  0  0  0  0  0  0  0  0  0  0  0
    8.6210   -4.2190   28.5640 C   0  0  0  0  0  0  0  0  0  0  0  0
    7.2980   -3.6870   28.3070 C   0  0  0  0  0  0  0  0  0  0  0  0
    6.6830   -1.9930   28.9440 Br  0  0  0  0  0  0  0  0  0  0  0  0
    7.2670   -2.9070   23.5700 C   0  0  0  0  0  0  0  0  0  0  0  0
    7.6430   -3.1440   22.1000 C   0  0  0  0  0  0  0  0  0  0  0  0
  1  2  1  0
  2  3  2  0
  2  4  1  0
  4  5  1  0
  5  6  1  0
  6  7  1  0
  7  8  1  0
  8  9  2  0
  8 10  1  0
 10 11  1  0
 11 12  1  6
 11 13  1  0
 13 14  2  0
 14 15  1  0
 15 16  2  0
 16 17  1  0
 13 18  1  0
 17 18  2  0
 18 19  1  0
  7 20  1  0
  4 21  1  0
 20 21  1  0
M  END
