piperidine-amides-29621-covalent
     RDKit          3D

 27 30  0  0  0  0  0  0  0  0999 V2000
    7.0370   -3.4080   19.4350 C   0  0  0  0  0  0  0  0  0  0  0  0
    6.3610   -4.2730   20.3910 C   0  0  0  0  0  0  0  0  0  0  0  0
    5.3920   -4.9340   20.0080 O   0  0  0  0  0  0  0  0  0  0  0  0
    6.8440   -4.4000   21.7430 N   0  0  0  0  0  0  0  0  0  0  0  0
    7.7040   -3.3730   22.3120 C   0  0  0  0  0  0  0  0  0  0  0  0
    7.3430   -3.1160   23.7500 C   0  0  0  0  0  0  0  0  0  0  0  0
    5.9920   -3.7660   23.9350 C   0  0  0  0  0  0  0  0  0  0  0  0
    5.2300   -3.2870   25.1430 C   0  0  0  0  0  0  0  0  0  0  0  0
    4.3440   -2.4350   24.9870 O   0  0  0  0  0  0  0  0  0  0  0  0
    5.4170   -3.7220   26.4840 N   0  0  0  0  0  0  0  0  0  0  0  0
    6.4570   -3.0290   27.1360 C   0  0  0  0  0  0  0  0  0  0  0  0
    6.7600   -3.8340   28.3770 C   0  0  0  0  0  0  0  0  0  0  0  0
    5.7310   -4.0900   29.1650 C   0  0  0  0  0  0  0  0  0  0  0  0
    5.3860   -2.9220   29.9510 N   0  0  0  0  0  0  0  0  0  0  0  0
    5.8870   -1.6390   29.5510 C   0  0  0  0  0  0  0  0  0  0  0  0
    7.2240   -1.4220   29.1980 O   0  0  0  0  0  0  0  0  0  0  0  0
    4.8180   -0.7930   29.6310 N   0  0  0  0  0  0  0  0  0  0  0  0
    3.7640   -1.4870   30.0680 C   0  0  0  0  0  0  0  0  0  0  0  0
    2.3790   -1.1950   30.3800 C   0  0  0  0  0  0  0  0  0  0  0  0
    1.4870   -2.1380   30.8330 C   0  0  0  0  0  0  0  0  0  0  0  0
    1.8660   -3.4600   31.0230 C   0  0  0  0  0  0  0  0  0  0  0  0
    3.1850   -3.8430   30.7500 C   0  0  0  0  0  0  0  0  0  0  0  0
    4.0940   -2.7980   30.2700 C   0  0  0  0  0  0  0  0  0  0  0  0
    4.6200   -4.5430   28.5350 C   0  0  0  0  0  0  0  0  0  0  0  0
    4.2750   -3.8040   27.4000 C   0  0  0  0  0  0  0  0  0  0  0  0
    6.1160   -5.2600   23.8710 C   0  0  0  0  0  0  0  0  0  0  0  0
    6.6620   -5.6380   22.4780 C   0  0  0  0  0  0  0  0  0  0  0  0
  1  2  1  0
  2  3  2  0
  2  4  1  0
  4  5  1  0
  5  6  1  0
  6  7  1  0
  7  8  1  0
  8  9  2  0
  8 10  1  0
 10 11  1  0
 11 12  1  0
 12 13  1  0
 13 14  1  0
 14 15  1  0
 15 16  2  0
 15 17  1  0
 17 18  1  0
 18 19  1  0
 19 20  2  0
 20 21  1  0
 21 22  2  0
 14 23  1  0
 18 23  2  0
 22 23  1  0
 13 24  1  0
 10 25  1  0
 24 25  1  0
  7 26  1  0
  4 27  1  0
 26 27  1  0
M  END
