piperidine-amides-8203-covalent
     RDKit          3D

 25 26  0  0  0  0  0  0  0  0999 V2000
    7.0530   -3.2880   19.2780 C   0  0  0  0  0  0  0  0  0  0  0  0
    6.3550   -4.0880   20.2900 C   0  0  0  0  0  0  0  0  0  0  0  0
    5.3300   -4.6970   19.9370 O   0  0  0  0  0  0  0  0  0  0  0  0
    6.8450   -4.2030   21.6190 N   0  0  0  0  0  0  0  0  0  0  0  0
    7.6740   -3.1480   22.1600 C   0  0  0  0  0  0  0  0  0  0  0  0
    7.5240   -3.0850   23.6490 C   0  0  0  0  0  0  0  0  0  0  0  0
    6.1560   -3.6420   23.9410 C   0  0  0  0  0  0  0  0  0  0  0  0
    5.6100   -3.1880   25.2610 C   0  0  0  0  0  0  0  0  0  0  0  0
    4.5740   -2.5330   25.1990 O   0  0  0  0  0  0  0  0  0  0  0  0
    6.2540   -3.5180   26.4520 N   0  0  0  0  0  0  0  0  0  0  0  0
    5.4650   -3.7570   27.6100 C   0  0  2  0  0  0  0  0  0  0  0  0
    5.5550   -2.7850   28.6160 C   0  0  0  0  0  0  0  0  0  0  0  0
    6.6300   -1.9170   28.7420 C   0  0  0  0  0  0  0  0  0  0  0  0
    6.8240   -0.9100   29.7070 C   0  0  0  0  0  0  0  0  0  0  0  0
    5.7270   -0.7550   30.7260 C   0  0  0  0  0  0  0  0  0  0  0  0
    4.5350   -1.6990   30.6030 C   0  0  0  0  0  0  0  0  0  0  0  0
    3.5940   -1.6160   31.4250 O   0  0  0  0  0  0  0  0  0  0  0  0
    3.3250   -2.8040   32.0510 C   0  0  0  0  0  0  0  0  0  0  0  0
    4.5170   -2.6950   29.5180 C   0  0  0  0  0  0  0  0  0  0  0  0
    5.7110   -5.1030   28.1930 C   0  0  0  0  0  0  0  0  0  0  0  0
    6.7250   -5.3780   29.0670 C   0  0  0  0  0  0  0  0  0  0  0  0
    4.5680   -5.5490   28.8050 C   0  0  0  0  0  0  0  0  0  0  0  0
    5.9090   -6.1710   27.1160 C   0  0  0  0  0  0  0  0  0  0  0  0
    6.2250   -5.1610   23.7870 C   0  0  0  0  0  0  0  0  0  0  0  0
    6.6640   -5.4220   22.3560 C   0  0  0  0  0  0  0  0  0  0  0  0
  1  2  1  0
  2  3  2  0
  2  4  1  0
  4  5  1  0
  5  6  1  0
  6  7  1  0
  7  8  1  0
  8  9  2  0
  8 10  1  0
 11 10  1  6
 11 12  1  0
 12 13  2  0
 13 14  1  0
 14 15  2  0
 15 16  1  0
 16 17  1  0
 17 18  1  0
 12 19  1  0
 16 19  2  0
 11 20  1  0
 20 21  1  0
 20 22  1  0
 20 23  1  0
  7 24  1  0
  4 25  1  0
 24 25  1  0
M  END
