piperidine-amides-33221-covalent
     RDKit          3D

 28 29  0  0  0  0  0  0  0  0999 V2000
    7.0990   -3.3430   19.2560 C   0  0  0  0  0  0  0  0  0  0  0  0
    6.4220   -4.1660   20.2700 C   0  0  0  0  0  0  0  0  0  0  0  0
    5.3380   -4.7000   19.9410 O   0  0  0  0  0  0  0  0  0  0  0  0
    7.0140   -4.3990   21.5350 N   0  0  0  0  0  0  0  0  0  0  0  0
    6.5690   -5.5100   22.2880 C   0  0  0  0  0  0  0  0  0  0  0  0
    6.1120   -5.1600   23.6260 C   0  0  0  0  0  0  0  0  0  0  0  0
    6.6050   -3.8730   24.1610 C   0  0  0  0  0  0  0  0  0  0  0  0
    5.7150   -3.4060   25.2680 C   0  0  0  0  0  0  0  0  0  0  0  0
    4.6560   -2.8210   24.9900 O   0  0  0  0  0  0  0  0  0  0  0  0
    6.0260   -3.6160   26.6170 N   0  0  0  0  0  0  0  0  0  0  0  0
    6.4450   -2.6380   27.4960 C   0  0  0  0  0  0  0  0  0  0  0  0
    6.7990   -3.0850   28.8240 C   0  0  0  0  0  0  0  0  0  0  0  0
    6.3480   -4.5430   28.9630 C   0  0  0  0  0  0  0  0  0  0  0  0
    5.0140   -4.6850   28.7020 C   0  0  2  0  0  0  0  0  0  0  0  0
    5.0170   -6.0100   29.4730 C   0  0  0  0  0  0  0  0  0  0  0  0
    6.2110   -6.7180   29.4970 O   0  0  0  0  0  0  0  0  0  0  0  0
    3.7850   -6.3800   30.1070 N   0  0  0  0  0  0  0  0  0  0  0  0
    3.5140   -7.7840   29.7510 C   0  0  0  0  0  0  0  0  0  0  0  0
    2.6230   -7.3550   28.5780 C   0  0  0  0  0  0  0  0  0  0  0  0
    2.0350   -8.2280   27.9010 O   0  0  0  0  0  0  0  0  0  0  0  0
    3.5380   -6.2910   31.4920 C   0  0  0  0  0  0  0  0  0  0  0  0
    2.1160   -6.0570   31.9910 C   0  0  0  0  0  0  0  0  0  0  0  0
    1.9250   -6.7240   33.1660 F   0  0  0  0  0  0  0  0  0  0  0  0
    1.1740   -6.2830   31.0310 F   0  0  0  0  0  0  0  0  0  0  0  0
    1.9470   -4.7650   32.3780 F   0  0  0  0  0  0  0  0  0  0  0  0
    5.3870   -4.7590   27.2140 C   0  0  0  0  0  0  0  0  0  0  0  0
    6.7720   -2.8470   23.0940 C   0  0  0  0  0  0  0  0  0  0  0  0
    7.7340   -3.3560   22.2340 C   0  0  0  0  0  0  0  0  0  0  0  0
  1  2  1  0
  2  3  2  0
  2  4  1  0
  4  5  1  0
  5  6  1  0
  6  7  1  0
  7  8  1  0
  8  9  2  0
  8 10  1  0
 10 11  1  0
 11 12  1  0
 12 13  1  0
 13 14  1  0
 14 15  1  1
 15 16  2  0
 15 17  1  0
 17 18  1  0
 18 19  1  0
 19 20  1  0
 17 21  1  0
 21 22  1  0
 22 23  1  0
 22 24  1  0
 22 25  1  0
 10 26  1  0
 14 26  1  0
  7 27  1  0
  4 28  1  0
 27 28  1  0
M  END
