piperidine-amides-12955-covalent
     RDKit          3D

 21 21  0  0  0  0  0  0  0  0999 V2000
    7.1310   -3.2760   19.2330 C   0  0  0  0  0  0  0  0  0  0  0  0
    6.3980   -4.0640   20.2490 C   0  0  0  0  0  0  0  0  0  0  0  0
    5.3100   -4.5540   19.8900 O   0  0  0  0  0  0  0  0  0  0  0  0
    6.9370   -4.2930   21.5270 N   0  0  0  0  0  0  0  0  0  0  0  0
    6.3900   -5.3110   22.3430 C   0  0  0  0  0  0  0  0  0  0  0  0
    5.6350   -4.7800   23.4820 C   0  0  0  0  0  0  0  0  0  0  0  0
    5.7470   -3.3080   23.7040 C   0  0  0  0  0  0  0  0  0  0  0  0
    5.3970   -2.9770   25.1110 C   0  0  0  0  0  0  0  0  0  0  0  0
    4.1940   -2.8400   25.3960 O   0  0  0  0  0  0  0  0  0  0  0  0
    6.3810   -2.8410   26.1030 N   0  0  0  0  0  0  0  0  0  0  0  0
    7.1350   -4.0250   26.5120 C   0  0  0  0  0  0  0  0  0  0  0  0
    8.0630   -4.4190   25.3980 C   0  0  0  0  0  0  0  0  0  0  0  0
    6.1880   -5.1350   26.7840 C   0  0  0  0  0  0  0  0  0  0  0  0
    7.7950   -3.6810   27.7370 C   0  0  0  0  0  0  0  0  0  0  0  0
    7.8940   -2.4830   28.0590 O   0  0  0  0  0  0  0  0  0  0  0  0
    8.2600   -4.6940   28.4640 O   0  0  0  0  0  0  0  0  0  0  0  0
    8.2220   -5.9700   27.8540 C   0  0  0  0  0  0  0  0  0  0  0  0
    9.1680   -6.0990   26.8940 C   0  0  0  0  0  0  0  0  0  0  0  0
    9.5050   -5.1480   26.0190 C   0  0  0  0  0  0  0  0  0  0  0  0
    7.0010   -2.6420   23.2490 C   0  0  0  0  0  0  0  0  0  0  0  0
    7.6770   -3.2470   22.1900 C   0  0  0  0  0  0  0  0  0  0  0  0
  1  2  1  0
  2  3  2  0
  2  4  1  0
  4  5  1  0
  5  6  1  0
  6  7  1  0
  7  8  1  0
  8  9  2  0
  8 10  1  0
 10 11  1  0
 11 12  1  0
 11 13  1  0
 11 14  1  0
 14 15  2  0
 14 16  1  0
 16 17  1  0
 17 18  1  0
 18 19  2  3
  7 20  1  0
  4 21  1  0
 20 21  1  0
M  END
