piperidine-amides-1746-covalent
     RDKit          3D

 20 21  0  0  0  0  0  0  0  0999 V2000
    7.1050   -3.2810   19.2770 C   0  0  0  0  0  0  0  0  0  0  0  0
    6.3220   -4.0690   20.2710 C   0  0  0  0  0  0  0  0  0  0  0  0
    5.2630   -4.6010   19.9010 O   0  0  0  0  0  0  0  0  0  0  0  0
    6.8130   -4.2500   21.5870 N   0  0  0  0  0  0  0  0  0  0  0  0
    6.5500   -5.4570   22.3290 C   0  0  0  0  0  0  0  0  0  0  0  0
    5.7660   -5.0360   23.5760 C   0  0  0  0  0  0  0  0  0  0  0  0
    6.4550   -3.8460   24.1500 C   0  0  0  0  0  0  0  0  0  0  0  0
    5.7420   -3.2870   25.3280 C   0  0  0  0  0  0  0  0  0  0  0  0
    4.7150   -2.6490   25.0800 O   0  0  0  0  0  0  0  0  0  0  0  0
    6.2120   -3.4910   26.6350 N   0  0  0  0  0  0  0  0  0  0  0  0
    6.1070   -4.6760   27.4210 C   0  0  0  0  0  0  0  0  0  0  0  0
    4.9620   -5.1600   27.9950 C   0  0  0  0  0  0  0  0  0  0  0  0
    4.8240   -6.5470   28.2220 C   0  0  0  0  0  0  0  0  0  0  0  0
    3.7120   -7.1120   28.7910 C   0  0  0  0  0  0  0  0  0  0  0  0
    2.6750   -6.3440   29.1680 N   0  0  0  0  0  0  0  0  0  0  0  0
    2.6990   -5.0180   29.0020 C   0  0  0  0  0  0  0  0  0  0  0  0
    1.6060   -4.2780   29.4080 F   0  0  0  0  0  0  0  0  0  0  0  0
    3.9100   -4.3120   28.3700 C   0  0  0  0  0  0  0  0  0  0  0  0
    6.6930   -2.7210   23.1840 C   0  0  0  0  0  0  0  0  0  0  0  0
    7.5650   -3.2020   22.2240 C   0  0  0  0  0  0  0  0  0  0  0  0
  1  2  1  0
  2  3  2  0
  2  4  1  0
  4  5  1  0
  5  6  1  0
  6  7  1  0
  7  8  1  0
  8  9  2  0
  8 10  1  0
 10 11  1  0
 11 12  1  0
 12 13  2  0
 13 14  1  0
 14 15  2  0
 15 16  1  0
 16 17  1  0
 12 18  1  0
 16 18  2  0
  7 19  1  0
  4 20  1  0
 19 20  1  0
M  END
