piperidine-amides-1996-covalent
     RDKit          3D

 21 23  0  0  0  0  0  0  0  0999 V2000
    7.0760   -3.3090   19.3030 C   0  0  0  0  0  0  0  0  0  0  0  0
    6.4060   -4.1430   20.3390 C   0  0  0  0  0  0  0  0  0  0  0  0
    5.4210   -4.7960   19.9750 O   0  0  0  0  0  0  0  0  0  0  0  0
    6.9140   -4.1960   21.6470 N   0  0  0  0  0  0  0  0  0  0  0  0
    6.6990   -5.3520   22.4910 C   0  0  0  0  0  0  0  0  0  0  0  0
    6.0920   -4.9390   23.8080 C   0  0  0  0  0  0  0  0  0  0  0  0
    6.3710   -3.4540   24.0660 C   0  0  0  0  0  0  0  0  0  0  0  0
    6.1160   -3.1740   25.4930 C   0  0  0  0  0  0  0  0  0  0  0  0
    5.2360   -3.8400   26.0560 O   0  0  0  0  0  0  0  0  0  0  0  0
    6.7860   -2.1580   26.2330 N   0  0  0  0  0  0  0  0  0  0  0  0
    5.8900   -1.4860   27.1410 C   0  0  2  0  0  0  0  0  0  0  0  0
    5.0020   -0.6370   26.2810 C   0  0  0  0  0  0  0  0  0  0  0  0
    4.4500    0.3790   26.9700 C   0  0  0  0  0  0  0  0  0  0  0  0
    4.9270    0.2490   28.2120 C   0  0  0  0  0  0  0  0  0  0  0  0
    6.1640   -0.3400   28.0980 C   0  0  1  0  0  0  0  0  0  0  0  0
    6.8980   -0.9740   29.2340 C   0  0  0  0  0  0  0  0  0  0  0  0
    6.8360    0.3580   29.9690 C   0  0  0  0  0  0  0  0  0  0  0  0
    6.8710    1.4150   28.8730 C   0  0  0  0  0  0  0  0  0  0  0  0
    7.0000    0.6290   27.7560 O   0  0  0  0  0  0  0  0  0  0  0  0
    7.6610   -2.9780   23.5720 C   0  0  0  0  0  0  0  0  0  0  0  0
    7.7940   -3.1340   22.1040 C   0  0  0  0  0  0  0  0  0  0  0  0
  1  2  1  0
  2  3  2  0
  2  4  1  0
  4  5  1  0
  5  6  1  0
  6  7  1  0
  7  8  1  0
  8  9  2  0
  8 10  1  0
 11 10  1  6
 11 12  1  0
 12 13  1  0
 13 14  1  0
 11 15  1  0
 15 14  1  1
 15 16  1  0
 16 17  1  0
 17 18  1  0
 15 19  1  0
 18 19  1  0
  7 20  1  0
  4 21  1  0
 20 21  1  0
M  END
