piperidine-amides-28924-covalent
     RDKit          3D

 25 27  0  0  0  0  0  0  0  0999 V2000
    6.9520   -3.3620   19.4240 C   0  0  0  0  0  0  0  0  0  0  0  0
    6.3230   -4.2420   20.4130 C   0  0  0  0  0  0  0  0  0  0  0  0
    5.4070   -4.9790   20.0020 O   0  0  0  0  0  0  0  0  0  0  0  0
    6.7470   -4.2820   21.7750 N   0  0  0  0  0  0  0  0  0  0  0  0
    6.5580   -5.4980   22.5210 C   0  0  0  0  0  0  0  0  0  0  0  0
    5.8230   -5.1930   23.7980 C   0  0  0  0  0  0  0  0  0  0  0  0
    5.7310   -3.6870   23.8490 C   0  0  0  0  0  0  0  0  0  0  0  0
    4.9920   -3.1640   25.0880 C   0  0  0  0  0  0  0  0  0  0  0  0
    3.8630   -2.7720   24.8510 O   0  0  0  0  0  0  0  0  0  0  0  0
    5.5160   -3.1330   26.3920 N   0  0  0  0  0  0  0  0  0  0  0  0
    4.6720   -3.0320   27.5400 C   0  0  0  0  0  0  0  0  0  0  0  0
    5.1810   -3.8400   28.4960 C   0  0  1  0  0  0  0  0  0  0  0  0
    4.5720   -5.0390   28.7900 C   0  0  0  0  0  0  0  0  0  0  0  0
    6.4270   -4.2430   27.9380 C   0  0  0  0  0  0  0  0  0  0  0  0
    7.4600   -5.1120   28.7560 C   0  0  0  0  0  0  0  0  0  0  0  0
    8.8810   -5.6000   28.2180 C   0  0  0  0  0  0  0  0  0  0  0  0
    8.7920   -5.0650   26.9870 C   0  0  0  0  0  0  0  0  0  0  0  0
    9.4250   -4.8040   25.4820 S   0  0  0  0  0  0  0  0  0  0  0  0
    9.4540   -3.1880   24.8170 N   0  0  0  0  0  0  0  0  0  0  0  0
    8.4680   -5.6240   24.6500 O   0  0  0  0  0  0  0  0  0  0  0  0
   10.7740   -5.3970   25.5270 O   0  0  0  0  0  0  0  0  0  0  0  0
    7.5870   -4.6030   27.3870 C   0  0  0  0  0  0  0  0  0  0  0  0
    6.7710   -3.8460   26.5620 C   0  0  0  0  0  0  0  0  0  0  0  0
    7.1310   -3.1390   23.7400 C   0  0  0  0  0  0  0  0  0  0  0  0
    7.4710   -3.1670   22.3830 C   0  0  0  0  0  0  0  0  0  0  0  0
  1  2  1  0
  2  3  2  0
  2  4  1  0
  4  5  1  0
  5  6  1  0
  6  7  1  0
  7  8  1  0
  8  9  2  0
  8 10  1  0
 10 11  1  0
 11 12  1  0
 12 13  1  6
 12 14  1  0
 14 15  1  0
 15 16  2  0
 16 17  1  0
 17 18  1  0
 18 19  1  0
 18 20  2  0
 18 21  2  0
 17 22  2  0
 10 23  1  0
 14 23  2  0
 22 23  1  0
  7 24  1  0
  4 25  1  0
 24 25  1  0
M  END
