piperidine-amides-29633-covalent
     RDKit          3D

 27 30  0  0  0  0  0  0  0  0999 V2000
    7.0860   -3.3650   19.3780 C   0  0  0  0  0  0  0  0  0  0  0  0
    6.3680   -4.1750   20.3510 C   0  0  0  0  0  0  0  0  0  0  0  0
    5.3960   -4.8460   19.9910 O   0  0  0  0  0  0  0  0  0  0  0  0
    6.8410   -4.2170   21.7110 N   0  0  0  0  0  0  0  0  0  0  0  0
    7.6160   -3.1300   22.2410 C   0  0  0  0  0  0  0  0  0  0  0  0
    6.8530   -2.4620   23.3460 C   0  0  0  0  0  0  0  0  0  0  0  0
    6.5540   -3.5070   24.4030 C   0  0  0  0  0  0  0  0  0  0  0  0
    5.7060   -2.9110   25.4920 C   0  0  0  0  0  0  0  0  0  0  0  0
    4.5500   -2.5260   25.2370 O   0  0  0  0  0  0  0  0  0  0  0  0
    6.1650   -2.7960   26.8520 N   0  0  0  0  0  0  0  0  0  0  0  0
    5.4020   -3.5290   27.8410 C   0  0  0  0  0  0  0  0  0  0  0  0
    5.3990   -4.8190   27.4690 C   0  0  0  0  0  0  0  0  0  0  0  0
    6.1830   -4.6580   28.6410 C   0  0  0  0  0  0  0  0  0  0  0  0
    6.7510   -1.4800   27.3610 C   0  0  2  0  0  0  0  0  0  0  0  0
    7.3200   -1.7170   28.6130 C   0  0  0  0  0  0  0  0  0  0  0  0
    6.6890   -0.9880   29.7350 C   0  0  0  0  0  0  0  0  0  0  0  0
    5.4110   -0.8660   29.6950 O   0  0  0  0  0  0  0  0  0  0  0  0
    5.2260   -0.0990   28.5820 C   0  0  0  0  0  0  0  0  0  0  0  0
    4.3210    1.0450   28.6830 C   0  0  0  0  0  0  0  0  0  0  0  0
    4.3200    1.7720   27.2970 C   0  0  0  0  0  0  0  0  0  0  0  0
    3.5320    2.9750   26.9870 C   0  0  0  0  0  0  0  0  0  0  0  0
    5.1810    1.3020   26.0360 C   0  0  0  0  0  0  0  0  0  0  0  0
    6.0790    0.4500   25.4010 C   0  0  0  0  0  0  0  0  0  0  0  0
    5.2910    0.6400   26.9880 C   0  0  0  0  0  0  0  0  0  0  0  0
    5.8810   -0.4490   27.5580 C   0  0  0  0  0  0  0  0  0  0  0  0
    5.9210   -4.7510   23.8110 C   0  0  0  0  0  0  0  0  0  0  0  0
    6.5600   -5.3300   22.5780 C   0  0  0  0  0  0  0  0  0  0  0  0
  1  2  1  0
  2  3  2  0
  2  4  1  0
  4  5  1  0
  5  6  1  0
  6  7  1  0
  7  8  1  0
  8  9  2  0
  8 10  1  0
 10 11  1  0
 11 12  1  0
 11 13  1  0
 12 13  1  0
 14 10  1  1
 14 15  1  0
 15 16  1  0
 16 17  1  0
 17 18  1  0
 18 19  2  0
 19 20  1  0
 20 21  1  0
 20 22  2  0
 22 23  1  0
 22 24  1  0
 14 25  1  0
 18 25  1  0
 24 25  2  0
  7 26  1  0
  4 27  1  0
 26 27  1  0
M  END
