piperidine-amides-2815-covalent
     RDKit          3D

 24 25  0  0  0  0  0  0  0  0999 V2000
    7.1390   -3.2400   19.1850 C   0  0  0  0  0  0  0  0  0  0  0  0
    6.3500   -3.9550   20.1780 C   0  0  0  0  0  0  0  0  0  0  0  0
    5.2920   -4.5030   19.8680 O   0  0  0  0  0  0  0  0  0  0  0  0
    6.8440   -4.0650   21.5170 N   0  0  0  0  0  0  0  0  0  0  0  0
    7.7170   -3.0500   22.0520 C   0  0  0  0  0  0  0  0  0  0  0  0
    7.4660   -2.9420   23.5200 C   0  0  0  0  0  0  0  0  0  0  0  0
    6.0300   -3.3820   23.7290 C   0  0  0  0  0  0  0  0  0  0  0  0
    5.5710   -3.1090   25.1160 C   0  0  0  0  0  0  0  0  0  0  0  0
    4.4110   -2.7200   25.3540 O   0  0  0  0  0  0  0  0  0  0  0  0
    6.4550   -3.2940   26.2030 N   0  0  0  0  0  0  0  0  0  0  0  0
    5.8230   -3.7060   27.4320 C   0  0  0  0  0  0  0  0  0  0  0  0
    6.8840   -4.0920   28.4120 C   0  0  2  0  0  0  0  0  0  0  0  0
    8.1420   -3.6270   28.2140 C   0  0  0  0  0  0  0  0  0  0  0  0
    8.3590   -2.4420   28.5710 O   0  0  0  0  0  0  0  0  0  0  0  0
    6.9780   -5.6300   28.3900 C   0  0  0  0  0  0  0  0  0  0  0  0
    5.9490   -6.1340   27.6320 C   0  0  0  0  0  0  0  0  0  0  0  0
    4.7140   -6.6400   28.2000 C   0  0  0  0  0  0  0  0  0  0  0  0
    3.7040   -7.1390   27.4370 C   0  0  0  0  0  0  0  0  0  0  0  0
    3.7860   -7.1950   26.0700 C   0  0  0  0  0  0  0  0  0  0  0  0
    4.9510   -6.7220   25.4530 C   0  0  0  0  0  0  0  0  0  0  0  0
    6.0800   -6.1710   26.2530 C   0  0  0  0  0  0  0  0  0  0  0  0
    7.7300   -5.5060   25.4790 Br  0  0  0  0  0  0  0  0  0  0  0  0
    5.7270   -4.8230   23.3220 C   0  0  0  0  0  0  0  0  0  0  0  0
    6.5840   -5.2330   22.3020 C   0  0  0  0  0  0  0  0  0  0  0  0
  1  2  1  0
  2  3  2  0
  2  4  1  0
  4  5  1  0
  5  6  1  0
  6  7  1  0
  7  8  1  0
  8  9  2  0
  8 10  1  0
 10 11  1  0
 12 11  1  6
 12 13  1  0
 13 14  1  0
 12 15  1  0
 15 16  1  0
 16 17  2  0
 17 18  1  0
 18 19  2  0
 19 20  1  0
 16 21  1  0
 20 21  2  0
 21 22  1  0
  7 23  1  0
  4 24  1  0
 23 24  1  0
M  END
