piperidine-amides-23805-covalent
     RDKit          3D

 24 26  0  0  0  0  0  0  0  0999 V2000
    7.1080   -3.3100   19.2300 C   0  0  0  0  0  0  0  0  0  0  0  0
    6.3960   -4.0950   20.2490 C   0  0  0  0  0  0  0  0  0  0  0  0
    5.3030   -4.6030   19.9060 O   0  0  0  0  0  0  0  0  0  0  0  0
    6.9500   -4.3310   21.5290 N   0  0  0  0  0  0  0  0  0  0  0  0
    6.5090   -5.4710   22.2440 C   0  0  0  0  0  0  0  0  0  0  0  0
    6.0620   -5.1610   23.5930 C   0  0  0  0  0  0  0  0  0  0  0  0
    6.7220   -3.9880   24.2020 C   0  0  0  0  0  0  0  0  0  0  0  0
    5.9460   -3.5230   25.3820 C   0  0  0  0  0  0  0  0  0  0  0  0
    4.9560   -2.7810   25.2320 O   0  0  0  0  0  0  0  0  0  0  0  0
    6.3200   -3.9310   26.6610 N   0  0  0  0  0  0  0  0  0  0  0  0
    6.9570   -5.1310   26.9850 C   0  0  0  0  0  0  0  0  0  0  0  0
    7.0470   -5.2920   28.4100 C   0  0  0  0  0  0  0  0  0  0  0  0
    6.0080   -4.2310   28.8570 C   0  0  0  0  0  0  0  0  0  0  0  0
    5.6530   -3.3870   27.8050 C   0  0  1  0  0  0  0  0  0  0  0  0
    6.4280   -2.2510   28.4820 C   0  0  0  0  0  0  0  0  0  0  0  0
    5.2140   -1.8390   29.2520 C   0  0  0  0  0  0  0  0  0  0  0  0
    5.0500   -0.4050   28.7740 C   0  0  0  0  0  0  0  0  0  0  0  0
    3.9350    0.4850   29.2620 C   0  0  0  0  0  0  0  0  0  0  0  0
    2.9890   -0.1650   30.2700 C   0  0  0  0  0  0  0  0  0  0  0  0
    1.9450    0.5580   30.7730 F   0  0  0  0  0  0  0  0  0  0  0  0
    3.2040   -1.6290   30.7210 C   0  0  0  0  0  0  0  0  0  0  0  0
    4.3500   -2.4030   30.1610 C   0  0  0  0  0  0  0  0  0  0  0  0
    6.9520   -2.8630   23.2510 C   0  0  0  0  0  0  0  0  0  0  0  0
    7.7140   -3.3110   22.1990 C   0  0  0  0  0  0  0  0  0  0  0  0
  1  2  1  0
  2  3  2  0
  2  4  1  0
  4  5  1  0
  5  6  1  0
  6  7  1  0
  7  8  1  0
  8  9  2  0
  8 10  1  0
 10 11  1  0
 11 12  1  0
 12 13  1  0
 10 14  1  0
 13 14  1  0
 14 15  1  1
 15 16  1  0
 16 17  2  0
 17 18  1  0
 18 19  2  0
 19 20  1  0
 19 21  1  0
 16 22  1  0
 21 22  2  0
  7 23  1  0
  4 24  1  0
 23 24  1  0
M  END
