piperidine-amides-2665-covalent
     RDKit          3D

 25 26  0  0  0  0  0  0  0  0999 V2000
    7.0620   -3.2820   19.2500 C   0  0  0  0  0  0  0  0  0  0  0  0
    6.3540   -4.0740   20.2930 C   0  0  0  0  0  0  0  0  0  0  0  0
    5.3400   -4.6760   19.9340 O   0  0  0  0  0  0  0  0  0  0  0  0
    6.8530   -4.1580   21.6010 N   0  0  0  0  0  0  0  0  0  0  0  0
    6.6780   -5.3550   22.3910 C   0  0  0  0  0  0  0  0  0  0  0  0
    6.0420   -5.0070   23.7110 C   0  0  0  0  0  0  0  0  0  0  0  0
    6.0820   -3.4950   23.9130 C   0  0  0  0  0  0  0  0  0  0  0  0
    5.6460   -3.1710   25.2880 C   0  0  0  0  0  0  0  0  0  0  0  0
    4.4300   -3.1020   25.5320 O   0  0  0  0  0  0  0  0  0  0  0  0
    6.5780   -2.9320   26.3110 N   0  0  0  0  0  0  0  0  0  0  0  0
    6.2180   -3.2110   27.6880 C   0  0  0  0  0  0  0  0  0  0  0  0
    5.2740   -4.3910   27.6950 C   0  0  0  0  0  0  0  0  0  0  0  0
    6.0030   -5.5240   28.2310 N   0  0  0  0  0  0  0  0  0  0  0  0
    5.8510   -6.5610   27.2570 C   0  0  0  0  0  0  0  0  0  0  0  0
    5.8740   -5.7710   29.6260 C   0  0  0  0  0  0  0  0  0  0  0  0
    4.7300   -6.3970   30.0400 C   0  0  0  0  0  0  0  0  0  0  0  0
    4.5190   -6.7430   31.5170 C   0  0  0  0  0  0  0  0  0  0  0  0
    3.2260   -7.4290   31.8830 C   0  0  0  0  0  0  0  0  0  0  0  0
    2.2210   -7.7370   30.8130 C   0  0  0  0  0  0  0  0  0  0  0  0
    1.1280   -8.3500   31.3980 O   0  0  0  0  0  0  0  0  0  0  0  0
    0.8230   -9.6950   31.1420 C   0  0  0  0  0  0  0  0  0  0  0  0
    2.4210   -7.4050   29.3620 C   0  0  0  0  0  0  0  0  0  0  0  0
    3.7090   -6.7220   28.9910 C   0  0  0  0  0  0  0  0  0  0  0  0
    7.4790   -2.9960   23.6280 C   0  0  0  0  0  0  0  0  0  0  0  0
    7.7270   -3.1230   22.1480 C   0  0  0  0  0  0  0  0  0  0  0  0
  1  2  1  0
  2  3  2  0
  2  4  1  0
  4  5  1  0
  5  6  1  0
  6  7  1  0
  7  8  1  0
  8  9  2  0
  8 10  1  0
 10 11  1  0
 11 12  1  0
 12 13  1  0
 13 14  1  0
 13 15  1  0
 15 16  1  0
 16 17  2  0
 17 18  1  0
 18 19  2  0
 19 20  1  0
 20 21  1  0
 19 22  1  0
 16 23  1  0
 22 23  2  0
  7 24  1  0
  4 25  1  0
 24 25  1  0
M  END
