piperidine-amides-29884-covalent
     RDKit          3D

 27 30  0  0  0  0  0  0  0  0999 V2000
    7.0470   -3.3570   19.3330 C   0  0  0  0  0  0  0  0  0  0  0  0
    6.3730   -4.1990   20.3140 C   0  0  0  0  0  0  0  0  0  0  0  0
    5.3740   -4.8340   19.9830 O   0  0  0  0  0  0  0  0  0  0  0  0
    6.9050   -4.3320   21.6490 N   0  0  0  0  0  0  0  0  0  0  0  0
    7.7420   -3.2830   22.2010 C   0  0  0  0  0  0  0  0  0  0  0  0
    7.4310   -3.0690   23.6540 C   0  0  0  0  0  0  0  0  0  0  0  0
    6.1110   -3.7620   23.8840 C   0  0  0  0  0  0  0  0  0  0  0  0
    5.4770   -3.4120   25.1850 C   0  0  0  0  0  0  0  0  0  0  0  0
    4.3720   -2.8440   25.2280 O   0  0  0  0  0  0  0  0  0  0  0  0
    6.0970   -3.7050   26.4130 N   0  0  0  0  0  0  0  0  0  0  0  0
    6.4430   -2.6010   27.2000 C   0  0  0  0  0  0  0  0  0  0  0  0
    6.4140   -3.3610   28.4700 C   0  0  1  0  0  0  0  0  0  0  0  0
    5.9290   -2.5500   29.4700 O   0  0  0  0  0  0  0  0  0  0  0  0
    5.5960   -4.4750   28.4660 C   0  0  2  0  0  0  0  0  0  0  0  0
    5.8360   -5.6120   29.2220 O   0  0  0  0  0  0  0  0  0  0  0  0
    4.8680   -6.4490   29.7970 C   0  0  0  0  0  0  0  0  0  0  0  0
    5.0480   -6.8950   31.1070 C   0  0  0  0  0  0  0  0  0  0  0  0
    4.0360   -7.7460   31.6880 C   0  0  0  0  0  0  0  0  0  0  0  0
    2.9290   -8.1300   31.0200 C   0  0  0  0  0  0  0  0  0  0  0  0
    2.7610   -7.6970   29.7360 C   0  0  0  0  0  0  0  0  0  0  0  0
    3.7010   -6.8840   29.1480 C   0  0  0  0  0  0  0  0  0  0  0  0
    3.2100   -6.6240   27.8170 C   0  0  0  0  0  0  0  0  0  0  0  0
    2.0100   -7.2980   27.6050 C   0  0  0  0  0  0  0  0  0  0  0  0
    1.6400   -7.9830   28.7950 C   0  0  0  0  0  0  0  0  0  0  0  0
    5.5190   -4.8340   27.1000 C   0  0  0  0  0  0  0  0  0  0  0  0
    6.1820   -5.2490   23.7590 C   0  0  0  0  0  0  0  0  0  0  0  0
    6.7070   -5.5610   22.3710 C   0  0  0  0  0  0  0  0  0  0  0  0
  1  2  1  0
  2  3  2  0
  2  4  1  0
  4  5  1  0
  5  6  1  0
  6  7  1  0
  7  8  1  0
  8  9  2  0
  8 10  1  0
 10 11  1  0
 11 12  1  0
 12 13  1  1
 12 14  1  0
 14 15  1  1
 15 16  1  0
 16 17  2  0
 17 18  1  0
 18 19  2  0
 19 20  1  0
 16 21  1  0
 20 21  2  0
 21 22  1  0
 22 23  1  0
 20 24  1  0
 23 24  1  0
 10 25  1  0
 14 25  1  0
  7 26  1  0
  4 27  1  0
 26 27  1  0
M  END
