piperidine-amides-31437-covalent
     RDKit          3D

 28 31  0  0  0  0  0  0  0  0999 V2000
    7.0810   -3.4030   19.4970 C   0  0  0  0  0  0  0  0  0  0  0  0
    6.4150   -4.3030   20.4110 C   0  0  0  0  0  0  0  0  0  0  0  0
    5.4080   -4.9630   19.9980 O   0  0  0  0  0  0  0  0  0  0  0  0
    6.8720   -4.4810   21.7240 N   0  0  0  0  0  0  0  0  0  0  0  0
    6.0610   -5.4230   22.5530 C   0  0  0  0  0  0  0  0  0  0  0  0
    6.4680   -5.1390   24.0720 C   0  0  0  0  0  0  0  0  0  0  0  0
    6.0580   -3.7090   24.3920 C   0  0  0  0  0  0  0  0  0  0  0  0
    6.7020   -3.0470   25.6890 C   0  0  0  0  0  0  0  0  0  0  0  0
    7.6810   -2.5320   25.2480 O   0  0  0  0  0  0  0  0  0  0  0  0
    6.0620   -3.1150   26.8170 N   0  0  0  0  0  0  0  0  0  0  0  0
    5.2160   -2.7480   27.7910 C   0  0  0  0  0  0  0  0  0  0  0  0
    4.0890   -3.3700   28.2400 C   0  0  0  0  0  0  0  0  0  0  0  0
    3.8140   -4.4610   27.3710 O   0  0  0  0  0  0  0  0  0  0  0  0
    4.9970   -5.0230   26.9460 C   0  0  2  0  0  0  0  0  0  0  0  0
    4.9700   -6.4060   27.3650 C   0  0  0  0  0  0  0  0  0  0  0  0
    4.3820   -5.8970   28.6680 C   0  0  0  0  0  0  0  0  0  0  0  0
    5.5690   -5.6850   29.4620 N   0  0  0  0  0  0  0  0  0  0  0  0
    5.8390   -6.9710   29.9890 C   0  0  0  0  0  0  0  0  0  0  0  0
    5.4560   -7.1780   31.3360 C   0  0  0  0  0  0  0  0  0  0  0  0
    4.4810   -6.0520   31.1960 C   0  0  0  0  0  0  0  0  0  0  0  0
    3.7000   -5.8030   32.5040 C   0  0  0  0  0  0  0  0  0  0  0  0
    3.9890   -6.6180   33.5900 C   0  0  0  0  0  0  0  0  0  0  0  0
    4.9500   -7.6460   33.5470 C   0  0  0  0  0  0  0  0  0  0  0  0
    5.6890   -7.9330   32.4180 C   0  0  0  0  0  0  0  0  0  0  0  0
    6.6040   -5.1510   28.5260 C   0  0  0  0  0  0  0  0  0  0  0  0
    5.9340   -4.3570   27.5740 C   0  0  1  0  0  0  0  0  0  0  0  0
    6.3390   -2.8030   23.2580 C   0  0  0  0  0  0  0  0  0  0  0  0
    7.4270   -3.3640   22.4160 C   0  0  0  0  0  0  0  0  0  0  0  0
  1  2  1  0
  2  3  2  0
  2  4  1  0
  4  5  1  0
  5  6  1  0
  6  7  1  0
  7  8  1  0
  8  9  2  0
  8 10  1  0
 10 11  1  0
 11 12  1  0
 12 13  1  0
 13 14  1  0
 14 15  1  1
 15 16  1  0
 16 17  1  0
 17 18  1  0
 18 19  1  0
 19 20  2  0
 20 21  1  0
 21 22  2  0
 22 23  1  0
 19 24  1  0
 23 24  2  0
 17 25  1  0
 10 26  1  0
 14 26  1  0
 26 25  1  6
  7 27  1  0
  4 28  1  0
 27 28  1  0
M  END
