piperidine-amides-11852-covalent
     RDKit          3D

 27 29  0  0  0  0  0  0  0  0999 V2000
    7.0660   -3.3530   19.2870 C   0  0  0  0  0  0  0  0  0  0  0  0
    6.3830   -4.1700   20.2800 C   0  0  0  0  0  0  0  0  0  0  0  0
    5.3610   -4.7790   19.9680 O   0  0  0  0  0  0  0  0  0  0  0  0
    6.9390   -4.3170   21.5950 N   0  0  0  0  0  0  0  0  0  0  0  0
    7.7060   -3.2500   22.1880 C   0  0  0  0  0  0  0  0  0  0  0  0
    6.9360   -2.6350   23.3110 C   0  0  0  0  0  0  0  0  0  0  0  0
    6.5400   -3.7440   24.2600 C   0  0  0  0  0  0  0  0  0  0  0  0
    5.7980   -3.1630   25.4080 C   0  0  0  0  0  0  0  0  0  0  0  0
    4.6020   -2.8200   25.3250 O   0  0  0  0  0  0  0  0  0  0  0  0
    6.4780   -3.0130   26.6360 N   0  0  0  0  0  0  0  0  0  0  0  0
    6.4790   -1.7340   27.3170 C   0  0  0  0  0  0  0  0  0  0  0  0
    5.9580   -0.5550   26.5630 C   0  0  0  0  0  0  0  0  0  0  0  0
    5.9430    0.6710   27.2000 C   0  0  0  0  0  0  0  0  0  0  0  0
    6.4110    0.7780   28.5260 C   0  0  0  0  0  0  0  0  0  0  0  0
    6.9010   -0.3160   29.2380 C   0  0  0  0  0  0  0  0  0  0  0  0
    7.3690   -0.1720   30.6130 C   0  0  0  0  0  0  0  0  0  0  0  0
    8.5140    0.9130   31.2530 S   0  0  0  0  0  0  0  0  0  0  0  0
    7.6550    2.3860   31.2060 C   0  0  0  0  0  0  0  0  0  0  0  0
    8.5260    3.2440   30.5620 C   0  0  0  0  0  0  0  0  0  0  0  0
    8.2570    3.7800   29.2960 C   0  0  0  0  0  0  0  0  0  0  0  0
    9.1800    4.6850   28.6090 C   0  0  0  0  0  0  0  0  0  0  0  0
   10.3720    5.0660   29.1640 C   0  0  0  0  0  0  0  0  0  0  0  0
   10.6640    4.5530   30.4130 C   0  0  0  0  0  0  0  0  0  0  0  0
    9.7170    3.6280   31.1140 C   0  0  0  0  0  0  0  0  0  0  0  0
    6.9210   -1.5310   28.6130 C   0  0  0  0  0  0  0  0  0  0  0  0
    5.7810   -4.8430   23.5730 C   0  0  0  0  0  0  0  0  0  0  0  0
    6.5380   -5.4220   22.4220 C   0  0  0  0  0  0  0  0  0  0  0  0
  1  2  1  0
  2  3  2  0
  2  4  1  0
  4  5  1  0
  5  6  1  0
  6  7  1  0
  7  8  1  0
  8  9  2  0
  8 10  1  0
 10 11  1  0
 11 12  2  0
 12 13  1  0
 13 14  2  0
 14 15  1  0
 15 16  1  0
 16 17  1  0
 17 18  1  0
 18 19  1  0
 19 20  2  0
 20 21  1  0
 21 22  2  0
 22 23  1  0
 19 24  1  0
 23 24  2  0
 11 25  1  0
 15 25  2  0
  7 26  1  0
  4 27  1  0
 26 27  1  0
M  END
