piperidine-amides-27632-covalent
     RDKit          3D

 26 29  0  0  0  0  0  0  0  0999 V2000
    7.1150   -3.3230   19.2780 C   0  0  0  0  0  0  0  0  0  0  0  0
    6.4210   -4.1410   20.2770 C   0  0  0  0  0  0  0  0  0  0  0  0
    5.3350   -4.6640   19.9250 O   0  0  0  0  0  0  0  0  0  0  0  0
    6.9980   -4.3630   21.5270 N   0  0  0  0  0  0  0  0  0  0  0  0
    6.6610   -5.5390   22.2860 C   0  0  0  0  0  0  0  0  0  0  0  0
    5.9770   -5.0910   23.5450 C   0  0  0  0  0  0  0  0  0  0  0  0
    6.7280   -3.9770   24.2350 C   0  0  0  0  0  0  0  0  0  0  0  0
    5.9620   -3.5240   25.3970 C   0  0  0  0  0  0  0  0  0  0  0  0
    5.0210   -2.7150   25.2230 O   0  0  0  0  0  0  0  0  0  0  0  0
    6.2460   -3.9710   26.6850 N   0  0  0  0  0  0  0  0  0  0  0  0
    7.0290   -5.1720   26.8730 C   0  0  0  0  0  0  0  0  0  0  0  0
    6.9970   -5.2310   28.3550 C   0  0  0  0  0  0  0  0  0  0  0  0
    6.0760   -4.3470   28.8240 C   0  0  0  0  0  0  0  0  0  0  0  0
    5.4090   -3.6210   27.8340 C   0  0  2  0  0  0  0  0  0  0  0  0
    4.0580   -3.8980   27.5750 C   0  0  0  0  0  0  0  0  0  0  0  0
    3.6020   -3.0240   26.5980 O   0  0  0  0  0  0  0  0  0  0  0  0
    3.3180   -3.9090   28.7910 C   0  0  0  0  0  0  0  0  0  0  0  0
    2.8390   -5.1680   29.0900 C   0  0  0  0  0  0  0  0  0  0  0  0
    2.0400   -5.6130   30.3090 C   0  0  0  0  0  0  0  0  0  0  0  0
    1.7100   -7.1130   30.2450 C   0  0  0  0  0  0  0  0  0  0  0  0
    2.1390   -7.9990   29.1050 C   0  0  0  0  0  0  0  0  0  0  0  0
    2.9240   -7.3530   27.9980 C   0  0  0  0  0  0  0  0  0  0  0  0
    3.1970   -6.0120   28.0950 C   0  0  0  0  0  0  0  0  0  0  0  0
    3.9600   -5.2280   27.0840 C   0  0  0  0  0  0  0  0  0  0  0  0
    6.9070   -2.8170   23.3140 C   0  0  0  0  0  0  0  0  0  0  0  0
    7.7560   -3.2920   22.1520 C   0  0  0  0  0  0  0  0  0  0  0  0
  1  2  1  0
  2  3  2  0
  2  4  1  0
  4  5  1  0
  5  6  1  0
  6  7  1  0
  7  8  1  0
  8  9  2  0
  8 10  1  0
 10 11  1  0
 11 12  1  0
 12 13  1  0
 10 14  1  0
 13 14  1  0
 14 15  1  6
 15 16  1  0
 15 17  1  0
 17 18  1  0
 18 19  1  0
 19 20  2  0
 20 21  1  0
 21 22  2  0
 18 23  2  0
 22 23  1  0
 15 24  1  0
 23 24  1  0
  7 25  1  0
  4 26  1  0
 25 26  1  0
M  END
