piperidine-amides-1925-covalent
     RDKit          3D

 23 24  0  0  0  0  0  0  0  0999 V2000
    7.0840   -3.3040   19.2610 C   0  0  0  0  0  0  0  0  0  0  0  0
    6.3860   -4.1010   20.3010 C   0  0  0  0  0  0  0  0  0  0  0  0
    5.3620   -4.6910   19.9450 O   0  0  0  0  0  0  0  0  0  0  0  0
    6.9160   -4.2030   21.5950 N   0  0  0  0  0  0  0  0  0  0  0  0
    7.7170   -3.1400   22.1770 C   0  0  0  0  0  0  0  0  0  0  0  0
    7.3700   -2.9360   23.6320 C   0  0  0  0  0  0  0  0  0  0  0  0
    6.0330   -3.6130   23.9170 C   0  0  0  0  0  0  0  0  0  0  0  0
    5.5520   -3.2820   25.2780 C   0  0  0  0  0  0  0  0  0  0  0  0
    4.3310   -3.2770   25.4600 O   0  0  0  0  0  0  0  0  0  0  0  0
    6.4110   -2.9690   26.3570 N   0  0  0  0  0  0  0  0  0  0  0  0
    6.2580   -3.7000   27.6010 C   0  0  0  0  0  0  0  0  0  0  0  0
    4.9380   -3.3200   28.2320 C   0  0  1  0  0  0  0  0  0  0  0  0
    3.8060   -2.8040   27.6700 C   0  0  0  0  0  0  0  0  0  0  0  0
    3.7730   -4.1280   28.2360 C   0  0  0  0  0  0  0  0  0  0  0  0
    3.2170   -4.4460   29.4210 C   0  0  0  0  0  0  0  0  0  0  0  0
    2.0300   -5.3460   29.6950 C   0  0  0  0  0  0  0  0  0  0  0  0
    1.1090   -4.9750   30.6410 O   0  0  0  0  0  0  0  0  0  0  0  0
    1.8880   -6.5220   28.9900 O   0  0  0  0  0  0  0  0  0  0  0  0
    2.9410   -7.4740   28.8980 C   0  0  0  0  0  0  0  0  0  0  0  0
    3.9730   -3.7760   30.2620 N   0  0  0  0  0  0  0  0  0  0  0  0
    5.0020   -3.0460   29.6300 O   0  0  0  0  0  0  0  0  0  0  0  0
    6.0690   -5.0680   23.6960 C   0  0  0  0  0  0  0  0  0  0  0  0
    6.5970   -5.3850   22.3470 C   0  0  0  0  0  0  0  0  0  0  0  0
  1  2  1  0
  2  3  2  0
  2  4  1  0
  4  5  1  0
  5  6  1  0
  6  7  1  0
  7  8  1  0
  8  9  2  0
  8 10  1  0
 10 11  1  0
 12 11  1  0
 12 13  1  6
 12 14  1  0
 14 15  1  0
 15 16  1  0
 16 17  2  0
 16 18  1  0
 18 19  1  0
 15 20  2  0
 12 21  1  0
 20 21  1  0
  7 22  1  0
  4 23  1  0
 22 23  1  0
M  END
