piperidine-amides-18916-covalent
     RDKit          3D

 21 22  0  0  0  0  0  0  0  0999 V2000
    7.0480   -3.3990   19.3090 C   0  0  0  0  0  0  0  0  0  0  0  0
    6.3870   -4.1700   20.3340 C   0  0  0  0  0  0  0  0  0  0  0  0
    5.3660   -4.8370   19.9880 O   0  0  0  0  0  0  0  0  0  0  0  0
    6.8690   -4.2510   21.6590 N   0  0  0  0  0  0  0  0  0  0  0  0
    6.5110   -5.4480   22.4490 C   0  0  0  0  0  0  0  0  0  0  0  0
    5.5540   -4.7810   23.5140 C   0  0  0  0  0  0  0  0  0  0  0  0
    6.3700   -3.6950   24.2010 C   0  0  0  0  0  0  0  0  0  0  0  0
    5.7120   -3.3240   25.6070 C   0  0  0  0  0  0  0  0  0  0  0  0
    4.4820   -3.2800   25.5720 O   0  0  0  0  0  0  0  0  0  0  0  0
    6.6910   -3.1690   26.4100 N   0  0  0  0  0  0  0  0  0  0  0  0
    7.8960   -3.4640   26.9360 C   0  0  0  0  0  0  0  0  0  0  0  0
    6.3510   -2.0740   27.2720 C   0  0  0  0  0  0  0  0  0  0  0  0
    5.3950   -2.5120   28.2290 C   0  0  0  0  0  0  0  0  0  0  0  0
    5.9870   -3.5820   28.9220 O   0  0  0  0  0  0  0  0  0  0  0  0
    7.6150   -1.7780   28.1340 C   0  0  0  0  0  0  0  0  0  0  0  0
    6.9360   -0.6920   28.9820 C   0  0  0  0  0  0  0  0  0  0  0  0
    6.6150    0.3840   28.4400 O   0  0  0  0  0  0  0  0  0  0  0  0
    5.7090    0.2500   27.4110 C   0  0  0  0  0  0  0  0  0  0  0  0
    6.0540   -0.8970   26.6540 C   0  0  0  0  0  0  0  0  0  0  0  0
    6.8670   -2.6290   23.3810 C   0  0  0  0  0  0  0  0  0  0  0  0
    7.7160   -3.3080   22.2770 C   0  0  0  0  0  0  0  0  0  0  0  0
  1  2  1  0
  2  3  2  0
  2  4  1  0
  4  5  1  0
  5  6  1  0
  6  7  1  0
  7  8  1  0
  8  9  2  0
  8 10  1  0
 10 11  1  0
 12 10  1  0
 12 13  1  0
 13 14  1  0
 12 15  1  0
 15 16  1  0
 16 17  1  0
 17 18  1  0
 12 19  1  0
 18 19  1  0
  7 20  1  0
  4 21  1  0
 20 21  1  0
M  END
