piperidine-amides-33611-covalent
     RDKit          3D

 29 31  0  0  0  0  0  0  0  0999 V2000
    7.1430   -3.3210   19.2680 C   0  0  0  0  0  0  0  0  0  0  0  0
    6.3740   -4.0840   20.2540 C   0  0  0  0  0  0  0  0  0  0  0  0
    5.2790   -4.5680   19.8900 O   0  0  0  0  0  0  0  0  0  0  0  0
    6.9010   -4.3130   21.5410 N   0  0  0  0  0  0  0  0  0  0  0  0
    6.4490   -5.4490   22.2530 C   0  0  0  0  0  0  0  0  0  0  0  0
    5.9890   -5.1280   23.5950 C   0  0  0  0  0  0  0  0  0  0  0  0
    6.7220   -4.0180   24.2400 C   0  0  0  0  0  0  0  0  0  0  0  0
    5.9680   -3.5110   25.4220 C   0  0  0  0  0  0  0  0  0  0  0  0
    4.8590   -2.9580   25.2650 O   0  0  0  0  0  0  0  0  0  0  0  0
    6.5290   -3.6850   26.6980 N   0  0  0  0  0  0  0  0  0  0  0  0
    7.4500   -4.7120   26.9710 C   0  0  0  0  0  0  0  0  0  0  0  0
    7.3550   -5.2740   28.2810 C   0  0  2  0  0  0  0  0  0  0  0  0
    6.0500   -6.0770   28.4130 C   0  0  0  0  0  0  0  0  0  0  0  0
    5.3600   -6.5000   27.3010 C   0  0  0  0  0  0  0  0  0  0  0  0
    4.0230   -7.3060   27.4580 C   0  0  0  0  0  0  0  0  0  0  0  0
    3.5000   -7.6140   28.8690 C   0  0  0  0  0  0  0  0  0  0  0  0
    4.3850   -7.0730   29.9920 C   0  0  0  0  0  0  0  0  0  0  0  0
    4.0910   -7.2310   31.4690 C   0  0  0  0  0  0  0  0  0  0  0  0
    3.1580   -8.2240   31.6480 F   0  0  0  0  0  0  0  0  0  0  0  0
    3.5440   -6.0140   31.8840 F   0  0  0  0  0  0  0  0  0  0  0  0
    5.2490   -7.4950   32.1790 F   0  0  0  0  0  0  0  0  0  0  0  0
    5.6180   -6.3330   29.6740 C   0  0  0  0  0  0  0  0  0  0  0  0
    7.0650   -4.4140   29.1360 O   0  0  0  0  0  0  0  0  0  0  0  0
    5.8810   -3.6640   28.9610 C   0  0  0  0  0  0  0  0  0  0  0  0
    6.1720   -2.7880   27.7900 C   0  0  0  0  0  0  0  0  0  0  0  0
    5.0600   -2.0920   27.3190 C   0  0  0  0  0  0  0  0  0  0  0  0
    7.2880   -2.0190   28.0520 C   0  0  0  0  0  0  0  0  0  0  0  0
    6.9850   -2.8770   23.3140 C   0  0  0  0  0  0  0  0  0  0  0  0
    7.7020   -3.3230   22.2170 C   0  0  0  0  0  0  0  0  0  0  0  0
  1  2  1  0
  2  3  2  0
  2  4  1  0
  4  5  1  0
  5  6  1  0
  6  7  1  0
  7  8  1  0
  8  9  2  0
  8 10  1  0
 10 11  1  0
 11 12  1  0
 12 13  1  6
 13 14  2  0
 14 15  1  0
 15 16  2  0
 16 17  1  0
 17 18  1  0
 18 19  1  0
 18 20  1  0
 18 21  1  0
 13 22  1  0
 17 22  2  0
 12 23  1  0
 23 24  1  0
 10 25  1  0
 24 25  1  0
 25 26  1  0
 25 27  1  0
  7 28  1  0
  4 29  1  0
 28 29  1  0
M  END
