piperidine-amides-23839-covalent
     RDKit          3D

 24 25  0  0  0  0  0  0  0  0999 V2000
    7.0900   -3.2830   19.2210 C   0  0  0  0  0  0  0  0  0  0  0  0
    6.3580   -4.0450   20.2480 C   0  0  0  0  0  0  0  0  0  0  0  0
    5.2750   -4.5620   19.8890 O   0  0  0  0  0  0  0  0  0  0  0  0
    6.8670   -4.2440   21.5590 N   0  0  0  0  0  0  0  0  0  0  0  0
    7.5700   -3.1750   22.1890 C   0  0  0  0  0  0  0  0  0  0  0  0
    7.2860   -2.9880   23.6100 C   0  0  0  0  0  0  0  0  0  0  0  0
    6.5000   -4.0620   24.2610 C   0  0  0  0  0  0  0  0  0  0  0  0
    5.7220   -3.5350   25.4420 C   0  0  0  0  0  0  0  0  0  0  0  0
    4.4800   -3.4620   25.3550 O   0  0  0  0  0  0  0  0  0  0  0  0
    6.3320   -3.0910   26.6440 N   0  0  0  0  0  0  0  0  0  0  0  0
    6.7350   -1.7500   26.8710 C   0  0  0  0  0  0  0  0  0  0  0  0
    5.9090   -3.7510   27.8880 C   0  0  0  0  0  0  0  0  0  0  0  0
    6.3110   -5.2120   28.2300 C   0  0  0  0  0  0  0  0  0  0  0  0
    5.4380   -5.9700   28.9820 C   0  0  0  0  0  0  0  0  0  0  0  0
    4.4100   -6.3060   27.9230 C   0  0  0  0  0  0  0  0  0  0  0  0
    3.2240   -7.1780   28.3750 C   0  0  0  0  0  0  0  0  0  0  0  0
    3.0560   -7.7110   29.8660 C   0  0  0  0  0  0  0  0  0  0  0  0
    2.0070   -8.5000   30.3430 O   0  0  0  0  0  0  0  0  0  0  0  0
    0.9260   -8.8650   29.4920 C   0  0  0  0  0  0  0  0  0  0  0  0
    0.0780   -7.6400   29.2100 C   0  0  0  0  0  0  0  0  0  0  0  0
    4.1750   -7.2560   30.6960 C   0  0  0  0  0  0  0  0  0  0  0  0
    5.3060   -6.4440   30.3270 C   0  0  0  0  0  0  0  0  0  0  0  0
    5.6030   -4.8110   23.3240 C   0  0  0  0  0  0  0  0  0  0  0  0
    6.4090   -5.3480   22.3440 C   0  0  0  0  0  0  0  0  0  0  0  0
  1  2  1  0
  2  3  2  0
  2  4  1  0
  4  5  1  0
  5  6  1  0
  6  7  1  0
  7  8  1  0
  8  9  2  0
  8 10  1  0
 10 11  1  0
 10 12  1  0
 12 13  1  0
 13 14  1  0
 14 15  2  0
 15 16  1  0
 16 17  2  0
 17 18  1  0
 18 19  1  0
 19 20  1  0
 17 21  1  0
 14 22  1  0
 21 22  2  0
  7 23  1  0
  4 24  1  0
 23 24  1  0
M  END
