piperidine-amides-30770-covalent
     RDKit          3D

 27 28  0  0  0  0  0  0  0  0999 V2000
    7.1470   -3.2780   19.1630 C   0  0  0  0  0  0  0  0  0  0  0  0
    6.3680   -4.0530   20.1290 C   0  0  0  0  0  0  0  0  0  0  0  0
    5.2300   -4.4370   19.8290 O   0  0  0  0  0  0  0  0  0  0  0  0
    6.9040   -4.4410   21.3590 N   0  0  0  0  0  0  0  0  0  0  0  0
    6.4570   -5.6460   21.9960 C   0  0  0  0  0  0  0  0  0  0  0  0
    5.5550   -5.1560   23.0870 C   0  0  0  0  0  0  0  0  0  0  0  0
    6.2740   -4.2260   24.0180 C   0  0  0  0  0  0  0  0  0  0  0  0
    5.4320   -3.8380   25.1480 C   0  0  0  0  0  0  0  0  0  0  0  0
    4.1690   -3.9120   25.1250 O   0  0  0  0  0  0  0  0  0  0  0  0
    6.0300   -3.3500   26.2830 N   0  0  0  0  0  0  0  0  0  0  0  0
    6.8300   -4.3510   27.0280 C   0  0  0  0  0  0  0  0  0  0  0  0
    8.1890   -4.4530   26.4550 C   0  0  0  0  0  0  0  0  0  0  0  0
    9.1040   -4.1420   27.2240 O   0  0  0  0  0  0  0  0  0  0  0  0
    8.6370   -3.8040   28.4230 C   0  0  0  0  0  0  0  0  0  0  0  0
    7.4690   -2.8580   28.6170 C   0  0  0  0  0  0  0  0  0  0  0  0
    6.4620   -1.9820   26.2980 C   0  0  0  0  0  0  0  0  0  0  0  0
    5.6990   -1.1550   25.3120 C   0  0  0  0  0  0  0  0  0  0  0  0
    4.4860   -0.5820   25.5490 C   0  0  0  0  0  0  0  0  0  0  0  0
    4.0800    0.0790   24.4460 C   0  0  0  0  0  0  0  0  0  0  0  0
    5.1000   -0.0570   23.3790 C   0  0  0  0  0  0  0  0  0  0  0  0
    4.9620    0.5660   21.9770 C   0  0  0  0  0  0  0  0  0  0  0  0
    5.4590    1.8220   21.7100 O   0  0  0  0  0  0  0  0  0  0  0  0
    4.3430   -0.1120   20.9420 O   0  0  0  0  0  0  0  0  0  0  0  0
    4.8460   -0.0170   19.6320 C   0  0  0  0  0  0  0  0  0  0  0  0
    6.0310   -0.8000   23.9710 O   0  0  0  0  0  0  0  0  0  0  0  0
    6.7950   -3.0210   23.2970 C   0  0  0  0  0  0  0  0  0  0  0  0
    7.5470   -3.4130   22.1050 C   0  0  0  0  0  0  0  0  0  0  0  0
  1  2  1  0
  2  3  2  0
  2  4  1  0
  4  5  1  0
  5  6  1  0
  6  7  1  0
  7  8  1  0
  8  9  2  0
  8 10  1  0
 10 11  1  0
 11 12  1  0
 12 13  1  0
 13 14  1  0
 14 15  1  0
 10 16  1  0
 16 17  1  0
 17 18  2  0
 18 19  1  0
 19 20  2  0
 20 21  1  0
 21 22  2  0
 21 23  1  0
 23 24  1  0
 17 25  1  0
 20 25  1  0
  7 26  1  0
  4 27  1  0
 26 27  1  0
M  END
