piperidine-amides-264-covalent
     RDKit          3D

 29 31  0  0  0  0  0  0  0  0999 V2000
    7.1160   -3.2970   19.3930 C   0  0  0  0  0  0  0  0  0  0  0  0
    6.3970   -4.0940   20.3650 C   0  0  0  0  0  0  0  0  0  0  0  0
    5.3980   -4.7780   19.9650 O   0  0  0  0  0  0  0  0  0  0  0  0
    6.7790   -4.1750   21.7240 N   0  0  0  0  0  0  0  0  0  0  0  0
    6.6360   -5.5320   22.3140 C   0  0  0  0  0  0  0  0  0  0  0  0
    6.4170   -5.2630   23.8560 C   0  0  0  0  0  0  0  0  0  0  0  0
    6.2050   -3.7800   24.0200 C   0  0  0  0  0  0  0  0  0  0  0  0
    5.3830   -3.4490   25.3450 C   0  0  0  0  0  0  0  0  0  0  0  0
    4.3260   -4.0530   25.3020 O   0  0  0  0  0  0  0  0  0  0  0  0
    5.9610   -2.6350   26.1430 N   0  0  0  0  0  0  0  0  0  0  0  0
    6.3370   -1.7470   27.1090 C   0  0  0  0  0  0  0  0  0  0  0  0
    6.9850   -1.7400   28.3070 C   0  0  0  0  0  0  0  0  0  0  0  0
    7.1850   -0.5690   29.0850 C   0  0  0  0  0  0  0  0  0  0  0  0
    6.7570    0.8280   28.7850 C   0  0  0  0  0  0  0  0  0  0  0  0
    6.0320    0.8010   27.4260 C   0  0  0  0  0  0  0  0  0  0  0  0
    5.5460    2.0290   26.9310 O   0  0  0  0  0  0  0  0  0  0  0  0
    4.2320    2.1970   26.4510 C   0  0  0  0  0  0  0  0  0  0  0  0
    4.1080    1.7380   25.0670 C   0  0  0  0  0  0  0  0  0  0  0  0
    2.6060    2.0490   24.8390 C   0  0  0  0  0  0  0  0  0  0  0  0
    1.5290    2.6530   25.7530 C   0  0  0  0  0  0  0  0  0  0  0  0
    1.7890    3.0210   26.9810 C   0  0  0  0  0  0  0  0  0  0  0  0
    0.9660    3.5740   27.9350 C   0  0  0  0  0  0  0  0  0  0  0  0
    0.4880    4.8250   27.7390 F   0  0  0  0  0  0  0  0  0  0  0  0
   -0.1410    2.7880   28.1950 F   0  0  0  0  0  0  0  0  0  0  0  0
    1.6810    3.5280   29.1300 F   0  0  0  0  0  0  0  0  0  0  0  0
    3.1890    2.7910   27.3630 C   0  0  0  0  0  0  0  0  0  0  0  0
    5.8610   -0.3810   26.7010 C   0  0  0  0  0  0  0  0  0  0  0  0
    7.3240   -2.8890   23.6700 C   0  0  0  0  0  0  0  0  0  0  0  0
    7.7170   -3.1880   22.2570 C   0  0  0  0  0  0  0  0  0  0  0  0
  1  2  1  0
  2  3  2  0
  2  4  1  0
  4  5  1  0
  5  6  1  0
  6  7  1  0
  7  8  1  0
  8  9  2  0
  8 10  1  0
 10 11  1  0
 11 12  2  0
 12 13  1  0
 13 14  2  0
 14 15  1  0
 15 16  1  0
 16 17  1  0
 17 18  2  0
 18 19  1  0
 19 20  2  0
 20 21  1  0
 21 22  1  0
 22 23  1  0
 22 24  1  0
 22 25  1  0
 17 26  1  0
 21 26  2  0
 11 27  1  0
 15 27  2  0
  7 28  1  0
  4 29  1  0
 28 29  1  0
M  END
