piperidine-amides-12071-covalent
     RDKit          3D

 25 26  0  0  0  0  0  0  0  0999 V2000
    7.1570   -3.2470   19.1090 C   0  0  0  0  0  0  0  0  0  0  0  0
    6.3760   -3.9450   20.1210 C   0  0  0  0  0  0  0  0  0  0  0  0
    5.2820   -4.4230   19.8370 O   0  0  0  0  0  0  0  0  0  0  0  0
    6.9160   -4.1350   21.4350 N   0  0  0  0  0  0  0  0  0  0  0  0
    6.4830   -5.2630   22.2030 C   0  0  0  0  0  0  0  0  0  0  0  0
    5.6510   -4.7530   23.3290 C   0  0  0  0  0  0  0  0  0  0  0  0
    6.5300   -3.8160   24.1270 C   0  0  0  0  0  0  0  0  0  0  0  0
    5.7760   -3.2740   25.2790 C   0  0  0  0  0  0  0  0  0  0  0  0
    4.6000   -2.8750   25.1990 O   0  0  0  0  0  0  0  0  0  0  0  0
    6.4480   -3.2030   26.5060 N   0  0  0  0  0  0  0  0  0  0  0  0
    5.8470   -3.7960   27.6700 C   0  0  0  0  0  0  0  0  0  0  0  0
    5.6140   -5.2880   27.4820 C   0  0  2  0  0  0  0  0  0  0  0  0
    4.7040   -5.7210   26.5330 C   0  0  0  0  0  0  0  0  0  0  0  0
    3.3010   -5.7500   26.8310 C   0  0  0  0  0  0  0  0  0  0  0  0
    2.3800   -6.1960   25.8930 C   0  0  0  0  0  0  0  0  0  0  0  0
    2.8800   -6.6240   24.6270 C   0  0  0  0  0  0  0  0  0  0  0  0
    4.1860   -6.6000   24.3360 C   0  0  0  0  0  0  0  0  0  0  0  0
    5.0990   -6.1540   25.2650 C   0  0  0  0  0  0  0  0  0  0  0  0
    5.3950   -5.9420   28.6690 C   0  0  0  0  0  0  0  0  0  0  0  0
    4.7150   -5.0020   29.5630 C   0  0  0  0  0  0  0  0  0  0  0  0
    6.7160   -6.2030   29.3270 C   0  0  0  0  0  0  0  0  0  0  0  0
    4.6740   -7.2770   28.6080 C   0  0  0  0  0  0  0  0  0  0  0  0
    3.6700   -7.2120   29.3700 O   0  0  0  0  0  0  0  0  0  0  0  0
    6.9720   -2.6500   23.2840 C   0  0  0  0  0  0  0  0  0  0  0  0
    7.7570   -3.1460   22.0690 C   0  0  0  0  0  0  0  0  0  0  0  0
  1  2  1  0
  2  3  2  0
  2  4  1  0
  4  5  1  0
  5  6  1  0
  6  7  1  0
  7  8  1  0
  8  9  2  0
  8 10  1  0
 10 11  1  0
 12 11  1  1
 12 13  1  0
 13 14  2  0
 14 15  1  0
 15 16  2  0
 16 17  1  0
 13 18  1  0
 17 18  2  0
 12 19  1  0
 19 20  1  0
 19 21  1  0
 19 22  1  0
 22 23  1  0
  7 24  1  0
  4 25  1  0
 24 25  1  0
M  END
