piperidine-amides-29312-covalent
     RDKit          3D

 26 28  0  0  0  0  0  0  0  0999 V2000
    7.2360   -4.0870   19.7690 C   0  0  0  0  0  0  0  0  0  0  0  0
    6.0650   -4.1060   20.4970 C   0  0  0  0  0  0  0  0  0  0  0  0
    5.0480   -4.2350   19.7920 O   0  0  0  0  0  0  0  0  0  0  0  0
    6.1930   -4.0970   21.9010 N   0  0  0  0  0  0  0  0  0  0  0  0
    6.0340   -5.3970   22.5280 C   0  0  0  0  0  0  0  0  0  0  0  0
    5.8320   -5.2500   24.0180 C   0  0  0  0  0  0  0  0  0  0  0  0
    5.7410   -3.7680   24.2420 C   0  0  0  0  0  0  0  0  0  0  0  0
    5.0870   -3.3080   25.5310 C   0  0  0  0  0  0  0  0  0  0  0  0
    4.2750   -2.4180   25.3310 O   0  0  0  0  0  0  0  0  0  0  0  0
    5.3250   -3.7920   26.8350 N   0  0  0  0  0  0  0  0  0  0  0  0
    4.7700   -3.0910   27.9600 C   0  0  0  0  0  0  0  0  0  0  0  0
    4.9880   -3.9440   29.0380 C   0  0  0  0  0  0  0  0  0  0  0  0
    5.8190   -4.8500   28.4980 C   0  0  2  0  0  0  0  0  0  0  0  0
    6.9230   -4.3060   28.1410 C   0  0  0  0  0  0  0  0  0  0  0  0
    7.1600   -2.9140   28.6080 C   0  0  0  0  0  0  0  0  0  0  0  0
    8.4440   -2.2800   28.0770 C   0  0  0  0  0  0  0  0  0  0  0  0
    9.2200   -3.1740   27.1840 C   0  0  0  0  0  0  0  0  0  0  0  0
    8.7730   -4.5410   26.8880 C   0  0  0  0  0  0  0  0  0  0  0  0
    9.4640   -5.5280   26.0100 C   0  0  0  0  0  0  0  0  0  0  0  0
   10.7090   -5.2970   25.5680 F   0  0  0  0  0  0  0  0  0  0  0  0
    8.6200   -5.6600   24.9130 F   0  0  0  0  0  0  0  0  0  0  0  0
    9.5170   -6.6570   26.7070 F   0  0  0  0  0  0  0  0  0  0  0  0
    7.6970   -5.0280   27.3580 C   0  0  0  0  0  0  0  0  0  0  0  0
    5.4430   -5.1900   27.2170 C   0  0  0  0  0  0  0  0  0  0  0  0
    7.0210   -3.0770   23.9260 C   0  0  0  0  0  0  0  0  0  0  0  0
    7.2340   -3.2530   22.4530 C   0  0  0  0  0  0  0  0  0  0  0  0
  1  2  1  0
  2  3  2  0
  2  4  1  0
  4  5  1  0
  5  6  1  0
  6  7  1  0
  7  8  1  0
  8  9  2  0
  8 10  1  0
 10 11  1  0
 11 12  1  0
 12 13  1  0
 13 14  1  6
 14 15  2  0
 15 16  1  0
 16 17  2  0
 17 18  1  0
 18 19  1  0
 19 20  1  0
 19 21  1  0
 19 22  1  0
 14 23  1  0
 18 23  2  0
 10 24  1  0
 13 24  1  0
  7 25  1  0
  4 26  1  0
 25 26  1  0
M  END
