piperidine-amides-12525-covalent
     RDKit          3D

 23 25  0  0  0  0  0  0  0  0999 V2000
    7.1170   -3.2630   19.1250 C   0  0  0  0  0  0  0  0  0  0  0  0
    6.3530   -3.9730   20.1740 C   0  0  0  0  0  0  0  0  0  0  0  0
    5.2530   -4.4600   19.8400 O   0  0  0  0  0  0  0  0  0  0  0  0
    6.8710   -4.1280   21.4540 N   0  0  0  0  0  0  0  0  0  0  0  0
    7.5590   -3.0430   22.0750 C   0  0  0  0  0  0  0  0  0  0  0  0
    7.0180   -2.6670   23.3780 C   0  0  0  0  0  0  0  0  0  0  0  0
    6.5820   -3.8110   24.1960 C   0  0  0  0  0  0  0  0  0  0  0  0
    5.7800   -3.3420   25.3540 C   0  0  0  0  0  0  0  0  0  0  0  0
    5.0100   -2.3800   25.1800 O   0  0  0  0  0  0  0  0  0  0  0  0
    5.8700   -3.9580   26.6160 N   0  0  0  0  0  0  0  0  0  0  0  0
    4.8590   -4.9440   27.0860 C   0  0  0  0  0  0  0  0  0  0  0  0
    3.8760   -5.3110   26.0050 C   0  0  0  0  0  0  0  0  0  0  0  0
    3.9650   -6.4930   25.1590 C   0  0  0  0  0  0  0  0  0  0  0  0
    3.0100   -6.7070   24.2090 C   0  0  0  0  0  0  0  0  0  0  0  0
    1.9590   -5.8260   24.0330 C   0  0  0  0  0  0  0  0  0  0  0  0
    1.8310   -4.7000   24.8060 C   0  0  0  0  0  0  0  0  0  0  0  0
    2.7110   -4.3450   25.8030 C   0  0  0  0  0  0  0  0  0  0  0  0
    2.4460   -2.7470   26.8310 Br  0  0  0  0  0  0  0  0  0  0  0  0
    4.4720   -5.0330   28.4950 C   0  0  0  0  0  0  0  0  0  0  0  0
    5.1180   -6.2100   28.8200 C   0  0  0  0  0  0  0  0  0  0  0  0
    5.5530   -6.2750   27.4680 C   0  0  0  0  0  0  0  0  0  0  0  0
    5.8340   -4.8690   23.4610 C   0  0  0  0  0  0  0  0  0  0  0  0
    6.5810   -5.3010   22.2360 C   0  0  0  0  0  0  0  0  0  0  0  0
  1  2  1  0
  2  3  2  0
  2  4  1  0
  4  5  1  0
  5  6  1  0
  6  7  1  0
  7  8  1  0
  8  9  2  0
  8 10  1  0
 11 10  1  0
 11 12  1  0
 12 13  2  0
 13 14  1  0
 14 15  2  0
 15 16  1  0
 12 17  1  0
 16 17  2  0
 17 18  1  0
 11 19  1  0
 19 20  1  0
 11 21  1  0
 20 21  1  0
  7 22  1  0
  4 23  1  0
 22 23  1  0
M  END
