piperidine-amides-1893-covalent
     RDKit          3D

 17 17  0  0  0  0  0  0  0  0999 V2000
    7.1090   -3.3110   19.2860 C   0  0  0  0  0  0  0  0  0  0  0  0
    6.3280   -4.0680   20.2960 C   0  0  0  0  0  0  0  0  0  0  0  0
    5.2870   -4.5920   19.9060 O   0  0  0  0  0  0  0  0  0  0  0  0
    6.8030   -4.2040   21.6070 N   0  0  0  0  0  0  0  0  0  0  0  0
    6.5820   -5.4210   22.3440 C   0  0  0  0  0  0  0  0  0  0  0  0
    6.0290   -5.0880   23.7010 C   0  0  0  0  0  0  0  0  0  0  0  0
    6.1040   -3.5780   23.9340 C   0  0  0  0  0  0  0  0  0  0  0  0
    5.6290   -3.2960   25.3030 C   0  0  0  0  0  0  0  0  0  0  0  0
    4.4140   -3.1820   25.5090 O   0  0  0  0  0  0  0  0  0  0  0  0
    6.5300   -3.1450   26.3680 N   0  0  0  0  0  0  0  0  0  0  0  0
    6.2020   -3.6980   27.6670 C   0  0  0  0  0  0  0  0  0  0  0  0
    5.9350   -5.1890   27.5380 C   0  0  0  0  0  0  0  0  0  0  0  0
    6.2480   -6.0750   28.5290 C   0  0  0  0  0  0  0  0  0  0  0  0
    5.3170   -7.0260   28.7810 C   0  0  0  0  0  0  0  0  0  0  0  0
    3.9570   -6.6710   29.1040 N   0  0  0  0  0  0  0  0  0  0  0  0
    7.5300   -3.1100   23.6270 C   0  0  0  0  0  0  0  0  0  0  0  0
    7.6160   -3.1080   22.1170 C   0  0  0  0  0  0  0  0  0  0  0  0
  1  2  1  0
  2  3  2  0
  2  4  1  0
  4  5  1  0
  5  6  1  0
  6  7  1  0
  7  8  1  0
  8  9  2  0
  8 10  1  0
 10 11  1  0
 11 12  1  0
 12 13  1  0
 13 14  1  0
 14 15  3  0
  7 16  1  0
  4 17  1  0
 16 17  1  0
M  END
