piperidine-amides-3336-covalent
     RDKit          3D

 22 23  0  0  0  0  0  0  0  0999 V2000
    7.0600   -3.3420   19.2870 C   0  0  0  0  0  0  0  0  0  0  0  0
    6.3750   -4.1620   20.2810 C   0  0  0  0  0  0  0  0  0  0  0  0
    5.3510   -4.7670   19.9630 O   0  0  0  0  0  0  0  0  0  0  0  0
    6.9190   -4.3180   21.6040 N   0  0  0  0  0  0  0  0  0  0  0  0
    7.6010   -3.2220   22.2320 C   0  0  0  0  0  0  0  0  0  0  0  0
    6.7320   -2.6930   23.3310 C   0  0  0  0  0  0  0  0  0  0  0  0
    6.2790   -3.8660   24.1930 C   0  0  0  0  0  0  0  0  0  0  0  0
    5.2690   -3.3900   25.1910 C   0  0  0  0  0  0  0  0  0  0  0  0
    4.0890   -3.1820   24.8570 O   0  0  0  0  0  0  0  0  0  0  0  0
    5.5970   -3.1520   26.5480 N   0  0  0  0  0  0  0  0  0  0  0  0
    6.6430   -3.8870   27.1920 C   0  0  1  0  0  0  0  0  0  0  0  0
    6.3760   -5.3730   27.1750 C   0  0  0  0  0  0  0  0  0  0  0  0
    7.8630   -3.6220   26.4540 C   0  0  0  0  0  0  0  0  0  0  0  0
    7.9680   -2.4490   25.6330 C   0  0  0  0  0  0  0  0  0  0  0  0
    9.1000   -2.0740   24.8790 C   0  0  0  0  0  0  0  0  0  0  0  0
   10.2940   -2.8830   24.8840 C   0  0  0  0  0  0  0  0  0  0  0  0
   11.4860   -2.6760   24.2300 C   0  0  0  0  0  0  0  0  0  0  0  0
   10.0360   -3.9030   25.6630 C   0  0  0  0  0  0  0  0  0  0  0  0
   10.4960   -5.0500   26.2060 C   0  0  0  0  0  0  0  0  0  0  0  0
    8.9640   -4.3640   26.4420 C   0  0  0  0  0  0  0  0  0  0  0  0
    5.6620   -4.9960   23.3720 C   0  0  0  0  0  0  0  0  0  0  0  0
    6.5780   -5.4450   22.4180 C   0  0  0  0  0  0  0  0  0  0  0  0
  1  2  1  0
  2  3  2  0
  2  4  1  0
  4  5  1  0
  5  6  1  0
  6  7  1  0
  7  8  1  0
  8  9  2  0
  8 10  1  0
 10 11  1  0
 11 12  1  6
 11 13  1  0
 13 14  2  0
 14 15  1  0
 15 16  2  0
 16 17  1  0
 16 18  1  0
 18 19  1  0
 13 20  1  0
 18 20  2  0
  7 21  1  0
  4 22  1  0
 21 22  1  0
M  END
