piperidine-amides-3255-covalent
     RDKit          3D

 22 23  0  0  0  0  0  0  0  0999 V2000
    7.0710   -3.2530   19.2550 C   0  0  0  0  0  0  0  0  0  0  0  0
    6.2810   -4.0190   20.2130 C   0  0  0  0  0  0  0  0  0  0  0  0
    5.2310   -4.5510   19.8680 O   0  0  0  0  0  0  0  0  0  0  0  0
    6.7380   -4.2110   21.5570 N   0  0  0  0  0  0  0  0  0  0  0  0
    7.4960   -3.1780   22.2080 C   0  0  0  0  0  0  0  0  0  0  0  0
    6.9850   -2.9880   23.6040 C   0  0  0  0  0  0  0  0  0  0  0  0
    5.7510   -3.8540   23.7710 C   0  0  0  0  0  0  0  0  0  0  0  0
    5.0940   -3.6880   25.1070 C   0  0  0  0  0  0  0  0  0  0  0  0
    3.9000   -3.9820   25.2790 O   0  0  0  0  0  0  0  0  0  0  0  0
    5.7880   -3.1460   26.2190 N   0  0  0  0  0  0  0  0  0  0  0  0
    6.4570   -3.9690   27.2100 C   0  0  1  0  0  0  0  0  0  0  0  0
    6.0800   -5.4300   27.1390 C   0  0  0  0  0  0  0  0  0  0  0  0
    7.1820   -6.2560   27.2160 O   0  0  0  0  0  0  0  0  0  0  0  0
    4.8430   -6.0220   27.0460 O   0  0  0  0  0  0  0  0  0  0  0  0
    4.4340   -7.1160   27.8210 C   0  0  0  0  0  0  0  0  0  0  0  0
    7.8720   -3.8140   26.9930 C   0  0  2  0  0  0  0  0  0  0  0  0
    8.1100   -2.4810   26.7100 C   0  0  0  0  0  0  0  0  0  0  0  0
    8.7980   -2.3760   25.4370 C   0  0  0  0  0  0  0  0  0  0  0  0
    9.0650   -3.6440   25.2410 O   0  0  0  0  0  0  0  0  0  0  0  0
    8.5240   -4.6130   26.0940 C   0  0  0  0  0  0  0  0  0  0  0  0
    6.1810   -5.3020   23.5540 C   0  0  0  0  0  0  0  0  0  0  0  0
    6.3690   -5.4730   22.1790 C   0  0  0  0  0  0  0  0  0  0  0  0
  1  2  1  0
  2  3  2  0
  2  4  1  0
  4  5  1  0
  5  6  1  0
  6  7  1  0
  7  8  1  0
  8  9  2  0
  8 10  1  0
 11 10  1  6
 11 12  1  0
 12 13  2  0
 12 14  1  0
 14 15  1  0
 11 16  1  0
 16 17  1  6
 17 18  1  0
 18 19  1  0
 16 20  1  0
 19 20  1  0
  7 21  1  0
  4 22  1  0
 21 22  1  0
M  END
