piperidine-amides-30191-covalent
     RDKit          3D

 27 29  0  0  0  0  0  0  0  0999 V2000
    7.0820   -3.3560   19.2950 C   0  0  0  0  0  0  0  0  0  0  0  0
    6.3890   -4.1800   20.2750 C   0  0  0  0  0  0  0  0  0  0  0  0
    5.3600   -4.7800   19.9670 O   0  0  0  0  0  0  0  0  0  0  0  0
    6.9470   -4.3440   21.5840 N   0  0  0  0  0  0  0  0  0  0  0  0
    7.7250   -3.2800   22.1620 C   0  0  0  0  0  0  0  0  0  0  0  0
    6.9500   -2.6710   23.2770 C   0  0  0  0  0  0  0  0  0  0  0  0
    6.6720   -3.7860   24.2500 C   0  0  0  0  0  0  0  0  0  0  0  0
    5.8640   -3.2280   25.3670 C   0  0  0  0  0  0  0  0  0  0  0  0
    5.1380   -2.2350   25.1980 O   0  0  0  0  0  0  0  0  0  0  0  0
    5.8480   -3.8140   26.6500 N   0  0  0  0  0  0  0  0  0  0  0  0
    4.5240   -4.2410   26.9610 C   0  0  0  0  0  0  0  0  0  0  0  0
    4.6640   -5.0810   28.1750 C   0  0  0  0  0  0  0  0  0  0  0  0
    5.8640   -5.3660   28.6270 N   0  0  0  0  0  0  0  0  0  0  0  0
    5.7070   -6.0240   29.7890 C   0  0  0  0  0  0  0  0  0  0  0  0
    6.5600   -6.7240   30.3420 O   0  0  0  0  0  0  0  0  0  0  0  0
    4.5260   -6.0250   30.5480 C   0  0  0  0  0  0  0  0  0  0  0  0
    4.6640   -6.6080   31.7990 C   0  0  0  0  0  0  0  0  0  0  0  0
    3.9730   -6.1370   32.9830 C   0  0  0  0  0  0  0  0  0  0  0  0
    4.0790   -6.6830   34.2270 C   0  0  0  0  0  0  0  0  0  0  0  0
    4.8850   -7.7710   34.4650 C   0  0  0  0  0  0  0  0  0  0  0  0
    4.9200   -8.2420   35.7400 F   0  0  0  0  0  0  0  0  0  0  0  0
    5.5900   -8.2900   33.3740 C   0  0  0  0  0  0  0  0  0  0  0  0
    5.4860   -7.7060   32.0170 C   0  0  0  0  0  0  0  0  0  0  0  0
    6.6670   -4.2270   28.7980 C   0  0  0  0  0  0  0  0  0  0  0  0
    6.3870   -3.2150   27.8500 C   0  0  0  0  0  0  0  0  0  0  0  0
    5.8880   -4.9220   23.6180 C   0  0  0  0  0  0  0  0  0  0  0  0
    6.6350   -5.4820   22.3980 C   0  0  0  0  0  0  0  0  0  0  0  0
  1  2  1  0
  2  3  2  0
  2  4  1  0
  4  5  1  0
  5  6  1  0
  6  7  1  0
  7  8  1  0
  8  9  2  0
  8 10  1  0
 10 11  1  0
 11 12  1  0
 12 13  1  0
 13 14  1  0
 14 15  2  0
 14 16  1  0
 16 17  1  0
 17 18  2  0
 18 19  1  0
 19 20  2  0
 20 21  1  0
 20 22  1  0
 17 23  1  0
 22 23  2  0
 13 24  1  0
 10 25  1  0
 24 25  1  0
  7 26  1  0
  4 27  1  0
 26 27  1  0
M  END
