piperidine-amides-24017-covalent
     RDKit          3D

 24 26  0  0  0  0  0  0  0  0999 V2000
    7.0950   -3.3940   19.4220 C   0  0  0  0  0  0  0  0  0  0  0  0
    6.4130   -4.2530   20.4000 C   0  0  0  0  0  0  0  0  0  0  0  0
    5.3800   -4.8410   19.9910 O   0  0  0  0  0  0  0  0  0  0  0  0
    6.9450   -4.4530   21.7100 N   0  0  0  0  0  0  0  0  0  0  0  0
    6.4410   -5.5070   22.5060 C   0  0  0  0  0  0  0  0  0  0  0  0
    5.8640   -5.0910   23.7950 C   0  0  0  0  0  0  0  0  0  0  0  0
    6.2690   -3.7800   24.3870 C   0  0  0  0  0  0  0  0  0  0  0  0
    5.2150   -3.2660   25.3630 C   0  0  0  0  0  0  0  0  0  0  0  0
    4.1500   -2.8580   24.8860 O   0  0  0  0  0  0  0  0  0  0  0  0
    5.3660   -3.2320   26.7890 N   0  0  0  0  0  0  0  0  0  0  0  0
    6.5120   -3.4850   27.4330 C   0  0  0  0  0  0  0  0  0  0  0  0
    6.5410   -4.7590   28.1720 C   0  0  0  0  0  0  0  0  0  0  0  0
    5.4600   -5.3580   28.7110 N   0  0  0  0  0  0  0  0  0  0  0  0
    5.4550   -6.1940   29.8840 C   0  0  0  0  0  0  0  0  0  0  0  0
    4.8150   -4.0830   28.9160 C   0  0  2  0  0  0  0  0  0  0  0  0
    3.7790   -4.3060   30.0210 C   0  0  0  0  0  0  0  0  0  0  0  0
    2.9470   -5.5550   30.1860 N   0  0  0  0  0  0  0  0  0  0  0  0
    2.0640   -5.5620   31.2520 C   0  0  0  0  0  0  0  0  0  0  0  0
    2.5500   -4.2230   31.5640 C   0  0  0  0  0  0  0  0  0  0  0  0
    3.4170   -3.4450   31.0350 N   0  0  0  0  0  0  0  0  0  0  0  0
    3.9040   -2.1180   31.3320 C   0  0  0  0  0  0  0  0  0  0  0  0
    4.3580   -3.5730   27.7060 C   0  0  0  0  0  0  0  0  0  0  0  0
    6.5770   -2.7210   23.3070 C   0  0  0  0  0  0  0  0  0  0  0  0
    7.5780   -3.3010   22.3670 C   0  0  0  0  0  0  0  0  0  0  0  0
  1  2  1  0
  2  3  2  0
  2  4  1  0
  4  5  1  0
  5  6  1  0
  6  7  1  0
  7  8  1  0
  8  9  2  0
  8 10  1  0
 10 11  1  0
 11 12  1  0
 12 13  1  0
 13 14  1  0
 13 15  1  0
 15 16  1  1
 16 17  2  0
 17 18  1  0
 18 19  2  0
 16 20  1  0
 19 20  1  0
 20 21  1  0
 10 22  1  0
 15 22  1  0
  7 23  1  0
  4 24  1  0
 23 24  1  0
M  END
