piperidine-amides-17043-covalent
     RDKit          3D

 20 21  0  0  0  0  0  0  0  0999 V2000
    7.1200   -3.3790   19.3850 C   0  0  0  0  0  0  0  0  0  0  0  0
    6.4050   -4.2120   20.3570 C   0  0  0  0  0  0  0  0  0  0  0  0
    5.3440   -4.7510   19.9630 O   0  0  0  0  0  0  0  0  0  0  0  0
    6.9450   -4.4390   21.6520 N   0  0  0  0  0  0  0  0  0  0  0  0
    6.4140   -5.5050   22.4140 C   0  0  0  0  0  0  0  0  0  0  0  0
    5.7560   -5.0880   23.6570 C   0  0  0  0  0  0  0  0  0  0  0  0
    6.2620   -3.8670   24.3330 C   0  0  0  0  0  0  0  0  0  0  0  0
    5.2410   -3.3760   25.3360 C   0  0  0  0  0  0  0  0  0  0  0  0
    4.2520   -2.7770   24.8940 O   0  0  0  0  0  0  0  0  0  0  0  0
    5.3420   -3.5500   26.7450 N   0  0  0  0  0  0  0  0  0  0  0  0
    4.2950   -3.4750   27.6720 C   0  0  0  0  0  0  0  0  0  0  0  0
    3.5630   -4.6800   28.0140 C   0  0  0  0  0  0  0  0  0  0  0  0
    4.1670   -5.3130   29.2580 C   0  0  0  0  0  0  0  0  0  0  0  0
    5.3060   -6.0130   28.6900 N   0  0  0  0  0  0  0  0  0  0  0  0
    5.7260   -7.0910   29.5290 C   0  0  0  0  0  0  0  0  0  0  0  0
    6.2440   -5.3220   27.8950 C   0  0  0  0  0  0  0  0  0  0  0  0
    6.7500   -4.0880   28.5710 C   0  0  0  0  0  0  0  0  0  0  0  0
    6.5350   -3.1590   27.3260 C   0  0  0  0  0  0  0  0  0  0  0  0
    6.7210   -2.7570   23.4080 C   0  0  0  0  0  0  0  0  0  0  0  0
    7.6250   -3.3830   22.3620 C   0  0  0  0  0  0  0  0  0  0  0  0
  1  2  1  0
  2  3  2  0
  2  4  1  0
  4  5  1  0
  5  6  1  0
  6  7  1  0
  7  8  1  0
  8  9  2  0
  8 10  1  0
 10 11  1  0
 11 12  1  0
 12 13  1  0
 13 14  1  0
 14 15  1  0
 14 16  1  0
 16 17  1  0
 10 18  1  0
 17 18  1  0
  7 19  1  0
  4 20  1  0
 19 20  1  0
M  END
