piperidine-amides-21511-covalent
     RDKit          3D

 23 25  0  0  0  0  0  0  0  0999 V2000
    7.0620   -3.3680   19.3870 C   0  0  0  0  0  0  0  0  0  0  0  0
    6.3580   -4.1880   20.3750 C   0  0  0  0  0  0  0  0  0  0  0  0
    5.3370   -4.7980   19.9660 O   0  0  0  0  0  0  0  0  0  0  0  0
    6.8420   -4.3100   21.6850 N   0  0  0  0  0  0  0  0  0  0  0  0
    6.5800   -5.4920   22.4670 C   0  0  0  0  0  0  0  0  0  0  0  0
    6.1840   -5.0390   23.8510 C   0  0  0  0  0  0  0  0  0  0  0  0
    5.8730   -3.5590   23.8950 C   0  0  0  0  0  0  0  0  0  0  0  0
    5.5360   -3.0730   25.2740 C   0  0  0  0  0  0  0  0  0  0  0  0
    4.4120   -2.5600   25.4340 O   0  0  0  0  0  0  0  0  0  0  0  0
    6.3770   -3.1770   26.4040 N   0  0  0  0  0  0  0  0  0  0  0  0
    5.8160   -3.1600   27.7240 C   0  0  0  0  0  0  0  0  0  0  0  0
    5.2900   -4.5330   28.0710 C   0  0  1  0  0  0  0  0  0  0  0  0
    4.9690   -5.4860   27.1260 C   0  0  0  0  0  0  0  0  0  0  0  0
    6.3870   -5.1500   28.8380 C   0  0  0  0  0  0  0  0  0  0  0  0
    7.3230   -5.0830   27.8280 C   0  0  0  0  0  0  0  0  0  0  0  0
    8.3390   -5.9620   27.8590 C   0  0  0  0  0  0  0  0  0  0  0  0
    9.3420   -6.0410   26.9710 C   0  0  0  0  0  0  0  0  0  0  0  0
    9.5120   -5.1590   25.8110 C   0  0  0  0  0  0  0  0  0  0  0  0
    8.4010   -4.1730   25.7210 C   0  0  0  0  0  0  0  0  0  0  0  0
    8.4420   -3.3000   24.6710 F   0  0  0  0  0  0  0  0  0  0  0  0
    7.3210   -4.1880   26.7590 C   0  0  0  0  0  0  0  0  0  0  0  0
    6.9840   -2.7080   23.3260 C   0  0  0  0  0  0  0  0  0  0  0  0
    7.7120   -3.3120   22.3180 C   0  0  0  0  0  0  0  0  0  0  0  0
  1  2  1  0
  2  3  2  0
  2  4  1  0
  4  5  1  0
  5  6  1  0
  6  7  1  0
  7  8  1  0
  8  9  2  0
  8 10  1  0
 10 11  1  0
 11 12  1  0
 12 13  1  6
 12 14  1  0
 14 15  1  0
 15 16  2  0
 16 17  1  0
 17 18  2  0
 18 19  1  0
 19 20  1  0
 10 21  1  0
 15 21  1  0
 19 21  2  0
  7 22  1  0
  4 23  1  0
 22 23  1  0
M  END
