piperidine-amides-10444-covalent
     RDKit          3D

 24 26  0  0  0  0  0  0  0  0999 V2000
    7.1360   -3.2660   19.2490 C   0  0  0  0  0  0  0  0  0  0  0  0
    6.4020   -4.0420   20.2530 C   0  0  0  0  0  0  0  0  0  0  0  0
    5.3050   -4.5390   19.8890 O   0  0  0  0  0  0  0  0  0  0  0  0
    6.9430   -4.2540   21.5250 N   0  0  0  0  0  0  0  0  0  0  0  0
    6.4960   -5.3450   22.3430 C   0  0  0  0  0  0  0  0  0  0  0  0
    5.6510   -4.7620   23.4430 C   0  0  0  0  0  0  0  0  0  0  0  0
    6.2460   -3.5100   24.0640 C   0  0  0  0  0  0  0  0  0  0  0  0
    5.1580   -2.7250   24.7130 C   0  0  0  0  0  0  0  0  0  0  0  0
    4.1080   -3.3310   25.0310 O   0  0  0  0  0  0  0  0  0  0  0  0
    5.2290   -1.3310   24.9870 N   0  0  0  0  0  0  0  0  0  0  0  0
    5.4050   -0.8410   26.3330 C   0  0  0  0  0  0  0  0  0  0  0  0
    6.3340   -1.7790   26.9640 C   0  0  0  0  0  0  0  0  0  0  0  0
    6.2660   -3.0840   26.6490 C   0  0  0  0  0  0  0  0  0  0  0  0
    7.0920   -3.9680   27.1590 C   0  0  0  0  0  0  0  0  0  0  0  0
    8.0300   -3.5630   28.0230 C   0  0  0  0  0  0  0  0  0  0  0  0
    8.1380   -2.2820   28.3870 N   0  0  0  0  0  0  0  0  0  0  0  0
    7.3150   -1.3680   27.8850 C   0  0  0  0  0  0  0  0  0  0  0  0
    7.3970   -0.0040   28.2400 O   0  0  0  0  0  0  0  0  0  0  0  0
    8.8330   -4.4880   28.4790 C   0  0  0  0  0  0  0  0  0  0  0  0
    9.5350   -5.3050   27.4670 C   0  0  0  0  0  0  0  0  0  0  0  0
    8.4000   -5.8890   26.6710 C   0  0  0  0  0  0  0  0  0  0  0  0
    7.0370   -5.2860   26.8290 C   0  0  0  0  0  0  0  0  0  0  0  0
    6.8960   -2.5910   23.0630 C   0  0  0  0  0  0  0  0  0  0  0  0
    7.7460   -3.2500   22.2130 C   0  0  0  0  0  0  0  0  0  0  0  0
  1  2  1  0
  2  3  2  0
  2  4  1  0
  4  5  1  0
  5  6  1  0
  6  7  1  0
  7  8  1  0
  8  9  2  0
  8 10  1  0
 10 11  1  0
 11 12  1  0
 12 13  2  0
 13 14  1  0
 14 15  2  0
 15 16  1  0
 12 17  1  0
 16 17  2  0
 17 18  1  0
 15 19  1  0
 19 20  1  0
 20 21  1  0
 14 22  1  0
 21 22  1  0
  7 23  1  0
  4 24  1  0
 23 24  1  0
M  END
