piperidine-amides-25814-covalent
     RDKit          3D

 23 24  0  0  0  0  0  0  0  0999 V2000
    7.1170   -3.3310   19.3060 C   0  0  0  0  0  0  0  0  0  0  0  0
    6.3700   -4.1370   20.3000 C   0  0  0  0  0  0  0  0  0  0  0  0
    5.3240   -4.6650   19.9270 O   0  0  0  0  0  0  0  0  0  0  0  0
    6.8980   -4.3100   21.5780 N   0  0  0  0  0  0  0  0  0  0  0  0
    6.6160   -5.4760   22.3690 C   0  0  0  0  0  0  0  0  0  0  0  0
    5.8640   -5.0560   23.6020 C   0  0  0  0  0  0  0  0  0  0  0  0
    6.5510   -3.8450   24.2510 C   0  0  0  0  0  0  0  0  0  0  0  0
    5.6490   -3.3490   25.3120 C   0  0  0  0  0  0  0  0  0  0  0  0
    4.6240   -2.7480   24.9760 O   0  0  0  0  0  0  0  0  0  0  0  0
    5.9150   -3.5380   26.6810 N   0  0  0  0  0  0  0  0  0  0  0  0
    5.8880   -2.4480   27.6170 C   0  0  0  0  0  0  0  0  0  0  0  0
    5.0530   -2.9170   28.7750 C   0  0  0  0  0  0  0  0  0  0  0  0
    3.7940   -4.0420   28.6580 S   0  0  0  0  0  0  0  0  0  0  0  0
    2.7030   -3.5790   27.7530 O   0  0  0  0  0  0  0  0  0  0  0  0
    3.2950   -4.2690   30.0550 O   0  0  0  0  0  0  0  0  0  0  0  0
    4.9250   -5.3090   27.9910 C   0  0  0  0  0  0  0  0  0  0  0  0
    4.2080   -6.3720   27.5430 C   0  0  0  0  0  0  0  0  0  0  0  0
    3.9460   -7.2240   28.5840 C   0  0  0  0  0  0  0  0  0  0  0  0
    5.6900   -5.6560   29.1950 C   0  0  0  0  0  0  0  0  0  0  0  0
    6.7780   -6.5820   28.9060 C   0  0  0  0  0  0  0  0  0  0  0  0
    6.0910   -4.8420   27.2300 C   0  0  0  0  0  0  0  0  0  0  0  0
    6.9830   -2.7700   23.3470 C   0  0  0  0  0  0  0  0  0  0  0  0
    7.6990   -3.2610   22.1500 C   0  0  0  0  0  0  0  0  0  0  0  0
  1  2  1  0
  2  3  2  0
  2  4  1  0
  4  5  1  0
  5  6  1  0
  6  7  1  0
  7  8  1  0
  8  9  2  0
  8 10  1  0
 10 11  1  0
 11 12  1  0
 13 12  1  0
 13 14  2  0
 13 15  2  0
 13 16  1  0
 16 17  1  0
 17 18  1  0
 16 19  1  0
 19 20  1  0
 10 21  1  0
 16 21  1  0
  7 22  1  0
  4 23  1  0
 22 23  1  0
M  END
