piperidine-amides-735-covalent
     RDKit          3D

 25 27  0  0  0  0  0  0  0  0999 V2000
    7.1620   -3.3220   19.3920 C   0  0  0  0  0  0  0  0  0  0  0  0
    6.4560   -4.1380   20.3460 C   0  0  0  0  0  0  0  0  0  0  0  0
    5.4070   -4.7580   19.9660 O   0  0  0  0  0  0  0  0  0  0  0  0
    6.9310   -4.2960   21.6590 N   0  0  0  0  0  0  0  0  0  0  0  0
    6.6000   -5.5490   22.3600 C   0  0  0  0  0  0  0  0  0  0  0  0
    5.6380   -4.9340   23.4340 C   0  0  0  0  0  0  0  0  0  0  0  0
    6.4920   -3.9640   24.2200 C   0  0  0  0  0  0  0  0  0  0  0  0
    5.8150   -3.7310   25.6430 C   0  0  0  0  0  0  0  0  0  0  0  0
    5.1350   -4.6960   25.9290 O   0  0  0  0  0  0  0  0  0  0  0  0
    6.0990   -2.5970   26.1410 N   0  0  0  0  0  0  0  0  0  0  0  0
    6.1900   -1.3730   26.7300 C   0  0  0  0  0  0  0  0  0  0  0  0
    5.8060   -0.0500   26.4080 C   0  0  0  0  0  0  0  0  0  0  0  0
    6.2560    0.7440   27.6280 N   0  0  0  0  0  0  0  0  0  0  0  0
    6.8240    0.9470   28.8740 C   0  0  0  0  0  0  0  0  0  0  0  0
    6.3860    2.1400   28.4240 N   0  0  0  0  0  0  0  0  0  0  0  0
    5.1240    2.5920   28.5850 C   0  0  0  0  0  0  0  0  0  0  0  0
    4.8340    3.4890   27.3660 C   0  0  0  0  0  0  0  0  0  0  0  0
    6.1710    3.8870   27.2430 C   0  0  0  0  0  0  0  0  0  0  0  0
    6.6890    4.4760   28.4120 C   0  0  0  0  0  0  0  0  0  0  0  0
    7.2830    3.1500   27.9300 C   0  0  0  0  0  0  0  0  0  0  0  0
    7.1460   -0.4630   29.0090 C   0  0  0  0  0  0  0  0  0  0  0  0
    7.7830   -0.8010   30.1670 C   0  0  0  0  0  0  0  0  0  0  0  0
    6.8510   -1.4540   28.0540 C   0  0  0  0  0  0  0  0  0  0  0  0
    6.9430   -2.7500   23.4250 C   0  0  0  0  0  0  0  0  0  0  0  0
    7.6540   -3.2480   22.3540 C   0  0  0  0  0  0  0  0  0  0  0  0
  1  2  1  0
  2  3  2  0
  2  4  1  0
  4  5  1  0
  5  6  1  0
  6  7  1  0
  7  8  1  0
  8  9  2  0
  8 10  1  0
 10 11  1  0
 11 12  2  0
 12 13  1  0
 13 14  2  0
 14 15  1  0
 15 16  1  0
 16 17  1  0
 17 18  1  0
 18 19  1  0
 15 20  1  0
 19 20  1  0
 14 21  1  0
 21 22  1  0
 11 23  1  0
 21 23  2  0
  7 24  1  0
  4 25  1  0
 24 25  1  0
M  END
