piperidine-amides-12822-covalent
     RDKit          3D

 22 22  0  0  0  0  0  0  0  0999 V2000
    7.1000   -3.2600   19.1340 C   0  0  0  0  0  0  0  0  0  0  0  0
    6.3370   -3.9810   20.1830 C   0  0  0  0  0  0  0  0  0  0  0  0
    5.2470   -4.4710   19.8400 O   0  0  0  0  0  0  0  0  0  0  0  0
    6.8410   -4.1530   21.4760 N   0  0  0  0  0  0  0  0  0  0  0  0
    7.5930   -3.0990   22.0880 C   0  0  0  0  0  0  0  0  0  0  0  0
    7.1450   -2.7160   23.4260 C   0  0  0  0  0  0  0  0  0  0  0  0
    6.5800   -3.8220   24.2170 C   0  0  0  0  0  0  0  0  0  0  0  0
    5.8340   -3.3060   25.3960 C   0  0  0  0  0  0  0  0  0  0  0  0
    4.5990   -3.1740   25.2980 O   0  0  0  0  0  0  0  0  0  0  0  0
    6.4980   -2.9600   26.5960 N   0  0  0  0  0  0  0  0  0  0  0  0
    6.2720   -3.6340   27.9040 C   0  0  0  0  0  0  0  0  0  0  0  0
    5.7320   -5.0210   27.7900 C   0  0  0  0  0  0  0  0  0  0  0  0
    4.3540   -5.1780   28.2750 C   0  0  0  0  0  0  0  0  0  0  0  0
    4.0790   -6.5450   28.6510 N   0  0  0  0  0  0  0  0  0  0  0  0
    4.9790   -7.5610   29.0340 C   0  0  0  0  0  0  0  0  0  0  0  0
    2.9440   -6.4430   29.9120 S   0  0  0  0  0  0  0  0  0  0  0  0
    3.3910   -5.4440   30.9070 O   0  0  0  0  0  0  0  0  0  0  0  0
    2.6210   -7.7790   30.4620 O   0  0  0  0  0  0  0  0  0  0  0  0
    1.4240   -5.8340   29.2010 C   0  0  0  0  0  0  0  0  0  0  0  0
    0.9870   -6.4440   28.0690 C   0  0  0  0  0  0  0  0  0  0  0  0
    5.8170   -4.8600   23.4520 C   0  0  0  0  0  0  0  0  0  0  0  0
    6.4550   -5.2510   22.3150 C   0  0  0  0  0  0  0  0  0  0  0  0
  1  2  1  0
  2  3  2  0
  2  4  1  0
  4  5  1  0
  5  6  1  0
  6  7  1  0
  7  8  1  0
  8  9  2  0
  8 10  1  0
 10 11  1  0
 11 12  1  0
 12 13  1  0
 13 14  1  0
 14 15  1  0
 16 14  1  0
 16 17  2  0
 16 18  2  0
 16 19  1  0
 19 20  1  0
  7 21  1  0
  4 22  1  0
 21 22  1  0
M  END
