piperidine-amides-10502-covalent
     RDKit          3D

 24 26  0  0  0  0  0  0  0  0999 V2000
    7.0630   -3.2970   19.3220 C   0  0  0  0  0  0  0  0  0  0  0  0
    6.3630   -4.0910   20.3410 C   0  0  0  0  0  0  0  0  0  0  0  0
    5.3440   -4.7160   19.9460 O   0  0  0  0  0  0  0  0  0  0  0  0
    6.8390   -4.1670   21.6620 N   0  0  0  0  0  0  0  0  0  0  0  0
    7.7190   -3.1470   22.2010 C   0  0  0  0  0  0  0  0  0  0  0  0
    7.3450   -2.9060   23.6340 C   0  0  0  0  0  0  0  0  0  0  0  0
    6.0140   -3.5340   23.9350 C   0  0  0  0  0  0  0  0  0  0  0  0
    5.6010   -3.2910   25.3410 C   0  0  0  0  0  0  0  0  0  0  0  0
    4.3790   -3.1460   25.5680 O   0  0  0  0  0  0  0  0  0  0  0  0
    6.4940   -3.2000   26.4310 N   0  0  0  0  0  0  0  0  0  0  0  0
    6.1700   -3.6920   27.7550 C   0  0  0  0  0  0  0  0  0  0  0  0
    6.1810   -5.2180   27.9000 C   0  0  0  0  0  0  0  0  0  0  0  0
    5.1920   -5.9520   28.4960 C   0  0  0  0  0  0  0  0  0  0  0  0
    5.0210   -6.1560   29.8390 C   0  0  0  0  0  0  0  0  0  0  0  0
    3.9560   -6.9120   30.0600 N   0  0  0  0  0  0  0  0  0  0  0  0
    3.3880   -7.2390   28.9130 C   0  0  0  0  0  0  0  0  0  0  0  0
    2.2650   -8.0080   28.6930 C   0  0  0  0  0  0  0  0  0  0  0  0
    1.7960   -8.2600   27.4040 C   0  0  0  0  0  0  0  0  0  0  0  0
    2.4540   -7.7290   26.1270 C   0  0  0  0  0  0  0  0  0  0  0  0
    1.8210   -8.0680   24.3380 Br  0  0  0  0  0  0  0  0  0  0  0  0
    3.6790   -6.8980   26.5110 C   0  0  0  0  0  0  0  0  0  0  0  0
    4.1360   -6.6590   27.9160 C   0  0  0  0  0  0  0  0  0  0  0  0
    6.0390   -5.0150   23.6680 C   0  0  0  0  0  0  0  0  0  0  0  0
    6.6500   -5.3750   22.4760 C   0  0  0  0  0  0  0  0  0  0  0  0
  1  2  1  0
  2  3  2  0
  2  4  1  0
  4  5  1  0
  5  6  1  0
  6  7  1  0
  7  8  1  0
  8  9  2  0
  8 10  1  0
 10 11  1  0
 11 12  1  0
 12 13  1  0
 13 14  2  0
 14 15  1  0
 15 16  1  0
 16 17  1  0
 17 18  2  0
 18 19  1  0
 19 20  1  0
 19 21  2  0
 13 22  1  0
 16 22  2  0
 21 22  1  0
  7 23  1  0
  4 24  1  0
 23 24  1  0
M  END
