piperidine-amides-13883-covalent
     RDKit          3D

 26 28  0  0  0  0  0  0  0  0999 V2000
    7.0010   -3.3370   19.3670 C   0  0  0  0  0  0  0  0  0  0  0  0
    6.3010   -4.2190   20.3430 C   0  0  0  0  0  0  0  0  0  0  0  0
    5.3110   -4.8560   19.9670 O   0  0  0  0  0  0  0  0  0  0  0  0
    6.7940   -4.3500   21.6560 N   0  0  0  0  0  0  0  0  0  0  0  0
    7.5760   -3.3010   22.2610 C   0  0  0  0  0  0  0  0  0  0  0  0
    7.3090   -3.3130   23.7670 C   0  0  0  0  0  0  0  0  0  0  0  0
    5.9470   -3.8680   23.9850 C   0  0  0  0  0  0  0  0  0  0  0  0
    5.3170   -3.5090   25.2930 C   0  0  0  0  0  0  0  0  0  0  0  0
    4.0860   -3.5990   25.3170 O   0  0  0  0  0  0  0  0  0  0  0  0
    6.0480   -3.0930   26.4190 N   0  0  0  0  0  0  0  0  0  0  0  0
    6.5460   -1.7820   26.6280 C   0  0  0  0  0  0  0  0  0  0  0  0
    7.0840   -1.2470   25.4740 C   0  0  0  0  0  0  0  0  0  0  0  0
    6.4370   -0.1430   24.8460 C   0  0  0  0  0  0  0  0  0  0  0  0
    6.9050    0.4500   23.6890 C   0  0  0  0  0  0  0  0  0  0  0  0
    8.1290   -0.0570   23.0440 C   0  0  0  0  0  0  0  0  0  0  0  0
    8.9010   -1.2270   23.6180 C   0  0  0  0  0  0  0  0  0  0  0  0
   10.0540   -1.6270   22.9200 F   0  0  0  0  0  0  0  0  0  0  0  0
    8.2270   -1.7520   24.9000 C   0  0  0  0  0  0  0  0  0  0  0  0
    8.8820   -2.8280   25.4730 F   0  0  0  0  0  0  0  0  0  0  0  0
    7.3930   -1.7430   27.7440 C   0  0  0  0  0  0  0  0  0  0  0  0
    6.9910   -0.9490   28.9540 C   0  0  0  0  0  0  0  0  0  0  0  0
    5.7590   -0.3190   28.3360 C   0  0  0  0  0  0  0  0  0  0  0  0
    5.9280    0.5730   27.3210 C   0  0  0  0  0  0  0  0  0  0  0  0
    5.3900   -0.8430   26.9560 C   0  0  0  0  0  0  0  0  0  0  0  0
    5.8810   -5.3290   23.7160 C   0  0  0  0  0  0  0  0  0  0  0  0
    6.6020   -5.5900   22.3900 C   0  0  0  0  0  0  0  0  0  0  0  0
  1  2  1  0
  2  3  2  0
  2  4  1  0
  4  5  1  0
  5  6  1  0
  6  7  1  0
  7  8  1  0
  8  9  2  0
  8 10  1  0
 11 10  1  0
 11 12  1  0
 12 13  2  0
 13 14  1  0
 14 15  2  0
 15 16  1  0
 16 17  1  0
 12 18  1  0
 16 18  2  0
 18 19  1  0
 11 20  1  0
 20 21  1  0
 21 22  1  0
 22 23  1  0
 11 24  1  0
 23 24  1  0
  7 25  1  0
  4 26  1  0
 25 26  1  0
M  END
