piperidine-amides-1747-covalent
     RDKit          3D

 20 21  0  0  0  0  0  0  0  0999 V2000
    7.0710   -3.3480   19.3630 C   0  0  0  0  0  0  0  0  0  0  0  0
    6.3300   -4.1670   20.3580 C   0  0  0  0  0  0  0  0  0  0  0  0
    5.3540   -4.8340   19.9770 O   0  0  0  0  0  0  0  0  0  0  0  0
    6.7860   -4.1960   21.6930 N   0  0  0  0  0  0  0  0  0  0  0  0
    7.6670   -3.1750   22.2270 C   0  0  0  0  0  0  0  0  0  0  0  0
    7.4960   -3.1250   23.7490 C   0  0  0  0  0  0  0  0  0  0  0  0
    6.1440   -3.6770   24.0390 C   0  0  0  0  0  0  0  0  0  0  0  0
    5.6000   -3.3740   25.3880 C   0  0  0  0  0  0  0  0  0  0  0  0
    4.3850   -3.5710   25.5480 O   0  0  0  0  0  0  0  0  0  0  0  0
    6.3940   -2.8540   26.4160 N   0  0  0  0  0  0  0  0  0  0  0  0
    5.9420   -1.8570   27.3260 C   0  0  1  0  0  0  0  0  0  0  0  0
    5.0020   -2.1750   28.2740 C   0  0  0  0  0  0  0  0  0  0  0  0
    7.1240   -1.4450   28.1850 C   0  0  0  0  0  0  0  0  0  0  0  0
    6.8960   -0.6220   29.2360 C   0  0  0  0  0  0  0  0  0  0  0  0
    6.1510    0.5930   28.9240 C   0  0  0  0  0  0  0  0  0  0  0  0
    5.8810    0.7910   27.4370 C   0  0  0  0  0  0  0  0  0  0  0  0
    5.7310   -0.5770   26.7140 C   0  0  1  0  0  0  0  0  0  0  0  0
    6.4710   -0.6740   25.5540 C   0  0  0  0  0  0  0  0  0  0  0  0
    6.0430   -5.1390   23.7880 C   0  0  0  0  0  0  0  0  0  0  0  0
    6.6440   -5.4370   22.4270 C   0  0  0  0  0  0  0  0  0  0  0  0
  1  2  1  0
  2  3  2  0
  2  4  1  0
  4  5  1  0
  5  6  1  0
  6  7  1  0
  7  8  1  0
  8  9  2  0
  8 10  1  0
 11 10  1  0
 11 12  1  1
 11 13  1  0
 13 14  1  0
 14 15  1  0
 15 16  1  0
 11 17  1  0
 16 17  1  0
 17 18  1  6
  7 19  1  0
  4 20  1  0
 19 20  1  0
M  END
