piperidine-amides-10007-covalent
     RDKit          3D

 26 28  0  0  0  0  0  0  0  0999 V2000
    7.0660   -3.3550   19.3460 C   0  0  0  0  0  0  0  0  0  0  0  0
    6.3390   -4.1460   20.3420 C   0  0  0  0  0  0  0  0  0  0  0  0
    5.3070   -4.7420   19.9430 O   0  0  0  0  0  0  0  0  0  0  0  0
    6.8170   -4.2470   21.6460 N   0  0  0  0  0  0  0  0  0  0  0  0
    7.7280   -3.2490   22.1560 C   0  0  0  0  0  0  0  0  0  0  0  0
    7.3940   -2.9910   23.5820 C   0  0  0  0  0  0  0  0  0  0  0  0
    6.0310   -3.5130   23.9480 C   0  0  0  0  0  0  0  0  0  0  0  0
    5.7690   -3.1350   25.3430 C   0  0  0  0  0  0  0  0  0  0  0  0
    4.6350   -3.3090   25.8410 O   0  0  0  0  0  0  0  0  0  0  0  0
    6.8110   -2.5700   26.0880 N   0  0  0  0  0  0  0  0  0  0  0  0
    6.6250   -1.5030   27.0290 C   0  0  0  0  0  0  0  0  0  0  0  0
    5.8700   -0.2860   26.5450 C   0  0  0  0  0  0  0  0  0  0  0  0
    5.6630    0.7820   27.3760 C   0  0  0  0  0  0  0  0  0  0  0  0
    6.1440    0.7650   28.6760 C   0  0  0  0  0  0  0  0  0  0  0  0
    5.8400    1.8780   29.3010 O   0  0  0  0  0  0  0  0  0  0  0  0
    4.8230    1.6860   30.0910 C   0  0  0  0  0  0  0  0  0  0  0  0
    4.9070    1.1710   31.3860 C   0  0  0  0  0  0  0  0  0  0  0  0
    3.8000    0.9930   32.1620 C   0  0  0  0  0  0  0  0  0  0  0  0
    2.4490    1.3410   31.6650 C   0  0  0  0  0  0  0  0  0  0  0  0
    2.2540    1.8710   30.3640 N   0  0  0  0  0  0  0  0  0  0  0  0
    3.4350    2.0450   29.5750 C   0  0  0  0  0  0  0  0  0  0  0  0
    6.8450   -0.3130   29.1920 C   0  0  0  0  0  0  0  0  0  0  0  0
    7.3980   -0.3850   30.5990 C   0  0  0  0  0  0  0  0  0  0  0  0
    7.0820   -1.4750   28.3350 C   0  0  0  0  0  0  0  0  0  0  0  0
    6.0230   -5.0280   23.7720 C   0  0  0  0  0  0  0  0  0  0  0  0
    6.6570   -5.4470   22.4470 C   0  0  0  0  0  0  0  0  0  0  0  0
  1  2  1  0
  2  3  2  0
  2  4  1  0
  4  5  1  0
  5  6  1  0
  6  7  1  0
  7  8  1  0
  8  9  2  0
  8 10  1  0
 10 11  1  0
 11 12  2  0
 12 13  1  0
 13 14  2  0
 14 15  1  0
 15 16  1  0
 16 17  2  0
 17 18  1  0
 18 19  2  0
 19 20  1  0
 16 21  1  0
 20 21  2  0
 14 22  1  0
 22 23  1  0
 11 24  1  0
 22 24  2  0
  7 25  1  0
  4 26  1  0
 25 26  1  0
M  END
