piperidine-amides-18911-covalent
     RDKit          3D

 21 22  0  0  0  0  0  0  0  0999 V2000
    6.9800   -3.4270   19.3660 C   0  0  0  0  0  0  0  0  0  0  0  0
    6.3580   -4.2220   20.4030 C   0  0  0  0  0  0  0  0  0  0  0  0
    5.4220   -4.9910   20.0210 O   0  0  0  0  0  0  0  0  0  0  0  0
    6.7740   -4.2110   21.7690 N   0  0  0  0  0  0  0  0  0  0  0  0
    6.7360   -5.5430   22.4460 C   0  0  0  0  0  0  0  0  0  0  0  0
    6.0260   -5.2480   23.8350 C   0  0  0  0  0  0  0  0  0  0  0  0
    6.2860   -3.8030   24.1580 C   0  0  0  0  0  0  0  0  0  0  0  0
    5.3370   -3.2900   25.3520 C   0  0  0  0  0  0  0  0  0  0  0  0
    4.3710   -2.7610   24.8280 O   0  0  0  0  0  0  0  0  0  0  0  0
    5.7420   -3.5190   26.5630 N   0  0  0  0  0  0  0  0  0  0  0  0
    6.4140   -3.6420   27.7040 C   0  0  0  0  0  0  0  0  0  0  0  0
    6.7070   -4.6670   28.5360 C   0  0  0  0  0  0  0  0  0  0  0  0
    5.5360   -4.8870   29.1950 O   0  0  0  0  0  0  0  0  0  0  0  0
    4.5380   -4.9300   28.2570 C   0  0  1  0  0  0  0  0  0  0  0  0
    4.8920   -6.1340   27.4660 C   0  0  0  0  0  0  0  0  0  0  0  0
    3.1970   -5.1270   28.9140 C   0  0  0  0  0  0  0  0  0  0  0  0
    3.2880   -4.3470   30.0760 C   0  0  0  0  0  0  0  0  0  0  0  0
    2.0590   -3.9260   30.6310 O   0  0  0  0  0  0  0  0  0  0  0  0
    4.6360   -3.5970   27.5040 C   0  0  0  0  0  0  0  0  0  0  0  0
    7.5940   -3.3050   23.8810 C   0  0  0  0  0  0  0  0  0  0  0  0
    7.6470   -3.2310   22.3170 C   0  0  0  0  0  0  0  0  0  0  0  0
  1  2  1  0
  2  3  2  0
  2  4  1  0
  4  5  1  0
  5  6  1  0
  6  7  1  0
  7  8  1  0
  8  9  2  0
  8 10  1  0
 10 11  1  0
 11 12  1  0
 12 13  1  0
 13 14  1  0
 14 15  1  6
 14 16  1  0
 16 17  1  0
 17 18  1  0
 10 19  1  0
 14 19  1  0
  7 20  1  0
  4 21  1  0
 20 21  1  0
M  END
