piperidine-amides-9940-covalent
     RDKit          3D

 27 29  0  0  0  0  0  0  0  0999 V2000
    7.0790   -3.3150   19.2720 C   0  0  0  0  0  0  0  0  0  0  0  0
    6.3710   -4.1140   20.2760 C   0  0  0  0  0  0  0  0  0  0  0  0
    5.2970   -4.6580   19.9170 O   0  0  0  0  0  0  0  0  0  0  0  0
    6.9160   -4.2870   21.5460 N   0  0  0  0  0  0  0  0  0  0  0  0
    7.7070   -3.2420   22.1550 C   0  0  0  0  0  0  0  0  0  0  0  0
    6.9220   -2.6870   23.3000 C   0  0  0  0  0  0  0  0  0  0  0  0
    6.5840   -3.7740   24.2690 C   0  0  0  0  0  0  0  0  0  0  0  0
    5.8370   -3.2390   25.4300 C   0  0  0  0  0  0  0  0  0  0  0  0
    4.6290   -2.9540   25.2730 O   0  0  0  0  0  0  0  0  0  0  0  0
    6.4240   -3.0460   26.6930 N   0  0  0  0  0  0  0  0  0  0  0  0
    6.4390   -1.7670   27.3670 C   0  0  0  0  0  0  0  0  0  0  0  0
    5.8050   -0.5870   26.6590 C   0  0  0  0  0  0  0  0  0  0  0  0
    5.7880    0.6400   27.2620 C   0  0  0  0  0  0  0  0  0  0  0  0
    6.3490    0.8040   28.5200 C   0  0  0  0  0  0  0  0  0  0  0  0
    6.2380    2.0420   28.9400 O   0  0  0  0  0  0  0  0  0  0  0  0
    5.0240    2.4940   28.8200 C   0  0  0  0  0  0  0  0  0  0  0  0
    4.6220    3.2420   27.7290 C   0  0  0  0  0  0  0  0  0  0  0  0
    5.5620    3.7290   26.8550 C   0  0  0  0  0  0  0  0  0  0  0  0
    5.2160    4.5480   25.6440 C   0  0  0  0  0  0  0  0  0  0  0  0
    3.7250    4.8110   25.4410 C   0  0  0  0  0  0  0  0  0  0  0  0
    2.8210    4.2770   26.3850 N   0  0  0  0  0  0  0  0  0  0  0  0
    3.2940    3.4950   27.5210 C   0  0  0  0  0  0  0  0  0  0  0  0
    6.9400   -0.2630   29.1900 C   0  0  0  0  0  0  0  0  0  0  0  0
    7.6240    0.0320   30.7780 Cl  0  0  0  0  0  0  0  0  0  0  0  0
    6.9850   -1.5250   28.6220 C   0  0  0  0  0  0  0  0  0  0  0  0
    5.7690   -4.8450   23.5610 C   0  0  0  0  0  0  0  0  0  0  0  0
    6.5580   -5.4100   22.3870 C   0  0  0  0  0  0  0  0  0  0  0  0
  1  2  1  0
  2  3  2  0
  2  4  1  0
  4  5  1  0
  5  6  1  0
  6  7  1  0
  7  8  1  0
  8  9  2  0
  8 10  1  0
 10 11  1  0
 11 12  2  0
 12 13  1  0
 13 14  2  0
 14 15  1  0
 15 16  1  0
 16 17  1  0
 17 18  2  0
 18 19  1  0
 19 20  2  0
 20 21  1  0
 17 22  1  0
 21 22  2  0
 14 23  1  0
 23 24  1  0
 11 25  1  0
 23 25  2  0
  7 26  1  0
  4 27  1  0
 26 27  1  0
M  END
