piperidine-amides-24899-covalent
     RDKit          3D

 23 25  0  0  0  0  0  0  0  0999 V2000
    7.1070   -3.2650   19.2450 C   0  0  0  0  0  0  0  0  0  0  0  0
    6.3740   -4.0540   20.2450 C   0  0  0  0  0  0  0  0  0  0  0  0
    5.3140   -4.6390   19.9260 O   0  0  0  0  0  0  0  0  0  0  0  0
    6.8690   -4.2190   21.5460 N   0  0  0  0  0  0  0  0  0  0  0  0
    6.5710   -5.4540   22.2230 C   0  0  0  0  0  0  0  0  0  0  0  0
    6.1110   -5.1000   23.6430 C   0  0  0  0  0  0  0  0  0  0  0  0
    5.9170   -3.5980   23.7130 C   0  0  0  0  0  0  0  0  0  0  0  0
    5.3990   -3.2520   25.0480 C   0  0  0  0  0  0  0  0  0  0  0  0
    4.9010   -4.1740   25.7220 O   0  0  0  0  0  0  0  0  0  0  0  0
    5.4360   -1.9280   25.5450 N   0  0  0  0  0  0  0  0  0  0  0  0
    6.6810   -1.3940   25.9040 C   0  0  0  0  0  0  0  0  0  0  0  0
    6.1330   -1.4140   27.2850 C   0  0  0  0  0  0  0  0  0  0  0  0
    6.4670   -2.3590   28.2200 C   0  0  0  0  0  0  0  0  0  0  0  0
    5.3780   -2.7010   28.9670 C   0  0  0  0  0  0  0  0  0  0  0  0
    4.9340   -1.2630   29.8970 S   0  0  0  0  0  0  0  0  0  0  0  0
    5.2280    0.1850   28.9380 C   0  0  0  0  0  0  0  0  0  0  0  0
    5.9980   -0.0220   27.8120 C   0  0  0  0  0  0  0  0  0  0  0  0
    4.6990   -1.7430   26.8290 C   0  0  1  0  0  0  0  0  0  0  0  0
    3.7150   -0.6080   26.7050 C   0  0  0  0  0  0  0  0  0  0  0  0
    2.4030   -0.7530   27.4050 C   0  0  0  0  0  0  0  0  0  0  0  0
    2.4570   -0.8940   25.9150 C   0  0  0  0  0  0  0  0  0  0  0  0
    7.2300   -2.9270   23.4460 C   0  0  0  0  0  0  0  0  0  0  0  0
    7.6150   -3.1660   22.1670 C   0  0  0  0  0  0  0  0  0  0  0  0
  1  2  1  0
  2  3  2  0
  2  4  1  0
  4  5  1  0
  5  6  1  0
  6  7  1  0
  7  8  1  0
  8  9  2  0
  8 10  1  0
 10 11  1  0
 12 11  1  0
 12 13  1  0
 13 14  1  0
 14 15  1  0
 15 16  1  0
 12 17  1  0
 16 17  1  0
 10 18  1  0
 12 18  1  0
 18 19  1  6
 19 20  1  0
 19 21  1  0
  7 22  1  0
  4 23  1  0
 22 23  1  0
M  END
