piperidine-amides-1073-covalent
     RDKit          3D

 24 25  0  0  0  0  0  0  0  0999 V2000
    7.1060   -3.2600   19.2170 C   0  0  0  0  0  0  0  0  0  0  0  0
    6.3290   -4.0300   20.2300 C   0  0  0  0  0  0  0  0  0  0  0  0
    5.2790   -4.5980   19.8920 O   0  0  0  0  0  0  0  0  0  0  0  0
    6.8270   -4.1280   21.5430 N   0  0  0  0  0  0  0  0  0  0  0  0
    7.7390   -3.1450   22.1010 C   0  0  0  0  0  0  0  0  0  0  0  0
    7.3310   -2.8120   23.5420 C   0  0  0  0  0  0  0  0  0  0  0  0
    6.0720   -3.5380   23.8510 C   0  0  0  0  0  0  0  0  0  0  0  0
    5.5890   -3.2790   25.2150 C   0  0  0  0  0  0  0  0  0  0  0  0
    4.3630   -3.1890   25.3580 O   0  0  0  0  0  0  0  0  0  0  0  0
    6.5100   -3.1390   26.2520 N   0  0  0  0  0  0  0  0  0  0  0  0
    6.8300   -1.9350   26.9230 C   0  0  0  0  0  0  0  0  0  0  0  0
    6.3320   -1.5350   28.1560 C   0  0  0  0  0  0  0  0  0  0  0  0
    5.9380   -2.7110   28.8980 N   0  0  0  0  0  0  0  0  0  0  0  0
    4.8240   -2.7540   29.7230 C   0  0  0  0  0  0  0  0  0  0  0  0
    3.6760   -2.5120   29.0050 C   0  0  0  0  0  0  0  0  0  0  0  0
    6.3640   -3.8300   28.3600 C   0  0  0  0  0  0  0  0  0  0  0  0
    5.5250   -5.0350   27.9800 C   0  0  0  0  0  0  0  0  0  0  0  0
    6.2960   -6.1450   27.3480 C   0  0  0  0  0  0  0  0  0  0  0  0
    7.6440   -6.0650   27.1430 C   0  0  0  0  0  0  0  0  0  0  0  0
    8.5750   -5.0020   27.4590 C   0  0  0  0  0  0  0  0  0  0  0  0
    7.8320   -3.8450   28.1020 C   0  0  0  0  0  0  0  0  0  0  0  0
    8.4660   -2.7090   28.4970 C   0  0  0  0  0  0  0  0  0  0  0  0
    6.1420   -5.0190   23.6640 C   0  0  0  0  0  0  0  0  0  0  0  0
    6.6270   -5.3630   22.2850 C   0  0  0  0  0  0  0  0  0  0  0  0
  1  2  1  0
  2  3  2  0
  2  4  1  0
  4  5  1  0
  5  6  1  0
  6  7  1  0
  7  8  1  0
  8  9  2  0
  8 10  1  0
 10 11  1  0
 11 12  1  0
 12 13  1  0
 13 14  1  0
 14 15  1  0
 13 16  1  0
 16 17  2  0
 17 18  1  0
 18 19  2  0
 19 20  1  0
 16 21  1  0
 20 21  2  0
 21 22  1  0
  7 23  1  0
  4 24  1  0
 23 24  1  0
M  END
