piperidine-amides-4537-covalent
     RDKit          3D

 24 25  0  0  0  0  0  0  0  0999 V2000
    7.0690   -3.3130   19.2530 C   0  0  0  0  0  0  0  0  0  0  0  0
    6.3880   -4.1100   20.2960 C   0  0  0  0  0  0  0  0  0  0  0  0
    5.3440   -4.6950   19.9430 O   0  0  0  0  0  0  0  0  0  0  0  0
    6.9200   -4.2410   21.5950 N   0  0  0  0  0  0  0  0  0  0  0  0
    7.6480   -3.1710   22.2040 C   0  0  0  0  0  0  0  0  0  0  0  0
    7.2320   -2.8820   23.5760 C   0  0  0  0  0  0  0  0  0  0  0  0
    6.0090   -3.6150   23.9780 C   0  0  0  0  0  0  0  0  0  0  0  0
    5.6080   -3.2870   25.3720 C   0  0  0  0  0  0  0  0  0  0  0  0
    4.3890   -3.1770   25.6030 O   0  0  0  0  0  0  0  0  0  0  0  0
    6.5360   -3.0950   26.4130 N   0  0  0  0  0  0  0  0  0  0  0  0
    6.2070   -3.3060   27.8450 C   0  0  0  0  0  0  0  0  0  0  0  0
    6.4260   -4.7010   28.3420 C   0  0  0  0  0  0  0  0  0  0  0  0
    5.3870   -5.3300   29.1420 C   0  0  0  0  0  0  0  0  0  0  0  0
    5.5480   -6.6500   29.4890 C   0  0  0  0  0  0  0  0  0  0  0  0
    5.1230   -6.7610   30.8200 N   0  0  0  0  0  0  0  0  0  0  0  0
    5.6630   -7.6760   31.7510 C   0  0  0  0  0  0  0  0  0  0  0  0
    5.0880   -7.5900   32.9510 C   0  0  0  0  0  0  0  0  0  0  0  0
    5.4190   -8.3580   34.0280 C   0  0  0  0  0  0  0  0  0  0  0  0
    4.5170   -9.3270   34.2720 N   0  0  0  0  0  0  0  0  0  0  0  0
    6.4530   -8.1340   34.6790 O   0  0  0  0  0  0  0  0  0  0  0  0
    4.1600   -6.6010   32.7910 N   0  0  0  0  0  0  0  0  0  0  0  0
    4.2000   -6.1340   31.5350 N   0  0  0  0  0  0  0  0  0  0  0  0
    6.0260   -5.0630   23.6540 C   0  0  0  0  0  0  0  0  0  0  0  0
    6.5720   -5.3860   22.4040 C   0  0  0  0  0  0  0  0  0  0  0  0
  1  2  1  0
  2  3  2  0
  2  4  1  0
  4  5  1  0
  5  6  1  0
  6  7  1  0
  7  8  1  0
  8  9  2  0
  8 10  1  0
 10 11  1  0
 11 12  1  0
 12 13  1  0
 13 14  1  0
 14 15  1  0
 15 16  1  0
 16 17  2  0
 17 18  1  0
 18 19  1  0
 18 20  2  0
 17 21  1  0
 15 22  1  0
 21 22  2  0
  7 23  1  0
  4 24  1  0
 23 24  1  0
M  END
