piperidine-amides-34856-covalent
     RDKit          3D

 32 35  0  0  0  0  0  0  0  0999 V2000
    7.0330   -3.3790   19.4410 C   0  0  0  0  0  0  0  0  0  0  0  0
    6.3740   -4.2680   20.4360 C   0  0  0  0  0  0  0  0  0  0  0  0
    5.4360   -4.9500   20.0110 O   0  0  0  0  0  0  0  0  0  0  0  0
    6.8370   -4.3380   21.7670 N   0  0  0  0  0  0  0  0  0  0  0  0
    6.6880   -5.5490   22.5440 C   0  0  0  0  0  0  0  0  0  0  0  0
    6.0550   -5.2200   23.8720 C   0  0  0  0  0  0  0  0  0  0  0  0
    6.1560   -3.7110   24.0530 C   0  0  0  0  0  0  0  0  0  0  0  0
    5.5410   -3.2300   25.3360 C   0  0  0  0  0  0  0  0  0  0  0  0
    4.9000   -2.1780   25.2840 O   0  0  0  0  0  0  0  0  0  0  0  0
    5.5980   -3.8810   26.6000 N   0  0  0  0  0  0  0  0  0  0  0  0
    6.4390   -3.3550   27.5920 C   0  0  0  0  0  0  0  0  0  0  0  0
    6.7180   -4.5700   28.4600 C   0  0  0  0  0  0  0  0  0  0  0  0
    5.4960   -4.8070   29.2170 N   0  0  0  0  0  0  0  0  0  0  0  0
    5.3280   -6.2650   29.2230 C   0  0  0  0  0  0  0  0  0  0  0  0
    4.9770   -6.4810   30.5120 C   0  0  0  0  0  0  0  0  0  0  0  0
    5.6200   -7.4340   31.2110 C   0  0  0  0  0  0  0  0  0  0  0  0
    5.4610   -7.8960   32.6390 C   0  0  0  0  0  0  0  0  0  0  0  0
    4.3820   -7.1090   33.3360 C   0  0  0  0  0  0  0  0  0  0  0  0
    4.0930   -7.3990   34.6760 F   0  0  0  0  0  0  0  0  0  0  0  0
    3.6160   -6.0180   32.5980 C   0  0  0  0  0  0  0  0  0  0  0  0
    3.9980   -5.7830   31.1700 C   0  0  0  0  0  0  0  0  0  0  0  0
    4.4760   -6.7590   28.2550 C   0  0  0  0  0  0  0  0  0  0  0  0
    3.0940   -7.3700   28.4990 C   0  0  0  0  0  0  0  0  0  0  0  0
    2.2260   -7.8810   27.3980 C   0  0  0  0  0  0  0  0  0  0  0  0
    2.7500   -7.7820   25.9970 C   0  0  0  0  0  0  0  0  0  0  0  0
    1.9620   -8.2470   24.9870 F   0  0  0  0  0  0  0  0  0  0  0  0
    3.9880   -7.2310   25.8020 C   0  0  0  0  0  0  0  0  0  0  0  0
    4.8600   -6.7180   26.9250 C   0  0  0  0  0  0  0  0  0  0  0  0
    4.4820   -3.9290   28.7280 C   0  0  0  0  0  0  0  0  0  0  0  0
    4.3280   -4.1710   27.2120 C   0  0  0  0  0  0  0  0  0  0  0  0
    7.5070   -3.1210   23.7650 C   0  0  0  0  0  0  0  0  0  0  0  0
    7.6750   -3.2310   22.2360 C   0  0  0  0  0  0  0  0  0  0  0  0
  1  2  1  0
  2  3  2  0
  2  4  1  0
  4  5  1  0
  5  6  1  0
  6  7  1  0
  7  8  1  0
  8  9  2  0
  8 10  1  0
 10 11  1  0
 11 12  1  0
 12 13  1  0
 13 14  1  0
 14 15  1  0
 15 16  2  0
 16 17  1  0
 17 18  2  0
 18 19  1  0
 18 20  1  0
 15 21  1  0
 20 21  2  0
 14 22  1  0
 22 23  2  0
 23 24  1  0
 24 25  2  0
 25 26  1  0
 25 27  1  0
 22 28  1  0
 27 28  2  0
 13 29  1  0
 10 30  1  0
 29 30  1  0
  7 31  1  0
  4 32  1  0
 31 32  1  0
M  END
