piperidine-amides-34995-covalent
     RDKit          3D

 32 35  0  0  0  0  0  0  0  0999 V2000
    7.0410   -3.3280   19.3250 C   0  0  0  0  0  0  0  0  0  0  0  0
    6.3880   -4.1890   20.3440 C   0  0  0  0  0  0  0  0  0  0  0  0
    5.3950   -4.8160   19.9780 O   0  0  0  0  0  0  0  0  0  0  0  0
    6.9170   -4.3060   21.6390 N   0  0  0  0  0  0  0  0  0  0  0  0
    7.6870   -3.2370   22.2460 C   0  0  0  0  0  0  0  0  0  0  0  0
    7.0120   -2.7590   23.5090 C   0  0  0  0  0  0  0  0  0  0  0  0
    5.6340   -3.4160   23.5840 C   0  0  0  0  0  0  0  0  0  0  0  0
    4.8380   -2.8400   24.7100 C   0  0  0  0  0  0  0  0  0  0  0  0
    3.6980   -2.4480   24.4900 O   0  0  0  0  0  0  0  0  0  0  0  0
    5.3020   -2.7460   26.0210 N   0  0  0  0  0  0  0  0  0  0  0  0
    6.3020   -3.6230   26.3290 C   0  0  0  0  0  0  0  0  0  0  0  0
    7.5360   -3.1780   26.4490 N   0  0  0  0  0  0  0  0  0  0  0  0
    8.3720   -4.0750   26.7540 C   0  0  0  0  0  0  0  0  0  0  0  0
    9.6220   -4.1250   27.0050 C   0  0  0  0  0  0  0  0  0  0  0  0
    9.9060   -4.4220   28.2960 C   0  0  0  0  0  0  0  0  0  0  0  0
   11.2940   -4.4930   28.5750 C   0  0  0  0  0  0  0  0  0  0  0  0
   12.7390   -4.2090   27.2330 C   0  0  0  0  0  0  0  0  0  0  0  0
   14.1210   -4.3200   26.9770 C   0  0  0  0  0  0  0  0  0  0  0  0
   12.4580   -3.9320   25.9010 C   0  0  0  0  0  0  0  0  0  0  0  0
   10.7470   -3.8790   25.8680 C   0  0  0  0  0  0  0  0  0  0  0  0
    7.9500   -5.4900   26.9340 C   0  0  0  0  0  0  0  0  0  0  0  0
    6.2660   -5.3750   26.6310 S   0  0  0  0  0  0  0  0  0  0  0  0
    5.7280   -1.5300   26.7780 C   0  0  0  0  0  0  0  0  0  0  0  0
    6.4270   -1.6870   28.1260 C   0  0  0  0  0  0  0  0  0  0  0  0
    6.6970   -3.0510   28.7100 C   0  0  0  0  0  0  0  0  0  0  0  0
    6.8860   -0.5620   28.9740 C   0  0  0  0  0  0  0  0  0  0  0  0
    6.6590    0.8240   28.5040 C   0  0  0  0  0  0  0  0  0  0  0  0
    5.9710    0.9990   27.1720 C   0  0  0  0  0  0  0  0  0  0  0  0
    5.5290   -0.2100   26.3500 C   0  0  0  0  0  0  0  0  0  0  0  0
    4.9070   -0.0360   25.1490 C   0  0  0  0  0  0  0  0  0  0  0  0
    5.6590   -4.8790   23.5660 C   0  0  0  0  0  0  0  0  0  0  0  0
    6.5460   -5.3920   22.4820 C   0  0  0  0  0  0  0  0  0  0  0  0
  1  2  1  0
  2  3  2  0
  2  4  1  0
  4  5  1  0
  5  6  1  0
  6  7  1  0
  7  8  1  0
  8  9  2  0
  8 10  1  0
 10 11  1  0
 11 12  2  0
 12 13  1  0
 13 14  1  0
 14 15  2  0
 15 16  1  0
 16 17  2  0
 17 18  1  0
 17 19  1  0
 14 20  1  0
 19 20  2  0
 13 21  2  0
 11 22  1  0
 21 22  1  0
 10 23  1  0
 23 24  2  0
 24 25  1  0
 24 26  1  0
 26 27  2  0
 27 28  1  0
 23 29  1  0
 28 29  2  0
 29 30  1  0
  7 31  1  0
  4 32  1  0
 31 32  1  0
M  END
