piperidine-amides-1740-covalent
     RDKit          3D

 20 20  0  0  0  0  0  0  0  0999 V2000
    7.0950   -3.2920   19.2240 C   0  0  0  0  0  0  0  0  0  0  0  0
    6.3480   -4.0900   20.2380 C   0  0  0  0  0  0  0  0  0  0  0  0
    5.2890   -4.6440   19.9090 O   0  0  0  0  0  0  0  0  0  0  0  0
    6.8890   -4.2380   21.5310 N   0  0  0  0  0  0  0  0  0  0  0  0
    7.6880   -3.2040   22.1370 C   0  0  0  0  0  0  0  0  0  0  0  0
    6.7940   -2.5840   23.1990 C   0  0  0  0  0  0  0  0  0  0  0  0
    6.3530   -3.7270   24.0470 C   0  0  0  0  0  0  0  0  0  0  0  0
    5.5300   -3.2810   25.1930 C   0  0  0  0  0  0  0  0  0  0  0  0
    4.3040   -3.3940   25.0840 O   0  0  0  0  0  0  0  0  0  0  0  0
    6.1600   -2.7650   26.3210 N   0  0  0  0  0  0  0  0  0  0  0  0
    7.3490   -3.2700   26.8720 C   0  0  0  0  0  0  0  0  0  0  0  0
    8.5250   -3.3150   26.1830 C   0  0  0  0  0  0  0  0  0  0  0  0
    8.5070   -2.7410   24.8560 O   0  0  0  0  0  0  0  0  0  0  0  0
    9.6110   -3.9010   26.8830 N   0  0  0  0  0  0  0  0  0  0  0  0
    9.4120   -4.4880   28.0990 C   0  0  0  0  0  0  0  0  0  0  0  0
    8.7330   -5.6140   27.8360 C   0  0  0  0  0  0  0  0  0  0  0  0
    7.2980   -5.7290   28.2130 C   0  0  0  0  0  0  0  0  0  0  0  0
    8.9190   -6.1160   26.5650 C   0  0  0  0  0  0  0  0  0  0  0  0
    5.6140   -4.8080   23.3070 C   0  0  0  0  0  0  0  0  0  0  0  0
    6.4530   -5.3410   22.3400 C   0  0  0  0  0  0  0  0  0  0  0  0
  1  2  1  0
  2  3  2  0
  2  4  1  0
  4  5  1  0
  5  6  1  0
  6  7  1  0
  7  8  1  0
  8  9  2  0
  8 10  1  0
 10 11  1  0
 11 12  1  0
 12 13  2  0
 12 14  1  0
 14 15  1  0
 15 16  1  0
 16 17  1  0
 16 18  1  0
  7 19  1  0
  4 20  1  0
 19 20  1  0
M  END
