piperidine-amides-35594-covalent
     RDKit          3D

 37 42  0  0  0  0  0  0  0  0999 V2000
    7.0810   -3.3420   19.3720 C   0  0  0  0  0  0  0  0  0  0  0  0
    6.3710   -4.1710   20.3790 C   0  0  0  0  0  0  0  0  0  0  0  0
    5.3910   -4.8030   19.9800 O   0  0  0  0  0  0  0  0  0  0  0  0
    6.8450   -4.2490   21.7000 N   0  0  0  0  0  0  0  0  0  0  0  0
    6.6650   -5.4520   22.4780 C   0  0  0  0  0  0  0  0  0  0  0  0
    6.1100   -5.1180   23.8400 C   0  0  0  0  0  0  0  0  0  0  0  0
    6.1540   -3.6080   24.0950 C   0  0  0  0  0  0  0  0  0  0  0  0
    5.7120   -3.3900   25.4990 C   0  0  0  0  0  0  0  0  0  0  0  0
    4.6220   -3.8830   25.8120 O   0  0  0  0  0  0  0  0  0  0  0  0
    6.4060   -2.6470   26.4940 N   0  0  0  0  0  0  0  0  0  0  0  0
    6.3350   -3.2280   27.8470 C   0  0  0  0  0  0  0  0  0  0  0  0
    6.5010   -2.1900   28.9610 C   0  0  0  0  0  0  0  0  0  0  0  0
    5.5000   -1.6620   29.7390 C   0  0  0  0  0  0  0  0  0  0  0  0
    5.8450   -0.7520   30.6860 C   0  0  0  0  0  0  0  0  0  0  0  0
    7.1690   -0.4430   30.7820 C   0  0  0  0  0  0  0  0  0  0  0  0
    7.8980   -1.3980   29.5780 S   0  0  0  0  0  0  0  0  0  0  0  0
    6.1420   -1.2930   26.9840 C   0  0  0  0  0  0  0  0  0  0  0  0
    6.9060   -0.6570   27.9080 N   0  0  0  0  0  0  0  0  0  0  0  0
    6.5300    0.6410   28.3080 C   0  0  0  0  0  0  0  0  0  0  0  0
    5.4470    1.3400   27.8240 N   0  0  0  0  0  0  0  0  0  0  0  0
    4.8290    0.5540   26.9030 C   0  0  0  0  0  0  0  0  0  0  0  0
    6.0650   -0.5190   27.3620 C   0  0  0  0  0  0  0  0  0  0  0  0
    6.7610    0.3260   28.3970 C   0  0  0  0  0  0  0  0  0  0  0  0
    6.0480    1.4140   28.3680 C   0  0  0  0  0  0  0  0  0  0  0  0
    6.0580    2.7500   29.0720 C   0  0  0  0  0  0  0  0  0  0  0  0
    7.2990    3.1200   29.8890 C   0  0  0  0  0  0  0  0  0  0  0  0
    7.3560    4.3420   30.5540 C   0  0  0  0  0  0  0  0  0  0  0  0
    6.1890    5.2840   30.4560 C   0  0  0  0  0  0  0  0  0  0  0  0
    5.0210    4.9110   29.6730 C   0  0  0  0  0  0  0  0  0  0  0  0
    4.9740    3.5770   28.9580 C   0  0  0  0  0  0  0  0  0  0  0  0
    4.1900    5.8350   29.7340 O   0  0  0  0  0  0  0  0  0  0  0  0
    4.7420    6.9150   30.5670 C   0  0  0  0  0  0  0  0  0  0  0  0
    6.0470    6.5150   31.0250 O   0  0  0  0  0  0  0  0  0  0  0  0
    5.2430    0.8780   27.4150 C   0  0  0  0  0  0  0  0  0  0  0  0
    5.1150   -0.5150   26.5690 C   0  0  0  0  0  0  0  0  0  0  0  0
    7.4370   -2.9910   23.6920 C   0  0  0  0  0  0  0  0  0  0  0  0
    7.6840   -3.1790   22.2180 C   0  0  0  0  0  0  0  0  0  0  0  0
  1  2  1  0
  2  3  2  0
  2  4  1  0
  4  5  1  0
  5  6  1  0
  6  7  1  0
  7  8  1  0
  8  9  2  0
  8 10  1  0
 10 11  1  0
 11 12  1  0
 12 13  2  0
 13 14  1  0
 14 15  2  0
 12 16  1  0
 15 16  1  0
 10 17  1  0
 17 18  2  0
 18 19  1  0
 19 20  2  0
 20 21  1  0
 21 22  1  0
 22 23  2  0
 23 24  1  0
 24 25  1  0
 25 26  2  0
 26 27  1  0
 27 28  2  0
 28 29  1  0
 25 30  1  0
 29 30  2  0
 29 31  1  0
 31 32  1  0
 28 33  1  0
 32 33  1  0
 24 34  2  0
 17 35  1  0
 21 35  2  0
 34 35  1  0
  7 36  1  0
  4 37  1  0
 36 37  1  0
M  END
