piperidine-amides-26889-covalent
     RDKit          3D

 21 23  0  0  0  0  0  0  0  0999 V2000
    7.0470   -3.3960   19.4340 C   0  0  0  0  0  0  0  0  0  0  0  0
    6.3470   -4.2230   20.4240 C   0  0  0  0  0  0  0  0  0  0  0  0
    5.3600   -4.8710   19.9880 O   0  0  0  0  0  0  0  0  0  0  0  0
    6.7880   -4.3140   21.7550 N   0  0  0  0  0  0  0  0  0  0  0  0
    6.5620   -5.4790   22.5820 C   0  0  0  0  0  0  0  0  0  0  0  0
    6.1460   -5.0420   23.9760 C   0  0  0  0  0  0  0  0  0  0  0  0
    5.8200   -3.5600   24.0690 C   0  0  0  0  0  0  0  0  0  0  0  0
    5.3580   -3.1390   25.4480 C   0  0  0  0  0  0  0  0  0  0  0  0
    4.2240   -2.6300   25.5010 O   0  0  0  0  0  0  0  0  0  0  0  0
    6.0560   -3.2720   26.6860 N   0  0  0  0  0  0  0  0  0  0  0  0
    5.2810   -3.2560   27.8970 C   0  0  0  0  0  0  0  0  0  0  0  0
    5.9590   -4.3790   28.5580 C   0  0  0  0  0  0  0  0  0  0  0  0
    7.0340   -4.7540   27.8370 C   0  0  0  0  0  0  0  0  0  0  0  0
    8.1210   -5.7880   28.0860 C   0  0  0  0  0  0  0  0  0  0  0  0
    9.1860   -5.9430   27.0660 C   0  0  0  0  0  0  0  0  0  0  0  0
    8.7410   -5.0560   26.3070 C   0  0  0  0  0  0  0  0  0  0  0  0
    8.8540   -4.0330   24.7030 Br  0  0  0  0  0  0  0  0  0  0  0  0
    7.9050   -5.0380   27.2490 C   0  0  0  0  0  0  0  0  0  0  0  0
    7.2290   -4.0690   26.5780 C   0  0  0  0  0  0  0  0  0  0  0  0
    6.9330   -2.6890   23.5800 C   0  0  0  0  0  0  0  0  0  0  0  0
    7.5460   -3.1700   22.2780 C   0  0  0  0  0  0  0  0  0  0  0  0
  1  2  1  0
  2  3  2  0
  2  4  1  0
  4  5  1  0
  5  6  1  0
  6  7  1  0
  7  8  1  0
  8  9  2  0
  8 10  1  0
 10 11  1  0
 11 12  1  0
 12 13  1  0
 13 14  1  0
 14 15  2  0
 15 16  1  0
 16 17  1  0
 16 18  2  0
 10 19  1  0
 13 19  2  0
 18 19  1  0
  7 20  1  0
  4 21  1  0
 20 21  1  0
M  END
