piperidine-amides-7261-covalent
     RDKit          3D

 20 21  0  0  0  0  0  0  0  0999 V2000
    7.1190   -3.2740   19.1960 C   0  0  0  0  0  0  0  0  0  0  0  0
    6.3780   -4.0190   20.2240 C   0  0  0  0  0  0  0  0  0  0  0  0
    5.2870   -4.5370   19.8770 O   0  0  0  0  0  0  0  0  0  0  0  0
    6.9110   -4.1670   21.5020 N   0  0  0  0  0  0  0  0  0  0  0  0
    7.7750   -3.1670   22.0820 C   0  0  0  0  0  0  0  0  0  0  0  0
    7.1080   -2.6240   23.3030 C   0  0  0  0  0  0  0  0  0  0  0  0
    6.6250   -3.7140   24.2220 C   0  0  0  0  0  0  0  0  0  0  0  0
    5.8410   -3.1110   25.3170 C   0  0  0  0  0  0  0  0  0  0  0  0
    4.5900   -3.1710   25.2680 O   0  0  0  0  0  0  0  0  0  0  0  0
    6.4500   -2.4650   26.4120 N   0  0  0  0  0  0  0  0  0  0  0  0
    6.6630   -3.1730   27.6390 C   0  0  0  0  0  0  0  0  0  0  0  0
    7.8930   -4.0450   27.5730 C   0  0  0  0  0  0  0  0  0  0  0  0
    7.8910   -5.3780   27.3380 C   0  0  2  0  0  0  0  0  0  0  0  0
    9.1370   -5.9270   27.1370 C   0  0  0  0  0  0  0  0  0  0  0  0
    7.2440   -5.7440   26.1340 O   0  0  0  0  0  0  0  0  0  0  0  0
    7.1380   -6.0380   28.2740 C   0  0  0  0  0  0  0  0  0  0  0  0
    5.9520   -6.2710   28.1120 C   0  0  0  0  0  0  0  0  0  0  0  0
    6.2170   -5.4190   29.2240 C   0  0  0  0  0  0  0  0  0  0  0  0
    5.7310   -4.7290   23.4800 C   0  0  0  0  0  0  0  0  0  0  0  0
    6.5250   -5.2910   22.3050 C   0  0  0  0  0  0  0  0  0  0  0  0
  1  2  1  0
  2  3  2  0
  2  4  1  0
  4  5  1  0
  5  6  1  0
  6  7  1  0
  7  8  1  0
  8  9  2  0
  8 10  1  0
 10 11  1  0
 11 12  1  0
 12 13  1  0
 13 14  1  6
 13 15  1  0
 13 16  1  0
 16 17  1  0
 16 18  1  0
 17 18  1  0
  7 19  1  0
  4 20  1  0
 19 20  1  0
M  END
