piperidine-amides-4029-covalent
     RDKit          3D

 28 30  0  0  0  0  0  0  0  0999 V2000
    7.0840   -3.2510   19.1810 C   0  0  0  0  0  0  0  0  0  0  0  0
    6.3790   -4.0300   20.2140 C   0  0  0  0  0  0  0  0  0  0  0  0
    5.2840   -4.5330   19.8830 O   0  0  0  0  0  0  0  0  0  0  0  0
    6.9400   -4.2630   21.4960 N   0  0  0  0  0  0  0  0  0  0  0  0
    7.6490   -3.2070   22.1280 C   0  0  0  0  0  0  0  0  0  0  0  0
    6.9820   -2.7410   23.3240 C   0  0  0  0  0  0  0  0  0  0  0  0
    5.7060   -3.4330   23.6040 C   0  0  0  0  0  0  0  0  0  0  0  0
    5.2010   -3.1530   24.9920 C   0  0  0  0  0  0  0  0  0  0  0  0
    3.9870   -3.2860   25.2310 O   0  0  0  0  0  0  0  0  0  0  0  0
    6.0380   -2.7480   26.0470 N   0  0  0  0  0  0  0  0  0  0  0  0
    6.1470   -3.3610   27.3150 C   0  0  0  0  0  0  0  0  0  0  0  0
    7.0480   -2.8630   28.3290 C   0  0  0  0  0  0  0  0  0  0  0  0
    8.2360   -2.2220   27.6030 C   0  0  0  0  0  0  0  0  0  0  0  0
    8.8010   -3.4310   27.0290 N   0  0  0  0  0  0  0  0  0  0  0  0
    8.2580   -3.5960   25.6970 C   0  0  0  0  0  0  0  0  0  0  0  0
    8.1420   -5.0820   25.4110 C   0  0  0  0  0  0  0  0  0  0  0  0
    9.0250   -5.7250   26.2760 N   0  0  0  0  0  0  0  0  0  0  0  0
   10.2890   -5.3500   26.1880 C   0  0  0  0  0  0  0  0  0  0  0  0
   10.9880   -5.0020   27.4080 C   0  0  0  0  0  0  0  0  0  0  0  0
   12.9670   -4.5030   27.5350 C   0  0  0  0  0  0  0  0  0  0  0  0
   14.0570   -4.2510   26.5160 C   0  0  0  0  0  0  0  0  0  0  0  0
   13.6120   -4.2840   25.2420 C   0  0  0  0  0  0  0  0  0  0  0  0
   14.4360   -3.3150   23.3910 Cl  0  0  0  0  0  0  0  0  0  0  0  0
   11.2100   -5.0720   25.2260 C   0  0  0  0  0  0  0  0  0  0  0  0
    8.4420   -5.7020   27.5870 C   0  0  0  0  0  0  0  0  0  0  0  0
    8.5830   -4.4410   28.1050 C   0  0  0  0  0  0  0  0  0  0  0  0
    5.7440   -4.9260   23.3930 C   0  0  0  0  0  0  0  0  0  0  0  0
    6.5160   -5.3700   22.3100 C   0  0  0  0  0  0  0  0  0  0  0  0
  1  2  1  0
  2  3  2  0
  2  4  1  0
  4  5  1  0
  5  6  1  0
  6  7  1  0
  7  8  1  0
  8  9  2  0
  8 10  1  0
 10 11  1  0
 11 12  1  0
 12 13  1  0
 13 14  1  0
 14 15  1  0
 15 16  1  0
 16 17  1  0
 17 18  1  0
 18 19  2  0
 19 20  1  0
 20 21  2  0
 21 22  1  0
 22 23  1  0
 18 24  1  0
 22 24  2  0
 17 25  1  0
 14 26  1  0
 25 26  1  0
  7 27  1  0
  4 28  1  0
 27 28  1  0
M  END
