piperidine-amides-32-covalent
     RDKit          3D

 23 25  0  0  0  0  0  0  0  0999 V2000
    7.1360   -3.4340   19.3820 C   0  0  0  0  0  0  0  0  0  0  0  0
    6.4600   -4.2330   20.3660 C   0  0  0  0  0  0  0  0  0  0  0  0
    5.3820   -4.8010   19.9940 O   0  0  0  0  0  0  0  0  0  0  0  0
    6.9870   -4.4800   21.6590 N   0  0  0  0  0  0  0  0  0  0  0  0
    7.8450   -3.4780   22.3130 C   0  0  0  0  0  0  0  0  0  0  0  0
    6.7600   -2.6290   23.0680 C   0  0  0  0  0  0  0  0  0  0  0  0
    5.7720   -3.5590   23.7710 C   0  0  0  0  0  0  0  0  0  0  0  0
    5.9130   -3.5890   25.3400 C   0  0  0  0  0  0  0  0  0  0  0  0
    5.8150   -4.7260   25.7530 O   0  0  0  0  0  0  0  0  0  0  0  0
    6.0620   -2.4090   25.7590 N   0  0  0  0  0  0  0  0  0  0  0  0
    6.1460   -1.1560   26.2750 C   0  0  0  0  0  0  0  0  0  0  0  0
    6.3710    0.1040   25.8590 C   0  0  0  0  0  0  0  0  0  0  0  0
    6.3590    1.1660   26.8610 N   0  0  0  0  0  0  0  0  0  0  0  0
    6.1590    1.1560   28.1820 C   0  0  0  0  0  0  0  0  0  0  0  0
    5.8810   -0.1500   28.8090 C   0  0  0  0  0  0  0  0  0  0  0  0
    5.8960   -1.2750   27.7360 C   0  0  0  0  0  0  0  0  0  0  0  0
    5.6080   -2.4420   28.4230 C   0  0  0  0  0  0  0  0  0  0  0  0
    6.1080   -2.5660   29.6830 C   0  0  0  0  0  0  0  0  0  0  0  0
    5.3080   -1.7230   30.5260 N   0  0  0  0  0  0  0  0  0  0  0  0
    5.6160   -0.3760   30.2090 C   0  0  0  0  0  0  0  0  0  0  0  0
    5.6480    0.5290   31.0680 O   0  0  0  0  0  0  0  0  0  0  0  0
    5.3320   -4.8210   23.0670 C   0  0  0  0  0  0  0  0  0  0  0  0
    6.3980   -5.4500   22.4960 C   0  0  0  0  0  0  0  0  0  0  0  0
  1  2  1  0
  2  3  2  0
  2  4  1  0
  4  5  1  0
  5  6  1  0
  6  7  1  0
  7  8  1  0
  8  9  2  0
  8 10  1  0
 10 11  1  0
 11 12  2  0
 12 13  1  0
 13 14  2  0
 14 15  1  0
 11 16  1  0
 15 16  2  0
 16 17  1  0
 17 18  1  0
 18 19  1  0
 15 20  1  0
 19 20  1  0
 20 21  2  0
  7 22  1  0
  4 23  1  0
 22 23  1  0
M  END
