piperidine-amides-6462-covalent
     RDKit          3D

 25 27  0  0  0  0  0  0  0  0999 V2000
    7.0730   -3.2770   19.2950 C   0  0  0  0  0  0  0  0  0  0  0  0
    6.3500   -4.0900   20.2910 C   0  0  0  0  0  0  0  0  0  0  0  0
    5.3470   -4.7520   19.9510 O   0  0  0  0  0  0  0  0  0  0  0  0
    6.7940   -4.1610   21.6220 N   0  0  0  0  0  0  0  0  0  0  0  0
    7.6770   -3.1340   22.1400 C   0  0  0  0  0  0  0  0  0  0  0  0
    7.4610   -3.0300   23.6560 C   0  0  0  0  0  0  0  0  0  0  0  0
    6.0680   -3.5580   23.9060 C   0  0  0  0  0  0  0  0  0  0  0  0
    5.5750   -3.3110   25.2750 C   0  0  0  0  0  0  0  0  0  0  0  0
    4.3620   -3.5130   25.4930 O   0  0  0  0  0  0  0  0  0  0  0  0
    6.4290   -2.8690   26.3100 N   0  0  0  0  0  0  0  0  0  0  0  0
    6.9100   -1.5160   26.3520 C   0  0  0  0  0  0  0  0  0  0  0  0
    5.7610   -0.5270   26.3210 C   0  0  0  0  0  0  0  0  0  0  0  0
    4.6480   -0.7210   25.5380 C   0  0  0  0  0  0  0  0  0  0  0  0
    3.6470    0.2060   25.5490 C   0  0  0  0  0  0  0  0  0  0  0  0
    3.7760    1.3200   26.3480 C   0  0  0  0  0  0  0  0  0  0  0  0
    4.8250    1.6270   27.1650 C   0  0  0  0  0  0  0  0  0  0  0  0
    4.9560    2.7250   27.9520 N   0  0  0  0  0  0  0  0  0  0  0  0
    3.8380    2.9090   28.6110 C   0  0  0  0  0  0  0  0  0  0  0  0
    3.7120    4.3720   28.3420 C   0  0  0  0  0  0  0  0  0  0  0  0
    5.0670    5.0360   28.3820 C   0  0  0  0  0  0  0  0  0  0  0  0
    5.0380    4.0180   27.2980 C   0  0  0  0  0  0  0  0  0  0  0  0
    5.0750    4.3060   26.0700 O   0  0  0  0  0  0  0  0  0  0  0  0
    5.8350    0.6220   27.1100 C   0  0  0  0  0  0  0  0  0  0  0  0
    6.0990   -5.0680   23.7130 C   0  0  0  0  0  0  0  0  0  0  0  0
    6.6550   -5.4010   22.3530 C   0  0  0  0  0  0  0  0  0  0  0  0
  1  2  1  0
  2  3  2  0
  2  4  1  0
  4  5  1  0
  5  6  1  0
  6  7  1  0
  7  8  1  0
  8  9  2  0
  8 10  1  0
 10 11  1  0
 11 12  1  0
 12 13  2  0
 13 14  1  0
 14 15  2  0
 15 16  1  0
 16 17  1  0
 17 18  1  0
 18 19  1  0
 19 20  1  0
 17 21  1  0
 20 21  1  0
 21 22  2  0
 12 23  1  0
 16 23  2  0
  7 24  1  0
  4 25  1  0
 24 25  1  0
M  END
