piperidine-amides-5496-covalent
     RDKit          3D

 20 21  0  0  0  0  0  0  0  0999 V2000
    7.0770   -3.2920   19.2220 C   0  0  0  0  0  0  0  0  0  0  0  0
    6.3280   -4.0440   20.2330 C   0  0  0  0  0  0  0  0  0  0  0  0
    5.2870   -4.6330   19.9060 O   0  0  0  0  0  0  0  0  0  0  0  0
    6.7940   -4.1380   21.5490 N   0  0  0  0  0  0  0  0  0  0  0  0
    7.6210   -3.0990   22.1060 C   0  0  0  0  0  0  0  0  0  0  0  0
    6.9480   -2.7190   23.3880 C   0  0  0  0  0  0  0  0  0  0  0  0
    6.6860   -3.9270   24.2420 C   0  0  0  0  0  0  0  0  0  0  0  0
    6.0480   -3.5640   25.5310 C   0  0  0  0  0  0  0  0  0  0  0  0
    4.7810   -3.4780   25.6190 O   0  0  0  0  0  0  0  0  0  0  0  0
    6.8000   -3.2800   26.7000 N   0  0  0  0  0  0  0  0  0  0  0  0
    7.5230   -4.3320   27.4690 C   0  0  1  0  0  0  0  0  0  0  0  0
    6.7440   -5.5880   27.4480 C   0  0  0  0  0  0  0  0  0  0  0  0
    8.8920   -4.6430   26.8460 C   0  0  0  0  0  0  0  0  0  0  0  0
    9.5650   -3.8040   25.8480 N   0  0  0  0  0  0  0  0  0  0  0  0
   11.0030   -3.9820   25.7720 C   0  0  0  0  0  0  0  0  0  0  0  0
   11.4540   -3.1150   24.7930 N   0  0  0  0  0  0  0  0  0  0  0  0
   10.4060   -2.4400   24.2750 C   0  0  0  0  0  0  0  0  0  0  0  0
    9.2820   -2.8780   24.9350 N   0  0  0  0  0  0  0  0  0  0  0  0
    5.8150   -4.8860   23.4880 C   0  0  0  0  0  0  0  0  0  0  0  0
    6.3930   -5.2890   22.3060 C   0  0  0  0  0  0  0  0  0  0  0  0
  1  2  1  0
  2  3  2  0
  2  4  1  0
  4  5  1  0
  5  6  1  0
  6  7  1  0
  7  8  1  0
  8  9  2  0
  8 10  1  0
 10 11  1  0
 11 12  1  6
 11 13  1  0
 13 14  1  0
 14 15  1  0
 15 16  2  0
 16 17  1  0
 14 18  1  0
 17 18  2  0
  7 19  1  0
  4 20  1  0
 19 20  1  0
M  END
