piperidine-amides-32914-covalent
     RDKit          3D

 28 31  0  0  0  0  0  0  0  0999 V2000
    7.0410   -3.3580   19.3980 C   0  0  0  0  0  0  0  0  0  0  0  0
    6.3870   -4.2660   20.3800 C   0  0  0  0  0  0  0  0  0  0  0  0
    5.3990   -4.9220   20.0000 O   0  0  0  0  0  0  0  0  0  0  0  0
    6.9160   -4.4050   21.6940 N   0  0  0  0  0  0  0  0  0  0  0  0
    6.5830   -5.5230   22.5160 C   0  0  0  0  0  0  0  0  0  0  0  0
    5.5910   -4.9960   23.5680 C   0  0  0  0  0  0  0  0  0  0  0  0
    6.1850   -3.8400   24.3320 C   0  0  0  0  0  0  0  0  0  0  0  0
    5.1660   -3.2280   25.2580 C   0  0  0  0  0  0  0  0  0  0  0  0
    4.1790   -2.7760   24.6860 O   0  0  0  0  0  0  0  0  0  0  0  0
    5.2970   -3.1570   26.6660 N   0  0  0  0  0  0  0  0  0  0  0  0
    4.3060   -3.2460   27.6660 C   0  0  0  0  0  0  0  0  0  0  0  0
    4.5620   -3.8190   28.8970 C   0  0  0  0  0  0  0  0  0  0  0  0
    5.2350   -5.0620   28.6260 N   0  0  0  0  0  0  0  0  0  0  0  0
    4.5580   -6.2840   28.5270 C   0  0  0  0  0  0  0  0  0  0  0  0
    4.5410   -6.8430   29.7730 C   0  0  0  0  0  0  0  0  0  0  0  0
    5.7200   -6.9440   30.6560 C   0  0  0  0  0  0  0  0  0  0  0  0
    5.2250   -7.7120   32.1500 S   0  0  0  0  0  0  0  0  0  0  0  0
    3.5720   -7.9060   31.6320 C   0  0  0  0  0  0  0  0  0  0  0  0
    2.6570   -8.5990   32.6410 C   0  0  0  0  0  0  0  0  0  0  0  0
    1.5370   -9.3150   32.4200 C   0  0  0  0  0  0  0  0  0  0  0  0
    0.8890   -9.8570   33.6050 C   0  0  0  0  0  0  0  0  0  0  0  0
    1.9180   -9.2760   34.5930 C   0  0  0  0  0  0  0  0  0  0  0  0
    2.9690   -8.5230   33.9860 O   0  0  0  0  0  0  0  0  0  0  0  0
    3.3600   -7.4080   30.3900 N   0  0  0  0  0  0  0  0  0  0  0  0
    6.3760   -4.7640   28.0140 C   0  0  0  0  0  0  0  0  0  0  0  0
    6.5300   -3.3990   27.2720 C   0  0  0  0  0  0  0  0  0  0  0  0
    6.8310   -2.7570   23.5020 C   0  0  0  0  0  0  0  0  0  0  0  0
    7.6600   -3.3600   22.3560 C   0  0  0  0  0  0  0  0  0  0  0  0
  1  2  1  0
  2  3  2  0
  2  4  1  0
  4  5  1  0
  5  6  1  0
  6  7  1  0
  7  8  1  0
  8  9  2  0
  8 10  1  0
 10 11  1  0
 11 12  1  0
 12 13  1  0
 13 14  1  0
 14 15  1  0
 15 16  2  0
 16 17  1  0
 17 18  1  0
 18 19  1  0
 19 20  2  0
 20 21  1  0
 21 22  2  0
 19 23  1  0
 22 23  1  0
 15 24  1  0
 18 24  2  0
 13 25  1  0
 10 26  1  0
 25 26  1  0
  7 27  1  0
  4 28  1  0
 27 28  1  0
M  END
