piperidine-amides-10857-covalent
     RDKit          3D

 22 24  0  0  0  0  0  0  0  0999 V2000
    7.1200   -3.2980   19.2650 C   0  0  0  0  0  0  0  0  0  0  0  0
    6.3410   -4.0130   20.2730 C   0  0  0  0  0  0  0  0  0  0  0  0
    5.3210   -4.6230   19.9220 O   0  0  0  0  0  0  0  0  0  0  0  0
    6.7680   -4.0570   21.6140 N   0  0  0  0  0  0  0  0  0  0  0  0
    7.7210   -3.0920   22.1210 C   0  0  0  0  0  0  0  0  0  0  0  0
    7.4270   -2.9200   23.5850 C   0  0  0  0  0  0  0  0  0  0  0  0
    6.1000   -3.5140   23.9310 C   0  0  0  0  0  0  0  0  0  0  0  0
    5.6250   -3.2070   25.3090 C   0  0  0  0  0  0  0  0  0  0  0  0
    4.4220   -2.8660   25.5010 O   0  0  0  0  0  0  0  0  0  0  0  0
    6.4530   -3.2600   26.4510 N   0  0  0  0  0  0  0  0  0  0  0  0
    6.0520   -4.0100   27.6720 C   0  0  0  0  0  0  0  0  0  0  0  0
    5.6580   -5.4020   27.3200 C   0  0  0  0  0  0  0  0  0  0  0  0
    4.4490   -5.6330   26.4900 C   0  0  0  0  0  0  0  0  0  0  0  0
    4.4460   -6.6730   25.3930 N   0  0  0  0  0  0  0  0  0  0  0  0
    3.0860   -6.6240   24.7840 C   0  0  0  0  0  0  0  0  0  0  0  0
    2.1620   -5.6820   25.3300 C   0  0  0  0  0  0  0  0  0  0  0  0
    2.9020   -4.7620   26.6610 S   0  0  0  0  0  0  0  0  0  0  0  0
    0.9060   -5.7780   24.6150 C   0  0  0  0  0  0  0  0  0  0  0  0
    1.1140   -6.7390   23.6330 C   0  0  0  0  0  0  0  0  0  0  0  0
    2.4120   -7.3850   23.6520 C   0  0  0  0  0  0  0  0  0  0  0  0
    6.0540   -5.0280   23.6960 C   0  0  0  0  0  0  0  0  0  0  0  0
    6.6240   -5.3280   22.2990 C   0  0  0  0  0  0  0  0  0  0  0  0
  1  2  1  0
  2  3  2  0
  2  4  1  0
  4  5  1  0
  5  6  1  0
  6  7  1  0
  7  8  1  0
  8  9  2  0
  8 10  1  0
 10 11  1  0
 11 12  1  0
 12 13  1  0
 13 14  2  0
 14 15  1  0
 15 16  2  0
 13 17  1  0
 16 17  1  0
 16 18  1  0
 18 19  1  0
 15 20  1  0
 19 20  1  0
  7 21  1  0
  4 22  1  0
 21 22  1  0
M  END
