piperidine-amides-19402-covalent
     RDKit          3D

 22 24  0  0  0  0  0  0  0  0999 V2000
    7.0590   -3.4010   19.2870 C   0  0  0  0  0  0  0  0  0  0  0  0
    6.3980   -4.1720   20.3090 C   0  0  0  0  0  0  0  0  0  0  0  0
    5.3410   -4.7860   19.9720 O   0  0  0  0  0  0  0  0  0  0  0  0
    6.9050   -4.3320   21.6110 N   0  0  0  0  0  0  0  0  0  0  0  0
    6.6880   -5.6160   22.2990 C   0  0  0  0  0  0  0  0  0  0  0  0
    5.7020   -5.1090   23.4060 C   0  0  0  0  0  0  0  0  0  0  0  0
    6.4940   -4.1230   24.2400 C   0  0  0  0  0  0  0  0  0  0  0  0
    5.6090   -3.6110   25.4460 C   0  0  0  0  0  0  0  0  0  0  0  0
    4.8080   -2.7580   25.0920 O   0  0  0  0  0  0  0  0  0  0  0  0
    5.9790   -4.2400   26.4720 N   0  0  0  0  0  0  0  0  0  0  0  0
    6.6970   -5.0010   27.3010 C   0  0  0  0  0  0  0  0  0  0  0  0
    6.6990   -6.1870   27.8530 C   0  0  0  0  0  0  0  0  0  0  0  0
    5.7310   -6.0950   28.8410 C   0  0  0  0  0  0  0  0  0  0  0  0
    5.4980   -7.0500   29.9360 C   0  0  0  0  0  0  0  0  0  0  0  0
    4.3290   -6.6830   30.8570 C   0  0  0  0  0  0  0  0  0  0  0  0
    3.9900   -7.5020   31.9380 F   0  0  0  0  0  0  0  0  0  0  0  0
    3.5890   -5.5130   30.6120 C   0  0  0  0  0  0  0  0  0  0  0  0
    3.5930   -4.4560   29.6780 C   0  0  0  0  0  0  0  0  0  0  0  0
    4.7790   -4.9310   28.8330 C   0  0  0  0  0  0  0  0  0  0  0  0
    5.1290   -3.9860   27.6140 C   0  0  0  0  0  0  0  0  0  0  0  0
    7.0220   -2.9270   23.4190 C   0  0  0  0  0  0  0  0  0  0  0  0
    7.6900   -3.3160   22.2950 C   0  0  0  0  0  0  0  0  0  0  0  0
  1  2  1  0
  2  3  2  0
  2  4  1  0
  4  5  1  0
  5  6  1  0
  6  7  1  0
  7  8  1  0
  8  9  2  0
  8 10  1  0
 10 11  1  0
 11 12  1  0
 12 13  1  0
 13 14  2  0
 14 15  1  0
 15 16  1  0
 15 17  2  0
 17 18  1  0
 13 19  1  0
 18 19  2  0
 10 20  1  0
 19 20  1  0
  7 21  1  0
  4 22  1  0
 21 22  1  0
M  END
