piperidine-amides-11098-covalent
     RDKit          3D

 20 21  0  0  0  0  0  0  0  0999 V2000
    7.0330   -3.3340   19.3280 C   0  0  0  0  0  0  0  0  0  0  0  0
    6.3540   -4.1470   20.3420 C   0  0  0  0  0  0  0  0  0  0  0  0
    5.4050   -4.8690   19.9890 O   0  0  0  0  0  0  0  0  0  0  0  0
    6.7790   -4.1600   21.6850 N   0  0  0  0  0  0  0  0  0  0  0  0
    7.7240   -3.1730   22.1810 C   0  0  0  0  0  0  0  0  0  0  0  0
    7.3760   -2.9070   23.6150 C   0  0  0  0  0  0  0  0  0  0  0  0
    6.1020   -3.5870   23.9910 C   0  0  0  0  0  0  0  0  0  0  0  0
    5.6580   -3.2870   25.3750 C   0  0  0  0  0  0  0  0  0  0  0  0
    4.4270   -3.3300   25.6610 O   0  0  0  0  0  0  0  0  0  0  0  0
    6.5420   -2.9410   26.4180 N   0  0  0  0  0  0  0  0  0  0  0  0
    6.4520   -1.6160   27.0730 C   0  0  0  0  0  0  0  0  0  0  0  0
    5.8970   -0.4720   26.3480 C   0  0  0  0  0  0  0  0  0  0  0  0
    5.7970    0.8450   26.9940 C   0  0  0  0  0  0  0  0  0  0  0  0
    5.0510    2.2550   25.9340 Br  0  0  0  0  0  0  0  0  0  0  0  0
    6.2710    1.0170   28.4160 C   0  0  0  0  0  0  0  0  0  0  0  0
    6.8520   -0.1600   29.1840 C   0  0  0  0  0  0  0  0  0  0  0  0
    7.4910    0.1580   31.1760 I   0  0  0  0  0  0  0  0  0  0  0  0
    6.9210   -1.4620   28.4590 C   0  0  0  0  0  0  0  0  0  0  0  0
    6.2440   -5.0740   23.7480 C   0  0  0  0  0  0  0  0  0  0  0  0
    6.5920   -5.3930   22.4220 C   0  0  0  0  0  0  0  0  0  0  0  0
  1  2  1  0
  2  3  2  0
  2  4  1  0
  4  5  1  0
  5  6  1  0
  6  7  1  0
  7  8  1  0
  8  9  2  0
  8 10  1  0
 10 11  1  0
 11 12  2  0
 12 13  1  0
 13 14  1  0
 13 15  2  0
 15 16  1  0
 16 17  1  0
 11 18  1  0
 16 18  2  0
  7 19  1  0
  4 20  1  0
 19 20  1  0
M  END
