piperidine-amides-27616-covalent
     RDKit          3D

 26 29  0  0  0  0  0  0  0  0999 V2000
    7.0790   -3.2980   19.2750 C   0  0  0  0  0  0  0  0  0  0  0  0
    6.3770   -4.0810   20.2990 C   0  0  0  0  0  0  0  0  0  0  0  0
    5.3170   -4.6480   19.9250 O   0  0  0  0  0  0  0  0  0  0  0  0
    6.8920   -4.2190   21.5980 N   0  0  0  0  0  0  0  0  0  0  0  0
    6.6090   -5.3980   22.3850 C   0  0  0  0  0  0  0  0  0  0  0  0
    5.9070   -4.9510   23.6380 C   0  0  0  0  0  0  0  0  0  0  0  0
    5.8300   -3.4490   23.7230 C   0  0  0  0  0  0  0  0  0  0  0  0
    5.2040   -3.0320   25.0020 C   0  0  0  0  0  0  0  0  0  0  0  0
    4.2960   -3.7500   25.4630 O   0  0  0  0  0  0  0  0  0  0  0  0
    5.5890   -1.8780   25.7140 N   0  0  0  0  0  0  0  0  0  0  0  0
    6.8540   -1.9280   26.2900 C   0  0  0  0  0  0  0  0  0  0  0  0
    6.1270   -1.3980   27.4510 C   0  0  0  0  0  0  0  0  0  0  0  0
    6.2800   -1.7840   28.7620 C   0  0  0  0  0  0  0  0  0  0  0  0
    7.1130   -0.9850   29.5620 C   0  0  0  0  0  0  0  0  0  0  0  0
    7.1510    0.2390   29.0380 O   0  0  0  0  0  0  0  0  0  0  0  0
    6.0630    0.6220   28.4280 C   0  0  0  0  0  0  0  0  0  0  0  0
    5.5930   -0.1250   27.3830 C   0  0  0  0  0  0  0  0  0  0  0  0
    4.8470   -1.3180   26.8690 C   0  0  2  0  0  0  0  0  0  0  0  0
    3.6930   -2.1640   27.3600 C   0  0  0  0  0  0  0  0  0  0  0  0
    4.2120   -3.4530   27.9650 C   0  0  0  0  0  0  0  0  0  0  0  0
    3.2370   -4.4460   28.5160 C   0  0  0  0  0  0  0  0  0  0  0  0
    1.7530   -4.1070   28.4410 C   0  0  0  0  0  0  0  0  0  0  0  0
    1.2740   -2.9230   27.8850 C   0  0  0  0  0  0  0  0  0  0  0  0
    2.3080   -1.9360   27.3320 C   0  0  0  0  0  0  0  0  0  0  0  0
    7.1980   -2.8540   23.5780 C   0  0  0  0  0  0  0  0  0  0  0  0
    7.7140   -3.1580   22.1650 C   0  0  0  0  0  0  0  0  0  0  0  0
  1  2  1  0
  2  3  2  0
  2  4  1  0
  4  5  1  0
  5  6  1  0
  6  7  1  0
  7  8  1  0
  8  9  2  0
  8 10  1  0
 10 11  1  0
 12 11  1  0
 12 13  1  0
 13 14  1  0
 14 15  1  0
 15 16  1  0
 12 17  1  0
 16 17  1  0
 10 18  1  0
 12 18  1  0
 18 19  1  1
 19 20  2  0
 20 21  1  0
 21 22  2  0
 22 23  1  0
 19 24  1  0
 23 24  2  0
  7 25  1  0
  4 26  1  0
 25 26  1  0
M  END
