piperidine-amides-3589-covalent
     RDKit          3D

 18 19  0  0  0  0  0  0  0  0999 V2000
    7.0690   -3.3270   19.3380 C   0  0  0  0  0  0  0  0  0  0  0  0
    6.4040   -4.1630   20.3570 C   0  0  0  0  0  0  0  0  0  0  0  0
    5.3840   -4.7880   19.9730 O   0  0  0  0  0  0  0  0  0  0  0  0
    6.9080   -4.3060   21.6830 N   0  0  0  0  0  0  0  0  0  0  0  0
    7.7020   -3.2540   22.2280 C   0  0  0  0  0  0  0  0  0  0  0  0
    7.3500   -2.9560   23.6020 C   0  0  0  0  0  0  0  0  0  0  0  0
    6.1490   -3.6970   24.0190 C   0  0  0  0  0  0  0  0  0  0  0  0
    5.6370   -3.3110   25.3870 C   0  0  0  0  0  0  0  0  0  0  0  0
    4.4180   -3.4300   25.6050 O   0  0  0  0  0  0  0  0  0  0  0  0
    6.4450   -2.8110   26.4360 N   0  0  0  0  0  0  0  0  0  0  0  0
    6.7430   -1.4560   26.7490 C   0  0  1  0  0  0  0  0  0  0  0  0
    5.7630   -0.3990   26.5740 C   0  0  0  0  0  0  0  0  0  0  0  0
    6.0090    0.6600   27.6640 C   0  0  0  0  0  0  0  0  0  0  0  0
    6.8380    0.0500   28.5910 O   0  0  0  0  0  0  0  0  0  0  0  0
    7.1810   -1.2380   28.1670 C   0  0  1  0  0  0  0  0  0  0  0  0
    6.5540   -2.2470   29.1170 C   0  0  0  0  0  0  0  0  0  0  0  0
    6.2410   -5.1810   23.8850 C   0  0  0  0  0  0  0  0  0  0  0  0
    6.5750   -5.5230   22.4090 C   0  0  0  0  0  0  0  0  0  0  0  0
  1  2  1  0
  2  3  2  0
  2  4  1  0
  4  5  1  0
  5  6  1  0
  6  7  1  0
  7  8  1  0
  8  9  2  0
  8 10  1  0
 11 10  1  1
 11 12  1  0
 12 13  1  0
 13 14  1  0
 11 15  1  0
 14 15  1  0
 15 16  1  1
  7 17  1  0
  4 18  1  0
 17 18  1  0
M  END
