piperidine-amides-28049-covalent
     RDKit          3D

 26 28  0  0  0  0  0  0  0  0999 V2000
    7.1020   -3.3260   19.2630 C   0  0  0  0  0  0  0  0  0  0  0  0
    6.4150   -4.1480   20.2780 C   0  0  0  0  0  0  0  0  0  0  0  0
    5.3540   -4.7120   19.9420 O   0  0  0  0  0  0  0  0  0  0  0  0
    6.9870   -4.3130   21.5410 N   0  0  0  0  0  0  0  0  0  0  0  0
    6.6010   -5.4020   22.3630 C   0  0  0  0  0  0  0  0  0  0  0  0
    6.1770   -5.0070   23.7130 C   0  0  0  0  0  0  0  0  0  0  0  0
    6.7330   -3.7260   24.2270 C   0  0  0  0  0  0  0  0  0  0  0  0
    5.8970   -3.2050   25.3290 C   0  0  0  0  0  0  0  0  0  0  0  0
    5.1530   -2.2360   25.0980 O   0  0  0  0  0  0  0  0  0  0  0  0
    5.8770   -3.7890   26.5980 N   0  0  0  0  0  0  0  0  0  0  0  0
    4.7580   -4.6770   26.8420 C   0  0  0  0  0  0  0  0  0  0  0  0
    5.2080   -5.7690   27.7050 C   0  0  0  0  0  0  0  0  0  0  0  0
    5.9460   -5.4170   28.8090 N   0  0  0  0  0  0  0  0  0  0  0  0
    5.2630   -5.6140   30.0620 C   0  0  0  0  0  0  0  0  0  0  0  0
    4.1410   -5.0730   30.3390 O   0  0  0  0  0  0  0  0  0  0  0  0
    5.8120   -6.4150   31.0380 O   0  0  0  0  0  0  0  0  0  0  0  0
    5.1140   -6.9170   32.1870 C   0  0  0  0  0  0  0  0  0  0  0  0
    4.0810   -6.2070   32.7530 C   0  0  0  0  0  0  0  0  0  0  0  0
    3.4630   -6.7470   33.8490 C   0  0  0  0  0  0  0  0  0  0  0  0
    3.8770   -7.9590   34.3490 C   0  0  0  0  0  0  0  0  0  0  0  0
    4.9110   -8.6560   33.7740 C   0  0  0  0  0  0  0  0  0  0  0  0
    5.5370   -8.1080   32.6630 C   0  0  0  0  0  0  0  0  0  0  0  0
    6.6330   -4.1260   28.9150 C   0  0  0  0  0  0  0  0  0  0  0  0
    6.3300   -3.1720   27.7560 C   0  0  0  0  0  0  0  0  0  0  0  0
    6.9110   -2.6960   23.1210 C   0  0  0  0  0  0  0  0  0  0  0  0
    7.7530   -3.2550   22.1560 C   0  0  0  0  0  0  0  0  0  0  0  0
  1  2  1  0
  2  3  2  0
  2  4  1  0
  4  5  1  0
  5  6  1  0
  6  7  1  0
  7  8  1  0
  8  9  2  0
  8 10  1  0
 10 11  1  0
 11 12  1  0
 12 13  1  0
 13 14  1  0
 14 15  2  0
 14 16  1  0
 16 17  1  0
 17 18  2  0
 18 19  1  0
 19 20  2  0
 20 21  1  0
 17 22  1  0
 21 22  2  0
 13 23  1  0
 10 24  1  0
 23 24  1  0
  7 25  1  0
  4 26  1  0
 25 26  1  0
M  END
