piperidine-amides-6367-covalent
     RDKit          3D

 25 27  0  0  0  0  0  0  0  0999 V2000
    7.0460   -3.3250   19.3760 C   0  0  0  0  0  0  0  0  0  0  0  0
    6.3860   -4.1990   20.3660 C   0  0  0  0  0  0  0  0  0  0  0  0
    5.4140   -4.9030   19.9990 O   0  0  0  0  0  0  0  0  0  0  0  0
    6.8440   -4.2930   21.6960 N   0  0  0  0  0  0  0  0  0  0  0  0
    6.5660   -5.5080   22.4290 C   0  0  0  0  0  0  0  0  0  0  0  0
    6.1420   -5.1100   23.8530 C   0  0  0  0  0  0  0  0  0  0  0  0
    6.0590   -3.5990   23.8990 C   0  0  0  0  0  0  0  0  0  0  0  0
    5.5390   -3.1220   25.2090 C   0  0  0  0  0  0  0  0  0  0  0  0
    4.3140   -2.8870   25.2750 O   0  0  0  0  0  0  0  0  0  0  0  0
    6.3660   -2.9510   26.3500 N   0  0  0  0  0  0  0  0  0  0  0  0
    6.7550   -1.6410   26.8390 C   0  0  1  0  0  0  0  0  0  0  0  0
    5.7180   -0.6110   26.5120 C   0  0  0  0  0  0  0  0  0  0  0  0
    5.3970    0.0520   27.6460 C   0  0  0  0  0  0  0  0  0  0  0  0
    5.8770   -0.7580   28.7060 N   0  0  0  0  0  0  0  0  0  0  0  0
    5.7510   -0.4200   30.0670 C   0  0  0  0  0  0  0  0  0  0  0  0
    4.6890   -1.0190   30.6910 C   0  0  0  0  0  0  0  0  0  0  0  0
    4.3800   -0.8330   32.0290 C   0  0  0  0  0  0  0  0  0  0  0  0
    5.0140   -0.0040   33.1720 C   0  0  0  0  0  0  0  0  0  0  0  0
    4.6360    0.2380   34.8540 Cl  0  0  0  0  0  0  0  0  0  0  0  0
    6.1300    0.5560   32.2860 C   0  0  0  0  0  0  0  0  0  0  0  0
    6.4810    0.3730   30.8520 C   0  0  0  0  0  0  0  0  0  0  0  0
    7.5460    1.0090   30.3370 F   0  0  0  0  0  0  0  0  0  0  0  0
    7.0170   -1.5380   28.2110 C   0  0  0  0  0  0  0  0  0  0  0  0
    7.4100   -3.0330   23.5860 C   0  0  0  0  0  0  0  0  0  0  0  0
    7.6360   -3.2320   22.2540 C   0  0  0  0  0  0  0  0  0  0  0  0
  1  2  1  0
  2  3  2  0
  2  4  1  0
  4  5  1  0
  5  6  1  0
  6  7  1  0
  7  8  1  0
  8  9  2  0
  8 10  1  0
 11 10  1  1
 11 12  1  0
 12 13  1  0
 13 14  1  0
 14 15  1  0
 15 16  2  0
 16 17  1  0
 17 18  2  0
 18 19  1  0
 18 20  1  0
 15 21  1  0
 20 21  2  0
 21 22  1  0
 11 23  1  0
 14 23  1  0
  7 24  1  0
  4 25  1  0
 24 25  1  0
M  END
