piperidine-amides-14000-covalent
     RDKit          3D

 25 26  0  0  0  0  0  0  0  0999 V2000
    7.0930   -3.3420   19.3190 C   0  0  0  0  0  0  0  0  0  0  0  0
    6.4080   -4.2170   20.3080 C   0  0  0  0  0  0  0  0  0  0  0  0
    5.3640   -4.8010   19.9710 O   0  0  0  0  0  0  0  0  0  0  0  0
    6.9880   -4.4030   21.5790 N   0  0  0  0  0  0  0  0  0  0  0  0
    6.5510   -5.4780   22.4210 C   0  0  0  0  0  0  0  0  0  0  0  0
    5.6500   -4.8280   23.4750 C   0  0  0  0  0  0  0  0  0  0  0  0
    6.4500   -3.7750   24.1830 C   0  0  0  0  0  0  0  0  0  0  0  0
    5.7840   -3.3400   25.4260 C   0  0  0  0  0  0  0  0  0  0  0  0
    4.5480   -3.3990   25.4430 O   0  0  0  0  0  0  0  0  0  0  0  0
    6.5520   -2.9000   26.5010 N   0  0  0  0  0  0  0  0  0  0  0  0
    6.4890   -1.6690   27.2030 C   0  0  0  0  0  0  0  0  0  0  0  0
    7.0070   -1.5310   28.4720 C   0  0  0  0  0  0  0  0  0  0  0  0
    6.9680   -0.3420   29.2170 C   0  0  0  0  0  0  0  0  0  0  0  0
    6.3960    0.8130   28.7260 C   0  0  0  0  0  0  0  0  0  0  0  0
    6.3650    2.0600   29.5350 C   0  0  0  0  0  0  0  0  0  0  0  0
    5.5930    1.9750   30.8620 C   0  0  0  0  0  0  0  0  0  0  0  0
    5.6160    0.7850   31.5780 O   0  0  0  0  0  0  0  0  0  0  0  0
    4.8640    3.0210   31.3950 O   0  0  0  0  0  0  0  0  0  0  0  0
    3.8220    2.7970   32.3540 C   0  0  0  0  0  0  0  0  0  0  0  0
    5.8640    0.7750   27.4830 C   0  0  0  0  0  0  0  0  0  0  0  0
    5.8810   -0.4490   26.6650 C   0  0  0  0  0  0  0  0  0  0  0  0
    5.3240   -0.4260   25.4150 O   0  0  0  0  0  0  0  0  0  0  0  0
    4.0810   -1.0160   25.1320 C   0  0  0  0  0  0  0  0  0  0  0  0
    6.7470   -2.7010   23.2280 C   0  0  0  0  0  0  0  0  0  0  0  0
    7.7060   -3.3260   22.2110 C   0  0  0  0  0  0  0  0  0  0  0  0
  1  2  1  0
  2  3  2  0
  2  4  1  0
  4  5  1  0
  5  6  1  0
  6  7  1  0
  7  8  1  0
  8  9  2  0
  8 10  1  0
 10 11  1  0
 11 12  2  0
 12 13  1  0
 13 14  2  0
 14 15  1  0
 15 16  1  0
 16 17  2  0
 16 18  1  0
 18 19  1  0
 14 20  1  0
 11 21  1  0
 20 21  2  0
 21 22  1  0
 22 23  1  0
  7 24  1  0
  4 25  1  0
 24 25  1  0
M  END
