piperidine-amides-11541-covalent
     RDKit          3D

 23 23  0  0  0  0  0  0  0  0999 V2000
    7.1270   -3.2650   19.1690 C   0  0  0  0  0  0  0  0  0  0  0  0
    6.3640   -3.9910   20.1860 C   0  0  0  0  0  0  0  0  0  0  0  0
    5.2890   -4.5310   19.8730 O   0  0  0  0  0  0  0  0  0  0  0  0
    6.8480   -4.1310   21.4920 N   0  0  0  0  0  0  0  0  0  0  0  0
    7.7350   -3.1580   22.0920 C   0  0  0  0  0  0  0  0  0  0  0  0
    7.1820   -2.8980   23.4600 C   0  0  0  0  0  0  0  0  0  0  0  0
    5.8210   -3.5050   23.6210 C   0  0  0  0  0  0  0  0  0  0  0  0
    5.2520   -3.2070   24.9480 C   0  0  0  0  0  0  0  0  0  0  0  0
    4.0180   -3.3530   25.1790 O   0  0  0  0  0  0  0  0  0  0  0  0
    6.0420   -2.7450   26.0040 N   0  0  0  0  0  0  0  0  0  0  0  0
    6.8050   -3.7130   26.8000 C   0  0  0  0  0  0  0  0  0  0  0  0
    6.1460   -5.0230   26.6670 C   0  0  0  0  0  0  0  0  0  0  0  0
    6.2740   -5.9570   27.7780 C   0  0  0  0  0  0  0  0  0  0  0  0
    7.6960   -5.9710   28.2260 C   0  0  0  0  0  0  0  0  0  0  0  0
    8.6370   -5.7540   27.0560 C   0  0  0  0  0  0  0  0  0  0  0  0
    9.3090   -4.4670   27.3000 C   0  0  0  0  0  0  0  0  0  0  0  0
    8.7730   -3.7340   28.3330 C   0  0  0  0  0  0  0  0  0  0  0  0
    8.5420   -2.3490   28.2910 C   0  0  0  0  0  0  0  0  0  0  0  0
    8.9950   -1.6340   29.3980 O   0  0  0  0  0  0  0  0  0  0  0  0
    7.8780   -1.7710   27.2250 O   0  0  0  0  0  0  0  0  0  0  0  0
    6.7760   -0.9350   27.4790 C   0  0  0  0  0  0  0  0  0  0  0  0
    5.7410   -4.9960   23.3990 C   0  0  0  0  0  0  0  0  0  0  0  0
    6.6120   -5.3530   22.2230 C   0  0  0  0  0  0  0  0  0  0  0  0
  1  2  1  0
  2  3  2  0
  2  4  1  0
  4  5  1  0
  5  6  1  0
  6  7  1  0
  7  8  1  0
  8  9  2  0
  8 10  1  0
 10 11  1  0
 11 12  1  0
 12 13  1  0
 13 14  1  0
 14 15  1  0
 15 16  1  0
 16 17  1  0
 17 18  1  0
 18 19  2  0
 18 20  1  0
 20 21  1  0
  7 22  1  0
  4 23  1  0
 22 23  1  0
M  END
