piperidine-amides-31650-covalent
     RDKit          3D

 28 30  0  0  0  0  0  0  0  0999 V2000
    7.0790   -3.3360   19.4580 C   0  0  0  0  0  0  0  0  0  0  0  0
    6.4100   -4.1790   20.4260 C   0  0  0  0  0  0  0  0  0  0  0  0
    5.4650   -4.9280   20.0070 O   0  0  0  0  0  0  0  0  0  0  0  0
    6.7860   -4.2070   21.7930 N   0  0  0  0  0  0  0  0  0  0  0  0
    6.6350   -5.5110   22.5020 C   0  0  0  0  0  0  0  0  0  0  0  0
    5.9210   -5.1510   23.8870 C   0  0  0  0  0  0  0  0  0  0  0  0
    5.9940   -3.6470   24.0860 C   0  0  0  0  0  0  0  0  0  0  0  0
    4.9760   -3.0400   25.1950 C   0  0  0  0  0  0  0  0  0  0  0  0
    3.9640   -2.7150   24.6130 O   0  0  0  0  0  0  0  0  0  0  0  0
    5.4130   -3.0250   26.4080 N   0  0  0  0  0  0  0  0  0  0  0  0
    5.6730   -2.6760   27.7120 C   0  0  0  0  0  0  0  0  0  0  0  0
    5.6480   -3.2630   28.9720 C   0  0  0  0  0  0  0  0  0  0  0  0
    6.2700   -4.5320   29.0560 C   0  0  0  0  0  0  0  0  0  0  0  0
    5.6500   -5.5100   28.4520 N   0  0  0  0  0  0  0  0  0  0  0  0
    4.4530   -5.7410   29.1080 C   0  0  0  0  0  0  0  0  0  0  0  0
    4.5680   -7.1300   29.7540 C   0  0  0  0  0  0  0  0  0  0  0  0
    3.5420   -7.5760   28.9170 C   0  0  0  0  0  0  0  0  0  0  0  0
    4.0130   -7.5040   27.5280 C   0  0  0  0  0  0  0  0  0  0  0  0
    2.8250   -8.0190   26.6630 C   0  0  0  0  0  0  0  0  0  0  0  0
    1.4340   -8.5150   27.0660 C   0  0  0  0  0  0  0  0  0  0  0  0
    0.5720   -8.9130   26.2480 O   0  0  0  0  0  0  0  0  0  0  0  0
    0.8000  -10.0670   25.4720 C   0  0  0  0  0  0  0  0  0  0  0  0
    1.2220   -8.4860   28.4550 C   0  0  0  0  0  0  0  0  0  0  0  0
    2.1690   -8.0640   29.2820 C   0  0  0  0  0  0  0  0  0  0  0  0
    5.6890   -5.4310   27.0280 C   0  0  0  0  0  0  0  0  0  0  0  0
    6.1150   -4.1870   26.6060 C   0  0  0  0  0  0  0  0  0  0  0  0
    7.2940   -2.9900   23.8090 C   0  0  0  0  0  0  0  0  0  0  0  0
    7.6930   -3.2520   22.3930 C   0  0  0  0  0  0  0  0  0  0  0  0
  1  2  1  0
  2  3  2  0
  2  4  1  0
  4  5  1  0
  5  6  1  0
  6  7  1  0
  7  8  1  0
  8  9  2  0
  8 10  1  0
 10 11  1  0
 11 12  1  0
 12 13  1  0
 13 14  1  0
 14 15  1  0
 15 16  1  0
 16 17  1  0
 17 18  2  0
 18 19  1  0
 19 20  2  0
 20 21  1  0
 21 22  1  0
 20 23  1  0
 17 24  1  0
 23 24  2  0
 14 25  1  0
 10 26  1  0
 25 26  1  0
  7 27  1  0
  4 28  1  0
 27 28  1  0
M  END
