piperidine-amides-10334-covalent
     RDKit          3D

 24 25  0  0  0  0  0  0  0  0999 V2000
    7.0380   -3.3070   19.2800 C   0  0  0  0  0  0  0  0  0  0  0  0
    6.2500   -4.0790   20.2550 C   0  0  0  0  0  0  0  0  0  0  0  0
    5.1670   -4.5460   19.8490 O   0  0  0  0  0  0  0  0  0  0  0  0
    6.7080   -4.3210   21.5440 N   0  0  0  0  0  0  0  0  0  0  0  0
    6.2260   -5.4050   22.3510 C   0  0  0  0  0  0  0  0  0  0  0  0
    5.9630   -4.8450   23.7290 C   0  0  0  0  0  0  0  0  0  0  0  0
    5.4750   -3.4050   23.7010 C   0  0  0  0  0  0  0  0  0  0  0  0
    5.0560   -2.9590   25.0670 C   0  0  0  0  0  0  0  0  0  0  0  0
    4.4930   -3.8050   25.7890 O   0  0  0  0  0  0  0  0  0  0  0  0
    5.2220   -1.6510   25.6120 N   0  0  0  0  0  0  0  0  0  0  0  0
    6.2060   -1.4560   26.6350 C   0  0  0  0  0  0  0  0  0  0  0  0
    7.1660   -2.5260   26.3450 C   0  0  0  0  0  0  0  0  0  0  0  0
    7.8960   -2.5420   25.1770 C   0  0  0  0  0  0  0  0  0  0  0  0
    8.7550   -3.5380   24.8750 C   0  0  0  0  0  0  0  0  0  0  0  0
    9.3980   -3.4570   23.7240 O   0  0  0  0  0  0  0  0  0  0  0  0
    9.4270   -2.2540   23.1900 C   0  0  0  0  0  0  0  0  0  0  0  0
    8.9200   -4.6460   25.8380 C   0  0  0  0  0  0  0  0  0  0  0  0
    9.6600   -5.5650   25.6440 O   0  0  0  0  0  0  0  0  0  0  0  0
    9.5460   -6.4500   26.6960 C   0  0  0  0  0  0  0  0  0  0  0  0
    8.1250   -4.6180   27.1270 C   0  0  0  0  0  0  0  0  0  0  0  0
    7.1920   -3.4760   27.3810 C   0  0  0  0  0  0  0  0  0  0  0  0
    6.4090   -3.3330   28.5060 F   0  0  0  0  0  0  0  0  0  0  0  0
    6.4750   -2.4550   23.0110 C   0  0  0  0  0  0  0  0  0  0  0  0
    7.4670   -3.3110   22.2400 C   0  0  0  0  0  0  0  0  0  0  0  0
  1  2  1  0
  2  3  2  0
  2  4  1  0
  4  5  1  0
  5  6  1  0
  6  7  1  0
  7  8  1  0
  8  9  2  0
  8 10  1  0
 10 11  1  0
 11 12  1  0
 12 13  2  0
 13 14  1  0
 14 15  1  0
 15 16  1  0
 14 17  2  0
 17 18  1  0
 18 19  1  0
 17 20  1  0
 12 21  1  0
 20 21  2  0
 21 22  1  0
  7 23  1  0
  4 24  1  0
 23 24  1  0
M  END
