piperidine-amides-1240-covalent
     RDKit          3D

 23 24  0  0  0  0  0  0  0  0999 V2000
    7.1140   -3.2700   19.2390 C   0  0  0  0  0  0  0  0  0  0  0  0
    6.3600   -4.0520   20.2590 C   0  0  0  0  0  0  0  0  0  0  0  0
    5.3160   -4.6320   19.9180 O   0  0  0  0  0  0  0  0  0  0  0  0
    6.8760   -4.1500   21.5690 N   0  0  0  0  0  0  0  0  0  0  0  0
    7.7530   -3.1250   22.0950 C   0  0  0  0  0  0  0  0  0  0  0  0
    7.5200   -3.0720   23.5970 C   0  0  0  0  0  0  0  0  0  0  0  0
    6.1360   -3.5700   23.7940 C   0  0  0  0  0  0  0  0  0  0  0  0
    5.5700   -3.1930   25.1010 C   0  0  0  0  0  0  0  0  0  0  0  0
    4.3770   -2.8780   25.1240 O   0  0  0  0  0  0  0  0  0  0  0  0
    6.3750   -3.2090   26.2300 N   0  0  0  0  0  0  0  0  0  0  0  0
    6.0390   -3.8120   27.4590 C   0  0  0  0  0  0  0  0  0  0  0  0
    6.4300   -3.3350   28.6710 C   0  0  0  0  0  0  0  0  0  0  0  0
    5.5980   -2.1570   28.9090 O   0  0  0  0  0  0  0  0  0  0  0  0
    6.0590   -1.3000   29.9000 C   0  0  0  0  0  0  0  0  0  0  0  0
    7.4690   -1.0100   29.9170 N   0  0  0  0  0  0  0  0  0  0  0  0
    8.0680   -0.2150   30.8120 C   0  0  0  0  0  0  0  0  0  0  0  0
    7.2370    0.4240   31.8630 C   0  0  0  0  0  0  0  0  0  0  0  0
    8.0080    1.4690   33.0460 Cl  0  0  0  0  0  0  0  0  0  0  0  0
    5.7130    0.1970   31.9470 C   0  0  0  0  0  0  0  0  0  0  0  0
    5.1970   -0.7440   30.8440 C   0  0  0  0  0  0  0  0  0  0  0  0
    3.4670   -1.1110   30.8020 Cl  0  0  0  0  0  0  0  0  0  0  0  0
    6.0970   -5.0850   23.6100 C   0  0  0  0  0  0  0  0  0  0  0  0
    6.6100   -5.4020   22.2510 C   0  0  0  0  0  0  0  0  0  0  0  0
  1  2  1  0
  2  3  2  0
  2  4  1  0
  4  5  1  0
  5  6  1  0
  6  7  1  0
  7  8  1  0
  8  9  2  0
  8 10  1  0
 10 11  1  0
 11 12  1  0
 12 13  1  0
 13 14  1  0
 14 15  2  0
 15 16  1  0
 16 17  2  0
 17 18  1  0
 17 19  1  0
 14 20  1  0
 19 20  2  0
 20 21  1  0
  7 22  1  0
  4 23  1  0
 22 23  1  0
M  END
