piperidine-amides-13399-covalent
     RDKit          3D

 24 26  0  0  0  0  0  0  0  0999 V2000
    7.0520   -3.3570   19.4000 C   0  0  0  0  0  0  0  0  0  0  0  0
    6.3220   -4.2040   20.3780 C   0  0  0  0  0  0  0  0  0  0  0  0
    5.3410   -4.8550   19.9810 O   0  0  0  0  0  0  0  0  0  0  0  0
    6.7800   -4.2900   21.7130 N   0  0  0  0  0  0  0  0  0  0  0  0
    7.6210   -3.2750   22.3250 C   0  0  0  0  0  0  0  0  0  0  0  0
    7.1250   -3.0090   23.7590 C   0  0  0  0  0  0  0  0  0  0  0  0
    5.8850   -3.8110   23.9520 C   0  0  0  0  0  0  0  0  0  0  0  0
    5.0790   -3.5720   25.1920 C   0  0  0  0  0  0  0  0  0  0  0  0
    3.9090   -3.9380   25.1240 O   0  0  0  0  0  0  0  0  0  0  0  0
    5.5690   -2.9630   26.3530 N   0  0  0  0  0  0  0  0  0  0  0  0
    5.7780   -1.5720   26.5150 C   0  0  1  0  0  0  0  0  0  0  0  0
    4.9860   -0.7130   27.3200 C   0  0  0  0  0  0  0  0  0  0  0  0
    5.6880    0.2410   28.0650 C   0  0  0  0  0  0  0  0  0  0  0  0
    5.2510    1.1170   28.9030 C   0  0  0  0  0  0  0  0  0  0  0  0
    5.1070   -0.1310   29.6820 C   0  0  0  0  0  0  0  0  0  0  0  0
    4.0570   -0.1740   31.3000 Br  0  0  0  0  0  0  0  0  0  0  0  0
    5.6970   -1.4510   29.0510 C   0  0  0  0  0  0  0  0  0  0  0  0
    6.7080   -1.4630   28.0030 N   0  0  0  0  0  0  0  0  0  0  0  0
    6.9670   -0.1410   28.1600 C   0  0  0  0  0  0  0  0  0  0  0  0
    7.7540   -1.0260   27.7420 N   0  0  0  0  0  0  0  0  0  0  0  0
    7.1470   -1.3930   26.5950 C   0  0  0  0  0  0  0  0  0  0  0  0
    7.9270   -1.6020   25.4750 O   0  0  0  0  0  0  0  0  0  0  0  0
    6.0990   -5.2730   23.7830 C   0  0  0  0  0  0  0  0  0  0  0  0
    6.6380   -5.5580   22.3950 C   0  0  0  0  0  0  0  0  0  0  0  0
  1  2  1  0
  2  3  2  0
  2  4  1  0
  4  5  1  0
  5  6  1  0
  6  7  1  0
  7  8  1  0
  8  9  2  0
  8 10  1  0
 11 10  1  1
 11 12  1  0
 12 13  1  0
 13 14  2  0
 14 15  1  0
 15 16  1  0
 15 17  2  0
 17 18  1  0
 13 19  1  0
 18 19  2  0
 19 20  1  0
 11 21  1  0
 20 21  1  0
 21 22  2  0
  7 23  1  0
  4 24  1  0
 23 24  1  0
M  END
