piperidine-amides-19528-covalent
     RDKit          3D

 19 20  0  0  0  0  0  0  0  0999 V2000
    7.0410   -3.4110   19.3500 C   0  0  0  0  0  0  0  0  0  0  0  0
    6.3840   -4.2000   20.3660 C   0  0  0  0  0  0  0  0  0  0  0  0
    5.3720   -4.8730   19.9960 O   0  0  0  0  0  0  0  0  0  0  0  0
    6.8360   -4.3150   21.7030 N   0  0  0  0  0  0  0  0  0  0  0  0
    6.6630   -5.6210   22.3690 C   0  0  0  0  0  0  0  0  0  0  0  0
    5.7020   -5.1960   23.5360 C   0  0  0  0  0  0  0  0  0  0  0  0
    6.3630   -4.0190   24.2170 C   0  0  0  0  0  0  0  0  0  0  0  0
    5.5030   -3.5930   25.4950 C   0  0  0  0  0  0  0  0  0  0  0  0
    4.4970   -2.9860   25.1590 O   0  0  0  0  0  0  0  0  0  0  0  0
    6.1030   -4.0080   26.5310 N   0  0  0  0  0  0  0  0  0  0  0  0
    6.9950   -4.5740   27.3070 C   0  0  0  0  0  0  0  0  0  0  0  0
    7.0930   -5.5550   28.1770 C   0  0  0  0  0  0  0  0  0  0  0  0
    5.8790   -5.5620   28.8370 C   0  0  0  0  0  0  0  0  0  0  0  0
    5.3840   -6.9470   29.8660 Cl  0  0  0  0  0  0  0  0  0  0  0  0
    4.9230   -4.4160   28.6920 C   0  0  0  0  0  0  0  0  0  0  0  0
    3.3330   -4.2290   29.4100 Cl  0  0  0  0  0  0  0  0  0  0  0  0
    5.6340   -3.3790   27.7550 C   0  0  0  0  0  0  0  0  0  0  0  0
    6.7540   -2.8350   23.3430 C   0  0  0  0  0  0  0  0  0  0  0  0
    7.6320   -3.2940   22.3550 C   0  0  0  0  0  0  0  0  0  0  0  0
  1  2  1  0
  2  3  2  0
  2  4  1  0
  4  5  1  0
  5  6  1  0
  6  7  1  0
  7  8  1  0
  8  9  2  0
  8 10  1  0
 10 11  1  0
 11 12  1  0
 12 13  1  0
 13 14  1  0
 13 15  2  0
 15 16  1  0
 10 17  1  0
 15 17  1  0
  7 18  1  0
  4 19  1  0
 18 19  1  0
M  END
