piperidine-amides-25850-covalent
     RDKit          3D

 25 27  0  0  0  0  0  0  0  0999 V2000
    7.0340   -3.3300   19.3750 C   0  0  0  0  0  0  0  0  0  0  0  0
    6.3820   -4.2040   20.3850 C   0  0  0  0  0  0  0  0  0  0  0  0
    5.4200   -4.8680   19.9920 O   0  0  0  0  0  0  0  0  0  0  0  0
    6.8770   -4.2840   21.6980 N   0  0  0  0  0  0  0  0  0  0  0  0
    6.7260   -5.4880   22.4870 C   0  0  0  0  0  0  0  0  0  0  0  0
    6.0910   -5.1600   23.8120 C   0  0  0  0  0  0  0  0  0  0  0  0
    6.0860   -3.6460   23.9860 C   0  0  0  0  0  0  0  0  0  0  0  0
    5.4590   -3.3090   25.2890 C   0  0  0  0  0  0  0  0  0  0  0  0
    4.2260   -3.2470   25.2990 O   0  0  0  0  0  0  0  0  0  0  0  0
    6.1500   -3.0490   26.5010 N   0  0  0  0  0  0  0  0  0  0  0  0
    6.1120   -4.1070   27.4970 C   0  0  0  0  0  0  0  0  0  0  0  0
    4.7320   -4.1130   28.1580 C   0  0  0  0  0  0  0  0  0  0  0  0
    3.7850   -3.2010   27.7240 C   0  0  0  0  0  0  0  0  0  0  0  0
    2.5490   -3.0950   28.2120 C   0  0  0  0  0  0  0  0  0  0  0  0
    2.1970   -3.9220   29.1850 C   0  0  0  0  0  0  0  0  0  0  0  0
    3.0570   -4.9760   29.7950 C   0  0  0  0  0  0  0  0  0  0  0  0
    4.4720   -5.1220   29.2590 C   0  0  0  0  0  0  0  0  0  0  0  0
    5.5460   -6.0310   29.6310 N   0  0  0  0  0  0  0  0  0  0  0  0
    6.3960   -6.2370   28.6150 O   0  0  0  0  0  0  0  0  0  0  0  0
    5.3990   -6.9470   30.5970 O   0  0  0  0  0  0  0  0  0  0  0  0
    5.8980   -1.7550   27.1000 C   0  0  0  0  0  0  0  0  0  0  0  0
    6.3330   -0.6140   26.5210 C   0  0  0  0  0  0  0  0  0  0  0  0
    6.9130   -0.8790   27.9250 C   0  0  0  0  0  0  0  0  0  0  0  0
    7.3470   -2.9670   23.6440 C   0  0  0  0  0  0  0  0  0  0  0  0
    7.7460   -3.2350   22.2350 C   0  0  0  0  0  0  0  0  0  0  0  0
  1  2  1  0
  2  3  2  0
  2  4  1  0
  4  5  1  0
  5  6  1  0
  6  7  1  0
  7  8  1  0
  8  9  2  0
  8 10  1  0
 10 11  1  0
 11 12  1  0
 12 13  2  0
 13 14  1  0
 14 15  2  0
 15 16  1  0
 12 17  1  0
 16 17  2  0
 17 18  1  0
 18 19  2  0
 18 20  1  0
 10 21  1  0
 21 22  1  0
 21 23  1  0
 22 23  1  0
  7 24  1  0
  4 25  1  0
 24 25  1  0
M  CHG  2  18   1  20  -1
M  END
