piperidine-amides-2904-covalent
     RDKit          3D

 24 26  0  0  0  0  0  0  0  0999 V2000
    7.1710   -4.0620   19.7450 C   0  0  0  0  0  0  0  0  0  0  0  0
    5.9550   -4.0020   20.3950 C   0  0  0  0  0  0  0  0  0  0  0  0
    4.9680   -4.1410   19.6990 O   0  0  0  0  0  0  0  0  0  0  0  0
    5.9740   -3.9090   21.8050 N   0  0  0  0  0  0  0  0  0  0  0  0
    6.8530   -2.8930   22.3160 C   0  0  0  0  0  0  0  0  0  0  0  0
    7.6110   -3.4040   23.5000 C   0  0  0  0  0  0  0  0  0  0  0  0
    6.6170   -4.0240   24.4730 C   0  0  0  0  0  0  0  0  0  0  0  0
    5.9450   -2.9480   25.2500 C   0  0  0  0  0  0  0  0  0  0  0  0
    4.7180   -2.9510   25.4960 O   0  0  0  0  0  0  0  0  0  0  0  0
    6.7610   -1.8630   25.7020 N   0  0  0  0  0  0  0  0  0  0  0  0
    6.7970   -1.4550   27.1070 C   0  0  0  0  0  0  0  0  0  0  0  0
    6.8860   -0.6150   28.1780 C   0  0  0  0  0  0  0  0  0  0  0  0
    6.7650   -1.5940   28.9240 N   0  0  0  0  0  0  0  0  0  0  0  0
    6.6720   -2.5090   27.7570 C   0  0  0  0  0  0  0  0  0  0  0  0
    6.5100   -3.8740   27.9480 C   0  0  0  0  0  0  0  0  0  0  0  0
    7.6900   -4.5790   27.9430 C   0  0  0  0  0  0  0  0  0  0  0  0
    7.4470   -5.9970   27.9790 C   0  0  0  0  0  0  0  0  0  0  0  0
    6.3100   -6.4730   28.5820 C   0  0  0  0  0  0  0  0  0  0  0  0
    5.5510   -5.5630   29.2800 C   0  0  0  0  0  0  0  0  0  0  0  0
    5.6790   -4.1970   29.0020 C   0  0  0  0  0  0  0  0  0  0  0  0
    6.7550   -1.8870   26.3950 N   0  0  0  0  0  0  0  0  0  0  0  0
    6.9120   -0.4350   26.3090 C   0  0  0  0  0  0  0  0  0  0  0  0
    5.5870   -4.9130   23.7960 C   0  0  0  0  0  0  0  0  0  0  0  0
    6.0130   -5.1670   22.5060 C   0  0  0  0  0  0  0  0  0  0  0  0
  1  2  1  0
  2  3  2  0
  2  4  1  0
  4  5  1  0
  5  6  1  0
  6  7  1  0
  7  8  1  0
  8  9  2  0
  8 10  1  0
 10 11  1  0
 11 12  2  0
 12 13  1  0
 13 14  2  0
 14 15  1  0
 15 16  1  0
 16 17  1  0
 17 18  1  0
 18 19  1  0
 15 20  1  0
 19 20  1  0
 14 21  1  0
 11 22  1  0
 21 22  2  0
  7 23  1  0
  4 24  1  0
 23 24  1  0
M  END
