piperidine-amides-6827-covalent
     RDKit          3D

 23 25  0  0  0  0  0  0  0  0999 V2000
    7.0800   -3.2760   19.2930 C   0  0  0  0  0  0  0  0  0  0  0  0
    6.3610   -4.1050   20.2760 C   0  0  0  0  0  0  0  0  0  0  0  0
    5.3280   -4.7230   19.9400 O   0  0  0  0  0  0  0  0  0  0  0  0
    6.8390   -4.2560   21.5850 N   0  0  0  0  0  0  0  0  0  0  0  0
    7.5670   -3.1820   22.2260 C   0  0  0  0  0  0  0  0  0  0  0  0
    6.6270   -2.5580   23.2670 C   0  0  0  0  0  0  0  0  0  0  0  0
    6.1740   -3.6830   24.1810 C   0  0  0  0  0  0  0  0  0  0  0  0
    5.1860   -3.1680   25.1760 C   0  0  0  0  0  0  0  0  0  0  0  0
    4.1140   -3.7880   25.3050 O   0  0  0  0  0  0  0  0  0  0  0  0
    5.4390   -1.9950   25.9540 N   0  0  0  0  0  0  0  0  0  0  0  0
    4.9390   -1.8600   27.3090 C   0  0  0  0  0  0  0  0  0  0  0  0
    6.1260   -1.9650   28.2160 C   0  0  0  0  0  0  0  0  0  0  0  0
    6.9960   -2.7310   27.6390 C   0  0  0  0  0  0  0  0  0  0  0  0
    7.4280   -3.9330   28.2030 N   0  0  0  0  0  0  0  0  0  0  0  0
    8.3010   -4.6070   27.3860 C   0  0  0  0  0  0  0  0  0  0  0  0
    8.5180   -3.9010   26.2030 C   0  0  0  0  0  0  0  0  0  0  0  0
    7.7130   -2.4210   26.0790 S   0  0  0  0  0  0  0  0  0  0  0  0
    9.3250   -4.3650   25.2350 C   0  0  0  0  0  0  0  0  0  0  0  0
   10.0050   -5.4150   25.6310 O   0  0  0  0  0  0  0  0  0  0  0  0
    9.3990   -6.3060   26.4070 C   0  0  0  0  0  0  0  0  0  0  0  0
    8.8640   -5.7830   27.6750 C   0  0  0  0  0  0  0  0  0  0  0  0
    5.5440   -4.8180   23.4630 C   0  0  0  0  0  0  0  0  0  0  0  0
    6.3780   -5.3380   22.3770 C   0  0  0  0  0  0  0  0  0  0  0  0
  1  2  1  0
  2  3  2  0
  2  4  1  0
  4  5  1  0
  5  6  1  0
  6  7  1  0
  7  8  1  0
  8  9  2  0
  8 10  1  0
 10 11  1  0
 11 12  1  0
 12 13  1  0
 13 14  2  0
 14 15  1  0
 15 16  2  0
 13 17  1  0
 16 17  1  0
 16 18  1  0
 18 19  1  0
 19 20  1  0
 15 21  1  0
 20 21  1  0
  7 22  1  0
  4 23  1  0
 22 23  1  0
M  END
