piperidine-amides-28627-covalent
     RDKit          3D

 25 26  0  0  0  0  0  0  0  0999 V2000
    7.0010   -3.3720   19.4200 C   0  0  0  0  0  0  0  0  0  0  0  0
    6.3880   -4.2730   20.3940 C   0  0  0  0  0  0  0  0  0  0  0  0
    5.4020   -4.9270   20.0040 O   0  0  0  0  0  0  0  0  0  0  0  0
    6.9270   -4.4300   21.7110 N   0  0  0  0  0  0  0  0  0  0  0  0
    6.5070   -5.5440   22.5020 C   0  0  0  0  0  0  0  0  0  0  0  0
    5.5650   -5.0530   23.5670 C   0  0  0  0  0  0  0  0  0  0  0  0
    6.2240   -3.9130   24.3310 C   0  0  0  0  0  0  0  0  0  0  0  0
    5.2050   -3.2520   25.2550 C   0  0  0  0  0  0  0  0  0  0  0  0
    4.3810   -2.5630   24.6790 O   0  0  0  0  0  0  0  0  0  0  0  0
    5.2260   -3.4450   26.6590 N   0  0  0  0  0  0  0  0  0  0  0  0
    6.3870   -3.8840   27.1880 C   0  0  0  0  0  0  0  0  0  0  0  0
    6.5410   -4.0050   28.5670 C   0  0  0  0  0  0  0  0  0  0  0  0
    5.3100   -4.6810   28.9500 N   0  0  0  0  0  0  0  0  0  0  0  0
    5.1420   -6.0260   29.3690 C   0  0  0  0  0  0  0  0  0  0  0  0
    3.9870   -6.3940   30.0470 C   0  0  0  0  0  0  0  0  0  0  0  0
    2.8370   -6.6360   29.3370 F   0  0  0  0  0  0  0  0  0  0  0  0
    4.1790   -7.3640   30.9680 F   0  0  0  0  0  0  0  0  0  0  0  0
    3.6420   -5.2350   30.7800 F   0  0  0  0  0  0  0  0  0  0  0  0
    4.1080   -3.9170   28.6770 C   0  0  0  0  0  0  0  0  0  0  0  0
    4.2670   -2.8570   27.5350 C   0  0  2  0  0  0  0  0  0  0  0  0
    2.9810   -2.7570   26.7940 C   0  0  0  0  0  0  0  0  0  0  0  0
    3.0860   -1.3650   26.2310 C   0  0  0  0  0  0  0  0  0  0  0  0
    1.8720   -2.9500   27.5810 C   0  0  0  0  0  0  0  0  0  0  0  0
    6.6980   -2.8390   23.3510 C   0  0  0  0  0  0  0  0  0  0  0  0
    7.5810   -3.3590   22.4180 C   0  0  0  0  0  0  0  0  0  0  0  0
  1  2  1  0
  2  3  2  0
  2  4  1  0
  4  5  1  0
  5  6  1  0
  6  7  1  0
  7  8  1  0
  8  9  2  0
  8 10  1  0
 10 11  1  0
 11 12  1  0
 12 13  1  0
 13 14  1  0
 14 15  1  0
 15 16  1  0
 15 17  1  0
 15 18  1  0
 13 19  1  0
 10 20  1  0
 19 20  1  0
 20 21  1  6
 21 22  1  0
 21 23  1  0
  7 24  1  0
  4 25  1  0
 24 25  1  0
M  END
