piperidine-amides-19100-covalent
     RDKit          3D

 20 21  0  0  0  0  0  0  0  0999 V2000
    6.9180   -3.4610   19.4100 C   0  0  0  0  0  0  0  0  0  0  0  0
    6.2840   -4.3030   20.4140 C   0  0  0  0  0  0  0  0  0  0  0  0
    5.3680   -5.0720   20.0060 O   0  0  0  0  0  0  0  0  0  0  0  0
    6.6380   -4.3400   21.7830 N   0  0  0  0  0  0  0  0  0  0  0  0
    6.6170   -5.6760   22.4550 C   0  0  0  0  0  0  0  0  0  0  0  0
    6.0520   -5.3910   23.9240 C   0  0  0  0  0  0  0  0  0  0  0  0
    5.9940   -3.9070   24.0600 C   0  0  0  0  0  0  0  0  0  0  0  0
    5.1800   -3.2340   25.2810 C   0  0  0  0  0  0  0  0  0  0  0  0
    4.5870   -2.2940   24.7900 O   0  0  0  0  0  0  0  0  0  0  0  0
    5.2600   -3.7410   26.4800 N   0  0  0  0  0  0  0  0  0  0  0  0
    4.7670   -4.0210   27.7330 C   0  0  0  0  0  0  0  0  0  0  0  0
    4.6450   -5.0720   28.6090 C   0  0  0  0  0  0  0  0  0  0  0  0
    5.9890   -5.8670   29.2110 S   0  0  0  0  0  0  0  0  0  0  0  0
    5.7650   -7.3220   29.2570 O   0  0  0  0  0  0  0  0  0  0  0  0
    7.4320   -5.4430   28.3980 C   0  0  0  0  0  0  0  0  0  0  0  0
    7.1280   -5.2810   26.9480 C   0  0  0  0  0  0  0  0  0  0  0  0
    6.6140   -3.7920   26.9690 C   0  0  2  0  0  0  0  0  0  0  0  0
    6.7110   -3.6260   28.3680 C   0  0  0  0  0  0  0  0  0  0  0  0
    7.3150   -3.2760   23.7890 C   0  0  0  0  0  0  0  0  0  0  0  0
    7.5320   -3.3050   22.2850 C   0  0  0  0  0  0  0  0  0  0  0  0
  1  2  1  0
  2  3  2  0
  2  4  1  0
  4  5  1  0
  5  6  1  0
  6  7  1  0
  7  8  1  0
  8  9  2  0
  8 10  1  0
 10 11  1  0
 11 12  1  0
 13 12  1  6
 13 14  2  0
 13 15  1  0
 15 16  1  0
 10 17  1  0
 16 17  1  0
 17 18  1  1
  7 19  1  0
  4 20  1  0
 19 20  1  0
M  END
