piperidine-amides-30206-covalent
     RDKit          3D

 27 29  0  0  0  0  0  0  0  0999 V2000
    7.0530   -3.3470   19.3710 C   0  0  0  0  0  0  0  0  0  0  0  0
    6.3640   -4.1970   20.3320 C   0  0  0  0  0  0  0  0  0  0  0  0
    5.3780   -4.8420   19.9810 O   0  0  0  0  0  0  0  0  0  0  0  0
    6.8700   -4.3170   21.6760 N   0  0  0  0  0  0  0  0  0  0  0  0
    7.7450   -3.2770   22.1940 C   0  0  0  0  0  0  0  0  0  0  0  0
    7.5540   -3.1280   23.6680 C   0  0  0  0  0  0  0  0  0  0  0  0
    6.1870   -3.7060   23.9320 C   0  0  0  0  0  0  0  0  0  0  0  0
    5.6300   -3.2480   25.2320 C   0  0  0  0  0  0  0  0  0  0  0  0
    4.8100   -2.3180   25.2650 O   0  0  0  0  0  0  0  0  0  0  0  0
    5.9540   -3.8400   26.4710 N   0  0  0  0  0  0  0  0  0  0  0  0
    6.3760   -2.8420   27.4370 C   0  0  0  0  0  0  0  0  0  0  0  0
    6.6630   -3.4890   28.7700 C   0  0  0  0  0  0  0  0  0  0  0  0
    5.8190   -4.4770   29.1120 C   0  0  0  0  0  0  0  0  0  0  0  0
    4.5150   -3.9090   29.3610 N   0  0  0  0  0  0  0  0  0  0  0  0
    3.7880   -4.3580   30.5150 C   0  0  0  0  0  0  0  0  0  0  0  0
    3.3640   -5.6910   30.6040 O   0  0  0  0  0  0  0  0  0  0  0  0
    3.5400   -3.4130   31.4870 C   0  0  0  0  0  0  0  0  0  0  0  0
    3.4220   -3.5320   32.8810 O   0  0  0  0  0  0  0  0  0  0  0  0
    3.1830   -2.3150   33.4050 C   0  0  0  0  0  0  0  0  0  0  0  0
    3.0460   -2.2540   34.7760 C   0  0  0  0  0  0  0  0  0  0  0  0
    3.1360   -1.4120   32.4380 C   0  0  0  0  0  0  0  0  0  0  0  0
    3.3390   -1.9400   31.1870 C   0  0  0  0  0  0  0  0  0  0  0  0
    3.3510   -1.2190   29.9100 C   0  0  0  0  0  0  0  0  0  0  0  0
    5.5750   -5.3900   28.1670 C   0  0  0  0  0  0  0  0  0  0  0  0
    5.0370   -4.8300   27.0180 C   0  0  0  0  0  0  0  0  0  0  0  0
    6.2060   -5.2060   23.8170 C   0  0  0  0  0  0  0  0  0  0  0  0
    6.7250   -5.5580   22.4100 C   0  0  0  0  0  0  0  0  0  0  0  0
  1  2  1  0
  2  3  2  0
  2  4  1  0
  4  5  1  0
  5  6  1  0
  6  7  1  0
  7  8  1  0
  8  9  2  0
  8 10  1  0
 10 11  1  0
 11 12  1  0
 12 13  1  0
 13 14  1  0
 14 15  1  0
 15 16  2  0
 15 17  1  0
 17 18  1  0
 18 19  1  0
 19 20  1  0
 19 21  2  0
 17 22  2  0
 21 22  1  0
 22 23  1  0
 13 24  1  0
 10 25  1  0
 24 25  1  0
  7 26  1  0
  4 27  1  0
 26 27  1  0
M  END
