piperidine-amides-26974-covalent
     RDKit          3D

 24 26  0  0  0  0  0  0  0  0999 V2000
    7.0720   -3.3910   19.4110 C   0  0  0  0  0  0  0  0  0  0  0  0
    6.3940   -4.2460   20.3810 C   0  0  0  0  0  0  0  0  0  0  0  0
    5.3450   -4.8120   19.9760 O   0  0  0  0  0  0  0  0  0  0  0  0
    6.9440   -4.4540   21.6570 N   0  0  0  0  0  0  0  0  0  0  0  0
    6.6310   -5.5990   22.4570 C   0  0  0  0  0  0  0  0  0  0  0  0
    5.8090   -5.1260   23.6260 C   0  0  0  0  0  0  0  0  0  0  0  0
    6.2980   -3.8500   24.2940 C   0  0  0  0  0  0  0  0  0  0  0  0
    5.2290   -3.3690   25.2230 C   0  0  0  0  0  0  0  0  0  0  0  0
    4.1270   -3.1050   24.7140 O   0  0  0  0  0  0  0  0  0  0  0  0
    5.3370   -3.1820   26.6180 N   0  0  0  0  0  0  0  0  0  0  0  0
    6.5630   -2.7920   27.1750 C   0  0  0  0  0  0  0  0  0  0  0  0
    6.5780   -3.6160   28.4530 C   0  0  0  0  0  0  0  0  0  0  0  0
    5.4010   -4.2370   28.6750 C   0  0  2  0  0  0  0  0  0  0  0  0
    5.4930   -5.6000   29.0550 O   0  0  0  0  0  0  0  0  0  0  0  0
    4.4710   -6.2930   29.5990 C   0  0  0  0  0  0  0  0  0  0  0  0
    4.6270   -6.6000   30.9390 C   0  0  0  0  0  0  0  0  0  0  0  0
    5.5630   -7.4860   31.3970 C   0  0  0  0  0  0  0  0  0  0  0  0
    5.4700   -7.6100   33.1510 S   0  0  0  0  0  0  0  0  0  0  0  0
    4.0950   -6.3930   33.1490 C   0  0  0  0  0  0  0  0  0  0  0  0
    3.3100   -5.8310   34.3090 C   0  0  0  0  0  0  0  0  0  0  0  0
    3.8340   -6.0100   31.8640 N   0  0  0  0  0  0  0  0  0  0  0  0
    4.6170   -3.9490   27.5930 C   0  0  0  0  0  0  0  0  0  0  0  0
    6.6660   -2.7410   23.2860 C   0  0  0  0  0  0  0  0  0  0  0  0
    7.6610   -3.3910   22.3430 C   0  0  0  0  0  0  0  0  0  0  0  0
  1  2  1  0
  2  3  2  0
  2  4  1  0
  4  5  1  0
  5  6  1  0
  6  7  1  0
  7  8  1  0
  8  9  2  0
  8 10  1  0
 10 11  1  0
 11 12  1  0
 12 13  1  0
 13 14  1  6
 14 15  1  0
 15 16  1  0
 16 17  2  0
 17 18  1  0
 18 19  1  0
 19 20  1  0
 16 21  1  0
 19 21  2  0
 10 22  1  0
 13 22  1  0
  7 23  1  0
  4 24  1  0
 23 24  1  0
M  END
