piperidine-amides-4493-covalent
     RDKit          3D

 25 26  0  0  0  0  0  0  0  0999 V2000
    7.1150   -3.2710   19.2330 C   0  0  0  0  0  0  0  0  0  0  0  0
    6.3880   -4.0440   20.2660 C   0  0  0  0  0  0  0  0  0  0  0  0
    5.3220   -4.5850   19.9060 O   0  0  0  0  0  0  0  0  0  0  0  0
    6.9100   -4.1900   21.5640 N   0  0  0  0  0  0  0  0  0  0  0  0
    6.5910   -5.3340   22.3520 C   0  0  0  0  0  0  0  0  0  0  0  0
    6.0290   -5.0020   23.6660 C   0  0  0  0  0  0  0  0  0  0  0  0
    6.0070   -3.5510   23.9680 C   0  0  0  0  0  0  0  0  0  0  0  0
    5.6310   -3.2830   25.3780 C   0  0  0  0  0  0  0  0  0  0  0  0
    4.4250   -3.1030   25.6270 O   0  0  0  0  0  0  0  0  0  0  0  0
    6.5880   -3.2130   26.4070 N   0  0  0  0  0  0  0  0  0  0  0  0
    6.3990   -3.7900   27.7620 C   0  0  0  0  0  0  0  0  0  0  0  0
    6.0350   -5.2400   27.7650 C   0  0  2  0  0  0  0  0  0  0  0  0
    5.2920   -5.7420   26.8790 O   0  0  0  0  0  0  0  0  0  0  0  0
    5.5380   -5.7540   29.0340 C   0  0  0  0  0  0  0  0  0  0  0  0
    4.4570   -5.2390   29.6900 C   0  0  0  0  0  0  0  0  0  0  0  0
    3.9620   -5.6960   30.8860 C   0  0  0  0  0  0  0  0  0  0  0  0
    4.5970   -6.7490   31.4740 C   0  0  0  0  0  0  0  0  0  0  0  0
    4.1400   -7.2360   32.6640 C   0  0  0  0  0  0  0  0  0  0  0  0
    3.8860   -6.3480   33.7230 F   0  0  0  0  0  0  0  0  0  0  0  0
    5.0830   -8.1120   33.1230 F   0  0  0  0  0  0  0  0  0  0  0  0
    2.9280   -7.8260   32.4220 F   0  0  0  0  0  0  0  0  0  0  0  0
    5.7090   -7.3360   30.8720 C   0  0  0  0  0  0  0  0  0  0  0  0
    6.1500   -6.8080   29.6490 C   0  0  0  0  0  0  0  0  0  0  0  0
    7.2280   -2.8130   23.5760 C   0  0  0  0  0  0  0  0  0  0  0  0
    7.7380   -3.1630   22.2020 C   0  0  0  0  0  0  0  0  0  0  0  0
  1  2  1  0
  2  3  2  0
  2  4  1  0
  4  5  1  0
  5  6  1  0
  6  7  1  0
  7  8  1  0
  8  9  2  0
  8 10  1  0
 10 11  1  0
 11 12  1  0
 12 13  1  6
 12 14  1  0
 14 15  2  0
 15 16  1  0
 16 17  2  0
 17 18  1  0
 18 19  1  0
 18 20  1  0
 18 21  1  0
 17 22  1  0
 14 23  1  0
 22 23  2  0
  7 24  1  0
  4 25  1  0
 24 25  1  0
M  END
