piperidine-amides-12098-covalent
     RDKit          3D

 25 27  0  0  0  0  0  0  0  0999 V2000
    7.0570   -3.3510   19.3080 C   0  0  0  0  0  0  0  0  0  0  0  0
    6.3830   -4.1670   20.3150 C   0  0  0  0  0  0  0  0  0  0  0  0
    5.3890   -4.8170   19.9860 O   0  0  0  0  0  0  0  0  0  0  0  0
    6.9000   -4.2610   21.6620 N   0  0  0  0  0  0  0  0  0  0  0  0
    6.6460   -5.4490   22.4460 C   0  0  0  0  0  0  0  0  0  0  0  0
    6.1890   -5.0850   23.8410 C   0  0  0  0  0  0  0  0  0  0  0  0
    6.1690   -3.5690   23.9420 C   0  0  0  0  0  0  0  0  0  0  0  0
    5.6550   -3.0750   25.2560 C   0  0  0  0  0  0  0  0  0  0  0  0
    4.4350   -2.9780   25.4370 O   0  0  0  0  0  0  0  0  0  0  0  0
    6.5470   -2.6970   26.3020 N   0  0  0  0  0  0  0  0  0  0  0  0
    6.1140   -1.6800   27.2650 C   0  0  2  0  0  0  0  0  0  0  0  0
    5.1110   -2.4320   28.1220 C   0  0  0  0  0  0  0  0  0  0  0  0
    4.0100   -3.0290   27.5390 C   0  0  0  0  0  0  0  0  0  0  0  0
    2.9460   -2.2260   27.0510 C   0  0  0  0  0  0  0  0  0  0  0  0
    1.8450   -2.8110   26.4670 C   0  0  0  0  0  0  0  0  0  0  0  0
    1.7730   -4.2450   26.3540 C   0  0  0  0  0  0  0  0  0  0  0  0
    2.7880   -5.0220   26.8220 C   0  0  0  0  0  0  0  0  0  0  0  0
    2.7690   -6.9270   26.7130 Br  0  0  0  0  0  0  0  0  0  0  0  0
    3.8830   -4.4140   27.4020 C   0  0  0  0  0  0  0  0  0  0  0  0
    5.6820   -0.4770   26.8020 C   0  0  0  0  0  0  0  0  0  0  0  0
    6.0770    0.5490   27.7300 C   0  0  0  0  0  0  0  0  0  0  0  0
    6.8170    0.0870   28.5840 O   0  0  0  0  0  0  0  0  0  0  0  0
    7.1540   -1.1820   28.1350 C   0  0  0  0  0  0  0  0  0  0  0  0
    7.5120   -3.0130   23.6170 C   0  0  0  0  0  0  0  0  0  0  0  0
    7.7200   -3.1950   22.1560 C   0  0  0  0  0  0  0  0  0  0  0  0
  1  2  1  0
  2  3  2  0
  2  4  1  0
  4  5  1  0
  5  6  1  0
  6  7  1  0
  7  8  1  0
  8  9  2  0
  8 10  1  0
 11 10  1  0
 11 12  1  1
 12 13  1  0
 13 14  2  0
 14 15  1  0
 15 16  2  0
 16 17  1  0
 17 18  1  0
 13 19  1  0
 17 19  2  0
 11 20  1  0
 20 21  1  0
 21 22  1  0
 11 23  1  0
 22 23  1  0
  7 24  1  0
  4 25  1  0
 24 25  1  0
M  END
