piperidine-amides-676-covalent
     RDKit          3D

 24 26  0  0  0  0  0  0  0  0999 V2000
    7.0170   -3.3700   19.3320 C   0  0  0  0  0  0  0  0  0  0  0  0
    6.3370   -4.1240   20.3630 C   0  0  0  0  0  0  0  0  0  0  0  0
    5.3590   -4.8390   19.9820 O   0  0  0  0  0  0  0  0  0  0  0  0
    6.7150   -4.1570   21.7300 N   0  0  0  0  0  0  0  0  0  0  0  0
    7.6610   -3.0840   22.1730 C   0  0  0  0  0  0  0  0  0  0  0  0
    7.4860   -3.0370   23.7440 C   0  0  0  0  0  0  0  0  0  0  0  0
    6.2530   -3.8490   24.0230 C   0  0  0  0  0  0  0  0  0  0  0  0
    5.4620   -3.5110   25.3690 C   0  0  0  0  0  0  0  0  0  0  0  0
    4.4970   -4.2550   25.4460 O   0  0  0  0  0  0  0  0  0  0  0  0
    5.9730   -2.5580   26.0470 N   0  0  0  0  0  0  0  0  0  0  0  0
    6.3420   -1.5130   26.8590 C   0  0  2  0  0  0  0  0  0  0  0  0
    7.0690   -1.3360   27.9940 C   0  0  0  0  0  0  0  0  0  0  0  0
    6.2000   -0.7450   28.8970 C   0  0  2  0  0  0  0  0  0  0  0  0
    4.8220   -1.1620   28.6210 C   0  0  0  0  0  0  0  0  0  0  0  0
    5.1180   -0.6290   27.2050 C   0  0  1  0  0  0  0  0  0  0  0  0
    5.2900    0.6520   27.8120 C   0  0  0  0  0  0  0  0  0  0  0  0
    6.4690    0.7130   28.5570 C   0  0  1  0  0  0  0  0  0  0  0  0
    6.2970    1.6290   29.5470 O   0  0  0  0  0  0  0  0  0  0  0  0
    6.1630    0.9330   27.0490 C   0  0  0  0  0  0  0  0  0  0  0  0
    4.8840    1.1840   26.6880 F   0  0  0  0  0  0  0  0  0  0  0  0
    6.5090   -0.1470   26.2080 F   0  0  0  0  0  0  0  0  0  0  0  0
    6.8460    2.0870   26.7060 F   0  0  0  0  0  0  0  0  0  0  0  0
    6.4820   -5.2930   23.7260 C   0  0  0  0  0  0  0  0  0  0  0  0
    6.6930   -5.4410   22.3790 C   0  0  0  0  0  0  0  0  0  0  0  0
  1  2  1  0
  2  3  2  0
  2  4  1  0
  4  5  1  0
  5  6  1  0
  6  7  1  0
  7  8  1  0
  8  9  2  0
  8 10  1  0
 11 10  1  1
 11 12  1  0
 13 12  1  6
 13 14  1  0
 11 15  1  0
 14 15  1  0
 15 16  1  1
 13 17  1  0
 16 17  1  0
 17 18  1  1
 17 19  1  0
 19 20  1  0
 19 21  1  0
 19 22  1  0
  7 23  1  0
  4 24  1  0
 23 24  1  0
M  END
