piperidine-amides-30595-covalent
     RDKit          3D

 23 25  0  0  0  0  0  0  0  0999 V2000
    7.0150   -3.3390   19.3410 C   0  0  0  0  0  0  0  0  0  0  0  0
    6.3600   -4.1540   20.3690 C   0  0  0  0  0  0  0  0  0  0  0  0
    5.4450   -4.9150   20.0080 O   0  0  0  0  0  0  0  0  0  0  0  0
    6.7670   -4.1180   21.7300 N   0  0  0  0  0  0  0  0  0  0  0  0
    7.7020   -3.1270   22.2280 C   0  0  0  0  0  0  0  0  0  0  0  0
    7.4900   -3.1170   23.7100 C   0  0  0  0  0  0  0  0  0  0  0  0
    6.1440   -3.6880   23.9970 C   0  0  0  0  0  0  0  0  0  0  0  0
    5.5980   -3.4160   25.3630 C   0  0  0  0  0  0  0  0  0  0  0  0
    4.3590   -3.5680   25.5580 O   0  0  0  0  0  0  0  0  0  0  0  0
    6.3420   -2.9620   26.4840 N   0  0  0  0  0  0  0  0  0  0  0  0
    6.1640   -3.6750   27.7820 C   0  0  0  0  0  0  0  0  0  0  0  0
    5.6870   -2.7040   28.7970 C   0  0  0  0  0  0  0  0  0  0  0  0
    4.2630   -2.6800   29.1360 C   0  0  0  0  0  0  0  0  0  0  0  0
    3.7940   -1.6980   30.1570 C   0  0  0  0  0  0  0  0  0  0  0  0
    4.7850   -0.7610   30.8100 C   0  0  0  0  0  0  0  0  0  0  0  0
    6.2010   -0.9100   30.3550 C   0  0  0  0  0  0  0  0  0  0  0  0
    7.4970    0.2530   31.1410 Br  0  0  0  0  0  0  0  0  0  0  0  0
    6.5840   -1.8460   29.3990 C   0  0  0  0  0  0  0  0  0  0  0  0
    6.7960   -1.6120   26.5610 C   0  0  0  0  0  0  0  0  0  0  0  0
    6.5240   -0.7560   27.6000 C   0  0  0  0  0  0  0  0  0  0  0  0
    5.8410   -0.4210   26.2210 C   0  0  0  0  0  0  0  0  0  0  0  0
    6.1470   -5.1850   23.6210 C   0  0  0  0  0  0  0  0  0  0  0  0
    6.5860   -5.3630   22.4890 C   0  0  0  0  0  0  0  0  0  0  0  0
  1  2  1  0
  2  3  2  0
  2  4  1  0
  4  5  1  0
  5  6  1  0
  6  7  1  0
  7  8  1  0
  8  9  2  0
  8 10  1  0
 10 11  1  0
 11 12  1  0
 12 13  2  0
 13 14  1  0
 14 15  2  0
 15 16  1  0
 16 17  1  0
 12 18  1  0
 16 18  2  0
 10 19  1  0
 19 20  1  0
 19 21  1  0
 20 21  1  0
  7 22  1  0
  4 23  1  0
 22 23  1  0
M  END
