piperidine-amides-34045-covalent
     RDKit          3D

 26 28  0  0  0  0  0  0  0  0999 V2000
    7.1090   -3.2760   19.2140 C   0  0  0  0  0  0  0  0  0  0  0  0
    6.3660   -4.0570   20.2160 C   0  0  0  0  0  0  0  0  0  0  0  0
    5.2930   -4.6180   19.9070 O   0  0  0  0  0  0  0  0  0  0  0  0
    6.8760   -4.2340   21.5060 N   0  0  0  0  0  0  0  0  0  0  0  0
    6.5220   -5.4260   22.2320 C   0  0  0  0  0  0  0  0  0  0  0  0
    5.6370   -4.9480   23.3800 C   0  0  0  0  0  0  0  0  0  0  0  0
    6.4680   -3.9340   24.1300 C   0  0  0  0  0  0  0  0  0  0  0  0
    5.7290   -3.4410   25.3080 C   0  0  0  0  0  0  0  0  0  0  0  0
    4.7090   -2.7500   25.0980 O   0  0  0  0  0  0  0  0  0  0  0  0
    6.1690   -3.7480   26.6180 N   0  0  0  0  0  0  0  0  0  0  0  0
    6.0920   -2.7390   27.6470 C   0  0  0  0  0  0  0  0  0  0  0  0
    4.7800   -2.0950   27.5740 C   0  0  0  0  0  0  0  0  0  0  0  0
    5.4120   -0.9730   27.2310 C   0  0  0  0  0  0  0  0  0  0  0  0
    6.7500   -1.4480   27.2730 C   0  0  0  0  0  0  0  0  0  0  0  0
    5.9000   -4.8240   27.5810 C   0  0  0  0  0  0  0  0  0  0  0  0
    6.1400   -5.9240   26.8060 C   0  0  0  0  0  0  0  0  0  0  0  0
    6.8630   -4.9350   28.7560 C   0  0  0  0  0  0  0  0  0  0  0  0
    4.4730   -4.8290   28.0560 C   0  0  0  0  0  0  0  0  0  0  0  0
    4.1830   -3.8850   29.2270 C   0  0  0  0  0  0  0  0  0  0  0  0
    2.7080   -4.0570   29.5400 C   0  0  0  0  0  0  0  0  0  0  0  0
    1.7840   -4.9100   28.8910 C   0  0  0  0  0  0  0  0  0  0  0  0
   -0.0400   -4.9770   29.4450 Br  0  0  0  0  0  0  0  0  0  0  0  0
    2.1860   -5.6690   27.8900 C   0  0  0  0  0  0  0  0  0  0  0  0
    3.5620   -5.6540   27.4320 C   0  0  0  0  0  0  0  0  0  0  0  0
    6.8370   -2.7310   23.2980 C   0  0  0  0  0  0  0  0  0  0  0  0
    7.6890   -3.2150   22.1250 C   0  0  0  0  0  0  0  0  0  0  0  0
  1  2  1  0
  2  3  2  0
  2  4  1  0
  4  5  1  0
  5  6  1  0
  6  7  1  0
  7  8  1  0
  8  9  2  0
  8 10  1  0
 10 11  1  0
 11 12  1  0
 12 13  1  0
 11 14  1  0
 13 14  1  0
 15 10  1  0
 15 16  1  0
 15 17  1  0
 15 18  1  0
 18 19  2  0
 19 20  1  0
 20 21  2  0
 21 22  1  0
 21 23  1  0
 18 24  1  0
 23 24  2  0
  7 25  1  0
  4 26  1  0
 25 26  1  0
M  END
