piperidine-amides-28742-covalent
     RDKit          3D

 26 28  0  0  0  0  0  0  0  0999 V2000
    7.1100   -3.3450   19.2810 C   0  0  0  0  0  0  0  0  0  0  0  0
    6.4590   -4.1980   20.2660 C   0  0  0  0  0  0  0  0  0  0  0  0
    5.3800   -4.7370   19.9580 O   0  0  0  0  0  0  0  0  0  0  0  0
    7.0960   -4.4530   21.5020 N   0  0  0  0  0  0  0  0  0  0  0  0
    6.6310   -5.5560   22.2690 C   0  0  0  0  0  0  0  0  0  0  0  0
    5.7020   -5.0200   23.3110 C   0  0  0  0  0  0  0  0  0  0  0  0
    6.4730   -3.9960   24.1190 C   0  0  0  0  0  0  0  0  0  0  0  0
    5.6150   -3.5030   25.2190 C   0  0  0  0  0  0  0  0  0  0  0  0
    4.7000   -2.7600   24.8830 O   0  0  0  0  0  0  0  0  0  0  0  0
    5.8840   -3.9030   26.5040 N   0  0  0  0  0  0  0  0  0  0  0  0
    4.9670   -4.7610   27.1490 C   0  0  0  0  0  0  0  0  0  0  0  0
    5.0430   -4.8550   28.5390 C   0  0  0  0  0  0  0  0  0  0  0  0
    5.7390   -3.9090   29.2090 C   0  0  0  0  0  0  0  0  0  0  0  0
    4.9890   -2.9050   29.8340 C   0  0  0  0  0  0  0  0  0  0  0  0
    4.4610   -1.9940   28.7700 C   0  0  0  0  0  0  0  0  0  0  0  0
    3.1220   -2.3570   28.0580 C   0  0  0  0  0  0  0  0  0  0  0  0
    2.4970   -3.5170   28.4660 F   0  0  0  0  0  0  0  0  0  0  0  0
    2.5770   -1.4750   27.0030 C   0  0  0  0  0  0  0  0  0  0  0  0
    3.3550   -0.2490   26.6650 C   0  0  0  0  0  0  0  0  0  0  0  0
    4.6680    0.0530   27.4100 C   0  0  0  0  0  0  0  0  0  0  0  0
    5.2320   -0.7230   28.4000 C   0  0  0  0  0  0  0  0  0  0  0  0
    6.4130   -0.2560   28.9280 F   0  0  0  0  0  0  0  0  0  0  0  0
    6.8660   -3.4690   28.6200 C   0  0  0  0  0  0  0  0  0  0  0  0
    6.4200   -2.8820   27.3170 C   0  0  0  0  0  0  0  0  0  0  0  0
    6.9220   -2.8240   23.2460 C   0  0  0  0  0  0  0  0  0  0  0  0
    7.7980   -3.4110   22.1830 C   0  0  0  0  0  0  0  0  0  0  0  0
  1  2  1  0
  2  3  2  0
  2  4  1  0
  4  5  1  0
  5  6  1  0
  6  7  1  0
  7  8  1  0
  8  9  2  0
  8 10  1  0
 10 11  1  0
 11 12  1  0
 12 13  1  0
 13 14  1  0
 14 15  1  0
 15 16  2  0
 16 17  1  0
 16 18  1  0
 18 19  2  0
 19 20  1  0
 15 21  1  0
 20 21  2  0
 21 22  1  0
 13 23  1  0
 10 24  1  0
 23 24  1  0
  7 25  1  0
  4 26  1  0
 25 26  1  0
M  END
