piperidine-amides-30160-covalent
     RDKit          3D

 27 30  0  0  0  0  0  0  0  0999 V2000
    7.0980   -3.3460   19.2760 C   0  0  0  0  0  0  0  0  0  0  0  0
    6.3500   -4.1010   20.2650 C   0  0  0  0  0  0  0  0  0  0  0  0
    5.3160   -4.6820   19.9400 O   0  0  0  0  0  0  0  0  0  0  0  0
    6.8630   -4.2100   21.5990 N   0  0  0  0  0  0  0  0  0  0  0  0
    7.7320   -3.1980   22.1420 C   0  0  0  0  0  0  0  0  0  0  0  0
    7.1900   -2.6940   23.4410 C   0  0  0  0  0  0  0  0  0  0  0  0
    6.7800   -3.8730   24.3110 C   0  0  0  0  0  0  0  0  0  0  0  0
    5.9180   -3.3310   25.3870 C   0  0  0  0  0  0  0  0  0  0  0  0
    4.7370   -3.0030   25.1710 O   0  0  0  0  0  0  0  0  0  0  0  0
    6.4530   -3.2220   26.6940 N   0  0  0  0  0  0  0  0  0  0  0  0
    6.3910   -4.4790   27.4280 C   0  0  0  0  0  0  0  0  0  0  0  0
    7.5150   -4.6610   28.1380 C   0  0  0  0  0  0  0  0  0  0  0  0
    6.4230   -4.3710   29.0040 C   0  0  0  0  0  0  0  0  0  0  0  0
    6.1920   -1.9480   27.4900 C   0  0  1  0  0  0  0  0  0  0  0  0
    7.3330   -1.6970   28.2200 C   0  0  0  0  0  0  0  0  0  0  0  0
    7.0520   -0.6590   29.1840 C   0  0  0  0  0  0  0  0  0  0  0  0
    6.3980    0.4600   28.7420 C   0  0  0  0  0  0  0  0  0  0  0  0
    5.9930    0.4380   27.4180 C   0  0  0  0  0  0  0  0  0  0  0  0
    5.7020   -0.8120   26.8210 C   0  0  2  0  0  0  0  0  0  0  0  0
    4.2590   -0.8890   26.4730 C   0  0  0  0  0  0  0  0  0  0  0  0
    3.6030    0.2960   26.0880 C   0  0  0  0  0  0  0  0  0  0  0  0
    2.7700    0.8160   27.0880 C   0  0  0  0  0  0  0  0  0  0  0  0
    1.6310   -0.0660   27.4430 C   0  0  0  0  0  0  0  0  0  0  0  0
    2.0260   -1.5250   27.4820 C   0  0  0  0  0  0  0  0  0  0  0  0
    3.5130   -1.7360   27.3470 C   0  0  0  0  0  0  0  0  0  0  0  0
    6.0200   -4.9800   23.6350 C   0  0  0  0  0  0  0  0  0  0  0  0
    6.5180   -5.3380   22.3880 C   0  0  0  0  0  0  0  0  0  0  0  0
  1  2  1  0
  2  3  2  0
  2  4  1  0
  4  5  1  0
  5  6  1  0
  6  7  1  0
  7  8  1  0
  8  9  2  0
  8 10  1  0
 10 11  1  0
 11 12  1  0
 11 13  1  0
 12 13  1  0
 14 10  1  6
 14 15  1  0
 15 16  1  0
 16 17  1  0
 17 18  1  0
 14 19  1  0
 18 19  1  0
 19 20  1  1
 20 21  1  0
 21 22  1  0
 22 23  1  0
 23 24  1  0
 20 25  1  0
 24 25  1  0
  7 26  1  0
  4 27  1  0
 26 27  1  0
M  END
