piperidine-amides-10947-covalent
     RDKit          3D

 21 23  0  0  0  0  0  0  0  0999 V2000
    7.0640   -3.3330   19.3230 C   0  0  0  0  0  0  0  0  0  0  0  0
    6.3620   -4.1580   20.3050 C   0  0  0  0  0  0  0  0  0  0  0  0
    5.3370   -4.7670   19.9590 O   0  0  0  0  0  0  0  0  0  0  0  0
    6.8500   -4.3230   21.6100 N   0  0  0  0  0  0  0  0  0  0  0  0
    6.5830   -5.4980   22.3950 C   0  0  0  0  0  0  0  0  0  0  0  0
    5.8240   -5.0020   23.5990 C   0  0  0  0  0  0  0  0  0  0  0  0
    6.5060   -3.8430   24.2780 C   0  0  0  0  0  0  0  0  0  0  0  0
    5.7610   -3.3400   25.4700 C   0  0  0  0  0  0  0  0  0  0  0  0
    4.4940   -3.2140   25.4520 O   0  0  0  0  0  0  0  0  0  0  0  0
    6.3890   -2.9890   26.6900 N   0  0  0  0  0  0  0  0  0  0  0  0
    6.6920   -1.5750   27.0490 C   0  0  1  0  0  0  0  0  0  0  0  0
    5.5680   -0.6920   26.6340 C   0  0  0  0  0  0  0  0  0  0  0  0
    5.6680    0.7230   27.0450 C   0  0  0  0  0  0  0  0  0  0  0  0
    6.2210    0.9450   28.3720 N   0  0  0  0  0  0  0  0  0  0  0  0
    6.1980    2.1110   28.8960 N   0  0  0  0  0  0  0  0  0  0  0  0
    6.8270    1.8080   30.1330 C   0  0  0  0  0  0  0  0  0  0  0  0
    7.1980    0.4390   30.2700 N   0  0  0  0  0  0  0  0  0  0  0  0
    6.7630   -0.1410   29.0320 C   0  0  0  0  0  0  0  0  0  0  0  0
    6.8450   -1.5350   28.5360 C   0  0  0  0  0  0  0  0  0  0  0  0
    6.7600   -2.7530   23.2680 C   0  0  0  0  0  0  0  0  0  0  0  0
    7.5610   -3.2280   22.2280 C   0  0  0  0  0  0  0  0  0  0  0  0
  1  2  1  0
  2  3  2  0
  2  4  1  0
  4  5  1  0
  5  6  1  0
  6  7  1  0
  7  8  1  0
  8  9  2  0
  8 10  1  0
 11 10  1  1
 11 12  1  0
 12 13  1  0
 13 14  1  0
 14 15  1  0
 15 16  2  0
 16 17  1  0
 14 18  1  0
 17 18  2  0
 11 19  1  0
 18 19  1  0
  7 20  1  0
  4 21  1  0
 20 21  1  0
M  END
