piperidine-amides-24532-covalent
     RDKit          3D

 24 26  0  0  0  0  0  0  0  0999 V2000
    7.0780   -3.3390   19.3800 C   0  0  0  0  0  0  0  0  0  0  0  0
    6.4170   -4.2320   20.3440 C   0  0  0  0  0  0  0  0  0  0  0  0
    5.4090   -4.8890   19.9940 O   0  0  0  0  0  0  0  0  0  0  0  0
    6.9390   -4.3940   21.6380 N   0  0  0  0  0  0  0  0  0  0  0  0
    6.6170   -5.6160   22.3580 C   0  0  0  0  0  0  0  0  0  0  0  0
    6.1820   -5.2310   23.7890 C   0  0  0  0  0  0  0  0  0  0  0  0
    5.9670   -3.7380   23.7710 C   0  0  0  0  0  0  0  0  0  0  0  0
    5.3590   -3.1850   25.0000 C   0  0  0  0  0  0  0  0  0  0  0  0
    4.8560   -2.0570   24.9180 O   0  0  0  0  0  0  0  0  0  0  0  0
    5.3050   -3.8710   26.2240 N   0  0  0  0  0  0  0  0  0  0  0  0
    4.0580   -4.4970   26.6020 C   0  0  0  0  0  0  0  0  0  0  0  0
    4.3170   -4.8950   28.0280 C   0  0  0  0  0  0  0  0  0  0  0  0
    5.5750   -4.5840   28.2020 C   0  0  2  0  0  0  0  0  0  0  0  0
    6.3020   -5.6310   27.7790 C   0  0  0  0  0  0  0  0  0  0  0  0
    6.3000   -6.0410   26.4580 O   0  0  0  0  0  0  0  0  0  0  0  0
    6.9700   -6.3170   28.7420 O   0  0  0  0  0  0  0  0  0  0  0  0
    6.1670   -7.0820   29.5560 C   0  0  0  0  0  0  0  0  0  0  0  0
    5.8790   -3.9180   29.3280 C   0  0  0  0  0  0  0  0  0  0  0  0
    5.7020   -2.4150   29.4920 C   0  0  0  0  0  0  0  0  0  0  0  0
    6.7980   -2.8680   28.5610 C   0  0  0  0  0  0  0  0  0  0  0  0
    6.6570   -2.3710   27.1460 C   0  0  0  0  0  0  0  0  0  0  0  0
    5.6880   -3.3680   27.4990 C   0  0  1  0  0  0  0  0  0  0  0  0
    7.2810   -3.0880   23.5000 C   0  0  0  0  0  0  0  0  0  0  0  0
    7.6860   -3.3240   22.2280 C   0  0  0  0  0  0  0  0  0  0  0  0
  1  2  1  0
  2  3  2  0
  2  4  1  0
  4  5  1  0
  5  6  1  0
  6  7  1  0
  7  8  1  0
  8  9  2  0
  8 10  1  0
 10 11  1  0
 11 12  1  0
 12 13  1  0
 13 14  1  6
 14 15  2  0
 14 16  1  0
 16 17  1  0
 13 18  1  0
 18 19  1  0
 19 20  1  0
 20 21  1  0
 10 22  1  0
 13 22  1  0
 22 21  1  6
  7 23  1  0
  4 24  1  0
 23 24  1  0
M  END
