piperidine-amides-32338-covalent
     RDKit          3D

 28 30  0  0  0  0  0  0  0  0999 V2000
    7.0690   -3.3450   19.3280 C   0  0  0  0  0  0  0  0  0  0  0  0
    6.3770   -4.1950   20.3390 C   0  0  0  0  0  0  0  0  0  0  0  0
    5.3870   -4.8580   19.9850 O   0  0  0  0  0  0  0  0  0  0  0  0
    6.8910   -4.2540   21.6510 N   0  0  0  0  0  0  0  0  0  0  0  0
    6.7280   -5.4530   22.4590 C   0  0  0  0  0  0  0  0  0  0  0  0
    6.1840   -5.0710   23.8520 C   0  0  0  0  0  0  0  0  0  0  0  0
    6.5320   -3.6430   24.1100 C   0  0  0  0  0  0  0  0  0  0  0  0
    6.3040   -3.1310   25.4790 C   0  0  0  0  0  0  0  0  0  0  0  0
    6.5440   -1.9440   25.6440 O   0  0  0  0  0  0  0  0  0  0  0  0
    5.7790   -3.9050   26.5000 N   0  0  0  0  0  0  0  0  0  0  0  0
    4.4500   -3.7400   26.8270 C   0  0  0  0  0  0  0  0  0  0  0  0
    4.1680   -4.3990   27.9360 C   0  0  1  0  0  0  0  0  0  0  0  0
    2.9510   -5.1820   27.7150 N   0  0  0  0  0  0  0  0  0  0  0  0
    2.0720   -5.0170   26.6410 C   0  0  0  0  0  0  0  0  0  0  0  0
    1.2370   -3.9280   26.4290 O   0  0  0  0  0  0  0  0  0  0  0  0
    2.1160   -6.0940   25.7820 O   0  0  0  0  0  0  0  0  0  0  0  0
    2.9760   -7.2140   25.9860 C   0  0  0  0  0  0  0  0  0  0  0  0
    2.7680   -7.7430   27.3560 C   0  0  0  0  0  0  0  0  0  0  0  0
    2.5960   -8.2510   25.1360 C   0  0  0  0  0  0  0  0  0  0  0  0
    4.2600   -6.9190   25.6040 C   0  0  0  0  0  0  0  0  0  0  0  0
    5.2600   -5.1810   28.1640 C   0  0  0  0  0  0  0  0  0  0  0  0
    6.2820   -4.1000   27.8860 C   0  0  1  0  0  0  0  0  0  0  0  0
    6.7600   -5.2880   28.6400 C   0  0  0  0  0  0  0  0  0  0  0  0
    5.8430   -5.3440   29.6290 C   0  0  0  0  0  0  0  0  0  0  0  0
    5.4590   -4.1170   29.9300 O   0  0  0  0  0  0  0  0  0  0  0  0
    5.9350   -3.1120   29.0110 C   0  0  0  0  0  0  0  0  0  0  0  0
    7.8790   -3.2750   23.6270 C   0  0  0  0  0  0  0  0  0  0  0  0
    7.8000   -3.2130   22.1210 C   0  0  0  0  0  0  0  0  0  0  0  0
  1  2  1  0
  2  3  2  0
  2  4  1  0
  4  5  1  0
  5  6  1  0
  6  7  1  0
  7  8  1  0
  8  9  2  0
  8 10  1  0
 10 11  1  0
 11 12  1  0
 12 13  1  6
 13 14  1  0
 14 15  2  0
 14 16  1  0
 17 16  1  0
 17 18  1  0
 17 19  1  0
 17 20  1  0
 12 21  1  0
 22 10  1  0
 22 21  1  1
 22 23  1  0
 23 24  1  0
 24 25  1  0
 22 26  1  0
 25 26  1  0
  7 27  1  0
  4 28  1  0
 27 28  1  0
M  END
