piperidine-amides-13176-covalent
     RDKit          3D

 19 20  0  0  0  0  0  0  0  0999 V2000
    7.1220   -3.3030   19.1930 C   0  0  0  0  0  0  0  0  0  0  0  0
    6.3390   -4.0080   20.2260 C   0  0  0  0  0  0  0  0  0  0  0  0
    5.2530   -4.5000   19.8650 O   0  0  0  0  0  0  0  0  0  0  0  0
    6.8460   -4.1570   21.5210 N   0  0  0  0  0  0  0  0  0  0  0  0
    7.6080   -3.1090   22.1040 C   0  0  0  0  0  0  0  0  0  0  0  0
    7.3690   -2.9060   23.5290 C   0  0  0  0  0  0  0  0  0  0  0  0
    6.5480   -3.9300   24.2300 C   0  0  0  0  0  0  0  0  0  0  0  0
    5.6690   -3.2280   25.1950 C   0  0  0  0  0  0  0  0  0  0  0  0
    4.6460   -2.6660   24.7660 O   0  0  0  0  0  0  0  0  0  0  0  0
    5.9640   -3.2060   26.5630 N   0  0  0  0  0  0  0  0  0  0  0  0
    5.4510   -4.2680   27.4450 C   0  0  0  0  0  0  0  0  0  0  0  0
    6.4360   -5.3550   27.5840 C   0  0  1  0  0  0  0  0  0  0  0  0
    6.0150   -6.4970   28.3970 C   0  0  0  0  0  0  0  0  0  0  0  0
    7.0250   -5.7350   28.8110 C   0  0  0  0  0  0  0  0  0  0  0  0
    7.7630   -5.0150   27.9090 C   0  0  0  0  0  0  0  0  0  0  0  0
    7.8910   -3.2900   28.1950 Cl  0  0  0  0  0  0  0  0  0  0  0  0
    8.9610   -5.7790   26.8800 Cl  0  0  0  0  0  0  0  0  0  0  0  0
    5.7800   -4.9020   23.3760 C   0  0  0  0  0  0  0  0  0  0  0  0
    6.5210   -5.2910   22.3030 C   0  0  0  0  0  0  0  0  0  0  0  0
  1  2  1  0
  2  3  2  0
  2  4  1  0
  4  5  1  0
  5  6  1  0
  6  7  1  0
  7  8  1  0
  8  9  2  0
  8 10  1  0
 10 11  1  0
 12 11  1  0
 12 13  1  6
 12 14  1  0
 12 15  1  0
 14 15  1  0
 15 16  1  0
 15 17  1  0
  7 18  1  0
  4 19  1  0
 18 19  1  0
M  END
