piperidine-amides-16192-covalent
     RDKit          3D

 19 20  0  0  0  0  0  0  0  0999 V2000
    7.0840   -3.3000   19.2950 C   0  0  0  0  0  0  0  0  0  0  0  0
    6.3380   -4.0860   20.3110 C   0  0  0  0  0  0  0  0  0  0  0  0
    5.3190   -4.6580   19.9260 O   0  0  0  0  0  0  0  0  0  0  0  0
    6.8200   -4.1860   21.6220 N   0  0  0  0  0  0  0  0  0  0  0  0
    7.6700   -3.1780   22.2240 C   0  0  0  0  0  0  0  0  0  0  0  0
    7.2220   -2.8670   23.6290 C   0  0  0  0  0  0  0  0  0  0  0  0
    5.9720   -3.6890   23.9650 C   0  0  0  0  0  0  0  0  0  0  0  0
    5.4460   -3.3160   25.3020 C   0  0  0  0  0  0  0  0  0  0  0  0
    4.2540   -2.9970   25.3710 O   0  0  0  0  0  0  0  0  0  0  0  0
    6.1970   -3.3130   26.5020 N   0  0  0  0  0  0  0  0  0  0  0  0
    6.4180   -4.6150   27.0890 C   0  0  0  0  0  0  0  0  0  0  0  0
    5.8800   -2.2730   27.4360 C   0  0  0  0  0  0  0  0  0  0  0  0
    5.4550   -1.0220   27.0710 C   0  0  0  0  0  0  0  0  0  0  0  0
    4.6090   -0.4600   27.8350 O   0  0  0  0  0  0  0  0  0  0  0  0
    6.7660   -1.1980   27.5160 C   0  0  0  0  0  0  0  0  0  0  0  0
    6.9800   -1.3490   28.7280 C   0  0  0  0  0  0  0  0  0  0  0  0
    6.0740   -2.5250   29.0210 C   0  0  0  0  0  0  0  0  0  0  0  0
    6.1760   -5.1520   23.7470 C   0  0  0  0  0  0  0  0  0  0  0  0
    6.6220   -5.4270   22.3450 C   0  0  0  0  0  0  0  0  0  0  0  0
  1  2  1  0
  2  3  2  0
  2  4  1  0
  4  5  1  0
  5  6  1  0
  6  7  1  0
  7  8  1  0
  8  9  2  0
  8 10  1  0
 10 11  1  0
 12 10  1  0
 12 13  1  0
 13 14  1  0
 12 15  1  0
 15 16  1  0
 12 17  1  0
 16 17  1  0
  7 18  1  0
  4 19  1  0
 18 19  1  0
M  END
