piperidine-amides-717-covalent
     RDKit          3D

 25 27  0  0  0  0  0  0  0  0999 V2000
    7.0580   -3.3280   19.2690 C   0  0  0  0  0  0  0  0  0  0  0  0
    6.3370   -4.0410   20.3070 C   0  0  0  0  0  0  0  0  0  0  0  0
    5.3020   -4.6750   19.9350 O   0  0  0  0  0  0  0  0  0  0  0  0
    6.7300   -4.1320   21.6660 N   0  0  0  0  0  0  0  0  0  0  0  0
    6.5820   -5.5100   22.2080 C   0  0  0  0  0  0  0  0  0  0  0  0
    6.4990   -5.2630   23.7540 C   0  0  0  0  0  0  0  0  0  0  0  0
    6.2300   -3.7940   23.9150 C   0  0  0  0  0  0  0  0  0  0  0  0
    5.4460   -3.5290   25.2700 C   0  0  0  0  0  0  0  0  0  0  0  0
    4.4120   -4.1740   25.2480 O   0  0  0  0  0  0  0  0  0  0  0  0
    6.0260   -2.7190   26.0650 N   0  0  0  0  0  0  0  0  0  0  0  0
    6.3660   -1.8270   27.0280 C   0  0  0  0  0  0  0  0  0  0  0  0
    7.0120   -1.6640   28.2540 C   0  0  0  0  0  0  0  0  0  0  0  0
    7.1770   -0.4990   29.0760 C   0  0  0  0  0  0  0  0  0  0  0  0
    6.7110    0.8930   28.8710 C   0  0  0  0  0  0  0  0  0  0  0  0
    6.0060    0.7900   27.5480 C   0  0  0  0  0  0  0  0  0  0  0  0
    5.5450    2.0870   27.3000 C   0  0  0  0  0  0  0  0  0  0  0  0
    6.6430    3.0140   27.0490 C   0  0  0  0  0  0  0  0  0  0  0  0
    5.7450    4.2590   26.8420 C   0  0  0  0  0  0  0  0  0  0  0  0
    4.2180    4.3850   26.8990 C   0  0  0  0  0  0  0  0  0  0  0  0
    3.4550    3.3460   27.1540 C   0  0  0  0  0  0  0  0  0  0  0  0
    1.5670    3.4120   27.2420 Br  0  0  0  0  0  0  0  0  0  0  0  0
    4.1470    2.2070   27.3510 C   0  0  0  0  0  0  0  0  0  0  0  0
    5.8310   -0.4250   26.6840 C   0  0  0  0  0  0  0  0  0  0  0  0
    7.3140   -2.8680   23.5250 C   0  0  0  0  0  0  0  0  0  0  0  0
    7.7250   -3.2290   22.2390 C   0  0  0  0  0  0  0  0  0  0  0  0
  1  2  1  0
  2  3  2  0
  2  4  1  0
  4  5  1  0
  5  6  1  0
  6  7  1  0
  7  8  1  0
  8  9  2  0
  8 10  1  0
 10 11  1  0
 11 12  2  0
 12 13  1  0
 13 14  2  0
 14 15  1  0
 15 16  1  0
 16 17  2  0
 17 18  1  0
 18 19  2  0
 19 20  1  0
 20 21  1  0
 16 22  1  0
 20 22  2  0
 11 23  1  0
 15 23  2  0
  7 24  1  0
  4 25  1  0
 24 25  1  0
M  END
