piperidine-amides-28601-covalent
     RDKit          3D

 25 26  0  0  0  0  0  0  0  0999 V2000
    7.0470   -3.3420   19.3450 C   0  0  0  0  0  0  0  0  0  0  0  0
    6.3880   -4.2000   20.3320 C   0  0  0  0  0  0  0  0  0  0  0  0
    5.3730   -4.8240   19.9730 O   0  0  0  0  0  0  0  0  0  0  0  0
    6.9310   -4.3460   21.6340 N   0  0  0  0  0  0  0  0  0  0  0  0
    6.6060   -5.5070   22.4090 C   0  0  0  0  0  0  0  0  0  0  0  0
    5.7910   -5.0880   23.5980 C   0  0  0  0  0  0  0  0  0  0  0  0
    6.5250   -3.9210   24.2260 C   0  0  0  0  0  0  0  0  0  0  0  0
    5.6660   -3.2760   25.2850 C   0  0  0  0  0  0  0  0  0  0  0  0
    5.0030   -2.3150   24.9120 O   0  0  0  0  0  0  0  0  0  0  0  0
    5.6200   -3.7720   26.5890 N   0  0  0  0  0  0  0  0  0  0  0  0
    6.4440   -3.3570   27.6070 C   0  0  0  0  0  0  0  0  0  0  0  0
    6.6750   -4.4280   28.4700 C   0  0  0  0  0  0  0  0  0  0  0  0
    5.5900   -4.7090   29.2400 C   0  0  2  0  0  0  0  0  0  0  0  0
    5.6700   -5.8760   30.0630 N   0  0  0  0  0  0  0  0  0  0  0  0
    4.5750   -5.9580   30.9680 C   0  0  0  0  0  0  0  0  0  0  0  0
    3.7550   -4.8730   31.2450 O   0  0  0  0  0  0  0  0  0  0  0  0
    4.2970   -7.2450   31.6710 C   0  0  0  0  0  0  0  0  0  0  0  0
    3.4780   -8.0550   30.9590 F   0  0  0  0  0  0  0  0  0  0  0  0
    3.7040   -6.9210   32.8870 F   0  0  0  0  0  0  0  0  0  0  0  0
    5.5550   -7.7800   31.9320 F   0  0  0  0  0  0  0  0  0  0  0  0
    4.4070   -4.9430   28.3160 C   0  0  1  0  0  0  0  0  0  0  0  0
    3.1420   -4.6880   29.0460 C   0  0  0  0  0  0  0  0  0  0  0  0
    4.3400   -3.9370   27.1820 C   0  0  0  0  0  0  0  0  0  0  0  0
    6.9360   -2.8510   23.3080 C   0  0  0  0  0  0  0  0  0  0  0  0
    7.7140   -3.3070   22.2740 C   0  0  0  0  0  0  0  0  0  0  0  0
  1  2  1  0
  2  3  2  0
  2  4  1  0
  4  5  1  0
  5  6  1  0
  6  7  1  0
  7  8  1  0
  8  9  2  0
  8 10  1  0
 10 11  1  0
 11 12  1  0
 12 13  1  0
 13 14  1  6
 14 15  1  0
 15 16  2  0
 15 17  1  0
 17 18  1  0
 17 19  1  0
 17 20  1  0
 13 21  1  0
 21 22  1  1
 10 23  1  0
 21 23  1  0
  7 24  1  0
  4 25  1  0
 24 25  1  0
M  END
