piperidine-amides-29682-covalent
     RDKit          3D

 27 30  0  0  0  0  0  0  0  0999 V2000
    7.0220   -3.3840   19.3950 C   0  0  0  0  0  0  0  0  0  0  0  0
    6.3640   -4.2530   20.3670 C   0  0  0  0  0  0  0  0  0  0  0  0
    5.3910   -4.9120   20.0010 O   0  0  0  0  0  0  0  0  0  0  0  0
    6.8640   -4.3820   21.7180 N   0  0  0  0  0  0  0  0  0  0  0  0
    7.5790   -3.3130   22.3570 C   0  0  0  0  0  0  0  0  0  0  0  0
    6.7420   -2.6940   23.4500 C   0  0  0  0  0  0  0  0  0  0  0  0
    6.2620   -3.7790   24.4120 C   0  0  0  0  0  0  0  0  0  0  0  0
    5.2430   -3.1990   25.3730 C   0  0  0  0  0  0  0  0  0  0  0  0
    4.3700   -2.4130   24.9830 O   0  0  0  0  0  0  0  0  0  0  0  0
    5.2570   -3.5490   26.7670 N   0  0  0  0  0  0  0  0  0  0  0  0
    4.7580   -2.6290   27.7440 C   0  0  0  0  0  0  0  0  0  0  0  0
    4.5010   -3.3830   29.0480 C   0  0  0  0  0  0  0  0  0  0  0  0
    4.9910   -4.6490   29.2810 C   0  0  0  0  0  0  0  0  0  0  0  0
    5.9320   -5.1770   28.4240 C   0  0  0  0  0  0  0  0  0  0  0  0
    6.4990   -6.3980   28.5530 C   0  0  0  0  0  0  0  0  0  0  0  0
    6.0870   -7.2220   29.6500 C   0  0  0  0  0  0  0  0  0  0  0  0
    5.1510   -6.7300   30.4980 C   0  0  0  0  0  0  0  0  0  0  0  0
    4.5910   -5.4740   30.3470 C   0  0  0  0  0  0  0  0  0  0  0  0
    3.6190   -5.0450   31.2770 N   0  0  0  0  0  0  0  0  0  0  0  0
    3.7180   -5.5150   32.5440 C   0  0  0  0  0  0  0  0  0  0  0  0
    2.5390   -6.3240   32.8690 C   0  0  0  0  0  0  0  0  0  0  0  0
    1.7320   -6.3810   31.9330 O   0  0  0  0  0  0  0  0  0  0  0  0
    2.3480   -5.6080   30.9880 C   0  0  0  0  0  0  0  0  0  0  0  0
    1.7040   -5.4060   29.7980 O   0  0  0  0  0  0  0  0  0  0  0  0
    6.2880   -4.2970   27.3020 C   0  0  0  0  0  0  0  0  0  0  0  0
    5.6110   -4.9390   23.6700 C   0  0  0  0  0  0  0  0  0  0  0  0
    6.5110   -5.4980   22.5480 C   0  0  0  0  0  0  0  0  0  0  0  0
  1  2  1  0
  2  3  2  0
  2  4  1  0
  4  5  1  0
  5  6  1  0
  6  7  1  0
  7  8  1  0
  8  9  2  0
  8 10  1  0
 10 11  1  0
 11 12  1  0
 12 13  1  0
 13 14  2  0
 14 15  1  0
 15 16  2  0
 16 17  1  0
 13 18  1  0
 17 18  2  0
 18 19  1  0
 19 20  1  0
 20 21  1  0
 21 22  1  0
 19 23  1  0
 22 23  1  0
 23 24  2  0
 10 25  1  0
 14 25  1  0
  7 26  1  0
  4 27  1  0
 26 27  1  0
M  END
