piperidine-amides-31058-covalent
     RDKit          3D

 26 28  0  0  0  0  0  0  0  0999 V2000
    7.0320   -3.3480   19.3900 C   0  0  0  0  0  0  0  0  0  0  0  0
    6.3570   -4.2110   20.3630 C   0  0  0  0  0  0  0  0  0  0  0  0
    5.3680   -4.8590   19.9820 O   0  0  0  0  0  0  0  0  0  0  0  0
    6.8120   -4.3780   21.6890 N   0  0  0  0  0  0  0  0  0  0  0  0
    6.4980   -5.5480   22.4630 C   0  0  0  0  0  0  0  0  0  0  0  0
    5.5790   -5.0630   23.5630 C   0  0  0  0  0  0  0  0  0  0  0  0
    6.1750   -3.9270   24.3470 C   0  0  0  0  0  0  0  0  0  0  0  0
    5.2270   -3.3330   25.3600 C   0  0  0  0  0  0  0  0  0  0  0  0
    4.2680   -2.6330   24.9470 O   0  0  0  0  0  0  0  0  0  0  0  0
    5.3120   -3.4980   26.7910 N   0  0  0  0  0  0  0  0  0  0  0  0
    6.5990   -3.6640   27.3580 C   0  0  0  0  0  0  0  0  0  0  0  0
    6.5750   -5.0500   27.8850 C   0  0  0  0  0  0  0  0  0  0  0  0
    5.0760   -5.6000   28.3920 S   0  0  0  0  0  0  0  0  0  0  0  0
    4.2650   -6.1870   27.3070 O   0  0  0  0  0  0  0  0  0  0  0  0
    5.1670   -6.5890   29.5360 O   0  0  0  0  0  0  0  0  0  0  0  0
    4.5840   -3.9730   28.8980 C   0  0  0  0  0  0  0  0  0  0  0  0
    4.3090   -3.0760   27.6910 C   0  0  1  0  0  0  0  0  0  0  0  0
    4.4220   -1.6570   28.2200 C   0  0  0  0  0  0  0  0  0  0  0  0
    3.4630   -0.5990   27.8240 C   0  0  0  0  0  0  0  0  0  0  0  0
    3.9080    0.5720   28.5330 N   0  0  0  0  0  0  0  0  0  0  0  0
    4.9760    0.2350   29.2410 N   0  0  0  0  0  0  0  0  0  0  0  0
    5.8790    0.9140   30.1460 C   0  0  0  0  0  0  0  0  0  0  0  0
    6.8590    0.2750   30.9260 C   0  0  0  0  0  0  0  0  0  0  0  0
    5.3240   -1.1230   29.0760 C   0  0  0  0  0  0  0  0  0  0  0  0
    6.7550   -2.8060   23.5050 C   0  0  0  0  0  0  0  0  0  0  0  0
    7.5980   -3.3640   22.3710 C   0  0  0  0  0  0  0  0  0  0  0  0
  1  2  1  0
  2  3  2  0
  2  4  1  0
  4  5  1  0
  5  6  1  0
  6  7  1  0
  7  8  1  0
  8  9  2  0
  8 10  1  0
 10 11  1  0
 11 12  1  0
 13 12  1  0
 13 14  2  0
 13 15  2  0
 13 16  1  0
 10 17  1  0
 16 17  1  0
 17 18  1  1
 18 19  1  0
 19 20  2  0
 20 21  1  0
 21 22  1  0
 22 23  1  0
 18 24  2  0
 21 24  1  0
  7 25  1  0
  4 26  1  0
 25 26  1  0
M  END
