piperidine-amides-25949-covalent
     RDKit          3D

 25 27  0  0  0  0  0  0  0  0999 V2000
    7.1060   -3.3740   19.3660 C   0  0  0  0  0  0  0  0  0  0  0  0
    6.3850   -4.1940   20.3340 C   0  0  0  0  0  0  0  0  0  0  0  0
    5.3540   -4.7840   19.9710 O   0  0  0  0  0  0  0  0  0  0  0  0
    6.8730   -4.3750   21.6430 N   0  0  0  0  0  0  0  0  0  0  0  0
    6.6230   -5.6000   22.3780 C   0  0  0  0  0  0  0  0  0  0  0  0
    6.2390   -5.2030   23.7930 C   0  0  0  0  0  0  0  0  0  0  0  0
    6.1290   -3.7150   23.9590 C   0  0  0  0  0  0  0  0  0  0  0  0
    5.5220   -3.2530   25.2340 C   0  0  0  0  0  0  0  0  0  0  0  0
    4.7860   -2.2310   25.2330 O   0  0  0  0  0  0  0  0  0  0  0  0
    5.6820   -3.8770   26.4800 N   0  0  0  0  0  0  0  0  0  0  0  0
    6.3770   -3.1980   27.5370 C   0  0  0  0  0  0  0  0  0  0  0  0
    6.7020   -4.3260   28.4170 C   0  0  0  0  0  0  0  0  0  0  0  0
    5.5580   -4.7250   29.1660 C   0  0  0  0  0  0  0  0  0  0  0  0
    5.4390   -3.7920   29.9630 O   0  0  0  0  0  0  0  0  0  0  0  0
    5.7970   -6.1630   29.5590 C   0  0  0  0  0  0  0  0  0  0  0  0
    5.0640   -6.4380   30.8530 C   0  0  0  0  0  0  0  0  0  0  0  0
    5.6380   -7.5550   31.6350 C   0  0  0  0  0  0  0  0  0  0  0  0
    4.9800   -7.7990   32.8030 C   0  0  0  0  0  0  0  0  0  0  0  0
    3.8660   -7.0690   33.2270 C   0  0  0  0  0  0  0  0  0  0  0  0
    3.3230   -5.9350   32.3780 C   0  0  0  0  0  0  0  0  0  0  0  0
    3.9010   -5.6130   31.2050 N   0  0  0  0  0  0  0  0  0  0  0  0
    4.4240   -4.6470   28.4140 C   0  0  0  0  0  0  0  0  0  0  0  0
    4.6060   -4.7470   26.9070 C   0  0  0  0  0  0  0  0  0  0  0  0
    7.4360   -3.0960   23.6260 C   0  0  0  0  0  0  0  0  0  0  0  0
    7.6620   -3.3050   22.1870 C   0  0  0  0  0  0  0  0  0  0  0  0
  1  2  1  0
  2  3  2  0
  2  4  1  0
  4  5  1  0
  5  6  1  0
  6  7  1  0
  7  8  1  0
  8  9  2  0
  8 10  1  0
 10 11  1  0
 11 12  1  0
 12 13  1  0
 13 14  1  0
 13 15  1  0
 15 16  1  0
 16 17  2  0
 17 18  1  0
 18 19  2  0
 19 20  1  0
 16 21  1  0
 20 21  2  0
 13 22  1  0
 10 23  1  0
 22 23  1  0
  7 24  1  0
  4 25  1  0
 24 25  1  0
M  END
