piperidine-amides-13338-covalent
     RDKit          3D

 26 28  0  0  0  0  0  0  0  0999 V2000
    7.1080   -3.3070   19.2170 C   0  0  0  0  0  0  0  0  0  0  0  0
    6.3610   -4.0500   20.2550 C   0  0  0  0  0  0  0  0  0  0  0  0
    5.2790   -4.5540   19.8910 O   0  0  0  0  0  0  0  0  0  0  0  0
    6.8750   -4.2260   21.5480 N   0  0  0  0  0  0  0  0  0  0  0  0
    7.6640   -3.2150   22.1810 C   0  0  0  0  0  0  0  0  0  0  0  0
    7.2370   -2.9410   23.5440 C   0  0  0  0  0  0  0  0  0  0  0  0
    6.0010   -3.6630   23.9110 C   0  0  0  0  0  0  0  0  0  0  0  0
    5.5540   -3.2540   25.2560 C   0  0  0  0  0  0  0  0  0  0  0  0
    4.3970   -2.8140   25.3780 O   0  0  0  0  0  0  0  0  0  0  0  0
    6.3850   -3.3580   26.3700 N   0  0  0  0  0  0  0  0  0  0  0  0
    5.9000   -3.9090   27.6490 C   0  0  2  0  0  0  0  0  0  0  0  0
    6.7540   -3.5380   28.7880 C   0  0  0  0  0  0  0  0  0  0  0  0
    5.7030   -5.3750   27.6780 C   0  0  0  0  0  0  0  0  0  0  0  0
    5.2810   -5.8920   28.8780 C   0  0  0  0  0  0  0  0  0  0  0  0
    5.9980   -6.8710   29.5830 C   0  0  0  0  0  0  0  0  0  0  0  0
    5.5470   -7.3650   30.7940 C   0  0  0  0  0  0  0  0  0  0  0  0
    4.3790   -6.8590   31.2690 C   0  0  0  0  0  0  0  0  0  0  0  0
    3.6960   -5.9560   30.6390 C   0  0  0  0  0  0  0  0  0  0  0  0
    4.1040   -5.4380   29.4360 C   0  0  0  0  0  0  0  0  0  0  0  0
    2.5660   -5.6020   31.3040 C   0  0  0  0  0  0  0  0  0  0  0  0
    2.5360   -6.4370   32.5940 C   0  0  0  0  0  0  0  0  0  0  0  0
    3.7920   -7.2120   32.4160 N   0  0  0  0  0  0  0  0  0  0  0  0
    4.2700   -8.2290   33.3050 C   0  0  0  0  0  0  0  0  0  0  0  0
    5.6650   -8.0640   33.4260 C   0  0  0  0  0  0  0  0  0  0  0  0
    6.0380   -5.1000   23.6160 C   0  0  0  0  0  0  0  0  0  0  0  0
    6.6710   -5.4540   22.3100 C   0  0  0  0  0  0  0  0  0  0  0  0
  1  2  1  0
  2  3  2  0
  2  4  1  0
  4  5  1  0
  5  6  1  0
  6  7  1  0
  7  8  1  0
  8  9  2  0
  8 10  1  0
 10 11  1  0
 11 12  1  1
 11 13  1  0
 13 14  1  0
 14 15  2  0
 15 16  1  0
 16 17  2  0
 17 18  1  0
 14 19  1  0
 18 19  2  0
 18 20  1  0
 20 21  1  0
 17 22  1  0
 21 22  1  0
 22 23  1  0
 23 24  1  0
  7 25  1  0
  4 26  1  0
 25 26  1  0
M  END
