piperidine-amides-35459-covalent
     RDKit          3D

 36 39  0  0  0  0  0  0  0  0999 V2000
    7.0110   -3.2380   19.1620 C   0  0  0  0  0  0  0  0  0  0  0  0
    6.1760   -3.9730   20.1570 C   0  0  0  0  0  0  0  0  0  0  0  0
    5.1200   -4.4480   19.7920 O   0  0  0  0  0  0  0  0  0  0  0  0
    6.6110   -4.1310   21.4510 N   0  0  0  0  0  0  0  0  0  0  0  0
    6.3760   -5.3470   22.1980 C   0  0  0  0  0  0  0  0  0  0  0  0
    5.7270   -5.0330   23.5280 C   0  0  0  0  0  0  0  0  0  0  0  0
    6.4170   -3.8200   24.1680 C   0  0  0  0  0  0  0  0  0  0  0  0
    5.9140   -3.6270   25.5360 C   0  0  0  0  0  0  0  0  0  0  0  0
    4.6890   -3.7050   25.7290 O   0  0  0  0  0  0  0  0  0  0  0  0
    6.7810   -3.3320   26.6290 N   0  0  0  0  0  0  0  0  0  0  0  0
    7.8170   -4.2860   27.0520 C   0  0  0  0  0  0  0  0  0  0  0  0
    8.3260   -5.1770   25.9310 C   0  0  0  0  0  0  0  0  0  0  0  0
    9.4110   -4.5210   25.1340 N   0  0  0  0  0  0  0  0  0  0  0  0
    9.7450   -3.2440   25.7540 C   0  0  0  0  0  0  0  0  0  0  0  0
   10.8390   -2.6920   25.1340 C   0  0  0  0  0  0  0  0  0  0  0  0
   10.6420   -1.5740   24.3870 C   0  0  0  0  0  0  0  0  0  0  0  0
   11.6740   -0.7740   23.6010 C   0  0  0  0  0  0  0  0  0  0  0  0
   13.0480   -1.3470   23.7200 C   0  0  0  0  0  0  0  0  0  0  0  0
   13.2760   -2.5810   24.5510 C   0  0  0  0  0  0  0  0  0  0  0  0
   12.1060   -3.1970   25.2300 C   0  0  0  0  0  0  0  0  0  0  0  0
    8.8210   -4.2770   23.8750 C   0  0  0  0  0  0  0  0  0  0  0  0
    8.9400   -2.8380   23.3980 C   0  0  0  0  0  0  0  0  0  0  0  0
    9.8190   -2.4540   22.2600 C   0  0  0  0  0  0  0  0  0  0  0  0
    9.9460   -1.0540   21.7700 C   0  0  0  0  0  0  0  0  0  0  0  0
    9.2480   -0.0440   22.3500 C   0  0  0  0  0  0  0  0  0  0  0  0
    8.3370   -0.3440   23.5050 C   0  0  0  0  0  0  0  0  0  0  0  0
    8.2240   -1.8050   24.0030 C   0  0  0  0  0  0  0  0  0  0  0  0
    6.0690   -2.7210   27.7400 C   0  0  0  0  0  0  0  0  0  0  0  0
    5.8030   -1.3890   27.6040 C   0  0  0  0  0  0  0  0  0  0  0  0
    4.9290   -0.7190   28.6770 C   0  0  0  0  0  0  0  0  0  0  0  0
    4.6230    0.7130   28.5810 C   0  0  0  0  0  0  0  0  0  0  0  0
    5.2030    1.4370   27.4080 C   0  0  0  0  0  0  0  0  0  0  0  0
    6.0410    0.6570   26.4280 C   0  0  0  0  0  0  0  0  0  0  0  0
    6.2850   -0.6590   26.5690 N   0  0  0  0  0  0  0  0  0  0  0  0
    6.2990   -2.6710   23.2400 C   0  0  0  0  0  0  0  0  0  0  0  0
    7.2220   -3.0120   22.0800 C   0  0  0  0  0  0  0  0  0  0  0  0
  1  2  1  0
  2  3  2  0
  2  4  1  0
  4  5  1  0
  5  6  1  0
  6  7  1  0
  7  8  1  0
  8  9  2  0
  8 10  1  0
 10 11  1  0
 11 12  1  0
 12 13  1  0
 13 14  1  0
 14 15  1  0
 15 16  2  0
 16 17  1  0
 17 18  2  0
 18 19  1  0
 15 20  1  0
 19 20  2  0
 13 21  1  0
 21 22  1  0
 22 23  2  0
 23 24  1  0
 24 25  2  0
 25 26  1  0
 22 27  1  0
 26 27  2  0
 10 28  1  0
 28 29  1  0
 29 30  2  0
 30 31  1  0
 31 32  2  0
 32 33  1  0
 29 34  1  0
 33 34  2  0
  7 35  1  0
  4 36  1  0
 35 36  1  0
M  END
