piperidine-amides-32727-covalent
     RDKit          3D

 26 27  0  0  0  0  0  0  0  0999 V2000
    7.1320   -3.2860   19.2460 C   0  0  0  0  0  0  0  0  0  0  0  0
    6.3390   -4.0510   20.2450 C   0  0  0  0  0  0  0  0  0  0  0  0
    5.2680   -4.5710   19.8930 O   0  0  0  0  0  0  0  0  0  0  0  0
    6.8510   -4.2200   21.5470 N   0  0  0  0  0  0  0  0  0  0  0  0
    6.5650   -5.3760   22.3530 C   0  0  0  0  0  0  0  0  0  0  0  0
    5.7040   -4.8880   23.5220 C   0  0  0  0  0  0  0  0  0  0  0  0
    6.4540   -3.7960   24.2120 C   0  0  0  0  0  0  0  0  0  0  0  0
    5.7250   -3.2650   25.3880 C   0  0  0  0  0  0  0  0  0  0  0  0
    4.5240   -3.0440   25.2000 O   0  0  0  0  0  0  0  0  0  0  0  0
    6.3450   -3.0300   26.6280 N   0  0  0  0  0  0  0  0  0  0  0  0
    6.3040   -3.9740   27.6990 C   0  0  0  0  0  0  0  0  0  0  0  0
    6.4520   -1.6770   27.0650 C   0  0  0  0  0  0  0  0  0  0  0  0
    5.3940   -1.2090   27.8620 C   0  0  0  0  0  0  0  0  0  0  0  0
    4.2210   -1.9170   27.9150 C   0  0  0  0  0  0  0  0  0  0  0  0
    3.0710   -1.5000   28.7230 C   0  0  0  0  0  0  0  0  0  0  0  0
    3.1390   -0.2340   29.5530 C   0  0  0  0  0  0  0  0  0  0  0  0
    4.4890    0.4860   29.4270 C   0  0  0  0  0  0  0  0  0  0  0  0
    4.7440    1.9860   30.3310 S   0  0  0  0  0  0  0  0  0  0  0  0
    5.9320    1.3200   32.2250 F   0  0  0  0  0  0  0  0  0  0  0  0
    3.9350    3.0420   30.1260 F   0  0  0  0  0  0  0  0  0  0  0  0
    6.0250    3.3930   29.7950 F   0  0  0  0  0  0  0  0  0  0  0  0
    4.0890    2.2420   32.0660 F   0  0  0  0  0  0  0  0  0  0  0  0
    6.9140    1.5270   30.3640 F   0  0  0  0  0  0  0  0  0  0  0  0
    5.5010   -0.0400   28.6070 C   0  0  0  0  0  0  0  0  0  0  0  0
    6.8400   -2.6540   23.3430 C   0  0  0  0  0  0  0  0  0  0  0  0
    7.6190   -3.1480   22.1450 C   0  0  0  0  0  0  0  0  0  0  0  0
  1  2  1  0
  2  3  2  0
  2  4  1  0
  4  5  1  0
  5  6  1  0
  6  7  1  0
  7  8  1  0
  8  9  2  0
  8 10  1  0
 10 11  1  0
 10 12  1  0
 12 13  1  0
 13 14  2  0
 14 15  1  0
 15 16  2  0
 16 17  1  0
 17 18  1  0
 18 19  1  0
 18 20  1  0
 18 21  1  0
 18 22  1  0
 18 23  1  0
 13 24  1  0
 17 24  2  0
  7 25  1  0
  4 26  1  0
 25 26  1  0
M  END
