piperidine-amides-24113-covalent
     RDKit          3D

 24 26  0  0  0  0  0  0  0  0999 V2000
    7.1000   -3.3170   19.2760 C   0  0  0  0  0  0  0  0  0  0  0  0
    6.4050   -4.1450   20.2780 C   0  0  0  0  0  0  0  0  0  0  0  0
    5.3310   -4.6840   19.9300 O   0  0  0  0  0  0  0  0  0  0  0  0
    6.9670   -4.3750   21.5540 N   0  0  0  0  0  0  0  0  0  0  0  0
    6.4930   -5.4830   22.2960 C   0  0  0  0  0  0  0  0  0  0  0  0
    6.0130   -5.1170   23.6230 C   0  0  0  0  0  0  0  0  0  0  0  0
    6.7200   -3.9760   24.2380 C   0  0  0  0  0  0  0  0  0  0  0  0
    6.0400   -3.5480   25.4990 C   0  0  0  0  0  0  0  0  0  0  0  0
    5.0080   -2.8450   25.4470 O   0  0  0  0  0  0  0  0  0  0  0  0
    6.5680   -3.9580   26.7300 N   0  0  0  0  0  0  0  0  0  0  0  0
    7.0470   -5.1870   27.0210 C   0  0  0  0  0  0  0  0  0  0  0  0
    6.7940   -5.2860   28.4200 C   0  0  0  0  0  0  0  0  0  0  0  0
    5.2810   -4.8370   28.5360 C   0  0  1  0  0  0  0  0  0  0  0  0
    4.6280   -5.6860   27.6700 O   0  0  0  0  0  0  0  0  0  0  0  0
    4.6250   -4.8000   29.7560 C   0  0  0  0  0  0  0  0  0  0  0  0
    4.2490   -3.2980   29.7570 C   0  0  0  0  0  0  0  0  0  0  0  0
    3.4700   -2.8540   30.9930 C   0  0  0  0  0  0  0  0  0  0  0  0
    3.2120   -4.0010   31.9950 C   0  0  0  0  0  0  0  0  0  0  0  0
    3.6140   -5.4390   31.9200 C   0  0  0  0  0  0  0  0  0  0  0  0
    4.3660   -5.7600   30.6790 C   0  0  0  0  0  0  0  0  0  0  0  0
    4.7550   -7.0630   30.5600 F   0  0  0  0  0  0  0  0  0  0  0  0
    5.9130   -3.5410   27.9480 C   0  0  0  0  0  0  0  0  0  0  0  0
    6.8860   -2.8580   23.2630 C   0  0  0  0  0  0  0  0  0  0  0  0
    7.7120   -3.3470   22.2540 C   0  0  0  0  0  0  0  0  0  0  0  0
  1  2  1  0
  2  3  2  0
  2  4  1  0
  4  5  1  0
  5  6  1  0
  6  7  1  0
  7  8  1  0
  8  9  2  0
  8 10  1  0
 10 11  1  0
 11 12  1  0
 12 13  1  0
 13 14  1  6
 13 15  1  0
 15 16  2  0
 16 17  1  0
 17 18  2  0
 18 19  1  0
 15 20  1  0
 19 20  2  0
 20 21  1  0
 10 22  1  0
 13 22  1  0
  7 23  1  0
  4 24  1  0
 23 24  1  0
M  END
