piperidine-amides-19512-covalent
     RDKit          3D

 20 20  0  0  0  0  0  0  0  0999 V2000
    7.1320   -3.2380   19.2950 C   0  0  0  0  0  0  0  0  0  0  0  0
    6.3070   -3.9770   20.2310 C   0  0  0  0  0  0  0  0  0  0  0  0
    5.2190   -4.4790   19.8290 O   0  0  0  0  0  0  0  0  0  0  0  0
    6.6630   -4.2050   21.5640 N   0  0  0  0  0  0  0  0  0  0  0  0
    7.6830   -3.3130   22.1570 C   0  0  0  0  0  0  0  0  0  0  0  0
    6.8840   -2.7510   23.3810 C   0  0  0  0  0  0  0  0  0  0  0  0
    5.9890   -3.8830   23.8450 C   0  0  0  0  0  0  0  0  0  0  0  0
    5.5050   -3.6720   25.3400 C   0  0  0  0  0  0  0  0  0  0  0  0
    4.4380   -4.2270   25.5580 O   0  0  0  0  0  0  0  0  0  0  0  0
    6.3670   -2.9510   25.9140 N   0  0  0  0  0  0  0  0  0  0  0  0
    7.0190   -1.8030   26.1690 C   0  0  0  0  0  0  0  0  0  0  0  0
    6.9500   -3.7730   26.9220 C   0  0  0  0  0  0  0  0  0  0  0  0
    8.2230   -4.3930   26.7170 C   0  0  0  0  0  0  0  0  0  0  0  0
    8.6850   -4.4540   25.3140 C   0  0  0  0  0  0  0  0  0  0  0  0
   10.1330   -3.5240   24.8760 S   0  0  0  0  0  0  0  0  0  0  0  0
    9.9920   -1.8210   25.1560 C   0  0  0  0  0  0  0  0  0  0  0  0
   11.3550   -4.0170   25.5390 O   0  0  0  0  0  0  0  0  0  0  0  0
   10.2000   -3.4300   23.3970 O   0  0  0  0  0  0  0  0  0  0  0  0
    6.3620   -5.3180   23.5250 C   0  0  0  0  0  0  0  0  0  0  0  0
    6.4300   -5.5010   22.1420 C   0  0  0  0  0  0  0  0  0  0  0  0
  1  2  1  0
  2  3  2  0
  2  4  1  0
  4  5  1  0
  5  6  1  0
  6  7  1  0
  7  8  1  0
  8  9  2  0
  8 10  1  0
 10 11  1  0
 10 12  1  0
 12 13  1  0
 13 14  1  0
 15 14  1  0
 15 16  1  0
 15 17  2  0
 15 18  2  0
  7 19  1  0
  4 20  1  0
 19 20  1  0
M  END
