piperidine-amides-13499-covalent
     RDKit          3D

 21 22  0  0  0  0  0  0  0  0999 V2000
    7.0710   -3.2850   19.2490 C   0  0  0  0  0  0  0  0  0  0  0  0
    6.2900   -4.1150   20.2120 C   0  0  0  0  0  0  0  0  0  0  0  0
    5.2000   -4.5830   19.8690 O   0  0  0  0  0  0  0  0  0  0  0  0
    6.8380   -4.3900   21.4690 N   0  0  0  0  0  0  0  0  0  0  0  0
    7.5130   -3.3820   22.2110 C   0  0  0  0  0  0  0  0  0  0  0  0
    6.4190   -2.7030   23.0290 C   0  0  0  0  0  0  0  0  0  0  0  0
    5.8070   -3.7550   23.8920 C   0  0  0  0  0  0  0  0  0  0  0  0
    5.8890   -3.4060   25.3170 C   0  0  0  0  0  0  0  0  0  0  0  0
    4.8180   -3.2790   25.9200 O   0  0  0  0  0  0  0  0  0  0  0  0
    7.1490   -3.2260   25.8980 N   0  0  0  0  0  0  0  0  0  0  0  0
    8.0320   -2.1470   25.6490 C   0  0  0  0  0  0  0  0  0  0  0  0
    9.1030   -2.1350   24.7510 C   0  0  0  0  0  0  0  0  0  0  0  0
   10.3850   -1.8230   25.1630 C   0  0  0  0  0  0  0  0  0  0  0  0
   11.4660   -1.7900   24.3270 C   0  0  0  0  0  0  0  0  0  0  0  0
   11.2760   -2.0990   22.9030 C   0  0  0  0  0  0  0  0  0  0  0  0
   12.4230   -2.0830   21.8940 C   0  0  0  0  0  0  0  0  0  0  0  0
   13.2660   -0.9890   21.9670 O   0  0  0  0  0  0  0  0  0  0  0  0
   10.0100   -2.3990   22.5330 C   0  0  0  0  0  0  0  0  0  0  0  0
    8.9440   -2.4220   23.4190 C   0  0  0  0  0  0  0  0  0  0  0  0
    6.3410   -5.1370   23.7000 C   0  0  0  0  0  0  0  0  0  0  0  0
    6.3200   -5.5050   22.2240 C   0  0  0  0  0  0  0  0  0  0  0  0
  1  2  1  0
  2  3  2  0
  2  4  1  0
  4  5  1  0
  5  6  1  0
  6  7  1  0
  7  8  1  0
  8  9  2  0
  8 10  1  0
 10 11  1  0
 11 12  1  0
 12 13  2  0
 13 14  1  0
 14 15  2  0
 15 16  1  0
 16 17  1  0
 15 18  1  0
 12 19  1  0
 18 19  2  0
  7 20  1  0
  4 21  1  0
 20 21  1  0
M  END
