piperidine-amides-2527-covalent
     RDKit          3D

 26 27  0  0  0  0  0  0  0  0999 V2000
    7.0340   -3.2130   19.2370 C   0  0  0  0  0  0  0  0  0  0  0  0
    6.2360   -3.9610   20.2510 C   0  0  0  0  0  0  0  0  0  0  0  0
    5.2060   -4.4850   19.8450 O   0  0  0  0  0  0  0  0  0  0  0  0
    6.6270   -4.1180   21.5900 N   0  0  0  0  0  0  0  0  0  0  0  0
    6.0800   -5.2200   22.3280 C   0  0  0  0  0  0  0  0  0  0  0  0
    5.0960   -4.6980   23.3510 C   0  0  0  0  0  0  0  0  0  0  0  0
    5.5100   -3.2840   23.7990 C   0  0  0  0  0  0  0  0  0  0  0  0
    4.9090   -2.8760   25.1410 C   0  0  0  0  0  0  0  0  0  0  0  0
    4.1710   -1.8950   25.1120 O   0  0  0  0  0  0  0  0  0  0  0  0
    5.0740   -3.4730   26.4440 N   0  0  0  0  0  0  0  0  0  0  0  0
    4.4870   -4.7760   26.7800 C   0  0  0  0  0  0  0  0  0  0  0  0
    5.6360   -5.4640   26.2560 C   0  0  0  0  0  0  0  0  0  0  0  0
    5.7680   -5.2120   24.8920 C   0  0  0  0  0  0  0  0  0  0  0  0
    6.7470   -5.6050   24.0680 C   0  0  0  0  0  0  0  0  0  0  0  0
    7.6940   -6.2930   24.6020 C   0  0  0  0  0  0  0  0  0  0  0  0
    7.8330   -6.7830   26.1470 C   0  0  0  0  0  0  0  0  0  0  0  0
    9.3910   -7.6500   26.4830 C   0  0  0  0  0  0  0  0  0  0  0  0
    9.7980   -9.3600   26.8470 O   0  0  0  0  0  0  0  0  0  0  0  0
    9.2210  -10.9440   27.6300 C   0  0  0  0  0  0  0  0  0  0  0  0
    8.3780  -11.9970   25.8590 C   0  0  0  0  0  0  0  0  0  0  0  0
    8.0440  -11.7990   24.6890 O   0  0  0  0  0  0  0  0  0  0  0  0
    7.5560  -12.9900   23.1850 C   0  0  0  0  0  0  0  0  0  0  0  0
    7.3010  -12.0070   22.1990 C   0  0  0  0  0  0  0  0  0  0  0  0
    6.5810   -6.2300   26.8820 C   0  0  0  0  0  0  0  0  0  0  0  0
    7.0270   -3.0610   23.6810 C   0  0  0  0  0  0  0  0  0  0  0  0
    7.4080   -3.1160   22.3310 C   0  0  0  0  0  0  0  0  0  0  0  0
  1  2  1  0
  2  3  2  0
  2  4  1  0
  4  5  1  0
  5  6  1  0
  6  7  1  0
  7  8  1  0
  8  9  2  0
  8 10  1  0
 10 11  1  0
 11 12  1  0
 12 13  2  0
 13 14  1  0
 14 15  2  0
 15 16  1  0
 16 17  1  0
 17 18  1  0
 18 19  1  0
 19 20  1  0
 20 21  1  0
 21 22  1  0
 22 23  1  0
 12 24  1  0
 16 24  2  0
  7 25  1  0
  4 26  1  0
 25 26  1  0
M  END
