piperidine-amides-21491-covalent
     RDKit          3D

 23 25  0  0  0  0  0  0  0  0999 V2000
    7.0500   -3.3180   19.3080 C   0  0  0  0  0  0  0  0  0  0  0  0
    6.3820   -4.1390   20.3220 C   0  0  0  0  0  0  0  0  0  0  0  0
    5.3370   -4.7330   19.9510 O   0  0  0  0  0  0  0  0  0  0  0  0
    6.9190   -4.2850   21.6120 N   0  0  0  0  0  0  0  0  0  0  0  0
    6.7000   -5.5030   22.3610 C   0  0  0  0  0  0  0  0  0  0  0  0
    5.9420   -5.1260   23.6020 C   0  0  0  0  0  0  0  0  0  0  0  0
    5.7520   -3.6410   23.6210 C   0  0  0  0  0  0  0  0  0  0  0  0
    5.0670   -3.1900   24.8550 C   0  0  0  0  0  0  0  0  0  0  0  0
    4.0620   -2.4710   24.7340 O   0  0  0  0  0  0  0  0  0  0  0  0
    5.4670   -3.5080   26.1470 N   0  0  0  0  0  0  0  0  0  0  0  0
    6.1600   -2.5210   26.9190 C   0  0  0  0  0  0  0  0  0  0  0  0
    5.7860   -3.2740   28.0830 C   0  0  0  0  0  0  0  0  0  0  0  0
    6.5260   -4.2690   28.6630 C   0  0  0  0  0  0  0  0  0  0  0  0
    5.3970   -2.3050   29.1640 C   0  0  0  0  0  0  0  0  0  0  0  0
    6.5850   -1.6430   29.3820 C   0  0  0  0  0  0  0  0  0  0  0  0
    6.6360   -0.6440   30.3370 C   0  0  0  0  0  0  0  0  0  0  0  0
    5.5290   -0.2770   31.0890 C   0  0  0  0  0  0  0  0  0  0  0  0
    5.5890    0.6970   32.0110 F   0  0  0  0  0  0  0  0  0  0  0  0
    4.1900   -0.9690   30.8940 C   0  0  0  0  0  0  0  0  0  0  0  0
    4.2200   -2.0610   29.8210 C   0  0  0  0  0  0  0  0  0  0  0  0
    4.8430   -4.0230   27.4380 C   0  0  0  0  0  0  0  0  0  0  0  0
    7.0740   -2.9400   23.4750 C   0  0  0  0  0  0  0  0  0  0  0  0
    7.7020   -3.2250   22.2770 C   0  0  0  0  0  0  0  0  0  0  0  0
  1  2  1  0
  2  3  2  0
  2  4  1  0
  4  5  1  0
  5  6  1  0
  6  7  1  0
  7  8  1  0
  8  9  2  0
  8 10  1  0
 10 11  1  0
 11 12  1  0
 12 13  1  0
 12 14  1  0
 14 15  2  0
 15 16  1  0
 16 17  2  0
 17 18  1  0
 17 19  1  0
 14 20  1  0
 19 20  2  0
 10 21  1  0
 12 21  1  0
  7 22  1  0
  4 23  1  0
 22 23  1  0
M  END
