piperidine-amides-28035-covalent
     RDKit          3D

 26 28  0  0  0  0  0  0  0  0999 V2000
    6.9420   -3.2260   19.1650 C   0  0  0  0  0  0  0  0  0  0  0  0
    6.0890   -3.9510   20.1640 C   0  0  0  0  0  0  0  0  0  0  0  0
    5.0470   -4.4390   19.7500 O   0  0  0  0  0  0  0  0  0  0  0  0
    6.3850   -4.1220   21.5080 N   0  0  0  0  0  0  0  0  0  0  0  0
    5.6890   -5.1580   22.2230 C   0  0  0  0  0  0  0  0  0  0  0  0
    5.1910   -4.7570   23.5460 C   0  0  0  0  0  0  0  0  0  0  0  0
    4.9540   -3.3010   23.6970 C   0  0  0  0  0  0  0  0  0  0  0  0
    4.5670   -2.8290   25.0710 C   0  0  0  0  0  0  0  0  0  0  0  0
    3.9530   -1.7640   25.1190 O   0  0  0  0  0  0  0  0  0  0  0  0
    4.8470   -3.4490   26.3000 N   0  0  0  0  0  0  0  0  0  0  0  0
    3.9630   -3.2720   27.4760 C   0  0  0  0  0  0  0  0  0  0  0  0
    4.3760   -4.0880   28.6510 C   0  0  0  0  0  0  0  0  0  0  0  0
    5.7760   -4.3080   28.8160 C   0  0  0  0  0  0  0  0  0  0  0  0
    6.5140   -4.2240   27.7070 C   0  0  0  0  0  0  0  0  0  0  0  0
    6.2000   -3.3500   26.6300 C   0  0  1  0  0  0  0  0  0  0  0  0
    6.8660   -3.3740   25.4340 C   0  0  0  0  0  0  0  0  0  0  0  0
    7.6240   -2.2960   25.0200 C   0  0  0  0  0  0  0  0  0  0  0  0
    8.3680   -2.3020   23.8530 C   0  0  0  0  0  0  0  0  0  0  0  0
    8.3770   -3.4410   23.0320 C   0  0  0  0  0  0  0  0  0  0  0  0
    7.5720   -4.6260   23.4110 C   0  0  0  0  0  0  0  0  0  0  0  0
    7.5250   -5.6140   22.8040 N   0  0  0  0  0  0  0  0  0  0  0  0
    7.8910   -6.7210   23.3460 O   0  0  0  0  0  0  0  0  0  0  0  0
    7.7000   -5.6090   21.4220 O   0  0  0  0  0  0  0  0  0  0  0  0
    6.7910   -4.5150   24.6700 C   0  0  0  0  0  0  0  0  0  0  0  0
    6.0230   -2.3890   23.0300 C   0  0  0  0  0  0  0  0  0  0  0  0
    7.0090   -3.0820   22.2800 C   0  0  0  0  0  0  0  0  0  0  0  0
  1  2  1  0
  2  3  2  0
  2  4  1  0
  4  5  1  0
  5  6  1  0
  6  7  1  0
  7  8  1  0
  8  9  2  0
  8 10  1  0
 10 11  1  0
 11 12  1  0
 12 13  1  0
 13 14  1  0
 10 15  1  0
 14 15  1  0
 15 16  1  6
 16 17  2  0
 17 18  1  0
 18 19  2  0
 19 20  1  0
 20 21  1  0
 21 22  2  0
 21 23  1  0
 16 24  1  0
 20 24  2  0
  7 25  1  0
  4 26  1  0
 25 26  1  0
M  CHG  2  21   1  23  -1
M  END
