piperidine-amides-30138-covalent
     RDKit          3D

 27 28  0  0  0  0  0  0  0  0999 V2000
    7.1120   -3.2650   19.2410 C   0  0  0  0  0  0  0  0  0  0  0  0
    6.3480   -4.0330   20.2180 C   0  0  0  0  0  0  0  0  0  0  0  0
    5.2920   -4.5720   19.8930 O   0  0  0  0  0  0  0  0  0  0  0  0
    6.8480   -4.2090   21.5530 N   0  0  0  0  0  0  0  0  0  0  0  0
    6.5020   -5.3870   22.2920 C   0  0  0  0  0  0  0  0  0  0  0  0
    5.7150   -5.0020   23.5150 C   0  0  0  0  0  0  0  0  0  0  0  0
    6.5030   -3.9470   24.2720 C   0  0  0  0  0  0  0  0  0  0  0  0
    5.6870   -3.4120   25.4100 C   0  0  0  0  0  0  0  0  0  0  0  0
    4.4400   -3.4350   25.3880 O   0  0  0  0  0  0  0  0  0  0  0  0
    6.3380   -2.8300   26.5330 N   0  0  0  0  0  0  0  0  0  0  0  0
    6.2900   -3.4060   27.8760 C   0  0  0  0  0  0  0  0  0  0  0  0
    5.6970   -4.7830   28.1310 C   0  0  0  0  0  0  0  0  0  0  0  0
    5.7250   -5.0510   26.7870 C   0  0  0  0  0  0  0  0  0  0  0  0
    5.1710   -6.1730   27.7390 C   0  0  0  0  0  0  0  0  0  0  0  0
    4.7810   -6.7580   28.9120 C   0  0  0  0  0  0  0  0  0  0  0  0
    5.6540   -6.8690   30.0610 C   0  0  0  0  0  0  0  0  0  0  0  0
    5.3070   -7.4180   31.2540 C   0  0  0  0  0  0  0  0  0  0  0  0
    4.0430   -7.9200   31.4310 C   0  0  0  0  0  0  0  0  0  0  0  0
    3.1270   -7.8660   30.3810 C   0  0  0  0  0  0  0  0  0  0  0  0
    3.5000   -7.2710   29.0800 C   0  0  0  0  0  0  0  0  0  0  0  0
    6.6520   -1.4480   26.4280 C   0  0  0  0  0  0  0  0  0  0  0  0
    6.1690   -0.6400   27.4690 C   0  0  1  0  0  0  0  0  0  0  0  0
    4.9180   -0.5250   27.3650 O   0  0  0  0  0  0  0  0  0  0  0  0
    6.8650   -0.9140   28.7700 C   0  0  0  0  0  0  0  0  0  0  0  0
    7.2270    0.3510   29.2610 O   0  0  0  0  0  0  0  0  0  0  0  0
    6.9070   -2.7620   23.4550 C   0  0  0  0  0  0  0  0  0  0  0  0
    7.6170   -3.1770   22.1880 C   0  0  0  0  0  0  0  0  0  0  0  0
  1  2  1  0
  2  3  2  0
  2  4  1  0
  4  5  1  0
  5  6  1  0
  6  7  1  0
  7  8  1  0
  8  9  2  0
  8 10  1  0
 10 11  1  0
 11 12  1  0
 12 13  1  0
 12 14  2  3
 14 15  1  0
 15 16  2  0
 16 17  1  0
 17 18  2  0
 18 19  1  0
 15 20  1  0
 19 20  2  0
 10 21  1  0
 21 22  1  0
 22 23  1  1
 22 24  1  0
 24 25  1  0
  7 26  1  0
  4 27  1  0
 26 27  1  0
M  END
