piperidine-amides-32689-covalent
     RDKit          3D

 29 32  0  0  0  0  0  0  0  0999 V2000
    7.0220   -3.3490   19.3670 C   0  0  0  0  0  0  0  0  0  0  0  0
    6.3390   -4.2320   20.3530 C   0  0  0  0  0  0  0  0  0  0  0  0
    5.3490   -4.8790   19.9810 O   0  0  0  0  0  0  0  0  0  0  0  0
    6.8460   -4.3570   21.6680 N   0  0  0  0  0  0  0  0  0  0  0  0
    6.6930   -5.5860   22.4160 C   0  0  0  0  0  0  0  0  0  0  0  0
    6.2360   -5.2500   23.8470 C   0  0  0  0  0  0  0  0  0  0  0  0
    6.2310   -3.7670   24.0100 C   0  0  0  0  0  0  0  0  0  0  0  0
    5.6650   -3.2490   25.2860 C   0  0  0  0  0  0  0  0  0  0  0  0
    4.8220   -2.3580   25.1590 O   0  0  0  0  0  0  0  0  0  0  0  0
    6.0220   -3.7330   26.5560 N   0  0  0  0  0  0  0  0  0  0  0  0
    6.4230   -2.9310   27.6030 C   0  0  0  0  0  0  0  0  0  0  0  0
    6.7210   -3.5640   28.7630 C   0  0  0  0  0  0  0  0  0  0  0  0
    6.3810   -4.9060   28.8840 C   0  0  0  0  0  0  0  0  0  0  0  0
    5.3300   -5.3860   28.1300 C   0  0  2  0  0  0  0  0  0  0  0  0
    4.0470   -4.8220   28.6540 C   0  0  0  0  0  0  0  0  0  0  0  0
    3.6260   -5.5280   29.8070 N   0  0  0  0  0  0  0  0  0  0  0  0
    2.9590   -4.8140   30.8680 C   0  0  0  0  0  0  0  0  0  0  0  0
    1.4490   -4.6280   30.6740 C   0  0  0  0  0  0  0  0  0  0  0  0
    0.9090   -3.4490   31.0130 C   0  0  0  0  0  0  0  0  0  0  0  0
   -0.4910   -3.0860   30.9050 C   0  0  0  0  0  0  0  0  0  0  0  0
   -1.1940   -4.3250   30.3300 C   0  0  0  0  0  0  0  0  0  0  0  0
   -0.9090   -5.6370   29.8980 C   0  0  0  0  0  0  0  0  0  0  0  0
    0.6320   -5.6010   30.1770 C   0  0  0  0  0  0  0  0  0  0  0  0
    3.6720   -6.9760   29.8150 C   0  0  0  0  0  0  0  0  0  0  0  0
    5.0550   -7.2980   29.2570 C   0  0  0  0  0  0  0  0  0  0  0  0
    5.0820   -6.6780   28.0230 O   0  0  0  0  0  0  0  0  0  0  0  0
    5.2760   -4.9300   26.8090 C   0  0  0  0  0  0  0  0  0  0  0  0
    7.5620   -3.1710   23.6030 C   0  0  0  0  0  0  0  0  0  0  0  0
    7.6390   -3.2710   22.2470 C   0  0  0  0  0  0  0  0  0  0  0  0
  1  2  1  0
  2  3  2  0
  2  4  1  0
  4  5  1  0
  5  6  1  0
  6  7  1  0
  7  8  1  0
  8  9  2  0
  8 10  1  0
 10 11  1  0
 11 12  1  0
 12 13  1  0
 14 13  1  1
 14 15  1  0
 15 16  1  0
 16 17  1  0
 17 18  1  0
 18 19  2  0
 19 20  1  0
 20 21  2  0
 21 22  1  0
 18 23  1  0
 22 23  2  0
 16 24  1  0
 24 25  1  0
 14 26  1  0
 25 26  1  0
 10 27  1  0
 14 27  1  0
  7 28  1  0
  4 29  1  0
 28 29  1  0
M  END
