piperidine-amides-345-covalent
     RDKit          3D

 29 31  0  0  0  0  0  0  0  0999 V2000
    7.1050   -3.3540   19.2260 C   0  0  0  0  0  0  0  0  0  0  0  0
    6.3420   -4.0170   20.2530 C   0  0  0  0  0  0  0  0  0  0  0  0
    5.2730   -4.6030   19.9110 O   0  0  0  0  0  0  0  0  0  0  0  0
    6.7810   -4.0850   21.5880 N   0  0  0  0  0  0  0  0  0  0  0  0
    6.5710   -5.3650   22.3030 C   0  0  0  0  0  0  0  0  0  0  0  0
    5.6010   -4.8420   23.4210 C   0  0  0  0  0  0  0  0  0  0  0  0
    6.4930   -3.9810   24.2780 C   0  0  0  0  0  0  0  0  0  0  0  0
    5.8120   -3.7740   25.7000 C   0  0  0  0  0  0  0  0  0  0  0  0
    5.1180   -4.7370   25.9550 O   0  0  0  0  0  0  0  0  0  0  0  0
    6.1100   -2.6550   26.2300 N   0  0  0  0  0  0  0  0  0  0  0  0
    6.1820   -1.4320   26.8240 C   0  0  0  0  0  0  0  0  0  0  0  0
    5.8460   -0.1310   26.5120 C   0  0  0  0  0  0  0  0  0  0  0  0
    6.0130    1.0040   27.3630 C   0  0  0  0  0  0  0  0  0  0  0  0
    6.5730    1.0170   28.7330 C   0  0  0  0  0  0  0  0  0  0  0  0
    6.7090    2.1660   29.5120 O   0  0  0  0  0  0  0  0  0  0  0  0
    5.4410    2.5990   29.8630 C   0  0  0  0  0  0  0  0  0  0  0  0
    6.9420   -0.4270   29.0610 C   0  0  0  0  0  0  0  0  0  0  0  0
    7.4660   -0.3830   30.3690 N   0  0  0  0  0  0  0  0  0  0  0  0
    6.6180   -0.0740   31.5190 C   0  0  0  0  0  0  0  0  0  0  0  0
    5.3300   -0.5300   31.7480 O   0  0  0  0  0  0  0  0  0  0  0  0
    7.1290    0.8430   32.6450 C   0  0  0  0  0  0  0  0  0  0  0  0
    5.9880    1.4330   33.5380 C   0  0  0  0  0  0  0  0  0  0  0  0
    6.0830    1.2160   34.8940 C   0  0  0  0  0  0  0  0  0  0  0  0
    7.2630    0.7580   35.4210 C   0  0  0  0  0  0  0  0  0  0  0  0
    8.3430    0.9130   34.6140 C   0  0  0  0  0  0  0  0  0  0  0  0
    8.1380    0.2920   33.3990 C   0  0  0  0  0  0  0  0  0  0  0  0
    6.7660   -1.5290   28.2000 C   0  0  0  0  0  0  0  0  0  0  0  0
    7.1110   -2.8000   23.6210 C   0  0  0  0  0  0  0  0  0  0  0  0
    7.6040   -3.0950   22.2360 C   0  0  0  0  0  0  0  0  0  0  0  0
  1  2  1  0
  2  3  2  0
  2  4  1  0
  4  5  1  0
  5  6  1  0
  6  7  1  0
  7  8  1  0
  8  9  2  0
  8 10  1  0
 10 11  1  0
 11 12  2  0
 12 13  1  0
 13 14  2  0
 14 15  1  0
 15 16  1  0
 14 17  1  0
 17 18  1  0
 18 19  1  0
 19 20  2  0
 19 21  1  0
 21 22  1  0
 22 23  1  0
 23 24  1  0
 24 25  1  0
 21 26  1  0
 25 26  1  0
 11 27  1  0
 17 27  2  0
  7 28  1  0
  4 29  1  0
 28 29  1  0
M  END
