piperidine-amides-23569-covalent
     RDKit          3D

 23 24  0  0  0  0  0  0  0  0999 V2000
    7.1260   -3.3880   19.3680 C   0  0  0  0  0  0  0  0  0  0  0  0
    6.4470   -4.2380   20.3520 C   0  0  0  0  0  0  0  0  0  0  0  0
    5.3820   -4.7880   19.9770 O   0  0  0  0  0  0  0  0  0  0  0  0
    7.0280   -4.4760   21.6290 N   0  0  0  0  0  0  0  0  0  0  0  0
    6.4800   -5.5020   22.4170 C   0  0  0  0  0  0  0  0  0  0  0  0
    5.9030   -5.0400   23.6840 C   0  0  0  0  0  0  0  0  0  0  0  0
    6.3320   -3.7230   24.2590 C   0  0  0  0  0  0  0  0  0  0  0  0
    5.2190   -3.1520   25.0990 C   0  0  0  0  0  0  0  0  0  0  0  0
    4.2220   -2.7040   24.5270 O   0  0  0  0  0  0  0  0  0  0  0  0
    5.2520   -3.1030   26.5050 N   0  0  0  0  0  0  0  0  0  0  0  0
    4.1640   -3.0170   27.3760 C   0  0  0  0  0  0  0  0  0  0  0  0
    4.0270   -4.1170   28.3070 C   0  0  0  0  0  0  0  0  0  0  0  0
    4.7350   -5.2330   28.1530 N   0  0  0  0  0  0  0  0  0  0  0  0
    4.2760   -6.5510   27.7670 C   0  0  0  0  0  0  0  0  0  0  0  0
    3.4400   -7.0710   28.7400 C   0  0  0  0  0  0  0  0  0  0  0  0
    2.1640   -6.7600   28.3170 F   0  0  0  0  0  0  0  0  0  0  0  0
    3.6640   -6.2970   29.8680 F   0  0  0  0  0  0  0  0  0  0  0  0
    6.0840   -4.8680   27.9190 C   0  0  2  0  0  0  0  0  0  0  0  0
    6.6900   -4.8270   29.2360 C   0  0  0  0  0  0  0  0  0  0  0  0
    6.4380   -3.3070   29.1300 C   0  0  0  0  0  0  0  0  0  0  0  0
    6.2930   -3.4890   27.3090 C   0  0  0  0  0  0  0  0  0  0  0  0
    6.8150   -2.7180   23.2340 C   0  0  0  0  0  0  0  0  0  0  0  0
    7.7510   -3.4180   22.2530 C   0  0  0  0  0  0  0  0  0  0  0  0
  1  2  1  0
  2  3  2  0
  2  4  1  0
  4  5  1  0
  5  6  1  0
  6  7  1  0
  7  8  1  0
  8  9  2  0
  8 10  1  0
 10 11  1  0
 11 12  1  0
 12 13  1  0
 13 14  1  0
 14 15  1  0
 15 16  1  0
 15 17  1  0
 13 18  1  0
 18 19  1  1
 19 20  1  0
 10 21  1  0
 18 21  1  0
  7 22  1  0
  4 23  1  0
 22 23  1  0
M  END
