piperidine-amides-4829-covalent
     RDKit          3D

 23 24  0  0  0  0  0  0  0  0999 V2000
    7.1040   -3.2470   19.1920 C   0  0  0  0  0  0  0  0  0  0  0  0
    6.3390   -4.0000   20.2160 C   0  0  0  0  0  0  0  0  0  0  0  0
    5.2590   -4.5000   19.8520 O   0  0  0  0  0  0  0  0  0  0  0  0
    6.8280   -4.1840   21.5150 N   0  0  0  0  0  0  0  0  0  0  0  0
    7.6060   -3.1510   22.1340 C   0  0  0  0  0  0  0  0  0  0  0  0
    7.2560   -2.8500   23.5230 C   0  0  0  0  0  0  0  0  0  0  0  0
    6.5260   -3.9190   24.2310 C   0  0  0  0  0  0  0  0  0  0  0  0
    5.7830   -3.3570   25.3920 C   0  0  0  0  0  0  0  0  0  0  0  0
    4.5390   -3.3240   25.3310 O   0  0  0  0  0  0  0  0  0  0  0  0
    6.4610   -2.8460   26.5250 N   0  0  0  0  0  0  0  0  0  0  0  0
    6.2970   -3.3440   27.9220 C   0  0  0  0  0  0  0  0  0  0  0  0
    5.0470   -4.1150   28.1730 C   0  0  0  0  0  0  0  0  0  0  0  0
    3.8250   -3.5070   28.5870 C   0  0  0  0  0  0  0  0  0  0  0  0
    2.8210   -4.3690   28.7650 C   0  0  0  0  0  0  0  0  0  0  0  0
    1.4980   -4.2560   29.1500 C   0  0  0  0  0  0  0  0  0  0  0  0
    1.1370   -4.8260   30.3260 F   0  0  0  0  0  0  0  0  0  0  0  0
    1.2080   -2.9060   29.2060 F   0  0  0  0  0  0  0  0  0  0  0  0
    0.6710   -4.7750   28.1600 F   0  0  0  0  0  0  0  0  0  0  0  0
    3.4020   -5.6180   28.4530 N   0  0  0  0  0  0  0  0  0  0  0  0
    4.6970   -5.4370   28.1150 N   0  0  0  0  0  0  0  0  0  0  0  0
    5.6720   -6.4680   27.7250 C   0  0  0  0  0  0  0  0  0  0  0  0
    5.6860   -4.8230   23.3830 C   0  0  0  0  0  0  0  0  0  0  0  0
    6.4290   -5.2870   22.3400 C   0  0  0  0  0  0  0  0  0  0  0  0
  1  2  1  0
  2  3  2  0
  2  4  1  0
  4  5  1  0
  5  6  1  0
  6  7  1  0
  7  8  1  0
  8  9  2  0
  8 10  1  0
 10 11  1  0
 11 12  1  0
 12 13  2  0
 13 14  1  0
 14 15  1  0
 15 16  1  0
 15 17  1  0
 15 18  1  0
 14 19  2  0
 12 20  1  0
 19 20  1  0
 20 21  1  0
  7 22  1  0
  4 23  1  0
 22 23  1  0
M  END
