piperidine-amides-34162-covalent
     RDKit          3D

 26 28  0  0  0  0  0  0  0  0999 V2000
    7.0080   -3.4220   19.4800 C   0  0  0  0  0  0  0  0  0  0  0  0
    6.3070   -4.3620   20.3720 C   0  0  0  0  0  0  0  0  0  0  0  0
    5.2980   -4.9650   19.9790 O   0  0  0  0  0  0  0  0  0  0  0  0
    6.7970   -4.6230   21.6510 N   0  0  0  0  0  0  0  0  0  0  0  0
    6.1570   -5.6640   22.4390 C   0  0  0  0  0  0  0  0  0  0  0  0
    5.0550   -5.0200   23.3280 C   0  0  0  0  0  0  0  0  0  0  0  0
    5.7150   -3.9690   24.2030 C   0  0  0  0  0  0  0  0  0  0  0  0
    4.7940   -3.2660   25.2130 C   0  0  0  0  0  0  0  0  0  0  0  0
    3.6410   -2.9370   24.8880 O   0  0  0  0  0  0  0  0  0  0  0  0
    5.3360   -3.0330   26.5230 N   0  0  0  0  0  0  0  0  0  0  0  0
    4.5930   -2.9200   27.7580 C   0  0  0  0  0  0  0  0  0  0  0  0
    4.6600   -4.1750   28.6080 C   0  0  0  0  0  0  0  0  0  0  0  0
    5.8450   -4.7930   28.7450 C   0  0  0  0  0  0  0  0  0  0  0  0
    6.5750   -4.8010   27.6310 C   0  0  0  0  0  0  0  0  0  0  0  0
    7.5770   -5.5790   27.4380 C   0  0  0  0  0  0  0  0  0  0  0  0
    8.2440   -5.4970   26.2760 C   0  0  0  0  0  0  0  0  0  0  0  0
    9.6470   -6.5210   26.4040 Br  0  0  0  0  0  0  0  0  0  0  0  0
    8.1830   -4.7330   24.9570 C   0  0  0  0  0  0  0  0  0  0  0  0
    7.0530   -3.8890   25.4100 C   0  0  0  0  0  0  0  0  0  0  0  0
    6.5320   -2.7190   24.5740 C   0  0  0  0  0  0  0  0  0  0  0  0
    5.5250   -2.0020   25.0430 O   0  0  0  0  0  0  0  0  0  0  0  0
    7.1540   -2.3130   23.3820 O   0  0  0  0  0  0  0  0  0  0  0  0
    7.7050   -1.0110   23.3180 C   0  0  0  0  0  0  0  0  0  0  0  0
    6.3270   -3.9650   26.6300 C   0  0  0  0  0  0  0  0  0  0  0  0
    6.2700   -2.9320   23.2080 C   0  0  0  0  0  0  0  0  0  0  0  0
    7.3700   -3.5380   22.3730 C   0  0  0  0  0  0  0  0  0  0  0  0
  1  2  1  0
  2  3  2  0
  2  4  1  0
  4  5  1  0
  5  6  1  0
  6  7  1  0
  7  8  1  0
  8  9  2  0
  8 10  1  0
 10 11  1  0
 11 12  1  0
 12 13  1  0
 13 14  1  0
 14 15  2  0
 15 16  1  0
 16 17  1  0
 16 18  2  0
 18 19  1  0
 19 20  1  0
 20 21  2  0
 20 22  1  0
 22 23  1  0
 10 24  1  0
 14 24  1  0
 19 24  2  0
  7 25  1  0
  4 26  1  0
 25 26  1  0
M  END
