piperidine-amides-27650-covalent
     RDKit          3D

 26 28  0  0  0  0  0  0  0  0999 V2000
    7.0730   -3.3560   19.3140 C   0  0  0  0  0  0  0  0  0  0  0  0
    6.3270   -4.1510   20.2900 C   0  0  0  0  0  0  0  0  0  0  0  0
    5.2450   -4.6510   19.9060 O   0  0  0  0  0  0  0  0  0  0  0  0
    6.8490   -4.3710   21.5560 N   0  0  0  0  0  0  0  0  0  0  0  0
    6.5590   -5.5980   22.2710 C   0  0  0  0  0  0  0  0  0  0  0  0
    6.0200   -5.2740   23.6490 C   0  0  0  0  0  0  0  0  0  0  0  0
    6.0690   -3.7980   23.9490 C   0  0  0  0  0  0  0  0  0  0  0  0
    5.6510   -3.4700   25.3340 C   0  0  0  0  0  0  0  0  0  0  0  0
    4.6530   -2.7320   25.4340 O   0  0  0  0  0  0  0  0  0  0  0  0
    6.2630   -3.9090   26.5320 N   0  0  0  0  0  0  0  0  0  0  0  0
    7.0200   -5.1420   26.5500 C   0  0  0  0  0  0  0  0  0  0  0  0
    7.0710   -5.3960   28.0120 C   0  0  0  0  0  0  0  0  0  0  0  0
    6.3430   -4.4590   28.6550 C   0  0  0  0  0  0  0  0  0  0  0  0
    5.6840   -3.5370   27.8450 C   0  0  1  0  0  0  0  0  0  0  0  0
    6.0280   -2.2160   28.1070 C   0  0  0  0  0  0  0  0  0  0  0  0
    5.3300   -1.5900   29.1260 C   0  0  0  0  0  0  0  0  0  0  0  0
    4.7420   -2.3430   30.1690 C   0  0  0  0  0  0  0  0  0  0  0  0
    3.9450   -1.8130   31.3550 C   0  0  0  0  0  0  0  0  0  0  0  0
    3.8170   -0.3180   31.3440 C   0  0  0  0  0  0  0  0  0  0  0  0
    4.4160    0.5070   30.2770 C   0  0  0  0  0  0  0  0  0  0  0  0
    5.1940   -0.0590   29.1230 C   0  0  0  0  0  0  0  0  0  0  0  0
    4.3180   -3.7590   27.8250 C   0  0  0  0  0  0  0  0  0  0  0  0
    3.4290   -2.6090   27.3720 C   0  0  0  0  0  0  0  0  0  0  0  0
    4.1390   -4.9610   27.1790 C   0  0  0  0  0  0  0  0  0  0  0  0
    7.3880   -3.2870   23.5740 C   0  0  0  0  0  0  0  0  0  0  0  0
    7.6370   -3.3290   22.1410 C   0  0  0  0  0  0  0  0  0  0  0  0
  1  2  1  0
  2  3  2  0
  2  4  1  0
  4  5  1  0
  5  6  1  0
  6  7  1  0
  7  8  1  0
  8  9  2  0
  8 10  1  0
 10 11  1  0
 11 12  1  0
 12 13  1  0
 10 14  1  0
 13 14  1  0
 14 15  1  1
 15 16  1  0
 16 17  2  0
 17 18  1  0
 18 19  2  0
 19 20  1  0
 16 21  1  0
 20 21  2  0
 14 22  1  0
 22 23  1  0
 22 24  1  0
  7 25  1  0
  4 26  1  0
 25 26  1  0
M  END
