piperidine-amides-10086-covalent
     RDKit          3D

 26 28  0  0  0  0  0  0  0  0999 V2000
    7.1190   -3.2780   19.2000 C   0  0  0  0  0  0  0  0  0  0  0  0
    6.3740   -4.0340   20.2100 C   0  0  0  0  0  0  0  0  0  0  0  0
    5.2620   -4.5070   19.8640 O   0  0  0  0  0  0  0  0  0  0  0  0
    6.9320   -4.2560   21.4640 N   0  0  0  0  0  0  0  0  0  0  0  0
    7.7060   -3.2490   22.1410 C   0  0  0  0  0  0  0  0  0  0  0  0
    6.9000   -2.7680   23.3030 C   0  0  0  0  0  0  0  0  0  0  0  0
    6.3410   -3.9100   24.1240 C   0  0  0  0  0  0  0  0  0  0  0  0
    5.4670   -3.3770   25.1800 C   0  0  0  0  0  0  0  0  0  0  0  0
    4.4780   -2.6970   24.8390 O   0  0  0  0  0  0  0  0  0  0  0  0
    5.6920   -3.6060   26.5420 N   0  0  0  0  0  0  0  0  0  0  0  0
    6.0200   -4.9250   27.0130 C   0  0  0  0  0  0  0  0  0  0  0  0
    6.2080   -4.9710   28.5250 C   0  0  0  0  0  0  0  0  0  0  0  0
    5.6450   -3.7190   29.0910 N   0  0  0  0  0  0  0  0  0  0  0  0
    6.2050   -2.5580   28.8300 C   0  0  0  0  0  0  0  0  0  0  0  0
    5.7790   -1.4060   29.3730 N   0  0  0  0  0  0  0  0  0  0  0  0
    6.5930   -0.4770   28.8710 N   0  0  0  0  0  0  0  0  0  0  0  0
    7.4610   -1.0780   28.0630 N   0  0  0  0  0  0  0  0  0  0  0  0
    7.2250   -2.3720   28.0330 N   0  0  0  0  0  0  0  0  0  0  0  0
    7.8770   -3.4150   27.3250 C   0  0  0  0  0  0  0  0  0  0  0  0
    8.2340   -4.5770   27.9890 C   0  0  0  0  0  0  0  0  0  0  0  0
    8.8580   -5.6310   27.3540 C   0  0  0  0  0  0  0  0  0  0  0  0
    9.1650   -5.5950   26.0200 C   0  0  0  0  0  0  0  0  0  0  0  0
    8.8280   -4.3810   25.1820 C   0  0  0  0  0  0  0  0  0  0  0  0
    8.1450   -3.2830   25.9900 C   0  0  0  0  0  0  0  0  0  0  0  0
    5.5680   -4.9210   23.2610 C   0  0  0  0  0  0  0  0  0  0  0  0
    6.5430   -5.4300   22.2230 C   0  0  0  0  0  0  0  0  0  0  0  0
  1  2  1  0
  2  3  2  0
  2  4  1  0
  4  5  1  0
  5  6  1  0
  6  7  1  0
  7  8  1  0
  8  9  2  0
  8 10  1  0
 10 11  1  0
 11 12  1  0
 12 13  1  0
 13 14  1  0
 14 15  2  0
 15 16  1  0
 16 17  2  0
 14 18  1  0
 17 18  1  0
 18 19  1  0
 19 20  2  0
 20 21  1  0
 21 22  2  0
 22 23  1  0
 19 24  1  0
 23 24  2  0
  7 25  1  0
  4 26  1  0
 25 26  1  0
M  END
