piperidine-amides-25889-covalent
     RDKit          3D

 25 27  0  0  0  0  0  0  0  0999 V2000
    7.1050   -3.2620   19.1980 C   0  0  0  0  0  0  0  0  0  0  0  0
    6.3480   -4.0110   20.2380 C   0  0  0  0  0  0  0  0  0  0  0  0
    5.3010   -4.5520   19.8880 O   0  0  0  0  0  0  0  0  0  0  0  0
    6.8490   -4.1190   21.5400 N   0  0  0  0  0  0  0  0  0  0  0  0
    6.6790   -5.3200   22.3200 C   0  0  0  0  0  0  0  0  0  0  0  0
    5.9940   -4.9930   23.6220 C   0  0  0  0  0  0  0  0  0  0  0  0
    6.2040   -3.5080   23.9350 C   0  0  0  0  0  0  0  0  0  0  0  0
    5.9400   -3.2950   25.3690 C   0  0  0  0  0  0  0  0  0  0  0  0
    4.7630   -3.2090   25.7450 O   0  0  0  0  0  0  0  0  0  0  0  0
    7.0100   -3.1650   26.2900 N   0  0  0  0  0  0  0  0  0  0  0  0
    7.8010   -1.9740   26.2270 C   0  0  0  0  0  0  0  0  0  0  0  0
    7.1160   -4.0240   27.4200 C   0  0  0  0  0  0  0  0  0  0  0  0
    6.3310   -3.5860   28.4570 C   0  0  1  0  0  0  0  0  0  0  0  0
    6.5180   -2.2710   28.7520 C   0  0  0  0  0  0  0  0  0  0  0  0
    5.4490   -1.9570   29.4690 C   0  0  0  0  0  0  0  0  0  0  0  0
    4.4610   -3.0680   29.5350 C   0  0  0  0  0  0  0  0  0  0  0  0
    4.9410   -3.9530   28.6030 N   0  0  0  0  0  0  0  0  0  0  0  0
    4.6780   -5.2310   28.9230 C   0  0  0  0  0  0  0  0  0  0  0  0
    5.5230   -6.4710   28.9040 C   0  0  0  0  0  0  0  0  0  0  0  0
    4.8690   -7.7030   29.3250 C   0  0  0  0  0  0  0  0  0  0  0  0
    3.4680   -7.7240   29.7460 C   0  0  0  0  0  0  0  0  0  0  0  0
    2.7160   -6.4490   29.7370 N   0  0  0  0  0  0  0  0  0  0  0  0
    3.3620   -5.3290   29.3340 N   0  0  0  0  0  0  0  0  0  0  0  0
    7.4790   -2.9260   23.4890 C   0  0  0  0  0  0  0  0  0  0  0  0
    7.7590   -3.1050   22.0490 C   0  0  0  0  0  0  0  0  0  0  0  0
  1  2  1  0
  2  3  2  0
  2  4  1  0
  4  5  1  0
  5  6  1  0
  6  7  1  0
  7  8  1  0
  8  9  2  0
  8 10  1  0
 10 11  1  0
 10 12  1  0
 13 12  1  6
 13 14  1  0
 14 15  1  0
 15 16  1  0
 13 17  1  0
 16 17  1  0
 17 18  1  0
 18 19  2  0
 19 20  1  0
 20 21  2  0
 21 22  1  0
 18 23  1  0
 22 23  2  0
  7 24  1  0
  4 25  1  0
 24 25  1  0
M  END
