piperidine-amides-26057-covalent
     RDKit          3D

 25 27  0  0  0  0  0  0  0  0999 V2000
    7.0660   -3.3540   19.3800 C   0  0  0  0  0  0  0  0  0  0  0  0
    6.3840   -4.2120   20.3520 C   0  0  0  0  0  0  0  0  0  0  0  0
    5.3760   -4.8360   19.9830 O   0  0  0  0  0  0  0  0  0  0  0  0
    6.8650   -4.3890   21.6680 N   0  0  0  0  0  0  0  0  0  0  0  0
    6.6630   -5.6450   22.3690 C   0  0  0  0  0  0  0  0  0  0  0  0
    6.3620   -5.3140   23.8190 C   0  0  0  0  0  0  0  0  0  0  0  0
    6.1790   -3.8440   24.0520 C   0  0  0  0  0  0  0  0  0  0  0  0
    5.5670   -3.4760   25.3630 C   0  0  0  0  0  0  0  0  0  0  0  0
    4.4950   -2.8080   25.3550 O   0  0  0  0  0  0  0  0  0  0  0  0
    6.0550   -3.8020   26.6530 N   0  0  0  0  0  0  0  0  0  0  0  0
    5.8560   -5.1600   27.1670 C   0  0  0  0  0  0  0  0  0  0  0  0
    6.2470   -5.1050   28.5790 C   0  0  0  0  0  0  0  0  0  0  0  0
    5.5260   -4.3770   29.2780 O   0  0  0  0  0  0  0  0  0  0  0  0
    5.3840   -3.0840   28.9040 C   0  0  1  0  0  0  0  0  0  0  0  0
    5.6890   -1.9720   29.8680 C   0  0  0  0  0  0  0  0  0  0  0  0
    4.7060   -1.4250   30.8340 C   0  0  0  0  0  0  0  0  0  0  0  0
    5.2470   -0.3640   31.6730 C   0  0  0  0  0  0  0  0  0  0  0  0
    6.5220    0.1480   31.6490 C   0  0  0  0  0  0  0  0  0  0  0  0
    6.8630    1.0450   32.4290 O   0  0  0  0  0  0  0  0  0  0  0  0
    7.9180    0.6960   33.2580 C   0  0  0  0  0  0  0  0  0  0  0  0
    7.7000   -0.2720   30.7150 C   0  0  0  0  0  0  0  0  0  0  0  0
    7.0840   -1.3990   29.8400 C   0  0  0  0  0  0  0  0  0  0  0  0
    6.0260   -2.7020   27.6040 C   0  0  0  0  0  0  0  0  0  0  0  0
    7.4440   -3.1440   23.6950 C   0  0  0  0  0  0  0  0  0  0  0  0
    7.6300   -3.3120   22.2350 C   0  0  0  0  0  0  0  0  0  0  0  0
  1  2  1  0
  2  3  2  0
  2  4  1  0
  4  5  1  0
  5  6  1  0
  6  7  1  0
  7  8  1  0
  8  9  2  0
  8 10  1  0
 10 11  1  0
 11 12  1  0
 12 13  1  0
 13 14  1  0
 14 15  1  1
 15 16  2  0
 16 17  1  0
 17 18  2  0
 18 19  1  0
 19 20  1  0
 18 21  1  0
 15 22  1  0
 21 22  2  0
 10 23  1  0
 14 23  1  0
  7 24  1  0
  4 25  1  0
 24 25  1  0
M  END
