piperidine-amides-13999-covalent
     RDKit          3D

 25 26  0  0  0  0  0  0  0  0999 V2000
    7.0890   -3.2800   19.2450 C   0  0  0  0  0  0  0  0  0  0  0  0
    6.3230   -4.0930   20.2280 C   0  0  0  0  0  0  0  0  0  0  0  0
    5.2390   -4.5820   19.8840 O   0  0  0  0  0  0  0  0  0  0  0  0
    6.8660   -4.3450   21.5020 N   0  0  0  0  0  0  0  0  0  0  0  0
    6.4900   -5.5000   22.2780 C   0  0  0  0  0  0  0  0  0  0  0  0
    6.1720   -5.0410   23.7150 C   0  0  0  0  0  0  0  0  0  0  0  0
    5.5830   -3.6670   23.6570 C   0  0  0  0  0  0  0  0  0  0  0  0
    5.0950   -3.1650   24.9610 C   0  0  0  0  0  0  0  0  0  0  0  0
    3.8750   -3.0610   25.0930 O   0  0  0  0  0  0  0  0  0  0  0  0
    5.9860   -2.8430   25.9760 N   0  0  0  0  0  0  0  0  0  0  0  0
    6.6090   -3.7670   26.8210 C   0  0  1  0  0  0  0  0  0  0  0  0
    6.1390   -5.0550   27.0160 C   0  0  0  0  0  0  0  0  0  0  0  0
    6.2160   -5.6560   28.2850 C   0  0  0  0  0  0  0  0  0  0  0  0
    7.9510   -4.0230   26.6410 C   0  0  0  0  0  0  0  0  0  0  0  0
    8.5120   -4.8670   27.6760 C   0  0  0  0  0  0  0  0  0  0  0  0
    9.9340   -5.2270   27.6210 C   0  0  0  0  0  0  0  0  0  0  0  0
   10.6630   -4.6380   26.4190 C   0  0  0  0  0  0  0  0  0  0  0  0
   10.0750   -3.8500   25.4930 C   0  0  0  0  0  0  0  0  0  0  0  0
   10.9590   -3.4360   24.5150 O   0  0  0  0  0  0  0  0  0  0  0  0
   12.1790   -2.8170   24.8460 C   0  0  0  0  0  0  0  0  0  0  0  0
    8.7240   -3.5330   25.5900 C   0  0  0  0  0  0  0  0  0  0  0  0
    8.2430   -2.7120   24.5820 O   0  0  0  0  0  0  0  0  0  0  0  0
    9.0930   -1.8850   23.8260 C   0  0  0  0  0  0  0  0  0  0  0  0
    6.4730   -2.6190   23.0800 C   0  0  0  0  0  0  0  0  0  0  0  0
    7.5260   -3.2730   22.2230 C   0  0  0  0  0  0  0  0  0  0  0  0
  1  2  1  0
  2  3  2  0
  2  4  1  0
  4  5  1  0
  5  6  1  0
  6  7  1  0
  7  8  1  0
  8  9  2  0
  8 10  1  0
 10 11  1  0
 11 12  1  6
 12 13  1  0
 11 14  1  0
 14 15  2  0
 15 16  1  0
 16 17  2  0
 17 18  1  0
 18 19  1  0
 19 20  1  0
 14 21  1  0
 18 21  2  0
 21 22  1  0
 22 23  1  0
  7 24  1  0
  4 25  1  0
 24 25  1  0
M  END
