piperidine-amides-1979-covalent
     RDKit          3D

 20 21  0  0  0  0  0  0  0  0999 V2000
    7.0230   -3.3520   19.3380 C   0  0  0  0  0  0  0  0  0  0  0  0
    6.3900   -4.2170   20.3680 C   0  0  0  0  0  0  0  0  0  0  0  0
    5.4260   -4.8870   19.9990 O   0  0  0  0  0  0  0  0  0  0  0  0
    6.9160   -4.2710   21.6750 N   0  0  0  0  0  0  0  0  0  0  0  0
    7.6980   -3.1790   22.2250 C   0  0  0  0  0  0  0  0  0  0  0  0
    7.3500   -2.9160   23.6720 C   0  0  0  0  0  0  0  0  0  0  0  0
    6.0010   -3.5510   23.9850 C   0  0  0  0  0  0  0  0  0  0  0  0
    5.5440   -3.1460   25.3390 C   0  0  0  0  0  0  0  0  0  0  0  0
    4.3360   -2.9600   25.5120 O   0  0  0  0  0  0  0  0  0  0  0  0
    6.4180   -2.9720   26.4330 N   0  0  0  0  0  0  0  0  0  0  0  0
    6.6920   -1.6400   26.9590 C   0  0  2  0  0  0  0  0  0  0  0  0
    6.7300   -1.7920   28.4540 C   0  0  0  0  0  0  0  0  0  0  0  0
    6.8810   -0.6910   29.2190 C   0  0  0  0  0  0  0  0  0  0  0  0
    6.9900    0.4220   28.6380 O   0  0  0  0  0  0  0  0  0  0  0  0
    6.0500    0.6140   27.5990 C   0  0  2  0  0  0  0  0  0  0  0  0
    4.7450    0.6160   28.0060 C   0  0  0  0  0  0  0  0  0  0  0  0
    3.7350    1.7460   27.9690 C   0  0  0  0  0  0  0  0  0  0  0  0
    5.8070   -0.4730   26.6050 C   0  0  0  0  0  0  0  0  0  0  0  0
    6.0060   -5.0130   23.7990 C   0  0  0  0  0  0  0  0  0  0  0  0
    6.5670   -5.4150   22.4800 C   0  0  0  0  0  0  0  0  0  0  0  0
  1  2  1  0
  2  3  2  0
  2  4  1  0
  4  5  1  0
  5  6  1  0
  6  7  1  0
  7  8  1  0
  8  9  2  0
  8 10  1  0
 11 10  1  6
 11 12  1  0
 12 13  1  0
 13 14  1  0
 14 15  1  0
 15 16  1  1
 16 17  2  3
 11 18  1  0
 15 18  1  0
  7 19  1  0
  4 20  1  0
 19 20  1  0
M  END
