piperidine-amides-329-covalent
     RDKit          3D

 28 30  0  0  0  0  0  0  0  0999 V2000
    7.0960   -3.3250   19.1690 C   0  0  0  0  0  0  0  0  0  0  0  0
    6.3380   -3.9860   20.2080 C   0  0  0  0  0  0  0  0  0  0  0  0
    5.2430   -4.5320   19.8790 O   0  0  0  0  0  0  0  0  0  0  0  0
    6.8010   -4.0990   21.5340 N   0  0  0  0  0  0  0  0  0  0  0  0
    6.6180   -5.4030   22.2000 C   0  0  0  0  0  0  0  0  0  0  0  0
    5.7140   -4.9330   23.3960 C   0  0  0  0  0  0  0  0  0  0  0  0
    6.5540   -3.9260   24.1470 C   0  0  0  0  0  0  0  0  0  0  0  0
    5.7960   -3.4510   25.4510 C   0  0  0  0  0  0  0  0  0  0  0  0
    4.8180   -2.7620   25.1770 O   0  0  0  0  0  0  0  0  0  0  0  0
    6.4300   -3.9440   26.4420 N   0  0  0  0  0  0  0  0  0  0  0  0
    7.0770   -4.5040   27.4990 C   0  0  1  0  0  0  0  0  0  0  0  0
    7.7640   -5.6550   27.7470 C   0  0  0  0  0  0  0  0  0  0  0  0
    7.9370   -3.4600   28.1590 C   0  0  0  0  0  0  0  0  0  0  0  0
    8.3860   -2.2270   28.6470 O   0  0  0  0  0  0  0  0  0  0  0  0
    6.9150   -2.6720   27.8000 N   0  0  0  0  0  0  0  0  0  0  0  0
    6.1000   -2.2780   28.8580 C   0  0  0  0  0  0  0  0  0  0  0  0
    5.0110   -3.2640   29.2070 C   0  0  0  0  0  0  0  0  0  0  0  0
    4.2070   -2.7970   30.2860 C   0  0  0  0  0  0  0  0  0  0  0  0
    4.1430   -1.6340   31.1480 C   0  0  0  0  0  0  0  0  0  0  0  0
    5.3440   -0.8580   30.5480 C   0  0  0  0  0  0  0  0  0  0  0  0
    5.7380    0.4140   31.0470 N   0  0  0  0  0  0  0  0  0  0  0  0
    6.9760    0.5640   31.7150 C   0  0  0  0  0  0  0  0  0  0  0  0
    7.5960    1.7080   31.4480 C   0  0  0  0  0  0  0  0  0  0  0  0
    6.7730    2.3320   30.5490 C   0  0  0  0  0  0  0  0  0  0  0  0
    5.6470    1.5500   30.2700 C   0  0  0  0  0  0  0  0  0  0  0  0
    6.2170   -1.1350   29.5350 C   0  0  0  0  0  0  0  0  0  0  0  0
    7.1310   -2.7530   23.4280 C   0  0  0  0  0  0  0  0  0  0  0  0
    7.6800   -3.0950   22.0830 C   0  0  0  0  0  0  0  0  0  0  0  0
  1  2  1  0
  2  3  2  0
  2  4  1  0
  4  5  1  0
  5  6  1  0
  6  7  1  0
  7  8  1  0
  8  9  2  0
  8 10  1  0
 10 11  1  0
 11 12  1  6
 11 13  1  0
 13 14  2  0
 13 15  1  0
 15 16  1  0
 16 17  2  0
 17 18  1  0
 18 19  2  0
 19 20  1  0
 20 21  1  0
 21 22  1  0
 22 23  1  0
 23 24  1  0
 21 25  1  0
 24 25  1  0
 16 26  1  0
 20 26  2  0
  7 27  1  0
  4 28  1  0
 27 28  1  0
M  END
