piperidine-amides-35093-covalent
     RDKit          3D

 31 34  0  0  0  0  0  0  0  0999 V2000
    7.0460   -3.3500   19.3280 C   0  0  0  0  0  0  0  0  0  0  0  0
    6.3750   -4.2130   20.3320 C   0  0  0  0  0  0  0  0  0  0  0  0
    5.3630   -4.8080   19.9680 O   0  0  0  0  0  0  0  0  0  0  0  0
    6.9250   -4.3570   21.6090 N   0  0  0  0  0  0  0  0  0  0  0  0
    7.5990   -3.2610   22.2470 C   0  0  0  0  0  0  0  0  0  0  0  0
    6.7840   -2.8200   23.4310 C   0  0  0  0  0  0  0  0  0  0  0  0
    6.5540   -4.0150   24.3600 C   0  0  0  0  0  0  0  0  0  0  0  0
    5.7680   -3.5520   25.5510 C   0  0  0  0  0  0  0  0  0  0  0  0
    4.7390   -2.8980   25.3350 O   0  0  0  0  0  0  0  0  0  0  0  0
    6.1270   -3.8250   26.9140 N   0  0  0  0  0  0  0  0  0  0  0  0
    6.2030   -2.7650   27.8880 C   0  0  0  0  0  0  0  0  0  0  0  0
    5.0110   -2.8530   28.8120 C   0  0  0  0  0  0  0  0  0  0  0  0
    4.8640   -4.2120   29.3280 N   0  0  0  0  0  0  0  0  0  0  0  0
    3.3350   -4.2320   30.1300 S   0  0  0  0  0  0  0  0  0  0  0  0
    2.5270   -3.1940   29.4280 O   0  0  0  0  0  0  0  0  0  0  0  0
    3.5370   -3.7570   31.5390 O   0  0  0  0  0  0  0  0  0  0  0  0
    2.4980   -5.8660   30.0810 C   0  0  0  0  0  0  0  0  0  0  0  0
    3.1920   -6.7500   30.7840 C   0  0  0  0  0  0  0  0  0  0  0  0
    2.6750   -7.9500   30.8290 C   0  0  0  0  0  0  0  0  0  0  0  0
    1.4410   -8.5190   30.2330 C   0  0  0  0  0  0  0  0  0  0  0  0
    0.7330   -7.4100   29.4480 C   0  0  0  0  0  0  0  0  0  0  0  0
    1.2070   -5.9280   29.2890 C   0  0  0  0  0  0  0  0  0  0  0  0
   -0.4330   -7.7700   28.8300 O   0  0  0  0  0  0  0  0  0  0  0  0
   -1.2400   -8.7930   29.3300 C   0  0  0  0  0  0  0  0  0  0  0  0
   -0.7980  -10.1260   28.8240 C   0  0  0  0  0  0  0  0  0  0  0  0
    0.4590  -10.7070   29.4450 C   0  0  0  0  0  0  0  0  0  0  0  0
    1.0080   -9.8150   30.3660 O   0  0  0  0  0  0  0  0  0  0  0  0
    5.0570   -5.3270   28.4560 C   0  0  0  0  0  0  0  0  0  0  0  0
    6.2480   -5.0910   27.6130 C   0  0  0  0  0  0  0  0  0  0  0  0
    5.7850   -5.0760   23.6050 C   0  0  0  0  0  0  0  0  0  0  0  0
    6.5230   -5.5040   22.3600 C   0  0  0  0  0  0  0  0  0  0  0  0
  1  2  1  0
  2  3  2  0
  2  4  1  0
  4  5  1  0
  5  6  1  0
  6  7  1  0
  7  8  1  0
  8  9  2  0
  8 10  1  0
 10 11  1  0
 11 12  1  0
 12 13  1  0
 13 14  1  0
 14 15  2  0
 14 16  2  0
 14 17  1  0
 17 18  2  0
 18 19  1  0
 19 20  2  0
 20 21  1  0
 17 22  1  0
 21 22  2  0
 21 23  1  0
 23 24  1  0
 24 25  1  0
 25 26  1  0
 20 27  1  0
 26 27  1  0
 13 28  1  0
 10 29  1  0
 28 29  1  0
  7 30  1  0
  4 31  1  0
 30 31  1  0
M  END
