piperidine-amides-34994-covalent
     RDKit          3D

 30 32  0  0  0  0  0  0  0  0999 V2000
    7.0740   -3.3490   19.3350 C   0  0  0  0  0  0  0  0  0  0  0  0
    6.3590   -4.1920   20.3230 C   0  0  0  0  0  0  0  0  0  0  0  0
    5.3310   -4.7480   19.9470 O   0  0  0  0  0  0  0  0  0  0  0  0
    6.8910   -4.3630   21.5990 N   0  0  0  0  0  0  0  0  0  0  0  0
    7.6120   -3.2920   22.2420 C   0  0  0  0  0  0  0  0  0  0  0  0
    7.2460   -3.2480   23.6980 C   0  0  0  0  0  0  0  0  0  0  0  0
    5.8640   -3.8420   23.9000 C   0  0  0  0  0  0  0  0  0  0  0  0
    5.4040   -3.5760   25.2770 C   0  0  0  0  0  0  0  0  0  0  0  0
    4.1900   -3.5840   25.5080 O   0  0  0  0  0  0  0  0  0  0  0  0
    6.2850   -3.2950   26.3280 N   0  0  0  0  0  0  0  0  0  0  0  0
    6.7160   -4.4040   27.1690 C   0  0  0  0  0  0  0  0  0  0  0  0
    5.5400   -5.2830   27.4810 C   0  0  0  0  0  0  0  0  0  0  0  0
    4.8500   -6.1660   26.6990 C   0  0  0  0  0  0  0  0  0  0  0  0
    6.3210   -1.9630   26.8420 C   0  0  0  0  0  0  0  0  0  0  0  0
    6.2030   -0.8270   25.9670 N   0  0  0  0  0  0  0  0  0  0  0  0
    6.2550    0.4370   26.6250 C   0  0  0  0  0  0  0  0  0  0  0  0
    6.1580    1.7020   25.7790 C   0  0  0  0  0  0  0  0  0  0  0  0
    6.6320    1.4390   24.3970 C   0  0  0  0  0  0  0  0  0  0  0  0
    6.5710    2.6880   23.4990 C   0  0  0  0  0  0  0  0  0  0  0  0
    6.0790    4.0710   23.9490 C   0  0  0  0  0  0  0  0  0  0  0  0
    5.9310    5.5640   23.1270 S   0  0  0  0  0  0  0  0  0  0  0  0
    7.1640    5.4480   21.9460 C   0  0  0  0  0  0  0  0  0  0  0  0
    6.1910    6.7320   24.0190 O   0  0  0  0  0  0  0  0  0  0  0  0
    4.5890    5.6620   22.4590 O   0  0  0  0  0  0  0  0  0  0  0  0
    5.6400    4.1140   25.3920 C   0  0  0  0  0  0  0  0  0  0  0  0
    5.6520    2.9980   26.3390 C   0  0  0  0  0  0  0  0  0  0  0  0
    6.4160    0.3840   28.1060 C   0  0  0  0  0  0  0  0  0  0  0  0
    6.4920   -1.2830   28.4930 S   0  0  0  0  0  0  0  0  0  0  0  0
    5.9790   -5.3140   23.6400 C   0  0  0  0  0  0  0  0  0  0  0  0
    6.5750   -5.5880   22.2830 C   0  0  0  0  0  0  0  0  0  0  0  0
  1  2  1  0
  2  3  2  0
  2  4  1  0
  4  5  1  0
  5  6  1  0
  6  7  1  0
  7  8  1  0
  8  9  2  0
  8 10  1  0
 10 11  1  0
 11 12  1  0
 12 13  2  3
 10 14  1  0
 14 15  2  0
 15 16  1  0
 16 17  1  0
 17 18  2  0
 18 19  1  0
 19 20  2  0
 20 21  1  0
 21 22  1  0
 21 23  2  0
 21 24  2  0
 20 25  1  0
 17 26  1  0
 25 26  2  0
 16 27  2  0
 14 28  1  0
 27 28  1  0
  7 29  1  0
  4 30  1  0
 29 30  1  0
M  END
