piperidine-amides-6404-covalent
     RDKit          3D

 20 21  0  0  0  0  0  0  0  0999 V2000
    7.0360   -3.3170   19.3430 C   0  0  0  0  0  0  0  0  0  0  0  0
    6.3270   -4.1510   20.3300 C   0  0  0  0  0  0  0  0  0  0  0  0
    5.3610   -4.8590   19.9760 O   0  0  0  0  0  0  0  0  0  0  0  0
    6.7410   -4.1930   21.6710 N   0  0  0  0  0  0  0  0  0  0  0  0
    7.6460   -3.1690   22.1670 C   0  0  0  0  0  0  0  0  0  0  0  0
    7.5020   -3.1420   23.6820 C   0  0  0  0  0  0  0  0  0  0  0  0
    6.0780   -3.5450   23.9350 C   0  0  0  0  0  0  0  0  0  0  0  0
    5.6440   -3.1530   25.2910 C   0  0  0  0  0  0  0  0  0  0  0  0
    4.4230   -3.1470   25.5480 O   0  0  0  0  0  0  0  0  0  0  0  0
    6.6170   -2.8010   26.2520 N   0  0  0  0  0  0  0  0  0  0  0  0
    6.4950   -1.5880   27.0130 C   0  0  0  0  0  0  0  0  0  0  0  0
    5.8850   -0.3520   26.4090 C   0  0  0  0  0  0  0  0  0  0  0  0
    5.7750    0.7900   27.1490 C   0  0  0  0  0  0  0  0  0  0  0  0
    6.2310    0.7890   28.4490 C   0  0  0  0  0  0  0  0  0  0  0  0
    6.0420    2.0180   29.0620 F   0  0  0  0  0  0  0  0  0  0  0  0
    6.8100   -0.3190   29.0750 C   0  0  0  0  0  0  0  0  0  0  0  0
    7.3550   -0.0740   30.8820 Br  0  0  0  0  0  0  0  0  0  0  0  0
    6.9720   -1.5210   28.4250 C   0  0  0  0  0  0  0  0  0  0  0  0
    5.9800   -5.0650   23.7820 C   0  0  0  0  0  0  0  0  0  0  0  0
    6.6370   -5.4100   22.4600 C   0  0  0  0  0  0  0  0  0  0  0  0
  1  2  1  0
  2  3  2  0
  2  4  1  0
  4  5  1  0
  5  6  1  0
  6  7  1  0
  7  8  1  0
  8  9  2  0
  8 10  1  0
 10 11  1  0
 11 12  2  0
 12 13  1  0
 13 14  2  0
 14 15  1  0
 14 16  1  0
 16 17  1  0
 11 18  1  0
 16 18  2  0
  7 19  1  0
  4 20  1  0
 19 20  1  0
M  END
