piperidine-amides-1650-covalent
     RDKit          3D

 20 21  0  0  0  0  0  0  0  0999 V2000
    7.0360   -3.3250   19.3440 C   0  0  0  0  0  0  0  0  0  0  0  0
    6.3410   -4.1800   20.3480 C   0  0  0  0  0  0  0  0  0  0  0  0
    5.3680   -4.8630   19.9810 O   0  0  0  0  0  0  0  0  0  0  0  0
    6.8220   -4.2240   21.6780 N   0  0  0  0  0  0  0  0  0  0  0  0
    7.6980   -3.2030   22.2220 C   0  0  0  0  0  0  0  0  0  0  0  0
    7.3960   -3.0370   23.7160 C   0  0  0  0  0  0  0  0  0  0  0  0
    6.0750   -3.6670   23.9730 C   0  0  0  0  0  0  0  0  0  0  0  0
    5.4340   -3.3160   25.2730 C   0  0  0  0  0  0  0  0  0  0  0  0
    4.2210   -3.0960   25.2230 O   0  0  0  0  0  0  0  0  0  0  0  0
    6.1570   -3.2360   26.4700 N   0  0  0  0  0  0  0  0  0  0  0  0
    7.0220   -2.1870   26.8650 C   0  0  1  0  0  0  0  0  0  0  0  0
    8.2100   -2.1130   26.2000 C   0  0  0  0  0  0  0  0  0  0  0  0
    6.2780   -0.8310   26.5760 C   0  0  0  0  0  0  0  0  0  0  0  0
    6.0960   -0.0750   27.7240 C   0  0  0  0  0  0  0  0  0  0  0  0
    6.4890   -0.9260   28.8500 C   0  0  0  0  0  0  0  0  0  0  0  0
    5.3610   -1.7210   29.5160 C   0  0  0  0  0  0  0  0  0  0  0  0
    7.3380   -0.3770   29.7560 C   0  0  0  0  0  0  0  0  0  0  0  0
    7.2130   -2.0640   28.2470 C   0  0  0  0  0  0  0  0  0  0  0  0
    6.0800   -5.1450   23.7940 C   0  0  0  0  0  0  0  0  0  0  0  0
    6.6490   -5.4580   22.4200 C   0  0  0  0  0  0  0  0  0  0  0  0
  1  2  1  0
  2  3  2  0
  2  4  1  0
  4  5  1  0
  5  6  1  0
  6  7  1  0
  7  8  1  0
  8  9  2  0
  8 10  1  0
 11 10  1  0
 11 12  1  6
 11 13  1  0
 13 14  1  0
 14 15  1  0
 15 16  1  0
 15 17  1  0
 11 18  1  0
 15 18  1  0
  7 19  1  0
  4 20  1  0
 19 20  1  0
M  END
