piperidine-amides-10353-covalent
     RDKit          3D

 24 25  0  0  0  0  0  0  0  0999 V2000
    7.0660   -3.2850   19.2650 C   0  0  0  0  0  0  0  0  0  0  0  0
    6.3480   -4.0530   20.2930 C   0  0  0  0  0  0  0  0  0  0  0  0
    5.2980   -4.6330   19.9140 O   0  0  0  0  0  0  0  0  0  0  0  0
    6.8350   -4.1590   21.6040 N   0  0  0  0  0  0  0  0  0  0  0  0
    6.6900   -5.3840   22.3620 C   0  0  0  0  0  0  0  0  0  0  0  0
    6.0570   -5.0370   23.6770 C   0  0  0  0  0  0  0  0  0  0  0  0
    6.1420   -3.5570   23.9230 C   0  0  0  0  0  0  0  0  0  0  0  0
    5.6330   -3.2080   25.2700 C   0  0  0  0  0  0  0  0  0  0  0  0
    4.4020   -3.0260   25.3820 O   0  0  0  0  0  0  0  0  0  0  0  0
    6.4340   -3.0720   26.4240 N   0  0  0  0  0  0  0  0  0  0  0  0
    6.1370   -3.8230   27.6250 C   0  0  0  0  0  0  0  0  0  0  0  0
    5.4180   -3.0060   28.6850 C   0  0  0  0  0  0  0  0  0  0  0  0
    5.1340   -3.6070   29.7580 O   0  0  0  0  0  0  0  0  0  0  0  0
    4.9750   -4.9680   29.5500 C   0  0  0  0  0  0  0  0  0  0  0  0
    4.6610   -5.7840   30.6230 C   0  0  0  0  0  0  0  0  0  0  0  0
    5.6490   -6.6450   31.0780 O   0  0  0  0  0  0  0  0  0  0  0  0
    6.0550   -7.6800   30.2260 C   0  0  0  0  0  0  0  0  0  0  0  0
    6.1130   -1.8230   29.0510 C   0  0  0  0  0  0  0  0  0  0  0  0
    5.3950   -1.1820   30.0480 C   0  0  0  0  0  0  0  0  0  0  0  0
    4.2690   -1.5980   30.3910 O   0  0  0  0  0  0  0  0  0  0  0  0
    3.4110   -2.2170   29.4680 C   0  0  0  0  0  0  0  0  0  0  0  0
    4.1840   -2.5350   28.1940 C   0  0  0  0  0  0  0  0  0  0  0  0
    7.5610   -3.0570   23.6500 C   0  0  0  0  0  0  0  0  0  0  0  0
    7.7160   -3.1090   22.1380 C   0  0  0  0  0  0  0  0  0  0  0  0
  1  2  1  0
  2  3  2  0
  2  4  1  0
  4  5  1  0
  5  6  1  0
  6  7  1  0
  7  8  1  0
  8  9  2  0
  8 10  1  0
 10 11  1  0
 11 12  1  0
 12 13  1  0
 13 14  1  0
 14 15  1  0
 15 16  1  0
 16 17  1  0
 12 18  1  0
 18 19  1  0
 19 20  1  0
 20 21  1  0
 12 22  1  0
 21 22  1  0
  7 23  1  0
  4 24  1  0
 23 24  1  0
M  END
