piperidine-amides-34894-covalent
     RDKit          3D

 32 34  0  0  0  0  0  0  0  0999 V2000
    7.0420   -3.3610   19.3780 C   0  0  0  0  0  0  0  0  0  0  0  0
    6.3960   -4.2450   20.3860 C   0  0  0  0  0  0  0  0  0  0  0  0
    5.4100   -4.8790   19.9960 O   0  0  0  0  0  0  0  0  0  0  0  0
    6.9210   -4.3780   21.6850 N   0  0  0  0  0  0  0  0  0  0  0  0
    6.7420   -5.6000   22.4440 C   0  0  0  0  0  0  0  0  0  0  0  0
    6.0630   -5.2680   23.7430 C   0  0  0  0  0  0  0  0  0  0  0  0
    6.0030   -3.7500   23.8190 C   0  0  0  0  0  0  0  0  0  0  0  0
    5.2230   -3.2870   24.9880 C   0  0  0  0  0  0  0  0  0  0  0  0
    4.3180   -2.4740   24.7980 O   0  0  0  0  0  0  0  0  0  0  0  0
    5.4440   -3.7030   26.3000 N   0  0  0  0  0  0  0  0  0  0  0  0
    6.5300   -3.0880   26.9190 C   0  0  0  0  0  0  0  0  0  0  0  0
    6.6590   -3.9180   28.1690 C   0  0  0  0  0  0  0  0  0  0  0  0
    5.6090   -3.9660   28.9320 C   0  0  0  0  0  0  0  0  0  0  0  0
    5.3570   -2.7030   29.4220 C   0  0  0  0  0  0  0  0  0  0  0  0
    6.3990   -1.8420   29.4660 C   0  0  0  0  0  0  0  0  0  0  0  0
    6.5070   -0.4170   29.9330 C   0  0  0  0  0  0  0  0  0  0  0  0
    5.1810    0.1040   30.4360 C   0  0  0  0  0  0  0  0  0  0  0  0
    3.9540   -0.8010   30.4190 C   0  0  0  0  0  0  0  0  0  0  0  0
    4.1590   -2.1820   29.8900 C   0  0  0  0  0  0  0  0  0  0  0  0
    2.9650   -3.0850   29.8670 C   0  0  0  0  0  0  0  0  0  0  0  0
    1.8290   -2.5650   30.5200 N   0  0  0  0  0  0  0  0  0  0  0  0
    1.1300   -1.5130   29.8750 C   0  0  0  0  0  0  0  0  0  0  0  0
   -0.2440   -1.6610   29.7060 O   0  0  0  0  0  0  0  0  0  0  0  0
    1.6800   -0.3950   29.4170 O   0  0  0  0  0  0  0  0  0  0  0  0
    1.2460    0.9060   29.7890 C   0  0  0  0  0  0  0  0  0  0  0  0
   -0.2160    1.0240   30.1410 C   0  0  0  0  0  0  0  0  0  0  0  0
    2.1020    1.4500   30.8760 C   0  0  0  0  0  0  0  0  0  0  0  0
    1.4970    1.8500   28.6330 C   0  0  0  0  0  0  0  0  0  0  0  0
    4.5800   -4.6190   28.3470 C   0  0  0  0  0  0  0  0  0  0  0  0
    4.2570   -3.7640   27.1250 C   0  0  0  0  0  0  0  0  0  0  0  0
    7.3150   -3.0440   23.6580 C   0  0  0  0  0  0  0  0  0  0  0  0
    7.7370   -3.2770   22.2020 C   0  0  0  0  0  0  0  0  0  0  0  0
  1  2  1  0
  2  3  2  0
  2  4  1  0
  4  5  1  0
  5  6  1  0
  6  7  1  0
  7  8  1  0
  8  9  2  0
  8 10  1  0
 10 11  1  0
 11 12  1  0
 12 13  1  0
 13 14  1  0
 14 15  2  0
 15 16  1  0
 16 17  2  0
 17 18  1  0
 14 19  1  0
 18 19  2  0
 19 20  1  0
 20 21  1  0
 21 22  1  0
 22 23  2  0
 22 24  1  0
 25 24  1  0
 25 26  1  0
 25 27  1  0
 25 28  1  0
 13 29  1  0
 10 30  1  0
 29 30  1  0
  7 31  1  0
  4 32  1  0
 31 32  1  0
M  END
