piperidine-amides-8446-covalent
     RDKit          3D

 24 27  0  0  0  0  0  0  0  0999 V2000
    7.0550   -3.3510   19.3170 C   0  0  0  0  0  0  0  0  0  0  0  0
    6.3980   -4.1940   20.3150 C   0  0  0  0  0  0  0  0  0  0  0  0
    5.3760   -4.8130   19.9730 O   0  0  0  0  0  0  0  0  0  0  0  0
    6.9580   -4.3330   21.6100 N   0  0  0  0  0  0  0  0  0  0  0  0
    7.7210   -3.2510   22.1680 C   0  0  0  0  0  0  0  0  0  0  0  0
    6.9530   -2.6530   23.2940 C   0  0  0  0  0  0  0  0  0  0  0  0
    6.6100   -3.8020   24.2000 C   0  0  0  0  0  0  0  0  0  0  0  0
    5.8140   -3.3010   25.3670 C   0  0  0  0  0  0  0  0  0  0  0  0
    4.5940   -3.2390   25.2200 O   0  0  0  0  0  0  0  0  0  0  0  0
    6.5030   -2.9510   26.5220 N   0  0  0  0  0  0  0  0  0  0  0  0
    6.4280   -1.6650   27.1410 C   0  0  0  0  0  0  0  0  0  0  0  0
    6.8130   -1.4410   28.4650 C   0  0  0  0  0  0  0  0  0  0  0  0
    6.7040   -0.1970   29.0170 C   0  0  0  0  0  0  0  0  0  0  0  0
    6.2210    0.8530   28.2570 C   0  0  0  0  0  0  0  0  0  0  0  0
    6.0520    2.1990   28.6720 N   0  0  0  0  0  0  0  0  0  0  0  0
    5.5810    2.8230   27.6250 N   0  0  0  0  0  0  0  0  0  0  0  0
    5.4280    1.9440   26.5280 C   0  0  0  0  0  0  0  0  0  0  0  0
    4.9040    2.3000   25.1130 C   0  0  0  0  0  0  0  0  0  0  0  0
    4.1960    1.3240   24.4880 C   0  0  0  0  0  0  0  0  0  0  0  0
    5.6390    1.5900   23.9520 C   0  0  0  0  0  0  0  0  0  0  0  0
    5.8310    0.7270   26.9520 N   0  0  0  0  0  0  0  0  0  0  0  0
    5.9170   -0.4860   26.3830 C   0  0  0  0  0  0  0  0  0  0  0  0
    5.7510   -4.8030   23.4580 C   0  0  0  0  0  0  0  0  0  0  0  0
    6.5290   -5.3960   22.4840 C   0  0  0  0  0  0  0  0  0  0  0  0
  1  2  1  0
  2  3  2  0
  2  4  1  0
  4  5  1  0
  5  6  1  0
  6  7  1  0
  7  8  1  0
  8  9  2  0
  8 10  1  0
 10 11  1  0
 11 12  1  0
 12 13  2  0
 13 14  1  0
 14 15  2  0
 15 16  1  0
 16 17  2  0
 17 18  1  0
 18 19  1  0
 18 20  1  0
 19 20  1  0
 14 21  1  0
 17 21  1  0
 11 22  2  0
 21 22  1  0
  7 23  1  0
  4 24  1  0
 23 24  1  0
M  END
