piperidine-amides-30616-covalent
     RDKit          3D

 27 29  0  0  0  0  0  0  0  0999 V2000
    7.0710   -3.3380   19.2860 C   0  0  0  0  0  0  0  0  0  0  0  0
    6.3910   -4.1650   20.2820 C   0  0  0  0  0  0  0  0  0  0  0  0
    5.3560   -4.7680   19.9610 O   0  0  0  0  0  0  0  0  0  0  0  0
    6.9210   -4.3380   21.5690 N   0  0  0  0  0  0  0  0  0  0  0  0
    7.7450   -3.3280   22.1990 C   0  0  0  0  0  0  0  0  0  0  0  0
    6.9320   -2.7910   23.3420 C   0  0  0  0  0  0  0  0  0  0  0  0
    6.4470   -3.8920   24.2310 C   0  0  0  0  0  0  0  0  0  0  0  0
    5.3680   -3.4350   25.1390 C   0  0  0  0  0  0  0  0  0  0  0  0
    4.3810   -2.8150   24.6570 O   0  0  0  0  0  0  0  0  0  0  0  0
    5.3500   -3.6340   26.5390 N   0  0  0  0  0  0  0  0  0  0  0  0
    4.0440   -3.8130   27.2130 C   0  0  0  0  0  0  0  0  0  0  0  0
    4.0860   -4.8850   28.2520 C   0  0  0  0  0  0  0  0  0  0  0  0
    4.3450   -4.2980   29.4190 N   0  0  0  0  0  0  0  0  0  0  0  0
    3.4850   -3.3910   30.0970 C   0  0  0  0  0  0  0  0  0  0  0  0
    2.3960   -4.1570   30.7960 C   0  0  0  0  0  0  0  0  0  0  0  0
    2.8110   -4.7800   32.1410 C   0  0  0  0  0  0  0  0  0  0  0  0
    1.7250   -5.5470   32.8480 C   0  0  0  0  0  0  0  0  0  0  0  0
    0.4820   -5.6420   32.2810 C   0  0  0  0  0  0  0  0  0  0  0  0
    0.1180   -5.0820   31.0760 C   0  0  0  0  0  0  0  0  0  0  0  0
    1.1290   -4.3060   30.3080 C   0  0  0  0  0  0  0  0  0  0  0  0
    5.6420   -3.7460   29.5420 C   0  0  0  0  0  0  0  0  0  0  0  0
    6.2990   -3.3440   28.3130 C   0  0  0  0  0  0  0  0  0  0  0  0
    6.8280   -4.5350   28.0900 F   0  0  0  0  0  0  0  0  0  0  0  0
    7.2760   -2.6090   28.8070 F   0  0  0  0  0  0  0  0  0  0  0  0
    6.3140   -2.8620   27.2260 C   0  0  0  0  0  0  0  0  0  0  0  0
    5.9830   -5.1280   23.5610 C   0  0  0  0  0  0  0  0  0  0  0  0
    6.5710   -5.4640   22.3680 C   0  0  0  0  0  0  0  0  0  0  0  0
  1  2  1  0
  2  3  2  0
  2  4  1  0
  4  5  1  0
  5  6  1  0
  6  7  1  0
  7  8  1  0
  8  9  2  0
  8 10  1  0
 10 11  1  0
 11 12  1  0
 12 13  1  0
 13 14  1  0
 14 15  1  0
 15 16  2  0
 16 17  1  0
 17 18  2  0
 18 19  1  0
 15 20  1  0
 19 20  2  0
 13 21  1  0
 21 22  1  0
 22 23  1  0
 22 24  1  0
 10 25  1  0
 22 25  1  0
  7 26  1  0
  4 27  1  0
 26 27  1  0
M  END
