piperidine-amides-28070-covalent
     RDKit          3D

 26 27  0  0  0  0  0  0  0  0999 V2000
    7.0850   -3.2850   19.2220 C   0  0  0  0  0  0  0  0  0  0  0  0
    6.3370   -4.0320   20.2620 C   0  0  0  0  0  0  0  0  0  0  0  0
    5.2740   -4.5620   19.8890 O   0  0  0  0  0  0  0  0  0  0  0  0
    6.8260   -4.1810   21.5750 N   0  0  0  0  0  0  0  0  0  0  0  0
    7.6400   -3.1650   22.1680 C   0  0  0  0  0  0  0  0  0  0  0  0
    7.3220   -2.9190   23.5760 C   0  0  0  0  0  0  0  0  0  0  0  0
    6.1210   -3.6530   24.0260 C   0  0  0  0  0  0  0  0  0  0  0  0
    5.8100   -3.3980   25.4610 C   0  0  0  0  0  0  0  0  0  0  0  0
    4.6090   -3.4510   25.7870 O   0  0  0  0  0  0  0  0  0  0  0  0
    6.7960   -3.0950   26.4330 N   0  0  0  0  0  0  0  0  0  0  0  0
    7.6760   -4.1190   27.0670 C   0  0  0  0  0  0  0  0  0  0  0  0
    6.9780   -5.3770   27.4880 C   0  0  0  0  0  0  0  0  0  0  0  0
    5.6690   -5.7270   26.9440 C   0  0  0  0  0  0  0  0  0  0  0  0
    7.2930   -1.7750   26.7940 C   0  0  0  0  0  0  0  0  0  0  0  0
    6.4880   -1.2080   27.7720 C   0  0  0  0  0  0  0  0  0  0  0  0
    5.9260   -1.9750   28.6640 O   0  0  0  0  0  0  0  0  0  0  0  0
    6.2300    0.2160   27.8730 N   0  0  0  0  0  0  0  0  0  0  0  0
    5.7750    0.9340   26.8240 C   0  0  0  0  0  0  0  0  0  0  0  0
    4.8990    0.2440   26.0530 C   0  0  0  0  0  0  0  0  0  0  0  0
    4.3230    0.7910   24.9440 C   0  0  0  0  0  0  0  0  0  0  0  0
    4.6440    2.1090   24.5840 C   0  0  0  0  0  0  0  0  0  0  0  0
    5.5900    2.9530   25.3570 C   0  0  0  0  0  0  0  0  0  0  0  0
    6.1440    2.2210   26.5510 C   0  0  0  0  0  0  0  0  0  0  0  0
    7.0990    3.0820   27.3300 C   0  0  0  0  0  0  0  0  0  0  0  0
    6.0760   -5.0870   23.6900 C   0  0  0  0  0  0  0  0  0  0  0  0
    6.6270   -5.4150   22.3150 C   0  0  0  0  0  0  0  0  0  0  0  0
  1  2  1  0
  2  3  2  0
  2  4  1  0
  4  5  1  0
  5  6  1  0
  6  7  1  0
  7  8  1  0
  8  9  2  0
  8 10  1  0
 10 11  1  0
 11 12  1  0
 12 13  1  0
 10 14  1  0
 14 15  1  0
 15 16  2  0
 15 17  1  0
 17 18  1  0
 18 19  2  0
 19 20  1  0
 20 21  2  0
 21 22  1  0
 18 23  1  0
 22 23  2  0
 23 24  1  0
  7 25  1  0
  4 26  1  0
 25 26  1  0
M  END
