piperidine-amides-18989-covalent
     RDKit          3D

 20 21  0  0  0  0  0  0  0  0999 V2000
    7.1210   -3.3110   19.3560 C   0  0  0  0  0  0  0  0  0  0  0  0
    6.3540   -4.1230   20.2770 C   0  0  0  0  0  0  0  0  0  0  0  0
    5.2650   -4.6390   19.8950 O   0  0  0  0  0  0  0  0  0  0  0  0
    6.8080   -4.3930   21.5650 N   0  0  0  0  0  0  0  0  0  0  0  0
    6.2020   -5.5320   22.3050 C   0  0  0  0  0  0  0  0  0  0  0  0
    5.3290   -4.7960   23.4150 C   0  0  0  0  0  0  0  0  0  0  0  0
    6.2390   -3.8220   24.1460 C   0  0  0  0  0  0  0  0  0  0  0  0
    5.5800   -3.1850   25.4510 C   0  0  0  0  0  0  0  0  0  0  0  0
    4.8320   -2.2900   25.0950 O   0  0  0  0  0  0  0  0  0  0  0  0
    5.9440   -3.7350   26.5600 N   0  0  0  0  0  0  0  0  0  0  0  0
    5.7710   -4.2260   27.8100 C   0  0  0  0  0  0  0  0  0  0  0  0
    6.5170   -5.0420   28.5310 C   0  0  0  0  0  0  0  0  0  0  0  0
    7.6820   -4.9380   27.7970 C   0  0  0  0  0  0  0  0  0  0  0  0
    7.4660   -3.8640   26.7740 C   0  0  1  0  0  0  0  0  0  0  0  0
    8.4160   -4.3080   25.3260 P   0  0  0  0  0  0  0  0  0  0  0  0
    7.6160   -5.5670   24.2810 C   0  0  0  0  0  0  0  0  0  0  0  0
    8.8370   -2.8390   24.3670 C   0  0  0  0  0  0  0  0  0  0  0  0
    9.6640   -4.9940   25.7920 O   0  0  0  0  0  0  0  0  0  0  0  0
    6.7080   -2.7220   23.2220 C   0  0  0  0  0  0  0  0  0  0  0  0
    7.6310   -3.4080   22.2330 C   0  0  0  0  0  0  0  0  0  0  0  0
  1  2  1  0
  2  3  2  0
  2  4  1  0
  4  5  1  0
  5  6  1  0
  6  7  1  0
  7  8  1  0
  8  9  2  0
  8 10  1  0
 10 11  1  0
 11 12  1  0
 12 13  1  0
 10 14  1  0
 13 14  1  0
 14 15  1  6
 15 16  1  0
 15 17  1  0
 15 18  2  0
  7 19  1  0
  4 20  1  0
 19 20  1  0
M  END
