piperidine-amides-9223-covalent
     RDKit          3D

 20 20  0  0  0  0  0  0  0  0999 V2000
    7.0850   -3.2750   19.2340 C   0  0  0  0  0  0  0  0  0  0  0  0
    6.3200   -4.0150   20.2410 C   0  0  0  0  0  0  0  0  0  0  0  0
    5.2790   -4.5990   19.9000 O   0  0  0  0  0  0  0  0  0  0  0  0
    6.7610   -4.1170   21.5690 N   0  0  0  0  0  0  0  0  0  0  0  0
    7.6830   -3.1550   22.1370 C   0  0  0  0  0  0  0  0  0  0  0  0
    7.2190   -2.8910   23.5390 C   0  0  0  0  0  0  0  0  0  0  0  0
    5.9750   -3.6610   23.8690 C   0  0  0  0  0  0  0  0  0  0  0  0
    5.5030   -3.4430   25.2550 C   0  0  0  0  0  0  0  0  0  0  0  0
    4.2660   -3.4740   25.5220 O   0  0  0  0  0  0  0  0  0  0  0  0
    6.3750   -3.1740   26.3270 N   0  0  0  0  0  0  0  0  0  0  0  0
    6.6260   -4.1490   27.4120 C   0  0  2  0  0  0  0  0  0  0  0  0
    8.0550   -4.1260   27.6000 C   0  0  0  0  0  0  0  0  0  0  0  0
    8.5750   -3.5960   28.6050 O   0  0  0  0  0  0  0  0  0  0  0  0
    8.8650   -4.6940   26.6500 O   0  0  0  0  0  0  0  0  0  0  0  0
    9.4110   -5.9770   26.7980 C   0  0  0  0  0  0  0  0  0  0  0  0
    6.2740   -5.5930   27.1510 C   0  0  0  0  0  0  0  0  0  0  0  0
    6.7070   -6.1630   28.4910 C   0  0  0  0  0  0  0  0  0  0  0  0
    4.7490   -5.7070   27.0800 C   0  0  0  0  0  0  0  0  0  0  0  0
    6.2030   -5.1310   23.5850 C   0  0  0  0  0  0  0  0  0  0  0  0
    6.5510   -5.3780   22.2500 C   0  0  0  0  0  0  0  0  0  0  0  0
  1  2  1  0
  2  3  2  0
  2  4  1  0
  4  5  1  0
  5  6  1  0
  6  7  1  0
  7  8  1  0
  8  9  2  0
  8 10  1  0
 11 10  1  6
 11 12  1  0
 12 13  2  0
 12 14  1  0
 14 15  1  0
 11 16  1  0
 16 17  1  0
 16 18  1  0
  7 19  1  0
  4 20  1  0
 19 20  1  0
M  END
