piperidine-amides-10626-covalent
     RDKit          3D

 23 24  0  0  0  0  0  0  0  0999 V2000
    7.0990   -3.3130   19.2840 C   0  0  0  0  0  0  0  0  0  0  0  0
    6.3610   -4.0700   20.2990 C   0  0  0  0  0  0  0  0  0  0  0  0
    5.2910   -4.6110   19.9120 O   0  0  0  0  0  0  0  0  0  0  0  0
    6.8580   -4.2180   21.6040 N   0  0  0  0  0  0  0  0  0  0  0  0
    6.6330   -5.4300   22.3650 C   0  0  0  0  0  0  0  0  0  0  0  0
    6.1040   -5.0710   23.7320 C   0  0  0  0  0  0  0  0  0  0  0  0
    6.0250   -3.5790   23.9260 C   0  0  0  0  0  0  0  0  0  0  0  0
    5.5580   -3.2380   25.2890 C   0  0  0  0  0  0  0  0  0  0  0  0
    4.4410   -2.6890   25.3870 O   0  0  0  0  0  0  0  0  0  0  0  0
    6.2740   -3.4930   26.4710 N   0  0  0  0  0  0  0  0  0  0  0  0
    5.6940   -4.2970   27.5220 C   0  0  0  0  0  0  0  0  0  0  0  0
    5.8540   -5.7930   27.2440 C   0  0  0  0  0  0  0  0  0  0  0  0
    4.2580   -3.9900   27.6780 C   0  0  0  0  0  0  0  0  0  0  0  0
    6.3630   -3.9850   28.8440 C   0  0  0  0  0  0  0  0  0  0  0  0
    6.0270   -2.7400   29.3610 C   0  0  0  0  0  0  0  0  0  0  0  0
    6.8560   -1.6220   29.3290 C   0  0  0  0  0  0  0  0  0  0  0  0
    6.4920   -0.4100   29.8590 C   0  0  0  0  0  0  0  0  0  0  0  0
    5.1470   -0.2610   30.5070 C   0  0  0  0  0  0  0  0  0  0  0  0
    4.9740    1.1690   31.0180 C   0  0  0  0  0  0  0  0  0  0  0  0
    4.3120   -1.3480   30.5500 C   0  0  0  0  0  0  0  0  0  0  0  0
    4.7760   -2.6620   29.9430 C   0  0  0  0  0  0  0  0  0  0  0  0
    7.3020   -2.9030   23.5990 C   0  0  0  0  0  0  0  0  0  0  0  0
    7.6940   -3.1800   22.1680 C   0  0  0  0  0  0  0  0  0  0  0  0
  1  2  1  0
  2  3  2  0
  2  4  1  0
  4  5  1  0
  5  6  1  0
  6  7  1  0
  7  8  1  0
  8  9  2  0
  8 10  1  0
 11 10  1  0
 11 12  1  0
 11 13  1  0
 11 14  1  0
 14 15  1  0
 15 16  2  0
 16 17  1  0
 17 18  2  0
 18 19  1  0
 18 20  1  0
 15 21  1  0
 20 21  2  0
  7 22  1  0
  4 23  1  0
 22 23  1  0
M  END
