piperidine-amides-5435-covalent
     RDKit          3D

 20 21  0  0  0  0  0  0  0  0999 V2000
    7.0780   -3.3350   19.2890 C   0  0  0  0  0  0  0  0  0  0  0  0
    6.3920   -4.1410   20.2970 C   0  0  0  0  0  0  0  0  0  0  0  0
    5.3830   -4.7920   19.9700 O   0  0  0  0  0  0  0  0  0  0  0  0
    6.8810   -4.2280   21.6080 N   0  0  0  0  0  0  0  0  0  0  0  0
    7.7110   -3.1810   22.1620 C   0  0  0  0  0  0  0  0  0  0  0  0
    6.9360   -2.6510   23.3290 C   0  0  0  0  0  0  0  0  0  0  0  0
    6.4970   -3.7640   24.2240 C   0  0  0  0  0  0  0  0  0  0  0  0
    5.7570   -3.2800   25.4210 C   0  0  0  0  0  0  0  0  0  0  0  0
    4.4960   -3.1720   25.3890 O   0  0  0  0  0  0  0  0  0  0  0  0
    6.4070   -2.9220   26.6340 N   0  0  0  0  0  0  0  0  0  0  0  0
    6.0280   -1.6930   27.3910 C   0  0  2  0  0  0  0  0  0  0  0  0
    5.8800   -0.6160   26.4060 C   0  0  0  0  0  0  0  0  0  0  0  0
    5.3740    0.6300   26.9730 C   0  0  0  0  0  0  0  0  0  0  0  0
    6.2280    1.0920   28.1020 C   0  0  0  0  0  0  0  0  0  0  0  0
    6.5330    0.1110   29.0900 N   0  0  0  0  0  0  0  0  0  0  0  0
    7.4010    0.5310   29.9540 O   0  0  0  0  0  0  0  0  0  0  0  0
    6.8210   -1.2080   28.4790 C   0  0  0  0  0  0  0  0  0  0  0  0
    7.7620   -1.8860   28.9970 O   0  0  0  0  0  0  0  0  0  0  0  0
    5.6740   -4.7620   23.4630 C   0  0  0  0  0  0  0  0  0  0  0  0
    6.3810   -5.2940   22.4150 C   0  0  0  0  0  0  0  0  0  0  0  0
  1  2  1  0
  2  3  2  0
  2  4  1  0
  4  5  1  0
  5  6  1  0
  6  7  1  0
  7  8  1  0
  8  9  2  0
  8 10  1  0
 11 10  1  6
 11 12  1  0
 12 13  1  0
 13 14  1  0
 14 15  1  0
 15 16  1  0
 11 17  1  0
 15 17  1  0
 17 18  2  0
  7 19  1  0
  4 20  1  0
 19 20  1  0
M  END
