piperidine-amides-4066-covalent
     RDKit          3D

 28 30  0  0  0  0  0  0  0  0999 V2000
    7.1000   -3.2910   19.2290 C   0  0  0  0  0  0  0  0  0  0  0  0
    6.3580   -4.0710   20.2370 C   0  0  0  0  0  0  0  0  0  0  0  0
    5.2730   -4.5830   19.8860 O   0  0  0  0  0  0  0  0  0  0  0  0
    6.8830   -4.2770   21.5310 N   0  0  0  0  0  0  0  0  0  0  0  0
    7.6140   -3.2000   22.1110 C   0  0  0  0  0  0  0  0  0  0  0  0
    7.1740   -2.7960   23.4350 C   0  0  0  0  0  0  0  0  0  0  0  0
    6.5520   -3.8740   24.2100 C   0  0  0  0  0  0  0  0  0  0  0  0
    5.7730   -3.3140   25.3610 C   0  0  0  0  0  0  0  0  0  0  0  0
    4.5410   -3.1500   25.2520 O   0  0  0  0  0  0  0  0  0  0  0  0
    6.4110   -2.9590   26.5640 N   0  0  0  0  0  0  0  0  0  0  0  0
    6.4170   -1.7150   27.2380 C   0  0  0  0  0  0  0  0  0  0  0  0
    5.8550   -0.5270   26.5880 C   0  0  0  0  0  0  0  0  0  0  0  0
    5.8680    0.8010   27.3520 C   0  0  0  0  0  0  0  0  0  0  0  0
    6.4070    0.8030   28.6080 C   0  0  0  0  0  0  0  0  0  0  0  0
    6.4600    1.9530   29.3690 O   0  0  0  0  0  0  0  0  0  0  0  0
    5.5620    1.9250   30.4290 C   0  0  0  0  0  0  0  0  0  0  0  0
    5.2130    3.3390   30.7540 C   0  0  0  0  0  0  0  0  0  0  0  0
    5.3520    3.2870   32.2740 C   0  0  0  0  0  0  0  0  0  0  0  0
    5.0790    4.5600   33.0310 C   0  0  0  0  0  0  0  0  0  0  0  0
    4.6840    5.7860   32.2170 C   0  0  0  0  0  0  0  0  0  0  0  0
    4.5590    5.7790   30.6760 C   0  0  0  0  0  0  0  0  0  0  0  0
    4.1930    6.9660   30.0690 F   0  0  0  0  0  0  0  0  0  0  0  0
    4.8560    4.4610   30.0400 C   0  0  0  0  0  0  0  0  0  0  0  0
    6.9410   -0.4290   29.1670 C   0  0  0  0  0  0  0  0  0  0  0  0
    7.4690   -0.3510   30.4450 F   0  0  0  0  0  0  0  0  0  0  0  0
    6.9460   -1.6390   28.5070 C   0  0  0  0  0  0  0  0  0  0  0  0
    5.6900   -4.7650   23.3780 C   0  0  0  0  0  0  0  0  0  0  0  0
    6.4230   -5.3590   22.3640 C   0  0  0  0  0  0  0  0  0  0  0  0
  1  2  1  0
  2  3  2  0
  2  4  1  0
  4  5  1  0
  5  6  1  0
  6  7  1  0
  7  8  1  0
  8  9  2  0
  8 10  1  0
 10 11  1  0
 11 12  2  0
 12 13  1  0
 13 14  2  0
 14 15  1  0
 15 16  1  0
 16 17  1  0
 17 18  2  0
 18 19  1  0
 19 20  2  0
 20 21  1  0
 21 22  1  0
 17 23  1  0
 21 23  2  0
 14 24  1  0
 24 25  1  0
 11 26  1  0
 24 26  2  0
  7 27  1  0
  4 28  1  0
 27 28  1  0
M  END
