piperidine-amides-13636-covalent
     RDKit          3D

 29 31  0  0  0  0  0  0  0  0999 V2000
    7.0450   -3.3180   19.3230 C   0  0  0  0  0  0  0  0  0  0  0  0
    6.3240   -4.1590   20.3210 C   0  0  0  0  0  0  0  0  0  0  0  0
    5.3210   -4.7900   19.9580 O   0  0  0  0  0  0  0  0  0  0  0  0
    6.8160   -4.2640   21.6400 N   0  0  0  0  0  0  0  0  0  0  0  0
    6.6670   -5.4880   22.3930 C   0  0  0  0  0  0  0  0  0  0  0  0
    6.0990   -5.1470   23.7810 C   0  0  0  0  0  0  0  0  0  0  0  0
    6.0780   -3.6610   23.9500 C   0  0  0  0  0  0  0  0  0  0  0  0
    5.6680   -3.2110   25.3020 C   0  0  0  0  0  0  0  0  0  0  0  0
    4.4610   -3.2640   25.5840 O   0  0  0  0  0  0  0  0  0  0  0  0
    6.6480   -2.7470   26.1770 N   0  0  0  0  0  0  0  0  0  0  0  0
    6.5930   -1.6620   27.0970 C   0  0  0  0  0  0  0  0  0  0  0  0
    7.0080   -1.5990   28.4060 C   0  0  0  0  0  0  0  0  0  0  0  0
    6.8970   -0.4530   29.1930 C   0  0  0  0  0  0  0  0  0  0  0  0
    6.3510    0.7050   28.6930 C   0  0  0  0  0  0  0  0  0  0  0  0
    5.8670    0.7490   27.2880 C   0  0  0  0  0  0  0  0  0  0  0  0
    5.2440    1.9950   26.6390 C   0  0  0  0  0  0  0  0  0  0  0  0
    5.3290    3.2340   27.2590 O   0  0  0  0  0  0  0  0  0  0  0  0
    4.5760    1.8250   25.3820 N   0  0  0  0  0  0  0  0  0  0  0  0
    3.3260    2.4460   25.1450 C   0  0  0  0  0  0  0  0  0  0  0  0
    2.4670    2.7770   26.1430 C   0  0  0  0  0  0  0  0  0  0  0  0
    1.1470    3.4300   25.9360 C   0  0  0  0  0  0  0  0  0  0  0  0
    0.8950    3.6760   24.4300 C   0  0  0  0  0  0  0  0  0  0  0  0
   -0.2890    4.2820   23.9950 O   0  0  0  0  0  0  0  0  0  0  0  0
   -0.3640    5.1420   22.8910 C   0  0  0  0  0  0  0  0  0  0  0  0
    1.8530    3.2860   23.5490 N   0  0  0  0  0  0  0  0  0  0  0  0
    2.9950    2.7110   23.8650 C   0  0  0  0  0  0  0  0  0  0  0  0
    5.9900   -0.4050   26.5240 C   0  0  0  0  0  0  0  0  0  0  0  0
    7.4290   -3.0590   23.6390 C   0  0  0  0  0  0  0  0  0  0  0  0
    7.6430   -3.1800   22.1810 C   0  0  0  0  0  0  0  0  0  0  0  0
  1  2  1  0
  2  3  2  0
  2  4  1  0
  4  5  1  0
  5  6  1  0
  6  7  1  0
  7  8  1  0
  8  9  2  0
  8 10  1  0
 10 11  1  0
 11 12  2  0
 12 13  1  0
 13 14  2  0
 14 15  1  0
 15 16  1  0
 16 17  2  0
 16 18  1  0
 18 19  1  0
 19 20  2  0
 20 21  1  0
 21 22  2  0
 22 23  1  0
 23 24  1  0
 22 25  1  0
 19 26  1  0
 25 26  2  0
 11 27  1  0
 15 27  2  0
  7 28  1  0
  4 29  1  0
 28 29  1  0
M  END
