piperidine-amides-21472-covalent
     RDKit          3D

 23 24  0  0  0  0  0  0  0  0999 V2000
    7.0380   -3.3570   19.3630 C   0  0  0  0  0  0  0  0  0  0  0  0
    6.3980   -4.2090   20.3690 C   0  0  0  0  0  0  0  0  0  0  0  0
    5.3790   -4.8440   19.9850 O   0  0  0  0  0  0  0  0  0  0  0  0
    6.9410   -4.3290   21.6570 N   0  0  0  0  0  0  0  0  0  0  0  0
    7.7230   -3.2840   22.2770 C   0  0  0  0  0  0  0  0  0  0  0  0
    6.8420   -2.6290   23.2960 C   0  0  0  0  0  0  0  0  0  0  0  0
    5.9770   -3.6550   23.9720 C   0  0  0  0  0  0  0  0  0  0  0  0
    5.5690   -3.2030   25.3280 C   0  0  0  0  0  0  0  0  0  0  0  0
    4.3620   -2.9260   25.4830 O   0  0  0  0  0  0  0  0  0  0  0  0
    6.4150   -3.0690   26.4550 N   0  0  0  0  0  0  0  0  0  0  0  0
    6.6310   -4.2690   27.2370 C   0  0  0  0  0  0  0  0  0  0  0  0
    6.3830   -1.7500   27.0990 C   0  0  0  0  0  0  0  0  0  0  0  0
    6.8960   -1.7330   28.3800 C   0  0  0  0  0  0  0  0  0  0  0  0
    6.9430   -0.5990   29.1590 C   0  0  0  0  0  0  0  0  0  0  0  0
    6.4610    0.6050   28.6700 C   0  0  0  0  0  0  0  0  0  0  0  0
    6.4850    1.7620   29.4310 C   0  0  0  0  0  0  0  0  0  0  0  0
    7.6800    2.3180   29.9060 O   0  0  0  0  0  0  0  0  0  0  0  0
    5.4270    2.3670   29.7360 O   0  0  0  0  0  0  0  0  0  0  0  0
    4.2710    1.6110   30.0310 C   0  0  0  0  0  0  0  0  0  0  0  0
    5.9470    0.6280   27.3940 C   0  0  0  0  0  0  0  0  0  0  0  0
    5.8680   -0.5950   26.4780 C   0  0  0  0  0  0  0  0  0  0  0  0
    6.6310   -5.0410   23.9450 C   0  0  0  0  0  0  0  0  0  0  0  0
    6.5960   -5.4880   22.4830 C   0  0  0  0  0  0  0  0  0  0  0  0
  1  2  1  0
  2  3  2  0
  2  4  1  0
  4  5  1  0
  5  6  1  0
  6  7  1  0
  7  8  1  0
  8  9  2  0
  8 10  1  0
 10 11  1  0
 10 12  1  0
 12 13  2  0
 13 14  1  0
 14 15  2  0
 15 16  1  0
 16 17  2  0
 16 18  1  0
 18 19  1  0
 15 20  1  0
 12 21  1  0
 20 21  2  0
  7 22  1  0
  4 23  1  0
 22 23  1  0
M  END
