piperidine-amides-29705-covalent
     RDKit          3D

 26 27  0  0  0  0  0  0  0  0999 V2000
    7.0400   -3.3180   19.3210 C   0  0  0  0  0  0  0  0  0  0  0  0
    6.3490   -4.1720   20.2830 C   0  0  0  0  0  0  0  0  0  0  0  0
    5.3460   -4.7970   19.9550 O   0  0  0  0  0  0  0  0  0  0  0  0
    6.8680   -4.3210   21.6050 N   0  0  0  0  0  0  0  0  0  0  0  0
    6.6550   -5.5570   22.3060 C   0  0  0  0  0  0  0  0  0  0  0  0
    5.9910   -5.2470   23.6120 C   0  0  0  0  0  0  0  0  0  0  0  0
    6.2410   -3.7730   23.8850 C   0  0  0  0  0  0  0  0  0  0  0  0
    5.8640   -3.3940   25.2740 C   0  0  0  0  0  0  0  0  0  0  0  0
    5.1210   -2.4160   25.4990 O   0  0  0  0  0  0  0  0  0  0  0  0
    6.3080   -4.1560   26.3820 N   0  0  0  0  0  0  0  0  0  0  0  0
    5.5480   -3.9880   27.5990 C   0  0  0  0  0  0  0  0  0  0  0  0
    6.4750   -4.6380   28.5540 C   0  0  1  0  0  0  0  0  0  0  0  0
    5.8190   -5.7870   29.0300 F   0  0  0  0  0  0  0  0  0  0  0  0
    7.6920   -4.9610   27.9870 C   0  0  0  0  0  0  0  0  0  0  0  0
    7.7770   -4.3490   26.7120 C   0  0  1  0  0  0  0  0  0  0  0  0
    8.4210   -5.1330   25.7690 C   0  0  0  0  0  0  0  0  0  0  0  0
    9.8030   -4.8040   25.5120 N   0  0  0  0  0  0  0  0  0  0  0  0
   10.2000   -3.5080   25.0300 C   0  0  0  0  0  0  0  0  0  0  0  0
    9.5690   -2.4330   25.2670 O   0  0  0  0  0  0  0  0  0  0  0  0
   11.3490   -3.4870   24.2520 O   0  0  0  0  0  0  0  0  0  0  0  0
   12.2530   -2.4190   24.1520 C   0  0  0  0  0  0  0  0  0  0  0  0
   11.4870   -1.2860   24.1610 C   0  0  0  0  0  0  0  0  0  0  0  0
   13.3210   -2.4030   25.2230 C   0  0  0  0  0  0  0  0  0  0  0  0
   12.9850   -2.4160   22.8530 C   0  0  0  0  0  0  0  0  0  0  0  0
    7.6370   -3.3080   23.5220 C   0  0  0  0  0  0  0  0  0  0  0  0
    7.7740   -3.3350   22.1380 C   0  0  0  0  0  0  0  0  0  0  0  0
  1  2  1  0
  2  3  2  0
  2  4  1  0
  4  5  1  0
  5  6  1  0
  6  7  1  0
  7  8  1  0
  8  9  2  0
  8 10  1  0
 10 11  1  0
 11 12  1  0
 12 13  1  6
 12 14  1  0
 10 15  1  0
 14 15  1  0
 15 16  1  6
 16 17  1  0
 17 18  1  0
 18 19  2  0
 18 20  1  0
 21 20  1  0
 21 22  1  0
 21 23  1  0
 21 24  1  0
  7 25  1  0
  4 26  1  0
 25 26  1  0
M  END
