piperidine-amides-2190-covalent
     RDKit          3D

 30 32  0  0  0  0  0  0  0  0999 V2000
    7.0730   -3.3210   19.3370 C   0  0  0  0  0  0  0  0  0  0  0  0
    6.3520   -4.1340   20.3500 C   0  0  0  0  0  0  0  0  0  0  0  0
    5.3520   -4.7380   19.9550 O   0  0  0  0  0  0  0  0  0  0  0  0
    6.8320   -4.2230   21.6660 N   0  0  0  0  0  0  0  0  0  0  0  0
    7.6310   -3.1580   22.2440 C   0  0  0  0  0  0  0  0  0  0  0  0
    7.3080   -2.9890   23.7090 C   0  0  0  0  0  0  0  0  0  0  0  0
    6.0020   -3.7200   24.0280 C   0  0  0  0  0  0  0  0  0  0  0  0
    5.4610   -3.3180   25.3690 C   0  0  0  0  0  0  0  0  0  0  0  0
    4.5660   -2.4640   25.3550 O   0  0  0  0  0  0  0  0  0  0  0  0
    5.8670   -3.7890   26.6560 N   0  0  0  0  0  0  0  0  0  0  0  0
    6.1100   -5.1930   26.9440 C   0  0  0  0  0  0  0  0  0  0  0  0
    4.9440   -5.9690   27.5060 C   0  0  1  0  0  0  0  0  0  0  0  0
    4.8220   -6.2500   28.8510 C   0  0  0  0  0  0  0  0  0  0  0  0
    5.7790   -6.9960   29.5260 C   0  0  0  0  0  0  0  0  0  0  0  0
    5.5540   -7.2250   30.8240 C   0  0  0  0  0  0  0  0  0  0  0  0
    4.3670   -6.7120   31.4950 C   0  0  0  0  0  0  0  0  0  0  0  0
    3.9960   -6.8970   32.9350 C   0  0  0  0  0  0  0  0  0  0  0  0
    5.1720   -7.0120   33.6850 F   0  0  0  0  0  0  0  0  0  0  0  0
    3.3320   -5.7670   33.4090 F   0  0  0  0  0  0  0  0  0  0  0  0
    3.1780   -7.9830   33.1380 F   0  0  0  0  0  0  0  0  0  0  0  0
    3.1960   -5.9130   31.1170 C   0  0  0  0  0  0  0  0  0  0  0  0
    3.5550   -5.7180   29.6450 C   0  0  0  0  0  0  0  0  0  0  0  0
    3.7280   -5.4430   26.8300 N   0  0  0  0  0  0  0  0  0  0  0  0
    3.7060   -6.1490   25.5910 C   0  0  0  0  0  0  0  0  0  0  0  0
    2.7450   -7.3300   25.6740 C   0  0  0  0  0  0  0  0  0  0  0  0
    1.4560   -6.8200   25.7540 O   0  0  0  0  0  0  0  0  0  0  0  0
    1.3690   -5.6030   26.3660 C   0  0  0  0  0  0  0  0  0  0  0  0
    2.4430   -5.4790   27.4240 C   0  0  0  0  0  0  0  0  0  0  0  0
    6.2470   -5.1910   23.8290 C   0  0  0  0  0  0  0  0  0  0  0  0
    6.5940   -5.4510   22.3800 C   0  0  0  0  0  0  0  0  0  0  0  0
  1  2  1  0
  2  3  2  0
  2  4  1  0
  4  5  1  0
  5  6  1  0
  6  7  1  0
  7  8  1  0
  8  9  2  0
  8 10  1  0
 10 11  1  0
 12 11  1  1
 12 13  1  0
 13 14  2  0
 14 15  1  0
 15 16  2  0
 16 17  1  0
 17 18  1  0
 17 19  1  0
 17 20  1  0
 16 21  1  0
 13 22  1  0
 21 22  2  0
 12 23  1  0
 23 24  1  0
 24 25  1  0
 25 26  1  0
 26 27  1  0
 23 28  1  0
 27 28  1  0
  7 29  1  0
  4 30  1  0
 29 30  1  0
M  END
