piperidine-amides-10649-covalent
     RDKit          3D

 23 25  0  0  0  0  0  0  0  0999 V2000
    7.1080   -3.3410   19.2770 C   0  0  0  0  0  0  0  0  0  0  0  0
    6.3800   -4.1030   20.2850 C   0  0  0  0  0  0  0  0  0  0  0  0
    5.3050   -4.6440   19.9220 O   0  0  0  0  0  0  0  0  0  0  0  0
    6.9300   -4.2410   21.5550 N   0  0  0  0  0  0  0  0  0  0  0  0
    7.7110   -3.1910   22.1590 C   0  0  0  0  0  0  0  0  0  0  0  0
    6.9330   -2.6830   23.3270 C   0  0  0  0  0  0  0  0  0  0  0  0
    6.6260   -3.7980   24.2760 C   0  0  0  0  0  0  0  0  0  0  0  0
    5.8530   -3.2410   25.4060 C   0  0  0  0  0  0  0  0  0  0  0  0
    4.6630   -2.9140   25.2090 O   0  0  0  0  0  0  0  0  0  0  0  0
    6.3950   -3.0660   26.6870 N   0  0  0  0  0  0  0  0  0  0  0  0
    6.4420   -1.7810   27.3470 C   0  0  0  0  0  0  0  0  0  0  0  0
    5.8360   -0.5630   26.6390 C   0  0  0  0  0  0  0  0  0  0  0  0
    5.8310    0.7090   27.2090 C   0  0  0  0  0  0  0  0  0  0  0  0
    6.3850    0.9250   28.4620 C   0  0  0  0  0  0  0  0  0  0  0  0
    6.4570    2.1240   29.1620 C   0  0  0  0  0  0  0  0  0  0  0  0
    5.8960    3.2990   28.8480 C   0  0  0  0  0  0  0  0  0  0  0  0
    6.3030    4.4790   30.0710 S   0  0  0  0  0  0  0  0  0  0  0  0
    7.2650    3.3700   31.0460 N   0  0  0  0  0  0  0  0  0  0  0  0
    7.2140    2.1660   30.3780 N   0  0  0  0  0  0  0  0  0  0  0  0
    6.9920   -0.2570   29.1800 C   0  0  0  0  0  0  0  0  0  0  0  0
    7.0140   -1.6250   28.6010 C   0  0  0  0  0  0  0  0  0  0  0  0
    5.8380   -4.8970   23.6310 C   0  0  0  0  0  0  0  0  0  0  0  0
    6.4610   -5.3760   22.3400 C   0  0  0  0  0  0  0  0  0  0  0  0
  1  2  1  0
  2  3  2  0
  2  4  1  0
  4  5  1  0
  5  6  1  0
  6  7  1  0
  7  8  1  0
  8  9  2  0
  8 10  1  0
 10 11  1  0
 11 12  2  0
 12 13  1  0
 13 14  2  0
 14 15  1  0
 15 16  2  0
 16 17  1  0
 17 18  1  0
 15 19  1  0
 18 19  2  0
 14 20  1  0
 11 21  1  0
 20 21  2  0
  7 22  1  0
  4 23  1  0
 22 23  1  0
M  END
