piperidine-amides-27782-covalent
     RDKit          3D

 26 28  0  0  0  0  0  0  0  0999 V2000
    7.0650   -3.3640   19.3150 C   0  0  0  0  0  0  0  0  0  0  0  0
    6.4150   -4.2160   20.3320 C   0  0  0  0  0  0  0  0  0  0  0  0
    5.3760   -4.8060   19.9740 O   0  0  0  0  0  0  0  0  0  0  0  0
    6.9890   -4.3850   21.6060 N   0  0  0  0  0  0  0  0  0  0  0  0
    6.6110   -5.4720   22.4360 C   0  0  0  0  0  0  0  0  0  0  0  0
    6.0720   -5.0840   23.7520 C   0  0  0  0  0  0  0  0  0  0  0  0
    6.4180   -3.7350   24.2840 C   0  0  0  0  0  0  0  0  0  0  0  0
    5.3020   -3.2830   25.1560 C   0  0  0  0  0  0  0  0  0  0  0  0
    4.3190   -2.7750   24.6040 O   0  0  0  0  0  0  0  0  0  0  0  0
    5.3040   -3.4090   26.5560 N   0  0  0  0  0  0  0  0  0  0  0  0
    4.2150   -3.9930   27.3160 C   0  0  0  0  0  0  0  0  0  0  0  0
    4.7740   -4.7550   28.4540 C   0  0  0  0  0  0  0  0  0  0  0  0
    5.7710   -4.1260   29.2850 C   0  0  0  0  0  0  0  0  0  0  0  0
    5.5700   -2.8400   29.7470 C   0  0  0  0  0  0  0  0  0  0  0  0
    6.5580   -1.9160   29.5870 C   0  0  0  0  0  0  0  0  0  0  0  0
    6.3400   -0.7030   30.0480 C   0  0  0  0  0  0  0  0  0  0  0  0
    5.1800   -0.3930   30.6560 C   0  0  0  0  0  0  0  0  0  0  0  0
    5.1470    0.8750   31.0590 N   0  0  0  0  0  0  0  0  0  0  0  0
    4.6520    1.8750   30.0580 C   0  0  0  0  0  0  0  0  0  0  0  0
    5.6730    1.1400   32.3500 C   0  0  0  0  0  0  0  0  0  0  0  0
    3.9360   -1.2490   30.9450 C   0  0  0  0  0  0  0  0  0  0  0  0
    4.3450   -2.6160   30.3540 C   0  0  0  0  0  0  0  0  0  0  0  0
    6.6440   -4.1760   28.2450 C   0  0  0  0  0  0  0  0  0  0  0  0
    6.4510   -3.1160   27.3030 C   0  0  0  0  0  0  0  0  0  0  0  0
    6.9020   -2.7620   23.3010 C   0  0  0  0  0  0  0  0  0  0  0  0
    7.7740   -3.3540   22.2580 C   0  0  0  0  0  0  0  0  0  0  0  0
  1  2  1  0
  2  3  2  0
  2  4  1  0
  4  5  1  0
  5  6  1  0
  6  7  1  0
  7  8  1  0
  8  9  2  0
  8 10  1  0
 10 11  1  0
 11 12  1  0
 12 13  1  0
 13 14  1  0
 14 15  2  0
 15 16  1  0
 16 17  2  0
 17 18  1  0
 18 19  1  0
 18 20  1  0
 17 21  1  0
 14 22  1  0
 21 22  2  0
 13 23  1  0
 10 24  1  0
 23 24  1  0
  7 25  1  0
  4 26  1  0
 25 26  1  0
M  END
