piperidine-amides-21624-covalent
     RDKit          3D

 23 24  0  0  0  0  0  0  0  0999 V2000
    7.0990   -3.3360   19.2950 C   0  0  0  0  0  0  0  0  0  0  0  0
    6.4360   -4.1570   20.3100 C   0  0  0  0  0  0  0  0  0  0  0  0
    5.3800   -4.7500   19.9580 O   0  0  0  0  0  0  0  0  0  0  0  0
    7.0080   -4.2960   21.5710 N   0  0  0  0  0  0  0  0  0  0  0  0
    7.8330   -3.2730   22.1670 C   0  0  0  0  0  0  0  0  0  0  0  0
    7.0690   -2.7080   23.3130 C   0  0  0  0  0  0  0  0  0  0  0  0
    6.5490   -3.7960   24.2030 C   0  0  0  0  0  0  0  0  0  0  0  0
    5.8000   -3.1750   25.3120 C   0  0  0  0  0  0  0  0  0  0  0  0
    4.7290   -2.5920   25.0330 O   0  0  0  0  0  0  0  0  0  0  0  0
    6.1990   -3.2090   26.6510 N   0  0  0  0  0  0  0  0  0  0  0  0
    5.8200   -4.4330   27.3180 C   0  0  0  0  0  0  0  0  0  0  0  0
    6.5240   -4.7390   28.6230 C   0  0  0  0  0  0  0  0  0  0  0  0
    5.4640   -5.0090   29.6020 N   0  0  0  0  0  0  0  0  0  0  0  0
    5.3440   -6.2220   30.1090 C   0  0  0  0  0  0  0  0  0  0  0  0
    4.4990   -4.0870   29.7800 C   0  0  0  0  0  0  0  0  0  0  0  0
    6.2700   -1.9010   27.2900 C   0  0  0  0  0  0  0  0  0  0  0  0
    6.9580   -1.7870   28.4730 C   0  0  0  0  0  0  0  0  0  0  0  0
    7.1080   -0.6280   29.1920 C   0  0  0  0  0  0  0  0  0  0  0  0
    6.5260    0.6980   28.7680 C   0  0  0  0  0  0  0  0  0  0  0  0
    5.7770    0.5030   27.4470 C   0  0  0  0  0  0  0  0  0  0  0  0
    5.6540   -0.7330   26.7430 N   0  0  0  0  0  0  0  0  0  0  0  0
    5.6800   -4.8190   23.4470 C   0  0  0  0  0  0  0  0  0  0  0  0
    6.6230   -5.4140   22.4180 C   0  0  0  0  0  0  0  0  0  0  0  0
  1  2  1  0
  2  3  2  0
  2  4  1  0
  4  5  1  0
  5  6  1  0
  6  7  1  0
  7  8  1  0
  8  9  2  0
  8 10  1  0
 10 11  1  0
 11 12  1  0
 12 13  1  0
 13 14  1  0
 13 15  1  0
 10 16  1  0
 16 17  2  0
 17 18  1  0
 18 19  2  0
 19 20  1  0
 16 21  1  0
 20 21  2  0
  7 22  1  0
  4 23  1  0
 22 23  1  0
M  END
