piperidine-amides-10586-covalent
     RDKit          3D

 23 24  0  0  0  0  0  0  0  0999 V2000
    7.0930   -3.2860   19.2880 C   0  0  0  0  0  0  0  0  0  0  0  0
    6.3740   -4.0660   20.2980 C   0  0  0  0  0  0  0  0  0  0  0  0
    5.3110   -4.6270   19.9190 O   0  0  0  0  0  0  0  0  0  0  0  0
    6.8920   -4.2010   21.5910 N   0  0  0  0  0  0  0  0  0  0  0  0
    7.6970   -3.1840   22.2220 C   0  0  0  0  0  0  0  0  0  0  0  0
    6.9780   -2.6930   23.4460 C   0  0  0  0  0  0  0  0  0  0  0  0
    6.4650   -3.8110   24.3200 C   0  0  0  0  0  0  0  0  0  0  0  0
    5.6450   -3.2430   25.4310 C   0  0  0  0  0  0  0  0  0  0  0  0
    4.4390   -3.0280   25.1910 O   0  0  0  0  0  0  0  0  0  0  0  0
    6.1290   -2.9300   26.7270 N   0  0  0  0  0  0  0  0  0  0  0  0
    6.1670   -3.9270   27.7750 C   0  0  0  0  0  0  0  0  0  0  0  0
    4.9760   -3.9620   28.7160 C   0  0  0  0  0  0  0  0  0  0  0  0
    4.1950   -2.8760   29.0550 C   0  0  0  0  0  0  0  0  0  0  0  0
    3.1190   -2.9620   29.9150 C   0  0  0  0  0  0  0  0  0  0  0  0
    2.7930   -4.1830   30.4740 C   0  0  0  0  0  0  0  0  0  0  0  0
    1.7340   -4.2790   31.3220 F   0  0  0  0  0  0  0  0  0  0  0  0
    3.5760   -5.2710   30.1370 C   0  0  0  0  0  0  0  0  0  0  0  0
    4.6540   -5.1800   29.2760 C   0  0  0  0  0  0  0  0  0  0  0  0
    5.4850   -6.4090   28.9420 C   0  0  0  0  0  0  0  0  0  0  0  0
    5.8520   -7.4520   30.3030 S   0  0  0  0  0  0  0  0  0  0  0  0
    4.9850   -6.8540   31.7530 C   0  0  0  0  0  0  0  0  0  0  0  0
    5.6540   -4.8470   23.5100 C   0  0  0  0  0  0  0  0  0  0  0  0
    6.5520   -5.3620   22.3980 C   0  0  0  0  0  0  0  0  0  0  0  0
  1  2  1  0
  2  3  2  0
  2  4  1  0
  4  5  1  0
  5  6  1  0
  6  7  1  0
  7  8  1  0
  8  9  2  0
  8 10  1  0
 10 11  1  0
 11 12  1  0
 12 13  2  0
 13 14  1  0
 14 15  2  0
 15 16  1  0
 15 17  1  0
 12 18  1  0
 17 18  2  0
 18 19  1  0
 19 20  1  0
 20 21  1  0
  7 22  1  0
  4 23  1  0
 22 23  1  0
M  END
