piperidine-amides-25895-covalent
     RDKit          3D

 25 28  0  0  0  0  0  0  0  0999 V2000
    7.0610   -3.3630   19.3730 C   0  0  0  0  0  0  0  0  0  0  0  0
    6.3710   -4.2180   20.3700 C   0  0  0  0  0  0  0  0  0  0  0  0
    5.3780   -4.8340   19.9800 O   0  0  0  0  0  0  0  0  0  0  0  0
    6.8750   -4.3320   21.6730 N   0  0  0  0  0  0  0  0  0  0  0  0
    6.6180   -5.4680   22.5100 C   0  0  0  0  0  0  0  0  0  0  0  0
    5.7830   -5.0360   23.6920 C   0  0  0  0  0  0  0  0  0  0  0  0
    6.3450   -3.7570   24.3410 C   0  0  0  0  0  0  0  0  0  0  0  0
    5.2620   -3.1860   25.1930 C   0  0  0  0  0  0  0  0  0  0  0  0
    4.2990   -2.6740   24.6260 O   0  0  0  0  0  0  0  0  0  0  0  0
    5.2700   -3.2040   26.6150 N   0  0  0  0  0  0  0  0  0  0  0  0
    6.4950   -3.2860   27.2750 C   0  0  0  0  0  0  0  0  0  0  0  0
    6.4520   -4.5490   28.1470 C   0  0  0  0  0  0  0  0  0  0  0  0
    5.2000   -4.4050   28.8870 N   0  0  0  0  0  0  0  0  0  0  0  0
    4.3910   -3.2900   28.4720 C   0  0  0  0  0  0  0  0  0  0  0  0
    3.4200   -3.6410   29.4600 N   0  0  0  0  0  0  0  0  0  0  0  0
    3.5550   -4.7130   30.2950 N   0  0  0  0  0  0  0  0  0  0  0  0
    4.7730   -5.2120   29.8760 C   0  0  0  0  0  0  0  0  0  0  0  0
    5.3100   -6.3100   30.4280 C   0  0  2  0  0  0  0  0  0  0  0  0
    4.4840   -7.4810   30.6570 C   0  0  0  0  0  0  0  0  0  0  0  0
    4.8450   -6.7430   31.8340 C   0  0  0  0  0  0  0  0  0  0  0  0
    5.6570   -7.8050   32.5120 C   0  0  0  0  0  0  0  0  0  0  0  0
    3.5680   -6.5280   32.6030 C   0  0  0  0  0  0  0  0  0  0  0  0
    4.5310   -2.3210   27.5110 C   0  0  0  0  0  0  0  0  0  0  0  0
    6.9460   -2.7520   23.4300 C   0  0  0  0  0  0  0  0  0  0  0  0
    7.6870   -3.2860   22.2590 C   0  0  0  0  0  0  0  0  0  0  0  0
  1  2  1  0
  2  3  2  0
  2  4  1  0
  4  5  1  0
  5  6  1  0
  6  7  1  0
  7  8  1  0
  8  9  2  0
  8 10  1  0
 10 11  1  0
 11 12  1  0
 12 13  1  0
 13 14  1  0
 14 15  2  0
 15 16  1  0
 13 17  1  0
 16 17  2  0
 18 17  1  6
 18 19  1  0
 18 20  1  0
 19 20  1  0
 20 21  1  0
 20 22  1  0
 10 23  1  0
 14 23  1  0
  7 24  1  0
  4 25  1  0
 24 25  1  0
M  END
