piperidine-amides-34064-covalent
     RDKit          3D

 31 34  0  0  0  0  0  0  0  0999 V2000
    7.1440   -3.2490   19.2140 C   0  0  0  0  0  0  0  0  0  0  0  0
    6.3850   -4.0230   20.2120 C   0  0  0  0  0  0  0  0  0  0  0  0
    5.3180   -4.5910   19.9000 O   0  0  0  0  0  0  0  0  0  0  0  0
    6.8780   -4.1740   21.5080 N   0  0  0  0  0  0  0  0  0  0  0  0
    7.7540   -3.1650   22.0630 C   0  0  0  0  0  0  0  0  0  0  0  0
    7.0970   -2.6840   23.3450 C   0  0  0  0  0  0  0  0  0  0  0  0
    6.7540   -3.9270   24.1390 C   0  0  0  0  0  0  0  0  0  0  0  0
    6.0230   -3.4840   25.3270 C   0  0  0  0  0  0  0  0  0  0  0  0
    4.7760   -3.3910   25.2700 O   0  0  0  0  0  0  0  0  0  0  0  0
    6.7680   -3.1610   26.4790 N   0  0  0  0  0  0  0  0  0  0  0  0
    7.4900   -1.9270   26.4870 C   0  0  0  0  0  0  0  0  0  0  0  0
    6.4170   -3.7680   27.7440 C   0  0  0  0  0  0  0  0  0  0  0  0
    6.3300   -2.7190   28.6220 C   0  0  0  0  0  0  0  0  0  0  0  0
    6.9940   -1.7830   29.2680 C   0  0  0  0  0  0  0  0  0  0  0  0
    8.3610   -1.5910   29.1800 C   0  0  0  0  0  0  0  0  0  0  0  0
    5.9590   -1.1120   30.0040 N   0  0  0  0  0  0  0  0  0  0  0  0
    4.7740   -1.7380   29.7090 N   0  0  0  0  0  0  0  0  0  0  0  0
    3.4200   -1.4720   30.1730 C   0  0  0  0  0  0  0  0  0  0  0  0
    3.0370   -0.0260   29.9360 C   0  0  0  0  0  0  0  0  0  0  0  0
    1.6020    0.0450   30.4910 C   0  0  0  0  0  0  0  0  0  0  0  0
    0.5740   -0.8690   31.1480 C   0  0  0  0  0  0  0  0  0  0  0  0
    1.3420   -2.1020   31.1730 C   0  0  0  0  0  0  0  0  0  0  0  0
    2.6070   -2.4410   30.7580 C   0  0  0  0  0  0  0  0  0  0  0  0
    5.0010   -2.8100   28.7930 C   0  0  0  0  0  0  0  0  0  0  0  0
    4.0140   -3.6050   28.3270 N   0  0  0  0  0  0  0  0  0  0  0  0
    3.6340   -4.8930   28.8370 C   0  0  0  0  0  0  0  0  0  0  0  0
    2.6150   -5.3530   28.1090 N   0  0  0  0  0  0  0  0  0  0  0  0
    2.3310   -4.4360   27.1770 C   0  0  0  0  0  0  0  0  0  0  0  0
    3.1720   -3.4040   27.3200 N   0  0  0  0  0  0  0  0  0  0  0  0
    5.9130   -4.9620   23.4500 C   0  0  0  0  0  0  0  0  0  0  0  0
    6.4690   -5.3390   22.2530 C   0  0  0  0  0  0  0  0  0  0  0  0
  1  2  1  0
  2  3  2  0
  2  4  1  0
  4  5  1  0
  5  6  1  0
  6  7  1  0
  7  8  1  0
  8  9  2  0
  8 10  1  0
 10 11  1  0
 10 12  1  0
 12 13  1  0
 13 14  1  0
 14 15  1  0
 14 16  2  0
 16 17  1  0
 17 18  1  0
 18 19  2  0
 19 20  1  0
 20 21  2  0
 21 22  1  0
 18 23  1  0
 22 23  2  0
 13 24  2  0
 17 24  1  0
 24 25  1  0
 25 26  1  0
 26 27  2  0
 27 28  1  0
 25 29  1  0
 28 29  2  0
  7 30  1  0
  4 31  1  0
 30 31  1  0
M  END
