piperidine-amides-31269-covalent
     RDKit          3D

 27 29  0  0  0  0  0  0  0  0999 V2000
    7.1610   -3.2470   19.3210 C   0  0  0  0  0  0  0  0  0  0  0  0
    6.3850   -3.9860   20.2940 C   0  0  0  0  0  0  0  0  0  0  0  0
    5.3340   -4.5840   19.9010 O   0  0  0  0  0  0  0  0  0  0  0  0
    6.7750   -4.0970   21.6470 N   0  0  0  0  0  0  0  0  0  0  0  0
    6.7070   -5.4660   22.2180 C   0  0  0  0  0  0  0  0  0  0  0  0
    6.2150   -5.1970   23.6940 C   0  0  0  0  0  0  0  0  0  0  0  0
    6.1320   -3.7030   23.8620 C   0  0  0  0  0  0  0  0  0  0  0  0
    5.3150   -3.2590   25.1610 C   0  0  0  0  0  0  0  0  0  0  0  0
    4.1310   -3.4660   24.9750 O   0  0  0  0  0  0  0  0  0  0  0  0
    6.0710   -2.7910   26.0730 N   0  0  0  0  0  0  0  0  0  0  0  0
    6.8500   -1.8710   26.6990 C   0  0  0  0  0  0  0  0  0  0  0  0
    5.8990   -3.6980   27.1490 C   0  0  0  0  0  0  0  0  0  0  0  0
    4.9250   -4.7300   26.9770 C   0  0  0  0  0  0  0  0  0  0  0  0
    5.0250   -5.8910   26.0730 C   0  0  0  0  0  0  0  0  0  0  0  0
    3.8410   -6.8770   26.0470 C   0  0  0  0  0  0  0  0  0  0  0  0
    2.7350   -6.6350   26.8780 C   0  0  0  0  0  0  0  0  0  0  0  0
    2.3870   -5.6330   27.8200 C   0  0  0  0  0  0  0  0  0  0  0  0
    3.6300   -4.7360   27.7410 C   0  0  0  0  0  0  0  0  0  0  0  0
    3.4380   -3.7950   28.5460 O   0  0  0  0  0  0  0  0  0  0  0  0
    2.1930   -3.2110   28.3230 C   0  0  0  0  0  0  0  0  0  0  0  0
    2.2720   -1.8230   28.4830 F   0  0  0  0  0  0  0  0  0  0  0  0
    1.2970   -3.5990   29.2590 F   0  0  0  0  0  0  0  0  0  0  0  0
    1.8100   -7.6700   26.6560 O   0  0  0  0  0  0  0  0  0  0  0  0
    2.3670   -8.4000   25.5620 C   0  0  0  0  0  0  0  0  0  0  0  0
    3.6830   -8.0350   25.2860 O   0  0  0  0  0  0  0  0  0  0  0  0
    7.3990   -2.9510   23.5430 C   0  0  0  0  0  0  0  0  0  0  0  0
    7.6740   -3.1150   22.2270 C   0  0  0  0  0  0  0  0  0  0  0  0
  1  2  1  0
  2  3  2  0
  2  4  1  0
  4  5  1  0
  5  6  1  0
  6  7  1  0
  7  8  1  0
  8  9  2  0
  8 10  1  0
 10 11  1  0
 10 12  1  0
 12 13  1  0
 13 14  2  0
 14 15  1  0
 15 16  2  0
 16 17  1  0
 13 18  1  0
 17 18  2  0
 18 19  1  0
 19 20  1  0
 20 21  1  0
 20 22  1  0
 16 23  1  0
 23 24  1  0
 15 25  1  0
 24 25  1  0
  7 26  1  0
  4 27  1  0
 26 27  1  0
M  END
