piperidine-amides-30727-covalent
     RDKit          3D

 27 28  0  0  0  0  0  0  0  0999 V2000
    7.1130   -3.2550   19.1660 C   0  0  0  0  0  0  0  0  0  0  0  0
    6.3280   -3.9760   20.1750 C   0  0  0  0  0  0  0  0  0  0  0  0
    5.2470   -4.4930   19.8520 O   0  0  0  0  0  0  0  0  0  0  0  0
    6.7910   -4.1560   21.4860 N   0  0  0  0  0  0  0  0  0  0  0  0
    6.5160   -5.3750   22.2140 C   0  0  0  0  0  0  0  0  0  0  0  0
    5.7930   -4.9390   23.4590 C   0  0  0  0  0  0  0  0  0  0  0  0
    6.5780   -3.8900   24.1790 C   0  0  0  0  0  0  0  0  0  0  0  0
    5.8350   -3.3370   25.3380 C   0  0  0  0  0  0  0  0  0  0  0  0
    4.5750   -3.2340   25.2940 O   0  0  0  0  0  0  0  0  0  0  0  0
    6.4640   -2.8980   26.5270 N   0  0  0  0  0  0  0  0  0  0  0  0
    6.8270   -1.4750   26.6550 C   0  0  0  0  0  0  0  0  0  0  0  0
    6.2210   -3.6220   27.7910 C   0  0  0  0  0  0  0  0  0  0  0  0
    5.0390   -3.0850   28.4970 C   0  0  0  0  0  0  0  0  0  0  0  0
    5.2190   -1.7020   29.1990 C   0  0  0  0  0  0  0  0  0  0  0  0
    4.1330   -1.0170   29.9400 N   0  0  0  0  0  0  0  0  0  0  0  0
    4.6770   -0.7110   31.2620 C   0  0  0  0  0  0  0  0  0  0  0  0
    4.3690   -1.7120   32.2120 O   0  0  0  0  0  0  0  0  0  0  0  0
    5.3600    0.3410   31.5420 O   0  0  0  0  0  0  0  0  0  0  0  0
    6.0100    0.4350   32.7810 C   0  0  0  0  0  0  0  0  0  0  0  0
    6.6700    1.4110   33.4850 C   0  0  0  0  0  0  0  0  0  0  0  0
    7.4810    0.1480   33.0390 C   0  0  0  0  0  0  0  0  0  0  0  0
    5.2230    0.0510   34.0330 C   0  0  0  0  0  0  0  0  0  0  0  0
    2.9540   -1.8500   29.9350 C   0  0  0  0  0  0  0  0  0  0  0  0
    3.1100   -3.0810   29.1750 C   0  0  0  0  0  0  0  0  0  0  0  0
    3.8050   -3.7480   28.5550 C   0  0  0  0  0  0  0  0  0  0  0  0
    7.0670   -2.7720   23.3560 C   0  0  0  0  0  0  0  0  0  0  0  0
    7.5750   -3.1560   22.1420 C   0  0  0  0  0  0  0  0  0  0  0  0
  1  2  1  0
  2  3  2  0
  2  4  1  0
  4  5  1  0
  5  6  1  0
  6  7  1  0
  7  8  1  0
  8  9  2  0
  8 10  1  0
 10 11  1  0
 10 12  1  0
 12 13  1  0
 13 14  2  0
 14 15  1  0
 15 16  1  0
 16 17  2  0
 16 18  1  0
 19 18  1  0
 19 20  1  0
 19 21  1  0
 19 22  1  0
 15 23  1  0
 23 24  1  0
 13 25  1  0
 24 25  1  0
  7 26  1  0
  4 27  1  0
 26 27  1  0
M  END
