piperidine-amides-1611-covalent
     RDKit          3D

 21 22  0  0  0  0  0  0  0  0999 V2000
    7.0500   -3.2820   19.2920 C   0  0  0  0  0  0  0  0  0  0  0  0
    6.3130   -4.1000   20.3000 C   0  0  0  0  0  0  0  0  0  0  0  0
    5.3020   -4.7190   19.9360 O   0  0  0  0  0  0  0  0  0  0  0  0
    6.7830   -4.2010   21.6330 N   0  0  0  0  0  0  0  0  0  0  0  0
    6.6780   -5.4420   22.3700 C   0  0  0  0  0  0  0  0  0  0  0  0
    6.1200   -5.1450   23.7710 C   0  0  0  0  0  0  0  0  0  0  0  0
    6.0960   -3.6690   23.9600 C   0  0  0  0  0  0  0  0  0  0  0  0
    5.5970   -3.2350   25.2940 C   0  0  0  0  0  0  0  0  0  0  0  0
    4.4320   -2.8310   25.3190 O   0  0  0  0  0  0  0  0  0  0  0  0
    6.3950   -3.2930   26.4450 N   0  0  0  0  0  0  0  0  0  0  0  0
    6.0790   -3.9110   27.6970 C   0  0  0  0  0  0  0  0  0  0  0  0
    6.0250   -5.2780   27.9050 C   0  0  2  0  0  0  0  0  0  0  0  0
    5.7910   -6.0990   26.8180 C   0  0  0  0  0  0  0  0  0  0  0  0
    5.1230   -5.7200   29.0250 C   0  0  0  0  0  0  0  0  0  0  0  0
    5.6260   -6.7930   29.9210 C   0  0  0  0  0  0  0  0  0  0  0  0
    4.7410   -7.2760   31.0690 C   0  0  0  0  0  0  0  0  0  0  0  0
    3.4180   -6.5170   31.0810 C   0  0  0  0  0  0  0  0  0  0  0  0
    3.1260   -5.5390   30.1510 C   0  0  0  0  0  0  0  0  0  0  0  0
    3.9140   -5.1180   29.1400 N   0  0  0  0  0  0  0  0  0  0  0  0
    7.3890   -3.0060   23.6400 C   0  0  0  0  0  0  0  0  0  0  0  0
    7.6610   -3.1620   22.1560 C   0  0  0  0  0  0  0  0  0  0  0  0
  1  2  1  0
  2  3  2  0
  2  4  1  0
  4  5  1  0
  5  6  1  0
  6  7  1  0
  7  8  1  0
  8  9  2  0
  8 10  1  0
 10 11  1  0
 11 12  1  0
 12 13  1  6
 12 14  1  0
 14 15  2  0
 15 16  1  0
 16 17  2  0
 17 18  1  0
 14 19  1  0
 18 19  2  0
  7 20  1  0
  4 21  1  0
 20 21  1  0
M  END
