piperidine-amides-29096-covalent
     RDKit          3D

 27 29  0  0  0  0  0  0  0  0999 V2000
    7.1530   -3.3190   19.3040 C   0  0  0  0  0  0  0  0  0  0  0  0
    6.4130   -4.0970   20.2860 C   0  0  0  0  0  0  0  0  0  0  0  0
    5.3330   -4.6020   19.9230 O   0  0  0  0  0  0  0  0  0  0  0  0
    6.9590   -4.3160   21.5810 N   0  0  0  0  0  0  0  0  0  0  0  0
    6.4840   -5.4200   22.3380 C   0  0  0  0  0  0  0  0  0  0  0  0
    5.6600   -4.8800   23.4690 C   0  0  0  0  0  0  0  0  0  0  0  0
    6.4790   -3.8350   24.2200 C   0  0  0  0  0  0  0  0  0  0  0  0
    5.6820   -3.3830   25.4080 C   0  0  0  0  0  0  0  0  0  0  0  0
    4.4690   -3.3030   25.2330 O   0  0  0  0  0  0  0  0  0  0  0  0
    6.3220   -3.0680   26.6050 N   0  0  0  0  0  0  0  0  0  0  0  0
    6.1460   -3.8890   27.7700 C   0  0  0  0  0  0  0  0  0  0  0  0
    6.0040   -5.2730   27.5450 C   0  0  0  0  0  0  0  0  0  0  0  0
    4.8640   -5.9080   27.9650 C   0  0  0  0  0  0  0  0  0  0  0  0
    4.3170   -5.6280   29.2210 C   0  0  0  0  0  0  0  0  0  0  0  0
    3.0780   -6.3440   29.6540 C   0  0  0  0  0  0  0  0  0  0  0  0
    2.4400   -7.3640   28.7080 C   0  0  0  0  0  0  0  0  0  0  0  0
    3.1600   -7.5140   27.4380 C   0  0  0  0  0  0  0  0  0  0  0  0
    4.3420   -6.8460   27.0010 N   0  0  0  0  0  0  0  0  0  0  0  0
    6.5430   -1.6520   26.8270 C   0  0  0  0  0  0  0  0  0  0  0  0
    6.2580   -1.2550   28.2950 C   0  0  0  0  0  0  0  0  0  0  0  0
    7.2490   -1.0450   29.2510 C   0  0  0  0  0  0  0  0  0  0  0  0
    7.1880   -0.6830   30.5930 C   0  0  0  0  0  0  0  0  0  0  0  0
    5.9400   -0.4870   31.1180 N   0  0  0  0  0  0  0  0  0  0  0  0
    4.8780   -0.6520   30.3310 C   0  0  0  0  0  0  0  0  0  0  0  0
    4.9060   -1.0370   28.8940 C   0  0  0  0  0  0  0  0  0  0  0  0
    6.7590   -2.6520   23.3000 C   0  0  0  0  0  0  0  0  0  0  0  0
    7.6750   -3.2370   22.2260 C   0  0  0  0  0  0  0  0  0  0  0  0
  1  2  1  0
  2  3  2  0
  2  4  1  0
  4  5  1  0
  5  6  1  0
  6  7  1  0
  7  8  1  0
  8  9  2  0
  8 10  1  0
 10 11  1  0
 11 12  1  0
 12 13  1  0
 13 14  2  0
 14 15  1  0
 15 16  2  0
 16 17  1  0
 13 18  1  0
 17 18  2  0
 10 19  1  0
 19 20  1  0
 20 21  2  0
 21 22  1  0
 22 23  2  0
 23 24  1  0
 20 25  1  0
 24 25  2  0
  7 26  1  0
  4 27  1  0
 26 27  1  0
M  END
