piperidine-amides-29311-covalent
     RDKit          3D

 26 28  0  0  0  0  0  0  0  0999 V2000
    7.1030   -3.3560   19.3090 C   0  0  0  0  0  0  0  0  0  0  0  0
    6.4030   -4.1630   20.2940 C   0  0  0  0  0  0  0  0  0  0  0  0
    5.3510   -4.7330   19.9520 O   0  0  0  0  0  0  0  0  0  0  0  0
    6.9630   -4.3260   21.5800 N   0  0  0  0  0  0  0  0  0  0  0  0
    6.4790   -5.3980   22.3900 C   0  0  0  0  0  0  0  0  0  0  0  0
    5.6090   -4.8200   23.4650 C   0  0  0  0  0  0  0  0  0  0  0  0
    6.4650   -3.8220   24.2220 C   0  0  0  0  0  0  0  0  0  0  0  0
    5.7020   -3.2330   25.3640 C   0  0  0  0  0  0  0  0  0  0  0  0
    4.5510   -2.8880   25.1130 O   0  0  0  0  0  0  0  0  0  0  0  0
    6.3210   -3.1130   26.6060 N   0  0  0  0  0  0  0  0  0  0  0  0
    6.2590   -4.1950   27.5420 C   0  0  0  0  0  0  0  0  0  0  0  0
    5.1600   -4.2220   28.4180 C   0  0  0  0  0  0  0  0  0  0  0  0
    4.0050   -3.9230   28.0940 C   0  0  0  0  0  0  0  0  0  0  0  0
    4.4880   -2.9340   28.9760 C   0  0  0  0  0  0  0  0  0  0  0  0
    6.3370   -1.6840   27.1940 C   0  0  0  0  0  0  0  0  0  0  0  0
    7.0540   -1.6990   28.5560 C   0  0  0  0  0  0  0  0  0  0  0  0
    7.1620   -0.4180   29.3040 C   0  0  0  0  0  0  0  0  0  0  0  0
    6.5380    0.7810   28.6180 C   0  0  0  0  0  0  0  0  0  0  0  0
    5.8470    0.6560   27.2360 C   0  0  0  0  0  0  0  0  0  0  0  0
    5.2630    1.7210   26.5710 C   0  0  0  0  0  0  0  0  0  0  0  0
    5.0680    2.7550   27.4930 F   0  0  0  0  0  0  0  0  0  0  0  0
    3.9990    1.4040   26.1350 F   0  0  0  0  0  0  0  0  0  0  0  0
    5.9860    2.1360   25.5090 F   0  0  0  0  0  0  0  0  0  0  0  0
    5.7950   -0.5650   26.6220 C   0  0  0  0  0  0  0  0  0  0  0  0
    6.9700   -2.7110   23.3770 C   0  0  0  0  0  0  0  0  0  0  0  0
    7.7050   -3.2590   22.2020 C   0  0  0  0  0  0  0  0  0  0  0  0
  1  2  1  0
  2  3  2  0
  2  4  1  0
  4  5  1  0
  5  6  1  0
  6  7  1  0
  7  8  1  0
  8  9  2  0
  8 10  1  0
 10 11  1  0
 11 12  1  0
 12 13  1  0
 12 14  1  0
 13 14  1  0
 10 15  1  0
 15 16  2  0
 16 17  1  0
 17 18  2  0
 18 19  1  0
 19 20  1  0
 20 21  1  0
 20 22  1  0
 20 23  1  0
 15 24  1  0
 19 24  2  0
  7 25  1  0
  4 26  1  0
 25 26  1  0
M  END
