piperidine-amides-24379-covalent
     RDKit          3D

 23 24  0  0  0  0  0  0  0  0999 V2000
    7.0290   -3.3270   19.3060 C   0  0  0  0  0  0  0  0  0  0  0  0
    6.3420   -4.1600   20.3100 C   0  0  0  0  0  0  0  0  0  0  0  0
    5.3670   -4.8640   19.9780 O   0  0  0  0  0  0  0  0  0  0  0  0
    6.7920   -4.2050   21.6360 N   0  0  0  0  0  0  0  0  0  0  0  0
    7.6770   -3.1710   22.1160 C   0  0  0  0  0  0  0  0  0  0  0  0
    7.4560   -3.1240   23.6150 C   0  0  0  0  0  0  0  0  0  0  0  0
    6.0380   -3.5410   23.8110 C   0  0  0  0  0  0  0  0  0  0  0  0
    5.5540   -3.1380   25.1480 C   0  0  0  0  0  0  0  0  0  0  0  0
    4.3190   -3.1360   25.3400 O   0  0  0  0  0  0  0  0  0  0  0  0
    6.4540   -2.7650   26.1780 N   0  0  0  0  0  0  0  0  0  0  0  0
    6.4020   -3.5620   27.3590 C   0  0  0  0  0  0  0  0  0  0  0  0
    6.4000   -4.9840   26.9080 C   0  0  0  0  0  0  0  0  0  0  0  0
    6.7690   -5.9050   27.8030 C   0  0  0  0  0  0  0  0  0  0  0  0
    8.4780   -6.0230   28.0610 S   0  0  0  0  0  0  0  0  0  0  0  0
    9.3550   -6.3620   26.5800 C   0  0  0  0  0  0  0  0  0  0  0  0
    6.5510   -1.6400   27.0940 C   0  0  0  0  0  0  0  0  0  0  0  0
    5.8610   -0.4450   26.6880 C   0  0  0  0  0  0  0  0  0  0  0  0
    5.6130    1.0340   27.2540 C   0  0  0  0  0  0  0  0  0  0  0  0
    6.4180    0.7910   28.5230 C   0  0  0  0  0  0  0  0  0  0  0  0
    6.4220   -0.3550   27.7420 N   0  0  0  0  0  0  0  0  0  0  0  0
    7.1500   -1.4420   28.2750 C   0  0  0  0  0  0  0  0  0  0  0  0
    5.8920   -5.0340   23.5950 C   0  0  0  0  0  0  0  0  0  0  0  0
    6.6190   -5.3980   22.4380 C   0  0  0  0  0  0  0  0  0  0  0  0
  1  2  1  0
  2  3  2  0
  2  4  1  0
  4  5  1  0
  5  6  1  0
  6  7  1  0
  7  8  1  0
  8  9  2  0
  8 10  1  0
 10 11  1  0
 11 12  1  0
 12 13  1  0
 13 14  1  0
 14 15  1  0
 10 16  1  0
 16 17  2  0
 17 18  1  0
 18 19  2  0
 19 20  1  0
 16 21  1  0
 20 21  2  0
  7 22  1  0
  4 23  1  0
 22 23  1  0
M  END
