piperidine-amides-29815-covalent
     RDKit          3D

 26 28  0  0  0  0  0  0  0  0999 V2000
    7.0090   -3.3920   19.4760 C   0  0  0  0  0  0  0  0  0  0  0  0
    6.3260   -4.2630   20.4310 C   0  0  0  0  0  0  0  0  0  0  0  0
    5.4190   -4.9880   20.0150 O   0  0  0  0  0  0  0  0  0  0  0  0
    6.7180   -4.3100   21.8310 N   0  0  0  0  0  0  0  0  0  0  0  0
    6.5070   -5.5250   22.5840 C   0  0  0  0  0  0  0  0  0  0  0  0
    5.9160   -5.2210   23.9480 C   0  0  0  0  0  0  0  0  0  0  0  0
    5.9370   -3.7090   24.1080 C   0  0  0  0  0  0  0  0  0  0  0  0
    5.2890   -3.1820   25.3960 C   0  0  0  0  0  0  0  0  0  0  0  0
    4.7900   -2.0520   25.4010 O   0  0  0  0  0  0  0  0  0  0  0  0
    5.1880   -3.9020   26.6400 N   0  0  0  0  0  0  0  0  0  0  0  0
    4.8220   -3.1450   27.8310 C   0  0  0  0  0  0  0  0  0  0  0  0
    5.5170   -3.7100   29.0830 C   0  0  0  0  0  0  0  0  0  0  0  0
    5.9650   -5.0230   29.1500 C   0  0  0  0  0  0  0  0  0  0  0  0
    5.3020   -5.8730   30.0590 C   0  0  0  0  0  0  0  0  0  0  0  0
    5.8660   -6.5960   31.1320 N   0  0  0  0  0  0  0  0  0  0  0  0
    4.8100   -7.2830   31.7140 C   0  0  0  0  0  0  0  0  0  0  0  0
    3.5710   -6.9870   30.9990 C   0  0  0  0  0  0  0  0  0  0  0  0
    2.2680   -7.4000   31.1660 C   0  0  0  0  0  0  0  0  0  0  0  0
    1.9990   -8.5360   31.8350 F   0  0  0  0  0  0  0  0  0  0  0  0
    1.6300   -7.4640   29.9550 F   0  0  0  0  0  0  0  0  0  0  0  0
    1.6740   -6.3340   31.8600 F   0  0  0  0  0  0  0  0  0  0  0  0
    3.9710   -6.1240   30.0150 N   0  0  0  0  0  0  0  0  0  0  0  0
    6.0290   -5.6450   27.9630 C   0  0  0  0  0  0  0  0  0  0  0  0
    6.1880   -4.7780   26.9200 C   0  0  0  0  0  0  0  0  0  0  0  0
    7.2170   -3.0970   23.7780 C   0  0  0  0  0  0  0  0  0  0  0  0
    7.5530   -3.2810   22.4290 C   0  0  0  0  0  0  0  0  0  0  0  0
  1  2  1  0
  2  3  2  0
  2  4  1  0
  4  5  1  0
  5  6  1  0
  6  7  1  0
  7  8  1  0
  8  9  2  0
  8 10  1  0
 10 11  1  0
 11 12  1  0
 12 13  1  0
 13 14  1  0
 14 15  2  0
 15 16  1  0
 16 17  2  0
 17 18  1  0
 18 19  1  0
 18 20  1  0
 18 21  1  0
 14 22  1  0
 17 22  1  0
 13 23  1  0
 10 24  1  0
 23 24  1  0
  7 25  1  0
  4 26  1  0
 25 26  1  0
M  END
