piperidine-amides-29234-covalent
     RDKit          3D

 26 27  0  0  0  0  0  0  0  0999 V2000
    7.0370   -3.3770   19.4030 C   0  0  0  0  0  0  0  0  0  0  0  0
    6.3740   -4.2230   20.3920 C   0  0  0  0  0  0  0  0  0  0  0  0
    5.4080   -4.9040   20.0010 O   0  0  0  0  0  0  0  0  0  0  0  0
    6.8490   -4.2930   21.7360 N   0  0  0  0  0  0  0  0  0  0  0  0
    6.5410   -5.4780   22.4980 C   0  0  0  0  0  0  0  0  0  0  0  0
    5.9270   -5.1110   23.8310 C   0  0  0  0  0  0  0  0  0  0  0  0
    5.7250   -3.6080   23.8380 C   0  0  0  0  0  0  0  0  0  0  0  0
    4.8680   -3.0970   24.9990 C   0  0  0  0  0  0  0  0  0  0  0  0
    3.6780   -2.9980   24.7560 O   0  0  0  0  0  0  0  0  0  0  0  0
    5.4330   -2.7890   26.2290 N   0  0  0  0  0  0  0  0  0  0  0  0
    6.3640   -3.6090   26.6370 C   0  0  0  0  0  0  0  0  0  0  0  0
    6.0890   -4.0480   27.9140 C   0  0  2  0  0  0  0  0  0  0  0  0
    5.0210   -5.0470   27.7230 N   0  0  0  0  0  0  0  0  0  0  0  0
    3.9990   -5.4490   28.6120 C   0  0  0  0  0  0  0  0  0  0  0  0
    2.7390   -5.3220   28.0760 O   0  0  0  0  0  0  0  0  0  0  0  0
    4.2370   -5.9320   29.8960 O   0  0  0  0  0  0  0  0  0  0  0  0
    5.2460   -6.9390   29.9890 C   0  0  0  0  0  0  0  0  0  0  0  0
    5.5650   -7.4740   31.3500 C   0  0  0  0  0  0  0  0  0  0  0  0
    6.3060   -6.4840   29.2480 C   0  0  0  0  0  0  0  0  0  0  0  0
    4.7710   -7.9160   29.1250 C   0  0  0  0  0  0  0  0  0  0  0  0
    5.4450   -3.1260   28.6950 C   0  0  0  0  0  0  0  0  0  0  0  0
    4.6540   -2.5240   27.4530 C   0  0  0  0  0  0  0  0  0  0  0  0
    3.3480   -2.9510   27.3950 C   0  0  0  0  0  0  0  0  0  0  0  0
    4.5810   -1.1580   27.5400 C   0  0  0  0  0  0  0  0  0  0  0  0
    7.0320   -2.9020   23.6930 C   0  0  0  0  0  0  0  0  0  0  0  0
    7.6210   -3.2280   22.3450 C   0  0  0  0  0  0  0  0  0  0  0  0
  1  2  1  0
  2  3  2  0
  2  4  1  0
  4  5  1  0
  5  6  1  0
  6  7  1  0
  7  8  1  0
  8  9  2  0
  8 10  1  0
 10 11  1  0
 11 12  1  0
 12 13  1  6
 13 14  1  0
 14 15  2  0
 14 16  1  0
 17 16  1  0
 17 18  1  0
 17 19  1  0
 17 20  1  0
 12 21  1  0
 10 22  1  0
 21 22  1  0
 22 23  1  0
 22 24  1  0
  7 25  1  0
  4 26  1  0
 25 26  1  0
M  END
