piperidine-amides-29746-covalent
     RDKit          3D

 27 29  0  0  0  0  0  0  0  0999 V2000
    7.1370   -3.2940   19.1670 C   0  0  0  0  0  0  0  0  0  0  0  0
    6.3370   -4.0060   20.1550 C   0  0  0  0  0  0  0  0  0  0  0  0
    5.2440   -4.4740   19.8520 O   0  0  0  0  0  0  0  0  0  0  0  0
    6.8640   -4.2200   21.4640 N   0  0  0  0  0  0  0  0  0  0  0  0
    7.6670   -3.2060   22.0940 C   0  0  0  0  0  0  0  0  0  0  0  0
    6.9370   -2.6490   23.2700 C   0  0  0  0  0  0  0  0  0  0  0  0
    6.5340   -3.8190   24.1430 C   0  0  0  0  0  0  0  0  0  0  0  0
    5.7150   -3.3150   25.2600 C   0  0  0  0  0  0  0  0  0  0  0  0
    4.6100   -2.7530   25.1140 O   0  0  0  0  0  0  0  0  0  0  0  0
    6.2470   -3.5130   26.5330 N   0  0  0  0  0  0  0  0  0  0  0  0
    6.5730   -2.3080   27.2780 C   0  0  0  0  0  0  0  0  0  0  0  0
    5.5990   -2.1950   28.4260 C   0  0  0  0  0  0  0  0  0  0  0  0
    5.1350   -3.2790   29.2100 N   0  0  0  0  0  0  0  0  0  0  0  0
    4.2870   -2.8060   30.1320 N   0  0  0  0  0  0  0  0  0  0  0  0
    4.2470   -1.4370   29.8940 C   0  0  0  0  0  0  0  0  0  0  0  0
    3.4770   -0.5710   30.6390 C   0  0  0  0  0  0  0  0  0  0  0  0
    3.5400    0.7630   30.2870 C   0  0  0  0  0  0  0  0  0  0  0  0
    4.4170    1.1360   29.1560 C   0  0  0  0  0  0  0  0  0  0  0  0
    5.1960    0.2570   28.4010 C   0  0  0  0  0  0  0  0  0  0  0  0
    4.9980   -1.0710   28.9160 N   0  0  0  0  0  0  0  0  0  0  0  0
    6.8740   -4.8030   26.7790 C   0  0  2  0  0  0  0  0  0  0  0  0
    6.5290   -5.6830   27.8060 C   0  0  0  0  0  0  0  0  0  0  0  0
    7.7730   -4.9190   27.9070 C   0  0  0  0  0  0  0  0  0  0  0  0
    8.9330   -5.6020   27.5700 C   0  0  0  0  0  0  0  0  0  0  0  0
    8.2070   -3.5860   28.3500 C   0  0  0  0  0  0  0  0  0  0  0  0
    5.7000   -4.8430   23.4080 C   0  0  0  0  0  0  0  0  0  0  0  0
    6.5070   -5.3810   22.2250 C   0  0  0  0  0  0  0  0  0  0  0  0
  1  2  1  0
  2  3  2  0
  2  4  1  0
  4  5  1  0
  5  6  1  0
  6  7  1  0
  7  8  1  0
  8  9  2  0
  8 10  1  0
 10 11  1  0
 11 12  1  0
 12 13  2  0
 13 14  1  0
 14 15  2  0
 15 16  1  0
 16 17  2  0
 17 18  1  0
 18 19  2  0
 12 20  1  0
 15 20  1  0
 19 20  1  0
 10 21  1  0
 21 22  1  1
 21 23  1  0
 23 24  1  0
 23 25  1  0
  7 26  1  0
  4 27  1  0
 26 27  1  0
M  END
