piperidine-amides-33704-covalent
     RDKit          3D

 27 29  0  0  0  0  0  0  0  0999 V2000
    7.0860   -3.3390   19.2910 C   0  0  0  0  0  0  0  0  0  0  0  0
    6.4060   -4.1610   20.3010 C   0  0  0  0  0  0  0  0  0  0  0  0
    5.3400   -4.7180   19.9490 O   0  0  0  0  0  0  0  0  0  0  0  0
    6.9670   -4.3690   21.5880 N   0  0  0  0  0  0  0  0  0  0  0  0
    7.6330   -3.2740   22.1980 C   0  0  0  0  0  0  0  0  0  0  0  0
    7.3990   -3.0910   23.6290 C   0  0  0  0  0  0  0  0  0  0  0  0
    6.4190   -3.9930   24.2910 C   0  0  0  0  0  0  0  0  0  0  0  0
    5.5950   -3.2240   25.2810 C   0  0  0  0  0  0  0  0  0  0  0  0
    4.5250   -2.7280   24.8850 O   0  0  0  0  0  0  0  0  0  0  0  0
    5.9550   -3.0370   26.6360 N   0  0  0  0  0  0  0  0  0  0  0  0
    5.3720   -3.8320   27.6610 C   0  0  0  0  0  0  0  0  0  0  0  0
    5.8360   -5.0260   28.0940 N   0  0  0  0  0  0  0  0  0  0  0  0
    5.2550   -5.7560   29.0590 C   0  0  0  0  0  0  0  0  0  0  0  0
    5.7770   -7.2830   29.6690 Cl  0  0  0  0  0  0  0  0  0  0  0  0
    4.0290   -4.9690   29.5150 C   0  0  0  0  0  0  0  0  0  0  0  0
    3.9500   -3.5340   28.6130 S   0  0  0  0  0  0  0  0  0  0  0  0
    6.3210   -1.6780   26.9930 C   0  0  1  0  0  0  0  0  0  0  0  0
    5.1340   -0.7230   26.9770 C   0  0  0  0  0  0  0  0  0  0  0  0
    6.0470    0.3940   27.4020 C   0  0  0  0  0  0  0  0  0  0  0  0
    6.3380   -0.1150   28.8510 C   0  0  1  0  0  0  0  0  0  0  0  0
    5.2130   -0.3150   29.8350 C   0  0  0  0  0  0  0  0  0  0  0  0
    3.9570    0.2660   29.5650 O   0  0  0  0  0  0  0  0  0  0  0  0
    5.3320   -1.0160   30.9860 O   0  0  0  0  0  0  0  0  0  0  0  0
    4.1860   -1.3550   31.7480 C   0  0  0  0  0  0  0  0  0  0  0  0
    6.9370   -1.3600   28.3320 C   0  0  0  0  0  0  0  0  0  0  0  0
    5.5710   -4.7510   23.3170 C   0  0  0  0  0  0  0  0  0  0  0  0
    6.4570   -5.3930   22.4590 C   0  0  0  0  0  0  0  0  0  0  0  0
  1  2  1  0
  2  3  2  0
  2  4  1  0
  4  5  1  0
  5  6  1  0
  6  7  1  0
  7  8  1  0
  8  9  2  0
  8 10  1  0
 10 11  1  0
 11 12  2  0
 12 13  1  0
 13 14  1  0
 13 15  2  0
 11 16  1  0
 15 16  1  0
 17 10  1  1
 17 18  1  0
 18 19  1  0
 19 20  1  0
 20 21  1  1
 21 22  2  0
 21 23  1  0
 23 24  1  0
 17 25  1  0
 20 25  1  0
  7 26  1  0
  4 27  1  0
 26 27  1  0
M  END
