piperidine-amides-4579-covalent
     RDKit          3D

 25 26  0  0  0  0  0  0  0  0999 V2000
    7.1040   -3.2750   19.1410 C   0  0  0  0  0  0  0  0  0  0  0  0
    6.3560   -4.0050   20.1930 C   0  0  0  0  0  0  0  0  0  0  0  0
    5.2650   -4.5030   19.8600 O   0  0  0  0  0  0  0  0  0  0  0  0
    6.8840   -4.1660   21.4780 N   0  0  0  0  0  0  0  0  0  0  0  0
    6.4780   -5.2700   22.2830 C   0  0  0  0  0  0  0  0  0  0  0  0
    5.9740   -4.8910   23.6060 C   0  0  0  0  0  0  0  0  0  0  0  0
    6.6250   -3.7000   24.2000 C   0  0  0  0  0  0  0  0  0  0  0  0
    5.8560   -3.1920   25.3650 C   0  0  0  0  0  0  0  0  0  0  0  0
    4.6110   -3.1900   25.2970 O   0  0  0  0  0  0  0  0  0  0  0  0
    6.5120   -2.7170   26.5160 N   0  0  0  0  0  0  0  0  0  0  0  0
    6.2720   -3.2610   27.8740 C   0  0  0  0  0  0  0  0  0  0  0  0
    5.8270   -4.6820   27.8690 C   0  0  0  0  0  0  0  0  0  0  0  0
    5.7520   -5.3320   29.1250 N   0  0  0  0  0  0  0  0  0  0  0  0
    6.3540   -6.6180   29.1870 C   0  0  0  0  0  0  0  0  0  0  0  0
    7.3740   -6.9170   28.5060 O   0  0  0  0  0  0  0  0  0  0  0  0
    5.6440   -7.3700   30.0850 C   0  0  0  0  0  0  0  0  0  0  0  0
    4.2810   -7.5450   29.9270 C   0  0  0  0  0  0  0  0  0  0  0  0
    3.5330   -7.8890   31.0170 C   0  0  0  0  0  0  0  0  0  0  0  0
    2.1790   -8.0810   30.9330 C   0  0  0  0  0  0  0  0  0  0  0  0
    1.4910   -7.9400   29.7540 C   0  0  0  0  0  0  0  0  0  0  0  0
    2.2030   -7.5900   28.6100 C   0  0  0  0  0  0  0  0  0  0  0  0
    1.5500   -7.4420   27.4250 F   0  0  0  0  0  0  0  0  0  0  0  0
    3.6560   -7.3900   28.7220 C   0  0  0  0  0  0  0  0  0  0  0  0
    6.8680   -2.5960   23.2460 C   0  0  0  0  0  0  0  0  0  0  0  0
    7.6670   -3.1190   22.1000 C   0  0  0  0  0  0  0  0  0  0  0  0
  1  2  1  0
  2  3  2  0
  2  4  1  0
  4  5  1  0
  5  6  1  0
  6  7  1  0
  7  8  1  0
  8  9  2  0
  8 10  1  0
 10 11  1  0
 11 12  1  0
 12 13  1  0
 13 14  1  0
 14 15  2  0
 14 16  1  0
 16 17  1  0
 17 18  2  0
 18 19  1  0
 19 20  2  0
 20 21  1  0
 21 22  1  0
 17 23  1  0
 21 23  2  0
  7 24  1  0
  4 25  1  0
 24 25  1  0
M  END
