piperidine-amides-741-covalent
     RDKit          3D

 25 28  0  0  0  0  0  0  0  0999 V2000
    7.1120   -3.3700   19.2520 C   0  0  0  0  0  0  0  0  0  0  0  0
    6.3630   -4.0580   20.2690 C   0  0  0  0  0  0  0  0  0  0  0  0
    5.2810   -4.6190   19.9180 O   0  0  0  0  0  0  0  0  0  0  0  0
    6.8170   -4.1930   21.5950 N   0  0  0  0  0  0  0  0  0  0  0  0
    6.6250   -5.5040   22.2340 C   0  0  0  0  0  0  0  0  0  0  0  0
    5.6940   -5.0220   23.3930 C   0  0  0  0  0  0  0  0  0  0  0  0
    6.5230   -3.9960   24.1270 C   0  0  0  0  0  0  0  0  0  0  0  0
    5.8160   -3.7360   25.5240 C   0  0  0  0  0  0  0  0  0  0  0  0
    5.1160   -4.6860   25.8190 O   0  0  0  0  0  0  0  0  0  0  0  0
    6.1210   -2.6020   25.9960 N   0  0  0  0  0  0  0  0  0  0  0  0
    6.2730   -1.3940   26.5910 C   0  0  1  0  0  0  0  0  0  0  0  0
    5.5850   -0.5440   27.2820 C   0  0  2  0  0  0  0  0  0  0  0  0
    6.0910    0.6940   27.6750 C   0  0  0  0  0  0  0  0  0  0  0  0
    6.7390    0.6220   28.8220 N   0  0  0  0  0  0  0  0  0  0  0  0
    6.0100    1.2480   29.8240 C   0  0  0  0  0  0  0  0  0  0  0  0
    5.9130    2.7340   29.4360 C   0  0  0  0  0  0  0  0  0  0  0  0
    6.9850    3.3400   30.1230 C   0  0  0  0  0  0  0  0  0  0  0  0
    7.4630    4.7150   30.1980 C   0  0  0  0  0  0  0  0  0  0  0  0
    6.4000    5.3890   29.2490 C   0  0  0  0  0  0  0  0  0  0  0  0
    5.2340    4.6740   28.5140 C   0  0  0  0  0  0  0  0  0  0  0  0
    5.0250    3.3850   28.6260 C   0  0  0  0  0  0  0  0  0  0  0  0
    7.0570   -0.7540   29.0460 C   0  0  0  0  0  0  0  0  0  0  0  0
    6.2760   -1.5070   28.2010 C   0  0  2  0  0  0  0  0  0  0  0  0
    6.9450   -2.7780   23.3780 C   0  0  0  0  0  0  0  0  0  0  0  0
    7.6450   -3.2130   22.2500 C   0  0  0  0  0  0  0  0  0  0  0  0
  1  2  1  0
  2  3  2  0
  2  4  1  0
  4  5  1  0
  5  6  1  0
  6  7  1  0
  7  8  1  0
  8  9  2  0
  8 10  1  0
 11 10  1  6
 11 12  1  0
 12 13  1  1
 13 14  1  0
 14 15  1  0
 15 16  1  0
 16 17  2  0
 17 18  1  0
 18 19  2  0
 19 20  1  0
 16 21  1  0
 20 21  2  0
 14 22  1  0
 11 23  1  0
 12 23  1  0
 23 22  1  1
  7 24  1  0
  4 25  1  0
 24 25  1  0
M  END
