piperidine-amides-10107-covalent
     RDKit          3D

 25 26  0  0  0  0  0  0  0  0999 V2000
    7.0630   -3.2680   19.2260 C   0  0  0  0  0  0  0  0  0  0  0  0
    6.3030   -4.0150   20.2380 C   0  0  0  0  0  0  0  0  0  0  0  0
    5.2310   -4.5440   19.8660 O   0  0  0  0  0  0  0  0  0  0  0  0
    6.7950   -4.1520   21.5340 N   0  0  0  0  0  0  0  0  0  0  0  0
    6.6010   -5.3790   22.2720 C   0  0  0  0  0  0  0  0  0  0  0  0
    5.8170   -5.0420   23.5110 C   0  0  0  0  0  0  0  0  0  0  0  0
    5.9950   -3.5950   23.8810 C   0  0  0  0  0  0  0  0  0  0  0  0
    5.8240   -3.3890   25.3420 C   0  0  0  0  0  0  0  0  0  0  0  0
    4.6770   -3.0810   25.7470 O   0  0  0  0  0  0  0  0  0  0  0  0
    6.8680   -3.5120   26.2900 N   0  0  0  0  0  0  0  0  0  0  0  0
    7.4460   -4.7930   26.6280 C   0  0  1  0  0  0  0  0  0  0  0  0
    8.9740   -4.7690   26.4940 C   0  0  0  0  0  0  0  0  0  0  0  0
    9.6860   -3.8340   25.7560 C   0  0  0  0  0  0  0  0  0  0  0  0
    9.2150   -2.6860   25.1250 C   0  0  0  0  0  0  0  0  0  0  0  0
   10.0710   -1.8360   24.4040 C   0  0  0  0  0  0  0  0  0  0  0  0
   11.4290   -2.0700   24.2750 C   0  0  0  0  0  0  0  0  0  0  0  0
   12.6420   -0.9470   23.2920 Br  0  0  0  0  0  0  0  0  0  0  0  0
   11.9210   -3.1730   24.8870 C   0  0  0  0  0  0  0  0  0  0  0  0
   11.0240   -4.0940   25.6540 C   0  0  0  0  0  0  0  0  0  0  0  0
    7.2150   -5.2700   27.9980 C   0  0  0  0  0  0  0  0  0  0  0  0
    6.5820   -5.6430   29.0090 O   0  0  0  0  0  0  0  0  0  0  0  0
    6.1460   -5.2080   27.6670 O   0  0  0  0  0  0  0  0  0  0  0  0
    5.3000   -6.3050   27.4550 C   0  0  0  0  0  0  0  0  0  0  0  0
    7.3600   -3.1050   23.4970 C   0  0  0  0  0  0  0  0  0  0  0  0
    7.6170   -3.1070   22.1470 C   0  0  0  0  0  0  0  0  0  0  0  0
  1  2  1  0
  2  3  2  0
  2  4  1  0
  4  5  1  0
  5  6  1  0
  6  7  1  0
  7  8  1  0
  8  9  2  0
  8 10  1  0
 10 11  1  0
 11 12  1  1
 12 13  1  0
 13 14  2  0
 14 15  1  0
 15 16  2  0
 16 17  1  0
 16 18  1  0
 13 19  1  0
 18 19  2  0
 11 20  1  0
 20 21  2  0
 20 22  1  0
 22 23  1  0
  7 24  1  0
  4 25  1  0
 24 25  1  0
M  END
