piperidine-amides-28900-covalent
     RDKit          3D

 22 24  0  0  0  0  0  0  0  0999 V2000
    7.0130   -3.3580   19.4180 C   0  0  0  0  0  0  0  0  0  0  0  0
    6.3890   -4.2440   20.3970 C   0  0  0  0  0  0  0  0  0  0  0  0
    5.4150   -4.9200   20.0060 O   0  0  0  0  0  0  0  0  0  0  0  0
    6.9060   -4.3590   21.7280 N   0  0  0  0  0  0  0  0  0  0  0  0
    6.5750   -5.4940   22.5240 C   0  0  0  0  0  0  0  0  0  0  0  0
    5.6830   -5.0680   23.6630 C   0  0  0  0  0  0  0  0  0  0  0  0
    6.2540   -3.8220   24.3440 C   0  0  0  0  0  0  0  0  0  0  0  0
    5.1900   -3.2260   25.2670 C   0  0  0  0  0  0  0  0  0  0  0  0
    4.0770   -3.1390   24.7760 O   0  0  0  0  0  0  0  0  0  0  0  0
    5.4900   -2.8200   26.5870 N   0  0  0  0  0  0  0  0  0  0  0  0
    6.5300   -3.3560   27.2660 C   0  0  0  0  0  0  0  0  0  0  0  0
    6.3230   -4.5820   27.9760 C   0  0  0  0  0  0  0  0  0  0  0  0
    5.1230   -4.6910   28.6390 C   0  0  0  0  0  0  0  0  0  0  0  0
    4.8170   -5.7950   29.4730 C   0  0  0  0  0  0  0  0  0  0  0  0
    6.0270   -7.2140   29.7360 Br  0  0  0  0  0  0  0  0  0  0  0  0
    3.4590   -5.7940   30.1490 C   0  0  0  0  0  0  0  0  0  0  0  0
    2.4560   -4.6570   29.9410 C   0  0  0  0  0  0  0  0  0  0  0  0
    2.8450   -3.5780   29.0670 C   0  0  0  0  0  0  0  0  0  0  0  0
    4.1950   -3.6870   28.4610 C   0  0  0  0  0  0  0  0  0  0  0  0
    4.4660   -2.4900   27.5410 C   0  0  0  0  0  0  0  0  0  0  0  0
    6.6010   -2.7640   23.3030 C   0  0  0  0  0  0  0  0  0  0  0  0
    7.5380   -3.2570   22.4120 C   0  0  0  0  0  0  0  0  0  0  0  0
  1  2  1  0
  2  3  2  0
  2  4  1  0
  4  5  1  0
  5  6  1  0
  6  7  1  0
  7  8  1  0
  8  9  2  0
  8 10  1  0
 10 11  1  0
 11 12  1  0
 12 13  1  0
 13 14  2  0
 14 15  1  0
 14 16  1  0
 16 17  2  0
 17 18  1  0
 13 19  1  0
 18 19  2  0
 10 20  1  0
 19 20  1  0
  7 21  1  0
  4 22  1  0
 21 22  1  0
M  END
