piperidine-amides-34003-covalent
     RDKit          3D

 29 31  0  0  0  0  0  0  0  0999 V2000
    7.1310   -3.2820   19.2230 C   0  0  0  0  0  0  0  0  0  0  0  0
    6.4050   -4.0650   20.2360 C   0  0  0  0  0  0  0  0  0  0  0  0
    5.3450   -4.6530   19.9320 O   0  0  0  0  0  0  0  0  0  0  0  0
    6.9200   -4.2100   21.5320 N   0  0  0  0  0  0  0  0  0  0  0  0
    7.7200   -3.1610   22.1160 C   0  0  0  0  0  0  0  0  0  0  0  0
    6.8910   -2.5800   23.2570 C   0  0  0  0  0  0  0  0  0  0  0  0
    6.5840   -3.7340   24.1860 C   0  0  0  0  0  0  0  0  0  0  0  0
    5.7880   -3.2250   25.3240 C   0  0  0  0  0  0  0  0  0  0  0  0
    4.5860   -2.9380   25.1220 O   0  0  0  0  0  0  0  0  0  0  0  0
    6.3820   -3.0470   26.5970 N   0  0  0  0  0  0  0  0  0  0  0  0
    6.7670   -1.7050   26.9280 C   0  0  0  0  0  0  0  0  0  0  0  0
    6.0770   -3.9400   27.7110 C   0  0  0  0  0  0  0  0  0  0  0  0
    5.3480   -5.0370   27.2940 C   0  0  0  0  0  0  0  0  0  0  0  0
    4.7990   -5.2090   26.0830 C   0  0  0  0  0  0  0  0  0  0  0  0
    4.1130   -6.3530   25.8710 C   0  0  0  0  0  0  0  0  0  0  0  0
    3.5270   -6.5740   24.6390 F   0  0  0  0  0  0  0  0  0  0  0  0
    3.9650   -7.3110   26.8140 C   0  0  0  0  0  0  0  0  0  0  0  0
    4.4850   -7.3690   28.2540 C   0  0  0  0  0  0  0  0  0  0  0  0
    5.2120   -5.9980   28.2720 C   0  0  0  0  0  0  0  0  0  0  0  0
    5.6690   -5.9580   29.4440 O   0  0  0  0  0  0  0  0  0  0  0  0
    4.7620   -6.5760   30.3240 C   0  0  0  0  0  0  0  0  0  0  0  0
    5.4430   -7.4530   31.2830 C   0  0  0  0  0  0  0  0  0  0  0  0
    4.6300   -8.1300   32.2140 N   0  0  0  0  0  0  0  0  0  0  0  0
    3.2150   -8.0390   32.3060 C   0  0  0  0  0  0  0  0  0  0  0  0
    2.5890   -7.2230   31.4150 C   0  0  0  0  0  0  0  0  0  0  0  0
    0.8430   -7.0960   31.5130 Cl  0  0  0  0  0  0  0  0  0  0  0  0
    3.3830   -6.4650   30.3900 C   0  0  0  0  0  0  0  0  0  0  0  0
    5.8070   -4.8620   23.5250 C   0  0  0  0  0  0  0  0  0  0  0  0
    6.5910   -5.3700   22.3100 C   0  0  0  0  0  0  0  0  0  0  0  0
  1  2  1  0
  2  3  2  0
  2  4  1  0
  4  5  1  0
  5  6  1  0
  6  7  1  0
  7  8  1  0
  8  9  2  0
  8 10  1  0
 10 11  1  0
 10 12  1  0
 12 13  1  0
 13 14  2  0
 14 15  1  0
 15 16  1  0
 15 17  2  0
 17 18  1  0
 13 19  1  0
 18 19  2  0
 19 20  1  0
 20 21  1  0
 21 22  2  0
 22 23  1  0
 23 24  2  0
 24 25  1  0
 25 26  1  0
 21 27  1  0
 25 27  2  0
  7 28  1  0
  4 29  1  0
 28 29  1  0
M  END
