piperidine-amides-30299-covalent
     RDKit          3D

 28 31  0  0  0  0  0  0  0  0999 V2000
    7.0340   -3.3470   19.3570 C   0  0  0  0  0  0  0  0  0  0  0  0
    6.3630   -4.1700   20.3570 C   0  0  0  0  0  0  0  0  0  0  0  0
    5.4140   -4.8730   20.0000 O   0  0  0  0  0  0  0  0  0  0  0  0
    6.8190   -4.2050   21.7310 N   0  0  0  0  0  0  0  0  0  0  0  0
    6.6470   -5.4150   22.5050 C   0  0  0  0  0  0  0  0  0  0  0  0
    6.1570   -5.1110   23.9020 C   0  0  0  0  0  0  0  0  0  0  0  0
    6.1420   -3.6040   24.0900 C   0  0  0  0  0  0  0  0  0  0  0  0
    5.5470   -3.1990   25.4100 C   0  0  0  0  0  0  0  0  0  0  0  0
    4.3090   -3.1220   25.5170 O   0  0  0  0  0  0  0  0  0  0  0  0
    6.3150   -2.8700   26.5720 N   0  0  0  0  0  0  0  0  0  0  0  0
    6.2950   -3.8810   27.6110 C   0  0  0  0  0  0  0  0  0  0  0  0
    4.9880   -3.8210   28.3740 C   0  0  0  0  0  0  0  0  0  0  0  0
    4.4080   -5.0050   28.8250 C   0  0  0  0  0  0  0  0  0  0  0  0
    3.1930   -5.0160   29.5370 C   0  0  0  0  0  0  0  0  0  0  0  0
    2.5680   -3.8230   29.7910 C   0  0  0  0  0  0  0  0  0  0  0  0
    3.1760   -2.6110   29.3230 C   0  0  0  0  0  0  0  0  0  0  0  0
    4.3540   -2.6170   28.6340 C   0  0  0  0  0  0  0  0  0  0  0  0
    6.2340   -1.5060   27.0690 C   0  0  0  0  0  0  0  0  0  0  0  0
    5.5630   -0.4680   26.4190 C   0  0  0  0  0  0  0  0  0  0  0  0
    5.5350    0.8580   27.0360 C   0  0  0  0  0  0  0  0  0  0  0  0
    6.1400    1.1230   28.2260 C   0  0  0  0  0  0  0  0  0  0  0  0
    6.7910    0.0820   28.8270 C   0  0  0  0  0  0  0  0  0  0  0  0
    7.5060    0.0820   30.0670 C   0  0  0  0  0  0  0  0  0  0  0  0
    7.9970   -1.1020   30.2870 N   0  0  0  0  0  0  0  0  0  0  0  0
    7.6070   -1.8800   29.2300 N   0  0  0  0  0  0  0  0  0  0  0  0
    6.8510   -1.1780   28.2900 C   0  0  0  0  0  0  0  0  0  0  0  0
    7.4510   -3.0080   23.7110 C   0  0  0  0  0  0  0  0  0  0  0  0
    7.6980   -3.1590   22.2430 C   0  0  0  0  0  0  0  0  0  0  0  0
  1  2  1  0
  2  3  2  0
  2  4  1  0
  4  5  1  0
  5  6  1  0
  6  7  1  0
  7  8  1  0
  8  9  2  0
  8 10  1  0
 10 11  1  0
 11 12  1  0
 12 13  2  0
 13 14  1  0
 14 15  2  0
 15 16  1  0
 12 17  1  0
 16 17  2  0
 10 18  1  0
 18 19  2  0
 19 20  1  0
 20 21  2  0
 21 22  1  0
 22 23  2  0
 23 24  1  0
 24 25  1  0
 18 26  1  0
 22 26  1  0
 25 26  2  0
  7 27  1  0
  4 28  1  0
 27 28  1  0
M  END
