piperidine-amides-21553-covalent
     RDKit          3D

 23 24  0  0  0  0  0  0  0  0999 V2000
    7.0760   -3.2720   19.2400 C   0  0  0  0  0  0  0  0  0  0  0  0
    6.3380   -4.0340   20.2520 C   0  0  0  0  0  0  0  0  0  0  0  0
    5.2590   -4.5570   19.8790 O   0  0  0  0  0  0  0  0  0  0  0  0
    6.8420   -4.2020   21.5400 N   0  0  0  0  0  0  0  0  0  0  0  0
    6.5740   -5.4070   22.2810 C   0  0  0  0  0  0  0  0  0  0  0  0
    5.9000   -5.0140   23.5630 C   0  0  0  0  0  0  0  0  0  0  0  0
    6.6220   -3.8740   24.2370 C   0  0  0  0  0  0  0  0  0  0  0  0
    5.8140   -3.3680   25.3760 C   0  0  0  0  0  0  0  0  0  0  0  0
    4.5800   -3.2410   25.2090 O   0  0  0  0  0  0  0  0  0  0  0  0
    6.3590   -3.0080   26.6300 N   0  0  0  0  0  0  0  0  0  0  0  0
    6.7600   -1.6340   26.8100 C   0  0  0  0  0  0  0  0  0  0  0  0
    6.1500   -3.8700   27.7900 C   0  0  0  0  0  0  0  0  0  0  0  0
    5.8820   -5.1820   27.4370 C   0  0  0  0  0  0  0  0  0  0  0  0
    4.6850   -5.7840   27.7710 C   0  0  0  0  0  0  0  0  0  0  0  0
    4.3080   -5.1770   28.8720 O   0  0  0  0  0  0  0  0  0  0  0  0
    4.5880   -5.8730   29.9360 C   0  0  0  0  0  0  0  0  0  0  0  0
    5.5570   -6.8740   30.0150 C   0  0  0  0  0  0  0  0  0  0  0  0
    5.8710   -7.6250   31.1380 C   0  0  0  0  0  0  0  0  0  0  0  0
    5.2040   -7.4780   32.4850 C   0  0  0  0  0  0  0  0  0  0  0  0
    4.1550   -6.3910   32.3860 C   0  0  0  0  0  0  0  0  0  0  0  0
    3.9050   -5.6450   31.1090 C   0  0  0  0  0  0  0  0  0  0  0  0
    6.8700   -2.7310   23.2920 C   0  0  0  0  0  0  0  0  0  0  0  0
    7.6270   -3.1700   22.2330 C   0  0  0  0  0  0  0  0  0  0  0  0
  1  2  1  0
  2  3  2  0
  2  4  1  0
  4  5  1  0
  5  6  1  0
  6  7  1  0
  7  8  1  0
  8  9  2  0
  8 10  1  0
 10 11  1  0
 10 12  1  0
 12 13  1  0
 13 14  1  0
 14 15  1  0
 15 16  1  0
 16 17  2  0
 17 18  1  0
 18 19  2  0
 19 20  1  0
 16 21  1  0
 20 21  2  0
  7 22  1  0
  4 23  1  0
 22 23  1  0
M  END
