piperidine-amides-6686-covalent
     RDKit          3D

 24 25  0  0  0  0  0  0  0  0999 V2000
    7.1010   -3.2730   19.2220 C   0  0  0  0  0  0  0  0  0  0  0  0
    6.3570   -4.0490   20.2280 C   0  0  0  0  0  0  0  0  0  0  0  0
    5.3010   -4.6370   19.9170 O   0  0  0  0  0  0  0  0  0  0  0  0
    6.8530   -4.1860   21.5280 N   0  0  0  0  0  0  0  0  0  0  0  0
    7.6980   -3.1630   22.1000 C   0  0  0  0  0  0  0  0  0  0  0  0
    6.9540   -2.6120   23.3080 C   0  0  0  0  0  0  0  0  0  0  0  0
    6.5250   -3.8200   24.1080 C   0  0  0  0  0  0  0  0  0  0  0  0
    5.8070   -3.3870   25.3200 C   0  0  0  0  0  0  0  0  0  0  0  0
    4.5770   -3.1670   25.2370 O   0  0  0  0  0  0  0  0  0  0  0  0
    6.5160   -3.2320   26.5320 N   0  0  0  0  0  0  0  0  0  0  0  0
    5.8750   -3.5170   27.7770 C   0  0  0  0  0  0  0  0  0  0  0  0
    6.4800   -4.7290   28.4680 C   0  0  0  0  0  0  0  0  0  0  0  0
    6.2890   -5.9320   27.6700 N   0  0  0  0  0  0  0  0  0  0  0  0
    5.1010   -6.7650   27.7500 C   0  0  0  0  0  0  0  0  0  0  0  0
    4.5690   -7.0410   26.6340 O   0  0  0  0  0  0  0  0  0  0  0  0
    4.7370   -7.1170   29.0250 C   0  0  0  0  0  0  0  0  0  0  0  0
    3.5020   -7.5310   29.4370 C   0  0  0  0  0  0  0  0  0  0  0  0
    3.1960   -7.8660   30.7470 C   0  0  0  0  0  0  0  0  0  0  0  0
    4.0100   -7.9020   32.0690 C   0  0  0  0  0  0  0  0  0  0  0  0
    3.5910   -8.3650   33.8790 Br  0  0  0  0  0  0  0  0  0  0  0  0
    5.3000   -7.4270   31.3950 C   0  0  0  0  0  0  0  0  0  0  0  0
    5.6460   -7.0650   29.9970 C   0  0  0  0  0  0  0  0  0  0  0  0
    5.6380   -4.7260   23.2830 C   0  0  0  0  0  0  0  0  0  0  0  0
    6.4840   -5.3200   22.3370 C   0  0  0  0  0  0  0  0  0  0  0  0
  1  2  1  0
  2  3  2  0
  2  4  1  0
  4  5  1  0
  5  6  1  0
  6  7  1  0
  7  8  1  0
  8  9  2  0
  8 10  1  0
 10 11  1  0
 11 12  1  0
 12 13  1  0
 13 14  1  0
 14 15  2  0
 14 16  1  0
 16 17  2  0
 17 18  1  0
 18 19  2  0
 19 20  1  0
 19 21  1  0
 16 22  1  0
 21 22  2  0
  7 23  1  0
  4 24  1  0
 23 24  1  0
M  END
