piperidine-amides-5086-covalent
     RDKit          3D

 22 23  0  0  0  0  0  0  0  0999 V2000
    7.1640   -3.2710   19.1930 C   0  0  0  0  0  0  0  0  0  0  0  0
    6.3510   -3.9830   20.2000 C   0  0  0  0  0  0  0  0  0  0  0  0
    5.2480   -4.4280   19.8310 O   0  0  0  0  0  0  0  0  0  0  0  0
    6.8450   -4.1960   21.4870 N   0  0  0  0  0  0  0  0  0  0  0  0
    7.6080   -3.1730   22.1300 C   0  0  0  0  0  0  0  0  0  0  0  0
    7.1590   -2.8200   23.4760 C   0  0  0  0  0  0  0  0  0  0  0  0
    6.4380   -3.8880   24.2020 C   0  0  0  0  0  0  0  0  0  0  0  0
    5.7490   -3.3070   25.3800 C   0  0  0  0  0  0  0  0  0  0  0  0
    4.5480   -3.0000   25.2620 O   0  0  0  0  0  0  0  0  0  0  0  0
    6.4220   -3.0970   26.6010 N   0  0  0  0  0  0  0  0  0  0  0  0
    6.2700   -3.9920   27.7790 C   0  0  0  0  0  0  0  0  0  0  0  0
    6.0380   -5.4240   27.4160 C   0  0  0  0  0  0  0  0  0  0  0  0
    4.8830   -6.0730   28.0130 C   0  0  0  0  0  0  0  0  0  0  0  0
    3.6150   -5.7750   27.4270 N   0  0  0  0  0  0  0  0  0  0  0  0
    2.7580   -6.4670   28.1350 N   0  0  0  0  0  0  0  0  0  0  0  0
    3.4170   -7.1670   29.1140 C   0  0  0  0  0  0  0  0  0  0  0  0
    2.8550   -8.0020   30.0540 C   0  0  0  0  0  0  0  0  0  0  0  0
    2.0010   -7.2910   30.8320 C   0  0  0  0  0  0  0  0  0  0  0  0
    4.7220   -6.8990   29.0040 N   0  0  0  0  0  0  0  0  0  0  0  0
    5.8700   -7.3470   29.7530 C   0  0  0  0  0  0  0  0  0  0  0  0
    5.5940   -4.7800   23.3770 C   0  0  0  0  0  0  0  0  0  0  0  0
    6.3020   -5.2590   22.2790 C   0  0  0  0  0  0  0  0  0  0  0  0
  1  2  1  0
  2  3  2  0
  2  4  1  0
  4  5  1  0
  5  6  1  0
  6  7  1  0
  7  8  1  0
  8  9  2  0
  8 10  1  0
 10 11  1  0
 11 12  1  0
 12 13  1  0
 13 14  2  0
 14 15  1  0
 15 16  2  0
 16 17  1  0
 17 18  1  0
 13 19  1  0
 16 19  1  0
 19 20  1  0
  7 21  1  0
  4 22  1  0
 21 22  1  0
M  END
