piperidine-amides-14620-covalent
     RDKit          3D

 22 23  0  0  0  0  0  0  0  0999 V2000
    7.0620   -3.3150   19.2950 C   0  0  0  0  0  0  0  0  0  0  0  0
    6.3650   -4.1340   20.2830 C   0  0  0  0  0  0  0  0  0  0  0  0
    5.3280   -4.7240   19.9390 O   0  0  0  0  0  0  0  0  0  0  0  0
    6.8970   -4.2810   21.5840 N   0  0  0  0  0  0  0  0  0  0  0  0
    7.7340   -3.2460   22.1260 C   0  0  0  0  0  0  0  0  0  0  0  0
    7.0660   -2.6490   23.3130 C   0  0  0  0  0  0  0  0  0  0  0  0
    6.6930   -3.8320   24.1570 C   0  0  0  0  0  0  0  0  0  0  0  0
    5.9140   -3.3320   25.3250 C   0  0  0  0  0  0  0  0  0  0  0  0
    4.7220   -3.6390   25.3780 O   0  0  0  0  0  0  0  0  0  0  0  0
    6.5900   -2.5490   26.2500 N   0  0  0  0  0  0  0  0  0  0  0  0
    5.8560   -1.6850   27.1010 C   0  0  2  0  0  0  0  0  0  0  0  0
    5.8600   -0.2850   26.8000 C   0  0  0  0  0  0  0  0  0  0  0  0
    6.1540    0.3700   27.9510 C   0  0  0  0  0  0  0  0  0  0  0  0
    6.5470   -0.4550   28.9430 C   0  0  0  0  0  0  0  0  0  0  0  0
    6.8700    0.2070   30.2440 C   0  0  0  0  0  0  0  0  0  0  0  0
    7.9500    1.0320   30.1670 O   0  0  0  0  0  0  0  0  0  0  0  0
    6.1750    0.0050   31.4510 O   0  0  0  0  0  0  0  0  0  0  0  0
    4.7890    0.2950   31.5760 C   0  0  0  0  0  0  0  0  0  0  0  0
    4.5940    1.1090   32.8000 C   0  0  0  0  0  0  0  0  0  0  0  0
    6.5480   -1.7740   28.4980 C   0  0  0  0  0  0  0  0  0  0  0  0
    5.9180   -4.8930   23.4990 C   0  0  0  0  0  0  0  0  0  0  0  0
    6.5780   -5.4250   22.4120 C   0  0  0  0  0  0  0  0  0  0  0  0
  1  2  1  0
  2  3  2  0
  2  4  1  0
  4  5  1  0
  5  6  1  0
  6  7  1  0
  7  8  1  0
  8  9  2  0
  8 10  1  0
 11 10  1  6
 11 12  1  0
 12 13  1  0
 13 14  2  0
 14 15  1  0
 15 16  2  0
 15 17  1  0
 17 18  1  0
 18 19  1  0
 11 20  1  0
 14 20  1  0
  7 21  1  0
  4 22  1  0
 21 22  1  0
M  END
