piperidine-amides-2410-covalent
     RDKit          3D

 26 28  0  0  0  0  0  0  0  0999 V2000
    7.1230   -3.2510   19.1240 C   0  0  0  0  0  0  0  0  0  0  0  0
    6.3590   -3.9790   20.1720 C   0  0  0  0  0  0  0  0  0  0  0  0
    5.2810   -4.4730   19.8500 O   0  0  0  0  0  0  0  0  0  0  0  0
    6.8930   -4.1300   21.4470 N   0  0  0  0  0  0  0  0  0  0  0  0
    6.6500   -5.3020   22.2430 C   0  0  0  0  0  0  0  0  0  0  0  0
    5.9390   -4.8940   23.4990 C   0  0  0  0  0  0  0  0  0  0  0  0
    6.6720   -3.7060   24.1240 C   0  0  0  0  0  0  0  0  0  0  0  0
    5.8320   -3.2340   25.2220 C   0  0  0  0  0  0  0  0  0  0  0  0
    4.9370   -2.4070   25.0090 O   0  0  0  0  0  0  0  0  0  0  0  0
    6.0490   -3.7360   26.5000 N   0  0  0  0  0  0  0  0  0  0  0  0
    5.4950   -5.0420   26.7680 C   0  0  0  0  0  0  0  0  0  0  0  0
    4.6880   -4.8420   28.0150 C   0  0  1  0  0  0  0  0  0  0  0  0
    3.5410   -4.1060   28.1700 C   0  0  0  0  0  0  0  0  0  0  0  0
    3.1200   -4.0630   29.4570 C   0  0  0  0  0  0  0  0  0  0  0  0
    2.0230   -3.3920   29.7700 C   0  0  0  0  0  0  0  0  0  0  0  0
    1.1930   -2.6610   28.7950 C   0  0  0  0  0  0  0  0  0  0  0  0
    1.7150   -2.7500   27.3850 C   0  0  0  0  0  0  0  0  0  0  0  0
    2.9770   -3.4960   26.8810 C   0  0  0  0  0  0  0  0  0  0  0  0
    4.8150   -6.1010   28.7920 N   0  0  0  0  0  0  0  0  0  0  0  0
    5.8100   -5.8990   29.8200 C   0  0  0  0  0  0  0  0  0  0  0  0
    6.1720   -6.7580   30.8790 O   0  0  0  0  0  0  0  0  0  0  0  0
    6.3200   -4.6780   29.5700 N   0  0  0  0  0  0  0  0  0  0  0  0
    5.3570   -3.8590   28.9130 C   0  0  0  0  0  0  0  0  0  0  0  0
    5.1620   -2.6310   29.0680 O   0  0  0  0  0  0  0  0  0  0  0  0
    7.0780   -2.6190   23.2240 C   0  0  0  0  0  0  0  0  0  0  0  0
    7.7430   -3.0940   22.0000 C   0  0  0  0  0  0  0  0  0  0  0  0
  1  2  1  0
  2  3  2  0
  2  4  1  0
  4  5  1  0
  5  6  1  0
  6  7  1  0
  7  8  1  0
  8  9  2  0
  8 10  1  0
 10 11  1  0
 12 11  1  6
 12 13  1  0
 13 14  2  0
 14 15  1  0
 15 16  2  0
 16 17  1  0
 13 18  1  0
 17 18  2  0
 12 19  1  0
 19 20  1  0
 20 21  2  0
 20 22  1  0
 12 23  1  0
 22 23  1  0
 23 24  2  0
  7 25  1  0
  4 26  1  0
 25 26  1  0
M  END
