piperidine-amides-34979-covalent
     RDKit          3D

 28 30  0  0  0  0  0  0  0  0999 V2000
    7.1410   -3.2170   19.1670 C   0  0  0  0  0  0  0  0  0  0  0  0
    6.3110   -3.8690   20.2210 C   0  0  0  0  0  0  0  0  0  0  0  0
    5.3110   -4.4890   19.8580 O   0  0  0  0  0  0  0  0  0  0  0  0
    6.6780   -3.7960   21.5630 N   0  0  0  0  0  0  0  0  0  0  0  0
    7.3530   -2.6560   22.1400 C   0  0  0  0  0  0  0  0  0  0  0  0
    6.4960   -2.0660   23.2110 C   0  0  0  0  0  0  0  0  0  0  0  0
    5.9610   -3.2140   24.0630 C   0  0  0  0  0  0  0  0  0  0  0  0
    5.8160   -2.7380   25.4670 C   0  0  0  0  0  0  0  0  0  0  0  0
    4.6630   -2.6410   25.9160 O   0  0  0  0  0  0  0  0  0  0  0  0
    6.9270   -2.3850   26.3050 N   0  0  0  0  0  0  0  0  0  0  0  0
    8.1980   -2.4600   25.6540 C   0  0  0  0  0  0  0  0  0  0  0  0
    8.9070   -1.1690   25.9420 C   0  0  0  0  0  0  0  0  0  0  0  0
    6.6050   -1.6000   27.4230 C   0  0  0  0  0  0  0  0  0  0  0  0
    7.3060   -1.8030   28.5980 C   0  0  0  0  0  0  0  0  0  0  0  0
    6.6800   -2.7560   29.3600 O   0  0  0  0  0  0  0  0  0  0  0  0
    6.5580   -3.6150   28.3710 C   0  0  0  0  0  0  0  0  0  0  0  0
    5.1180   -3.8690   27.9930 C   0  0  0  0  0  0  0  0  0  0  0  0
    5.0610   -4.7930   26.8170 C   0  0  0  0  0  0  0  0  0  0  0  0
    6.3580   -5.2850   26.2330 C   0  0  0  0  0  0  0  0  0  0  0  0
    6.0860   -6.1480   25.0850 C   0  0  0  0  0  0  0  0  0  0  0  0
    7.2620   -6.7170   24.4110 C   0  0  0  0  0  0  0  0  0  0  0  0
    6.9660   -7.8270   22.9790 Br  0  0  0  0  0  0  0  0  0  0  0  0
    8.6450   -6.3840   24.9160 C   0  0  0  0  0  0  0  0  0  0  0  0
    8.7810   -5.5010   26.0790 C   0  0  0  0  0  0  0  0  0  0  0  0
    7.5630   -4.9300   26.7580 C   0  0  0  0  0  0  0  0  0  0  0  0
    7.6450   -4.1270   27.7960 C   0  0  0  0  0  0  0  0  0  0  0  0
    6.8170   -4.4220   23.8270 C   0  0  0  0  0  0  0  0  0  0  0  0
    6.5540   -4.9760   22.4170 C   0  0  0  0  0  0  0  0  0  0  0  0
  1  2  1  0
  2  3  2  0
  2  4  1  0
  4  5  1  0
  5  6  1  0
  6  7  1  0
  7  8  1  0
  8  9  2  0
  8 10  1  0
 10 11  1  0
 11 12  1  0
 10 13  1  0
 13 14  1  0
 14 15  1  0
 15 16  1  0
 16 17  2  0
 17 18  1  0
 18 19  2  0
 19 20  1  0
 20 21  2  0
 21 22  1  0
 21 23  1  0
 23 24  2  0
 19 25  1  0
 24 25  1  0
 16 26  1  0
 25 26  2  0
  7 27  1  0
  4 28  1  0
 27 28  1  0
M  END
