piperidine-amides-24187-covalent
     RDKit          3D

 24 25  0  0  0  0  0  0  0  0999 V2000
    7.0980   -3.3050   19.2590 C   0  0  0  0  0  0  0  0  0  0  0  0
    6.3540   -4.0740   20.2680 C   0  0  0  0  0  0  0  0  0  0  0  0
    5.3190   -4.6940   19.9380 O   0  0  0  0  0  0  0  0  0  0  0  0
    6.8140   -4.1650   21.5900 N   0  0  0  0  0  0  0  0  0  0  0  0
    7.7270   -3.1480   22.0990 C   0  0  0  0  0  0  0  0  0  0  0  0
    7.5370   -3.0640   23.6150 C   0  0  0  0  0  0  0  0  0  0  0  0
    6.1320   -3.5510   23.8390 C   0  0  0  0  0  0  0  0  0  0  0  0
    5.6070   -3.2430   25.1790 C   0  0  0  0  0  0  0  0  0  0  0  0
    4.3650   -3.2420   25.3040 O   0  0  0  0  0  0  0  0  0  0  0  0
    6.4650   -2.9470   26.2660 N   0  0  0  0  0  0  0  0  0  0  0  0
    6.8010   -1.5700   26.4990 C   0  0  0  0  0  0  0  0  0  0  0  0
    5.5420   -0.7940   26.8180 C   0  0  0  0  0  0  0  0  0  0  0  0
    5.6120    0.1780   27.7760 C   0  0  0  0  0  0  0  0  0  0  0  0
    6.3990   -3.1130   27.6970 C   0  0  0  0  0  0  0  0  0  0  0  0
    5.1500   -3.6370   27.8920 C   0  0  0  0  0  0  0  0  0  0  0  0
    4.9940   -4.9660   28.0800 C   0  0  0  0  0  0  0  0  0  0  0  0
    4.3740   -5.8730   27.0480 C   0  0  0  0  0  0  0  0  0  0  0  0
    4.4500   -7.1870   27.8060 C   0  0  0  0  0  0  0  0  0  0  0  0
    4.8930   -7.8140   29.1000 C   0  0  0  0  0  0  0  0  0  0  0  0
    5.4240   -6.6780   29.8140 C   0  0  0  0  0  0  0  0  0  0  0  0
    5.9190   -6.9120   31.0660 F   0  0  0  0  0  0  0  0  0  0  0  0
    5.4550   -5.3980   29.3200 C   0  0  0  0  0  0  0  0  0  0  0  0
    6.1350   -5.0650   23.6730 C   0  0  0  0  0  0  0  0  0  0  0  0
    6.6750   -5.4140   22.3100 C   0  0  0  0  0  0  0  0  0  0  0  0
  1  2  1  0
  2  3  2  0
  2  4  1  0
  4  5  1  0
  5  6  1  0
  6  7  1  0
  7  8  1  0
  8  9  2  0
  8 10  1  0
 10 11  1  0
 11 12  1  0
 12 13  1  0
 10 14  1  0
 14 15  1  0
 15 16  1  0
 16 17  2  0
 17 18  1  0
 18 19  2  0
 19 20  1  0
 20 21  1  0
 16 22  1  0
 20 22  2  0
  7 23  1  0
  4 24  1  0
 23 24  1  0
M  END
