piperidine-amides-31256-covalent
     RDKit          3D

 23 24  0  0  0  0  0  0  0  0999 V2000
    7.0700   -3.3340   19.2890 C   0  0  0  0  0  0  0  0  0  0  0  0
    6.3850   -4.1400   20.2990 C   0  0  0  0  0  0  0  0  0  0  0  0
    5.3770   -4.7930   19.9730 O   0  0  0  0  0  0  0  0  0  0  0  0
    6.8770   -4.2160   21.6130 N   0  0  0  0  0  0  0  0  0  0  0  0
    7.7300   -3.2070   22.1990 C   0  0  0  0  0  0  0  0  0  0  0  0
    6.9510   -2.6570   23.3560 C   0  0  0  0  0  0  0  0  0  0  0  0
    6.5690   -3.7420   24.3080 C   0  0  0  0  0  0  0  0  0  0  0  0
    5.7700   -3.2270   25.4500 C   0  0  0  0  0  0  0  0  0  0  0  0
    4.5150   -3.1110   25.3190 O   0  0  0  0  0  0  0  0  0  0  0  0
    6.3090   -2.8440   26.7110 N   0  0  0  0  0  0  0  0  0  0  0  0
    6.2290   -3.8150   27.8270 C   0  0  0  0  0  0  0  0  0  0  0  0
    6.2890   -1.4030   27.0960 C   0  0  0  0  0  0  0  0  0  0  0  0
    5.9550   -0.4380   26.0440 C   0  0  0  0  0  0  0  0  0  0  0  0
    5.9250    1.0390   26.4110 C   0  0  0  0  0  0  0  0  0  0  0  0
    5.5020    2.3660   25.0890 Br  0  0  0  0  0  0  0  0  0  0  0  0
    6.2420    1.4320   27.8500 C   0  0  0  0  0  0  0  0  0  0  0  0
    6.5490    0.3070   28.7370 C   0  0  0  0  0  0  0  0  0  0  0  0
    6.5570   -0.9760   28.3550 C   0  0  0  0  0  0  0  0  0  0  0  0
    6.8640   -1.9460   29.3430 N   0  0  0  0  0  0  0  0  0  0  0  0
    5.7210   -2.2170   29.9180 O   0  0  0  0  0  0  0  0  0  0  0  0
    7.8580   -1.4970   30.1750 O   0  0  0  0  0  0  0  0  0  0  0  0
    5.7910   -4.8530   23.6250 C   0  0  0  0  0  0  0  0  0  0  0  0
    6.5900   -5.3680   22.4410 C   0  0  0  0  0  0  0  0  0  0  0  0
  1  2  1  0
  2  3  2  0
  2  4  1  0
  4  5  1  0
  5  6  1  0
  6  7  1  0
  7  8  1  0
  8  9  2  0
  8 10  1  0
 10 11  1  0
 10 12  1  0
 12 13  2  0
 13 14  1  0
 14 15  1  0
 14 16  2  0
 16 17  1  0
 12 18  1  0
 17 18  2  0
 18 19  1  0
 19 20  2  0
 19 21  1  0
  7 22  1  0
  4 23  1  0
 22 23  1  0
M  CHG  2  19   1  21  -1
M  END
