piperidine-amides-30099-covalent
     RDKit          3D

 27 29  0  0  0  0  0  0  0  0999 V2000
    7.1290   -3.2690   19.2270 C   0  0  0  0  0  0  0  0  0  0  0  0
    6.3560   -4.0250   20.2070 C   0  0  0  0  0  0  0  0  0  0  0  0
    5.2960   -4.5610   19.8890 O   0  0  0  0  0  0  0  0  0  0  0  0
    6.8660   -4.1860   21.5360 N   0  0  0  0  0  0  0  0  0  0  0  0
    7.6770   -3.1500   22.1180 C   0  0  0  0  0  0  0  0  0  0  0  0
    6.9770   -2.5710   23.3080 C   0  0  0  0  0  0  0  0  0  0  0  0
    6.6270   -3.7230   24.2260 C   0  0  0  0  0  0  0  0  0  0  0  0
    5.7710   -3.2470   25.3500 C   0  0  0  0  0  0  0  0  0  0  0  0
    4.6300   -2.7930   25.1420 O   0  0  0  0  0  0  0  0  0  0  0  0
    6.2290   -3.3110   26.6960 N   0  0  0  0  0  0  0  0  0  0  0  0
    5.5680   -4.3320   27.4780 C   0  0  0  0  0  0  0  0  0  0  0  0
    6.5300   -5.1180   28.3240 C   0  0  0  0  0  0  0  0  0  0  0  0
    6.0210   -5.9040   29.3320 C   0  0  0  0  0  0  0  0  0  0  0  0
    5.5080   -7.1740   29.0650 C   0  0  0  0  0  0  0  0  0  0  0  0
    6.4510   -2.0670   27.3880 C   0  0  0  0  0  0  0  0  0  0  0  0
    5.3430   -1.3170   27.9790 C   0  0  2  0  0  0  0  0  0  0  0  0
    5.2970    0.0790   28.0630 C   0  0  0  0  0  0  0  0  0  0  0  0
    4.8570    0.6150   29.1540 O   0  0  0  0  0  0  0  0  0  0  0  0
    4.3880    0.0870   30.3420 C   0  0  0  0  0  0  0  0  0  0  0  0
    3.9530    0.7770   31.4590 C   0  0  0  0  0  0  0  0  0  0  0  0
    3.4960   -0.0210   32.6100 C   0  0  0  0  0  0  0  0  0  0  0  0
    3.4870   -1.4200   32.6120 C   0  0  0  0  0  0  0  0  0  0  0  0
    3.9410   -2.0350   31.4480 C   0  0  0  0  0  0  0  0  0  0  0  0
    4.4040   -1.2310   30.2870 C   0  0  0  0  0  0  0  0  0  0  0  0
    4.8500   -1.9470   29.1490 O   0  0  0  0  0  0  0  0  0  0  0  0
    5.8600   -4.8450   23.5860 C   0  0  0  0  0  0  0  0  0  0  0  0
    6.5190   -5.3320   22.3140 C   0  0  0  0  0  0  0  0  0  0  0  0
  1  2  1  0
  2  3  2  0
  2  4  1  0
  4  5  1  0
  5  6  1  0
  6  7  1  0
  7  8  1  0
  8  9  2  0
  8 10  1  0
 10 11  1  0
 11 12  1  0
 12 13  1  0
 13 14  1  0
 10 15  1  0
 16 15  1  1
 16 17  1  0
 17 18  1  0
 18 19  1  0
 19 20  2  0
 20 21  1  0
 21 22  2  0
 22 23  1  0
 19 24  1  0
 23 24  2  0
 16 25  1  0
 24 25  1  0
  7 26  1  0
  4 27  1  0
 26 27  1  0
M  END
