piperidine-amides-29891-covalent
     RDKit          3D

 25 27  0  0  0  0  0  0  0  0999 V2000
    7.0160   -3.3970   19.4020 C   0  0  0  0  0  0  0  0  0  0  0  0
    6.3750   -4.2790   20.3740 C   0  0  0  0  0  0  0  0  0  0  0  0
    5.4050   -4.9480   20.0100 O   0  0  0  0  0  0  0  0  0  0  0  0
    6.8910   -4.4110   21.7220 N   0  0  0  0  0  0  0  0  0  0  0  0
    6.5360   -5.5740   22.5180 C   0  0  0  0  0  0  0  0  0  0  0  0
    6.0750   -5.2210   23.9330 C   0  0  0  0  0  0  0  0  0  0  0  0
    6.0580   -3.7100   24.0830 C   0  0  0  0  0  0  0  0  0  0  0  0
    5.4130   -3.1810   25.3430 C   0  0  0  0  0  0  0  0  0  0  0  0
    4.8120   -2.1000   25.3030 O   0  0  0  0  0  0  0  0  0  0  0  0
    5.4070   -3.8320   26.6140 N   0  0  0  0  0  0  0  0  0  0  0  0
    4.1180   -3.9020   27.2490 C   0  0  0  0  0  0  0  0  0  0  0  0
    4.3600   -4.0770   28.7370 C   0  0  0  0  0  0  0  0  0  0  0  0
    5.3880   -4.7730   29.1880 N   0  0  0  0  0  0  0  0  0  0  0  0
    5.1680   -6.3430   29.8270 S   0  0  0  0  0  0  0  0  0  0  0  0
    6.1920   -6.6360   30.8680 O   0  0  0  0  0  0  0  0  0  0  0  0
    5.1290   -7.4000   28.7840 O   0  0  0  0  0  0  0  0  0  0  0  0
    3.5710   -6.3510   30.5780 N   0  0  0  0  0  0  0  0  0  0  0  0
    3.6980   -6.0650   32.0080 C   0  0  0  0  0  0  0  0  0  0  0  0
    2.9320   -7.1090   32.5450 C   0  0  0  0  0  0  0  0  0  0  0  0
    2.4870   -7.9630   31.5670 C   0  0  0  0  0  0  0  0  0  0  0  0
    2.9110   -7.5510   30.2450 C   0  0  0  0  0  0  0  0  0  0  0  0
    6.5680   -4.6150   28.4020 C   0  0  0  0  0  0  0  0  0  0  0  0
    6.3750   -3.4980   27.5820 C   0  0  0  0  0  0  0  0  0  0  0  0
    7.3060   -3.0350   23.6800 C   0  0  0  0  0  0  0  0  0  0  0  0
    7.6330   -3.3290   22.2900 C   0  0  0  0  0  0  0  0  0  0  0  0
  1  2  1  0
  2  3  2  0
  2  4  1  0
  4  5  1  0
  5  6  1  0
  6  7  1  0
  7  8  1  0
  8  9  2  0
  8 10  1  0
 10 11  1  0
 11 12  1  0
 12 13  1  0
 14 13  1  0
 14 15  2  0
 14 16  2  0
 14 17  1  0
 17 18  1  0
 18 19  1  0
 19 20  1  0
 17 21  1  0
 20 21  1  0
 13 22  1  0
 10 23  1  0
 22 23  1  0
  7 24  1  0
  4 25  1  0
 24 25  1  0
M  END
