piperidine-amides-30466-covalent
     RDKit          3D

 26 28  0  0  0  0  0  0  0  0999 V2000
    7.1410   -3.3590   19.3090 C   0  0  0  0  0  0  0  0  0  0  0  0
    6.4060   -4.1480   20.2880 C   0  0  0  0  0  0  0  0  0  0  0  0
    5.3480   -4.7040   19.9500 O   0  0  0  0  0  0  0  0  0  0  0  0
    6.9210   -4.3350   21.5810 N   0  0  0  0  0  0  0  0  0  0  0  0
    6.5260   -5.4380   22.4120 C   0  0  0  0  0  0  0  0  0  0  0  0
    5.7750   -4.7920   23.5510 C   0  0  0  0  0  0  0  0  0  0  0  0
    6.5480   -3.6890   24.2450 C   0  0  0  0  0  0  0  0  0  0  0  0
    5.7850   -3.1200   25.3770 C   0  0  0  0  0  0  0  0  0  0  0  0
    4.5710   -2.8030   25.2090 O   0  0  0  0  0  0  0  0  0  0  0  0
    6.3280   -2.9190   26.6660 N   0  0  0  0  0  0  0  0  0  0  0  0
    6.1790   -4.0360   27.6260 C   0  0  0  0  0  0  0  0  0  0  0  0
    4.9660   -3.7560   28.4230 C   0  0  0  0  0  0  0  0  0  0  0  0
    3.8520   -4.7200   28.5790 C   0  0  0  0  0  0  0  0  0  0  0  0
    2.7120   -4.2530   29.4210 C   0  0  0  0  0  0  0  0  0  0  0  0
    2.9010   -2.8660   29.9700 C   0  0  0  0  0  0  0  0  0  0  0  0
    4.5260   -2.3490   29.3220 S   0  0  0  0  0  0  0  0  0  0  0  0
    6.3550   -1.6010   27.2310 C   0  0  0  0  0  0  0  0  0  0  0  0
    5.6670   -0.6840   26.4430 C   0  0  0  0  0  0  0  0  0  0  0  0
    5.5220    0.6570   26.7700 C   0  0  0  0  0  0  0  0  0  0  0  0
    6.1060    1.1910   28.0080 C   0  0  0  0  0  0  0  0  0  0  0  0
    5.9780    2.5020   28.3610 F   0  0  0  0  0  0  0  0  0  0  0  0
    6.8510    0.2060   28.8530 C   0  0  0  0  0  0  0  0  0  0  0  0
    7.0430   -1.2560   28.5410 C   0  0  0  0  0  0  0  0  0  0  0  0
    7.7010   -2.0580   29.3170 F   0  0  0  0  0  0  0  0  0  0  0  0
    6.9680   -2.6290   23.2850 C   0  0  0  0  0  0  0  0  0  0  0  0
    7.6470   -3.2410   22.1330 C   0  0  0  0  0  0  0  0  0  0  0  0
  1  2  1  0
  2  3  2  0
  2  4  1  0
  4  5  1  0
  5  6  1  0
  6  7  1  0
  7  8  1  0
  8  9  2  0
  8 10  1  0
 10 11  1  0
 11 12  1  0
 12 13  2  0
 13 14  1  0
 14 15  2  0
 12 16  1  0
 15 16  1  0
 10 17  1  0
 17 18  2  0
 18 19  1  0
 19 20  2  0
 20 21  1  0
 20 22  1  0
 17 23  1  0
 22 23  2  0
 23 24  1  0
  7 25  1  0
  4 26  1  0
 25 26  1  0
M  END
