piperidine-amides-34147-covalent
     RDKit          3D

 30 32  0  0  0  0  0  0  0  0999 V2000
    7.0070   -3.3550   19.4080 C   0  0  0  0  0  0  0  0  0  0  0  0
    6.3650   -4.2440   20.3910 C   0  0  0  0  0  0  0  0  0  0  0  0
    5.4140   -4.9640   20.0120 O   0  0  0  0  0  0  0  0  0  0  0  0
    6.8150   -4.3340   21.7300 N   0  0  0  0  0  0  0  0  0  0  0  0
    6.4670   -5.5170   22.5030 C   0  0  0  0  0  0  0  0  0  0  0  0
    5.8090   -5.0740   23.8360 C   0  0  0  0  0  0  0  0  0  0  0  0
    5.7910   -3.5560   23.8410 C   0  0  0  0  0  0  0  0  0  0  0  0
    5.1190   -2.9220   25.0390 C   0  0  0  0  0  0  0  0  0  0  0  0
    4.5520   -1.8390   24.8570 O   0  0  0  0  0  0  0  0  0  0  0  0
    5.1040   -3.5050   26.3290 N   0  0  0  0  0  0  0  0  0  0  0  0
    6.1680   -4.2530   26.5150 C   0  0  0  0  0  0  0  0  0  0  0  0
    5.9590   -5.1220   27.7050 C   0  0  0  0  0  0  0  0  0  0  0  0
    5.9440   -4.5710   28.9420 C   0  0  0  0  0  0  0  0  0  0  0  0
    5.4250   -5.4930   29.8590 N   0  0  0  0  0  0  0  0  0  0  0  0
    5.8160   -6.8160   29.6310 C   0  0  0  0  0  0  0  0  0  0  0  0
    5.3730   -7.5450   30.7160 C   0  0  0  0  0  0  0  0  0  0  0  0
    4.7930   -6.8040   31.7820 N   0  0  0  0  0  0  0  0  0  0  0  0
    5.1230   -7.1150   33.1580 C   0  0  0  0  0  0  0  0  0  0  0  0
    4.1550   -7.6270   33.9560 O   0  0  0  0  0  0  0  0  0  0  0  0
    6.3850   -6.9040   33.6600 O   0  0  0  0  0  0  0  0  0  0  0  0
    6.6570   -7.0170   35.0570 C   0  0  0  0  0  0  0  0  0  0  0  0
    5.6950   -6.2220   35.9090 C   0  0  0  0  0  0  0  0  0  0  0  0
    7.3360   -8.1860   35.6160 C   0  0  0  0  0  0  0  0  0  0  0  0
    7.9950   -6.8760   35.5510 C   0  0  0  0  0  0  0  0  0  0  0  0
    3.8530   -5.8660   31.5040 C   0  0  0  0  0  0  0  0  0  0  0  0
    4.0380   -5.4110   30.2260 C   0  0  0  0  0  0  0  0  0  0  0  0
    5.0680   -3.3580   28.8830 C   0  0  0  0  0  0  0  0  0  0  0  0
    4.9680   -2.7040   27.4980 C   0  0  0  0  0  0  0  0  0  0  0  0
    7.1220   -2.9320   23.5730 C   0  0  0  0  0  0  0  0  0  0  0  0
    7.5710   -3.2330   22.3060 C   0  0  0  0  0  0  0  0  0  0  0  0
  1  2  1  0
  2  3  2  0
  2  4  1  0
  4  5  1  0
  5  6  1  0
  6  7  1  0
  7  8  1  0
  8  9  2  0
  8 10  1  0
 10 11  1  0
 11 12  1  0
 12 13  1  0
 13 14  1  0
 14 15  1  0
 15 16  1  0
 16 17  1  0
 17 18  1  0
 18 19  2  0
 18 20  1  0
 21 20  1  0
 21 22  1  0
 21 23  1  0
 21 24  1  0
 17 25  1  0
 14 26  1  0
 25 26  1  0
 13 27  1  0
 10 28  1  0
 27 28  1  0
  7 29  1  0
  4 30  1  0
 29 30  1  0
M  END
