piperidine-amides-34302-covalent
     RDKit          3D

 23 25  0  0  0  0  0  0  0  0999 V2000
    7.0820   -3.3440   19.4260 C   0  0  0  0  0  0  0  0  0  0  0  0
    6.4350   -4.2330   20.4060 C   0  0  0  0  0  0  0  0  0  0  0  0
    5.4660   -4.9410   20.0210 O   0  0  0  0  0  0  0  0  0  0  0  0
    6.9140   -4.3260   21.7370 N   0  0  0  0  0  0  0  0  0  0  0  0
    7.7870   -3.3150   22.2740 C   0  0  0  0  0  0  0  0  0  0  0  0
    7.0030   -2.6470   23.4020 C   0  0  0  0  0  0  0  0  0  0  0  0
    6.4960   -3.6830   24.4080 C   0  0  0  0  0  0  0  0  0  0  0  0
    5.4470   -2.9540   25.1910 C   0  0  0  0  0  0  0  0  0  0  0  0
    4.5510   -2.4160   24.5410 O   0  0  0  0  0  0  0  0  0  0  0  0
    5.4270   -2.8060   26.6100 N   0  0  0  0  0  0  0  0  0  0  0  0
    5.6510   -1.4890   27.2180 C   0  0  0  0  0  0  0  0  0  0  0  0
    5.9330   -1.4210   28.7190 C   0  0  0  0  0  0  0  0  0  0  0  0
    6.1780   -0.2140   29.3020 C   0  0  0  0  0  0  0  0  0  0  0  0
    6.1680    0.9410   28.5750 C   0  0  0  0  0  0  0  0  0  0  0  0
    5.9060    0.9170   27.2090 C   0  0  0  0  0  0  0  0  0  0  0  0
    5.6440   -0.2010   26.4540 C   0  0  0  0  0  0  0  0  0  0  0  0
    5.2880    0.0370   24.3940 I   0  0  0  0  0  0  0  0  0  0  0  0
    5.2840   -3.9990   27.4710 C   0  0  0  0  0  0  0  0  0  0  0  0
    4.1860   -4.7540   27.0920 C   0  0  0  0  0  0  0  0  0  0  0  0
    4.9050   -6.0350   27.2900 C   0  0  0  0  0  0  0  0  0  0  0  0
    6.1800   -5.0920   27.2370 C   0  0  0  0  0  0  0  0  0  0  0  0
    5.8260   -4.8870   23.7350 C   0  0  0  0  0  0  0  0  0  0  0  0
    6.4590   -5.3520   22.6000 C   0  0  0  0  0  0  0  0  0  0  0  0
  1  2  1  0
  2  3  2  0
  2  4  1  0
  4  5  1  0
  5  6  1  0
  6  7  1  0
  7  8  1  0
  8  9  2  0
  8 10  1  0
 10 11  1  0
 11 12  2  0
 12 13  1  0
 13 14  2  0
 14 15  1  0
 11 16  1  0
 15 16  2  0
 16 17  1  0
 10 18  1  0
 18 19  1  0
 19 20  1  0
 18 21  1  0
 20 21  1  0
  7 22  1  0
  4 23  1  0
 22 23  1  0
M  END
