piperidine-amides-34845-covalent
     RDKit          3D

 29 31  0  0  0  0  0  0  0  0999 V2000
    7.0680   -3.3370   19.3610 C   0  0  0  0  0  0  0  0  0  0  0  0
    6.4300   -4.2110   20.3730 C   0  0  0  0  0  0  0  0  0  0  0  0
    5.4400   -4.8480   19.9970 O   0  0  0  0  0  0  0  0  0  0  0  0
    6.9810   -4.3250   21.6660 N   0  0  0  0  0  0  0  0  0  0  0  0
    7.7160   -3.2270   22.2760 C   0  0  0  0  0  0  0  0  0  0  0  0
    7.0700   -2.8580   23.5910 C   0  0  0  0  0  0  0  0  0  0  0  0
    5.7090   -3.5490   23.6420 C   0  0  0  0  0  0  0  0  0  0  0  0
    4.7930   -3.0690   24.7220 C   0  0  0  0  0  0  0  0  0  0  0  0
    3.5870   -3.1480   24.5030 O   0  0  0  0  0  0  0  0  0  0  0  0
    5.1570   -2.5210   25.9680 N   0  0  0  0  0  0  0  0  0  0  0  0
    6.3000   -1.6180   26.0570 C   0  0  0  0  0  0  0  0  0  0  0  0
    6.3860   -0.8910   27.2050 C   0  0  0  0  0  0  0  0  0  0  0  0
    5.8870   -0.0820   26.1860 C   0  0  0  0  0  0  0  0  0  0  0  0
    4.7820   -3.1510   27.1770 C   0  0  1  0  0  0  0  0  0  0  0  0
    4.2670   -4.4340   27.1980 C   0  0  0  0  0  0  0  0  0  0  0  0
    4.2060   -5.1750   28.3390 O   0  0  0  0  0  0  0  0  0  0  0  0
    3.7950   -4.9270   26.0000 O   0  0  0  0  0  0  0  0  0  0  0  0
    3.7410   -6.3090   25.7040 C   0  0  0  0  0  0  0  0  0  0  0  0
    3.8380   -7.1630   26.9260 C   0  0  0  0  0  0  0  0  0  0  0  0
    6.0850   -3.6280   27.5080 C   0  0  0  0  0  0  0  0  0  0  0  0
    6.3240   -4.9130   26.7960 C   0  0  0  0  0  0  0  0  0  0  0  0
    7.5890   -5.5240   26.9720 C   0  0  0  0  0  0  0  0  0  0  0  0
    8.5290   -4.8200   27.8220 C   0  0  0  0  0  0  0  0  0  0  0  0
   10.0030   -5.4130   28.0710 Cl  0  0  0  0  0  0  0  0  0  0  0  0
    8.2220   -3.5820   28.4720 C   0  0  0  0  0  0  0  0  0  0  0  0
    6.9310   -2.9410   28.3340 C   0  0  0  0  0  0  0  0  0  0  0  0
    6.6310   -1.4260   29.1940 Cl  0  0  0  0  0  0  0  0  0  0  0  0
    5.9560   -5.0350   23.7150 C   0  0  0  0  0  0  0  0  0  0  0  0
    6.6180   -5.4790   22.4350 C   0  0  0  0  0  0  0  0  0  0  0  0
  1  2  1  0
  2  3  2  0
  2  4  1  0
  4  5  1  0
  5  6  1  0
  6  7  1  0
  7  8  1  0
  8  9  2  0
  8 10  1  0
 10 11  1  0
 11 12  1  0
 11 13  1  0
 12 13  1  0
 10 14  1  0
 14 15  1  6
 15 16  2  0
 15 17  1  0
 17 18  1  0
 18 19  1  0
 14 20  1  0
 20 21  2  0
 21 22  1  0
 22 23  2  0
 23 24  1  0
 23 25  1  0
 20 26  1  0
 25 26  2  0
 26 27  1  0
  7 28  1  0
  4 29  1  0
 28 29  1  0
M  END
