piperidine-amides-29314-covalent
     RDKit          3D

 26 28  0  0  0  0  0  0  0  0999 V2000
    7.0290   -3.3490   19.3750 C   0  0  0  0  0  0  0  0  0  0  0  0
    6.3820   -4.2230   20.3510 C   0  0  0  0  0  0  0  0  0  0  0  0
    5.3720   -4.8480   19.9830 O   0  0  0  0  0  0  0  0  0  0  0  0
    6.9210   -4.3890   21.6570 N   0  0  0  0  0  0  0  0  0  0  0  0
    6.4400   -5.4940   22.4240 C   0  0  0  0  0  0  0  0  0  0  0  0
    5.5350   -4.9490   23.4890 C   0  0  0  0  0  0  0  0  0  0  0  0
    6.3980   -4.0870   24.3850 C   0  0  0  0  0  0  0  0  0  0  0  0
    5.5730   -3.5570   25.5460 C   0  0  0  0  0  0  0  0  0  0  0  0
    4.5130   -3.0590   25.1860 O   0  0  0  0  0  0  0  0  0  0  0  0
    5.9570   -3.6210   26.9200 N   0  0  0  0  0  0  0  0  0  0  0  0
    6.3850   -4.8180   27.5390 C   0  0  0  0  0  0  0  0  0  0  0  0
    5.6440   -5.0090   28.6520 C   0  0  0  0  0  0  0  0  0  0  0  0
    4.8940   -3.8810   28.8170 C   0  0  0  0  0  0  0  0  0  0  0  0
    5.0380   -2.9040   27.8180 C   0  0  1  0  0  0  0  0  0  0  0  0
    5.6080   -1.7560   28.5920 C   0  0  0  0  0  0  0  0  0  0  0  0
    7.0460   -1.9520   29.1180 C   0  0  0  0  0  0  0  0  0  0  0  0
    7.7500   -0.9140   29.9060 C   0  0  0  0  0  0  0  0  0  0  0  0
    6.9510    0.3200   30.1430 C   0  0  0  0  0  0  0  0  0  0  0  0
    5.5230    0.4440   29.5870 C   0  0  0  0  0  0  0  0  0  0  0  0
    4.8140   -0.4740   28.8530 C   0  0  0  0  0  0  0  0  0  0  0  0
    3.5250   -0.2400   28.4120 C   0  0  0  0  0  0  0  0  0  0  0  0
    2.9960    0.9860   28.7390 F   0  0  0  0  0  0  0  0  0  0  0  0
    3.3230   -0.1410   27.0730 F   0  0  0  0  0  0  0  0  0  0  0  0
    2.6510   -1.2050   28.7370 F   0  0  0  0  0  0  0  0  0  0  0  0
    7.0180   -2.9330   23.6450 C   0  0  0  0  0  0  0  0  0  0  0  0
    7.6350   -3.3350   22.3280 C   0  0  0  0  0  0  0  0  0  0  0  0
  1  2  1  0
  2  3  2  0
  2  4  1  0
  4  5  1  0
  5  6  1  0
  6  7  1  0
  7  8  1  0
  8  9  2  0
  8 10  1  0
 10 11  1  0
 11 12  1  0
 12 13  1  0
 10 14  1  0
 13 14  1  0
 14 15  1  1
 15 16  2  0
 16 17  1  0
 17 18  2  0
 18 19  1  0
 15 20  1  0
 19 20  2  0
 20 21  1  0
 21 22  1  0
 21 23  1  0
 21 24  1  0
  7 25  1  0
  4 26  1  0
 25 26  1  0
M  END
