piperidine-amides-4651-covalent
     RDKit          3D

 24 26  0  0  0  0  0  0  0  0999 V2000
    7.0700   -3.3320   19.3380 C   0  0  0  0  0  0  0  0  0  0  0  0
    6.3950   -4.1800   20.3470 C   0  0  0  0  0  0  0  0  0  0  0  0
    5.3710   -4.7850   19.9690 O   0  0  0  0  0  0  0  0  0  0  0  0
    6.9220   -4.3240   21.6440 N   0  0  0  0  0  0  0  0  0  0  0  0
    7.6790   -3.2650   22.2390 C   0  0  0  0  0  0  0  0  0  0  0  0
    7.2170   -2.9130   23.5700 C   0  0  0  0  0  0  0  0  0  0  0  0
    5.9640   -3.5940   23.9410 C   0  0  0  0  0  0  0  0  0  0  0  0
    5.5880   -3.2400   25.3280 C   0  0  0  0  0  0  0  0  0  0  0  0
    4.3800   -3.2440   25.6290 O   0  0  0  0  0  0  0  0  0  0  0  0
    6.5630   -2.9000   26.2730 N   0  0  0  0  0  0  0  0  0  0  0  0
    6.5030   -1.6650   27.0780 C   0  0  0  0  0  0  0  0  0  0  0  0
    7.0120   -1.5780   28.4670 C   0  0  0  0  0  0  0  0  0  0  0  0
    6.9570   -0.3760   29.2750 C   0  0  0  0  0  0  0  0  0  0  0  0
    6.4040    0.7780   28.7510 C   0  0  0  0  0  0  0  0  0  0  0  0
    6.3310    1.9400   29.4850 C   0  0  0  0  0  0  0  0  0  0  0  0
    7.2600    2.6320   30.0510 O   0  0  0  0  0  0  0  0  0  0  0  0
    6.6640    3.7460   30.6840 C   0  0  0  0  0  0  0  0  0  0  0  0
    5.2290    3.7720   30.5090 N   0  0  0  0  0  0  0  0  0  0  0  0
    5.0560    2.6010   29.7370 C   0  0  0  0  0  0  0  0  0  0  0  0
    3.8760    2.1030   29.2620 C   0  0  0  0  0  0  0  0  0  0  0  0
    5.9020    0.8120   27.4640 C   0  0  0  0  0  0  0  0  0  0  0  0
    5.9120   -0.3590   26.5630 C   0  0  0  0  0  0  0  0  0  0  0  0
    5.9980   -5.0770   23.7670 C   0  0  0  0  0  0  0  0  0  0  0  0
    6.6250   -5.4840   22.4560 C   0  0  0  0  0  0  0  0  0  0  0  0
  1  2  1  0
  2  3  2  0
  2  4  1  0
  4  5  1  0
  5  6  1  0
  6  7  1  0
  7  8  1  0
  8  9  2  0
  8 10  1  0
 10 11  1  0
 11 12  2  0
 12 13  1  0
 13 14  2  0
 14 15  1  0
 15 16  1  0
 16 17  1  0
 17 18  2  0
 15 19  2  0
 18 19  1  0
 19 20  1  0
 14 21  1  0
 11 22  1  0
 21 22  2  0
  7 23  1  0
  4 24  1  0
 23 24  1  0
M  END
