piperidine-amides-23539-covalent
     RDKit          3D

 23 24  0  0  0  0  0  0  0  0999 V2000
    7.0810   -3.3050   19.2890 C   0  0  0  0  0  0  0  0  0  0  0  0
    6.3560   -4.0920   20.3030 C   0  0  0  0  0  0  0  0  0  0  0  0
    5.3130   -4.6730   19.9270 O   0  0  0  0  0  0  0  0  0  0  0  0
    6.8400   -4.2360   21.6320 N   0  0  0  0  0  0  0  0  0  0  0  0
    7.6380   -3.2060   22.1960 C   0  0  0  0  0  0  0  0  0  0  0  0
    7.4000   -3.0630   23.6170 C   0  0  0  0  0  0  0  0  0  0  0  0
    6.0960   -3.6310   24.0060 C   0  0  0  0  0  0  0  0  0  0  0  0
    5.7130   -3.2830   25.4210 C   0  0  0  0  0  0  0  0  0  0  0  0
    4.4990   -3.1770   25.6830 O   0  0  0  0  0  0  0  0  0  0  0  0
    6.6510   -3.0460   26.4570 N   0  0  0  0  0  0  0  0  0  0  0  0
    7.1010   -1.7830   26.8540 C   0  0  0  0  0  0  0  0  0  0  0  0
    6.8110   -1.1380   28.0060 C   0  0  0  0  0  0  0  0  0  0  0  0
    6.0530   -0.6390   26.7170 C   0  0  0  0  0  0  0  0  0  0  0  0
    7.1290   -4.1390   27.2530 C   0  0  2  0  0  0  0  0  0  0  0  0
    8.0220   -5.1140   26.4760 C   0  0  0  0  0  0  0  0  0  0  0  0
    8.5660   -5.5940   27.7650 C   0  0  0  0  0  0  0  0  0  0  0  0
    7.8990   -6.5710   28.3630 N   0  0  0  0  0  0  0  0  0  0  0  0
    6.0810   -5.1740   27.5210 C   0  0  0  0  0  0  0  0  0  0  0  0
    6.0710   -6.2760   26.7310 F   0  0  0  0  0  0  0  0  0  0  0  0
    4.8240   -4.6010   27.3580 F   0  0  0  0  0  0  0  0  0  0  0  0
    6.0920   -5.5700   28.8530 F   0  0  0  0  0  0  0  0  0  0  0  0
    5.9110   -5.1080   23.6990 C   0  0  0  0  0  0  0  0  0  0  0  0
    6.6150   -5.4570   22.3810 C   0  0  0  0  0  0  0  0  0  0  0  0
  1  2  1  0
  2  3  2  0
  2  4  1  0
  4  5  1  0
  5  6  1  0
  6  7  1  0
  7  8  1  0
  8  9  2  0
  8 10  1  0
 10 11  1  0
 11 12  1  0
 11 13  1  0
 12 13  1  0
 10 14  1  0
 14 15  1  6
 15 16  1  0
 16 17  3  0
 14 18  1  0
 18 19  1  0
 18 20  1  0
 18 21  1  0
  7 22  1  0
  4 23  1  0
 22 23  1  0
M  END
