piperidine-amides-30100-covalent
     RDKit          3D

 27 30  0  0  0  0  0  0  0  0999 V2000
    7.0470   -3.3490   19.2940 C   0  0  0  0  0  0  0  0  0  0  0  0
    6.3510   -4.1820   20.2640 C   0  0  0  0  0  0  0  0  0  0  0  0
    5.3130   -4.7550   19.9500 O   0  0  0  0  0  0  0  0  0  0  0  0
    6.9090   -4.3950   21.5680 N   0  0  0  0  0  0  0  0  0  0  0  0
    7.6680   -3.3450   22.2110 C   0  0  0  0  0  0  0  0  0  0  0  0
    7.3080   -3.3020   23.6590 C   0  0  0  0  0  0  0  0  0  0  0  0
    5.9280   -3.8680   23.7320 C   0  0  0  0  0  0  0  0  0  0  0  0
    5.2820   -3.5930   25.0300 C   0  0  0  0  0  0  0  0  0  0  0  0
    4.0470   -3.6060   25.1480 O   0  0  0  0  0  0  0  0  0  0  0  0
    6.0290   -3.2850   26.1670 N   0  0  0  0  0  0  0  0  0  0  0  0
    5.5070   -2.1160   26.7580 C   0  0  0  0  0  0  0  0  0  0  0  0
    5.1740   -2.6170   28.0860 C   0  0  2  0  0  0  0  0  0  0  0  0
    5.1570   -1.6550   29.0680 C   0  0  0  0  0  0  0  0  0  0  0  0
    6.4680   -1.6270   29.4610 C   0  0  0  0  0  0  0  0  0  0  0  0
    7.0440   -2.6520   28.7580 C   0  0  0  0  0  0  0  0  0  0  0  0
    6.0540   -3.6310   28.3910 C   0  0  1  0  0  0  0  0  0  0  0  0
    5.3220   -4.3620   29.2480 C   0  0  0  0  0  0  0  0  0  0  0  0
    5.7290   -5.5950   29.2780 N   0  0  0  0  0  0  0  0  0  0  0  0
    4.8270   -6.1120   30.1950 C   0  0  0  0  0  0  0  0  0  0  0  0
    4.9010   -7.4080   30.5230 C   0  0  0  0  0  0  0  0  0  0  0  0
    6.1350   -8.0140   30.0570 C   0  0  0  0  0  0  0  0  0  0  0  0
    3.7690   -7.7730   29.5650 C   0  0  0  0  0  0  0  0  0  0  0  0
    3.9820   -5.1840   30.6330 N   0  0  0  0  0  0  0  0  0  0  0  0
    4.2890   -4.0390   30.0300 O   0  0  0  0  0  0  0  0  0  0  0  0
    6.3550   -4.2740   27.1850 C   0  0  0  0  0  0  0  0  0  0  0  0
    5.9800   -5.3540   23.5360 C   0  0  0  0  0  0  0  0  0  0  0  0
    6.7320   -5.6640   22.2370 C   0  0  0  0  0  0  0  0  0  0  0  0
  1  2  1  0
  2  3  2  0
  2  4  1  0
  4  5  1  0
  5  6  1  0
  6  7  1  0
  7  8  1  0
  8  9  2  0
  8 10  1  0
 10 11  1  0
 12 11  1  6
 12 13  1  0
 13 14  1  0
 14 15  1  0
 12 16  1  0
 15 16  1  0
 16 17  1  1
 17 18  2  0
 18 19  1  0
 19 20  1  0
 20 21  1  0
 20 22  1  0
 19 23  2  0
 17 24  1  0
 23 24  1  0
 10 25  1  0
 16 25  1  0
  7 26  1  0
  4 27  1  0
 26 27  1  0
M  END
