piperidine-amides-14581-covalent
     RDKit          3D

 23 25  0  0  0  0  0  0  0  0999 V2000
    7.0570   -3.3050   19.2790 C   0  0  0  0  0  0  0  0  0  0  0  0
    6.3730   -4.1140   20.2900 C   0  0  0  0  0  0  0  0  0  0  0  0
    5.3470   -4.7310   19.9480 O   0  0  0  0  0  0  0  0  0  0  0  0
    6.8960   -4.2230   21.6050 N   0  0  0  0  0  0  0  0  0  0  0  0
    7.6710   -3.1470   22.1620 C   0  0  0  0  0  0  0  0  0  0  0  0
    6.9730   -2.6040   23.3690 C   0  0  0  0  0  0  0  0  0  0  0  0
    6.5910   -3.7910   24.2210 C   0  0  0  0  0  0  0  0  0  0  0  0
    5.7600   -3.3400   25.3930 C   0  0  0  0  0  0  0  0  0  0  0  0
    4.5540   -3.2300   25.1790 O   0  0  0  0  0  0  0  0  0  0  0  0
    6.3790   -3.0750   26.6200 N   0  0  0  0  0  0  0  0  0  0  0  0
    6.2160   -3.9220   27.7660 C   0  0  0  0  0  0  0  0  0  0  0  0
    5.0910   -3.6490   28.5530 C   0  0  0  0  0  0  0  0  0  0  0  0
    4.4080   -2.4500   28.4430 C   0  0  0  0  0  0  0  0  0  0  0  0
    3.2720   -2.1050   29.1970 C   0  0  0  0  0  0  0  0  0  0  0  0
    2.7790   -3.1260   30.1890 C   0  0  0  0  0  0  0  0  0  0  0  0
    3.5690   -4.4340   30.2740 C   0  0  0  0  0  0  0  0  0  0  0  0
    3.3100   -5.5210   31.1090 N   0  0  0  0  0  0  0  0  0  0  0  0
    4.3860   -6.3770   30.7000 C   0  0  0  0  0  0  0  0  0  0  0  0
    5.2520   -5.8000   29.6520 N   0  0  0  0  0  0  0  0  0  0  0  0
    6.4240   -6.3290   28.9850 C   0  0  0  0  0  0  0  0  0  0  0  0
    4.6550   -4.5980   29.4610 C   0  0  0  0  0  0  0  0  0  0  0  0
    5.7200   -4.7390   23.4180 C   0  0  0  0  0  0  0  0  0  0  0  0
    6.5280   -5.3180   22.4630 C   0  0  0  0  0  0  0  0  0  0  0  0
  1  2  1  0
  2  3  2  0
  2  4  1  0
  4  5  1  0
  5  6  1  0
  6  7  1  0
  7  8  1  0
  8  9  2  0
  8 10  1  0
 10 11  1  0
 11 12  1  0
 12 13  2  0
 13 14  1  0
 14 15  2  0
 15 16  1  0
 16 17  1  0
 17 18  2  0
 18 19  1  0
 19 20  1  0
 12 21  1  0
 16 21  2  0
 19 21  1  0
  7 22  1  0
  4 23  1  0
 22 23  1  0
M  END
