piperidine-amides-3885-covalent
     RDKit          3D

 20 21  0  0  0  0  0  0  0  0999 V2000
    7.1030   -3.3140   19.2170 C   0  0  0  0  0  0  0  0  0  0  0  0
    6.3820   -4.0980   20.2310 C   0  0  0  0  0  0  0  0  0  0  0  0
    5.2790   -4.5850   19.8950 O   0  0  0  0  0  0  0  0  0  0  0  0
    6.9410   -4.3570   21.5030 N   0  0  0  0  0  0  0  0  0  0  0  0
    7.6380   -3.2890   22.1370 C   0  0  0  0  0  0  0  0  0  0  0  0
    7.1800   -2.9400   23.4760 C   0  0  0  0  0  0  0  0  0  0  0  0
    6.4400   -3.9840   24.2110 C   0  0  0  0  0  0  0  0  0  0  0  0
    5.7040   -3.3650   25.3570 C   0  0  0  0  0  0  0  0  0  0  0  0
    4.4620   -3.2770   25.3140 O   0  0  0  0  0  0  0  0  0  0  0  0
    6.3950   -2.8880   26.4830 N   0  0  0  0  0  0  0  0  0  0  0  0
    6.4850   -1.5810   27.0220 C   0  0  2  0  0  0  0  0  0  0  0  0
    6.3360   -1.4440   28.4710 C   0  0  0  0  0  0  0  0  0  0  0  0
    6.8640   -0.0790   28.9160 C   0  0  0  0  0  0  0  0  0  0  0  0
    5.9420    0.7250   29.5320 C   0  0  0  0  0  0  0  0  0  0  0  0
    5.0300    0.5860   28.3160 C   0  0  0  0  0  0  0  0  0  0  0  0
    6.2170    0.0680   27.5680 C   0  0  0  0  0  0  0  0  0  0  0  0
    5.2170   -0.7030   26.7110 C   0  0  1  0  0  0  0  0  0  0  0  0
    5.0680   -0.6020   25.3280 O   0  0  0  0  0  0  0  0  0  0  0  0
    5.5550   -4.8650   23.3730 C   0  0  0  0  0  0  0  0  0  0  0  0
    6.4390   -5.4490   22.2940 C   0  0  0  0  0  0  0  0  0  0  0  0
  1  2  1  0
  2  3  2  0
  2  4  1  0
  4  5  1  0
  5  6  1  0
  6  7  1  0
  7  8  1  0
  8  9  2  0
  8 10  1  0
 11 10  1  1
 11 12  1  0
 12 13  1  0
 13 14  1  0
 14 15  1  0
 15 16  1  0
 11 17  1  0
 16 17  1  0
 17 18  1  6
  7 19  1  0
  4 20  1  0
 19 20  1  0
M  END
