piperidine-amides-34058-covalent
     RDKit          3D

 29 30  0  0  0  0  0  0  0  0999 V2000
    7.0430   -3.3180   19.2820 C   0  0  0  0  0  0  0  0  0  0  0  0
    6.3560   -4.1480   20.2860 C   0  0  0  0  0  0  0  0  0  0  0  0
    5.3510   -4.8170   19.9680 O   0  0  0  0  0  0  0  0  0  0  0  0
    6.8350   -4.2420   21.5970 N   0  0  0  0  0  0  0  0  0  0  0  0
    6.7320   -5.5080   22.2870 C   0  0  0  0  0  0  0  0  0  0  0  0
    5.9680   -5.2640   23.5950 C   0  0  0  0  0  0  0  0  0  0  0  0
    6.1050   -3.7930   23.9260 C   0  0  0  0  0  0  0  0  0  0  0  0
    5.6780   -3.5200   25.3170 C   0  0  0  0  0  0  0  0  0  0  0  0
    4.4670   -3.2470   25.4560 O   0  0  0  0  0  0  0  0  0  0  0  0
    6.5170   -3.5360   26.4740 N   0  0  0  0  0  0  0  0  0  0  0  0
    5.9130   -2.9540   27.6320 C   0  0  0  0  0  0  0  0  0  0  0  0
    5.5810   -4.1350   28.4710 C   0  0  2  0  0  0  0  0  0  0  0  0
    4.8710   -3.7320   29.6640 N   0  0  0  0  0  0  0  0  0  0  0  0
    4.1000   -4.6900   30.4380 C   0  0  0  0  0  0  0  0  0  0  0  0
    2.8940   -4.3530   30.6130 O   0  0  0  0  0  0  0  0  0  0  0  0
    4.6000   -5.8190   30.9290 O   0  0  0  0  0  0  0  0  0  0  0  0
    4.8370   -7.0990   30.7460 C   0  0  0  0  0  0  0  0  0  0  0  0
    5.3340   -7.6200   31.9440 C   0  0  0  0  0  0  0  0  0  0  0  0
    5.7690   -7.1920   29.7480 C   0  0  0  0  0  0  0  0  0  0  0  0
    3.8180   -7.8430   30.1890 C   0  0  0  0  0  0  0  0  0  0  0  0
    7.0100   -4.7340   28.5810 C   0  0  0  0  0  0  0  0  0  0  0  0
    7.1370   -5.6660   27.4260 C   0  0  0  0  0  0  0  0  0  0  0  0
    7.6500   -4.3820   26.9010 C   0  0  1  0  0  0  0  0  0  0  0  0
    8.5260   -4.7760   25.8880 C   0  0  0  0  0  0  0  0  0  0  0  0
    9.1530   -3.7300   25.2950 F   0  0  0  0  0  0  0  0  0  0  0  0
    8.0460   -5.6020   24.9160 F   0  0  0  0  0  0  0  0  0  0  0  0
    9.5000   -5.5070   26.5330 F   0  0  0  0  0  0  0  0  0  0  0  0
    7.5240   -3.3180   23.6570 C   0  0  0  0  0  0  0  0  0  0  0  0
    7.6500   -3.1860   22.1660 C   0  0  0  0  0  0  0  0  0  0  0  0
  1  2  1  0
  2  3  2  0
  2  4  1  0
  4  5  1  0
  5  6  1  0
  6  7  1  0
  7  8  1  0
  8  9  2  0
  8 10  1  0
 10 11  1  0
 11 12  1  0
 12 13  1  1
 13 14  1  0
 14 15  2  0
 14 16  1  0
 17 16  1  0
 17 18  1  0
 17 19  1  0
 17 20  1  0
 12 21  1  0
 21 22  1  0
 10 23  1  0
 22 23  1  0
 23 24  1  6
 24 25  1  0
 24 26  1  0
 24 27  1  0
  7 28  1  0
  4 29  1  0
 28 29  1  0
M  END
