piperidine-amides-14932-covalent
     RDKit          3D

 21 22  0  0  0  0  0  0  0  0999 V2000
    7.0340   -3.3230   19.3040 C   0  0  0  0  0  0  0  0  0  0  0  0
    6.3510   -4.1520   20.2980 C   0  0  0  0  0  0  0  0  0  0  0  0
    5.3320   -4.7690   19.9530 O   0  0  0  0  0  0  0  0  0  0  0  0
    6.8770   -4.2850   21.6070 N   0  0  0  0  0  0  0  0  0  0  0  0
    6.5510   -5.4590   22.3670 C   0  0  0  0  0  0  0  0  0  0  0  0
    5.7400   -5.0600   23.5570 C   0  0  0  0  0  0  0  0  0  0  0  0
    6.4990   -3.9180   24.1820 C   0  0  0  0  0  0  0  0  0  0  0  0
    5.7460   -3.3700   25.3640 C   0  0  0  0  0  0  0  0  0  0  0  0
    4.5140   -3.3170   25.3070 O   0  0  0  0  0  0  0  0  0  0  0  0
    6.4880   -2.9650   26.4550 N   0  0  0  0  0  0  0  0  0  0  0  0
    6.4290   -1.6640   27.0250 C   0  0  0  0  0  0  0  0  0  0  0  0
    6.0990   -0.4190   26.4520 C   0  0  0  0  0  0  0  0  0  0  0  0
    6.0950    0.7740   27.1630 C   0  0  0  0  0  0  0  0  0  0  0  0
    5.8020    2.0580   26.7480 C   0  0  0  0  0  0  0  0  0  0  0  0
    6.4750    0.7630   28.6830 C   0  0  0  0  0  0  0  0  0  0  0  0
    6.4710    2.0960   29.4600 C   0  0  0  0  0  0  0  0  0  0  0  0
    6.8090   -0.4040   29.3170 C   0  0  0  0  0  0  0  0  0  0  0  0
    6.7830   -1.6320   28.4860 C   0  0  0  0  0  0  0  0  0  0  0  0
    7.0710   -2.8960   28.9340 F   0  0  0  0  0  0  0  0  0  0  0  0
    6.8360   -2.8070   23.2890 C   0  0  0  0  0  0  0  0  0  0  0  0
    7.6360   -3.2310   22.2580 C   0  0  0  0  0  0  0  0  0  0  0  0
  1  2  1  0
  2  3  2  0
  2  4  1  0
  4  5  1  0
  5  6  1  0
  6  7  1  0
  7  8  1  0
  8  9  2  0
  8 10  1  0
 10 11  1  0
 11 12  2  0
 12 13  1  0
 13 14  1  0
 13 15  2  0
 15 16  1  0
 15 17  1  0
 11 18  1  0
 17 18  2  0
 18 19  1  0
  7 20  1  0
  4 21  1  0
 20 21  1  0
M  END
