piperidine-amides-11941-covalent
     RDKit          3D

 26 27  0  0  0  0  0  0  0  0999 V2000
    7.1430   -3.2770   19.1420 C   0  0  0  0  0  0  0  0  0  0  0  0
    6.3740   -4.0160   20.1350 C   0  0  0  0  0  0  0  0  0  0  0  0
    5.2670   -4.4630   19.8530 O   0  0  0  0  0  0  0  0  0  0  0  0
    6.9450   -4.2900   21.4150 N   0  0  0  0  0  0  0  0  0  0  0  0
    7.7010   -3.2760   22.1080 C   0  0  0  0  0  0  0  0  0  0  0  0
    6.9130   -2.7820   23.2710 C   0  0  0  0  0  0  0  0  0  0  0  0
    6.4870   -3.9980   24.0700 C   0  0  0  0  0  0  0  0  0  0  0  0
    5.5860   -3.5600   25.1420 C   0  0  0  0  0  0  0  0  0  0  0  0
    4.4460   -3.1030   24.9360 O   0  0  0  0  0  0  0  0  0  0  0  0
    6.0570   -3.6660   26.4420 N   0  0  0  0  0  0  0  0  0  0  0  0
    6.3530   -2.4480   27.1050 C   0  0  0  0  0  0  0  0  0  0  0  0
    6.5100   -2.7760   28.5470 C   0  0  1  0  0  0  0  0  0  0  0  0
    6.0410   -1.7510   29.3460 C   0  0  0  0  0  0  0  0  0  0  0  0
    6.9610   -0.8510   29.9130 C   0  0  0  0  0  0  0  0  0  0  0  0
    8.1490   -0.5170   29.2580 C   0  0  0  0  0  0  0  0  0  0  0  0
    9.0670    0.4130   29.8950 C   0  0  0  0  0  0  0  0  0  0  0  0
    8.8220    0.9830   31.1090 C   0  0  0  0  0  0  0  0  0  0  0  0
    7.6460    0.6340   31.7180 C   0  0  0  0  0  0  0  0  0  0  0  0
    6.7400   -0.2530   31.1460 C   0  0  0  0  0  0  0  0  0  0  0  0
    6.0720   -4.0510   28.8530 C   0  0  0  0  0  0  0  0  0  0  0  0
    6.8230   -4.9640   29.2060 O   0  0  0  0  0  0  0  0  0  0  0  0
    4.7190   -4.3240   28.7360 O   0  0  0  0  0  0  0  0  0  0  0  0
    4.2170   -5.6240   28.8990 C   0  0  0  0  0  0  0  0  0  0  0  0
    5.1660   -6.6240   28.6620 C   0  0  0  0  0  0  0  0  0  0  0  0
    5.7170   -5.0080   23.2560 C   0  0  0  0  0  0  0  0  0  0  0  0
    6.6030   -5.4910   22.1160 C   0  0  0  0  0  0  0  0  0  0  0  0
  1  2  1  0
  2  3  2  0
  2  4  1  0
  4  5  1  0
  5  6  1  0
  6  7  1  0
  7  8  1  0
  8  9  2  0
  8 10  1  0
 10 11  1  0
 12 11  1  6
 12 13  1  0
 13 14  1  0
 14 15  2  0
 15 16  1  0
 16 17  2  0
 17 18  1  0
 14 19  1  0
 18 19  2  0
 12 20  1  0
 20 21  2  0
 20 22  1  0
 22 23  1  0
 23 24  1  0
  7 25  1  0
  4 26  1  0
 25 26  1  0
M  END
