piperidine-amides-9191-covalent
     RDKit          3D

 20 20  0  0  0  0  0  0  0  0999 V2000
    7.0730   -3.2630   19.2310 C   0  0  0  0  0  0  0  0  0  0  0  0
    6.2950   -4.0040   20.2340 C   0  0  0  0  0  0  0  0  0  0  0  0
    5.2470   -4.5530   19.8770 O   0  0  0  0  0  0  0  0  0  0  0  0
    6.7140   -4.1610   21.5690 N   0  0  0  0  0  0  0  0  0  0  0  0
    6.5880   -5.4310   22.2410 C   0  0  0  0  0  0  0  0  0  0  0  0
    6.4540   -5.1260   23.7120 C   0  0  0  0  0  0  0  0  0  0  0  0
    6.1860   -3.6740   23.9940 C   0  0  0  0  0  0  0  0  0  0  0  0
    6.0220   -3.3770   25.4420 C   0  0  0  0  0  0  0  0  0  0  0  0
    4.8840   -3.0150   25.8770 O   0  0  0  0  0  0  0  0  0  0  0  0
    7.0920   -3.4730   26.3770 N   0  0  0  0  0  0  0  0  0  0  0  0
    6.9940   -4.3100   27.6050 C   0  0  1  0  0  0  0  0  0  0  0  0
    5.6490   -4.9060   27.6610 C   0  0  0  0  0  0  0  0  0  0  0  0
    5.3890   -5.6720   28.6240 O   0  0  0  0  0  0  0  0  0  0  0  0
    7.8840   -5.5510   27.5780 C   0  0  1  0  0  0  0  0  0  0  0  0
    7.4910   -6.3590   26.6670 O   0  0  0  0  0  0  0  0  0  0  0  0
    9.2750   -5.0400   27.4270 C   0  0  0  0  0  0  0  0  0  0  0  0
    9.4420   -4.2440   26.1530 C   0  0  0  0  0  0  0  0  0  0  0  0
   10.7920   -4.5150   25.6580 C   0  0  0  0  0  0  0  0  0  0  0  0
    7.2820   -2.8170   23.4020 C   0  0  0  0  0  0  0  0  0  0  0  0
    7.6460   -3.1800   22.1000 C   0  0  0  0  0  0  0  0  0  0  0  0
  1  2  1  0
  2  3  2  0
  2  4  1  0
  4  5  1  0
  5  6  1  0
  6  7  1  0
  7  8  1  0
  8  9  2  0
  8 10  1  0
 10 11  1  0
 11 12  1  6
 12 13  1  0
 11 14  1  0
 14 15  1  6
 14 16  1  0
 16 17  1  0
 17 18  1  0
  7 19  1  0
  4 20  1  0
 19 20  1  0
M  END
