piperidine-amides-13271-covalent
     RDKit          3D

 17 17  0  0  0  0  0  0  0  0999 V2000
    7.1050   -3.2950   19.1880 C   0  0  0  0  0  0  0  0  0  0  0  0
    6.3830   -4.0550   20.2330 C   0  0  0  0  0  0  0  0  0  0  0  0
    5.2920   -4.5520   19.8910 O   0  0  0  0  0  0  0  0  0  0  0  0
    6.9390   -4.2540   21.5070 N   0  0  0  0  0  0  0  0  0  0  0  0
    7.6670   -3.2010   22.1390 C   0  0  0  0  0  0  0  0  0  0  0  0
    7.1480   -2.8950   23.4580 C   0  0  0  0  0  0  0  0  0  0  0  0
    5.9120   -3.6450   23.7670 C   0  0  0  0  0  0  0  0  0  0  0  0
    5.4790   -3.3590   25.1420 C   0  0  0  0  0  0  0  0  0  0  0  0
    4.3120   -2.9740   25.3340 O   0  0  0  0  0  0  0  0  0  0  0  0
    6.3530   -3.5240   26.2090 N   0  0  0  0  0  0  0  0  0  0  0  0
    5.9240   -4.0780   27.5000 C   0  0  1  0  0  0  0  0  0  0  0  0
    6.2670   -5.5280   27.6870 C   0  0  0  0  0  0  0  0  0  0  0  0
    6.4940   -3.2390   28.5460 C   0  0  0  0  0  0  0  0  0  0  0  0
    5.6900   -2.4680   29.3510 C   0  0  0  0  0  0  0  0  0  0  0  0
    6.0040   -1.2610   29.9380 C   0  0  0  0  0  0  0  0  0  0  0  0
    5.9720   -5.1060   23.4510 C   0  0  0  0  0  0  0  0  0  0  0  0
    6.5830   -5.4050   22.2690 C   0  0  0  0  0  0  0  0  0  0  0  0
  1  2  1  0
  2  3  2  0
  2  4  1  0
  4  5  1  0
  5  6  1  0
  6  7  1  0
  7  8  1  0
  8  9  2  0
  8 10  1  0
 10 11  1  0
 11 12  1  1
 11 13  1  0
 13 14  1  0
 14 15  2  3
  7 16  1  0
  4 17  1  0
 16 17  1  0
M  END
