piperidine-amides-17002-covalent
     RDKit          3D

 20 21  0  0  0  0  0  0  0  0999 V2000
    7.0330   -3.3770   19.3970 C   0  0  0  0  0  0  0  0  0  0  0  0
    6.4040   -4.2380   20.4100 C   0  0  0  0  0  0  0  0  0  0  0  0
    5.4190   -4.9120   20.0090 O   0  0  0  0  0  0  0  0  0  0  0  0
    6.9090   -4.3480   21.7470 N   0  0  0  0  0  0  0  0  0  0  0  0
    6.5830   -5.5040   22.5140 C   0  0  0  0  0  0  0  0  0  0  0  0
    6.0430   -5.1770   23.8340 C   0  0  0  0  0  0  0  0  0  0  0  0
    5.8870   -3.7250   24.0350 C   0  0  0  0  0  0  0  0  0  0  0  0
    4.9720   -3.3460   25.2020 C   0  0  0  0  0  0  0  0  0  0  0  0
    3.7660   -3.2840   24.9400 O   0  0  0  0  0  0  0  0  0  0  0  0
    5.3090   -3.0490   26.5510 N   0  0  0  0  0  0  0  0  0  0  0  0
    4.5450   -3.1640   27.6940 C   0  0  0  0  0  0  0  0  0  0  0  0
    5.3670   -3.6780   28.7550 C   0  0  0  0  0  0  0  0  0  0  0  0
    6.5060   -4.3650   27.9730 C   0  0  1  0  0  0  0  0  0  0  0  0
    6.0780   -5.5730   27.4600 C   0  0  0  0  0  0  0  0  0  0  0  0
    5.3940   -6.2480   28.4690 N   0  0  0  0  0  0  0  0  0  0  0  0
    6.1550   -6.8670   29.4810 C   0  0  0  0  0  0  0  0  0  0  0  0
    4.5730   -7.2780   27.8250 C   0  0  0  0  0  0  0  0  0  0  0  0
    6.5980   -3.2010   26.9940 C   0  0  0  0  0  0  0  0  0  0  0  0
    7.1790   -2.9620   23.8360 C   0  0  0  0  0  0  0  0  0  0  0  0
    7.6230   -3.2430   22.3900 C   0  0  0  0  0  0  0  0  0  0  0  0
  1  2  1  0
  2  3  2  0
  2  4  1  0
  4  5  1  0
  5  6  1  0
  6  7  1  0
  7  8  1  0
  8  9  2  0
  8 10  1  0
 10 11  1  0
 11 12  1  0
 12 13  1  0
 13 14  1  6
 14 15  1  0
 15 16  1  0
 15 17  1  0
 10 18  1  0
 13 18  1  0
  7 19  1  0
  4 20  1  0
 19 20  1  0
M  END
