piperidine-amides-7197-covalent
     RDKit          3D

 21 21  0  0  0  0  0  0  0  0999 V2000
    7.1360   -3.2630   19.1780 C   0  0  0  0  0  0  0  0  0  0  0  0
    6.4010   -3.9890   20.2200 C   0  0  0  0  0  0  0  0  0  0  0  0
    5.3140   -4.5250   19.8810 O   0  0  0  0  0  0  0  0  0  0  0  0
    6.9460   -4.1020   21.5000 N   0  0  0  0  0  0  0  0  0  0  0  0
    7.8090   -3.0860   22.0580 C   0  0  0  0  0  0  0  0  0  0  0  0
    7.4260   -2.8970   23.4890 C   0  0  0  0  0  0  0  0  0  0  0  0
    6.0500   -3.4420   23.7450 C   0  0  0  0  0  0  0  0  0  0  0  0
    5.6200   -3.1510   25.1220 C   0  0  0  0  0  0  0  0  0  0  0  0
    4.5410   -2.5430   25.2890 O   0  0  0  0  0  0  0  0  0  0  0  0
    6.3560   -3.5280   26.2460 N   0  0  0  0  0  0  0  0  0  0  0  0
    5.7160   -4.2000   27.3380 C   0  0  2  0  0  0  0  0  0  0  0  0
    6.5070   -4.0330   28.6050 C   0  0  0  0  0  0  0  0  0  0  0  0
    6.3710   -3.0170   29.3200 O   0  0  0  0  0  0  0  0  0  0  0  0
    7.3910   -4.9980   29.0650 O   0  0  0  0  0  0  0  0  0  0  0  0
    7.1240   -6.3530   28.8420 C   0  0  0  0  0  0  0  0  0  0  0  0
    5.4780   -5.6710   27.0450 C   0  0  0  0  0  0  0  0  0  0  0  0
    4.7940   -6.3170   28.0730 C   0  0  0  0  0  0  0  0  0  0  0  0
    4.6500   -5.8570   25.7990 C   0  0  0  0  0  0  0  0  0  0  0  0
    6.6520   -6.2660   26.8340 F   0  0  0  0  0  0  0  0  0  0  0  0
    5.9730   -4.9560   23.5670 C   0  0  0  0  0  0  0  0  0  0  0  0
    6.6090   -5.3090   22.2510 C   0  0  0  0  0  0  0  0  0  0  0  0
  1  2  1  0
  2  3  2  0
  2  4  1  0
  4  5  1  0
  5  6  1  0
  6  7  1  0
  7  8  1  0
  8  9  2  0
  8 10  1  0
 11 10  1  6
 11 12  1  0
 12 13  2  0
 12 14  1  0
 14 15  1  0
 11 16  1  0
 16 17  1  0
 16 18  1  0
 16 19  1  0
  7 20  1  0
  4 21  1  0
 20 21  1  0
M  END
