piperidine-amides-4748-covalent
     RDKit          3D

 24 26  0  0  0  0  0  0  0  0999 V2000
    7.1550   -3.2340   19.1850 C   0  0  0  0  0  0  0  0  0  0  0  0
    6.4060   -3.9430   20.2420 C   0  0  0  0  0  0  0  0  0  0  0  0
    5.3530   -4.5210   19.8880 O   0  0  0  0  0  0  0  0  0  0  0  0
    6.8880   -3.9980   21.5610 N   0  0  0  0  0  0  0  0  0  0  0  0
    7.6760   -2.9210   22.1020 C   0  0  0  0  0  0  0  0  0  0  0  0
    7.3110   -2.4520   23.4540 C   0  0  0  0  0  0  0  0  0  0  0  0
    6.6180   -3.4300   24.3250 C   0  0  0  0  0  0  0  0  0  0  0  0
    5.9060   -2.7710   25.4820 C   0  0  0  0  0  0  0  0  0  0  0  0
    4.6910   -2.5230   25.3330 O   0  0  0  0  0  0  0  0  0  0  0  0
    6.5500   -2.4220   26.7230 N   0  0  0  0  0  0  0  0  0  0  0  0
    5.9030   -2.5590   28.0850 C   0  0  0  0  0  0  0  0  0  0  0  0
    5.3360   -3.9220   28.2720 C   0  0  0  0  0  0  0  0  0  0  0  0
    5.8600   -4.6170   27.1880 C   0  0  0  0  0  0  0  0  0  0  0  0
    5.2200   -5.0530   26.0490 C   0  0  0  0  0  0  0  0  0  0  0  0
    3.9060   -5.0030   25.6190 C   0  0  0  0  0  0  0  0  0  0  0  0
    6.2140   -5.6220   25.2500 N   0  0  0  0  0  0  0  0  0  0  0  0
    7.3190   -5.4810   25.9930 C   0  0  0  0  0  0  0  0  0  0  0  0
    8.4670   -5.9140   25.5080 C   0  0  0  0  0  0  0  0  0  0  0  0
    9.6010   -5.8210   26.2420 C   0  0  0  0  0  0  0  0  0  0  0  0
    9.5430   -5.2580   27.5110 C   0  0  0  0  0  0  0  0  0  0  0  0
    8.3150   -4.7360   28.0840 C   0  0  0  0  0  0  0  0  0  0  0  0
    7.1680   -4.9170   27.1590 C   0  0  0  0  0  0  0  0  0  0  0  0
    5.6760   -4.2890   23.4410 C   0  0  0  0  0  0  0  0  0  0  0  0
    6.4340   -4.9940   22.4890 C   0  0  0  0  0  0  0  0  0  0  0  0
  1  2  1  0
  2  3  2  0
  2  4  1  0
  4  5  1  0
  5  6  1  0
  6  7  1  0
  7  8  1  0
  8  9  2  0
  8 10  1  0
 10 11  1  0
 11 12  1  0
 12 13  1  0
 13 14  2  0
 14 15  1  0
 14 16  1  0
 16 17  1  0
 17 18  1  0
 18 19  2  0
 19 20  1  0
 20 21  2  0
 13 22  1  0
 17 22  2  0
 21 22  1  0
  7 23  1  0
  4 24  1  0
 23 24  1  0
M  END
