piperidine-amides-14754-covalent
     RDKit          3D

 22 23  0  0  0  0  0  0  0  0999 V2000
    7.0450   -3.3530   19.3230 C   0  0  0  0  0  0  0  0  0  0  0  0
    6.4030   -4.2060   20.3190 C   0  0  0  0  0  0  0  0  0  0  0  0
    5.3830   -4.8310   19.9800 O   0  0  0  0  0  0  0  0  0  0  0  0
    6.9720   -4.3450   21.6140 N   0  0  0  0  0  0  0  0  0  0  0  0
    7.6360   -3.1940   22.1850 C   0  0  0  0  0  0  0  0  0  0  0  0
    7.4730   -3.1300   23.6860 C   0  0  0  0  0  0  0  0  0  0  0  0
    6.0850   -3.6300   24.0160 C   0  0  0  0  0  0  0  0  0  0  0  0
    5.6340   -3.2200   25.3840 C   0  0  0  0  0  0  0  0  0  0  0  0
    4.4210   -3.2480   25.5750 O   0  0  0  0  0  0  0  0  0  0  0  0
    6.5790   -2.8460   26.3260 N   0  0  0  0  0  0  0  0  0  0  0  0
    6.5180   -1.5930   27.0060 C   0  0  0  0  0  0  0  0  0  0  0  0
    6.8660   -1.4210   28.3580 C   0  0  0  0  0  0  0  0  0  0  0  0
    6.7070   -0.2220   29.0100 C   0  0  0  0  0  0  0  0  0  0  0  0
    6.1960    0.8810   28.3510 C   0  0  0  0  0  0  0  0  0  0  0  0
    5.9270    1.9350   29.2110 O   0  0  0  0  0  0  0  0  0  0  0  0
    5.9930    0.8730   26.9640 N   0  0  0  0  0  0  0  0  0  0  0  0
    5.3200    1.9880   26.2940 C   0  0  0  0  0  0  0  0  0  0  0  0
    6.1850    2.5920   25.1620 C   0  0  0  0  0  0  0  0  0  0  0  0
    6.5560    3.8420   25.3160 O   0  0  0  0  0  0  0  0  0  0  0  0
    6.0810   -0.4110   26.3370 C   0  0  0  0  0  0  0  0  0  0  0  0
    6.0260   -5.0840   23.7600 C   0  0  0  0  0  0  0  0  0  0  0  0
    6.5870   -5.4930   22.3930 C   0  0  0  0  0  0  0  0  0  0  0  0
  1  2  1  0
  2  3  2  0
  2  4  1  0
  4  5  1  0
  5  6  1  0
  6  7  1  0
  7  8  1  0
  8  9  2  0
  8 10  1  0
 10 11  1  0
 11 12  1  0
 12 13  2  0
 13 14  1  0
 14 15  2  0
 14 16  1  0
 16 17  1  0
 17 18  1  0
 18 19  1  0
 11 20  2  0
 16 20  1  0
  7 21  1  0
  4 22  1  0
 21 22  1  0
M  END
