piperidine-amides-4446-covalent
     RDKit          3D

 25 26  0  0  0  0  0  0  0  0999 V2000
    7.1270   -3.3540   19.3120 C   0  0  0  0  0  0  0  0  0  0  0  0
    6.3930   -4.1740   20.2880 C   0  0  0  0  0  0  0  0  0  0  0  0
    5.2930   -4.6400   19.9160 O   0  0  0  0  0  0  0  0  0  0  0  0
    6.9450   -4.4820   21.5540 N   0  0  0  0  0  0  0  0  0  0  0  0
    6.2940   -5.4750   22.3260 C   0  0  0  0  0  0  0  0  0  0  0  0
    5.7190   -4.9620   23.5690 C   0  0  0  0  0  0  0  0  0  0  0  0
    6.4650   -3.8380   24.1680 C   0  0  0  0  0  0  0  0  0  0  0  0
    5.8010   -3.2500   25.3730 C   0  0  0  0  0  0  0  0  0  0  0  0
    4.5610   -3.2210   25.4670 O   0  0  0  0  0  0  0  0  0  0  0  0
    6.6190   -2.7460   26.3850 N   0  0  0  0  0  0  0  0  0  0  0  0
    6.5250   -1.6060   27.2120 C   0  0  0  0  0  0  0  0  0  0  0  0
    7.0480   -1.5820   28.6010 C   0  0  0  0  0  0  0  0  0  0  0  0
    6.9150   -0.3030   29.4500 C   0  0  0  0  0  0  0  0  0  0  0  0
    6.3030    0.7140   28.7970 C   0  0  0  0  0  0  0  0  0  0  0  0
    6.1510    2.0030   29.6090 C   0  0  0  0  0  0  0  0  0  0  0  0
    4.9130    1.3750   30.6210 S   0  0  0  0  0  0  0  0  0  0  0  0
    3.9540    0.5510   29.5040 C   0  0  0  0  0  0  0  0  0  0  0  0
    4.1790    2.4900   31.3120 O   0  0  0  0  0  0  0  0  0  0  0  0
    5.5050    0.4340   31.6080 O   0  0  0  0  0  0  0  0  0  0  0  0
    5.7620    0.8020   27.4560 C   0  0  0  0  0  0  0  0  0  0  0  0
    5.8550   -0.4040   26.5740 C   0  0  0  0  0  0  0  0  0  0  0  0
    5.3680   -0.4620   25.2510 O   0  0  0  0  0  0  0  0  0  0  0  0
    4.0940   -0.9390   25.1240 C   0  0  0  0  0  0  0  0  0  0  0  0
    6.7640   -2.7310   23.1630 C   0  0  0  0  0  0  0  0  0  0  0  0
    7.6850   -3.3880   22.2070 C   0  0  0  0  0  0  0  0  0  0  0  0
  1  2  1  0
  2  3  2  0
  2  4  1  0
  4  5  1  0
  5  6  1  0
  6  7  1  0
  7  8  1  0
  8  9  2  0
  8 10  1  0
 10 11  1  0
 11 12  2  0
 12 13  1  0
 13 14  2  0
 14 15  1  0
 16 15  1  0
 16 17  1  0
 16 18  2  0
 16 19  2  0
 14 20  1  0
 11 21  1  0
 20 21  2  0
 21 22  1  0
 22 23  1  0
  7 24  1  0
  4 25  1  0
 24 25  1  0
M  END
