piperidine-amides-15153-covalent
     RDKit          3D

 20 21  0  0  0  0  0  0  0  0999 V2000
    7.1270   -3.2760   19.2130 C   0  0  0  0  0  0  0  0  0  0  0  0
    6.3960   -4.0570   20.2090 C   0  0  0  0  0  0  0  0  0  0  0  0
    5.2950   -4.5320   19.8850 O   0  0  0  0  0  0  0  0  0  0  0  0
    6.9700   -4.3140   21.4780 N   0  0  0  0  0  0  0  0  0  0  0  0
    7.6850   -3.2560   22.1310 C   0  0  0  0  0  0  0  0  0  0  0  0
    6.8240   -2.7030   23.2230 C   0  0  0  0  0  0  0  0  0  0  0  0
    6.5820   -3.8210   24.2160 C   0  0  0  0  0  0  0  0  0  0  0  0
    5.8540   -3.2600   25.3900 C   0  0  0  0  0  0  0  0  0  0  0  0
    4.6310   -3.1530   25.2850 O   0  0  0  0  0  0  0  0  0  0  0  0
    6.6120   -2.9000   26.4890 N   0  0  0  0  0  0  0  0  0  0  0  0
    6.3630   -3.3920   27.7970 C   0  0  0  0  0  0  0  0  0  0  0  0
    6.5720   -4.7630   28.0090 C   0  0  1  0  0  0  0  0  0  0  0  0
    7.1390   -5.0480   29.0730 O   0  0  0  0  0  0  0  0  0  0  0  0
    5.4350   -5.5360   28.1100 C   0  0  0  0  0  0  0  0  0  0  0  0
    5.3190   -6.4260   29.1990 C   0  0  0  0  0  0  0  0  0  0  0  0
    3.9980   -7.0830   28.9550 C   0  0  0  0  0  0  0  0  0  0  0  0
    3.6940   -6.9540   27.4750 C   0  0  0  0  0  0  0  0  0  0  0  0
    4.9000   -6.3270   26.9080 C   0  0  0  0  0  0  0  0  0  0  0  0
    5.8790   -4.9700   23.5840 C   0  0  0  0  0  0  0  0  0  0  0  0
    6.4380   -5.4180   22.2200 C   0  0  0  0  0  0  0  0  0  0  0  0
  1  2  1  0
  2  3  2  0
  2  4  1  0
  4  5  1  0
  5  6  1  0
  6  7  1  0
  7  8  1  0
  8  9  2  0
  8 10  1  0
 10 11  1  0
 11 12  1  0
 12 13  1  1
 12 14  1  0
 14 15  1  0
 15 16  1  0
 16 17  1  0
 14 18  1  0
 17 18  1  0
  7 19  1  0
  4 20  1  0
 19 20  1  0
M  END
