piperidine-amides-12607-covalent
     RDKit          3D

 23 24  0  0  0  0  0  0  0  0999 V2000
    7.1500   -3.2770   19.1300 C   0  0  0  0  0  0  0  0  0  0  0  0
    6.3410   -3.9650   20.1570 C   0  0  0  0  0  0  0  0  0  0  0  0
    5.2250   -4.3920   19.8070 O   0  0  0  0  0  0  0  0  0  0  0  0
    6.8440   -4.1820   21.4370 N   0  0  0  0  0  0  0  0  0  0  0  0
    7.6050   -3.1610   22.0920 C   0  0  0  0  0  0  0  0  0  0  0  0
    7.1080   -2.7570   23.4050 C   0  0  0  0  0  0  0  0  0  0  0  0
    6.4800   -3.8410   24.1830 C   0  0  0  0  0  0  0  0  0  0  0  0
    5.7560   -3.2900   25.3560 C   0  0  0  0  0  0  0  0  0  0  0  0
    4.5670   -2.9440   25.2170 O   0  0  0  0  0  0  0  0  0  0  0  0
    6.4140   -3.1480   26.5910 N   0  0  0  0  0  0  0  0  0  0  0  0
    5.9300   -3.7110   27.8790 C   0  0  0  0  0  0  0  0  0  0  0  0
    5.4730   -5.1430   27.8670 C   0  0  0  0  0  0  0  0  0  0  0  0
    5.2380   -5.5940   26.4830 C   0  0  0  0  0  0  0  0  0  0  0  0
    6.2290   -5.7130   25.7070 O   0  0  0  0  0  0  0  0  0  0  0  0
    3.8620   -5.8840   26.1570 N   0  0  0  0  0  0  0  0  0  0  0  0
    2.8290   -4.9240   26.0140 C   0  0  0  0  0  0  0  0  0  0  0  0
    3.5540   -7.2230   25.6850 C   0  0  0  0  0  0  0  0  0  0  0  0
    6.3270   -6.0720   28.4530 C   0  0  0  0  0  0  0  0  0  0  0  0
    5.6580   -6.8560   29.3450 C   0  0  0  0  0  0  0  0  0  0  0  0
    4.4230   -6.4090   29.5290 C   0  0  0  0  0  0  0  0  0  0  0  0
    4.3230   -5.3150   28.6970 C   0  0  0  0  0  0  0  0  0  0  0  0
    5.6590   -4.7970   23.4070 C   0  0  0  0  0  0  0  0  0  0  0  0
    6.4310   -5.3250   22.2320 C   0  0  0  0  0  0  0  0  0  0  0  0
  1  2  1  0
  2  3  2  0
  2  4  1  0
  4  5  1  0
  5  6  1  0
  6  7  1  0
  7  8  1  0
  8  9  2  0
  8 10  1  0
 10 11  1  0
 11 12  1  0
 12 13  1  0
 13 14  2  0
 13 15  1  0
 15 16  1  0
 15 17  1  0
 12 18  1  0
 18 19  1  0
 19 20  1  0
 12 21  1  0
 20 21  1  0
  7 22  1  0
  4 23  1  0
 22 23  1  0
M  END
