piperidine-amides-29460-covalent
     RDKit          3D

 26 28  0  0  0  0  0  0  0  0999 V2000
    7.0760   -3.3220   19.3020 C   0  0  0  0  0  0  0  0  0  0  0  0
    6.4170   -4.2040   20.2590 C   0  0  0  0  0  0  0  0  0  0  0  0
    5.3360   -4.7190   19.9370 O   0  0  0  0  0  0  0  0  0  0  0  0
    7.0350   -4.5230   21.4880 N   0  0  0  0  0  0  0  0  0  0  0  0
    6.3770   -5.5460   22.2310 C   0  0  0  0  0  0  0  0  0  0  0  0
    5.3470   -4.8660   23.0840 C   0  0  0  0  0  0  0  0  0  0  0  0
    6.1220   -3.9340   23.9820 C   0  0  0  0  0  0  0  0  0  0  0  0
    5.2800   -3.3370   25.0590 C   0  0  0  0  0  0  0  0  0  0  0  0
    4.1070   -3.0510   24.8550 O   0  0  0  0  0  0  0  0  0  0  0  0
    5.9960   -3.1950   26.1920 N   0  0  0  0  0  0  0  0  0  0  0  0
    5.9590   -4.2240   27.1400 C   0  0  0  0  0  0  0  0  0  0  0  0
    6.7680   -5.2400   26.6490 C   0  0  0  0  0  0  0  0  0  0  0  0
    7.7290   -4.7840   25.7100 C   0  0  2  0  0  0  0  0  0  0  0  0
    9.0260   -4.8290   25.9530 C   0  0  0  0  0  0  0  0  0  0  0  0
   10.1110   -4.4370   24.8970 C   0  0  0  0  0  0  0  0  0  0  0  0
   11.5360   -4.3810   25.6660 C   0  0  0  0  0  0  0  0  0  0  0  0
   13.1960   -3.9840   25.5660 C   0  0  0  0  0  0  0  0  0  0  0  0
   13.9050   -4.9700   25.9570 F   0  0  0  0  0  0  0  0  0  0  0  0
   13.8260   -3.6150   24.4130 F   0  0  0  0  0  0  0  0  0  0  0  0
   13.7280   -3.2650   26.4890 F   0  0  0  0  0  0  0  0  0  0  0  0
   11.3820   -4.7480   26.9070 C   0  0  0  0  0  0  0  0  0  0  0  0
   10.1620   -5.1820   27.7380 C   0  0  0  0  0  0  0  0  0  0  0  0
    9.1090   -5.1710   27.1990 N   0  0  0  0  0  0  0  0  0  0  0  0
    7.3830   -3.4180   26.3260 C   0  0  0  0  0  0  0  0  0  0  0  0
    6.7300   -2.8400   23.1610 C   0  0  0  0  0  0  0  0  0  0  0  0
    7.6760   -3.4140   22.1520 C   0  0  0  0  0  0  0  0  0  0  0  0
  1  2  1  0
  2  3  2  0
  2  4  1  0
  4  5  1  0
  5  6  1  0
  6  7  1  0
  7  8  1  0
  8  9  2  0
  8 10  1  0
 10 11  1  0
 11 12  1  0
 12 13  1  0
 13 14  1  1
 14 15  2  0
 15 16  1  0
 16 17  1  0
 17 18  1  0
 17 19  1  0
 17 20  1  0
 16 21  2  0
 21 22  1  0
 14 23  1  0
 22 23  2  0
 10 24  1  0
 13 24  1  0
  7 25  1  0
  4 26  1  0
 25 26  1  0
M  END
