piperidine-amides-31445-covalent
     RDKit          3D

 27 30  0  0  0  0  0  0  0  0999 V2000
    7.0860   -3.3890   19.5700 C   0  0  0  0  0  0  0  0  0  0  0  0
    6.3760   -4.2400   20.5020 C   0  0  0  0  0  0  0  0  0  0  0  0
    5.4470   -4.9760   20.0200 O   0  0  0  0  0  0  0  0  0  0  0  0
    6.6850   -4.2920   21.8950 N   0  0  0  0  0  0  0  0  0  0  0  0
    7.6390   -3.2460   22.3960 C   0  0  0  0  0  0  0  0  0  0  0  0
    7.2330   -2.9720   23.9190 C   0  0  0  0  0  0  0  0  0  0  0  0
    5.9610   -3.7440   24.1660 C   0  0  0  0  0  0  0  0  0  0  0  0
    4.8890   -3.1440   25.2510 C   0  0  0  0  0  0  0  0  0  0  0  0
    3.9900   -2.6730   24.5890 O   0  0  0  0  0  0  0  0  0  0  0  0
    5.1380   -3.2530   26.5310 N   0  0  0  0  0  0  0  0  0  0  0  0
    5.0180   -3.0260   27.8730 C   0  0  0  0  0  0  0  0  0  0  0  0
    4.7710   -3.7990   28.9760 C   0  0  0  0  0  0  0  0  0  0  0  0
    5.2110   -5.1050   28.5500 N   0  0  0  0  0  0  0  0  0  0  0  0
    5.6930   -6.0420   29.3890 C   0  0  0  0  0  0  0  0  0  0  0  0
    4.4930   -6.7590   29.8620 C   0  0  0  0  0  0  0  0  0  0  0  0
    3.5260   -6.7620   28.7280 C   0  0  0  0  0  0  0  0  0  0  0  0
    2.2380   -7.6510   29.5380 S   0  0  0  0  0  0  0  0  0  0  0  0
    2.8790   -7.9690   31.1260 C   0  0  0  0  0  0  0  0  0  0  0  0
    2.2270   -8.6780   32.2130 C   0  0  0  0  0  0  0  0  0  0  0  0
    3.3620   -8.5790   33.2800 C   0  0  0  0  0  0  0  0  0  0  0  0
    4.7580   -7.9170   33.1880 C   0  0  0  0  0  0  0  0  0  0  0  0
    5.0440   -7.3470   32.0360 C   0  0  0  0  0  0  0  0  0  0  0  0
    4.1590   -7.3580   31.0340 C   0  0  0  0  0  0  0  0  0  0  0  0
    6.3380   -4.9140   27.7540 C   0  0  0  0  0  0  0  0  0  0  0  0
    6.2120   -4.1310   26.5920 C   0  0  0  0  0  0  0  0  0  0  0  0
    6.0130   -5.2210   23.9820 C   0  0  0  0  0  0  0  0  0  0  0  0
    6.5250   -5.5500   22.6020 C   0  0  0  0  0  0  0  0  0  0  0  0
  1  2  1  0
  2  3  2  0
  2  4  1  0
  4  5  1  0
  5  6  1  0
  6  7  1  0
  7  8  1  0
  8  9  2  0
  8 10  1  0
 10 11  1  0
 11 12  1  0
 12 13  1  0
 13 14  1  0
 14 15  1  0
 15 16  2  0
 16 17  1  0
 17 18  1  0
 18 19  1  0
 19 20  2  0
 20 21  1  0
 21 22  2  0
 15 23  1  0
 18 23  2  0
 22 23  1  0
 13 24  1  0
 10 25  1  0
 24 25  1  0
  7 26  1  0
  4 27  1  0
 26 27  1  0
M  END
