piperidine-amides-7266-covalent
     RDKit          3D

 21 22  0  0  0  0  0  0  0  0999 V2000
    7.0250   -3.2880   19.3350 C   0  0  0  0  0  0  0  0  0  0  0  0
    6.3000   -4.1110   20.3180 C   0  0  0  0  0  0  0  0  0  0  0  0
    5.2320   -4.6200   19.8990 O   0  0  0  0  0  0  0  0  0  0  0  0
    6.7760   -4.3660   21.6170 N   0  0  0  0  0  0  0  0  0  0  0  0
    6.3640   -5.5590   22.3110 C   0  0  0  0  0  0  0  0  0  0  0  0
    5.5480   -5.1380   23.5030 C   0  0  0  0  0  0  0  0  0  0  0  0
    6.3420   -4.2250   24.3910 C   0  0  0  0  0  0  0  0  0  0  0  0
    5.5670   -3.8430   25.6360 C   0  0  0  0  0  0  0  0  0  0  0  0
    4.4920   -3.2440   25.4120 O   0  0  0  0  0  0  0  0  0  0  0  0
    5.8960   -4.0460   27.0470 N   0  0  0  0  0  0  0  0  0  0  0  0
    6.3980   -5.2850   27.6890 C   0  0  0  0  0  0  0  0  0  0  0  0
    5.6060   -5.9720   28.8180 C   0  0  0  0  0  0  0  0  0  0  0  0
    6.0480   -7.0920   29.5920 C   0  0  0  0  0  0  0  0  0  0  0  0
    6.6730   -8.1250   29.1010 N   0  0  0  0  0  0  0  0  0  0  0  0
    6.9700   -9.0690   30.0260 C   0  0  0  0  0  0  0  0  0  0  0  0
    7.6210  -10.4540   29.9170 C   0  0  0  0  0  0  0  0  0  0  0  0
    8.8920  -10.9060   29.4540 C   0  0  0  0  0  0  0  0  0  0  0  0
    6.4550   -8.5460   31.2190 N   0  0  0  0  0  0  0  0  0  0  0  0
    5.8940   -7.3140   30.9840 O   0  0  0  0  0  0  0  0  0  0  0  0
    6.7160   -2.9320   23.6480 C   0  0  0  0  0  0  0  0  0  0  0  0
    7.4350   -3.2650   22.3470 C   0  0  0  0  0  0  0  0  0  0  0  0
  1  2  1  0
  2  3  2  0
  2  4  1  0
  4  5  1  0
  5  6  1  0
  6  7  1  0
  7  8  1  0
  8  9  2  0
  8 10  1  0
 10 11  1  0
 11 12  1  0
 12 13  1  0
 13 14  2  0
 14 15  1  0
 15 16  1  0
 16 17  1  0
 15 18  2  0
 13 19  1  0
 18 19  1  0
  7 20  1  0
  4 21  1  0
 20 21  1  0
M  END
