piperidine-amides-19124-covalent
     RDKit          3D

 22 24  0  0  0  0  0  0  0  0999 V2000
    7.0640   -3.4390   19.4190 C   0  0  0  0  0  0  0  0  0  0  0  0
    6.3810   -4.2460   20.4020 C   0  0  0  0  0  0  0  0  0  0  0  0
    5.3600   -4.8790   19.9980 O   0  0  0  0  0  0  0  0  0  0  0  0
    6.8190   -4.4160   21.7420 N   0  0  0  0  0  0  0  0  0  0  0  0
    6.3650   -5.6170   22.4610 C   0  0  0  0  0  0  0  0  0  0  0  0
    5.3980   -4.8980   23.4780 C   0  0  0  0  0  0  0  0  0  0  0  0
    6.2990   -4.0330   24.3330 C   0  0  0  0  0  0  0  0  0  0  0  0
    5.5080   -3.3020   25.5350 C   0  0  0  0  0  0  0  0  0  0  0  0
    4.7640   -2.4840   25.0250 O   0  0  0  0  0  0  0  0  0  0  0  0
    5.8130   -3.7020   26.7380 N   0  0  0  0  0  0  0  0  0  0  0  0
    6.4090   -4.0870   27.8570 C   0  0  0  0  0  0  0  0  0  0  0  0
    6.8440   -5.2350   28.3970 C   0  0  0  0  0  0  0  0  0  0  0  0
    5.7720   -5.6620   29.1070 C   0  0  0  0  0  0  0  0  0  0  0  0
    5.5940   -6.7570   30.0690 C   0  0  0  0  0  0  0  0  0  0  0  0
    4.0910   -6.7060   30.5250 C   0  0  0  0  0  0  0  0  0  0  0  0
    3.0700   -5.7190   30.0510 N   0  0  0  0  0  0  0  0  0  0  0  0
    3.4240   -4.7150   29.1020 C   0  0  0  0  0  0  0  0  0  0  0  0
    4.7210   -4.7130   28.6680 C   0  0  0  0  0  0  0  0  0  0  0  0
    4.7060   -3.4960   27.6620 C   0  0  2  0  0  0  0  0  0  0  0  0
    3.3310   -3.2410   26.9630 C   0  0  0  0  0  0  0  0  0  0  0  0
    7.0150   -2.9540   23.4740 C   0  0  0  0  0  0  0  0  0  0  0  0
    7.7290   -3.5260   22.4480 C   0  0  0  0  0  0  0  0  0  0  0  0
  1  2  1  0
  2  3  2  0
  2  4  1  0
  4  5  1  0
  5  6  1  0
  6  7  1  0
  7  8  1  0
  8  9  2  0
  8 10  1  0
 10 11  1  0
 11 12  1  0
 12 13  1  0
 13 14  2  0
 14 15  1  0
 15 16  2  0
 16 17  1  0
 13 18  1  0
 17 18  2  0
 10 19  1  0
 18 19  1  0
 19 20  1  6
  7 21  1  0
  4 22  1  0
 21 22  1  0
M  END
