piperidine-amides-14485-covalent
     RDKit          3D

 23 25  0  0  0  0  0  0  0  0999 V2000
    6.9970   -3.3330   19.3680 C   0  0  0  0  0  0  0  0  0  0  0  0
    6.3250   -4.1690   20.3670 C   0  0  0  0  0  0  0  0  0  0  0  0
    5.3980   -4.9020   19.9860 O   0  0  0  0  0  0  0  0  0  0  0  0
    6.7360   -4.1660   21.7270 N   0  0  0  0  0  0  0  0  0  0  0  0
    7.6620   -3.1640   22.1720 C   0  0  0  0  0  0  0  0  0  0  0  0
    7.4630   -2.9790   23.6350 C   0  0  0  0  0  0  0  0  0  0  0  0
    6.0810   -3.5240   23.9020 C   0  0  0  0  0  0  0  0  0  0  0  0
    5.6510   -3.2260   25.3140 C   0  0  0  0  0  0  0  0  0  0  0  0
    4.4520   -3.3400   25.5750 O   0  0  0  0  0  0  0  0  0  0  0  0
    6.6330   -2.8380   26.2140 N   0  0  0  0  0  0  0  0  0  0  0  0
    6.5500   -1.6690   27.0440 C   0  0  0  0  0  0  0  0  0  0  0  0
    7.0340   -1.6430   28.3520 C   0  0  0  0  0  0  0  0  0  0  0  0
    6.9560   -0.5200   29.1470 C   0  0  0  0  0  0  0  0  0  0  0  0
    6.3890    0.6810   28.7190 C   0  0  0  0  0  0  0  0  0  0  0  0
    5.8440    0.7360   27.3280 C   0  0  0  0  0  0  0  0  0  0  0  0
    5.9280   -0.5180   26.4290 C   0  0  0  0  0  0  0  0  0  0  0  0
    5.3500    2.0110   27.1630 N   0  0  0  0  0  0  0  0  0  0  0  0
    5.6070    2.6670   28.4290 C   0  0  0  0  0  0  0  0  0  0  0  0
    5.2400    4.0930   28.7290 C   0  0  0  0  0  0  0  0  0  0  0  0
    6.2690    1.8370   29.4290 N   0  0  0  0  0  0  0  0  0  0  0  0
    6.5880    2.2750   30.6560 C   0  0  0  0  0  0  0  0  0  0  0  0
    6.0640   -5.0350   23.7300 C   0  0  0  0  0  0  0  0  0  0  0  0
    6.6330   -5.3760   22.5080 C   0  0  0  0  0  0  0  0  0  0  0  0
  1  2  1  0
  2  3  2  0
  2  4  1  0
  4  5  1  0
  5  6  1  0
  6  7  1  0
  7  8  1  0
  8  9  2  0
  8 10  1  0
 10 11  1  0
 11 12  2  0
 12 13  1  0
 13 14  2  0
 14 15  1  0
 11 16  1  0
 15 16  2  0
 15 17  1  0
 17 18  2  0
 18 19  1  0
 14 20  1  0
 18 20  1  0
 20 21  1  0
  7 22  1  0
  4 23  1  0
 22 23  1  0
M  END
