piperidine-amides-29270-covalent
     RDKit          3D

 26 27  0  0  0  0  0  0  0  0999 V2000
    7.0850   -3.3700   19.3800 C   0  0  0  0  0  0  0  0  0  0  0  0
    6.4030   -4.2230   20.3420 C   0  0  0  0  0  0  0  0  0  0  0  0
    5.3650   -4.8040   19.9750 O   0  0  0  0  0  0  0  0  0  0  0  0
    6.9610   -4.4190   21.6310 N   0  0  0  0  0  0  0  0  0  0  0  0
    6.5040   -5.5340   22.3950 C   0  0  0  0  0  0  0  0  0  0  0  0
    5.5490   -5.0240   23.4340 C   0  0  0  0  0  0  0  0  0  0  0  0
    6.2900   -4.0020   24.2730 C   0  0  0  0  0  0  0  0  0  0  0  0
    5.3480   -3.3650   25.2570 C   0  0  0  0  0  0  0  0  0  0  0  0
    4.5810   -2.5470   24.7730 O   0  0  0  0  0  0  0  0  0  0  0  0
    5.3650   -3.7070   26.6110 N   0  0  0  0  0  0  0  0  0  0  0  0
    6.4700   -3.4590   27.4050 C   0  0  0  0  0  0  0  0  0  0  0  0
    6.7570   -4.4710   28.3480 C   0  0  0  0  0  0  0  0  0  0  0  0
    5.6210   -4.3560   29.2650 N   0  0  0  0  0  0  0  0  0  0  0  0
    4.8080   -5.3250   29.8630 C   0  0  0  0  0  0  0  0  0  0  0  0
    3.6410   -5.5310   29.1670 O   0  0  0  0  0  0  0  0  0  0  0  0
    5.1180   -6.0110   31.0240 O   0  0  0  0  0  0  0  0  0  0  0  0
    5.0090   -7.4130   30.9380 C   0  0  0  0  0  0  0  0  0  0  0  0
    3.6240   -7.9530   30.7680 C   0  0  0  0  0  0  0  0  0  0  0  0
    5.9110   -7.7620   29.9590 C   0  0  0  0  0  0  0  0  0  0  0  0
    5.6390   -7.8190   32.1180 C   0  0  0  0  0  0  0  0  0  0  0  0
    4.6570   -3.3930   28.8650 C   0  0  0  0  0  0  0  0  0  0  0  0
    4.2070   -3.3110   27.3920 C   0  0  0  0  0  0  0  0  0  0  0  0
    3.0740   -4.0540   27.1340 C   0  0  0  0  0  0  0  0  0  0  0  0
    3.8970   -2.0260   27.0150 C   0  0  0  0  0  0  0  0  0  0  0  0
    6.9190   -2.8960   23.4780 C   0  0  0  0  0  0  0  0  0  0  0  0
    7.7010   -3.3820   22.2950 C   0  0  0  0  0  0  0  0  0  0  0  0
  1  2  1  0
  2  3  2  0
  2  4  1  0
  4  5  1  0
  5  6  1  0
  6  7  1  0
  7  8  1  0
  8  9  2  0
  8 10  1  0
 10 11  1  0
 11 12  1  0
 12 13  1  0
 13 14  1  0
 14 15  2  0
 14 16  1  0
 17 16  1  0
 17 18  1  0
 17 19  1  0
 17 20  1  0
 13 21  1  0
 10 22  1  0
 21 22  1  0
 22 23  1  0
 22 24  1  0
  7 25  1  0
  4 26  1  0
 25 26  1  0
M  END
