piperidine-amides-8353-covalent
     RDKit          3D

 24 25  0  0  0  0  0  0  0  0999 V2000
    7.2150   -4.0810   19.7240 C   0  0  0  0  0  0  0  0  0  0  0  0
    6.0350   -3.9890   20.4250 C   0  0  0  0  0  0  0  0  0  0  0  0
    5.0210   -4.1140   19.7230 O   0  0  0  0  0  0  0  0  0  0  0  0
    6.1560   -3.8900   21.8180 N   0  0  0  0  0  0  0  0  0  0  0  0
    6.0600   -5.1720   22.4820 C   0  0  0  0  0  0  0  0  0  0  0  0
    5.7850   -4.9650   23.9360 C   0  0  0  0  0  0  0  0  0  0  0  0
    5.7990   -3.4720   24.0790 C   0  0  0  0  0  0  0  0  0  0  0  0
    5.4520   -3.0490   25.4640 C   0  0  0  0  0  0  0  0  0  0  0  0
    4.2910   -2.6830   25.6030 O   0  0  0  0  0  0  0  0  0  0  0  0
    6.3950   -3.0940   26.4780 N   0  0  0  0  0  0  0  0  0  0  0  0
    6.1210   -3.7370   27.7250 C   0  0  0  0  0  0  0  0  0  0  0  0
    4.8160   -3.5480   28.2080 C   0  0  2  0  0  0  0  0  0  0  0  0
    4.4730   -2.2450   28.4930 C   0  0  0  0  0  0  0  0  0  0  0  0
    3.1500   -1.8770   28.6920 C   0  0  0  0  0  0  0  0  0  0  0  0
    2.7320   -2.7360   29.8470 C   0  0  0  0  0  0  0  0  0  0  0  0
    3.8280   -3.7000   30.3610 C   0  0  0  0  0  0  0  0  0  0  0  0
    4.5140   -4.4040   29.2500 C   0  0  2  0  0  0  0  0  0  0  0  0
    5.7220   -5.0930   29.6110 N   0  0  0  0  0  0  0  0  0  0  0  0
    5.1180   -6.5120   30.4240 S   0  0  0  0  0  0  0  0  0  0  0  0
    5.1320   -7.8480   29.2410 C   0  0  0  0  0  0  0  0  0  0  0  0
    5.9450   -6.8290   31.6610 O   0  0  0  0  0  0  0  0  0  0  0  0
    3.6970   -6.3510   30.8650 O   0  0  0  0  0  0  0  0  0  0  0  0
    7.0280   -2.8220   23.6340 C   0  0  0  0  0  0  0  0  0  0  0  0
    7.2610   -3.0690   22.3060 C   0  0  0  0  0  0  0  0  0  0  0  0
  1  2  1  0
  2  3  2  0
  2  4  1  0
  4  5  1  0
  5  6  1  0
  6  7  1  0
  7  8  1  0
  8  9  2  0
  8 10  1  0
 10 11  1  0
 12 11  1  1
 12 13  1  0
 13 14  1  0
 14 15  1  0
 15 16  1  0
 12 17  1  0
 16 17  1  0
 17 18  1  1
 19 18  1  0
 19 20  1  0
 19 21  2  0
 19 22  2  0
  7 23  1  0
  4 24  1  0
 23 24  1  0
M  END
