piperidine-amides-12994-covalent
     RDKit          3D

 21 22  0  0  0  0  0  0  0  0999 V2000
    7.0720   -3.2890   19.2710 C   0  0  0  0  0  0  0  0  0  0  0  0
    6.3740   -4.0880   20.3100 C   0  0  0  0  0  0  0  0  0  0  0  0
    5.3500   -4.7000   19.9370 O   0  0  0  0  0  0  0  0  0  0  0  0
    6.8620   -4.1790   21.6250 N   0  0  0  0  0  0  0  0  0  0  0  0
    6.6020   -5.3610   22.3790 C   0  0  0  0  0  0  0  0  0  0  0  0
    6.0090   -5.0650   23.6790 C   0  0  0  0  0  0  0  0  0  0  0  0
    6.0730   -3.6230   23.9900 C   0  0  0  0  0  0  0  0  0  0  0  0
    5.5940   -3.3250   25.3660 C   0  0  0  0  0  0  0  0  0  0  0  0
    4.3620   -3.2690   25.5320 O   0  0  0  0  0  0  0  0  0  0  0  0
    6.4560   -3.1030   26.4620 N   0  0  0  0  0  0  0  0  0  0  0  0
    6.2600   -3.7350   27.7970 C   0  0  2  0  0  0  0  0  0  0  0  0
    5.8620   -5.1760   27.6960 C   0  0  0  0  0  0  0  0  0  0  0  0
    5.3460   -2.9230   28.6350 C   0  0  0  0  0  0  0  0  0  0  0  0
    4.0020   -3.1960   28.6760 C   0  0  0  0  0  0  0  0  0  0  0  0
    3.0540   -2.5220   29.4120 C   0  0  0  0  0  0  0  0  0  0  0  0
    3.4790   -1.4850   30.1740 C   0  0  0  0  0  0  0  0  0  0  0  0
    4.8070   -1.1770   30.1630 C   0  0  0  0  0  0  0  0  0  0  0  0
    5.1590   -0.2200   30.8730 O   0  0  0  0  0  0  0  0  0  0  0  0
    5.7450   -1.8600   29.4240 C   0  0  0  0  0  0  0  0  0  0  0  0
    7.4520   -3.1020   23.6940 C   0  0  0  0  0  0  0  0  0  0  0  0
    7.6950   -3.1310   22.2230 C   0  0  0  0  0  0  0  0  0  0  0  0
  1  2  1  0
  2  3  2  0
  2  4  1  0
  4  5  1  0
  5  6  1  0
  6  7  1  0
  7  8  1  0
  8  9  2  0
  8 10  1  0
 10 11  1  0
 11 12  1  6
 11 13  1  0
 13 14  2  0
 14 15  1  0
 15 16  2  0
 16 17  1  0
 17 18  1  0
 13 19  1  0
 17 19  2  0
  7 20  1  0
  4 21  1  0
 20 21  1  0
M  END
