piperidine-amides-3018-covalent
     RDKit          3D

 23 25  0  0  0  0  0  0  0  0999 V2000
    7.1240   -3.3480   19.3310 C   0  0  0  0  0  0  0  0  0  0  0  0
    6.3760   -4.1440   20.2900 C   0  0  0  0  0  0  0  0  0  0  0  0
    5.3380   -4.7130   19.9490 O   0  0  0  0  0  0  0  0  0  0  0  0
    6.8990   -4.3070   21.6140 N   0  0  0  0  0  0  0  0  0  0  0  0
    7.7180   -3.2680   22.1890 C   0  0  0  0  0  0  0  0  0  0  0  0
    7.0440   -2.6970   23.3910 C   0  0  0  0  0  0  0  0  0  0  0  0
    6.4910   -3.8460   24.2120 C   0  0  0  0  0  0  0  0  0  0  0  0
    5.6960   -3.3020   25.3390 C   0  0  0  0  0  0  0  0  0  0  0  0
    4.4760   -3.0630   25.2400 O   0  0  0  0  0  0  0  0  0  0  0  0
    6.3430   -3.0540   26.5650 N   0  0  0  0  0  0  0  0  0  0  0  0
    6.1670   -1.7650   27.1990 C   0  0  0  0  0  0  0  0  0  0  0  0
    6.5430   -0.5600   26.4240 C   0  0  0  0  0  0  0  0  0  0  0  0
    6.4000    0.6830   27.0060 C   0  0  0  0  0  0  0  0  0  0  0  0
    5.9110    0.7920   28.3050 C   0  0  0  0  0  0  0  0  0  0  0  0
    5.5370   -0.3140   29.0410 C   0  0  0  0  0  0  0  0  0  0  0  0
    5.0050   -0.0850   30.3910 C   0  0  0  0  0  0  0  0  0  0  0  0
    4.8480    1.1220   31.0300 C   0  0  0  0  0  0  0  0  0  0  0  0
    4.6080   -1.1890   31.0900 N   0  0  0  0  0  0  0  0  0  0  0  0
    4.7130   -2.5120   30.5290 C   0  0  0  0  0  0  0  0  0  0  0  0
    5.2370   -2.6680   29.2730 C   0  0  0  0  0  0  0  0  0  0  0  0
    5.6690   -1.5620   28.4700 C   0  0  0  0  0  0  0  0  0  0  0  0
    5.6580   -4.8450   23.4170 C   0  0  0  0  0  0  0  0  0  0  0  0
    6.4830   -5.3940   22.4470 C   0  0  0  0  0  0  0  0  0  0  0  0
  1  2  1  0
  2  3  2  0
  2  4  1  0
  4  5  1  0
  5  6  1  0
  6  7  1  0
  7  8  1  0
  8  9  2  0
  8 10  1  0
 10 11  1  0
 11 12  2  0
 12 13  1  0
 13 14  2  0
 14 15  1  0
 15 16  1  0
 16 17  1  0
 16 18  2  0
 18 19  1  0
 19 20  2  0
 11 21  1  0
 15 21  2  0
 20 21  1  0
  7 22  1  0
  4 23  1  0
 22 23  1  0
M  END
