piperidine-amides-8098-covalent
     RDKit          3D

 26 28  0  0  0  0  0  0  0  0999 V2000
    7.1490   -3.3130   19.2680 C   0  0  0  0  0  0  0  0  0  0  0  0
    6.4580   -4.1300   20.2560 C   0  0  0  0  0  0  0  0  0  0  0  0
    5.3650   -4.6350   19.9330 O   0  0  0  0  0  0  0  0  0  0  0  0
    7.0740   -4.3910   21.5080 N   0  0  0  0  0  0  0  0  0  0  0  0
    6.5900   -5.4900   22.2570 C   0  0  0  0  0  0  0  0  0  0  0  0
    5.4980   -4.9640   23.1270 C   0  0  0  0  0  0  0  0  0  0  0  0
    6.0350   -3.8660   24.0400 C   0  0  0  0  0  0  0  0  0  0  0  0
    4.8260   -3.2510   24.6670 C   0  0  0  0  0  0  0  0  0  0  0  0
    3.7600   -3.8120   24.4610 O   0  0  0  0  0  0  0  0  0  0  0  0
    4.9730   -2.1210   25.4250 N   0  0  0  0  0  0  0  0  0  0  0  0
    5.8160   -2.2260   26.5130 C   0  0  0  0  0  0  0  0  0  0  0  0
    5.3250   -1.8310   27.7720 C   0  0  0  0  0  0  0  0  0  0  0  0
    5.3860   -0.5570   28.2250 C   0  0  0  0  0  0  0  0  0  0  0  0
    5.9090    0.5390   27.5710 C   0  0  0  0  0  0  0  0  0  0  0  0
    4.8280   -0.5110   29.4980 N   0  0  0  0  0  0  0  0  0  0  0  0
    4.4280   -1.7170   29.8430 N   0  0  0  0  0  0  0  0  0  0  0  0
    3.8180   -1.9460   31.1190 C   0  0  0  0  0  0  0  0  0  0  0  0
    4.7100   -2.5920   28.8060 C   0  0  0  0  0  0  0  0  0  0  0  0
    4.4310   -4.0070   28.8020 N   0  0  0  0  0  0  0  0  0  0  0  0
    3.1600   -4.5950   28.3980 C   0  0  0  0  0  0  0  0  0  0  0  0
    3.2840   -6.0900   28.3340 C   0  0  0  0  0  0  0  0  0  0  0  0
    3.9510   -6.5800   29.2760 O   0  0  0  0  0  0  0  0  0  0  0  0
    5.0650   -6.0620   29.8960 C   0  0  0  0  0  0  0  0  0  0  0  0
    5.4830   -4.9610   29.1770 C   0  0  0  0  0  0  0  0  0  0  0  0
    6.7400   -2.7760   23.2690 C   0  0  0  0  0  0  0  0  0  0  0  0
    7.6500   -3.2620   22.1800 C   0  0  0  0  0  0  0  0  0  0  0  0
  1  2  1  0
  2  3  2  0
  2  4  1  0
  4  5  1  0
  5  6  1  0
  6  7  1  0
  7  8  1  0
  8  9  2  0
  8 10  1  0
 10 11  1  0
 11 12  1  0
 12 13  1  0
 13 14  1  0
 13 15  2  0
 15 16  1  0
 16 17  1  0
 12 18  2  0
 16 18  1  0
 18 19  1  0
 19 20  1  0
 20 21  1  0
 21 22  1  0
 22 23  1  0
 19 24  1  0
 23 24  1  0
  7 25  1  0
  4 26  1  0
 25 26  1  0
M  END
