piperidine-amides-29979-covalent
     RDKit          3D

 27 29  0  0  0  0  0  0  0  0999 V2000
    7.1410   -3.2530   19.2170 C   0  0  0  0  0  0  0  0  0  0  0  0
    6.3600   -4.0110   20.1890 C   0  0  0  0  0  0  0  0  0  0  0  0
    5.2850   -4.5130   19.8680 O   0  0  0  0  0  0  0  0  0  0  0  0
    6.8740   -4.2220   21.5060 N   0  0  0  0  0  0  0  0  0  0  0  0
    6.4410   -5.3700   22.2570 C   0  0  0  0  0  0  0  0  0  0  0  0
    5.6160   -4.9120   23.4210 C   0  0  0  0  0  0  0  0  0  0  0  0
    6.4760   -3.9510   24.2150 C   0  0  0  0  0  0  0  0  0  0  0  0
    5.7220   -3.4410   25.3890 C   0  0  0  0  0  0  0  0  0  0  0  0
    4.4800   -3.3290   25.3850 O   0  0  0  0  0  0  0  0  0  0  0  0
    6.4430   -3.0560   26.5450 N   0  0  0  0  0  0  0  0  0  0  0  0
    6.7900   -1.6580   26.6400 C   0  0  0  0  0  0  0  0  0  0  0  0
    6.3050   -3.8750   27.7300 C   0  0  2  0  0  0  0  0  0  0  0  0
    6.0690   -5.2370   27.6130 C   0  0  0  0  0  0  0  0  0  0  0  0
    5.2200   -3.2630   28.6410 C   0  0  0  0  0  0  0  0  0  0  0  0
    4.1760   -4.0590   29.0730 C   0  0  0  0  0  0  0  0  0  0  0  0
    3.1680   -3.4430   29.9340 C   0  0  0  0  0  0  0  0  0  0  0  0
    3.1760   -2.1280   30.3490 C   0  0  0  0  0  0  0  0  0  0  0  0
    4.1930   -1.2890   29.9490 C   0  0  0  0  0  0  0  0  0  0  0  0
    4.3220    0.0720   30.2960 N   0  0  0  0  0  0  0  0  0  0  0  0
    3.5210    0.5750   31.2520 C   0  0  0  0  0  0  0  0  0  0  0  0
    4.2880    1.1320   32.3610 C   0  0  0  0  0  0  0  0  0  0  0  0
    5.5070    0.9730   32.1850 O   0  0  0  0  0  0  0  0  0  0  0  0
    5.5410    0.3310   30.9740 C   0  0  0  0  0  0  0  0  0  0  0  0
    6.7590   -0.0310   30.4670 O   0  0  0  0  0  0  0  0  0  0  0  0
    5.2570   -1.8230   29.0790 C   0  0  0  0  0  0  0  0  0  0  0  0
    6.8980   -2.7630   23.3890 C   0  0  0  0  0  0  0  0  0  0  0  0
    7.6810   -3.2270   22.1660 C   0  0  0  0  0  0  0  0  0  0  0  0
  1  2  1  0
  2  3  2  0
  2  4  1  0
  4  5  1  0
  5  6  1  0
  6  7  1  0
  7  8  1  0
  8  9  2  0
  8 10  1  0
 10 11  1  0
 10 12  1  0
 12 13  1  6
 12 14  1  0
 14 15  2  0
 15 16  1  0
 16 17  2  0
 17 18  1  0
 18 19  1  0
 19 20  1  0
 20 21  1  0
 21 22  1  0
 19 23  1  0
 22 23  1  0
 23 24  2  0
 14 25  1  0
 18 25  2  0
  7 26  1  0
  4 27  1  0
 26 27  1  0
M  END
