piperidine-amides-6512-covalent
     RDKit          3D

 24 25  0  0  0  0  0  0  0  0999 V2000
    7.0910   -3.2990   19.2640 C   0  0  0  0  0  0  0  0  0  0  0  0
    6.3890   -4.1070   20.2720 C   0  0  0  0  0  0  0  0  0  0  0  0
    5.3540   -4.7330   19.9560 O   0  0  0  0  0  0  0  0  0  0  0  0
    6.8940   -4.2300   21.5760 N   0  0  0  0  0  0  0  0  0  0  0  0
    7.6450   -3.1380   22.1510 C   0  0  0  0  0  0  0  0  0  0  0  0
    6.8150   -2.6350   23.3320 C   0  0  0  0  0  0  0  0  0  0  0  0
    6.6040   -3.8270   24.2410 C   0  0  0  0  0  0  0  0  0  0  0  0
    5.8060   -3.4010   25.4120 C   0  0  0  0  0  0  0  0  0  0  0  0
    4.6210   -3.0560   25.2160 O   0  0  0  0  0  0  0  0  0  0  0  0
    6.3760   -3.3960   26.7160 N   0  0  0  0  0  0  0  0  0  0  0  0
    5.6790   -4.0300   27.8020 C   0  0  1  0  0  0  0  0  0  0  0  0
    6.5750   -4.9670   28.5920 C   0  0  0  0  0  0  0  0  0  0  0  0
    5.1730   -2.9850   28.7140 C   0  0  0  0  0  0  0  0  0  0  0  0
    3.9170   -2.6600   29.1590 C   0  0  0  0  0  0  0  0  0  0  0  0
    3.6890   -1.5960   30.0500 C   0  0  0  0  0  0  0  0  0  0  0  0
    4.7210   -0.8000   30.5430 C   0  0  0  0  0  0  0  0  0  0  0  0
    4.6190    0.3750   31.5030 C   0  0  0  0  0  0  0  0  0  0  0  0
    4.3030   -0.9780   32.1100 C   0  0  0  0  0  0  0  0  0  0  0  0
    5.6870    0.9840   32.0800 F   0  0  0  0  0  0  0  0  0  0  0  0
    3.4780    1.1740   31.4310 F   0  0  0  0  0  0  0  0  0  0  0  0
    6.0050   -1.0420   30.1600 C   0  0  0  0  0  0  0  0  0  0  0  0
    6.1440   -2.1530   29.2430 C   0  0  0  0  0  0  0  0  0  0  0  0
    5.8340   -4.9010   23.5170 C   0  0  0  0  0  0  0  0  0  0  0  0
    6.4600   -5.3220   22.3760 C   0  0  0  0  0  0  0  0  0  0  0  0
  1  2  1  0
  2  3  2  0
  2  4  1  0
  4  5  1  0
  5  6  1  0
  6  7  1  0
  7  8  1  0
  8  9  2  0
  8 10  1  0
 10 11  1  0
 11 12  1  1
 11 13  1  0
 13 14  2  0
 14 15  1  0
 15 16  2  0
 16 17  1  0
 17 18  1  0
 17 19  1  0
 17 20  1  0
 16 21  1  0
 13 22  1  0
 21 22  2  0
  7 23  1  0
  4 24  1  0
 23 24  1  0
M  END
