piperidine-amides-13858-covalent
     RDKit          3D

 26 28  0  0  0  0  0  0  0  0999 V2000
    7.1010   -3.3270   19.3130 C   0  0  0  0  0  0  0  0  0  0  0  0
    6.3880   -4.1780   20.3010 C   0  0  0  0  0  0  0  0  0  0  0  0
    5.3500   -4.7650   19.9600 O   0  0  0  0  0  0  0  0  0  0  0  0
    6.9440   -4.3410   21.5870 N   0  0  0  0  0  0  0  0  0  0  0  0
    7.7180   -3.2960   22.2070 C   0  0  0  0  0  0  0  0  0  0  0  0
    6.8290   -2.6850   23.2830 C   0  0  0  0  0  0  0  0  0  0  0  0
    6.5040   -3.7860   24.2270 C   0  0  0  0  0  0  0  0  0  0  0  0
    5.7900   -3.2930   25.4190 C   0  0  0  0  0  0  0  0  0  0  0  0
    4.5550   -3.2740   25.3550 O   0  0  0  0  0  0  0  0  0  0  0  0
    6.5060   -2.8660   26.5380 N   0  0  0  0  0  0  0  0  0  0  0  0
    6.4110   -1.6080   27.1750 C   0  0  0  0  0  0  0  0  0  0  0  0
    5.7890   -0.4460   26.7220 C   0  0  0  0  0  0  0  0  0  0  0  0
    5.7150    0.7910   27.4060 C   0  0  0  0  0  0  0  0  0  0  0  0
    6.2750    0.9820   28.6420 C   0  0  0  0  0  0  0  0  0  0  0  0
    6.2020    2.2750   29.3900 C   0  0  1  0  0  0  0  0  0  0  0  0
    5.0070    2.3320   30.3530 C   0  0  0  0  0  0  0  0  0  0  0  0
    7.5150    2.5180   29.8510 N   0  0  0  0  0  0  0  0  0  0  0  0
    8.3820    3.4030   29.1530 C   0  0  0  0  0  0  0  0  0  0  0  0
    7.8670    4.6810   29.1600 C   0  0  0  0  0  0  0  0  0  0  0  0
    7.9020    5.0930   30.4720 O   0  0  0  0  0  0  0  0  0  0  0  0
    7.3820    4.2750   31.4880 C   0  0  0  0  0  0  0  0  0  0  0  0
    7.5570    2.7850   31.2410 C   0  0  0  0  0  0  0  0  0  0  0  0
    6.9750   -0.1670   29.2470 C   0  0  0  0  0  0  0  0  0  0  0  0
    7.0730   -1.5150   28.5360 C   0  0  0  0  0  0  0  0  0  0  0  0
    5.7860   -4.9490   23.6130 C   0  0  0  0  0  0  0  0  0  0  0  0
    6.5700   -5.4690   22.4090 C   0  0  0  0  0  0  0  0  0  0  0  0
  1  2  1  0
  2  3  2  0
  2  4  1  0
  4  5  1  0
  5  6  1  0
  6  7  1  0
  7  8  1  0
  8  9  2  0
  8 10  1  0
 10 11  1  0
 11 12  2  0
 12 13  1  0
 13 14  2  0
 14 15  1  0
 15 16  1  1
 15 17  1  0
 17 18  1  0
 18 19  1  0
 19 20  1  0
 20 21  1  0
 17 22  1  0
 21 22  1  0
 14 23  1  0
 11 24  1  0
 23 24  2  0
  7 25  1  0
  4 26  1  0
 25 26  1  0
M  END
