piperidine-amides-31860-covalent
     RDKit          3D

 27 29  0  0  0  0  0  0  0  0999 V2000
    7.1290   -3.3480   19.4270 C   0  0  0  0  0  0  0  0  0  0  0  0
    6.4280   -4.1980   20.3590 C   0  0  0  0  0  0  0  0  0  0  0  0
    5.3830   -4.8070   19.9690 O   0  0  0  0  0  0  0  0  0  0  0  0
    6.8950   -4.4080   21.6700 N   0  0  0  0  0  0  0  0  0  0  0  0
    7.8150   -3.4150   22.2670 C   0  0  0  0  0  0  0  0  0  0  0  0
    6.9050   -2.8650   23.4180 C   0  0  0  0  0  0  0  0  0  0  0  0
    6.5250   -4.0730   24.2600 C   0  0  0  0  0  0  0  0  0  0  0  0
    5.5830   -3.5880   25.4500 C   0  0  0  0  0  0  0  0  0  0  0  0
    4.4500   -3.4620   25.0090 O   0  0  0  0  0  0  0  0  0  0  0  0
    6.1730   -3.4290   26.5820 N   0  0  0  0  0  0  0  0  0  0  0  0
    6.3300   -3.0010   27.8660 C   0  0  1  0  0  0  0  0  0  0  0  0
    6.0390   -1.8350   28.5380 C   0  0  0  0  0  0  0  0  0  0  0  0
    5.1130   -1.9060   29.5920 C   0  0  0  0  0  0  0  0  0  0  0  0
    4.6670   -0.7550   30.4440 C   0  0  0  0  0  0  0  0  0  0  0  0
    5.3410    0.6120   30.0570 C   0  0  0  0  0  0  0  0  0  0  0  0
    6.2270    0.4500   28.9810 C   0  0  0  0  0  0  0  0  0  0  0  0
    6.5590   -0.6790   28.2690 C   0  0  0  0  0  0  0  0  0  0  0  0
    5.4840   -3.9580   28.5840 C   0  0  0  0  0  0  0  0  0  0  0  0
    6.1370   -5.4950   28.6490 S   0  0  0  0  0  0  0  0  0  0  0  0
    7.4710   -5.3060   27.4640 C   0  0  0  0  0  0  0  0  0  0  0  0
    7.4880   -4.0010   26.9570 C   0  0  1  0  0  0  0  0  0  0  0  0
    8.4150   -3.7460   25.9860 C   0  0  0  0  0  0  0  0  0  0  0  0
    8.4340   -2.5500   25.6740 O   0  0  0  0  0  0  0  0  0  0  0  0
    9.2050   -4.5530   25.4510 O   0  0  0  0  0  0  0  0  0  0  0  0
    9.5280   -5.7180   26.1800 C   0  0  0  0  0  0  0  0  0  0  0  0
    5.9060   -5.2360   23.5400 C   0  0  0  0  0  0  0  0  0  0  0  0
    6.6100   -5.6030   22.4000 C   0  0  0  0  0  0  0  0  0  0  0  0
  1  2  1  0
  2  3  2  0
  2  4  1  0
  4  5  1  0
  5  6  1  0
  6  7  1  0
  7  8  1  0
  8  9  2  0
  8 10  1  0
 10 11  1  0
 11 12  1  6
 12 13  2  0
 13 14  1  0
 14 15  2  0
 15 16  1  0
 12 17  1  0
 16 17  2  0
 11 18  1  0
 18 19  1  0
 19 20  1  0
 10 21  1  0
 20 21  1  0
 21 22  1  6
 22 23  2  0
 22 24  1  0
 24 25  1  0
  7 26  1  0
  4 27  1  0
 26 27  1  0
M  END
