piperidine-amides-28089-covalent
     RDKit          3D

 26 28  0  0  0  0  0  0  0  0999 V2000
    7.1030   -3.3360   19.2540 C   0  0  0  0  0  0  0  0  0  0  0  0
    6.3510   -4.0930   20.2750 C   0  0  0  0  0  0  0  0  0  0  0  0
    5.2800   -4.6070   19.9060 O   0  0  0  0  0  0  0  0  0  0  0  0
    6.8640   -4.2680   21.5680 N   0  0  0  0  0  0  0  0  0  0  0  0
    7.6230   -3.2230   22.1800 C   0  0  0  0  0  0  0  0  0  0  0  0
    7.1710   -2.8070   23.5120 C   0  0  0  0  0  0  0  0  0  0  0  0
    6.4020   -3.8140   24.2790 C   0  0  0  0  0  0  0  0  0  0  0  0
    5.5720   -3.1340   25.3070 C   0  0  0  0  0  0  0  0  0  0  0  0
    4.5700   -2.5250   24.9000 O   0  0  0  0  0  0  0  0  0  0  0  0
    5.8560   -3.1700   26.6930 N   0  0  0  0  0  0  0  0  0  0  0  0
    5.3310   -4.3320   27.4600 C   0  0  0  0  0  0  0  0  0  0  0  0
    5.5090   -5.7010   26.9590 C   0  0  0  0  0  0  0  0  0  0  0  0
    5.3730   -6.7080   27.9880 C   0  0  0  0  0  0  0  0  0  0  0  0
    5.1220   -6.3320   29.2930 C   0  0  0  0  0  0  0  0  0  0  0  0
    5.6340   -6.8210   30.3160 O   0  0  0  0  0  0  0  0  0  0  0  0
    4.1720   -5.2850   29.3030 N   0  0  0  0  0  0  0  0  0  0  0  0
    2.7710   -5.6350   29.4310 C   0  0  0  0  0  0  0  0  0  0  0  0
    4.6210   -4.1470   28.7050 C   0  0  0  0  0  0  0  0  0  0  0  0
    5.8320   -1.9160   27.4460 C   0  0  0  0  0  0  0  0  0  0  0  0
    6.1760   -0.8990   26.5970 C   0  0  0  0  0  0  0  0  0  0  0  0
    5.9360    0.3420   27.2280 C   0  0  0  0  0  0  0  0  0  0  0  0
    6.2730    0.4290   28.6760 C   0  0  0  0  0  0  0  0  0  0  0  0
    7.2760   -0.6900   28.8370 C   0  0  0  0  0  0  0  0  0  0  0  0
    6.5170   -1.9410   28.6410 C   0  0  0  0  0  0  0  0  0  0  0  0
    5.6400   -4.8050   23.5050 C   0  0  0  0  0  0  0  0  0  0  0  0
    6.4660   -5.3890   22.3870 C   0  0  0  0  0  0  0  0  0  0  0  0
  1  2  1  0
  2  3  2  0
  2  4  1  0
  4  5  1  0
  5  6  1  0
  6  7  1  0
  7  8  1  0
  8  9  2  0
  8 10  1  0
 10 11  1  0
 11 12  1  0
 12 13  2  0
 13 14  1  0
 14 15  2  0
 14 16  1  0
 16 17  1  0
 11 18  2  0
 16 18  1  0
 10 19  1  0
 19 20  1  0
 20 21  1  0
 21 22  1  0
 22 23  1  0
 19 24  1  0
 23 24  1  0
  7 25  1  0
  4 26  1  0
 25 26  1  0
M  END
