piperidine-amides-6443-covalent
     RDKit          3D

 25 27  0  0  0  0  0  0  0  0999 V2000
    7.0470   -3.3230   19.3590 C   0  0  0  0  0  0  0  0  0  0  0  0
    6.3690   -4.1820   20.3460 C   0  0  0  0  0  0  0  0  0  0  0  0
    5.4080   -4.8970   19.9930 O   0  0  0  0  0  0  0  0  0  0  0  0
    6.8180   -4.2300   21.6780 N   0  0  0  0  0  0  0  0  0  0  0  0
    6.6680   -5.4660   22.4160 C   0  0  0  0  0  0  0  0  0  0  0  0
    5.9350   -5.1100   23.7130 C   0  0  0  0  0  0  0  0  0  0  0  0
    6.1090   -3.6190   23.8750 C   0  0  0  0  0  0  0  0  0  0  0  0
    5.6880   -3.1660   25.2190 C   0  0  0  0  0  0  0  0  0  0  0  0
    4.4680   -3.1490   25.4870 O   0  0  0  0  0  0  0  0  0  0  0  0
    6.6650   -2.7710   26.1550 N   0  0  0  0  0  0  0  0  0  0  0  0
    6.5010   -1.5680   26.9280 C   0  0  0  0  0  0  0  0  0  0  0  0
    6.9870   -1.5810   28.3640 C   0  0  0  0  0  0  0  0  0  0  0  0
    6.8970   -0.5280   29.2120 C   0  0  0  0  0  0  0  0  0  0  0  0
    6.3370    0.6370   28.7810 C   0  0  0  0  0  0  0  0  0  0  0  0
    6.2620    1.7120   29.7180 N   0  0  0  0  0  0  0  0  0  0  0  0
    7.1580    1.9930   30.6920 C   0  0  0  0  0  0  0  0  0  0  0  0
    8.5070    2.1130   30.7870 O   0  0  0  0  0  0  0  0  0  0  0  0
    6.4060    2.1870   31.7960 C   0  0  0  0  0  0  0  0  0  0  0  0
    5.0900    2.0780   31.5110 N   0  0  0  0  0  0  0  0  0  0  0  0
    4.9900    1.8060   30.1620 C   0  0  0  0  0  0  0  0  0  0  0  0
    3.8270    1.6700   29.4650 O   0  0  0  0  0  0  0  0  0  0  0  0
    5.8590    0.7920   27.5110 C   0  0  0  0  0  0  0  0  0  0  0  0
    5.8800   -0.2700   26.4430 C   0  0  0  0  0  0  0  0  0  0  0  0
    7.5440   -3.2500   23.6130 C   0  0  0  0  0  0  0  0  0  0  0  0
    7.6440   -3.1590   22.2150 C   0  0  0  0  0  0  0  0  0  0  0  0
  1  2  1  0
  2  3  2  0
  2  4  1  0
  4  5  1  0
  5  6  1  0
  6  7  1  0
  7  8  1  0
  8  9  2  0
  8 10  1  0
 10 11  1  0
 11 12  2  0
 12 13  1  0
 13 14  2  0
 14 15  1  0
 15 16  1  0
 16 17  2  0
 16 18  1  0
 18 19  1  0
 15 20  1  0
 19 20  1  0
 20 21  2  0
 14 22  1  0
 11 23  1  0
 22 23  2  0
  7 24  1  0
  4 25  1  0
 24 25  1  0
M  END
