piperidine-amides-2936-covalent
     RDKit          3D

 24 25  0  0  0  0  0  0  0  0999 V2000
    7.0780   -3.2740   19.1980 C   0  0  0  0  0  0  0  0  0  0  0  0
    6.3100   -3.9960   20.2100 C   0  0  0  0  0  0  0  0  0  0  0  0
    5.2650   -4.5610   19.8880 O   0  0  0  0  0  0  0  0  0  0  0  0
    6.7830   -4.1060   21.5620 N   0  0  0  0  0  0  0  0  0  0  0  0
    7.6860   -3.1130   22.0940 C   0  0  0  0  0  0  0  0  0  0  0  0
    7.4090   -2.9210   23.5530 C   0  0  0  0  0  0  0  0  0  0  0  0
    6.0420   -3.5250   23.7990 C   0  0  0  0  0  0  0  0  0  0  0  0
    5.5680   -3.1830   25.1760 C   0  0  0  0  0  0  0  0  0  0  0  0
    4.3610   -3.1810   25.4730 O   0  0  0  0  0  0  0  0  0  0  0  0
    6.5100   -2.8430   26.1760 N   0  0  0  0  0  0  0  0  0  0  0  0
    7.0180   -3.8680   27.0540 C   0  0  2  0  0  0  0  0  0  0  0  0
    8.1630   -4.4840   26.3270 C   0  0  0  0  0  0  0  0  0  0  0  0
    8.7500   -5.5440   26.9380 C   0  0  0  0  0  0  0  0  0  0  0  0
    9.1560   -5.3570   28.2060 F   0  0  0  0  0  0  0  0  0  0  0  0
    7.7480   -6.4630   27.0140 F   0  0  0  0  0  0  0  0  0  0  0  0
    9.7590   -6.0990   26.1890 F   0  0  0  0  0  0  0  0  0  0  0  0
    6.0810   -4.9700   27.3990 C   0  0  0  0  0  0  0  0  0  0  0  0
    6.0500   -5.5520   28.6700 C   0  0  0  0  0  0  0  0  0  0  0  0
    5.1230   -6.6400   28.9650 C   0  0  0  0  0  0  0  0  0  0  0  0
    4.2820   -7.0930   27.9990 C   0  0  0  0  0  0  0  0  0  0  0  0
    4.3020   -6.5320   26.7550 C   0  0  0  0  0  0  0  0  0  0  0  0
    5.1870   -5.4920   26.4670 C   0  0  0  0  0  0  0  0  0  0  0  0
    5.8880   -4.9470   23.5010 C   0  0  0  0  0  0  0  0  0  0  0  0
    6.5730   -5.2980   22.3390 C   0  0  0  0  0  0  0  0  0  0  0  0
  1  2  1  0
  2  3  2  0
  2  4  1  0
  4  5  1  0
  5  6  1  0
  6  7  1  0
  7  8  1  0
  8  9  2  0
  8 10  1  0
 10 11  1  0
 11 12  1  6
 12 13  1  0
 13 14  1  0
 13 15  1  0
 13 16  1  0
 11 17  1  0
 17 18  2  0
 18 19  1  0
 19 20  2  0
 20 21  1  0
 17 22  1  0
 21 22  2  0
  7 23  1  0
  4 24  1  0
 23 24  1  0
M  END
