piperidine-amides-3618-covalent
     RDKit          3D

 19 21  0  0  0  0  0  0  0  0999 V2000
    7.1310   -3.3300   19.3190 C   0  0  0  0  0  0  0  0  0  0  0  0
    6.3750   -4.1100   20.3090 C   0  0  0  0  0  0  0  0  0  0  0  0
    5.3050   -4.6330   19.9180 O   0  0  0  0  0  0  0  0  0  0  0  0
    6.8740   -4.3030   21.6240 N   0  0  0  0  0  0  0  0  0  0  0  0
    7.6740   -3.2710   22.1950 C   0  0  0  0  0  0  0  0  0  0  0  0
    7.3630   -3.0400   23.5890 C   0  0  0  0  0  0  0  0  0  0  0  0
    6.1350   -3.7340   24.0030 C   0  0  0  0  0  0  0  0  0  0  0  0
    5.7370   -3.3620   25.3930 C   0  0  0  0  0  0  0  0  0  0  0  0
    4.7000   -3.8440   25.8770 O   0  0  0  0  0  0  0  0  0  0  0  0
    6.4930   -2.4630   26.1620 N   0  0  0  0  0  0  0  0  0  0  0  0
    6.0650   -1.2260   26.6960 C   0  0  0  0  0  0  0  0  0  0  0  0
    6.1940    0.1300   26.1680 C   0  0  0  0  0  0  0  0  0  0  0  0
    4.7980    0.7800   26.1390 C   0  0  0  0  0  0  0  0  0  0  0  0
    4.2710    1.2200   24.9700 C   0  0  0  0  0  0  0  0  0  0  0  0
    3.8240   -0.1560   25.2800 C   0  0  0  0  0  0  0  0  0  0  0  0
    5.4060   -1.2360   28.0250 C   0  0  0  0  0  0  0  0  0  0  0  0
    6.8850   -0.8610   27.9540 C   0  0  0  0  0  0  0  0  0  0  0  0
    6.1690   -5.2290   23.7830 C   0  0  0  0  0  0  0  0  0  0  0  0
    6.6390   -5.5320   22.3600 C   0  0  0  0  0  0  0  0  0  0  0  0
  1  2  1  0
  2  3  2  0
  2  4  1  0
  4  5  1  0
  5  6  1  0
  6  7  1  0
  7  8  1  0
  8  9  2  0
  8 10  1  0
 10 11  1  0
 11 12  1  0
 12 13  1  0
 13 14  1  0
 13 15  1  0
 14 15  1  0
 11 16  1  0
 11 17  1  0
 16 17  1  0
  7 18  1  0
  4 19  1  0
 18 19  1  0
M  END
