piperidine-amides-7407-covalent
     RDKit          3D

 19 20  0  0  0  0  0  0  0  0999 V2000
    7.0980   -3.2840   19.2250 C   0  0  0  0  0  0  0  0  0  0  0  0
    6.3700   -4.0440   20.2450 C   0  0  0  0  0  0  0  0  0  0  0  0
    5.2830   -4.5650   19.8870 O   0  0  0  0  0  0  0  0  0  0  0  0
    6.9090   -4.2040   21.5170 N   0  0  0  0  0  0  0  0  0  0  0  0
    7.6660   -3.1520   22.1540 C   0  0  0  0  0  0  0  0  0  0  0  0
    6.8990   -2.6940   23.3590 C   0  0  0  0  0  0  0  0  0  0  0  0
    6.5480   -3.8500   24.2570 C   0  0  0  0  0  0  0  0  0  0  0  0
    5.7350   -3.3780   25.4010 C   0  0  0  0  0  0  0  0  0  0  0  0
    4.5770   -2.9790   25.1580 O   0  0  0  0  0  0  0  0  0  0  0  0
    6.1880   -3.3480   26.7400 N   0  0  0  0  0  0  0  0  0  0  0  0
    6.0400   -4.4900   27.6210 C   0  0  0  0  0  0  0  0  0  0  0  0
    4.6160   -4.7030   28.1120 C   0  0  0  0  0  0  0  0  0  0  0  0
    3.8270   -5.7970   27.9570 C   0  0  0  0  0  0  0  0  0  0  0  0
    2.6800   -5.5650   28.5300 N   0  0  0  0  0  0  0  0  0  0  0  0
    2.5980   -4.3810   29.0860 N   0  0  0  0  0  0  0  0  0  0  0  0
    3.8180   -3.8180   28.8310 N   0  0  0  0  0  0  0  0  0  0  0  0
    4.2280   -2.4890   29.2510 C   0  0  0  0  0  0  0  0  0  0  0  0
    5.7780   -4.8880   23.4580 C   0  0  0  0  0  0  0  0  0  0  0  0
    6.4570   -5.3090   22.3340 C   0  0  0  0  0  0  0  0  0  0  0  0
  1  2  1  0
  2  3  2  0
  2  4  1  0
  4  5  1  0
  5  6  1  0
  6  7  1  0
  7  8  1  0
  8  9  2  0
  8 10  1  0
 10 11  1  0
 11 12  1  0
 12 13  2  0
 13 14  1  0
 14 15  2  0
 12 16  1  0
 15 16  1  0
 16 17  1  0
  7 18  1  0
  4 19  1  0
 18 19  1  0
M  END
