piperidine-amides-10676-covalent
     RDKit          3D

 23 25  0  0  0  0  0  0  0  0999 V2000
    7.0630   -3.3320   19.3330 C   0  0  0  0  0  0  0  0  0  0  0  0
    6.3990   -4.1740   20.3300 C   0  0  0  0  0  0  0  0  0  0  0  0
    5.3510   -4.7630   19.9580 O   0  0  0  0  0  0  0  0  0  0  0  0
    6.9540   -4.3380   21.6030 N   0  0  0  0  0  0  0  0  0  0  0  0
    7.7340   -3.3110   22.2550 C   0  0  0  0  0  0  0  0  0  0  0  0
    6.9790   -2.8270   23.4580 C   0  0  0  0  0  0  0  0  0  0  0  0
    6.4190   -3.9500   24.2970 C   0  0  0  0  0  0  0  0  0  0  0  0
    5.5670   -3.3830   25.3710 C   0  0  0  0  0  0  0  0  0  0  0  0
    4.5010   -2.8470   25.0000 O   0  0  0  0  0  0  0  0  0  0  0  0
    5.8610   -3.3980   26.7570 N   0  0  0  0  0  0  0  0  0  0  0  0
    5.8410   -2.1670   27.5250 C   0  0  0  0  0  0  0  0  0  0  0  0
    4.7490   -2.0330   28.5930 C   0  0  0  0  0  0  0  0  0  0  0  0
    3.4470   -2.5130   28.4250 C   0  0  0  0  0  0  0  0  0  0  0  0
    2.9640   -3.3180   26.9510 Cl  0  0  0  0  0  0  0  0  0  0  0  0
    2.4890   -2.3760   29.4050 C   0  0  0  0  0  0  0  0  0  0  0  0
    2.7890   -1.7570   30.5870 C   0  0  0  0  0  0  0  0  0  0  0  0
    4.0560   -1.2750   30.7780 C   0  0  0  0  0  0  0  0  0  0  0  0
    5.0300   -1.4000   29.8090 C   0  0  0  0  0  0  0  0  0  0  0  0
    6.6390   -0.7520   30.1190 Cl  0  0  0  0  0  0  0  0  0  0  0  0
    7.0560   -1.1260   27.3390 C   0  0  0  0  0  0  0  0  0  0  0  0
    5.7770   -1.0160   26.8290 C   0  0  0  0  0  0  0  0  0  0  0  0
    5.6270   -4.9560   23.4480 C   0  0  0  0  0  0  0  0  0  0  0  0
    6.5830   -5.4910   22.3990 C   0  0  0  0  0  0  0  0  0  0  0  0
  1  2  1  0
  2  3  2  0
  2  4  1  0
  4  5  1  0
  5  6  1  0
  6  7  1  0
  7  8  1  0
  8  9  2  0
  8 10  1  0
 11 10  1  0
 11 12  1  0
 12 13  2  0
 13 14  1  0
 13 15  1  0
 15 16  2  0
 16 17  1  0
 12 18  1  0
 17 18  2  0
 18 19  1  0
 11 20  1  0
 11 21  1  0
 20 21  1  0
  7 22  1  0
  4 23  1  0
 22 23  1  0
M  END
