piperidine-amides-3572-covalent
     RDKit          3D

 19 20  0  0  0  0  0  0  0  0999 V2000
    7.1080   -3.2840   19.2390 C   0  0  0  0  0  0  0  0  0  0  0  0
    6.3850   -4.0560   20.2600 C   0  0  0  0  0  0  0  0  0  0  0  0
    5.3130   -4.6010   19.9070 O   0  0  0  0  0  0  0  0  0  0  0  0
    6.9130   -4.2180   21.5680 N   0  0  0  0  0  0  0  0  0  0  0  0
    6.5480   -5.3680   22.3170 C   0  0  0  0  0  0  0  0  0  0  0  0
    6.0080   -5.0380   23.6290 C   0  0  0  0  0  0  0  0  0  0  0  0
    6.0610   -3.5920   23.9130 C   0  0  0  0  0  0  0  0  0  0  0  0
    5.5310   -3.2710   25.2760 C   0  0  0  0  0  0  0  0  0  0  0  0
    4.4280   -2.7070   25.3760 O   0  0  0  0  0  0  0  0  0  0  0  0
    6.2450   -3.5790   26.4430 N   0  0  0  0  0  0  0  0  0  0  0  0
    5.8440   -4.3890   27.5290 C   0  0  0  0  0  0  0  0  0  0  0  0
    6.0990   -5.8360   27.5640 C   0  0  0  0  0  0  0  0  0  0  0  0
    6.5870   -3.8900   28.7220 C   0  0  0  0  0  0  0  0  0  0  0  0
    4.3600   -4.3180   27.7350 C   0  0  0  0  0  0  0  0  0  0  0  0
    3.5660   -5.3250   26.8990 C   0  0  0  0  0  0  0  0  0  0  0  0
    2.6130   -5.4820   28.0440 C   0  0  0  0  0  0  0  0  0  0  0  0
    3.7400   -4.9330   28.9290 C   0  0  0  0  0  0  0  0  0  0  0  0
    7.4170   -2.9940   23.6480 C   0  0  0  0  0  0  0  0  0  0  0  0
    7.7320   -3.1720   22.1700 C   0  0  0  0  0  0  0  0  0  0  0  0
  1  2  1  0
  2  3  2  0
  2  4  1  0
  4  5  1  0
  5  6  1  0
  6  7  1  0
  7  8  1  0
  8  9  2  0
  8 10  1  0
 11 10  1  0
 11 12  1  0
 11 13  1  0
 11 14  1  0
 14 15  1  0
 15 16  1  0
 14 17  1  0
 16 17  1  0
  7 18  1  0
  4 19  1  0
 18 19  1  0
M  END
