piperidine-amides-31903-covalent
     RDKit          3D

 29 32  0  0  0  0  0  0  0  0999 V2000
    7.2000   -3.3520   19.4140 C   0  0  0  0  0  0  0  0  0  0  0  0
    6.4530   -4.1390   20.3570 C   0  0  0  0  0  0  0  0  0  0  0  0
    5.3940   -4.7290   19.9610 O   0  0  0  0  0  0  0  0  0  0  0  0
    6.9050   -4.3140   21.6820 N   0  0  0  0  0  0  0  0  0  0  0  0
    6.6560   -5.6130   22.3060 C   0  0  0  0  0  0  0  0  0  0  0  0
    5.6030   -5.1080   23.3450 C   0  0  0  0  0  0  0  0  0  0  0  0
    6.3320   -4.1030   24.2140 C   0  0  0  0  0  0  0  0  0  0  0  0
    5.3040   -3.5810   25.3110 C   0  0  0  0  0  0  0  0  0  0  0  0
    4.1940   -3.6210   24.8100 O   0  0  0  0  0  0  0  0  0  0  0  0
    5.8010   -3.2090   26.4350 N   0  0  0  0  0  0  0  0  0  0  0  0
    6.0460   -2.5670   27.5620 C   0  0  0  0  0  0  0  0  0  0  0  0
    5.9480   -3.1680   28.8190 C   0  0  0  0  0  0  0  0  0  0  0  0
    6.1770   -2.3800   29.9540 O   0  0  0  0  0  0  0  0  0  0  0  0
    5.5780   -4.6610   28.7680 N   0  0  0  0  0  0  0  0  0  0  0  0
    4.3250   -5.2260   28.9320 C   0  0  0  0  0  0  0  0  0  0  0  0
    3.8820   -5.5510   27.5480 C   0  0  0  0  0  0  0  0  0  0  0  0
    2.8880   -4.5660   27.0620 C   0  0  0  0  0  0  0  0  0  0  0  0
    2.5470   -5.0090   25.7240 C   0  0  0  0  0  0  0  0  0  0  0  0
    2.9110   -6.1080   24.7890 C   0  0  0  0  0  0  0  0  0  0  0  0
    3.9580   -6.9370   25.6160 C   0  0  0  0  0  0  0  0  0  0  0  0
    4.4900   -6.6970   27.0300 C   0  0  0  0  0  0  0  0  0  0  0  0
    6.4240   -5.2660   27.7900 C   0  0  0  0  0  0  0  0  0  0  0  0
    6.4390   -6.0640   28.8310 C   0  0  0  0  0  0  0  0  0  0  0  0
    5.6890   -5.6830   29.8480 C   0  0  0  0  0  0  0  0  0  0  0  0
    4.9740   -4.4860   29.6950 C   0  0  0  0  0  0  0  0  0  0  0  0
    4.9000   -3.5440   28.5890 C   0  0  0  0  0  0  0  0  0  0  0  0
    5.8280   -4.1440   27.5190 C   0  0  0  0  0  0  0  0  0  0  0  0
    7.0410   -2.9140   23.5720 C   0  0  0  0  0  0  0  0  0  0  0  0
    7.7470   -3.3110   22.2790 C   0  0  0  0  0  0  0  0  0  0  0  0
  1  2  1  0
  2  3  2  0
  2  4  1  0
  4  5  1  0
  5  6  1  0
  6  7  1  0
  7  8  1  0
  8  9  2  0
  8 10  1  0
 10 11  1  0
 11 12  1  0
 12 13  2  0
 12 14  1  0
 14 15  1  0
 15 16  1  0
 16 17  2  0
 17 18  1  0
 18 19  2  0
 19 20  1  0
 16 21  1  0
 20 21  2  0
 14 22  1  0
 22 23  2  0
 23 24  1  0
 24 25  2  0
 25 26  1  0
 10 27  1  0
 22 27  1  0
 26 27  2  0
  7 28  1  0
  4 29  1  0
 28 29  1  0
M  END
