piperidine-amides-564-covalent
     RDKit          3D

 26 27  0  0  0  0  0  0  0  0999 V2000
    7.0260   -3.3100   19.2260 C   0  0  0  0  0  0  0  0  0  0  0  0
    6.2340   -4.0270   20.2090 C   0  0  0  0  0  0  0  0  0  0  0  0
    5.1440   -4.5270   19.8390 O   0  0  0  0  0  0  0  0  0  0  0  0
    6.6130   -4.2520   21.5390 N   0  0  0  0  0  0  0  0  0  0  0  0
    7.5380   -3.3120   22.1670 C   0  0  0  0  0  0  0  0  0  0  0  0
    6.5620   -2.6250   23.1960 C   0  0  0  0  0  0  0  0  0  0  0  0
    5.5540   -3.6740   23.6220 C   0  0  0  0  0  0  0  0  0  0  0  0
    4.9850   -3.2530   25.0460 C   0  0  0  0  0  0  0  0  0  0  0  0
    3.7790   -3.0620   25.0640 O   0  0  0  0  0  0  0  0  0  0  0  0
    5.9930   -3.2370   25.7700 N   0  0  0  0  0  0  0  0  0  0  0  0
    7.1650   -3.2790   26.3810 C   0  0  0  0  0  0  0  0  0  0  0  0
    8.3240   -3.9310   26.2400 C   0  0  2  0  0  0  0  0  0  0  0  0
    8.6390   -4.1090   24.8710 C   0  0  0  0  0  0  0  0  0  0  0  0
    9.6050   -3.0660   24.3770 C   0  0  0  0  0  0  0  0  0  0  0  0
    9.0740   -2.0880   23.4120 C   0  0  0  0  0  0  0  0  0  0  0  0
   10.1860   -1.2110   23.1120 C   0  0  0  0  0  0  0  0  0  0  0  0
   11.6120   -1.0510   23.4950 C   0  0  0  0  0  0  0  0  0  0  0  0
   12.7400    0.1610   22.9430 Cl  0  0  0  0  0  0  0  0  0  0  0  0
   11.8040   -2.2340   24.5020 C   0  0  0  0  0  0  0  0  0  0  0  0
   10.8090   -3.2870   24.9800 C   0  0  0  0  0  0  0  0  0  0  0  0
   11.0770   -4.5740   26.0970 Cl  0  0  0  0  0  0  0  0  0  0  0  0
    8.3210   -5.3710   26.6490 C   0  0  0  0  0  0  0  0  0  0  0  0
    9.3160   -6.0190   26.0310 C   0  0  0  0  0  0  0  0  0  0  0  0
    8.6260   -5.4370   28.1050 C   0  0  0  0  0  0  0  0  0  0  0  0
    5.9290   -5.1280   23.5360 C   0  0  0  0  0  0  0  0  0  0  0  0
    6.2760   -5.4610   22.2210 C   0  0  0  0  0  0  0  0  0  0  0  0
  1  2  1  0
  2  3  2  0
  2  4  1  0
  4  5  1  0
  5  6  1  0
  6  7  1  0
  7  8  1  0
  8  9  2  0
  8 10  1  0
 10 11  1  0
 12 11  1  6
 12 13  1  0
 13 14  1  0
 14 15  2  0
 15 16  1  0
 16 17  2  0
 17 18  1  0
 17 19  1  0
 14 20  1  0
 19 20  2  0
 20 21  1  0
 12 22  1  0
 22 23  1  0
 22 24  1  0
  7 25  1  0
  4 26  1  0
 25 26  1  0
M  END
