piperidine-amides-30539-covalent
     RDKit          3D

 26 28  0  0  0  0  0  0  0  0999 V2000
    7.0170   -3.3620   19.4350 C   0  0  0  0  0  0  0  0  0  0  0  0
    6.3860   -4.2360   20.4280 C   0  0  0  0  0  0  0  0  0  0  0  0
    5.4540   -4.9630   20.0240 O   0  0  0  0  0  0  0  0  0  0  0  0
    6.8110   -4.3120   21.7900 N   0  0  0  0  0  0  0  0  0  0  0  0
    6.5940   -5.5150   22.5860 C   0  0  0  0  0  0  0  0  0  0  0  0
    5.9470   -5.1170   23.9130 C   0  0  0  0  0  0  0  0  0  0  0  0
    5.7690   -3.6320   24.0250 C   0  0  0  0  0  0  0  0  0  0  0  0
    4.9660   -3.1170   25.2250 C   0  0  0  0  0  0  0  0  0  0  0  0
    3.7620   -2.8280   25.0110 O   0  0  0  0  0  0  0  0  0  0  0  0
    5.3460   -2.9200   26.5960 N   0  0  0  0  0  0  0  0  0  0  0  0
    4.3830   -3.0770   27.6930 C   0  0  0  0  0  0  0  0  0  0  0  0
    5.0790   -3.7600   28.8420 C   0  0  0  0  0  0  0  0  0  0  0  0
    6.0010   -4.9040   28.5830 C   0  0  0  0  0  0  0  0  0  0  0  0
    5.5580   -6.3210   28.8990 C   0  0  1  0  0  0  0  0  0  0  0  0
    6.8250   -6.7940   29.0650 O   0  0  0  0  0  0  0  0  0  0  0  0
    4.8800   -6.4680   30.2490 C   0  0  0  0  0  0  0  0  0  0  0  0
    5.5500   -7.3530   31.2520 C   0  0  0  0  0  0  0  0  0  0  0  0
    4.9960   -7.5400   32.4910 C   0  0  0  0  0  0  0  0  0  0  0  0
    3.8150   -6.9920   33.0010 C   0  0  0  0  0  0  0  0  0  0  0  0
    3.2650   -7.3590   34.6400 Cl  0  0  0  0  0  0  0  0  0  0  0  0
    3.0690   -6.0860   32.0590 C   0  0  0  0  0  0  0  0  0  0  0  0
    3.5740   -5.7910   30.6480 C   0  0  0  0  0  0  0  0  0  0  0  0
    6.0170   -4.6990   27.1230 C   0  0  0  0  0  0  0  0  0  0  0  0
    6.4650   -3.5930   26.8850 C   0  0  0  0  0  0  0  0  0  0  0  0
    6.9920   -2.8800   23.6810 C   0  0  0  0  0  0  0  0  0  0  0  0
    7.5240   -3.2390   22.4500 C   0  0  0  0  0  0  0  0  0  0  0  0
  1  2  1  0
  2  3  2  0
  2  4  1  0
  4  5  1  0
  5  6  1  0
  6  7  1  0
  7  8  1  0
  8  9  2  0
  8 10  1  0
 10 11  1  0
 11 12  1  0
 12 13  1  0
 13 14  1  0
 14 15  1  1
 14 16  1  0
 16 17  2  0
 17 18  1  0
 18 19  2  0
 19 20  1  0
 19 21  1  0
 16 22  1  0
 21 22  2  0
 13 23  1  0
 10 24  1  0
 23 24  1  0
  7 25  1  0
  4 26  1  0
 25 26  1  0
M  END
