piperidine-amides-35653-covalent
     RDKit          3D

 40 44  0  0  0  0  0  0  0  0999 V2000
    7.0300   -3.3400   19.3310 C   0  0  0  0  0  0  0  0  0  0  0  0
    6.3890   -4.1980   20.3610 C   0  0  0  0  0  0  0  0  0  0  0  0
    5.4110   -4.8510   19.9900 O   0  0  0  0  0  0  0  0  0  0  0  0
    6.9120   -4.2790   21.6660 N   0  0  0  0  0  0  0  0  0  0  0  0
    7.7170   -3.2270   22.2650 C   0  0  0  0  0  0  0  0  0  0  0  0
    7.1910   -2.8970   23.6390 C   0  0  0  0  0  0  0  0  0  0  0  0
    5.7920   -3.4940   23.7520 C   0  0  0  0  0  0  0  0  0  0  0  0
    5.0460   -2.9660   24.9250 C   0  0  0  0  0  0  0  0  0  0  0  0
    3.8600   -2.6730   24.7640 O   0  0  0  0  0  0  0  0  0  0  0  0
    5.5830   -2.7900   26.2080 N   0  0  0  0  0  0  0  0  0  0  0  0
    5.5360   -3.9540   27.0840 C   0  0  0  0  0  0  0  0  0  0  0  0
    6.6390   -4.9230   26.8780 C   0  0  0  0  0  0  0  0  0  0  0  0
    6.7610   -6.0170   27.6510 C   0  0  0  0  0  0  0  0  0  0  0  0
    5.8310   -6.2590   28.6260 C   0  0  0  0  0  0  0  0  0  0  0  0
    5.7920   -7.4150   29.5520 N   0  0  0  0  0  0  0  0  0  0  0  0
    4.6380   -7.2240   30.3680 C   0  0  0  0  0  0  0  0  0  0  0  0
    4.0760   -5.9610   29.8610 C   0  0  0  0  0  0  0  0  0  0  0  0
    2.8480   -5.6860   30.6700 C   0  0  0  0  0  0  0  0  0  0  0  0
    3.2950   -5.7310   32.1170 C   0  0  0  0  0  0  0  0  0  0  0  0
    2.1560   -5.4720   33.0510 C   0  0  0  0  0  0  0  0  0  0  0  0
    0.7830   -5.2120   32.5480 C   0  0  0  0  0  0  0  0  0  0  0  0
   -0.3410   -4.9430   33.8400 S   0  0  0  0  0  0  0  0  0  0  0  0
   -0.1730   -6.0200   34.8600 O   0  0  0  0  0  0  0  0  0  0  0  0
   -1.7360   -4.9440   33.2840 O   0  0  0  0  0  0  0  0  0  0  0  0
   -0.0790   -3.3610   34.5310 N   0  0  0  0  0  0  0  0  0  0  0  0
   -0.1310   -3.4910   35.9340 C   0  0  0  0  0  0  0  0  0  0  0  0
   -0.4440   -2.2230   36.6500 C   0  0  0  0  0  0  0  0  0  0  0  0
    0.3660   -1.9660   37.7370 O   0  0  0  0  0  0  0  0  0  0  0  0
    0.5730   -5.2180   31.0390 C   0  0  0  0  0  0  0  0  0  0  0  0
    1.5970   -5.4520   30.1490 C   0  0  0  0  0  0  0  0  0  0  0  0
    4.7600   -5.3640   28.8310 N   0  0  0  0  0  0  0  0  0  0  0  0
    4.6560   -4.2630   28.0720 N   0  0  0  0  0  0  0  0  0  0  0  0
    5.7720   -1.4440   26.7660 C   0  0  0  0  0  0  0  0  0  0  0  0
    5.6470   -1.2140   28.2820 C   0  0  0  0  0  0  0  0  0  0  0  0
    6.4170   -0.0600   28.8780 C   0  0  0  0  0  0  0  0  0  0  0  0
    5.7790    1.0090   28.2490 O   0  0  0  0  0  0  0  0  0  0  0  0
    5.5150    0.9620   26.8310 C   0  0  0  0  0  0  0  0  0  0  0  0
    4.9040   -0.3290   26.2280 C   0  0  0  0  0  0  0  0  0  0  0  0
    5.9440   -4.9950   23.7660 C   0  0  0  0  0  0  0  0  0  0  0  0
    6.6110   -5.4520   22.4750 C   0  0  0  0  0  0  0  0  0  0  0  0
  1  2  1  0
  2  3  2  0
  2  4  1  0
  4  5  1  0
  5  6  1  0
  6  7  1  0
  7  8  1  0
  8  9  2  0
  8 10  1  0
 10 11  1  0
 11 12  1  0
 12 13  2  0
 13 14  1  0
 14 15  2  0
 15 16  1  0
 16 17  2  0
 17 18  1  0
 18 19  2  0
 19 20  1  0
 20 21  2  0
 21 22  1  0
 22 23  2  0
 22 24  2  0
 22 25  1  0
 25 26  1  0
 26 27  1  0
 27 28  1  0
 21 29  1  0
 18 30  1  0
 29 30  2  0
 14 31  1  0
 17 31  1  0
 11 32  2  0
 31 32  1  0
 10 33  1  0
 33 34  1  0
 34 35  1  0
 35 36  1  0
 36 37  1  0
 33 38  1  0
 37 38  1  0
  7 39  1  0
  4 40  1  0
 39 40  1  0
M  END
