piperidine-amides-21704-covalent
     RDKit          3D

 22 23  0  0  0  0  0  0  0  0999 V2000
    7.0230   -3.3510   19.3780 C   0  0  0  0  0  0  0  0  0  0  0  0
    6.3540   -4.1880   20.3800 C   0  0  0  0  0  0  0  0  0  0  0  0
    5.3630   -4.8510   19.9790 O   0  0  0  0  0  0  0  0  0  0  0  0
    6.8310   -4.2630   21.6970 N   0  0  0  0  0  0  0  0  0  0  0  0
    6.7300   -5.4960   22.4430 C   0  0  0  0  0  0  0  0  0  0  0  0
    6.1720   -5.1630   23.7930 C   0  0  0  0  0  0  0  0  0  0  0  0
    6.1180   -3.6750   23.9950 C   0  0  0  0  0  0  0  0  0  0  0  0
    5.6210   -3.3870   25.3710 C   0  0  0  0  0  0  0  0  0  0  0  0
    4.3980   -3.5510   25.5570 O   0  0  0  0  0  0  0  0  0  0  0  0
    6.3750   -2.9280   26.4780 N   0  0  0  0  0  0  0  0  0  0  0  0
    6.4570   -3.7940   27.6390 C   0  0  0  0  0  0  0  0  0  0  0  0
    6.2530   -1.5020   26.7020 C   0  0  0  0  0  0  0  0  0  0  0  0
    6.1800   -0.7360   27.9920 N   0  0  0  0  0  0  0  0  0  0  0  0
    6.0570    0.5430   27.6940 C   0  0  0  0  0  0  0  0  0  0  0  0
    5.9510    1.5920   28.5880 C   0  0  0  0  0  0  0  0  0  0  0  0
    6.2430    2.8490   28.1820 F   0  0  0  0  0  0  0  0  0  0  0  0
    6.7060    1.2920   29.7340 F   0  0  0  0  0  0  0  0  0  0  0  0
    4.6290    1.6130   28.9330 F   0  0  0  0  0  0  0  0  0  0  0  0
    6.0450    0.6870   26.3550 C   0  0  0  0  0  0  0  0  0  0  0  0
    6.1650   -0.5730   25.8380 O   0  0  0  0  0  0  0  0  0  0  0  0
    7.4420   -3.0790   23.6220 C   0  0  0  0  0  0  0  0  0  0  0  0
    7.5960   -3.1790   22.2500 C   0  0  0  0  0  0  0  0  0  0  0  0
  1  2  1  0
  2  3  2  0
  2  4  1  0
  4  5  1  0
  5  6  1  0
  6  7  1  0
  7  8  1  0
  8  9  2  0
  8 10  1  0
 10 11  1  0
 10 12  1  0
 12 13  2  0
 13 14  1  0
 14 15  1  0
 15 16  1  0
 15 17  1  0
 15 18  1  0
 14 19  2  0
 12 20  1  0
 19 20  1  0
  7 21  1  0
  4 22  1  0
 21 22  1  0
M  END
