piperidine-amides-7196-covalent
     RDKit          3D

 21 22  0  0  0  0  0  0  0  0999 V2000
    7.0770   -3.2700   19.1590 C   0  0  0  0  0  0  0  0  0  0  0  0
    6.3250   -4.0540   20.1440 C   0  0  0  0  0  0  0  0  0  0  0  0
    5.1850   -4.4410   19.8090 O   0  0  0  0  0  0  0  0  0  0  0  0
    6.8890   -4.3940   21.3640 N   0  0  0  0  0  0  0  0  0  0  0  0
    7.7500   -3.4720   22.0580 C   0  0  0  0  0  0  0  0  0  0  0  0
    6.9560   -2.9370   23.1950 C   0  0  0  0  0  0  0  0  0  0  0  0
    6.4670   -4.0670   24.0560 C   0  0  0  0  0  0  0  0  0  0  0  0
    5.8070   -3.5280   25.2510 C   0  0  0  0  0  0  0  0  0  0  0  0
    4.5680   -3.6420   25.3970 O   0  0  0  0  0  0  0  0  0  0  0  0
    6.5650   -2.8640   26.2160 N   0  0  0  0  0  0  0  0  0  0  0  0
    7.4910   -1.8470   25.7970 C   0  0  0  0  0  0  0  0  0  0  0  0
    8.8050   -2.3820   25.1910 C   0  0  0  0  0  0  0  0  0  0  0  0
    9.8050   -1.5900   24.6340 C   0  0  0  0  0  0  0  0  0  0  0  0
   10.9800   -2.0490   24.1330 C   0  0  0  0  0  0  0  0  0  0  0  0
   12.2930   -0.8760   23.3940 Br  0  0  0  0  0  0  0  0  0  0  0  0
   11.2100   -3.3690   24.1670 C   0  0  0  0  0  0  0  0  0  0  0  0
   10.2400   -4.2020   24.6840 C   0  0  0  0  0  0  0  0  0  0  0  0
    9.0610   -3.7290   25.1750 C   0  0  0  0  0  0  0  0  0  0  0  0
    8.1110   -4.6310   25.6570 O   0  0  0  0  0  0  0  0  0  0  0  0
    5.5280   -4.9710   23.2650 C   0  0  0  0  0  0  0  0  0  0  0  0
    6.3320   -5.5110   22.0840 C   0  0  0  0  0  0  0  0  0  0  0  0
  1  2  1  0
  2  3  2  0
  2  4  1  0
  4  5  1  0
  5  6  1  0
  6  7  1  0
  7  8  1  0
  8  9  2  0
  8 10  1  0
 10 11  1  0
 11 12  1  0
 12 13  2  0
 13 14  1  0
 14 15  1  0
 14 16  2  0
 16 17  1  0
 12 18  1  0
 17 18  2  0
 18 19  1  0
  7 20  1  0
  4 21  1  0
 20 21  1  0
M  END
