piperidine-amides-13533-covalent
     RDKit          3D

 23 24  0  0  0  0  0  0  0  0999 V2000
    7.2300   -4.0770   19.6990 C   0  0  0  0  0  0  0  0  0  0  0  0
    6.0290   -4.0030   20.4140 C   0  0  0  0  0  0  0  0  0  0  0  0
    5.0100   -4.1290   19.7220 O   0  0  0  0  0  0  0  0  0  0  0  0
    6.1850   -3.9210   21.7940 N   0  0  0  0  0  0  0  0  0  0  0  0
    7.2680   -3.0600   22.2500 C   0  0  0  0  0  0  0  0  0  0  0  0
    7.2580   -3.0070   23.7790 C   0  0  0  0  0  0  0  0  0  0  0  0
    5.9130   -3.4850   24.1860 C   0  0  0  0  0  0  0  0  0  0  0  0
    5.4970   -3.1190   25.5470 C   0  0  0  0  0  0  0  0  0  0  0  0
    4.2930   -2.9000   25.6890 O   0  0  0  0  0  0  0  0  0  0  0  0
    6.4270   -3.0390   26.5830 N   0  0  0  0  0  0  0  0  0  0  0  0
    6.2380   -3.4470   27.9340 C   0  0  0  0  0  0  0  0  0  0  0  0
    5.2380   -2.9560   28.7470 C   0  0  0  0  0  0  0  0  0  0  0  0
    5.3760   -1.6290   29.2520 N   0  0  0  0  0  0  0  0  0  0  0  0
    4.2840   -1.3380   30.0310 C   0  0  0  0  0  0  0  0  0  0  0  0
    4.1220   -0.1260   30.6640 C   0  0  0  0  0  0  0  0  0  0  0  0
    2.7960    0.1840   30.7790 F   0  0  0  0  0  0  0  0  0  0  0  0
    4.7960    0.8860   30.0190 F   0  0  0  0  0  0  0  0  0  0  0  0
    4.7040   -0.2650   31.9310 F   0  0  0  0  0  0  0  0  0  0  0  0
    3.4840   -2.4340   30.0240 N   0  0  0  0  0  0  0  0  0  0  0  0
    4.0640   -3.3670   29.2670 N   0  0  0  0  0  0  0  0  0  0  0  0
    3.4270   -4.5420   29.1260 C   0  0  0  0  0  0  0  0  0  0  0  0
    5.8290   -4.9560   23.9470 C   0  0  0  0  0  0  0  0  0  0  0  0
    6.1240   -5.1840   22.4820 C   0  0  0  0  0  0  0  0  0  0  0  0
  1  2  1  0
  2  3  2  0
  2  4  1  0
  4  5  1  0
  5  6  1  0
  6  7  1  0
  7  8  1  0
  8  9  2  0
  8 10  1  0
 10 11  1  0
 11 12  1  0
 12 13  2  0
 13 14  1  0
 14 15  1  0
 15 16  1  0
 15 17  1  0
 15 18  1  0
 14 19  2  0
 12 20  1  0
 19 20  1  0
 20 21  1  0
  7 22  1  0
  4 23  1  0
 22 23  1  0
M  END
