piperidine-amides-35703-covalent
     RDKit          3D

 59 66  0  0  0  0  0  0  0  0999 V2000
    7.1640   -3.8800   19.5030 C   0  0  0  0  0  0  0  0  0  0  0  0
    5.9150   -3.8730   20.1720 C   0  0  0  0  0  0  0  0  0  0  0  0
    4.9220   -3.9170   19.4820 O   0  0  0  0  0  0  0  0  0  0  0  0
    6.0040   -3.9160   21.5200 N   0  0  0  0  0  0  0  0  0  0  0  0
    7.0750   -3.1670   22.0580 C   0  0  0  0  0  0  0  0  0  0  0  0
    6.5550   -2.7430   23.3510 C   0  0  0  0  0  0  0  0  0  0  0  0
    6.2130   -3.9840   24.1670 C   0  0  0  0  0  0  0  0  0  0  0  0
    5.5630   -3.4830   25.3500 C   0  0  0  0  0  0  0  0  0  0  0  0
    4.3370   -3.6180   25.4770 O   0  0  0  0  0  0  0  0  0  0  0  0
    6.3020   -2.8370   26.3230 N   0  0  0  0  0  0  0  0  0  0  0  0
    6.4960   -1.4200   26.1140 C   0  0  0  0  0  0  0  0  0  0  0  0
    7.1380   -1.2440   24.7520 C   0  0  0  0  0  0  0  0  0  0  0  0
    7.8640   -2.3630   24.3560 O   0  0  0  0  0  0  0  0  0  0  0  0
    9.0130   -2.8780   24.8030 C   0  0  0  0  0  0  0  0  0  0  0  0
    8.8320   -3.8530   25.7040 C   0  0  0  0  0  0  0  0  0  0  0  0
    9.9220   -4.4060   26.1700 C   0  0  0  0  0  0  0  0  0  0  0  0
   11.3150   -4.0950   25.8350 C   0  0  0  0  0  0  0  0  0  0  0  0
   11.4160   -2.9920   24.8210 C   0  0  0  0  0  0  0  0  0  0  0  0
   10.2400   -2.2300   24.1630 C   0  0  0  0  0  0  0  0  0  0  0  0
   10.4610   -1.2310   23.2290 O   0  0  0  0  0  0  0  0  0  0  0  0
   10.5100   -1.4810   21.8540 C   0  0  0  0  0  0  0  0  0  0  0  0
    5.9280   -3.0190   27.7080 C   0  0  0  0  0  0  0  0  0  0  0  0
    4.8760   -2.0310   28.1780 C   0  0  1  0  0  0  0  0  0  0  0  0
    3.7110   -1.9610   27.4490 O   0  0  0  0  0  0  0  0  0  0  0  0
    4.4510   -2.0720   29.6140 C   0  0  0  0  0  0  0  0  0  0  0  0
    4.5520   -3.3130   30.2320 O   0  0  0  0  0  0  0  0  0  0  0  0
    5.4560   -4.2520   29.6890 C   0  0  0  0  0  0  0  0  0  0  0  0
    6.3410   -3.8350   28.7130 C   0  0  0  0  0  0  0  0  0  0  0  0
    7.3160   -4.7780   28.1250 C   0  0  0  0  0  0  0  0  0  0  0  0
    7.2820   -6.1730   28.6190 C   0  0  0  0  0  0  0  0  0  0  0  0
    6.2780   -6.5640   29.6860 C   0  0  0  0  0  0  0  0  0  0  0  0
    5.4950   -5.6180   30.1340 C   0  0  0  0  0  0  0  0  0  0  0  0
    4.6770   -6.2430   31.2050 C   0  0  0  0  0  0  0  0  0  0  0  0
    3.6310   -5.5420   32.0430 C   0  0  0  0  0  0  0  0  0  0  0  0
    2.8720   -6.2590   33.1290 C   0  0  0  0  0  0  0  0  0  0  0  0
    3.2120   -7.6750   33.3300 C   0  0  0  0  0  0  0  0  0  0  0  0
    4.2540   -8.3480   32.4780 C   0  0  0  0  0  0  0  0  0  0  0  0
    5.0270   -7.5890   31.3390 C   0  0  0  0  0  0  0  0  0  0  0  0
    6.0740   -7.8750   30.2940 N   0  0  0  0  0  0  0  0  0  0  0  0
    6.9120   -9.0420   29.7180 C   0  0  0  0  0  0  0  0  0  0  0  0
    7.3870  -10.5670   29.8590 C   0  0  1  0  0  0  0  0  0  0  0  0
    8.5630  -10.0630   29.4430 O   0  0  0  0  0  0  0  0  0  0  0  0
    8.6230  -11.4950   30.2250 C   0  0  0  0  0  0  0  0  0  0  0  0
    8.3040  -12.1610   31.4110 O   0  0  0  0  0  0  0  0  0  0  0  0
    8.6210  -13.0520   32.4170 C   0  0  0  0  0  0  0  0  0  0  0  0
    7.5640  -14.0230   32.9120 C   0  0  0  0  0  0  0  0  0  0  0  0
    7.8550  -14.9700   33.9850 C   0  0  0  0  0  0  0  0  0  0  0  0
    9.2080  -14.9910   34.6050 C   0  0  0  0  0  0  0  0  0  0  0  0
   10.1480  -14.1100   34.1370 C   0  0  0  0  0  0  0  0  0  0  0  0
   11.3980  -14.0020   34.5820 N   0  0  0  0  0  0  0  0  0  0  0  0
   12.0090  -13.0740   33.9130 C   0  0  0  0  0  0  0  0  0  0  0  0
   13.4160  -12.4980   33.9540 C   0  0  0  0  0  0  0  0  0  0  0  0
   13.8500  -11.4120   33.0410 C   0  0  0  0  0  0  0  0  0  0  0  0
   12.8070  -10.9250   32.0740 C   0  0  0  0  0  0  0  0  0  0  0  0
   11.5320  -11.5090   32.0990 C   0  0  0  0  0  0  0  0  0  0  0  0
   11.1280  -12.5000   32.9380 C   0  0  0  0  0  0  0  0  0  0  0  0
    9.9070  -13.1750   33.0930 C   0  0  0  0  0  0  0  0  0  0  0  0
    5.1870   -4.9160   23.4600 C   0  0  0  0  0  0  0  0  0  0  0  0
    5.8680   -5.2390   22.1430 C   0  0  0  0  0  0  0  0  0  0  0  0
  1  2  1  0
  2  3  2  0
  2  4  1  0
  4  5  1  0
  5  6  1  0
  6  7  1  0
  7  8  1  0
  8  9  2  0
  8 10  1  0
 10 11  1  0
 11 12  1  0
 12 13  1  0
 13 14  1  0
 14 15  2  0
 15 16  1  0
 16 17  2  0
 17 18  1  0
 14 19  1  0
 18 19  2  0
 19 20  1  0
 20 21  1  0
 10 22  1  0
 22 23  1  0
 23 24  1  6
 23 25  1  0
 25 26  1  0
 26 27  1  0
 27 28  2  0
 28 29  1  0
 29 30  2  0
 30 31  1  0
 27 32  1  0
 31 32  2  0
 32 33  1  0
 33 34  2  0
 34 35  1  0
 35 36  2  0
 36 37  1  0
 33 38  1  0
 37 38  2  0
 31 39  1  0
 38 39  1  0
 39 40  1  0
 40 41  1  0
 41 42  1  6
 41 43  1  0
 43 44  1  0
 44 45  1  0
 45 46  2  0
 46 47  1  0
 47 48  2  0
 48 49  1  0
 49 50  1  0
 50 51  1  0
 51 52  1  0
 52 53  2  0
 53 54  1  0
 54 55  2  0
 51 56  2  0
 55 56  1  0
 45 57  1  0
 49 57  2  0
 56 57  1  0
  7 58  1  0
  4 59  1  0
 58 59  1  0
M  END
