piperidine-amides-2935-covalent
     RDKit          3D

 23 25  0  0  0  0  0  0  0  0999 V2000
    7.0070   -3.3540   19.3330 C   0  0  0  0  0  0  0  0  0  0  0  0
    6.3390   -4.1810   20.3330 C   0  0  0  0  0  0  0  0  0  0  0  0
    5.3860   -4.8810   19.9910 O   0  0  0  0  0  0  0  0  0  0  0  0
    6.8010   -4.2250   21.6990 N   0  0  0  0  0  0  0  0  0  0  0  0
    7.6850   -3.1860   22.1800 C   0  0  0  0  0  0  0  0  0  0  0  0
    7.4410   -2.9400   23.6320 C   0  0  0  0  0  0  0  0  0  0  0  0
    6.0930   -3.5500   23.9390 C   0  0  0  0  0  0  0  0  0  0  0  0
    5.6740   -3.1250   25.3090 C   0  0  0  0  0  0  0  0  0  0  0  0
    4.4790   -3.0710   25.6590 O   0  0  0  0  0  0  0  0  0  0  0  0
    6.6920   -2.7790   26.2180 N   0  0  0  0  0  0  0  0  0  0  0  0
    6.5550   -1.6340   27.0930 C   0  0  0  0  0  0  0  0  0  0  0  0
    5.9960   -0.4190   26.4190 C   0  0  0  0  0  0  0  0  0  0  0  0
    5.8090    0.7510   27.1280 C   0  0  0  0  0  0  0  0  0  0  0  0
    6.1410    0.8170   28.4980 C   0  0  0  0  0  0  0  0  0  0  0  0
    6.6610   -0.2680   29.1790 C   0  0  0  0  0  0  0  0  0  0  0  0
    6.9740   -0.1600   30.5730 N   0  0  0  0  0  0  0  0  0  0  0  0
    5.9230    0.1710   31.5460 C   0  0  0  0  0  0  0  0  0  0  0  0
    6.4810    1.4350   31.6160 C   0  0  0  0  0  0  0  0  0  0  0  0
    7.4570    1.1720   30.7330 C   0  0  0  0  0  0  0  0  0  0  0  0
    8.4390    2.0530   30.3170 O   0  0  0  0  0  0  0  0  0  0  0  0
    6.8660   -1.5320   28.4070 C   0  0  0  0  0  0  0  0  0  0  0  0
    5.9810   -4.9900   23.7310 C   0  0  0  0  0  0  0  0  0  0  0  0
    6.5980   -5.3850   22.5400 C   0  0  0  0  0  0  0  0  0  0  0  0
  1  2  1  0
  2  3  2  0
  2  4  1  0
  4  5  1  0
  5  6  1  0
  6  7  1  0
  7  8  1  0
  8  9  2  0
  8 10  1  0
 10 11  1  0
 11 12  2  0
 12 13  1  0
 13 14  2  0
 14 15  1  0
 15 16  1  0
 16 17  1  0
 17 18  1  0
 16 19  1  0
 18 19  1  0
 19 20  2  0
 11 21  1  0
 15 21  2  0
  7 22  1  0
  4 23  1  0
 22 23  1  0
M  END
