piperidine-amides-13694-covalent
     RDKit          3D

 27 29  0  0  0  0  0  0  0  0999 V2000
    7.0810   -3.3370   19.2980 C   0  0  0  0  0  0  0  0  0  0  0  0
    6.3890   -4.1800   20.3120 C   0  0  0  0  0  0  0  0  0  0  0  0
    5.3740   -4.8140   19.9760 O   0  0  0  0  0  0  0  0  0  0  0  0
    6.9340   -4.2680   21.6090 N   0  0  0  0  0  0  0  0  0  0  0  0
    7.7220   -3.1910   22.1540 C   0  0  0  0  0  0  0  0  0  0  0  0
    6.8880   -2.5940   23.2790 C   0  0  0  0  0  0  0  0  0  0  0  0
    6.6530   -3.7060   24.2330 C   0  0  0  0  0  0  0  0  0  0  0  0
    5.8290   -3.2960   25.3950 C   0  0  0  0  0  0  0  0  0  0  0  0
    4.6040   -3.2840   25.2270 O   0  0  0  0  0  0  0  0  0  0  0  0
    6.4360   -2.9350   26.6040 N   0  0  0  0  0  0  0  0  0  0  0  0
    6.4040   -1.6540   27.2220 C   0  0  0  0  0  0  0  0  0  0  0  0
    5.8390   -0.5300   26.6550 C   0  0  0  0  0  0  0  0  0  0  0  0
    5.8270    0.7130   27.3060 C   0  0  0  0  0  0  0  0  0  0  0  0
    6.3870    0.8620   28.5550 C   0  0  0  0  0  0  0  0  0  0  0  0
    7.0070   -0.3160   29.2060 C   0  0  0  0  0  0  0  0  0  0  0  0
    7.6650   -0.2690   30.6000 C   0  0  0  0  0  0  0  0  0  0  0  0
    7.9050    1.2030   30.9690 C   0  0  0  0  0  0  0  0  0  0  0  0
    7.6180    1.7100   32.1950 N   0  0  0  0  0  0  0  0  0  0  0  0
    6.5620    2.5480   32.1730 C   0  0  0  0  0  0  0  0  0  0  0  0
    5.4820    1.7750   31.5030 C   0  0  0  0  0  0  0  0  0  0  0  0
    5.1750    1.1330   32.8440 C   0  0  0  0  0  0  0  0  0  0  0  0
    4.9790   -0.2190   32.9840 C   0  0  0  0  0  0  0  0  0  0  0  0
    6.2350    0.4720   33.6340 C   0  0  0  0  0  0  0  0  0  0  0  0
    7.6670    0.6420   33.1710 C   0  0  0  0  0  0  0  0  0  0  0  0
    6.9810   -1.5110   28.5000 C   0  0  0  0  0  0  0  0  0  0  0  0
    5.9130   -4.8920   23.6290 C   0  0  0  0  0  0  0  0  0  0  0  0
    6.4800   -5.3310   22.4420 C   0  0  0  0  0  0  0  0  0  0  0  0
  1  2  1  0
  2  3  2  0
  2  4  1  0
  4  5  1  0
  5  6  1  0
  6  7  1  0
  7  8  1  0
  8  9  2  0
  8 10  1  0
 10 11  1  0
 11 12  2  0
 12 13  1  0
 13 14  2  0
 14 15  1  0
 15 16  1  0
 16 17  1  0
 17 18  1  0
 18 19  1  0
 19 20  1  0
 20 21  1  0
 21 22  1  0
 21 23  1  0
 18 24  1  0
 23 24  1  0
 11 25  1  0
 15 25  2  0
  7 26  1  0
  4 27  1  0
 26 27  1  0
M  END
