piperidine-amides-33027-covalent
     RDKit          3D

 29 31  0  0  0  0  0  0  0  0999 V2000
    7.1320   -3.2910   19.2610 C   0  0  0  0  0  0  0  0  0  0  0  0
    6.4020   -4.1190   20.2580 C   0  0  0  0  0  0  0  0  0  0  0  0
    5.3300   -4.6470   19.9240 O   0  0  0  0  0  0  0  0  0  0  0  0
    6.9730   -4.3390   21.5310 N   0  0  0  0  0  0  0  0  0  0  0  0
    6.6110   -5.4770   22.3230 C   0  0  0  0  0  0  0  0  0  0  0  0
    5.7370   -4.9270   23.4520 C   0  0  0  0  0  0  0  0  0  0  0  0
    6.5150   -3.8830   24.1980 C   0  0  0  0  0  0  0  0  0  0  0  0
    5.7430   -3.3430   25.3460 C   0  0  0  0  0  0  0  0  0  0  0  0
    4.5130   -3.4150   25.2410 O   0  0  0  0  0  0  0  0  0  0  0  0
    6.3650   -2.7860   26.4720 N   0  0  0  0  0  0  0  0  0  0  0  0
    6.8940   -1.4660   26.4720 C   0  0  0  0  0  0  0  0  0  0  0  0
    6.1420   -0.3180   26.3550 C   0  0  0  0  0  0  0  0  0  0  0  0
    5.4800    0.1560   27.5140 C   0  0  0  0  0  0  0  0  0  0  0  0
    4.7010    1.2890   27.5500 C   0  0  0  0  0  0  0  0  0  0  0  0
    4.5260    2.0790   26.3230 C   0  0  0  0  0  0  0  0  0  0  0  0
    5.1830    1.6740   25.0180 C   0  0  0  0  0  0  0  0  0  0  0  0
    4.9550    2.4980   23.9030 F   0  0  0  0  0  0  0  0  0  0  0  0
    6.0040    0.3950   25.1880 C   0  0  0  0  0  0  0  0  0  0  0  0
    6.6200   -0.0000   24.0110 F   0  0  0  0  0  0  0  0  0  0  0  0
    6.1120   -3.4820   27.6980 C   0  0  0  0  0  0  0  0  0  0  0  0
    5.7990   -2.6000   28.8410 C   0  0  0  0  0  0  0  0  0  0  0  0
    4.4650   -2.6800   29.4220 C   0  0  0  0  0  0  0  0  0  0  0  0
    4.2950   -1.8330   30.4560 N   0  0  0  0  0  0  0  0  0  0  0  0
    5.5120   -1.1780   30.5720 N   0  0  0  0  0  0  0  0  0  0  0  0
    5.6460   -0.1880   31.6090 C   0  0  0  0  0  0  0  0  0  0  0  0
    6.4720   -1.5460   29.6820 C   0  0  0  0  0  0  0  0  0  0  0  0
    7.8820   -1.0510   29.5200 C   0  0  0  0  0  0  0  0  0  0  0  0
    6.9130   -2.7110   23.3240 C   0  0  0  0  0  0  0  0  0  0  0  0
    7.6940   -3.2560   22.1900 C   0  0  0  0  0  0  0  0  0  0  0  0
  1  2  1  0
  2  3  2  0
  2  4  1  0
  4  5  1  0
  5  6  1  0
  6  7  1  0
  7  8  1  0
  8  9  2  0
  8 10  1  0
 10 11  1  0
 11 12  1  0
 12 13  2  0
 13 14  1  0
 14 15  2  0
 15 16  1  0
 16 17  1  0
 12 18  1  0
 16 18  2  0
 18 19  1  0
 10 20  1  0
 20 21  1  0
 21 22  1  0
 22 23  2  0
 23 24  1  0
 24 25  1  0
 21 26  2  0
 24 26  1  0
 26 27  1  0
  7 28  1  0
  4 29  1  0
 28 29  1  0
M  END
