piperidine-amides-6596-covalent
     RDKit          3D

 24 26  0  0  0  0  0  0  0  0999 V2000
    7.0320   -3.3210   19.3310 C   0  0  0  0  0  0  0  0  0  0  0  0
    6.3550   -4.1600   20.3320 C   0  0  0  0  0  0  0  0  0  0  0  0
    5.3890   -4.8750   19.9900 O   0  0  0  0  0  0  0  0  0  0  0  0
    6.8030   -4.1980   21.6620 N   0  0  0  0  0  0  0  0  0  0  0  0
    7.6850   -3.1470   22.1370 C   0  0  0  0  0  0  0  0  0  0  0  0
    7.5560   -3.0980   23.6530 C   0  0  0  0  0  0  0  0  0  0  0  0
    6.1700   -3.6150   23.9240 C   0  0  0  0  0  0  0  0  0  0  0  0
    5.7140   -3.2690   25.2820 C   0  0  0  0  0  0  0  0  0  0  0  0
    4.5430   -3.5670   25.6030 O   0  0  0  0  0  0  0  0  0  0  0  0
    6.5850   -2.6030   26.1750 N   0  0  0  0  0  0  0  0  0  0  0  0
    6.0310   -1.6830   27.1280 C   0  0  1  0  0  0  0  0  0  0  0  0
    7.0440   -1.4520   28.2470 C   0  0  0  0  0  0  0  0  0  0  0  0
    6.7690   -0.5730   29.2580 C   0  0  0  0  0  0  0  0  0  0  0  0
    6.0820    0.5350   28.8690 C   0  0  0  0  0  0  0  0  0  0  0  0
    5.7410    1.7010   29.6190 N   0  0  0  0  0  0  0  0  0  0  0  0
    5.0480    2.5020   28.7640 C   0  0  0  0  0  0  0  0  0  0  0  0
    4.5750    3.7170   29.1940 C   0  0  0  0  0  0  0  0  0  0  0  0
    3.3670    3.8380   30.1110 C   0  0  0  0  0  0  0  0  0  0  0  0
    4.7730    4.1000   30.6220 C   0  0  0  0  0  0  0  0  0  0  0  0
    4.9630    1.8360   27.5100 N   0  0  0  0  0  0  0  0  0  0  0  0
    5.6000    0.6480   27.6110 N   0  0  0  0  0  0  0  0  0  0  0  0
    5.7370   -0.2720   26.6500 C   0  0  0  0  0  0  0  0  0  0  0  0
    6.1200   -5.1040   23.7030 C   0  0  0  0  0  0  0  0  0  0  0  0
    6.6650   -5.4150   22.4440 C   0  0  0  0  0  0  0  0  0  0  0  0
  1  2  1  0
  2  3  2  0
  2  4  1  0
  4  5  1  0
  5  6  1  0
  6  7  1  0
  7  8  1  0
  8  9  2  0
  8 10  1  0
 11 10  1  6
 11 12  1  0
 12 13  1  0
 13 14  1  0
 14 15  2  0
 15 16  1  0
 16 17  1  0
 17 18  1  0
 17 19  1  0
 16 20  2  0
 14 21  1  0
 20 21  1  0
 11 22  1  0
 21 22  1  0
  7 23  1  0
  4 24  1  0
 23 24  1  0
M  END
