piperidine-amides-3337-covalent
     RDKit          3D

 22 23  0  0  0  0  0  0  0  0999 V2000
    7.0930   -3.2870   19.2140 C   0  0  0  0  0  0  0  0  0  0  0  0
    6.3400   -4.0380   20.2080 C   0  0  0  0  0  0  0  0  0  0  0  0
    5.2810   -4.5720   19.8930 O   0  0  0  0  0  0  0  0  0  0  0  0
    6.8570   -4.2110   21.5300 N   0  0  0  0  0  0  0  0  0  0  0  0
    7.6120   -3.1630   22.1590 C   0  0  0  0  0  0  0  0  0  0  0  0
    6.8900   -2.6860   23.3820 C   0  0  0  0  0  0  0  0  0  0  0  0
    6.6600   -3.8780   24.3040 C   0  0  0  0  0  0  0  0  0  0  0  0
    5.8450   -3.4230   25.4600 C   0  0  0  0  0  0  0  0  0  0  0  0
    4.6980   -2.9560   25.3070 O   0  0  0  0  0  0  0  0  0  0  0  0
    6.3800   -3.5160   26.7760 N   0  0  0  0  0  0  0  0  0  0  0  0
    6.8620   -4.7900   27.2740 C   0  0  0  0  0  0  0  0  0  0  0  0
    5.6850   -5.6770   27.5680 C   0  0  2  0  0  0  0  0  0  0  0  0
    4.5480   -5.0370   27.1100 O   0  0  0  0  0  0  0  0  0  0  0  0
    5.3100   -5.9370   28.8730 C   0  0  0  0  0  0  0  0  0  0  0  0
    6.0140   -6.9140   29.6130 C   0  0  0  0  0  0  0  0  0  0  0  0
    5.6770   -7.2200   30.9190 C   0  0  0  0  0  0  0  0  0  0  0  0
    4.5750   -6.5020   31.5060 C   0  0  0  0  0  0  0  0  0  0  0  0
    3.8860   -5.5600   30.8170 C   0  0  0  0  0  0  0  0  0  0  0  0
    2.5520   -4.7390   31.6340 Cl  0  0  0  0  0  0  0  0  0  0  0  0
    4.2540   -5.2880   29.5180 C   0  0  0  0  0  0  0  0  0  0  0  0
    6.0730   -5.0810   23.6480 C   0  0  0  0  0  0  0  0  0  0  0  0
    6.4670   -5.3570   22.2680 C   0  0  0  0  0  0  0  0  0  0  0  0
  1  2  1  0
  2  3  2  0
  2  4  1  0
  4  5  1  0
  5  6  1  0
  6  7  1  0
  7  8  1  0
  8  9  2  0
  8 10  1  0
 10 11  1  0
 11 12  1  0
 12 13  1  6
 12 14  1  0
 14 15  2  0
 15 16  1  0
 16 17  2  0
 17 18  1  0
 18 19  1  0
 14 20  1  0
 18 20  2  0
  7 21  1  0
  4 22  1  0
 21 22  1  0
M  END
