piperidine-amides-34400-covalent
     RDKit          3D

 31 33  0  0  0  0  0  0  0  0999 V2000
    7.1160   -3.2770   19.2020 C   0  0  0  0  0  0  0  0  0  0  0  0
    6.3850   -4.0620   20.2050 C   0  0  0  0  0  0  0  0  0  0  0  0
    5.3040   -4.6150   19.9090 O   0  0  0  0  0  0  0  0  0  0  0  0
    6.9180   -4.2520   21.4790 N   0  0  0  0  0  0  0  0  0  0  0  0
    6.4940   -5.3910   22.2500 C   0  0  0  0  0  0  0  0  0  0  0  0
    5.6100   -4.8200   23.3580 C   0  0  0  0  0  0  0  0  0  0  0  0
    6.4960   -3.8700   24.1330 C   0  0  0  0  0  0  0  0  0  0  0  0
    5.7290   -3.2580   25.2280 C   0  0  0  0  0  0  0  0  0  0  0  0
    4.8530   -2.4190   24.9320 O   0  0  0  0  0  0  0  0  0  0  0  0
    5.9660   -3.6220   26.5720 N   0  0  0  0  0  0  0  0  0  0  0  0
    6.4140   -2.6040   27.4540 C   0  0  0  0  0  0  0  0  0  0  0  0
    6.7000   -3.2710   28.7770 C   0  0  0  0  0  0  0  0  0  0  0  0
    5.8270   -4.2050   29.1960 C   0  0  0  0  0  0  0  0  0  0  0  0
    4.6870   -3.6920   29.7780 C   0  0  0  0  0  0  0  0  0  0  0  0
    3.5760   -4.4830   30.0290 O   0  0  0  0  0  0  0  0  0  0  0  0
    4.7460   -2.3000   30.1080 N   0  0  0  0  0  0  0  0  0  0  0  0
    3.6740   -1.4310   30.2200 C   0  0  0  0  0  0  0  0  0  0  0  0
    3.7580   -1.0560   31.5500 C   0  0  0  0  0  0  0  0  0  0  0  0
    3.9490    0.2490   31.8100 N   0  0  0  0  0  0  0  0  0  0  0  0
    3.1750    0.9640   30.9730 C   0  0  0  0  0  0  0  0  0  0  0  0
    5.3500    0.5460   32.0650 C   0  0  0  0  0  0  0  0  0  0  0  0
    5.2860    1.3320   33.3400 C   0  0  0  0  0  0  0  0  0  0  0  0
    5.3840    2.5290   32.4980 C   0  0  0  0  0  0  0  0  0  0  0  0
    5.3730    3.7500   33.2220 C   0  0  0  0  0  0  0  0  0  0  0  0
    5.2770    3.7810   34.5970 C   0  0  0  0  0  0  0  0  0  0  0  0
    5.1780    2.5210   35.4160 C   0  0  0  0  0  0  0  0  0  0  0  0
    5.1870    1.2070   34.6940 C   0  0  0  0  0  0  0  0  0  0  0  0
    5.5860   -5.1580   28.2450 C   0  0  0  0  0  0  0  0  0  0  0  0
    5.0820   -4.6540   27.0720 C   0  0  0  0  0  0  0  0  0  0  0  0
    7.0760   -2.7710   23.3030 C   0  0  0  0  0  0  0  0  0  0  0  0
    7.6460   -3.2140   22.1380 C   0  0  0  0  0  0  0  0  0  0  0  0
  1  2  1  0
  2  3  2  0
  2  4  1  0
  4  5  1  0
  5  6  1  0
  6  7  1  0
  7  8  1  0
  8  9  2  0
  8 10  1  0
 10 11  1  0
 11 12  1  0
 12 13  1  0
 13 14  1  0
 14 15  2  0
 14 16  1  0
 16 17  1  0
 17 18  1  0
 18 19  1  0
 19 20  1  0
 19 21  1  0
 21 22  1  0
 22 23  2  0
 23 24  1  0
 24 25  2  0
 25 26  1  0
 22 27  1  0
 26 27  2  0
 13 28  1  0
 10 29  1  0
 28 29  1  0
  7 30  1  0
  4 31  1  0
 30 31  1  0
M  END
