piperidine-amides-14049-covalent
     RDKit          3D

 25 26  0  0  0  0  0  0  0  0999 V2000
    7.0880   -3.3170   19.2870 C   0  0  0  0  0  0  0  0  0  0  0  0
    6.3690   -4.1600   20.2790 C   0  0  0  0  0  0  0  0  0  0  0  0
    5.3210   -4.7310   19.9440 O   0  0  0  0  0  0  0  0  0  0  0  0
    6.9200   -4.3380   21.5630 N   0  0  0  0  0  0  0  0  0  0  0  0
    6.5600   -5.4520   22.4040 C   0  0  0  0  0  0  0  0  0  0  0  0
    5.6500   -4.8900   23.5020 C   0  0  0  0  0  0  0  0  0  0  0  0
    6.4440   -3.8480   24.2150 C   0  0  0  0  0  0  0  0  0  0  0  0
    5.7430   -3.2300   25.3640 C   0  0  0  0  0  0  0  0  0  0  0  0
    4.5300   -3.0390   25.2310 O   0  0  0  0  0  0  0  0  0  0  0  0
    6.4520   -2.9010   26.5230 N   0  0  0  0  0  0  0  0  0  0  0  0
    6.4350   -1.6840   27.2640 C   0  0  0  0  0  0  0  0  0  0  0  0
    7.0560   -1.5280   28.4790 C   0  0  0  0  0  0  0  0  0  0  0  0
    7.0210   -0.3220   29.1870 C   0  0  0  0  0  0  0  0  0  0  0  0
    6.3500    0.7750   28.6920 C   0  0  0  0  0  0  0  0  0  0  0  0
    6.1770    1.9970   29.1730 O   0  0  0  0  0  0  0  0  0  0  0  0
    5.4750    1.9550   30.2780 C   0  0  0  0  0  0  0  0  0  0  0  0
    5.0960    3.3830   30.6940 C   0  0  0  0  0  0  0  0  0  0  0  0
    3.9250    3.1430   31.6520 C   0  0  0  0  0  0  0  0  0  0  0  0
    3.8750    1.9390   32.3220 C   0  0  0  0  0  0  0  0  0  0  0  0
    4.0360    4.2090   32.6760 C   0  0  0  0  0  0  0  0  0  0  0  0
    5.7400    0.5800   27.4720 C   0  0  0  0  0  0  0  0  0  0  0  0
    5.7530   -0.5840   26.7470 C   0  0  0  0  0  0  0  0  0  0  0  0
    5.1340   -0.7190   25.5550 F   0  0  0  0  0  0  0  0  0  0  0  0
    6.9300   -2.7310   23.3580 C   0  0  0  0  0  0  0  0  0  0  0  0
    7.6920   -3.2690   22.1810 C   0  0  0  0  0  0  0  0  0  0  0  0
  1  2  1  0
  2  3  2  0
  2  4  1  0
  4  5  1  0
  5  6  1  0
  6  7  1  0
  7  8  1  0
  8  9  2  0
  8 10  1  0
 10 11  1  0
 11 12  2  0
 12 13  1  0
 13 14  2  0
 14 15  1  0
 15 16  1  0
 16 17  1  0
 17 18  1  0
 18 19  1  0
 18 20  1  0
 14 21  1  0
 11 22  1  0
 21 22  2  0
 22 23  1  0
  7 24  1  0
  4 25  1  0
 24 25  1  0
M  END
