piperidine-amides-8372-covalent
     RDKit          3D

 24 25  0  0  0  0  0  0  0  0999 V2000
    7.0350   -3.3360   19.3570 C   0  0  0  0  0  0  0  0  0  0  0  0
    6.3670   -4.1840   20.3430 C   0  0  0  0  0  0  0  0  0  0  0  0
    5.3770   -4.8400   19.9750 O   0  0  0  0  0  0  0  0  0  0  0  0
    6.8670   -4.2800   21.6650 N   0  0  0  0  0  0  0  0  0  0  0  0
    7.6560   -3.1850   22.1830 C   0  0  0  0  0  0  0  0  0  0  0  0
    7.4660   -3.0430   23.6620 C   0  0  0  0  0  0  0  0  0  0  0  0
    6.0880   -3.5790   23.9560 C   0  0  0  0  0  0  0  0  0  0  0  0
    5.6310   -3.1920   25.3290 C   0  0  0  0  0  0  0  0  0  0  0  0
    4.4250   -3.2750   25.5450 O   0  0  0  0  0  0  0  0  0  0  0  0
    6.5900   -2.7790   26.2400 N   0  0  0  0  0  0  0  0  0  0  0  0
    6.4650   -1.5830   27.0100 C   0  0  0  0  0  0  0  0  0  0  0  0
    6.9990   -1.5800   28.3030 C   0  0  0  0  0  0  0  0  0  0  0  0
    6.9540   -0.5040   29.1490 C   0  0  0  0  0  0  0  0  0  0  0  0
    6.3650    0.7000   28.8060 C   0  0  0  0  0  0  0  0  0  0  0  0
    5.7960    0.6760   27.4220 C   0  0  0  0  0  0  0  0  0  0  0  0
    5.0990    1.9620   26.9170 C   0  0  0  0  0  0  0  0  0  0  0  0
    5.5770    2.4270   25.8540 O   0  0  0  0  0  0  0  0  0  0  0  0
    3.9710    2.5220   27.7010 C   0  0  0  0  0  0  0  0  0  0  0  0
    3.4180    1.2650   28.3120 C   0  0  0  0  0  0  0  0  0  0  0  0
    3.0510    3.2230   26.9560 C   0  0  0  0  0  0  0  0  0  0  0  0
    4.4460    3.4420   28.6170 C   0  0  0  0  0  0  0  0  0  0  0  0
    5.8680   -0.4290   26.6030 C   0  0  0  0  0  0  0  0  0  0  0  0
    6.0270   -5.0580   23.7900 C   0  0  0  0  0  0  0  0  0  0  0  0
    6.6170   -5.4500   22.4650 C   0  0  0  0  0  0  0  0  0  0  0  0
  1  2  1  0
  2  3  2  0
  2  4  1  0
  4  5  1  0
  5  6  1  0
  6  7  1  0
  7  8  1  0
  8  9  2  0
  8 10  1  0
 10 11  1  0
 11 12  2  0
 12 13  1  0
 13 14  2  0
 14 15  1  0
 15 16  1  0
 16 17  2  0
 18 16  1  0
 18 19  1  0
 18 20  1  0
 18 21  1  0
 11 22  1  0
 15 22  2  0
  7 23  1  0
  4 24  1  0
 23 24  1  0
M  END
