piperidine-amides-11910-covalent
     RDKit          3D

 26 28  0  0  0  0  0  0  0  0999 V2000
    7.0770   -3.3580   19.2900 C   0  0  0  0  0  0  0  0  0  0  0  0
    6.3970   -4.1780   20.2830 C   0  0  0  0  0  0  0  0  0  0  0  0
    5.3720   -4.7830   19.9730 O   0  0  0  0  0  0  0  0  0  0  0  0
    6.9580   -4.3360   21.5990 N   0  0  0  0  0  0  0  0  0  0  0  0
    7.6930   -3.2480   22.1880 C   0  0  0  0  0  0  0  0  0  0  0  0
    6.8910   -2.6510   23.3020 C   0  0  0  0  0  0  0  0  0  0  0  0
    6.5500   -3.7640   24.2700 C   0  0  0  0  0  0  0  0  0  0  0  0
    5.7600   -3.2140   25.4040 C   0  0  0  0  0  0  0  0  0  0  0  0
    4.5700   -2.8680   25.2790 O   0  0  0  0  0  0  0  0  0  0  0  0
    6.3840   -3.0920   26.6650 N   0  0  0  0  0  0  0  0  0  0  0  0
    6.4430   -1.8100   27.3370 C   0  0  0  0  0  0  0  0  0  0  0  0
    5.7630   -0.6320   26.6800 C   0  0  0  0  0  0  0  0  0  0  0  0
    5.7950    0.6130   27.3010 C   0  0  0  0  0  0  0  0  0  0  0  0
    6.4700    0.7320   28.5320 C   0  0  0  0  0  0  0  0  0  0  0  0
    6.6160    1.8740   29.2960 C   0  0  0  0  0  0  0  0  0  0  0  0
    5.4120    2.3110   29.9810 C   0  0  0  0  0  0  0  0  0  0  0  0
    5.4320    3.5290   30.6200 C   0  0  0  0  0  0  0  0  0  0  0  0
    4.4360    4.1830   31.1560 O   0  0  0  0  0  0  0  0  0  0  0  0
    6.6650    4.0650   30.6620 N   0  0  0  0  0  0  0  0  0  0  0  0
    7.3840    4.0080   29.4210 C   0  0  0  0  0  0  0  0  0  0  0  0
    8.3770    4.6550   28.9990 O   0  0  0  0  0  0  0  0  0  0  0  0
    6.9320    3.0840   28.4740 C   0  0  0  0  0  0  0  0  0  0  0  0
    7.0960   -0.3460   29.1350 C   0  0  0  0  0  0  0  0  0  0  0  0
    7.0850   -1.5870   28.5550 C   0  0  0  0  0  0  0  0  0  0  0  0
    5.7540   -4.8690   23.6140 C   0  0  0  0  0  0  0  0  0  0  0  0
    6.4680   -5.3860   22.4090 C   0  0  0  0  0  0  0  0  0  0  0  0
  1  2  1  0
  2  3  2  0
  2  4  1  0
  4  5  1  0
  5  6  1  0
  6  7  1  0
  7  8  1  0
  8  9  2  0
  8 10  1  0
 10 11  1  0
 11 12  2  0
 12 13  1  0
 13 14  2  0
 14 15  1  0
 15 16  1  0
 16 17  1  0
 17 18  2  0
 17 19  1  0
 19 20  1  0
 20 21  2  0
 15 22  1  0
 20 22  1  0
 14 23  1  0
 11 24  1  0
 23 24  2  0
  7 25  1  0
  4 26  1  0
 25 26  1  0
M  END
