piperidine-amides-5268-covalent
     RDKit          3D

 21 22  0  0  0  0  0  0  0  0999 V2000
    7.0560   -3.3600   19.3120 C   0  0  0  0  0  0  0  0  0  0  0  0
    6.3810   -4.1630   20.3560 C   0  0  0  0  0  0  0  0  0  0  0  0
    5.3830   -4.8130   19.9780 O   0  0  0  0  0  0  0  0  0  0  0  0
    6.8710   -4.2220   21.6750 N   0  0  0  0  0  0  0  0  0  0  0  0
    6.5930   -5.3750   22.4780 C   0  0  0  0  0  0  0  0  0  0  0  0
    6.0060   -5.0320   23.7680 C   0  0  0  0  0  0  0  0  0  0  0  0
    6.0320   -3.5800   24.0080 C   0  0  0  0  0  0  0  0  0  0  0  0
    5.6160   -3.2210   25.3900 C   0  0  0  0  0  0  0  0  0  0  0  0
    4.4210   -3.3920   25.6920 O   0  0  0  0  0  0  0  0  0  0  0  0
    6.5220   -2.7010   26.3360 N   0  0  0  0  0  0  0  0  0  0  0  0
    6.3890   -1.3420   26.9340 C   0  0  0  0  0  0  0  0  0  0  0  0
    5.8940   -0.2210   26.0990 C   0  0  0  0  0  0  0  0  0  0  0  0
    5.7280    1.1410   26.5840 C   0  0  0  0  0  0  0  0  0  0  0  0
    5.1500    2.4820   25.6140 Cl  0  0  0  0  0  0  0  0  0  0  0  0
    6.1130    1.2110   27.9630 N   0  0  0  0  0  0  0  0  0  0  0  0
    6.5830    0.1620   28.7800 C   0  0  0  0  0  0  0  0  0  0  0  0
    6.7430   -1.1290   28.3350 C   0  0  0  0  0  0  0  0  0  0  0  0
    7.1870   -2.0550   29.1720 C   0  0  0  0  0  0  0  0  0  0  0  0
    8.3020   -1.3630   29.6870 O   0  0  0  0  0  0  0  0  0  0  0  0
    7.2950   -2.8950   23.5930 C   0  0  0  0  0  0  0  0  0  0  0  0
    7.6360   -3.1380   22.2820 C   0  0  0  0  0  0  0  0  0  0  0  0
  1  2  1  0
  2  3  2  0
  2  4  1  0
  4  5  1  0
  5  6  1  0
  6  7  1  0
  7  8  1  0
  8  9  2  0
  8 10  1  0
 10 11  1  0
 11 12  2  0
 12 13  1  0
 13 14  1  0
 13 15  2  0
 15 16  1  0
 11 17  1  0
 16 17  2  0
 17 18  1  0
 18 19  1  0
  7 20  1  0
  4 21  1  0
 20 21  1  0
M  END
