piperidine-amides-33973-covalent
     RDKit          3D

 31 34  0  0  0  0  0  0  0  0999 V2000
    7.0770   -3.3270   19.3770 C   0  0  0  0  0  0  0  0  0  0  0  0
    6.3820   -4.2260   20.3050 C   0  0  0  0  0  0  0  0  0  0  0  0
    5.3210   -4.7800   19.9590 O   0  0  0  0  0  0  0  0  0  0  0  0
    6.9320   -4.5340   21.5550 N   0  0  0  0  0  0  0  0  0  0  0  0
    7.5040   -3.4850   22.3760 C   0  0  0  0  0  0  0  0  0  0  0  0
    7.3550   -3.9220   23.8500 C   0  0  0  0  0  0  0  0  0  0  0  0
    5.8860   -4.3320   24.0340 C   0  0  0  0  0  0  0  0  0  0  0  0
    5.3490   -4.4360   25.4470 C   0  0  0  0  0  0  0  0  0  0  0  0
    4.5290   -5.3390   25.6670 O   0  0  0  0  0  0  0  0  0  0  0  0
    5.7010   -3.5190   26.4790 N   0  0  0  0  0  0  0  0  0  0  0  0
    4.7880   -3.3190   27.6310 C   0  0  0  0  0  0  0  0  0  0  0  0
    5.5960   -4.4280   28.2280 C   0  0  0  0  0  0  0  0  0  0  0  0
    6.6170   -5.1170   27.6140 C   0  0  0  0  0  0  0  0  0  0  0  0
    6.5680   -4.4170   26.3580 C   0  0  0  0  0  0  0  0  0  0  0  0
    5.7500   -3.3240   25.8290 C   0  0  0  0  0  0  0  0  0  0  0  0
    4.7310   -2.6280   26.4330 C   0  0  0  0  0  0  0  0  0  0  0  0
    3.9220   -1.6220   25.9980 N   0  0  0  0  0  0  0  0  0  0  0  0
    3.4890   -0.7670   26.9690 C   0  0  0  0  0  0  0  0  0  0  0  0
    3.6010   -1.5480   28.2540 C   0  0  0  0  0  0  0  0  0  0  0  0
    4.7420   -1.0340   29.1530 C   0  0  0  0  0  0  0  0  0  0  0  0
    4.5820   -1.9780   30.3030 C   0  0  0  0  0  0  0  0  0  0  0  0
    3.6750   -3.0210   30.5100 C   0  0  0  0  0  0  0  0  0  0  0  0
    2.7350   -3.3690   29.6540 C   0  0  0  0  0  0  0  0  0  0  0  0
    2.6750   -2.5820   28.4220 C   0  0  0  0  0  0  0  0  0  0  0  0
    4.3670   -1.0640   24.7530 C   0  0  0  0  0  0  0  0  0  0  0  0
    3.4030   -0.4230   25.2010 O   0  0  0  0  0  0  0  0  0  0  0  0
    5.4620   -2.1550   24.7140 C   0  0  0  0  0  0  0  0  0  0  0  0
    6.2120   -2.2710   25.8210 C   0  0  1  0  0  0  0  0  0  0  0  0
    6.1280   -1.1020   26.5600 C   0  0  0  0  0  0  0  0  0  0  0  0
    5.6820   -5.6210   23.2910 C   0  0  0  0  0  0  0  0  0  0  0  0
    6.5970   -5.7790   22.1520 C   0  0  0  0  0  0  0  0  0  0  0  0
  1  2  1  0
  2  3  2  0
  2  4  1  0
  4  5  1  0
  5  6  1  0
  6  7  1  0
  7  8  1  0
  8  9  2  0
  8 10  1  0
 10 11  1  0
 11 12  2  0
 12 13  1  0
 13 14  2  0
 14 15  1  0
 11 16  1  0
 15 16  2  0
 16 17  1  0
 17 18  1  0
 18 19  1  0
 19 20  2  0
 20 21  1  0
 21 22  2  0
 22 23  1  0
 19 24  1  0
 23 24  2  0
 17 25  1  0
 25 26  2  0
 25 27  1  0
 10 28  1  0
 27 28  1  0
 28 29  1  1
  7 30  1  0
  4 31  1  0
 30 31  1  0
M  END
