piperidine-amides-28160-covalent
     RDKit          3D

 26 28  0  0  0  0  0  0  0  0999 V2000
    7.1480   -3.3310   19.1710 C   0  0  0  0  0  0  0  0  0  0  0  0
    6.4690   -4.1230   20.2110 C   0  0  0  0  0  0  0  0  0  0  0  0
    5.3640   -4.6260   19.9230 O   0  0  0  0  0  0  0  0  0  0  0  0
    7.1110   -4.3370   21.4310 N   0  0  0  0  0  0  0  0  0  0  0  0
    6.7720   -5.4980   22.1860 C   0  0  0  0  0  0  0  0  0  0  0  0
    6.0140   -5.1260   23.3560 C   0  0  0  0  0  0  0  0  0  0  0  0
    6.0180   -3.6640   23.5130 C   0  0  0  0  0  0  0  0  0  0  0  0
    5.4620   -3.3070   24.7870 C   0  0  0  0  0  0  0  0  0  0  0  0
    4.4770   -2.5540   24.8560 O   0  0  0  0  0  0  0  0  0  0  0  0
    6.0350   -3.8280   25.9000 N   0  0  0  0  0  0  0  0  0  0  0  0
    5.4930   -5.1260   26.3300 C   0  0  0  0  0  0  0  0  0  0  0  0
    4.6830   -5.0410   27.5570 C   0  0  0  0  0  0  0  0  0  0  0  0
    5.2410   -5.0750   28.6520 O   0  0  0  0  0  0  0  0  0  0  0  0
    5.8880   -3.9880   29.0030 C   0  0  0  0  0  0  0  0  0  0  0  0
    6.3580   -2.8940   28.2630 C   0  0  0  0  0  0  0  0  0  0  0  0
    6.8370   -1.6650   28.7430 C   0  0  0  0  0  0  0  0  0  0  0  0
    6.8190   -1.7870   27.4210 C   0  0  0  0  0  0  0  0  0  0  0  0
    6.3470   -2.9370   28.0130 C   0  0  0  0  0  0  0  0  0  0  0  0
    6.1620   -3.2470   29.2990 C   0  0  0  0  0  0  0  0  0  0  0  0
    6.4710   -4.5440   29.6850 O   0  0  0  0  0  0  0  0  0  0  0  0
    5.6320   -2.2400   30.1640 O   0  0  0  0  0  0  0  0  0  0  0  0
    4.4460   -1.6740   29.7340 C   0  0  0  0  0  0  0  0  0  0  0  0
    5.8570   -4.2660   27.4770 C   0  0  0  0  0  0  0  0  0  0  0  0
    6.3540   -3.0020   26.9120 C   0  0  0  0  0  0  0  0  0  0  0  0
    7.4310   -3.1130   23.3790 C   0  0  0  0  0  0  0  0  0  0  0  0
    7.8590   -3.2550   22.0620 C   0  0  0  0  0  0  0  0  0  0  0  0
  1  2  1  0
  2  3  2  0
  2  4  1  0
  4  5  1  0
  5  6  1  0
  6  7  1  0
  7  8  1  0
  8  9  2  0
  8 10  1  0
 10 11  1  0
 11 12  1  0
 12 13  1  0
 13 14  1  0
 14 15  1  0
 15 16  1  0
 16 17  2  0
 17 18  1  0
 18 19  1  0
 19 20  2  0
 19 21  1  0
 21 22  1  0
 18 23  2  0
 10 24  1  0
 15 24  2  0
 23 24  1  0
  7 25  1  0
  4 26  1  0
 25 26  1  0
M  END
