piperidine-amides-4452-covalent
     RDKit          3D

 25 27  0  0  0  0  0  0  0  0999 V2000
    7.1220   -3.3200   19.2770 C   0  0  0  0  0  0  0  0  0  0  0  0
    6.4290   -4.1400   20.2800 C   0  0  0  0  0  0  0  0  0  0  0  0
    5.3500   -4.6800   19.9350 O   0  0  0  0  0  0  0  0  0  0  0  0
    6.9990   -4.3460   21.5520 N   0  0  0  0  0  0  0  0  0  0  0  0
    6.4650   -5.3960   22.3500 C   0  0  0  0  0  0  0  0  0  0  0  0
    5.8970   -4.9530   23.6180 C   0  0  0  0  0  0  0  0  0  0  0  0
    6.5520   -3.7800   24.2420 C   0  0  0  0  0  0  0  0  0  0  0  0
    5.7660   -3.2740   25.4020 C   0  0  0  0  0  0  0  0  0  0  0  0
    4.5350   -3.1130   25.2890 O   0  0  0  0  0  0  0  0  0  0  0  0
    6.3910   -2.9830   26.6220 N   0  0  0  0  0  0  0  0  0  0  0  0
    6.4370   -1.7670   27.3360 C   0  0  0  0  0  0  0  0  0  0  0  0
    7.0560   -1.5880   28.6360 C   0  0  0  0  0  0  0  0  0  0  0  0
    7.0350   -0.2140   29.3290 C   0  0  0  0  0  0  0  0  0  0  0  0
    6.4380    0.9120   28.7690 C   0  0  0  0  0  0  0  0  0  0  0  0
    5.8210    0.6110   27.4040 C   0  0  0  0  0  0  0  0  0  0  0  0
    5.2070    1.7770   26.8440 N   0  0  0  0  0  0  0  0  0  0  0  0
    5.4920    1.7960   25.4000 C   0  0  0  0  0  0  0  0  0  0  0  0
    4.0670    1.3280   25.0250 C   0  0  0  0  0  0  0  0  0  0  0  0
    2.9410    1.2890   26.0420 C   0  0  0  0  0  0  0  0  0  0  0  0
    2.9440   -0.1100   26.6490 C   0  0  0  0  0  0  0  0  0  0  0  0
    3.0280    2.2810   27.1720 C   0  0  0  0  0  0  0  0  0  0  0  0
    4.4270    2.6440   27.4850 C   0  0  0  0  0  0  0  0  0  0  0  0
    5.8090   -0.5830   26.7370 C   0  0  0  0  0  0  0  0  0  0  0  0
    6.9530   -2.6980   23.3160 C   0  0  0  0  0  0  0  0  0  0  0  0
    7.7160   -3.2610   22.1610 C   0  0  0  0  0  0  0  0  0  0  0  0
  1  2  1  0
  2  3  2  0
  2  4  1  0
  4  5  1  0
  5  6  1  0
  6  7  1  0
  7  8  1  0
  8  9  2  0
  8 10  1  0
 10 11  1  0
 11 12  2  0
 12 13  1  0
 13 14  2  0
 14 15  1  0
 15 16  1  0
 16 17  1  0
 17 18  1  0
 18 19  1  0
 19 20  1  0
 19 21  1  0
 16 22  1  0
 21 22  1  0
 11 23  1  0
 15 23  2  0
  7 24  1  0
  4 25  1  0
 24 25  1  0
M  END
