piperidine-amides-13952-covalent
     RDKit          3D

 26 27  0  0  0  0  0  0  0  0999 V2000
    7.1530   -3.3030   19.2610 C   0  0  0  0  0  0  0  0  0  0  0  0
    6.3650   -4.0770   20.2520 C   0  0  0  0  0  0  0  0  0  0  0  0
    5.2860   -4.5800   19.9020 O   0  0  0  0  0  0  0  0  0  0  0  0
    6.9060   -4.2630   21.5390 N   0  0  0  0  0  0  0  0  0  0  0  0
    7.6670   -3.2350   22.1930 C   0  0  0  0  0  0  0  0  0  0  0  0
    6.7540   -2.6720   23.2830 C   0  0  0  0  0  0  0  0  0  0  0  0
    6.4220   -3.7830   24.2390 C   0  0  0  0  0  0  0  0  0  0  0  0
    5.7690   -3.2350   25.4530 C   0  0  0  0  0  0  0  0  0  0  0  0
    4.7510   -2.5640   25.2550 O   0  0  0  0  0  0  0  0  0  0  0  0
    6.2810   -3.4750   26.7360 N   0  0  0  0  0  0  0  0  0  0  0  0
    5.7350   -4.3460   27.7240 C   0  0  2  0  0  0  0  0  0  0  0  0
    6.5150   -5.1890   28.4790 C   0  0  0  0  0  0  0  0  0  0  0  0
    5.6240   -5.7620   29.4730 O   0  0  0  0  0  0  0  0  0  0  0  0
    5.6770   -7.1460   29.4930 C   0  0  0  0  0  0  0  0  0  0  0  0
    4.6800   -5.2190   27.3670 C   0  0  0  0  0  0  0  0  0  0  0  0
    4.9060   -6.1760   26.2680 C   0  0  0  0  0  0  0  0  0  0  0  0
    3.8030   -7.1390   25.8440 C   0  0  0  0  0  0  0  0  0  0  0  0
    2.5290   -6.9660   26.6750 C   0  0  0  0  0  0  0  0  0  0  0  0
    2.3670   -6.0450   27.7020 C   0  0  0  0  0  0  0  0  0  0  0  0
    1.1050   -5.9120   28.4810 C   0  0  0  0  0  0  0  0  0  0  0  0
    0.0730   -6.7200   28.1370 F   0  0  0  0  0  0  0  0  0  0  0  0
    1.2410   -6.0290   29.8350 F   0  0  0  0  0  0  0  0  0  0  0  0
    0.6610   -4.6290   28.2040 F   0  0  0  0  0  0  0  0  0  0  0  0
    3.4540   -5.2010   28.0110 C   0  0  0  0  0  0  0  0  0  0  0  0
    5.6290   -4.7910   23.5040 C   0  0  0  0  0  0  0  0  0  0  0  0
    6.4740   -5.3600   22.3480 C   0  0  0  0  0  0  0  0  0  0  0  0
  1  2  1  0
  2  3  2  0
  2  4  1  0
  4  5  1  0
  5  6  1  0
  6  7  1  0
  7  8  1  0
  8  9  2  0
  8 10  1  0
 10 11  1  0
 11 12  1  6
 12 13  1  0
 13 14  1  0
 11 15  1  0
 15 16  2  0
 16 17  1  0
 17 18  2  0
 18 19  1  0
 19 20  1  0
 20 21  1  0
 20 22  1  0
 20 23  1  0
 15 24  1  0
 19 24  2  0
  7 25  1  0
  4 26  1  0
 25 26  1  0
M  END
