piperidine-amides-34345-covalent
     RDKit          3D

 29 31  0  0  0  0  0  0  0  0999 V2000
    7.0510   -3.3210   19.3200 C   0  0  0  0  0  0  0  0  0  0  0  0
    6.3840   -4.1480   20.3390 C   0  0  0  0  0  0  0  0  0  0  0  0
    5.4180   -4.8730   19.9950 O   0  0  0  0  0  0  0  0  0  0  0  0
    6.8340   -4.1740   21.6740 N   0  0  0  0  0  0  0  0  0  0  0  0
    6.7200   -5.4180   22.4110 C   0  0  0  0  0  0  0  0  0  0  0  0
    6.0930   -5.0920   23.7720 C   0  0  0  0  0  0  0  0  0  0  0  0
    6.0460   -3.5840   23.8580 C   0  0  0  0  0  0  0  0  0  0  0  0
    5.4820   -3.0860   25.1390 C   0  0  0  0  0  0  0  0  0  0  0  0
    4.3140   -2.6520   25.0990 O   0  0  0  0  0  0  0  0  0  0  0  0
    6.1890   -3.0970   26.3670 N   0  0  0  0  0  0  0  0  0  0  0  0
    6.3030   -1.8280   27.0840 C   0  0  0  0  0  0  0  0  0  0  0  0
    7.0020   -1.7580   28.4190 C   0  0  0  0  0  0  0  0  0  0  0  0
    7.0860   -0.5680   29.0690 C   0  0  0  0  0  0  0  0  0  0  0  0
    6.5620    0.6020   28.5710 C   0  0  0  0  0  0  0  0  0  0  0  0
    5.8870    0.7070   27.3450 C   0  0  0  0  0  0  0  0  0  0  0  0
    5.3330    1.8370   26.7740 C   0  0  0  0  0  0  0  0  0  0  0  0
    3.9540    1.7560   26.7600 F   0  0  0  0  0  0  0  0  0  0  0  0
    5.7700    2.9730   27.4310 F   0  0  0  0  0  0  0  0  0  0  0  0
    5.7050    1.8550   25.4290 F   0  0  0  0  0  0  0  0  0  0  0  0
    5.7300   -0.5890   26.5130 C   0  0  0  0  0  0  0  0  0  0  0  0
    5.9520   -4.1950   27.3000 C   0  0  0  0  0  0  0  0  0  0  0  0
    5.5150   -5.4680   26.6080 C   0  0  0  0  0  0  0  0  0  0  0  0
    5.3680   -6.3750   27.7830 C   0  0  0  0  0  0  0  0  0  0  0  0
    5.5900   -6.0590   29.1330 C   0  0  0  0  0  0  0  0  0  0  0  0
    5.3480   -7.3030   30.3550 Cl  0  0  0  0  0  0  0  0  0  0  0  0
    5.9700   -4.8530   29.4900 N   0  0  0  0  0  0  0  0  0  0  0  0
    6.1480   -3.9400   28.5990 N   0  0  0  0  0  0  0  0  0  0  0  0
    7.4580   -3.0720   23.6670 C   0  0  0  0  0  0  0  0  0  0  0  0
    7.7200   -3.1270   22.1810 C   0  0  0  0  0  0  0  0  0  0  0  0
  1  2  1  0
  2  3  2  0
  2  4  1  0
  4  5  1  0
  5  6  1  0
  6  7  1  0
  7  8  1  0
  8  9  2  0
  8 10  1  0
 10 11  1  0
 11 12  2  0
 12 13  1  0
 13 14  2  0
 14 15  1  0
 15 16  1  0
 16 17  1  0
 16 18  1  0
 16 19  1  0
 11 20  1  0
 15 20  2  0
 10 21  1  0
 21 22  2  0
 22 23  1  0
 23 24  2  0
 24 25  1  0
 24 26  1  0
 21 27  1  0
 26 27  2  0
  7 28  1  0
  4 29  1  0
 28 29  1  0
M  END
