piperidine-amides-23448-covalent
     RDKit          3D

 24 26  0  0  0  0  0  0  0  0999 V2000
    7.1560   -3.2950   19.2410 C   0  0  0  0  0  0  0  0  0  0  0  0
    6.4220   -4.0810   20.2400 C   0  0  0  0  0  0  0  0  0  0  0  0
    5.3180   -4.5620   19.8950 O   0  0  0  0  0  0  0  0  0  0  0  0
    6.9820   -4.3370   21.5090 N   0  0  0  0  0  0  0  0  0  0  0  0
    6.5390   -5.4820   22.2160 C   0  0  0  0  0  0  0  0  0  0  0  0
    6.0850   -5.1720   23.5600 C   0  0  0  0  0  0  0  0  0  0  0  0
    6.7240   -3.9840   24.1460 C   0  0  0  0  0  0  0  0  0  0  0  0
    5.9330   -3.5030   25.2990 C   0  0  0  0  0  0  0  0  0  0  0  0
    4.9490   -2.7560   25.1260 O   0  0  0  0  0  0  0  0  0  0  0  0
    6.2920   -3.9080   26.5750 N   0  0  0  0  0  0  0  0  0  0  0  0
    6.9260   -5.1080   26.9110 C   0  0  0  0  0  0  0  0  0  0  0  0
    6.9960   -5.2670   28.3410 C   0  0  0  0  0  0  0  0  0  0  0  0
    6.0860   -4.0840   28.7840 C   0  0  0  0  0  0  0  0  0  0  0  0
    5.6930   -3.2900   27.7110 C   0  0  2  0  0  0  0  0  0  0  0  0
    4.2140   -3.6730   27.9290 C   0  0  1  0  0  0  0  0  0  0  0  0
    3.9380   -4.9800   28.3290 O   0  0  0  0  0  0  0  0  0  0  0  0
    4.1260   -2.7500   29.1100 C   0  0  0  0  0  0  0  0  0  0  0  0
    2.8580   -3.2600   29.7600 C   0  0  0  0  0  0  0  0  0  0  0  0
    2.3140   -2.6500   31.0150 C   0  0  0  0  0  0  0  0  0  0  0  0
    3.1260   -1.4900   31.5860 C   0  0  0  0  0  0  0  0  0  0  0  0
    4.4280   -0.9900   30.8880 C   0  0  0  0  0  0  0  0  0  0  0  0
    4.8480   -1.7020   29.6320 C   0  0  0  0  0  0  0  0  0  0  0  0
    6.9690   -2.8810   23.1810 C   0  0  0  0  0  0  0  0  0  0  0  0
    7.7740   -3.3310   22.1680 C   0  0  0  0  0  0  0  0  0  0  0  0
  1  2  1  0
  2  3  2  0
  2  4  1  0
  4  5  1  0
  5  6  1  0
  6  7  1  0
  7  8  1  0
  8  9  2  0
  8 10  1  0
 10 11  1  0
 11 12  1  0
 12 13  1  0
 10 14  1  0
 14 13  1  1
 14 15  1  0
 15 16  1  1
 15 17  1  0
 17 18  2  0
 18 19  1  0
 19 20  2  0
 20 21  1  0
 17 22  1  0
 21 22  2  0
  7 23  1  0
  4 24  1  0
 23 24  1  0
M  END
