piperidine-amides-14054-covalent
     RDKit          3D

 25 26  0  0  0  0  0  0  0  0999 V2000
    7.0950   -3.2830   19.2450 C   0  0  0  0  0  0  0  0  0  0  0  0
    6.3970   -4.1270   20.2470 C   0  0  0  0  0  0  0  0  0  0  0  0
    5.3310   -4.6810   19.9310 O   0  0  0  0  0  0  0  0  0  0  0  0
    6.9820   -4.3340   21.5130 N   0  0  0  0  0  0  0  0  0  0  0  0
    6.5590   -5.4290   22.3330 C   0  0  0  0  0  0  0  0  0  0  0  0
    5.6600   -4.8030   23.4030 C   0  0  0  0  0  0  0  0  0  0  0  0
    6.4730   -3.8010   24.1680 C   0  0  0  0  0  0  0  0  0  0  0  0
    5.7840   -3.4120   25.4120 C   0  0  0  0  0  0  0  0  0  0  0  0
    4.5550   -3.2830   25.3400 O   0  0  0  0  0  0  0  0  0  0  0  0
    6.5150   -3.2020   26.5820 N   0  0  0  0  0  0  0  0  0  0  0  0
    6.3810   -3.8810   27.8280 C   0  0  2  0  0  0  0  0  0  0  0  0
    5.9580   -5.1810   27.9790 C   0  0  0  0  0  0  0  0  0  0  0  0
    5.4920   -3.0020   28.6540 C   0  0  0  0  0  0  0  0  0  0  0  0
    4.5220   -3.4080   29.5580 O   0  0  0  0  0  0  0  0  0  0  0  0
    5.4820   -1.5400   28.6480 N   0  0  0  0  0  0  0  0  0  0  0  0
    6.5450   -0.7240   28.8880 C   0  0  0  0  0  0  0  0  0  0  0  0
    7.2960   -0.7930   30.1360 C   0  0  0  0  0  0  0  0  0  0  0  0
    8.4860    0.0850   30.4760 C   0  0  0  0  0  0  0  0  0  0  0  0
    8.9050    1.1080   29.4200 C   0  0  0  0  0  0  0  0  0  0  0  0
    9.9620    1.9900   29.5610 O   0  0  0  0  0  0  0  0  0  0  0  0
   10.9430    1.7260   30.5390 C   0  0  0  0  0  0  0  0  0  0  0  0
    8.1360    1.1850   28.1300 C   0  0  0  0  0  0  0  0  0  0  0  0
    6.9630    0.2080   27.9720 C   0  0  0  0  0  0  0  0  0  0  0  0
    6.8050   -2.6780   23.2770 C   0  0  0  0  0  0  0  0  0  0  0  0
    7.6860   -3.2660   22.1670 C   0  0  0  0  0  0  0  0  0  0  0  0
  1  2  1  0
  2  3  2  0
  2  4  1  0
  4  5  1  0
  5  6  1  0
  6  7  1  0
  7  8  1  0
  8  9  2  0
  8 10  1  0
 10 11  1  0
 11 12  1  6
 11 13  1  0
 13 14  2  0
 13 15  1  0
 15 16  1  0
 16 17  2  0
 17 18  1  0
 18 19  2  0
 19 20  1  0
 20 21  1  0
 19 22  1  0
 16 23  1  0
 22 23  2  0
  7 24  1  0
  4 25  1  0
 24 25  1  0
M  END
