piperidine-amides-28908-covalent
     RDKit          3D

 26 28  0  0  0  0  0  0  0  0999 V2000
    6.9760   -3.3720   19.4660 C   0  0  0  0  0  0  0  0  0  0  0  0
    6.3570   -4.2750   20.4420 C   0  0  0  0  0  0  0  0  0  0  0  0
    5.4420   -5.0070   20.0180 O   0  0  0  0  0  0  0  0  0  0  0  0
    6.7990   -4.3280   21.8070 N   0  0  0  0  0  0  0  0  0  0  0  0
    6.4820   -5.5030   22.5850 C   0  0  0  0  0  0  0  0  0  0  0  0
    5.9750   -5.1600   23.9830 C   0  0  0  0  0  0  0  0  0  0  0  0
    5.8370   -3.6530   24.0710 C   0  0  0  0  0  0  0  0  0  0  0  0
    5.1260   -3.0720   25.3130 C   0  0  0  0  0  0  0  0  0  0  0  0
    4.5610   -2.0160   25.0840 O   0  0  0  0  0  0  0  0  0  0  0  0
    5.0940   -3.6680   26.5980 N   0  0  0  0  0  0  0  0  0  0  0  0
    4.4970   -3.0370   27.7160 C   0  0  0  0  0  0  0  0  0  0  0  0
    4.8710   -3.5760   28.9660 C   0  0  0  0  0  0  0  0  0  0  0  0
    4.9790   -5.0270   28.7400 N   0  0  0  0  0  0  0  0  0  0  0  0
    4.0470   -6.0930   28.8080 C   0  0  0  0  0  0  0  0  0  0  0  0
    3.8730   -6.7590   30.0120 C   0  0  0  0  0  0  0  0  0  0  0  0
    5.1630   -6.9230   30.7050 C   0  0  0  0  0  0  0  0  0  0  0  0
    5.2300   -7.6320   32.0660 C   0  0  0  0  0  0  0  0  0  0  0  0
    3.9630   -8.1550   32.6760 C   0  0  0  0  0  0  0  0  0  0  0  0
    2.6500   -7.9610   31.9170 C   0  0  0  0  0  0  0  0  0  0  0  0
    1.4680   -8.4320   32.4570 F   0  0  0  0  0  0  0  0  0  0  0  0
    2.6900   -7.2260   30.5440 C   0  0  0  0  0  0  0  0  0  0  0  0
    1.4330   -7.1010   29.9400 F   0  0  0  0  0  0  0  0  0  0  0  0
    6.2950   -4.7960   28.2220 C   0  0  0  0  0  0  0  0  0  0  0  0
    6.2430   -4.3010   26.9320 C   0  0  0  0  0  0  0  0  0  0  0  0
    7.1430   -2.9870   23.8000 C   0  0  0  0  0  0  0  0  0  0  0  0
    7.5980   -3.2690   22.3900 C   0  0  0  0  0  0  0  0  0  0  0  0
  1  2  1  0
  2  3  2  0
  2  4  1  0
  4  5  1  0
  5  6  1  0
  6  7  1  0
  7  8  1  0
  8  9  2  0
  8 10  1  0
 10 11  1  0
 11 12  1  0
 12 13  1  0
 13 14  1  0
 14 15  1  0
 15 16  2  0
 16 17  1  0
 17 18  2  0
 18 19  1  0
 19 20  1  0
 15 21  1  0
 19 21  2  0
 21 22  1  0
 13 23  1  0
 10 24  1  0
 23 24  1  0
  7 25  1  0
  4 26  1  0
 25 26  1  0
M  END
