piperidine-amides-9956-covalent
     RDKit          3D

 26 28  0  0  0  0  0  0  0  0999 V2000
    7.0830   -3.3310   19.2890 C   0  0  0  0  0  0  0  0  0  0  0  0
    6.4180   -4.1550   20.3010 C   0  0  0  0  0  0  0  0  0  0  0  0
    5.3580   -4.7400   19.9520 O   0  0  0  0  0  0  0  0  0  0  0  0
    6.9870   -4.3110   21.5630 N   0  0  0  0  0  0  0  0  0  0  0  0
    7.7670   -3.2500   22.1610 C   0  0  0  0  0  0  0  0  0  0  0  0
    6.9750   -2.7080   23.3030 C   0  0  0  0  0  0  0  0  0  0  0  0
    6.5090   -3.8100   24.2070 C   0  0  0  0  0  0  0  0  0  0  0  0
    5.7250   -3.2180   25.3050 C   0  0  0  0  0  0  0  0  0  0  0  0
    4.5210   -2.9570   25.0920 O   0  0  0  0  0  0  0  0  0  0  0  0
    6.2670   -2.9420   26.5660 N   0  0  0  0  0  0  0  0  0  0  0  0
    6.2830   -1.5980   27.0980 C   0  0  0  0  0  0  0  0  0  0  0  0
    6.0460   -0.4130   26.1830 C   0  0  0  0  0  0  0  0  0  0  0  0
    6.0600    0.8590   26.6990 C   0  0  0  0  0  0  0  0  0  0  0  0
    6.2950    1.0220   28.0430 C   0  0  0  0  0  0  0  0  0  0  0  0
    6.5160   -0.0170   28.9200 C   0  0  0  0  0  0  0  0  0  0  0  0
    6.5010   -1.3080   28.4330 C   0  0  0  0  0  0  0  0  0  0  0  0
    6.6940   -2.3200   29.2840 C   0  0  0  0  0  0  0  0  0  0  0  0
    5.5800   -3.3280   29.4230 C   0  0  0  0  0  0  0  0  0  0  0  0
    4.3180   -2.5730   29.7520 C   0  0  0  0  0  0  0  0  0  0  0  0
    3.1110   -3.4290   29.9320 C   0  0  0  0  0  0  0  0  0  0  0  0
    3.1330   -4.9400   29.7980 C   0  0  0  0  0  0  0  0  0  0  0  0
    4.3280   -5.6000   29.4900 C   0  0  0  0  0  0  0  0  0  0  0  0
    5.5850   -4.7300   29.3010 C   0  0  0  0  0  0  0  0  0  0  0  0
    6.7660   -5.4310   28.9960 N   0  0  0  0  0  0  0  0  0  0  0  0
    5.6810   -4.8350   23.4830 C   0  0  0  0  0  0  0  0  0  0  0  0
    6.5620   -5.4230   22.3770 C   0  0  0  0  0  0  0  0  0  0  0  0
  1  2  1  0
  2  3  2  0
  2  4  1  0
  4  5  1  0
  5  6  1  0
  6  7  1  0
  7  8  1  0
  8  9  2  0
  8 10  1  0
 10 11  1  0
 11 12  2  0
 12 13  1  0
 13 14  2  0
 14 15  1  0
 11 16  1  0
 15 16  2  0
 16 17  1  0
 17 18  1  0
 18 19  2  0
 19 20  1  0
 20 21  2  0
 21 22  1  0
 18 23  1  0
 22 23  2  0
 23 24  1  0
  7 25  1  0
  4 26  1  0
 25 26  1  0
M  END
