piperidine-amides-10847-covalent
     RDKit          3D

 22 23  0  0  0  0  0  0  0  0999 V2000
    7.1520   -3.2920   19.2350 C   0  0  0  0  0  0  0  0  0  0  0  0
    6.3430   -4.0130   20.2130 C   0  0  0  0  0  0  0  0  0  0  0  0
    5.2580   -4.4990   19.8670 O   0  0  0  0  0  0  0  0  0  0  0  0
    6.8010   -4.2220   21.5200 N   0  0  0  0  0  0  0  0  0  0  0  0
    6.4650   -5.3830   22.3030 C   0  0  0  0  0  0  0  0  0  0  0  0
    5.7260   -4.8590   23.5030 C   0  0  0  0  0  0  0  0  0  0  0  0
    6.5190   -3.8100   24.2230 C   0  0  0  0  0  0  0  0  0  0  0  0
    5.8170   -3.2910   25.4240 C   0  0  0  0  0  0  0  0  0  0  0  0
    4.5540   -3.3490   25.4990 O   0  0  0  0  0  0  0  0  0  0  0  0
    6.5100   -2.6870   26.5000 N   0  0  0  0  0  0  0  0  0  0  0  0
    6.3700   -3.1170   27.9230 C   0  0  0  0  0  0  0  0  0  0  0  0
    5.1720   -3.9410   28.1540 C   0  0  0  0  0  0  0  0  0  0  0  0
    3.8220   -3.4070   27.9560 C   0  0  0  0  0  0  0  0  0  0  0  0
    2.6030   -4.2040   28.1920 N   0  0  0  0  0  0  0  0  0  0  0  0
    2.9590   -5.6020   28.6530 C   0  0  0  0  0  0  0  0  0  0  0  0
    2.0560   -6.6340   28.9730 N   0  0  0  0  0  0  0  0  0  0  0  0
    2.4930   -7.8860   28.8050 C   0  0  0  0  0  0  0  0  0  0  0  0
    1.1310   -6.4300   29.9140 C   0  0  0  0  0  0  0  0  0  0  0  0
    4.2600   -5.9970   28.8050 N   0  0  0  0  0  0  0  0  0  0  0  0
    5.3370   -5.2120   28.5680 C   0  0  0  0  0  0  0  0  0  0  0  0
    6.8860   -2.6580   23.3310 C   0  0  0  0  0  0  0  0  0  0  0  0
    7.6370   -3.2150   22.1530 C   0  0  0  0  0  0  0  0  0  0  0  0
  1  2  1  0
  2  3  2  0
  2  4  1  0
  4  5  1  0
  5  6  1  0
  6  7  1  0
  7  8  1  0
  8  9  2  0
  8 10  1  0
 10 11  1  0
 11 12  1  0
 12 13  2  0
 13 14  1  0
 14 15  2  0
 15 16  1  0
 16 17  1  0
 16 18  1  0
 15 19  1  0
 12 20  1  0
 19 20  2  0
  7 21  1  0
  4 22  1  0
 21 22  1  0
M  END
