piperidine-amides-999-covalent
     RDKit          3D

 24 26  0  0  0  0  0  0  0  0999 V2000
    7.0810   -3.3350   19.3270 C   0  0  0  0  0  0  0  0  0  0  0  0
    6.3880   -4.2030   20.3160 C   0  0  0  0  0  0  0  0  0  0  0  0
    5.3670   -4.8220   19.9730 O   0  0  0  0  0  0  0  0  0  0  0  0
    6.9400   -4.3390   21.6040 N   0  0  0  0  0  0  0  0  0  0  0  0
    7.7210   -3.2880   22.2090 C   0  0  0  0  0  0  0  0  0  0  0  0
    6.8270   -2.6500   23.2680 C   0  0  0  0  0  0  0  0  0  0  0  0
    6.4960   -3.7230   24.2470 C   0  0  0  0  0  0  0  0  0  0  0  0
    5.7570   -3.1910   25.4170 C   0  0  0  0  0  0  0  0  0  0  0  0
    4.5320   -3.1140   25.2850 O   0  0  0  0  0  0  0  0  0  0  0  0
    6.4450   -2.8130   26.5800 N   0  0  0  0  0  0  0  0  0  0  0  0
    6.0930   -1.8380   27.5630 C   0  0  0  0  0  0  0  0  0  0  0  0
    5.0260   -2.1450   28.3990 C   0  0  0  0  0  0  0  0  0  0  0  0
    5.1360   -2.1930   29.8040 C   0  0  0  0  0  0  0  0  0  0  0  0
    4.0460   -2.5040   30.5790 C   0  0  0  0  0  0  0  0  0  0  0  0
    2.7370   -2.7940   29.9450 C   0  0  0  0  0  0  0  0  0  0  0  0
    1.4780   -3.1490   30.7470 C   0  0  0  0  0  0  0  0  0  0  0  0
    2.6690   -2.7390   28.5910 C   0  0  0  0  0  0  0  0  0  0  0  0
    3.7910   -2.4210   27.8500 C   0  0  0  0  0  0  0  0  0  0  0  0
    7.2220   -1.3830   28.3670 C   0  0  0  0  0  0  0  0  0  0  0  0
    5.9910   -0.5120   28.3250 C   0  0  0  0  0  0  0  0  0  0  0  0
    6.0730    0.6790   27.6660 C   0  0  0  0  0  0  0  0  0  0  0  0
    5.6620   -0.5710   26.8210 C   0  0  0  0  0  0  0  0  0  0  0  0
    5.7830   -4.9060   23.6530 C   0  0  0  0  0  0  0  0  0  0  0  0
    6.5670   -5.4420   22.4510 C   0  0  0  0  0  0  0  0  0  0  0  0
  1  2  1  0
  2  3  2  0
  2  4  1  0
  4  5  1  0
  5  6  1  0
  6  7  1  0
  7  8  1  0
  8  9  2  0
  8 10  1  0
 11 10  1  0
 11 12  1  0
 12 13  2  0
 13 14  1  0
 14 15  2  0
 15 16  1  0
 15 17  1  0
 12 18  1  0
 17 18  2  0
 11 19  1  0
 19 20  1  0
 20 21  1  0
 11 22  1  0
 21 22  1  0
  7 23  1  0
  4 24  1  0
 23 24  1  0
M  END
