piperidine-amides-32669-covalent
     RDKit          3D

 29 32  0  0  0  0  0  0  0  0999 V2000
    7.0530   -3.3650   19.3730 C   0  0  0  0  0  0  0  0  0  0  0  0
    6.3890   -4.2680   20.3530 C   0  0  0  0  0  0  0  0  0  0  0  0
    5.3690   -4.8780   19.9900 O   0  0  0  0  0  0  0  0  0  0  0  0
    6.9520   -4.4620   21.6390 N   0  0  0  0  0  0  0  0  0  0  0  0
    6.6480   -5.6460   22.4080 C   0  0  0  0  0  0  0  0  0  0  0  0
    6.4740   -5.2150   23.8780 C   0  0  0  0  0  0  0  0  0  0  0  0
    5.9020   -3.8390   23.8720 C   0  0  0  0  0  0  0  0  0  0  0  0
    5.4960   -3.2900   25.1890 C   0  0  0  0  0  0  0  0  0  0  0  0
    4.9920   -2.1700   25.1590 O   0  0  0  0  0  0  0  0  0  0  0  0
    5.6420   -3.9910   26.3860 N   0  0  0  0  0  0  0  0  0  0  0  0
    6.8580   -4.3900   26.9430 C   0  0  0  0  0  0  0  0  0  0  0  0
    7.0870   -5.5170   27.6780 C   0  0  0  0  0  0  0  0  0  0  0  0
    6.3110   -5.6210   28.7950 C   0  0  0  0  0  0  0  0  0  0  0  0
    5.2840   -4.7290   28.8090 C   0  0  0  0  0  0  0  0  0  0  0  0
    4.4310   -4.5420   30.0350 C   0  0  0  0  0  0  0  0  0  0  0  0
    3.2710   -3.5770   30.1630 C   0  0  0  0  0  0  0  0  0  0  0  0
    2.5980   -3.6090   31.5350 C   0  0  0  0  0  0  0  0  0  0  0  0
    3.1610   -2.6220   32.3250 O   0  0  0  0  0  0  0  0  0  0  0  0
    1.6240   -4.4710   31.8900 N   0  0  0  0  0  0  0  0  0  0  0  0
    0.7650   -4.6290   30.8560 C   0  0  0  0  0  0  0  0  0  0  0  0
   -0.4460   -5.1690   31.5220 C   0  0  0  0  0  0  0  0  0  0  0  0
   -0.1770   -5.9930   32.6170 O   0  0  0  0  0  0  0  0  0  0  0  0
    1.1840   -6.2100   32.9850 C   0  0  0  0  0  0  0  0  0  0  0  0
    2.1760   -5.6500   32.2210 C   0  0  0  0  0  0  0  0  0  0  0  0
    2.9400   -2.7630   29.0150 C   0  0  0  0  0  0  0  0  0  0  0  0
    3.7650   -2.9390   27.7880 C   0  0  0  0  0  0  0  0  0  0  0  0
    4.9480   -3.9260   27.6670 C   0  0  0  0  0  0  0  0  0  0  0  0
    6.8350   -2.7980   23.2980 C   0  0  0  0  0  0  0  0  0  0  0  0
    7.5660   -3.3380   22.2650 C   0  0  0  0  0  0  0  0  0  0  0  0
  1  2  1  0
  2  3  2  0
  2  4  1  0
  4  5  1  0
  5  6  1  0
  6  7  1  0
  7  8  1  0
  8  9  2  0
  8 10  1  0
 10 11  1  0
 11 12  1  0
 12 13  1  0
 13 14  1  0
 14 15  2  0
 15 16  1  0
 16 17  1  0
 17 18  2  0
 17 19  1  0
 19 20  1  0
 20 21  1  0
 21 22  1  0
 22 23  1  0
 19 24  1  0
 23 24  1  0
 16 25  2  0
 25 26  1  0
 10 27  1  0
 14 27  1  0
 26 27  2  0
  7 28  1  0
  4 29  1  0
 28 29  1  0
M  END
