piperidine-amides-24598-covalent
     RDKit          3D

 23 25  0  0  0  0  0  0  0  0999 V2000
    7.0970   -3.2890   19.2570 C   0  0  0  0  0  0  0  0  0  0  0  0
    6.3870   -4.0990   20.2570 C   0  0  0  0  0  0  0  0  0  0  0  0
    5.3430   -4.7050   19.9450 O   0  0  0  0  0  0  0  0  0  0  0  0
    6.9010   -4.2550   21.5530 N   0  0  0  0  0  0  0  0  0  0  0  0
    6.6070   -5.4620   22.2770 C   0  0  0  0  0  0  0  0  0  0  0  0
    5.7810   -5.0190   23.4820 C   0  0  0  0  0  0  0  0  0  0  0  0
    6.5140   -3.8650   24.1310 C   0  0  0  0  0  0  0  0  0  0  0  0
    5.7130   -3.3830   25.2690 C   0  0  0  0  0  0  0  0  0  0  0  0
    4.4710   -3.5100   25.2050 O   0  0  0  0  0  0  0  0  0  0  0  0
    6.3140   -2.7940   26.3950 N   0  0  0  0  0  0  0  0  0  0  0  0
    5.8490   -3.2160   27.6960 C   0  0  0  0  0  0  0  0  0  0  0  0
    5.8440   -1.8390   28.0780 C   0  0  0  0  0  0  0  0  0  0  0  0
    6.7350   -1.6510   29.1550 O   0  0  0  0  0  0  0  0  0  0  0  0
    6.4130   -0.9590   30.2840 C   0  0  0  0  0  0  0  0  0  0  0  0
    5.1530   -0.9000   30.7290 C   0  0  0  0  0  0  0  0  0  0  0  0
    4.9030   -0.2050   31.8520 C   0  0  0  0  0  0  0  0  0  0  0  0
    5.8560    0.4480   32.5710 C   0  0  0  0  0  0  0  0  0  0  0  0
    5.2880    1.2840   34.0050 Cl  0  0  0  0  0  0  0  0  0  0  0  0
    7.3670    0.5380   32.2760 C   0  0  0  0  0  0  0  0  0  0  0  0
    7.4180   -0.3120   30.9770 C   0  0  0  0  0  0  0  0  0  0  0  0
    6.4090   -1.3800   26.9460 C   0  0  0  0  0  0  0  0  0  0  0  0
    6.7210   -2.7240   23.1630 C   0  0  0  0  0  0  0  0  0  0  0  0
    7.6430   -3.2170   22.2340 C   0  0  0  0  0  0  0  0  0  0  0  0
  1  2  1  0
  2  3  2  0
  2  4  1  0
  4  5  1  0
  5  6  1  0
  6  7  1  0
  7  8  1  0
  8  9  2  0
  8 10  1  0
 10 11  1  0
 11 12  1  0
 12 13  1  0
 13 14  1  0
 14 15  2  0
 15 16  1  0
 16 17  2  0
 17 18  1  0
 17 19  1  0
 14 20  1  0
 19 20  2  0
 10 21  1  0
 12 21  1  0
  7 22  1  0
  4 23  1  0
 22 23  1  0
M  END
