piperidine-amides-29408-covalent
     RDKit          3D

 25 26  0  0  0  0  0  0  0  0999 V2000
    7.0750   -3.3820   19.3980 C   0  0  0  0  0  0  0  0  0  0  0  0
    6.4000   -4.2410   20.3640 C   0  0  0  0  0  0  0  0  0  0  0  0
    5.3770   -4.8430   19.9860 O   0  0  0  0  0  0  0  0  0  0  0  0
    6.9480   -4.4160   21.6620 N   0  0  0  0  0  0  0  0  0  0  0  0
    6.5170   -5.5360   22.4360 C   0  0  0  0  0  0  0  0  0  0  0  0
    5.5720   -5.0380   23.4880 C   0  0  0  0  0  0  0  0  0  0  0  0
    6.2780   -3.9750   24.3130 C   0  0  0  0  0  0  0  0  0  0  0  0
    5.2890   -3.3340   25.2570 C   0  0  0  0  0  0  0  0  0  0  0  0
    4.4220   -2.6640   24.7160 O   0  0  0  0  0  0  0  0  0  0  0  0
    5.3790   -3.5140   26.6400 N   0  0  0  0  0  0  0  0  0  0  0  0
    6.4470   -3.1370   27.3920 C   0  0  0  0  0  0  0  0  0  0  0  0
    6.7290   -4.1230   28.3520 C   0  0  0  0  0  0  0  0  0  0  0  0
    5.7810   -4.2890   29.2990 C   0  0  0  0  0  0  0  0  0  0  0  0
    5.2910   -3.0470   29.6610 O   0  0  0  0  0  0  0  0  0  0  0  0
    3.7940   -3.1060   30.4590 Si  0  0  0  0  0  4  0  0  0  0  0  0
    3.8650   -2.0670   32.0030 C   0  0  0  0  0  0  0  0  0  0  0  0
    3.4340   -4.8640   30.9790 C   0  0  0  0  0  0  0  0  0  0  0  0
    2.3830   -2.4820   29.3690 C   0  0  0  0  0  0  0  0  0  0  0  0
    2.8760   -1.5410   28.3280 C   0  0  0  0  0  0  0  0  0  0  0  0
    1.3880   -1.7730   30.2510 C   0  0  0  0  0  0  0  0  0  0  0  0
    1.7170   -3.6190   28.9110 C   0  0  0  0  0  0  0  0  0  0  0  0
    4.8850   -4.9490   28.2760 C   0  0  0  0  0  0  0  0  0  0  0  0
    4.3170   -4.0360   27.4110 C   0  0  0  0  0  0  0  0  0  0  0  0
    6.9090   -2.8800   23.4980 C   0  0  0  0  0  0  0  0  0  0  0  0
    7.6940   -3.3850   22.3240 C   0  0  0  0  0  0  0  0  0  0  0  0
  1  2  1  0
  2  3  2  0
  2  4  1  0
  4  5  1  0
  5  6  1  0
  6  7  1  0
  7  8  1  0
  8  9  2  0
  8 10  1  0
 10 11  1  0
 11 12  1  0
 12 13  1  0
 13 14  1  0
 15 14  1  0
 15 16  1  0
 15 17  1  0
 15 18  1  0
 18 19  1  0
 18 20  1  0
 18 21  1  0
 13 22  1  0
 10 23  1  0
 22 23  1  0
  7 24  1  0
  4 25  1  0
 24 25  1  0
M  END
