piperidine-amides-427-covalent
     RDKit          3D

 27 29  0  0  0  0  0  0  0  0999 V2000
    7.1500   -3.3040   19.3700 C   0  0  0  0  0  0  0  0  0  0  0  0
    6.3520   -4.0380   20.3320 C   0  0  0  0  0  0  0  0  0  0  0  0
    5.3320   -4.6670   19.9180 O   0  0  0  0  0  0  0  0  0  0  0  0
    6.6690   -4.1090   21.7020 N   0  0  0  0  0  0  0  0  0  0  0  0
    7.7780   -3.2590   22.1890 C   0  0  0  0  0  0  0  0  0  0  0  0
    7.1300   -2.6050   23.4650 C   0  0  0  0  0  0  0  0  0  0  0  0
    6.5200   -3.7200   24.2920 C   0  0  0  0  0  0  0  0  0  0  0  0
    5.0350   -3.3600   24.7090 C   0  0  0  0  0  0  0  0  0  0  0  0
    4.2980   -3.4500   23.7520 O   0  0  0  0  0  0  0  0  0  0  0  0
    4.9450   -3.0580   25.9370 N   0  0  0  0  0  0  0  0  0  0  0  0
    4.6820   -2.6800   27.2120 C   0  0  0  0  0  0  0  0  0  0  0  0
    5.1290   -2.6590   28.4850 C   0  0  0  0  0  0  0  0  0  0  0  0
    6.4620   -2.8680   28.4780 C   0  0  0  0  0  0  0  0  0  0  0  0
    7.5470   -2.0890   28.8660 C   0  0  0  0  0  0  0  0  0  0  0  0
    6.9820   -0.7640   29.4270 C   0  0  0  0  0  0  0  0  0  0  0  0
    6.6240    0.1550   28.4390 F   0  0  0  0  0  0  0  0  0  0  0  0
    7.9190   -0.1520   30.2630 F   0  0  0  0  0  0  0  0  0  0  0  0
    5.8930   -0.9920   30.2250 F   0  0  0  0  0  0  0  0  0  0  0  0
    8.8430   -2.5620   28.7200 N   0  0  0  0  0  0  0  0  0  0  0  0
    8.5170   -3.9000   28.1380 C   0  0  0  0  0  0  0  0  0  0  0  0
    9.6320   -4.7910   27.8120 C   0  0  0  0  0  0  0  0  0  0  0  0
    8.7580   -5.9480   27.2920 C   0  0  0  0  0  0  0  0  0  0  0  0
    7.2340   -6.0280   27.1980 C   0  0  0  0  0  0  0  0  0  0  0  0
    6.5000   -5.0540   27.5710 C   0  0  0  0  0  0  0  0  0  0  0  0
    7.1150   -3.9910   28.0390 C   0  0  0  0  0  0  0  0  0  0  0  0
    6.7250   -5.1440   23.7850 C   0  0  0  0  0  0  0  0  0  0  0  0
    6.3170   -5.2720   22.4720 C   0  0  0  0  0  0  0  0  0  0  0  0
  1  2  1  0
  2  3  2  0
  2  4  1  0
  4  5  1  0
  5  6  1  0
  6  7  1  0
  7  8  1  0
  8  9  2  0
  8 10  1  0
 10 11  1  0
 11 12  1  0
 12 13  1  0
 13 14  2  0
 14 15  1  0
 15 16  1  0
 15 17  1  0
 15 18  1  0
 14 19  1  0
 19 20  1  0
 20 21  1  0
 21 22  2  0
 22 23  1  0
 23 24  2  0
 13 25  1  0
 20 25  2  0
 24 25  1  0
  7 26  1  0
  4 27  1  0
 26 27  1  0
M  END
