piperidine-amides-19735-covalent
     RDKit          3D

 22 23  0  0  0  0  0  0  0  0999 V2000
    7.0440   -3.2990   19.2990 C   0  0  0  0  0  0  0  0  0  0  0  0
    6.3360   -4.1560   20.2880 C   0  0  0  0  0  0  0  0  0  0  0  0
    5.2930   -4.6860   19.9210 O   0  0  0  0  0  0  0  0  0  0  0  0
    6.8770   -4.3800   21.5560 N   0  0  0  0  0  0  0  0  0  0  0  0
    6.5630   -5.5740   22.3140 C   0  0  0  0  0  0  0  0  0  0  0  0
    5.7350   -5.2220   23.5260 C   0  0  0  0  0  0  0  0  0  0  0  0
    5.9730   -3.7560   23.8600 C   0  0  0  0  0  0  0  0  0  0  0  0
    5.5320   -3.4770   25.2380 C   0  0  0  0  0  0  0  0  0  0  0  0
    4.3830   -3.7810   25.5810 O   0  0  0  0  0  0  0  0  0  0  0  0
    6.3830   -2.8560   26.1610 N   0  0  0  0  0  0  0  0  0  0  0  0
    6.3400   -3.3670   27.5150 C   0  0  0  0  0  0  0  0  0  0  0  0
    6.8280   -1.5180   25.9220 C   0  0  0  0  0  0  0  0  0  0  0  0
    6.6120   -1.0500   24.6320 C   0  0  0  0  0  0  0  0  0  0  0  0
    5.4600   -0.5620   24.0770 C   0  0  0  0  0  0  0  0  0  0  0  0
    4.3220   -0.5020   24.8330 C   0  0  0  0  0  0  0  0  0  0  0  0
    5.6650   -0.1630   22.6820 N   0  0  0  0  0  0  0  0  0  0  0  0
    6.9120   -0.3660   22.2680 N   0  0  0  0  0  0  0  0  0  0  0  0
    7.5380   -0.1160   20.9600 C   0  0  0  0  0  0  0  0  0  0  0  0
    7.4960   -0.9050   23.4480 C   0  0  0  0  0  0  0  0  0  0  0  0
    8.7630   -1.4520   24.0730 C   0  0  0  0  0  0  0  0  0  0  0  0
    7.3410   -3.3220   23.5960 C   0  0  0  0  0  0  0  0  0  0  0  0
    7.6730   -3.3480   22.1620 C   0  0  0  0  0  0  0  0  0  0  0  0
  1  2  1  0
  2  3  2  0
  2  4  1  0
  4  5  1  0
  5  6  1  0
  6  7  1  0
  7  8  1  0
  8  9  2  0
  8 10  1  0
 10 11  1  0
 10 12  1  0
 12 13  1  0
 13 14  1  0
 14 15  1  0
 14 16  2  0
 16 17  1  0
 17 18  1  0
 13 19  2  0
 17 19  1  0
 19 20  1  0
  7 21  1  0
  4 22  1  0
 21 22  1  0
M  END
