piperidine-amides-4332-covalent
     RDKit          3D

 26 28  0  0  0  0  0  0  0  0999 V2000
    7.0690   -3.3270   19.3180 C   0  0  0  0  0  0  0  0  0  0  0  0
    6.3980   -4.1570   20.3370 C   0  0  0  0  0  0  0  0  0  0  0  0
    5.3720   -4.7780   19.9660 O   0  0  0  0  0  0  0  0  0  0  0  0
    6.9120   -4.2910   21.6550 N   0  0  0  0  0  0  0  0  0  0  0  0
    7.6780   -3.2340   22.2240 C   0  0  0  0  0  0  0  0  0  0  0  0
    7.3340   -2.9510   23.6060 C   0  0  0  0  0  0  0  0  0  0  0  0
    6.1040   -3.6350   24.0330 C   0  0  0  0  0  0  0  0  0  0  0  0
    5.6840   -3.2580   25.4250 C   0  0  0  0  0  0  0  0  0  0  0  0
    4.4830   -3.3490   25.7330 O   0  0  0  0  0  0  0  0  0  0  0  0
    6.6070   -2.7890   26.3810 N   0  0  0  0  0  0  0  0  0  0  0  0
    6.5130   -1.5950   27.1430 C   0  0  0  0  0  0  0  0  0  0  0  0
    6.1660   -0.3500   26.4470 C   0  0  0  0  0  0  0  0  0  0  0  0
    6.0450    0.9770   27.2200 C   0  0  0  0  0  0  0  0  0  0  0  0
    6.2530    1.0310   28.5750 C   0  0  0  0  0  0  0  0  0  0  0  0
    6.1420    2.2120   29.2760 O   0  0  0  0  0  0  0  0  0  0  0  0
    4.9250    2.3500   29.9170 C   0  0  0  0  0  0  0  0  0  0  0  0
    6.6110   -0.2530   29.3190 C   0  0  0  0  0  0  0  0  0  0  0  0
    6.7710   -0.0910   30.6530 N   0  0  0  0  0  0  0  0  0  0  0  0
    5.6760   -0.1990   31.3920 N   0  0  0  0  0  0  0  0  0  0  0  0
    5.9740    0.0000   32.6900 N   0  0  0  0  0  0  0  0  0  0  0  0
    7.2850    0.2380   32.8000 N   0  0  0  0  0  0  0  0  0  0  0  0
    7.7900    0.1760   31.4540 C   0  0  0  0  0  0  0  0  0  0  0  0
    9.2660    0.4180   31.2730 C   0  0  0  0  0  0  0  0  0  0  0  0
    6.7210   -1.5090   28.5100 C   0  0  0  0  0  0  0  0  0  0  0  0
    6.2360   -5.1560   23.8600 C   0  0  0  0  0  0  0  0  0  0  0  0
    6.4930   -5.4870   22.4190 C   0  0  0  0  0  0  0  0  0  0  0  0
  1  2  1  0
  2  3  2  0
  2  4  1  0
  4  5  1  0
  5  6  1  0
  6  7  1  0
  7  8  1  0
  8  9  2  0
  8 10  1  0
 10 11  1  0
 11 12  2  0
 12 13  1  0
 13 14  2  0
 14 15  1  0
 15 16  1  0
 14 17  1  0
 17 18  1  0
 18 19  1  0
 19 20  2  0
 20 21  1  0
 18 22  1  0
 21 22  2  0
 22 23  1  0
 11 24  1  0
 17 24  2  0
  7 25  1  0
  4 26  1  0
 25 26  1  0
M  END
