piperidine-amides-35010-covalent
     RDKit          3D

 32 35  0  0  0  0  0  0  0  0999 V2000
    7.0330   -3.3470   19.3810 C   0  0  0  0  0  0  0  0  0  0  0  0
    6.3830   -4.2270   20.3910 C   0  0  0  0  0  0  0  0  0  0  0  0
    5.4250   -4.8970   19.9970 O   0  0  0  0  0  0  0  0  0  0  0  0
    6.8760   -4.3020   21.7110 N   0  0  0  0  0  0  0  0  0  0  0  0
    6.6990   -5.5060   22.4920 C   0  0  0  0  0  0  0  0  0  0  0  0
    6.0990   -5.1510   23.8280 C   0  0  0  0  0  0  0  0  0  0  0  0
    6.1500   -3.6320   23.9550 C   0  0  0  0  0  0  0  0  0  0  0  0
    5.6100   -3.1140   25.2570 C   0  0  0  0  0  0  0  0  0  0  0  0
    4.8350   -2.1580   25.1950 O   0  0  0  0  0  0  0  0  0  0  0  0
    5.8850   -3.6480   26.5500 N   0  0  0  0  0  0  0  0  0  0  0  0
    5.8620   -5.0800   26.5650 C   0  0  0  0  0  0  0  0  0  0  0  0
    6.1990   -5.3510   27.9270 C   0  0  0  0  0  0  0  0  0  0  0  0
    6.5010   -4.9680   29.0940 C   0  0  0  0  0  0  0  0  0  0  0  0
    6.3700   -6.3660   28.7340 N   0  0  0  0  0  0  0  0  0  0  0  0
    6.0410   -6.1470   27.3950 N   0  0  0  0  0  0  0  0  0  0  0  0
    6.2870   -5.1000   28.2780 C   0  0  1  0  0  0  0  0  0  0  0  0
    6.0810   -3.7400   28.1510 C   0  0  0  0  0  0  0  0  0  0  0  0
    4.6930   -3.5580   28.2600 F   0  0  0  0  0  0  0  0  0  0  0  0
    6.5550   -3.2120   26.9630 F   0  0  0  0  0  0  0  0  0  0  0  0
    6.7250   -3.0950   29.1650 F   0  0  0  0  0  0  0  0  0  0  0  0
    5.0510   -4.3710   28.5070 C   0  0  0  0  0  0  0  0  0  0  0  0
    5.1060   -3.1290   27.6440 C   0  0  1  0  0  0  0  0  0  0  0  0
    5.5110   -2.1480   28.7610 C   0  0  0  0  0  0  0  0  0  0  0  0
    4.5200   -1.7970   29.8620 C   0  0  0  0  0  0  0  0  0  0  0  0
    4.8290   -0.8520   30.9870 C   0  0  0  0  0  0  0  0  0  0  0  0
    6.1550   -0.1660   31.1230 C   0  0  0  0  0  0  0  0  0  0  0  0
    6.5950    0.7950   32.1820 C   0  0  0  0  0  0  0  0  0  0  0  0
    7.0160    0.0640   33.4340 C   0  0  0  0  0  0  0  0  0  0  0  0
    7.1800   -0.4560   30.0930 C   0  0  0  0  0  0  0  0  0  0  0  0
    6.8580   -1.4100   28.9590 C   0  0  0  0  0  0  0  0  0  0  0  0
    7.5470   -3.0750   23.6950 C   0  0  0  0  0  0  0  0  0  0  0  0
    7.7240   -3.2030   22.1800 C   0  0  0  0  0  0  0  0  0  0  0  0
  1  2  1  0
  2  3  2  0
  2  4  1  0
  4  5  1  0
  5  6  1  0
  6  7  1  0
  7  8  1  0
  8  9  2  0
  8 10  1  0
 10 11  1  0
 11 12  2  0
 12 13  1  0
 13 14  2  0
 11 15  1  0
 14 15  1  0
 15 16  1  0
 16 17  1  6
 17 18  1  0
 17 19  1  0
 17 20  1  0
 16 21  1  0
 10 22  1  0
 21 22  1  0
 22 23  1  1
 23 24  2  0
 24 25  1  0
 25 26  2  0
 26 27  1  0
 27 28  1  0
 26 29  1  0
 23 30  1  0
 29 30  2  0
  7 31  1  0
  4 32  1  0
 31 32  1  0
M  END
