piperidine-amides-13241-covalent
     RDKit          3D

 18 19  0  0  0  0  0  0  0  0999 V2000
    7.0870   -3.3690   19.3340 C   0  0  0  0  0  0  0  0  0  0  0  0
    6.3720   -4.1560   20.3600 C   0  0  0  0  0  0  0  0  0  0  0  0
    5.3540   -4.7610   19.9660 O   0  0  0  0  0  0  0  0  0  0  0  0
    6.8550   -4.2530   21.6780 N   0  0  0  0  0  0  0  0  0  0  0  0
    7.6650   -3.2070   22.2250 C   0  0  0  0  0  0  0  0  0  0  0  0
    7.3040   -2.9190   23.5990 C   0  0  0  0  0  0  0  0  0  0  0  0
    6.0650   -3.6180   23.9780 C   0  0  0  0  0  0  0  0  0  0  0  0
    5.6510   -3.2700   25.3650 C   0  0  0  0  0  0  0  0  0  0  0  0
    4.4340   -3.3070   25.6420 O   0  0  0  0  0  0  0  0  0  0  0  0
    6.5800   -2.8830   26.3490 N   0  0  0  0  0  0  0  0  0  0  0  0
    6.4750   -1.6150   27.1130 C   0  0  0  0  0  0  0  0  0  0  0  0
    6.9560   -1.5390   28.4930 C   0  0  0  0  0  0  0  0  0  0  0  0
    6.5970    0.1290   28.9390 S   0  0  0  0  0  0  0  0  0  0  0  0
    5.8630    0.6330   27.3440 C   0  0  0  0  0  0  0  0  0  0  0  0
    5.2010    2.1720   26.8280 Cl  0  0  0  0  0  0  0  0  0  0  0  0
    5.8810   -0.4640   26.4580 C   0  0  0  0  0  0  0  0  0  0  0  0
    6.1150   -5.1000   23.7330 C   0  0  0  0  0  0  0  0  0  0  0  0
    6.4960   -5.4140   22.4470 C   0  0  0  0  0  0  0  0  0  0  0  0
  1  2  1  0
  2  3  2  0
  2  4  1  0
  4  5  1  0
  5  6  1  0
  6  7  1  0
  7  8  1  0
  8  9  2  0
  8 10  1  0
 10 11  1  0
 11 12  2  0
 12 13  1  0
 13 14  1  0
 14 15  1  0
 11 16  1  0
 14 16  2  0
  7 17  1  0
  4 18  1  0
 17 18  1  0
M  END
