piperidine-amides-14575-covalent
     RDKit          3D

 23 25  0  0  0  0  0  0  0  0999 V2000
    7.0170   -3.3200   19.3460 C   0  0  0  0  0  0  0  0  0  0  0  0
    6.3400   -4.1430   20.3500 C   0  0  0  0  0  0  0  0  0  0  0  0
    5.3680   -4.8230   19.9750 O   0  0  0  0  0  0  0  0  0  0  0  0
    6.7940   -4.2020   21.7000 N   0  0  0  0  0  0  0  0  0  0  0  0
    7.6760   -3.1830   22.2070 C   0  0  0  0  0  0  0  0  0  0  0  0
    7.5600   -3.1780   23.6940 C   0  0  0  0  0  0  0  0  0  0  0  0
    6.1670   -3.6900   23.9460 C   0  0  0  0  0  0  0  0  0  0  0  0
    5.7300   -3.5790   25.3780 C   0  0  0  0  0  0  0  0  0  0  0  0
    4.6960   -4.1850   25.6390 O   0  0  0  0  0  0  0  0  0  0  0  0
    6.4740   -2.8310   26.3020 N   0  0  0  0  0  0  0  0  0  0  0  0
    6.3660   -1.4130   26.4300 C   0  0  0  0  0  0  0  0  0  0  0  0
    6.0840    0.0920   26.5820 C   0  0  0  0  0  0  0  0  0  0  0  0
    4.6200    0.0700   26.7130 N   0  0  0  0  0  0  0  0  0  0  0  0
    3.7130   -0.8710   26.7170 C   0  0  0  0  0  0  0  0  0  0  0  0
    2.3430   -1.0460   26.8230 C   0  0  0  0  0  0  0  0  0  0  0  0
    1.9380   -2.2580   26.0770 C   0  0  0  0  0  0  0  0  0  0  0  0
    0.4490   -2.6710   26.0450 C   0  0  0  0  0  0  0  0  0  0  0  0
   -0.5720   -1.8400   26.7690 C   0  0  0  0  0  0  0  0  0  0  0  0
   -0.0640   -0.6120   27.5080 C   0  0  0  0  0  0  0  0  0  0  0  0
    1.4420   -0.2550   27.5000 C   0  0  0  0  0  0  0  0  0  0  0  0
    4.7220   -2.0980   26.5280 S   0  0  0  0  0  0  0  0  0  0  0  0
    6.0790   -5.1750   23.6270 C   0  0  0  0  0  0  0  0  0  0  0  0
    6.7200   -5.4440   22.4270 C   0  0  0  0  0  0  0  0  0  0  0  0
  1  2  1  0
  2  3  2  0
  2  4  1  0
  4  5  1  0
  5  6  1  0
  6  7  1  0
  7  8  1  0
  8  9  2  0
  8 10  1  0
 10 11  1  0
 11 12  2  0
 12 13  1  0
 13 14  2  0
 14 15  1  0
 15 16  2  0
 16 17  1  0
 17 18  2  0
 18 19  1  0
 15 20  1  0
 19 20  2  0
 11 21  1  0
 14 21  1  0
  7 22  1  0
  4 23  1  0
 22 23  1  0
M  END
