piperidine-amides-23637-covalent
     RDKit          3D

 24 26  0  0  0  0  0  0  0  0999 V2000
    7.0730   -3.3570   19.3860 C   0  0  0  0  0  0  0  0  0  0  0  0
    6.4210   -4.2270   20.3740 C   0  0  0  0  0  0  0  0  0  0  0  0
    5.3880   -4.8300   19.9860 O   0  0  0  0  0  0  0  0  0  0  0  0
    6.9710   -4.4240   21.6760 N   0  0  0  0  0  0  0  0  0  0  0  0
    6.4830   -5.4870   22.4660 C   0  0  0  0  0  0  0  0  0  0  0  0
    6.0880   -5.1040   23.8280 C   0  0  0  0  0  0  0  0  0  0  0  0
    6.3970   -3.7240   24.3080 C   0  0  0  0  0  0  0  0  0  0  0  0
    5.2730   -3.2100   25.1860 C   0  0  0  0  0  0  0  0  0  0  0  0
    4.1860   -2.9520   24.6530 O   0  0  0  0  0  0  0  0  0  0  0  0
    5.3740   -3.0080   26.5850 N   0  0  0  0  0  0  0  0  0  0  0  0
    6.4990   -3.2070   27.3010 C   0  0  0  0  0  0  0  0  0  0  0  0
    6.4550   -4.3370   28.2330 C   0  0  0  0  0  0  0  0  0  0  0  0
    5.3540   -4.5530   28.9710 N   0  0  0  0  0  0  0  0  0  0  0  0
    5.1880   -5.5770   29.9580 C   0  0  0  0  0  0  0  0  0  0  0  0
    6.1250   -6.5870   29.8800 C   0  0  0  0  0  0  0  0  0  0  0  0
    5.9880   -7.7270   30.9590 C   0  0  0  0  0  0  0  0  0  0  0  0
    4.8910   -7.7240   32.0240 C   0  0  0  0  0  0  0  0  0  0  0  0
    3.9770   -6.5330   31.9180 C   0  0  0  0  0  0  0  0  0  0  0  0
    4.0900   -5.4710   30.9290 C   0  0  0  0  0  0  0  0  0  0  0  0
    3.2020   -4.3810   30.8900 O   0  0  0  0  0  0  0  0  0  0  0  0
    4.3340   -3.7330   28.7730 C   0  0  0  0  0  0  0  0  0  0  0  0
    4.1830   -3.1760   27.3470 C   0  0  0  0  0  0  0  0  0  0  0  0
    6.7140   -2.7700   23.1900 C   0  0  0  0  0  0  0  0  0  0  0  0
    7.6710   -3.3820   22.3870 C   0  0  0  0  0  0  0  0  0  0  0  0
  1  2  1  0
  2  3  2  0
  2  4  1  0
  4  5  1  0
  5  6  1  0
  6  7  1  0
  7  8  1  0
  8  9  2  0
  8 10  1  0
 10 11  1  0
 11 12  1  0
 12 13  1  0
 13 14  1  0
 14 15  2  0
 15 16  1  0
 16 17  2  0
 17 18  1  0
 14 19  1  0
 18 19  2  0
 19 20  1  0
 13 21  1  0
 10 22  1  0
 21 22  1  0
  7 23  1  0
  4 24  1  0
 23 24  1  0
M  END
