piperidine-amides-12819-covalent
     RDKit          3D

 22 23  0  0  0  0  0  0  0  0999 V2000
    7.0520   -3.3350   19.3200 C   0  0  0  0  0  0  0  0  0  0  0  0
    6.3740   -4.1810   20.3330 C   0  0  0  0  0  0  0  0  0  0  0  0
    5.3540   -4.7900   19.9610 O   0  0  0  0  0  0  0  0  0  0  0  0
    6.8930   -4.3150   21.6310 N   0  0  0  0  0  0  0  0  0  0  0  0
    7.6790   -3.2740   22.2000 C   0  0  0  0  0  0  0  0  0  0  0  0
    7.2680   -2.9340   23.5470 C   0  0  0  0  0  0  0  0  0  0  0  0
    6.0150   -3.5890   23.9670 C   0  0  0  0  0  0  0  0  0  0  0  0
    5.7620   -3.2050   25.3700 C   0  0  0  0  0  0  0  0  0  0  0  0
    4.6470   -3.4270   25.8760 O   0  0  0  0  0  0  0  0  0  0  0  0
    6.7980   -2.5830   26.0770 N   0  0  0  0  0  0  0  0  0  0  0  0
    6.5870   -1.4520   27.0010 C   0  0  0  0  0  0  0  0  0  0  0  0
    7.0410   -1.5260   28.4030 C   0  0  0  0  0  0  0  0  0  0  0  0
    6.8510   -0.4120   29.3080 C   0  0  0  0  0  0  0  0  0  0  0  0
    6.2280    0.7320   28.8340 C   0  0  0  0  0  0  0  0  0  0  0  0
    5.9740    1.8750   29.5640 C   0  0  0  0  0  0  0  0  0  0  0  0
    5.7480    0.8410   27.4150 C   0  0  0  0  0  0  0  0  0  0  0  0
    5.1150    2.0140   26.9570 O   0  0  0  0  0  0  0  0  0  0  0  0
    3.8960    1.9650   26.2780 C   0  0  0  0  0  0  0  0  0  0  0  0
    2.8380    2.3080   27.0730 C   0  0  0  0  0  0  0  0  0  0  0  0
    5.9320   -0.2150   26.5560 C   0  0  0  0  0  0  0  0  0  0  0  0
    5.9350   -5.0600   23.7480 C   0  0  0  0  0  0  0  0  0  0  0  0
    6.6460   -5.4860   22.4720 C   0  0  0  0  0  0  0  0  0  0  0  0
  1  2  1  0
  2  3  2  0
  2  4  1  0
  4  5  1  0
  5  6  1  0
  6  7  1  0
  7  8  1  0
  8  9  2  0
  8 10  1  0
 10 11  1  0
 11 12  2  0
 12 13  1  0
 13 14  2  0
 14 15  1  0
 14 16  1  0
 16 17  1  0
 17 18  1  0
 18 19  1  0
 11 20  1  0
 16 20  2  0
  7 21  1  0
  4 22  1  0
 21 22  1  0
M  END
