piperidine-amides-13415-covalent
     RDKit          3D

 23 24  0  0  0  0  0  0  0  0999 V2000
    7.0470   -3.3380   19.3340 C   0  0  0  0  0  0  0  0  0  0  0  0
    6.3580   -4.1870   20.3450 C   0  0  0  0  0  0  0  0  0  0  0  0
    5.3850   -4.8750   19.9860 O   0  0  0  0  0  0  0  0  0  0  0  0
    6.8510   -4.2200   21.6690 N   0  0  0  0  0  0  0  0  0  0  0  0
    7.7430   -3.1840   22.1540 C   0  0  0  0  0  0  0  0  0  0  0  0
    7.5350   -3.0500   23.6580 C   0  0  0  0  0  0  0  0  0  0  0  0
    6.1710   -3.5700   23.9200 C   0  0  0  0  0  0  0  0  0  0  0  0
    5.6790   -3.2490   25.2780 C   0  0  0  0  0  0  0  0  0  0  0  0
    4.4680   -3.3990   25.4780 O   0  0  0  0  0  0  0  0  0  0  0  0
    6.5720   -2.7970   26.2490 N   0  0  0  0  0  0  0  0  0  0  0  0
    6.5300   -1.5780   26.9810 C   0  0  2  0  0  0  0  0  0  0  0  0
    6.3710   -1.6790   28.3400 C   0  0  0  0  0  0  0  0  0  0  0  0
    7.0070   -0.7840   29.2010 C   0  0  0  0  0  0  0  0  0  0  0  0
    6.4670    0.4720   29.3520 C   0  0  0  0  0  0  0  0  0  0  0  0
    5.3920    0.9510   28.4510 C   0  0  1  0  0  0  0  0  0  0  0  0
    5.1230    2.4620   28.5020 C   0  0  0  0  0  0  0  0  0  0  0  0
    5.3990    3.2430   27.3860 O   0  0  0  0  0  0  0  0  0  0  0  0
    4.6070    3.1120   29.6110 O   0  0  0  0  0  0  0  0  0  0  0  0
    3.4690    3.9750   29.5090 C   0  0  0  0  0  0  0  0  0  0  0  0
    5.5460    0.8350   26.9800 C   0  0  0  0  0  0  0  0  0  0  0  0
    5.6440   -0.5410   26.4310 C   0  0  0  0  0  0  0  0  0  0  0  0
    6.0110   -5.0340   23.6490 C   0  0  0  0  0  0  0  0  0  0  0  0
    6.6660   -5.3880   22.4930 C   0  0  0  0  0  0  0  0  0  0  0  0
  1  2  1  0
  2  3  2  0
  2  4  1  0
  4  5  1  0
  5  6  1  0
  6  7  1  0
  7  8  1  0
  8  9  2  0
  8 10  1  0
 11 10  1  6
 11 12  1  0
 12 13  1  0
 13 14  1  0
 14 15  1  0
 15 16  1  6
 16 17  2  0
 16 18  1  0
 18 19  1  0
 15 20  1  0
 11 21  1  0
 20 21  1  0
  7 22  1  0
  4 23  1  0
 22 23  1  0
M  END
