piperidine-amides-2069-covalent
     RDKit          3D

 21 22  0  0  0  0  0  0  0  0999 V2000
    7.1200   -3.3090   19.2450 C   0  0  0  0  0  0  0  0  0  0  0  0
    6.3680   -4.0750   20.2670 C   0  0  0  0  0  0  0  0  0  0  0  0
    5.3120   -4.5890   19.9040 O   0  0  0  0  0  0  0  0  0  0  0  0
    6.8950   -4.2220   21.5540 N   0  0  0  0  0  0  0  0  0  0  0  0
    7.6530   -3.1710   22.1750 C   0  0  0  0  0  0  0  0  0  0  0  0
    6.9020   -2.6850   23.3800 C   0  0  0  0  0  0  0  0  0  0  0  0
    6.4000   -3.8670   24.2170 C   0  0  0  0  0  0  0  0  0  0  0  0
    5.7010   -3.3080   25.3980 C   0  0  0  0  0  0  0  0  0  0  0  0
    4.4720   -3.1660   25.3510 O   0  0  0  0  0  0  0  0  0  0  0  0
    6.3920   -2.9290   26.5670 N   0  0  0  0  0  0  0  0  0  0  0  0
    6.6110   -1.5170   26.8020 C   0  0  0  0  0  0  0  0  0  0  0  0
    6.4020   -1.2240   28.2790 C   0  0  0  0  0  0  0  0  0  0  0  0
    7.2850   -0.3450   28.9780 N   0  0  0  0  0  0  0  0  0  0  0  0
    6.7430   -0.3200   30.3730 C   0  0  0  0  0  0  0  0  0  0  0  0
    7.1820    0.3470   31.4680 C   0  0  0  0  0  0  0  0  0  0  0  0
    7.2970    1.7170   31.2220 F   0  0  0  0  0  0  0  0  0  0  0  0
    6.2060    0.2930   32.4800 F   0  0  0  0  0  0  0  0  0  0  0  0
    5.6640   -1.1950   30.1520 N   0  0  0  0  0  0  0  0  0  0  0  0
    5.4210   -1.7370   28.9910 O   0  0  0  0  0  0  0  0  0  0  0  0
    5.4960   -4.7840   23.3740 C   0  0  0  0  0  0  0  0  0  0  0  0
    6.4190   -5.3490   22.3140 C   0  0  0  0  0  0  0  0  0  0  0  0
  1  2  1  0
  2  3  2  0
  2  4  1  0
  4  5  1  0
  5  6  1  0
  6  7  1  0
  7  8  1  0
  8  9  2  0
  8 10  1  0
 10 11  1  0
 11 12  1  0
 12 13  2  0
 13 14  1  0
 14 15  1  0
 15 16  1  0
 15 17  1  0
 14 18  2  0
 12 19  1  0
 18 19  1  0
  7 20  1  0
  4 21  1  0
 20 21  1  0
M  END
