piperidine-amides-8940-covalent
     RDKit          3D

 22 23  0  0  0  0  0  0  0  0999 V2000
    7.1640   -3.2790   19.2000 C   0  0  0  0  0  0  0  0  0  0  0  0
    6.4130   -4.0460   20.1940 C   0  0  0  0  0  0  0  0  0  0  0  0
    5.3090   -4.5190   19.8810 O   0  0  0  0  0  0  0  0  0  0  0  0
    6.9440   -4.3230   21.4620 N   0  0  0  0  0  0  0  0  0  0  0  0
    6.6120   -5.5150   22.1850 C   0  0  0  0  0  0  0  0  0  0  0  0
    5.7310   -5.0400   23.3040 C   0  0  0  0  0  0  0  0  0  0  0  0
    6.2820   -3.8490   24.0410 C   0  0  0  0  0  0  0  0  0  0  0  0
    5.2450   -3.2320   24.8810 C   0  0  0  0  0  0  0  0  0  0  0  0
    4.2200   -3.8840   25.2340 O   0  0  0  0  0  0  0  0  0  0  0  0
    5.3190   -1.9180   25.3360 N   0  0  0  0  0  0  0  0  0  0  0  0
    5.1930   -1.7360   26.7710 C   0  0  0  0  0  0  0  0  0  0  0  0
    6.2670   -2.5350   27.2860 C   0  0  0  0  0  0  0  0  0  0  0  0
    6.4630   -3.9550   26.9560 C   0  0  0  0  0  0  0  0  0  0  0  0
    7.6330   -4.6460   27.5660 C   0  0  0  0  0  0  0  0  0  0  0  0
    7.9740   -6.0840   27.3200 C   0  0  0  0  0  0  0  0  0  0  0  0
    9.2740   -6.1250   26.6500 N   0  0  0  0  0  0  0  0  0  0  0  0
    8.5210   -3.8350   28.4770 C   0  0  0  0  0  0  0  0  0  0  0  0
    8.2470   -2.5170   28.7070 C   0  0  0  0  0  0  0  0  0  0  0  0
    7.1930   -1.8320   28.1790 C   0  0  0  0  0  0  0  0  0  0  0  0
    6.9830   -0.5380   28.4570 F   0  0  0  0  0  0  0  0  0  0  0  0
    6.8180   -2.7070   23.1620 C   0  0  0  0  0  0  0  0  0  0  0  0
    7.7390   -3.3160   22.1210 C   0  0  0  0  0  0  0  0  0  0  0  0
  1  2  1  0
  2  3  2  0
  2  4  1  0
  4  5  1  0
  5  6  1  0
  6  7  1  0
  7  8  1  0
  8  9  2  0
  8 10  1  0
 10 11  1  0
 11 12  1  0
 12 13  2  0
 13 14  1  0
 14 15  1  0
 15 16  3  0
 14 17  2  0
 17 18  1  0
 12 19  1  0
 18 19  2  0
 19 20  1  0
  7 21  1  0
  4 22  1  0
 21 22  1  0
M  END
