piperidine-amides-30963-covalent
     RDKit          3D

 27 28  0  0  0  0  0  0  0  0999 V2000
    7.0200   -3.3640   19.4180 C   0  0  0  0  0  0  0  0  0  0  0  0
    6.3940   -4.2350   20.4140 C   0  0  0  0  0  0  0  0  0  0  0  0
    5.4590   -4.9630   20.0220 O   0  0  0  0  0  0  0  0  0  0  0  0
    6.8340   -4.3010   21.7650 N   0  0  0  0  0  0  0  0  0  0  0  0
    7.6800   -3.2620   22.3730 C   0  0  0  0  0  0  0  0  0  0  0  0
    7.1100   -2.9170   23.7450 C   0  0  0  0  0  0  0  0  0  0  0  0
    5.8330   -3.6640   23.9680 C   0  0  0  0  0  0  0  0  0  0  0  0
    4.9460   -3.3030   25.1440 C   0  0  0  0  0  0  0  0  0  0  0  0
    3.7150   -3.2100   24.9110 O   0  0  0  0  0  0  0  0  0  0  0  0
    5.2640   -3.0500   26.5130 N   0  0  0  0  0  0  0  0  0  0  0  0
    6.4550   -3.5980   26.9930 C   0  0  0  0  0  0  0  0  0  0  0  0
    6.5990   -3.3040   28.4310 C   0  0  0  0  0  0  0  0  0  0  0  0
    5.8730   -4.2080   29.0560 N   0  0  0  0  0  0  0  0  0  0  0  0
    6.3170   -5.5280   29.2430 C   0  0  0  0  0  0  0  0  0  0  0  0
    6.7660   -6.2460   28.3380 O   0  0  0  0  0  0  0  0  0  0  0  0
    6.2600   -6.0430   30.4330 O   0  0  0  0  0  0  0  0  0  0  0  0
    5.2700   -6.9550   30.7810 C   0  0  0  0  0  0  0  0  0  0  0  0
    4.0830   -6.2680   31.4220 C   0  0  0  0  0  0  0  0  0  0  0  0
    4.8820   -7.8730   29.6150 C   0  0  0  0  0  0  0  0  0  0  0  0
    5.5300   -7.7330   32.0550 C   0  0  0  0  0  0  0  0  0  0  0  0
    4.5390   -4.2180   28.5100 C   0  0  0  0  0  0  0  0  0  0  0  0
    4.3560   -3.0060   27.5940 C   0  0  1  0  0  0  0  0  0  0  0  0
    4.2400   -1.6680   28.3400 C   0  0  0  0  0  0  0  0  0  0  0  0
    4.0240   -1.6950   29.8360 C   0  0  0  0  0  0  0  0  0  0  0  0
    3.9280   -2.0480   30.9790 C   0  0  0  0  0  0  0  0  0  0  0  0
    5.9550   -5.1240   23.7890 C   0  0  0  0  0  0  0  0  0  0  0  0
    6.5590   -5.4440   22.5860 C   0  0  0  0  0  0  0  0  0  0  0  0
  1  2  1  0
  2  3  2  0
  2  4  1  0
  4  5  1  0
  5  6  1  0
  6  7  1  0
  7  8  1  0
  8  9  2  0
  8 10  1  0
 10 11  1  0
 11 12  1  0
 12 13  1  0
 13 14  1  0
 14 15  2  0
 14 16  1  0
 17 16  1  0
 17 18  1  0
 17 19  1  0
 17 20  1  0
 13 21  1  0
 10 22  1  0
 21 22  1  0
 22 23  1  1
 23 24  1  0
 24 25  1  0
  7 26  1  0
  4 27  1  0
 26 27  1  0
M  END
