piperidine-amides-26094-covalent
     RDKit          3D

 25 27  0  0  0  0  0  0  0  0999 V2000
    7.1020   -3.3610   19.3760 C   0  0  0  0  0  0  0  0  0  0  0  0
    6.3710   -4.1820   20.3330 C   0  0  0  0  0  0  0  0  0  0  0  0
    5.3340   -4.7530   19.9600 O   0  0  0  0  0  0  0  0  0  0  0  0
    6.8480   -4.3960   21.6410 N   0  0  0  0  0  0  0  0  0  0  0  0
    6.5370   -5.5740   22.4000 C   0  0  0  0  0  0  0  0  0  0  0  0
    5.9170   -5.0450   23.6680 C   0  0  0  0  0  0  0  0  0  0  0  0
    6.6070   -3.8160   24.2010 C   0  0  0  0  0  0  0  0  0  0  0  0
    5.8600   -3.2240   25.3400 C   0  0  0  0  0  0  0  0  0  0  0  0
    4.6610   -2.8520   25.1710 O   0  0  0  0  0  0  0  0  0  0  0  0
    6.3880   -3.0460   26.6400 N   0  0  0  0  0  0  0  0  0  0  0  0
    6.1950   -4.1440   27.6170 C   0  0  0  0  0  0  0  0  0  0  0  0
    6.2660   -1.7130   27.2510 C   0  0  0  0  0  0  0  0  0  0  0  0
    5.9750   -0.5350   26.5030 C   0  0  0  0  0  0  0  0  0  0  0  0
    5.8670    0.7490   27.3100 C   0  0  0  0  0  0  0  0  0  0  0  0
    6.0110    1.0230   28.8510 C   0  0  0  0  0  0  0  0  0  0  0  0
    6.2230    0.7780   30.2870 N   0  0  0  0  0  0  0  0  0  0  0  0
    7.6470    0.9340   30.5350 C   0  0  0  0  0  0  0  0  0  0  0  0
    7.9370    0.6830   31.8540 C   0  0  0  0  0  0  0  0  0  0  0  0
    7.1110    1.1550   32.7010 O   0  0  0  0  0  0  0  0  0  0  0  0
    5.7860    0.7940   32.5810 C   0  0  0  0  0  0  0  0  0  0  0  0
    5.2740    1.1210   31.1980 C   0  0  0  0  0  0  0  0  0  0  0  0
    6.2830   -0.2660   29.2560 N   0  0  0  0  0  0  0  0  0  0  0  0
    6.4300   -1.5610   28.6530 C   0  0  0  0  0  0  0  0  0  0  0  0
    6.8030   -2.8020   23.0650 C   0  0  0  0  0  0  0  0  0  0  0  0
    7.5710   -3.3060   22.2880 C   0  0  0  0  0  0  0  0  0  0  0  0
  1  2  1  0
  2  3  2  0
  2  4  1  0
  4  5  1  0
  5  6  1  0
  6  7  1  0
  7  8  1  0
  8  9  2  0
  8 10  1  0
 10 11  1  0
 10 12  1  0
 12 13  2  0
 13 14  1  0
 14 15  2  0
 15 16  1  0
 16 17  1  0
 17 18  1  0
 18 19  1  0
 19 20  1  0
 16 21  1  0
 20 21  1  0
 15 22  1  0
 12 23  1  0
 22 23  2  0
  7 24  1  0
  4 25  1  0
 24 25  1  0
M  END
