piperidine-amides-11203-covalent
     RDKit          3D

 19 20  0  0  0  0  0  0  0  0999 V2000
    7.1030   -3.2890   19.2400 C   0  0  0  0  0  0  0  0  0  0  0  0
    6.3770   -4.0460   20.2640 C   0  0  0  0  0  0  0  0  0  0  0  0
    5.3510   -4.6650   19.9360 O   0  0  0  0  0  0  0  0  0  0  0  0
    6.8470   -4.1180   21.5900 N   0  0  0  0  0  0  0  0  0  0  0  0
    7.7730   -3.1300   22.1220 C   0  0  0  0  0  0  0  0  0  0  0  0
    7.4360   -2.9760   23.5730 C   0  0  0  0  0  0  0  0  0  0  0  0
    6.0930   -3.5590   23.8340 C   0  0  0  0  0  0  0  0  0  0  0  0
    5.5100   -3.2120   25.1470 C   0  0  0  0  0  0  0  0  0  0  0  0
    4.3470   -2.7270   25.1970 O   0  0  0  0  0  0  0  0  0  0  0  0
    6.1630   -3.3830   26.3820 N   0  0  0  0  0  0  0  0  0  0  0  0
    5.3190   -3.6400   27.5660 C   0  0  1  0  0  0  0  0  0  0  0  0
    4.2980   -2.5970   27.8110 C   0  0  0  0  0  0  0  0  0  0  0  0
    3.1880   -2.9530   28.2900 O   0  0  0  0  0  0  0  0  0  0  0  0
    4.6950   -5.0620   27.6310 C   0  0  0  0  0  0  0  0  0  0  0  0
    5.5040   -5.3080   28.9260 C   0  0  1  0  0  0  0  0  0  0  0  0
    6.5760   -6.3610   28.7800 C   0  0  0  0  0  0  0  0  0  0  0  0
    6.0740   -3.9130   28.7510 C   0  0  0  0  0  0  0  0  0  0  0  0
    6.1490   -5.0490   23.6000 C   0  0  0  0  0  0  0  0  0  0  0  0
    6.6300   -5.3550   22.3180 C   0  0  0  0  0  0  0  0  0  0  0  0
  1  2  1  0
  2  3  2  0
  2  4  1  0
  4  5  1  0
  5  6  1  0
  6  7  1  0
  7  8  1  0
  8  9  2  0
  8 10  1  0
 11 10  1  0
 11 12  1  1
 12 13  1  0
 11 14  1  0
 14 15  1  0
 15 16  1  6
 11 17  1  0
 15 17  1  0
  7 18  1  0
  4 19  1  0
 18 19  1  0
M  END
