piperidine-amides-28998-covalent
     RDKit          3D

 26 28  0  0  0  0  0  0  0  0999 V2000
    7.1130   -3.3520   19.3190 C   0  0  0  0  0  0  0  0  0  0  0  0
    6.4140   -4.1820   20.2870 C   0  0  0  0  0  0  0  0  0  0  0  0
    5.3400   -4.7070   19.9470 O   0  0  0  0  0  0  0  0  0  0  0  0
    7.0030   -4.4210   21.5500 N   0  0  0  0  0  0  0  0  0  0  0  0
    6.6630   -5.6290   22.2230 C   0  0  0  0  0  0  0  0  0  0  0  0
    5.6610   -5.2970   23.2770 C   0  0  0  0  0  0  0  0  0  0  0  0
    6.2890   -4.2650   24.1900 C   0  0  0  0  0  0  0  0  0  0  0  0
    5.2480   -3.8760   25.1930 C   0  0  0  0  0  0  0  0  0  0  0  0
    4.1410   -4.3590   25.0400 O   0  0  0  0  0  0  0  0  0  0  0  0
    5.5490   -3.0010   26.2040 N   0  0  0  0  0  0  0  0  0  0  0  0
    6.7710   -2.4440   26.3900 C   0  0  0  0  0  0  0  0  0  0  0  0
    6.6830   -2.8440   27.7050 C   0  0  1  0  0  0  0  0  0  0  0  0
    6.5680   -2.0820   28.8100 C   0  0  0  0  0  0  0  0  0  0  0  0
    5.8320   -2.8570   29.7740 N   0  0  0  0  0  0  0  0  0  0  0  0
    4.8770   -2.0080   30.3860 C   0  0  0  0  0  0  0  0  0  0  0  0
    3.5380   -2.0320   30.0250 O   0  0  0  0  0  0  0  0  0  0  0  0
    5.2370   -1.2080   31.2870 O   0  0  0  0  0  0  0  0  0  0  0  0
    5.9230   -0.0060   30.9630 C   0  0  0  0  0  0  0  0  0  0  0  0
    5.8230    0.9310   32.1860 C   0  0  0  0  0  0  0  0  0  0  0  0
    5.5510    0.4670   29.7230 C   0  0  0  0  0  0  0  0  0  0  0  0
    7.3750   -0.3040   30.9450 C   0  0  0  0  0  0  0  0  0  0  0  0
    5.6900   -4.2770   29.4110 C   0  0  0  0  0  0  0  0  0  0  0  0
    5.1130   -4.4200   28.1940 C   0  0  0  0  0  0  0  0  0  0  0  0
    5.2220   -3.2340   27.5930 C   0  0  2  0  0  0  0  0  0  0  0  0
    6.7950   -3.0400   23.4850 C   0  0  0  0  0  0  0  0  0  0  0  0
    7.6350   -3.3670   22.2880 C   0  0  0  0  0  0  0  0  0  0  0  0
  1  2  1  0
  2  3  2  0
  2  4  1  0
  4  5  1  0
  5  6  1  0
  6  7  1  0
  7  8  1  0
  8  9  2  0
  8 10  1  0
 10 11  1  0
 12 11  1  6
 12 13  1  0
 13 14  1  0
 14 15  1  0
 15 16  2  0
 15 17  1  0
 18 17  1  0
 18 19  1  0
 18 20  1  0
 18 21  1  0
 14 22  1  0
 22 23  1  0
 10 24  1  0
 12 24  1  0
 24 23  1  6
  7 25  1  0
  4 26  1  0
 25 26  1  0
M  END
