piperidine-amides-12509-covalent
     RDKit          3D

 23 25  0  0  0  0  0  0  0  0999 V2000
    7.1130   -3.3280   19.2910 C   0  0  0  0  0  0  0  0  0  0  0  0
    6.3790   -4.1190   20.3020 C   0  0  0  0  0  0  0  0  0  0  0  0
    5.3210   -4.6580   19.9270 O   0  0  0  0  0  0  0  0  0  0  0  0
    6.8980   -4.2890   21.5950 N   0  0  0  0  0  0  0  0  0  0  0  0
    7.7020   -3.2660   22.1830 C   0  0  0  0  0  0  0  0  0  0  0  0
    7.3570   -2.9890   23.5670 C   0  0  0  0  0  0  0  0  0  0  0  0
    6.1250   -3.6760   24.0080 C   0  0  0  0  0  0  0  0  0  0  0  0
    5.8730   -3.3500   25.4190 C   0  0  0  0  0  0  0  0  0  0  0  0
    4.8280   -3.7580   25.9510 O   0  0  0  0  0  0  0  0  0  0  0  0
    6.7920   -2.5620   26.1220 N   0  0  0  0  0  0  0  0  0  0  0  0
    6.3060   -1.4100   26.8930 C   0  0  0  0  0  0  0  0  0  0  0  0
    5.5930   -0.1820   26.8160 C   0  0  0  0  0  0  0  0  0  0  0  0
    5.5970    0.3430   28.3370 N   0  0  0  0  0  0  0  0  0  0  0  0
    6.2840   -0.5320   29.2700 N   0  0  0  0  0  0  0  0  0  0  0  0
    6.0640    0.2680   30.4440 C   0  0  0  0  0  0  0  0  0  0  0  0
    7.2330    0.7910   30.9210 C   0  0  0  0  0  0  0  0  0  0  0  0
    8.2970   -0.0820   30.9460 C   0  0  0  0  0  0  0  0  0  0  0  0
    6.1780   -0.7800   28.0210 C   0  0  0  0  0  0  0  0  0  0  0  0
    5.4850    0.4200   27.8150 C   0  0  0  0  0  0  0  0  0  0  0  0
    5.8040    1.2070   26.8790 C   0  0  0  0  0  0  0  0  0  0  0  0
    6.1530    1.7100   28.1580 C   0  0  0  0  0  0  0  0  0  0  0  0
    6.0710   -5.1320   23.7380 C   0  0  0  0  0  0  0  0  0  0  0  0
    6.6670   -5.4900   22.3960 C   0  0  0  0  0  0  0  0  0  0  0  0
  1  2  1  0
  2  3  2  0
  2  4  1  0
  4  5  1  0
  5  6  1  0
  6  7  1  0
  7  8  1  0
  8  9  2  0
  8 10  1  0
 10 11  1  0
 11 12  1  0
 12 13  2  0
 13 14  1  0
 14 15  1  0
 15 16  1  0
 16 17  1  0
 11 18  2  0
 14 18  1  0
 18 19  1  0
 19 20  1  0
 19 21  1  0
 20 21  1  0
  7 22  1  0
  4 23  1  0
 22 23  1  0
M  END
