piperidine-amides-4863-covalent
     RDKit          3D

 23 24  0  0  0  0  0  0  0  0999 V2000
    7.1310   -3.2590   19.1190 C   0  0  0  0  0  0  0  0  0  0  0  0
    6.3510   -3.9830   20.1470 C   0  0  0  0  0  0  0  0  0  0  0  0
    5.2310   -4.4030   19.8130 O   0  0  0  0  0  0  0  0  0  0  0  0
    6.8850   -4.2420   21.4120 N   0  0  0  0  0  0  0  0  0  0  0  0
    7.6180   -3.2170   22.0800 C   0  0  0  0  0  0  0  0  0  0  0  0
    7.1740   -2.9230   23.4370 C   0  0  0  0  0  0  0  0  0  0  0  0
    6.4430   -3.9980   24.1460 C   0  0  0  0  0  0  0  0  0  0  0  0
    5.6270   -3.4060   25.2190 C   0  0  0  0  0  0  0  0  0  0  0  0
    4.3870   -3.4420   25.1300 O   0  0  0  0  0  0  0  0  0  0  0  0
    6.2440   -2.8050   26.3130 N   0  0  0  0  0  0  0  0  0  0  0  0
    6.0440   -3.2930   27.6840 C   0  0  0  0  0  0  0  0  0  0  0  0
    6.8940   -2.4880   28.5760 C   0  0  0  0  0  0  0  0  0  0  0  0
    6.3550   -1.5760   29.5820 C   0  0  0  0  0  0  0  0  0  0  0  0
    7.1980   -0.8140   30.3500 C   0  0  0  0  0  0  0  0  0  0  0  0
    6.8260    0.0790   31.3280 C   0  0  0  0  0  0  0  0  0  0  0  0
    5.4940    0.2310   31.5680 C   0  0  0  0  0  0  0  0  0  0  0  0
    5.0280    1.1010   32.5250 F   0  0  0  0  0  0  0  0  0  0  0  0
    4.6150   -0.5090   30.8240 C   0  0  0  0  0  0  0  0  0  0  0  0
    3.3250   -0.2400   31.1840 F   0  0  0  0  0  0  0  0  0  0  0  0
    5.0160   -1.3920   29.8550 C   0  0  0  0  0  0  0  0  0  0  0  0
    3.9640   -2.0460   29.2140 F   0  0  0  0  0  0  0  0  0  0  0  0
    5.6140   -4.8580   23.2360 C   0  0  0  0  0  0  0  0  0  0  0  0
    6.4850   -5.3900   22.1790 C   0  0  0  0  0  0  0  0  0  0  0  0
  1  2  1  0
  2  3  2  0
  2  4  1  0
  4  5  1  0
  5  6  1  0
  6  7  1  0
  7  8  1  0
  8  9  2  0
  8 10  1  0
 10 11  1  0
 11 12  1  0
 12 13  1  0
 13 14  2  0
 14 15  1  0
 15 16  2  0
 16 17  1  0
 16 18  1  0
 18 19  1  0
 13 20  1  0
 18 20  2  0
 20 21  1  0
  7 22  1  0
  4 23  1  0
 22 23  1  0
M  END
