piperidine-amides-2794-covalent
     RDKit          3D

 24 26  0  0  0  0  0  0  0  0999 V2000
    7.1050   -3.2820   19.2580 C   0  0  0  0  0  0  0  0  0  0  0  0
    6.3750   -4.0650   20.2510 C   0  0  0  0  0  0  0  0  0  0  0  0
    5.3390   -4.6500   19.9280 O   0  0  0  0  0  0  0  0  0  0  0  0
    6.8920   -4.1930   21.5900 N   0  0  0  0  0  0  0  0  0  0  0  0
    7.7050   -3.1400   22.1610 C   0  0  0  0  0  0  0  0  0  0  0  0
    7.4410   -2.9930   23.6350 C   0  0  0  0  0  0  0  0  0  0  0  0
    6.0860   -3.6190   23.8990 C   0  0  0  0  0  0  0  0  0  0  0  0
    5.5520   -3.3230   25.2530 C   0  0  0  0  0  0  0  0  0  0  0  0
    4.3420   -3.4580   25.5090 O   0  0  0  0  0  0  0  0  0  0  0  0
    6.4000   -2.8800   26.2880 N   0  0  0  0  0  0  0  0  0  0  0  0
    5.7400   -2.5230   27.5240 C   0  0  2  0  0  0  0  0  0  0  0  0
    5.9890   -1.1150   27.7940 C   0  0  0  0  0  0  0  0  0  0  0  0
    6.4010   -1.5690   28.9710 C   0  0  1  0  0  0  0  0  0  0  0  0
    7.6800   -1.2880   29.4540 C   0  0  0  0  0  0  0  0  0  0  0  0
    7.8390   -0.3390   30.4850 N   0  0  0  0  0  0  0  0  0  0  0  0
    5.4590   -0.8810   30.0000 C   0  0  0  0  0  0  0  0  0  0  0  0
    5.4820    0.5570   30.2030 C   0  0  0  0  0  0  0  0  0  0  0  0
    4.6740    1.2040   31.0990 C   0  0  0  0  0  0  0  0  0  0  0  0
    3.7880    0.4700   31.8530 C   0  0  0  0  0  0  0  0  0  0  0  0
    3.6850   -0.9140   31.7340 C   0  0  0  0  0  0  0  0  0  0  0  0
    4.5560   -1.6110   30.7680 C   0  0  0  0  0  0  0  0  0  0  0  0
    6.2550   -2.9780   28.8120 C   0  0  0  0  0  0  0  0  0  0  0  0
    6.1510   -5.1050   23.6980 C   0  0  0  0  0  0  0  0  0  0  0  0
    6.6000   -5.3880   22.3070 C   0  0  0  0  0  0  0  0  0  0  0  0
  1  2  1  0
  2  3  2  0
  2  4  1  0
  4  5  1  0
  5  6  1  0
  6  7  1  0
  7  8  1  0
  8  9  2  0
  8 10  1  0
 11 10  1  6
 11 12  1  0
 12 13  1  0
 13 14  1  1
 14 15  3  0
 13 16  1  0
 16 17  2  0
 17 18  1  0
 18 19  2  0
 19 20  1  0
 16 21  1  0
 20 21  2  0
 11 22  1  0
 13 22  1  0
  7 23  1  0
  4 24  1  0
 23 24  1  0
M  END
