piperidine-amides-10805-covalent
     RDKit          3D

 22 24  0  0  0  0  0  0  0  0999 V2000
    7.1220   -3.2750   19.2050 C   0  0  0  0  0  0  0  0  0  0  0  0
    6.3780   -4.0240   20.2220 C   0  0  0  0  0  0  0  0  0  0  0  0
    5.3200   -4.5900   19.9030 O   0  0  0  0  0  0  0  0  0  0  0  0
    6.8660   -4.1530   21.5310 N   0  0  0  0  0  0  0  0  0  0  0  0
    7.7400   -3.1700   22.1330 C   0  0  0  0  0  0  0  0  0  0  0  0
    7.0120   -2.6680   23.3450 C   0  0  0  0  0  0  0  0  0  0  0  0
    6.5560   -3.7950   24.2150 C   0  0  0  0  0  0  0  0  0  0  0  0
    5.8150   -3.3300   25.4130 C   0  0  0  0  0  0  0  0  0  0  0  0
    4.5510   -3.2440   25.3920 O   0  0  0  0  0  0  0  0  0  0  0  0
    6.4600   -2.9520   26.6110 N   0  0  0  0  0  0  0  0  0  0  0  0
    6.1700   -3.6560   27.8860 C   0  0  0  0  0  0  0  0  0  0  0  0
    5.6410   -5.0030   27.5730 C   0  0  0  0  0  0  0  0  0  0  0  0
    5.5680   -5.7340   28.6970 N   0  0  0  0  0  0  0  0  0  0  0  0
    6.4690   -6.6690   29.2560 C   0  0  0  0  0  0  0  0  0  0  0  0
    5.8520   -7.1570   30.4950 C   0  0  0  0  0  0  0  0  0  0  0  0
    4.5770   -6.4080   30.5350 C   0  0  0  0  0  0  0  0  0  0  0  0
    3.7290   -6.7160   31.7160 C   0  0  0  0  0  0  0  0  0  0  0  0
    2.6030   -6.1420   31.8230 C   0  0  0  0  0  0  0  0  0  0  0  0
    3.3310   -5.2650   32.4430 C   0  0  0  0  0  0  0  0  0  0  0  0
    4.4490   -5.5820   29.4600 N   0  0  0  0  0  0  0  0  0  0  0  0
    5.6710   -4.8170   23.4800 C   0  0  0  0  0  0  0  0  0  0  0  0
    6.4910   -5.3210   22.2890 C   0  0  0  0  0  0  0  0  0  0  0  0
  1  2  1  0
  2  3  2  0
  2  4  1  0
  4  5  1  0
  5  6  1  0
  6  7  1  0
  7  8  1  0
  8  9  2  0
  8 10  1  0
 10 11  1  0
 11 12  1  0
 12 13  1  0
 13 14  1  0
 14 15  2  0
 15 16  1  0
 16 17  1  0
 17 18  1  0
 17 19  1  0
 18 19  1  0
 13 20  1  0
 16 20  2  0
  7 21  1  0
  4 22  1  0
 21 22  1  0
M  END
