piperidine-amides-2105-covalent
     RDKit          3D

 22 24  0  0  0  0  0  0  0  0999 V2000
    7.0690   -3.3160   19.2660 C   0  0  0  0  0  0  0  0  0  0  0  0
    6.3680   -4.1440   20.2790 C   0  0  0  0  0  0  0  0  0  0  0  0
    5.3250   -4.6890   19.9350 O   0  0  0  0  0  0  0  0  0  0  0  0
    6.9270   -4.3190   21.5430 N   0  0  0  0  0  0  0  0  0  0  0  0
    7.7060   -3.2860   22.1730 C   0  0  0  0  0  0  0  0  0  0  0  0
    6.9660   -2.7870   23.3720 C   0  0  0  0  0  0  0  0  0  0  0  0
    6.4580   -3.9770   24.1850 C   0  0  0  0  0  0  0  0  0  0  0  0
    5.7130   -3.4210   25.3260 C   0  0  0  0  0  0  0  0  0  0  0  0
    4.4790   -3.3510   25.2750 O   0  0  0  0  0  0  0  0  0  0  0  0
    6.3910   -2.9620   26.4630 N   0  0  0  0  0  0  0  0  0  0  0  0
    5.8210   -1.8540   27.1830 C   0  0  2  0  0  0  0  0  0  0  0  0
    6.3990   -0.7050   26.8060 C   0  0  0  0  0  0  0  0  0  0  0  0
    6.7660   -1.0030   28.1390 C   0  0  1  0  0  0  0  0  0  0  0  0
    5.8710   -1.3130   29.1100 C   0  0  0  0  0  0  0  0  0  0  0  0
    5.3670   -2.5640   29.1790 C   0  0  0  0  0  0  0  0  0  0  0  0
    4.3680   -3.1860   30.1210 C   0  0  0  0  0  0  0  0  0  0  0  0
    3.8940   -2.1760   31.1390 C   0  0  0  0  0  0  0  0  0  0  0  0
    2.9600   -2.5770   32.0990 F   0  0  0  0  0  0  0  0  0  0  0  0
    4.4270   -0.7490   31.1210 C   0  0  0  0  0  0  0  0  0  0  0  0
    5.4230   -0.4180   30.0510 C   0  0  0  0  0  0  0  0  0  0  0  0
    5.6470   -4.9600   23.3880 C   0  0  0  0  0  0  0  0  0  0  0  0
    6.5670   -5.4880   22.3060 C   0  0  0  0  0  0  0  0  0  0  0  0
  1  2  1  0
  2  3  2  0
  2  4  1  0
  4  5  1  0
  5  6  1  0
  6  7  1  0
  7  8  1  0
  8  9  2  0
  8 10  1  0
 11 10  1  6
 11 12  1  0
 11 13  1  0
 12 13  1  0
 13 14  1  1
 14 15  2  0
 15 16  1  0
 16 17  2  0
 17 18  1  0
 17 19  1  0
 14 20  1  0
 19 20  2  0
  7 21  1  0
  4 22  1  0
 21 22  1  0
M  END
