piperidine-amides-35612-covalent
     RDKit          3D

 37 41  0  0  0  0  0  0  0  0999 V2000
    7.0030   -3.3140   19.3090 C   0  0  0  0  0  0  0  0  0  0  0  0
    6.3660   -4.1680   20.3450 C   0  0  0  0  0  0  0  0  0  0  0  0
    5.3980   -4.8350   19.9820 O   0  0  0  0  0  0  0  0  0  0  0  0
    6.8780   -4.2310   21.6510 N   0  0  0  0  0  0  0  0  0  0  0  0
    6.6720   -5.3970   22.4620 C   0  0  0  0  0  0  0  0  0  0  0  0
    5.8460   -4.9950   23.6470 C   0  0  0  0  0  0  0  0  0  0  0  0
    6.2540   -3.5780   24.0790 C   0  0  0  0  0  0  0  0  0  0  0  0
    6.0990   -3.4980   25.5500 C   0  0  0  0  0  0  0  0  0  0  0  0
    6.5070   -4.4220   26.2390 O   0  0  0  0  0  0  0  0  0  0  0  0
    5.4770   -2.4150   26.2040 N   0  0  0  0  0  0  0  0  0  0  0  0
    4.1180   -2.6460   26.6730 C   0  0  0  0  0  0  0  0  0  0  0  0
    3.0530   -1.8290   26.0270 C   0  0  0  0  0  0  0  0  0  0  0  0
    1.7510   -1.9590   26.4000 C   0  0  0  0  0  0  0  0  0  0  0  0
    1.4160   -2.8560   27.3790 C   0  0  0  0  0  0  0  0  0  0  0  0
    0.0590   -3.1210   27.9060 N   0  0  0  0  0  0  0  0  0  0  0  0
    0.2180   -4.1270   28.9090 C   0  0  0  0  0  0  0  0  0  0  0  0
    1.6700   -4.3860   28.9010 C   0  0  0  0  0  0  0  0  0  0  0  0
    1.9600   -5.4390   29.9360 C   0  0  0  0  0  0  0  0  0  0  0  0
    0.6730   -6.2490   30.1300 C   0  0  0  0  0  0  0  0  0  0  0  0
    0.8360   -7.3340   31.1590 C   0  0  0  0  0  0  0  0  0  0  0  0
    2.1450   -7.4840   31.8280 C   0  0  0  0  0  0  0  0  0  0  0  0
    2.3080   -8.7370   33.0190 S   0  0  0  0  0  0  0  0  0  0  0  0
    3.9990   -9.0510   33.3480 N   0  0  0  0  0  0  0  0  0  0  0  0
    1.6340   -9.9810   32.5460 O   0  0  0  0  0  0  0  0  0  0  0  0
    1.7000   -8.2680   34.3100 O   0  0  0  0  0  0  0  0  0  0  0  0
    3.3570   -6.6470   31.5700 C   0  0  0  0  0  0  0  0  0  0  0  0
    3.2010   -5.5760   30.5580 C   0  0  0  0  0  0  0  0  0  0  0  0
    2.4060   -3.6430   28.0010 N   0  0  0  0  0  0  0  0  0  0  0  0
    3.6860   -3.5130   27.6330 N   0  0  0  0  0  0  0  0  0  0  0  0
    6.0710   -1.3950   27.0740 C   0  0  0  0  0  0  0  0  0  0  0  0
    7.3290   -1.6170   27.6260 C   0  0  0  0  0  0  0  0  0  0  0  0
    7.7110   -0.6470   28.7220 C   0  0  0  0  0  0  0  0  0  0  0  0
    7.0200    0.5130   28.5790 O   0  0  0  0  0  0  0  0  0  0  0  0
    6.1980    0.7830   27.4870 C   0  0  0  0  0  0  0  0  0  0  0  0
    6.2000   -0.2220   26.3330 C   0  0  0  0  0  0  0  0  0  0  0  0
    7.6330   -3.1350   23.6610 C   0  0  0  0  0  0  0  0  0  0  0  0
    7.6930   -3.1190   22.1230 C   0  0  0  0  0  0  0  0  0  0  0  0
  1  2  1  0
  2  3  2  0
  2  4  1  0
  4  5  1  0
  5  6  1  0
  6  7  1  0
  7  8  1  0
  8  9  2  0
  8 10  1  0
 10 11  1  0
 11 12  1  0
 12 13  2  0
 13 14  1  0
 14 15  2  0
 15 16  1  0
 16 17  2  0
 17 18  1  0
 18 19  2  0
 19 20  1  0
 20 21  2  0
 21 22  1  0
 22 23  1  0
 22 24  2  0
 22 25  2  0
 21 26  1  0
 18 27  1  0
 26 27  2  0
 14 28  1  0
 17 28  1  0
 11 29  2  0
 28 29  1  0
 10 30  1  0
 30 31  1  0
 31 32  1  0
 32 33  1  0
 33 34  1  0
 30 35  1  0
 34 35  1  0
  7 36  1  0
  4 37  1  0
 36 37  1  0
M  END
