piperidine-amides-14758-covalent
     RDKit          3D

 22 24  0  0  0  0  0  0  0  0999 V2000
    7.0640   -3.3710   19.3650 C   0  0  0  0  0  0  0  0  0  0  0  0
    6.3670   -4.1860   20.3580 C   0  0  0  0  0  0  0  0  0  0  0  0
    5.3730   -4.8330   19.9800 O   0  0  0  0  0  0  0  0  0  0  0  0
    6.8530   -4.2620   21.6940 N   0  0  0  0  0  0  0  0  0  0  0  0
    7.6700   -3.2070   22.2260 C   0  0  0  0  0  0  0  0  0  0  0  0
    6.9330   -2.5400   23.3440 C   0  0  0  0  0  0  0  0  0  0  0  0
    6.5290   -3.6340   24.2980 C   0  0  0  0  0  0  0  0  0  0  0  0
    5.5200   -3.0980   25.2840 C   0  0  0  0  0  0  0  0  0  0  0  0
    4.3930   -2.9320   24.8290 O   0  0  0  0  0  0  0  0  0  0  0  0
    5.8670   -2.8350   26.6210 N   0  0  0  0  0  0  0  0  0  0  0  0
    6.7430   -1.7770   27.0230 C   0  0  2  0  0  0  0  0  0  0  0  0
    7.1740   -1.8820   28.3590 C   0  0  0  0  0  0  0  0  0  0  0  0
    6.6710   -1.0780   29.0060 O   0  0  0  0  0  0  0  0  0  0  0  0
    6.1780   -0.2610   28.1170 C   0  0  0  0  0  0  0  0  0  0  0  0
    5.6720    0.8830   28.1270 C   0  0  0  0  0  0  0  0  0  0  0  0
    6.0450    0.5770   29.4980 C   0  0  0  0  0  0  0  0  0  0  0  0
    5.4180    1.6350   28.6480 C   0  0  0  0  0  0  0  0  0  0  0  0
    5.4150    1.0780   27.1450 C   0  0  0  0  0  0  0  0  0  0  0  0
    4.7380    2.0690   25.8680 Cl  0  0  0  0  0  0  0  0  0  0  0  0
    6.0430   -0.3790   26.8100 C   0  0  0  0  0  0  0  0  0  0  0  0
    5.9360   -4.8550   23.7020 C   0  0  0  0  0  0  0  0  0  0  0  0
    6.5600   -5.3640   22.5780 C   0  0  0  0  0  0  0  0  0  0  0  0
  1  2  1  0
  2  3  2  0
  2  4  1  0
  4  5  1  0
  5  6  1  0
  6  7  1  0
  7  8  1  0
  8  9  2  0
  8 10  1  0
 11 10  1  1
 11 12  1  0
 12 13  1  0
 13 14  1  0
 14 15  1  0
 15 16  2  0
 16 17  1  0
 17 18  2  0
 18 19  1  0
 11 20  1  0
 14 20  2  0
 18 20  1  0
  7 21  1  0
  4 22  1  0
 21 22  1  0
M  END
