piperidine-amides-29299-covalent
     RDKit          3D

 26 28  0  0  0  0  0  0  0  0999 V2000
    7.0100   -3.3450   19.4110 C   0  0  0  0  0  0  0  0  0  0  0  0
    6.3800   -4.2130   20.4050 C   0  0  0  0  0  0  0  0  0  0  0  0
    5.4320   -4.9180   20.0090 O   0  0  0  0  0  0  0  0  0  0  0  0
    6.8600   -4.2780   21.7590 N   0  0  0  0  0  0  0  0  0  0  0  0
    6.6130   -5.4970   22.4870 C   0  0  0  0  0  0  0  0  0  0  0  0
    6.1750   -5.2080   23.9090 C   0  0  0  0  0  0  0  0  0  0  0  0
    5.9240   -3.7200   24.0240 C   0  0  0  0  0  0  0  0  0  0  0  0
    5.0760   -3.3670   25.2520 C   0  0  0  0  0  0  0  0  0  0  0  0
    3.9020   -3.6580   25.0980 O   0  0  0  0  0  0  0  0  0  0  0  0
    5.5100   -2.7690   26.4540 N   0  0  0  0  0  0  0  0  0  0  0  0
    4.5800   -2.4700   27.4400 C   0  0  0  0  0  0  0  0  0  0  0  0
    4.3560   -3.5640   28.2630 C   0  0  0  0  0  0  0  0  0  0  0  0
    5.3760   -4.1110   28.9880 C   0  0  0  0  0  0  0  0  0  0  0  0
    4.9380   -5.0460   29.9030 C   0  0  0  0  0  0  0  0  0  0  0  0
    5.9130   -6.1340   30.0870 C   0  0  0  0  0  0  0  0  0  0  0  0
    5.5170   -7.2200   31.1130 C   0  0  0  0  0  0  0  0  0  0  0  0
    6.4210   -8.2160   31.2970 F   0  0  0  0  0  0  0  0  0  0  0  0
    4.2260   -7.1710   31.8590 C   0  0  0  0  0  0  0  0  0  0  0  0
    4.0200   -8.2060   32.7300 F   0  0  0  0  0  0  0  0  0  0  0  0
    3.2790   -6.0290   31.6060 C   0  0  0  0  0  0  0  0  0  0  0  0
    2.1060   -6.0360   32.3150 F   0  0  0  0  0  0  0  0  0  0  0  0
    3.7260   -4.9670   30.5760 C   0  0  0  0  0  0  0  0  0  0  0  0
    6.1030   -4.5190   27.7180 C   0  0  0  0  0  0  0  0  0  0  0  0
    6.5670   -3.3430   27.0900 C   0  0  0  0  0  0  0  0  0  0  0  0
    7.1720   -2.9420   23.8020 C   0  0  0  0  0  0  0  0  0  0  0  0
    7.6220   -3.2080   22.3790 C   0  0  0  0  0  0  0  0  0  0  0  0
  1  2  1  0
  2  3  2  0
  2  4  1  0
  4  5  1  0
  5  6  1  0
  6  7  1  0
  7  8  1  0
  8  9  2  0
  8 10  1  0
 10 11  1  0
 11 12  1  0
 12 13  1  0
 13 14  1  0
 14 15  2  0
 15 16  1  0
 16 17  1  0
 16 18  2  0
 18 19  1  0
 18 20  1  0
 20 21  1  0
 14 22  1  0
 20 22  2  0
 13 23  1  0
 10 24  1  0
 23 24  1  0
  7 25  1  0
  4 26  1  0
 25 26  1  0
M  END
