piperidine-amides-8900-covalent
     RDKit          3D

 22 23  0  0  0  0  0  0  0  0999 V2000
    7.0870   -3.3040   19.2690 C   0  0  0  0  0  0  0  0  0  0  0  0
    6.3500   -4.0710   20.2670 C   0  0  0  0  0  0  0  0  0  0  0  0
    5.2900   -4.6150   19.9120 O   0  0  0  0  0  0  0  0  0  0  0  0
    6.8630   -4.2220   21.5820 N   0  0  0  0  0  0  0  0  0  0  0  0
    7.6470   -3.1770   22.1760 C   0  0  0  0  0  0  0  0  0  0  0  0
    6.9550   -2.6670   23.4030 C   0  0  0  0  0  0  0  0  0  0  0  0
    6.4990   -3.8760   24.1860 C   0  0  0  0  0  0  0  0  0  0  0  0
    5.6480   -3.4410   25.3520 C   0  0  0  0  0  0  0  0  0  0  0  0
    4.5380   -2.9990   25.0600 O   0  0  0  0  0  0  0  0  0  0  0  0
    6.1390   -3.5550   26.6560 N   0  0  0  0  0  0  0  0  0  0  0  0
    6.1050   -4.7860   27.3870 C   0  0  0  0  0  0  0  0  0  0  0  0
    4.9420   -5.0700   28.0610 C   0  0  0  0  0  0  0  0  0  0  0  0
    4.8460   -6.2510   28.7640 C   0  0  0  0  0  0  0  0  0  0  0  0
    4.2230   -6.2610   29.9970 C   0  0  0  0  0  0  0  0  0  0  0  0
    3.9410   -7.6420   30.4160 C   0  0  0  0  0  0  0  0  0  0  0  0
    3.2490   -7.9900   31.7520 C   0  0  0  0  0  0  0  0  0  0  0  0
    2.8580   -6.8460   32.6460 C   0  0  0  0  0  0  0  0  0  0  0  0
    2.0660   -7.1350   34.1790 Cl  0  0  0  0  0  0  0  0  0  0  0  0
    3.1780   -5.4400   32.1520 C   0  0  0  0  0  0  0  0  0  0  0  0
    3.8750   -5.1940   30.7930 C   0  0  0  0  0  0  0  0  0  0  0  0
    5.6140   -4.7430   23.3110 C   0  0  0  0  0  0  0  0  0  0  0  0
    6.4690   -5.3340   22.4050 C   0  0  0  0  0  0  0  0  0  0  0  0
  1  2  1  0
  2  3  2  0
  2  4  1  0
  4  5  1  0
  5  6  1  0
  6  7  1  0
  7  8  1  0
  8  9  2  0
  8 10  1  0
 10 11  1  0
 11 12  1  0
 12 13  1  0
 13 14  1  0
 14 15  2  0
 15 16  1  0
 16 17  2  0
 17 18  1  0
 17 19  1  0
 14 20  1  0
 19 20  2  0
  7 21  1  0
  4 22  1  0
 21 22  1  0
M  END
