piperidine-amides-15111-covalent
     RDKit          3D

 21 22  0  0  0  0  0  0  0  0999 V2000
    7.0660   -3.3470   19.3570 C   0  0  0  0  0  0  0  0  0  0  0  0
    6.3510   -4.1430   20.3510 C   0  0  0  0  0  0  0  0  0  0  0  0
    5.3600   -4.7880   19.9670 O   0  0  0  0  0  0  0  0  0  0  0  0
    6.8010   -4.2130   21.6980 N   0  0  0  0  0  0  0  0  0  0  0  0
    6.6850   -5.4550   22.4080 C   0  0  0  0  0  0  0  0  0  0  0  0
    6.1710   -5.1900   23.7910 C   0  0  0  0  0  0  0  0  0  0  0  0
    6.1490   -3.6870   23.9440 C   0  0  0  0  0  0  0  0  0  0  0  0
    5.7760   -3.3010   25.3450 C   0  0  0  0  0  0  0  0  0  0  0  0
    4.6960   -3.7350   25.7260 O   0  0  0  0  0  0  0  0  0  0  0  0
    6.6050   -2.4810   26.1160 N   0  0  0  0  0  0  0  0  0  0  0  0
    5.9930   -1.6680   27.1170 C   0  0  0  0  0  0  0  0  0  0  0  0
    5.7360   -0.2850   26.8360 C   0  0  0  0  0  0  0  0  0  0  0  0
    6.4870    0.0560   28.0670 N   0  0  0  0  0  0  0  0  0  0  0  0
    6.1750    0.8710   29.1850 C   0  0  0  0  0  0  0  0  0  0  0  0
    5.0980    0.5430   29.9980 C   0  0  0  0  0  0  0  0  0  0  0  0
    4.1010    1.4680   30.1930 F   0  0  0  0  0  0  0  0  0  0  0  0
    4.5680   -0.6760   29.7470 F   0  0  0  0  0  0  0  0  0  0  0  0
    5.6750    0.4630   31.2890 F   0  0  0  0  0  0  0  0  0  0  0  0
    6.8730   -1.3080   28.2630 C   0  0  0  0  0  0  0  0  0  0  0  0
    7.4490   -3.0380   23.6090 C   0  0  0  0  0  0  0  0  0  0  0  0
    7.6900   -3.1140   22.1490 C   0  0  0  0  0  0  0  0  0  0  0  0
  1  2  1  0
  2  3  2  0
  2  4  1  0
  4  5  1  0
  5  6  1  0
  6  7  1  0
  7  8  1  0
  8  9  2  0
  8 10  1  0
 10 11  1  0
 11 12  1  0
 12 13  1  0
 13 14  1  0
 14 15  1  0
 15 16  1  0
 15 17  1  0
 15 18  1  0
 11 19  1  0
 13 19  1  0
  7 20  1  0
  4 21  1  0
 20 21  1  0
M  END
