piperidine-amides-5157-covalent
     RDKit          3D

 22 23  0  0  0  0  0  0  0  0999 V2000
    7.0970   -3.2710   19.1520 C   0  0  0  0  0  0  0  0  0  0  0  0
    6.3490   -4.0040   20.2010 C   0  0  0  0  0  0  0  0  0  0  0  0
    5.2590   -4.4980   19.8570 O   0  0  0  0  0  0  0  0  0  0  0  0
    6.8680   -4.1860   21.4900 N   0  0  0  0  0  0  0  0  0  0  0  0
    7.5920   -3.1350   22.1340 C   0  0  0  0  0  0  0  0  0  0  0  0
    7.1140   -2.7900   23.4750 C   0  0  0  0  0  0  0  0  0  0  0  0
    6.4600   -3.8850   24.2170 C   0  0  0  0  0  0  0  0  0  0  0  0
    5.6580   -3.3380   25.3430 C   0  0  0  0  0  0  0  0  0  0  0  0
    4.6130   -2.7240   25.0650 O   0  0  0  0  0  0  0  0  0  0  0  0
    6.0460   -3.5010   26.6880 N   0  0  0  0  0  0  0  0  0  0  0  0
    6.0880   -4.8390   27.3210 C   0  0  0  0  0  0  0  0  0  0  0  0
    4.8700   -5.1980   28.0400 C   0  0  2  0  0  0  0  0  0  0  0  0
    4.6640   -4.5890   29.3500 C   0  0  0  0  0  0  0  0  0  0  0  0
    4.7130   -6.0940   29.1790 C   0  0  0  0  0  0  0  0  0  0  0  0
    5.7610   -6.3830   30.0210 C   0  0  0  0  0  0  0  0  0  0  0  0
    5.5670   -7.2250   31.0840 C   0  0  0  0  0  0  0  0  0  0  0  0
    4.3370   -7.7820   31.3140 C   0  0  0  0  0  0  0  0  0  0  0  0
    3.2980   -7.5070   30.4800 C   0  0  0  0  0  0  0  0  0  0  0  0
    2.0080   -8.0150   30.5980 C   0  0  0  0  0  0  0  0  0  0  0  0
    3.4920   -6.6660   29.4200 C   0  0  0  0  0  0  0  0  0  0  0  0
    5.6180   -4.7940   23.3920 C   0  0  0  0  0  0  0  0  0  0  0  0
    6.4730   -5.3220   22.2790 C   0  0  0  0  0  0  0  0  0  0  0  0
  1  2  1  0
  2  3  2  0
  2  4  1  0
  4  5  1  0
  5  6  1  0
  6  7  1  0
  7  8  1  0
  8  9  2  0
  8 10  1  0
 10 11  1  0
 11 12  1  0
 12 13  1  1
 12 14  1  0
 14 15  2  0
 15 16  1  0
 16 17  2  0
 17 18  1  0
 18 19  1  0
 14 20  1  0
 18 20  2  0
  7 21  1  0
  4 22  1  0
 21 22  1  0
M  END
