piperidine-amides-29291-covalent
     RDKit          3D

 22 24  0  0  0  0  0  0  0  0999 V2000
    7.0490   -3.3780   19.4370 C   0  0  0  0  0  0  0  0  0  0  0  0
    6.3650   -4.2360   20.3990 C   0  0  0  0  0  0  0  0  0  0  0  0
    5.3810   -4.8830   19.9930 O   0  0  0  0  0  0  0  0  0  0  0  0
    6.8440   -4.3560   21.7350 N   0  0  0  0  0  0  0  0  0  0  0  0
    6.4950   -5.5040   22.5140 C   0  0  0  0  0  0  0  0  0  0  0  0
    5.6160   -5.0750   23.6600 C   0  0  0  0  0  0  0  0  0  0  0  0
    6.2580   -3.8580   24.3040 C   0  0  0  0  0  0  0  0  0  0  0  0
    5.2920   -3.2290   25.3090 C   0  0  0  0  0  0  0  0  0  0  0  0
    4.6290   -2.2930   24.8920 O   0  0  0  0  0  0  0  0  0  0  0  0
    5.2020   -3.7380   26.6250 N   0  0  0  0  0  0  0  0  0  0  0  0
    6.2160   -4.5590   26.9920 C   0  0  0  0  0  0  0  0  0  0  0  0
    6.0900   -5.6450   27.8440 C   0  0  0  0  0  0  0  0  0  0  0  0
    5.9920   -5.3330   29.1480 C   0  0  0  0  0  0  0  0  0  0  0  0
    4.6760   -4.9040   29.4360 N   0  0  0  0  0  0  0  0  0  0  0  0
    3.7760   -5.4920   30.3240 C   0  0  0  0  0  0  0  0  0  0  0  0
    2.5190   -4.7310   30.3190 C   0  0  0  0  0  0  0  0  0  0  0  0
    0.9680   -5.1300   31.3740 Br  0  0  0  0  0  0  0  0  0  0  0  0
    2.7830   -3.5990   29.2960 C   0  0  0  0  0  0  0  0  0  0  0  0
    4.1800   -3.7390   28.7430 C   0  0  0  0  0  0  0  0  0  0  0  0
    4.8550   -2.8650   27.7170 C   0  0  0  0  0  0  0  0  0  0  0  0
    6.7220   -2.8050   23.3760 C   0  0  0  0  0  0  0  0  0  0  0  0
    7.5830   -3.3140   22.4170 C   0  0  0  0  0  0  0  0  0  0  0  0
  1  2  1  0
  2  3  2  0
  2  4  1  0
  4  5  1  0
  5  6  1  0
  6  7  1  0
  7  8  1  0
  8  9  2  0
  8 10  1  0
 10 11  1  0
 11 12  1  0
 12 13  1  0
 13 14  1  0
 14 15  1  0
 15 16  2  0
 16 17  1  0
 16 18  1  0
 14 19  1  0
 18 19  2  0
 10 20  1  0
 19 20  1  0
  7 21  1  0
  4 22  1  0
 21 22  1  0
M  END
