piperidine-amides-4107-covalent
     RDKit          3D

 28 30  0  0  0  0  0  0  0  0999 V2000
    7.1980   -3.2780   19.1570 C   0  0  0  0  0  0  0  0  0  0  0  0
    6.3920   -3.9510   20.1820 C   0  0  0  0  0  0  0  0  0  0  0  0
    5.2780   -4.4080   19.8350 O   0  0  0  0  0  0  0  0  0  0  0  0
    6.9010   -4.1230   21.4850 N   0  0  0  0  0  0  0  0  0  0  0  0
    6.1920   -4.9990   22.3250 C   0  0  0  0  0  0  0  0  0  0  0  0
    5.4070   -4.3090   23.3450 C   0  0  0  0  0  0  0  0  0  0  0  0
    5.8920   -2.9620   23.7580 C   0  0  0  0  0  0  0  0  0  0  0  0
    5.4610   -2.6180   25.1540 C   0  0  0  0  0  0  0  0  0  0  0  0
    4.2400   -2.5040   25.3410 O   0  0  0  0  0  0  0  0  0  0  0  0
    6.3220   -2.4100   26.2700 N   0  0  0  0  0  0  0  0  0  0  0  0
    5.9250   -2.6500   27.6180 C   0  0  0  0  0  0  0  0  0  0  0  0
    4.6980   -3.4280   27.8120 C   0  0  0  0  0  0  0  0  0  0  0  0
    5.0780   -4.5240   26.8350 C   0  0  0  0  0  0  0  0  0  0  0  0
    6.1700   -4.7960   26.0820 C   0  0  0  0  0  0  0  0  0  0  0  0
    6.0610   -6.0510   25.2060 C   0  0  0  0  0  0  0  0  0  0  0  0
    4.7260   -6.8040   25.3360 C   0  0  0  0  0  0  0  0  0  0  0  0
    4.8780   -7.8410   24.4690 O   0  0  0  0  0  0  0  0  0  0  0  0
    5.7510   -7.3690   23.5440 C   0  0  0  0  0  0  0  0  0  0  0  0
    7.0550   -7.9630   23.1210 C   0  0  0  0  0  0  0  0  0  0  0  0
    3.5990   -6.4100   26.2150 C   0  0  0  0  0  0  0  0  0  0  0  0
    3.7740   -5.1750   27.0320 C   0  0  0  0  0  0  0  0  0  0  0  0
    4.5930   -3.9860   29.2270 C   0  0  0  0  0  0  0  0  0  0  0  0
    3.3550   -4.4150   29.7090 C   0  0  0  0  0  0  0  0  0  0  0  0
    2.3340   -3.9670   29.1940 O   0  0  0  0  0  0  0  0  0  0  0  0
    2.5130   -2.6780   28.7170 C   0  0  0  0  0  0  0  0  0  0  0  0
    3.4730   -2.7660   27.5450 C   0  0  0  0  0  0  0  0  0  0  0  0
    7.3420   -2.8060   23.5030 C   0  0  0  0  0  0  0  0  0  0  0  0
    7.6660   -3.0640   22.0520 C   0  0  0  0  0  0  0  0  0  0  0  0
  1  2  1  0
  2  3  2  0
  2  4  1  0
  4  5  1  0
  5  6  1  0
  6  7  1  0
  7  8  1  0
  8  9  2  0
  8 10  1  0
 10 11  1  0
 12 11  1  0
 12 13  1  0
 13 14  2  0
 14 15  1  0
 15 16  2  0
 16 17  1  0
 17 18  1  0
 18 19  1  0
 16 20  1  0
 13 21  1  0
 20 21  2  0
 12 22  1  0
 22 23  1  0
 23 24  1  0
 24 25  1  0
 12 26  1  0
 25 26  1  0
  7 27  1  0
  4 28  1  0
 27 28  1  0
M  END
