piperidine-amides-1876-covalent
     RDKit          3D

 17 17  0  0  0  0  0  0  0  0999 V2000
    7.0530   -3.2720   19.2900 C   0  0  0  0  0  0  0  0  0  0  0  0
    6.3150   -4.0700   20.3140 C   0  0  0  0  0  0  0  0  0  0  0  0
    5.3100   -4.6630   19.9250 O   0  0  0  0  0  0  0  0  0  0  0  0
    6.7730   -4.1630   21.6430 N   0  0  0  0  0  0  0  0  0  0  0  0
    7.6190   -3.1390   22.2060 C   0  0  0  0  0  0  0  0  0  0  0  0
    7.3480   -3.0050   23.6760 C   0  0  0  0  0  0  0  0  0  0  0  0
    6.0600   -3.7650   24.0020 C   0  0  0  0  0  0  0  0  0  0  0  0
    5.5820   -3.3970   25.3630 C   0  0  0  0  0  0  0  0  0  0  0  0
    4.5310   -2.7500   25.4550 O   0  0  0  0  0  0  0  0  0  0  0  0
    6.2620   -3.7490   26.5560 N   0  0  0  0  0  0  0  0  0  0  0  0
    6.0840   -5.0760   27.1450 C   0  0  2  0  0  0  0  0  0  0  0  0
    4.6570   -5.4690   27.0550 C   0  0  0  0  0  0  0  0  0  0  0  0
    4.2900   -6.7010   26.5820 C   0  0  0  0  0  0  0  0  0  0  0  0
    6.5810   -5.0660   28.5660 C   0  0  0  0  0  0  0  0  0  0  0  0
    7.0780   -6.2810   29.0110 O   0  0  0  0  0  0  0  0  0  0  0  0
    6.2950   -5.2580   23.7720 C   0  0  0  0  0  0  0  0  0  0  0  0
    6.5350   -5.4500   22.2810 C   0  0  0  0  0  0  0  0  0  0  0  0
  1  2  1  0
  2  3  2  0
  2  4  1  0
  4  5  1  0
  5  6  1  0
  6  7  1  0
  7  8  1  0
  8  9  2  0
  8 10  1  0
 10 11  1  0
 11 12  1  1
 12 13  1  0
 11 14  1  0
 14 15  1  0
  7 16  1  0
  4 17  1  0
 16 17  1  0
M  END
