piperidine-amides-19241-covalent
     RDKit          3D

 22 23  0  0  0  0  0  0  0  0999 V2000
    7.0080   -3.3690   19.1770 C   0  0  0  0  0  0  0  0  0  0  0  0
    6.2670   -4.0740   20.2050 C   0  0  0  0  0  0  0  0  0  0  0  0
    5.1890   -4.6360   19.8850 O   0  0  0  0  0  0  0  0  0  0  0  0
    6.7200   -4.2040   21.5200 N   0  0  0  0  0  0  0  0  0  0  0  0
    6.5090   -5.4780   22.2480 C   0  0  0  0  0  0  0  0  0  0  0  0
    5.7470   -4.9720   23.5410 C   0  0  0  0  0  0  0  0  0  0  0  0
    6.5550   -3.8050   24.0720 C   0  0  0  0  0  0  0  0  0  0  0  0
    6.0120   -3.2510   25.4400 C   0  0  0  0  0  0  0  0  0  0  0  0
    4.8190   -2.9690   25.3450 O   0  0  0  0  0  0  0  0  0  0  0  0
    6.9570   -3.2440   26.3030 N   0  0  0  0  0  0  0  0  0  0  0  0
    7.5530   -3.5980   27.4710 C   0  0  0  0  0  0  0  0  0  0  0  0
    7.8260   -2.1550   25.9630 C   0  0  0  0  0  0  0  0  0  0  0  0
    8.8430   -2.2130   24.9190 C   0  0  0  0  0  0  0  0  0  0  0  0
    8.4690   -2.4830   23.4890 C   0  0  0  0  0  0  0  0  0  0  0  0
    9.6470   -2.4990   22.4270 C   0  0  0  0  0  0  0  0  0  0  0  0
   10.8980   -2.2580   22.9850 C   0  0  0  0  0  0  0  0  0  0  0  0
   12.2490   -2.1460   22.6130 C   0  0  0  0  0  0  0  0  0  0  0  0
   11.2910   -1.9970   24.3660 C   0  0  0  0  0  0  0  0  0  0  0  0
   12.8150   -1.7580   24.7090 C   0  0  0  0  0  0  0  0  0  0  0  0
   10.1570   -1.9890   25.2920 C   0  0  0  0  0  0  0  0  0  0  0  0
    6.6980   -2.6700   23.0870 C   0  0  0  0  0  0  0  0  0  0  0  0
    7.4740   -3.1510   22.1060 C   0  0  0  0  0  0  0  0  0  0  0  0
  1  2  1  0
  2  3  2  0
  2  4  1  0
  4  5  1  0
  5  6  1  0
  6  7  1  0
  7  8  1  0
  8  9  2  0
  8 10  1  0
 10 11  1  0
 10 12  1  0
 12 13  1  0
 13 14  2  0
 14 15  1  0
 15 16  2  0
 16 17  1  0
 16 18  1  0
 18 19  1  0
 13 20  1  0
 18 20  2  0
  7 21  1  0
  4 22  1  0
 21 22  1  0
M  END
