piperidine-amides-2785-covalent
     RDKit          3D

 24 25  0  0  0  0  0  0  0  0999 V2000
    7.1230   -3.3720   19.3650 C   0  0  0  0  0  0  0  0  0  0  0  0
    6.4030   -4.1920   20.3210 C   0  0  0  0  0  0  0  0  0  0  0  0
    5.3840   -4.7960   19.9790 O   0  0  0  0  0  0  0  0  0  0  0  0
    6.9380   -4.3290   21.6440 N   0  0  0  0  0  0  0  0  0  0  0  0
    7.7130   -3.2520   22.1910 C   0  0  0  0  0  0  0  0  0  0  0  0
    6.9810   -2.6720   23.3590 C   0  0  0  0  0  0  0  0  0  0  0  0
    6.5340   -3.8230   24.2450 C   0  0  0  0  0  0  0  0  0  0  0  0
    5.7910   -3.2800   25.4170 C   0  0  0  0  0  0  0  0  0  0  0  0
    4.5490   -3.1580   25.4130 O   0  0  0  0  0  0  0  0  0  0  0  0
    6.5100   -2.9000   26.5780 N   0  0  0  0  0  0  0  0  0  0  0  0
    6.3710   -1.5380   27.0740 C   0  0  0  0  0  0  0  0  0  0  0  0
    6.8470   -1.4130   28.5170 C   0  0  0  0  0  0  0  0  0  0  0  0
    6.8060   -0.2110   29.2380 C   0  0  0  0  0  0  0  0  0  0  0  0
    7.1750    0.1200   30.5490 C   0  0  0  0  0  0  0  0  0  0  0  0
    8.4400   -0.3220   30.8410 F   0  0  0  0  0  0  0  0  0  0  0  0
    6.2920   -0.2910   31.4940 F   0  0  0  0  0  0  0  0  0  0  0  0
    7.2740    1.5110   30.6870 F   0  0  0  0  0  0  0  0  0  0  0  0
    6.2370    0.9850   28.4280 C   0  0  0  0  0  0  0  0  0  0  0  0
    6.0660    2.6120   29.0720 Cl  0  0  0  0  0  0  0  0  0  0  0  0
    5.8260    0.7460   27.0730 C   0  0  0  0  0  0  0  0  0  0  0  0
    5.8690   -0.4300   26.3870 C   0  0  0  0  0  0  0  0  0  0  0  0
    5.4710   -0.5700   25.1510 O   0  0  0  0  0  0  0  0  0  0  0  0
    5.6160   -4.7450   23.4420 C   0  0  0  0  0  0  0  0  0  0  0  0
    6.3940   -5.3820   22.4740 C   0  0  0  0  0  0  0  0  0  0  0  0
  1  2  1  0
  2  3  2  0
  2  4  1  0
  4  5  1  0
  5  6  1  0
  6  7  1  0
  7  8  1  0
  8  9  2  0
  8 10  1  0
 10 11  1  0
 11 12  2  0
 12 13  1  0
 13 14  1  0
 14 15  1  0
 14 16  1  0
 14 17  1  0
 13 18  2  0
 18 19  1  0
 18 20  1  0
 11 21  1  0
 20 21  2  0
 21 22  1  0
  7 23  1  0
  4 24  1  0
 23 24  1  0
M  END
