piperidine-amides-12733-covalent
     RDKit          3D

 22 23  0  0  0  0  0  0  0  0999 V2000
    7.0590   -3.3420   19.2770 C   0  0  0  0  0  0  0  0  0  0  0  0
    6.3910   -4.1550   20.3190 C   0  0  0  0  0  0  0  0  0  0  0  0
    5.3560   -4.7520   19.9600 O   0  0  0  0  0  0  0  0  0  0  0  0
    6.9260   -4.2910   21.6140 N   0  0  0  0  0  0  0  0  0  0  0  0
    7.7250   -3.2430   22.1800 C   0  0  0  0  0  0  0  0  0  0  0  0
    7.4340   -2.9950   23.5820 C   0  0  0  0  0  0  0  0  0  0  0  0
    6.1560   -3.5990   23.9950 C   0  0  0  0  0  0  0  0  0  0  0  0
    5.7450   -3.2380   25.3710 C   0  0  0  0  0  0  0  0  0  0  0  0
    4.5720   -3.5170   25.6840 O   0  0  0  0  0  0  0  0  0  0  0  0
    6.5820   -2.5850   26.3060 N   0  0  0  0  0  0  0  0  0  0  0  0
    5.9720   -1.7110   27.3350 C   0  0  1  0  0  0  0  0  0  0  0  0
    5.0290   -2.5530   28.1380 C   0  0  0  0  0  0  0  0  0  0  0  0
    4.7470   -3.7280   27.7710 O   0  0  0  0  0  0  0  0  0  0  0  0
    4.4300   -2.1240   29.3050 O   0  0  0  0  0  0  0  0  0  0  0  0
    3.2100   -2.6710   29.7390 C   0  0  0  0  0  0  0  0  0  0  0  0
    6.9940   -1.2310   28.2220 C   0  0  0  0  0  0  0  0  0  0  0  0
    6.5920   -0.0490   28.8060 C   0  0  0  0  0  0  0  0  0  0  0  0
    5.7280    0.5130   27.9000 C   0  0  1  0  0  0  0  0  0  0  0  0
    6.2090    1.6700   27.3590 C   0  0  0  0  0  0  0  0  0  0  0  0
    5.4470   -0.4640   26.9500 C   0  0  0  0  0  0  0  0  0  0  0  0
    6.1560   -5.0900   23.7580 C   0  0  0  0  0  0  0  0  0  0  0  0
    6.7040   -5.4720   22.4310 C   0  0  0  0  0  0  0  0  0  0  0  0
  1  2  1  0
  2  3  2  0
  2  4  1  0
  4  5  1  0
  5  6  1  0
  6  7  1  0
  7  8  1  0
  8  9  2  0
  8 10  1  0
 11 10  1  6
 11 12  1  0
 12 13  2  0
 12 14  1  0
 14 15  1  0
 11 16  1  0
 16 17  1  0
 17 18  1  0
 18 19  1  6
 11 20  1  0
 18 20  1  0
  7 21  1  0
  4 22  1  0
 21 22  1  0
M  END
