piperidine-amides-4759-covalent
     RDKit          3D

 24 26  0  0  0  0  0  0  0  0999 V2000
    7.1230   -3.3090   19.2290 C   0  0  0  0  0  0  0  0  0  0  0  0
    6.3490   -4.0750   20.2310 C   0  0  0  0  0  0  0  0  0  0  0  0
    5.2570   -4.5460   19.8700 O   0  0  0  0  0  0  0  0  0  0  0  0
    6.8680   -4.2990   21.5050 N   0  0  0  0  0  0  0  0  0  0  0  0
    7.6390   -3.2650   22.1220 C   0  0  0  0  0  0  0  0  0  0  0  0
    7.1490   -2.8310   23.4210 C   0  0  0  0  0  0  0  0  0  0  0  0
    6.4940   -3.8870   24.2030 C   0  0  0  0  0  0  0  0  0  0  0  0
    5.8420   -3.2700   25.3780 C   0  0  0  0  0  0  0  0  0  0  0  0
    4.6080   -3.3670   25.5150 O   0  0  0  0  0  0  0  0  0  0  0  0
    6.6420   -2.5790   26.3010 N   0  0  0  0  0  0  0  0  0  0  0  0
    6.1200   -1.6350   27.3100 C   0  0  1  0  0  0  0  0  0  0  0  0
    7.0380   -1.5050   28.4760 C   0  0  0  0  0  0  0  0  0  0  0  0
    6.6780   -0.6470   29.6010 C   0  0  0  0  0  0  0  0  0  0  0  0
    6.4100    0.6980   29.3870 C   0  0  0  0  0  0  0  0  0  0  0  0
    5.4710    1.0770   28.6360 O   0  0  0  0  0  0  0  0  0  0  0  0
    5.7940    1.2430   27.3550 C   0  0  0  0  0  0  0  0  0  0  0  0
    5.8560    2.4350   26.6510 C   0  0  0  0  0  0  0  0  0  0  0  0
    5.3910    3.5470   27.9510 Cl  0  0  0  0  0  0  0  0  0  0  0  0
    6.0300    1.2610   26.4670 C   0  0  0  0  0  0  0  0  0  0  0  0
    5.5990    1.5770   27.9500 C   0  0  0  0  0  0  0  0  0  0  0  0
    5.7450    0.3320   27.8920 C   0  0  0  0  0  0  0  0  0  0  0  0
    6.0870   -0.1950   26.8240 C   0  0  0  0  0  0  0  0  0  0  0  0
    5.5780   -4.7610   23.4390 C   0  0  0  0  0  0  0  0  0  0  0  0
    6.3580   -5.3790   22.3170 C   0  0  0  0  0  0  0  0  0  0  0  0
  1  2  1  0
  2  3  2  0
  2  4  1  0
  4  5  1  0
  5  6  1  0
  6  7  1  0
  7  8  1  0
  8  9  2  0
  8 10  1  0
 11 10  1  6
 11 12  1  0
 12 13  1  0
 13 14  1  0
 14 15  1  0
 15 16  1  0
 16 17  1  0
 17 18  1  0
 17 19  2  0
 19 20  1  0
 20 21  2  0
 11 22  1  0
 16 22  2  0
 21 22  1  0
  7 23  1  0
  4 24  1  0
 23 24  1  0
M  END
