piperidine-amides-10366-covalent
     RDKit          3D

 24 25  0  0  0  0  0  0  0  0999 V2000
    7.1180   -3.2650   19.2130 C   0  0  0  0  0  0  0  0  0  0  0  0
    6.4030   -4.0130   20.2520 C   0  0  0  0  0  0  0  0  0  0  0  0
    5.3250   -4.5650   19.9010 O   0  0  0  0  0  0  0  0  0  0  0  0
    6.9380   -4.1240   21.5420 N   0  0  0  0  0  0  0  0  0  0  0  0
    7.7010   -3.0580   22.1520 C   0  0  0  0  0  0  0  0  0  0  0  0
    7.2390   -2.8890   23.5790 C   0  0  0  0  0  0  0  0  0  0  0  0
    5.7450   -3.0640   23.7020 C   0  0  0  0  0  0  0  0  0  0  0  0
    5.2430   -2.8310   25.0920 C   0  0  0  0  0  0  0  0  0  0  0  0
    4.1260   -3.3160   25.3670 O   0  0  0  0  0  0  0  0  0  0  0  0
    5.8910   -2.0960   26.1260 N   0  0  0  0  0  0  0  0  0  0  0  0
    5.4060   -2.2050   27.4940 C   0  0  0  0  0  0  0  0  0  0  0  0
    5.8300   -3.5320   28.0510 C   0  0  0  0  0  0  0  0  0  0  0  0
    6.4730   -4.2320   27.1410 C   0  0  0  0  0  0  0  0  0  0  0  0
    5.8470   -4.9310   26.1600 C   0  0  0  0  0  0  0  0  0  0  0  0
    6.5860   -5.5740   25.2370 C   0  0  0  0  0  0  0  0  0  0  0  0
    7.9450   -5.5220   25.3070 C   0  0  0  0  0  0  0  0  0  0  0  0
    8.5750   -4.8220   26.3040 C   0  0  0  0  0  0  0  0  0  0  0  0
   10.0320   -4.7420   26.4120 C   0  0  0  0  0  0  0  0  0  0  0  0
   10.7410   -5.5610   25.6710 F   0  0  0  0  0  0  0  0  0  0  0  0
   10.3570   -3.4520   26.0960 F   0  0  0  0  0  0  0  0  0  0  0  0
   10.2750   -4.9990   27.7540 F   0  0  0  0  0  0  0  0  0  0  0  0
    7.8000   -4.2120   27.1750 N   0  0  0  0  0  0  0  0  0  0  0  0
    5.2830   -4.4240   23.2530 C   0  0  0  0  0  0  0  0  0  0  0  0
    6.2970   -5.1260   22.3730 C   0  0  0  0  0  0  0  0  0  0  0  0
  1  2  1  0
  2  3  2  0
  2  4  1  0
  4  5  1  0
  5  6  1  0
  6  7  1  0
  7  8  1  0
  8  9  2  0
  8 10  1  0
 10 11  1  0
 11 12  1  0
 12 13  1  0
 13 14  2  0
 14 15  1  0
 15 16  2  0
 16 17  1  0
 17 18  1  0
 18 19  1  0
 18 20  1  0
 18 21  1  0
 13 22  1  0
 17 22  2  0
  7 23  1  0
  4 24  1  0
 23 24  1  0
M  END
