piperidine-amides-2124-covalent
     RDKit          3D

 18 18  0  0  0  0  0  0  0  0999 V2000
    7.0780   -3.2320   19.1770 C   0  0  0  0  0  0  0  0  0  0  0  0
    6.3550   -4.0240   20.2090 C   0  0  0  0  0  0  0  0  0  0  0  0
    5.2970   -4.5530   19.8780 O   0  0  0  0  0  0  0  0  0  0  0  0
    6.8970   -4.1820   21.4810 N   0  0  0  0  0  0  0  0  0  0  0  0
    7.6980   -3.1480   22.0820 C   0  0  0  0  0  0  0  0  0  0  0  0
    6.9550   -2.5870   23.2580 C   0  0  0  0  0  0  0  0  0  0  0  0
    6.6010   -3.7340   24.1920 C   0  0  0  0  0  0  0  0  0  0  0  0
    5.8750   -3.2040   25.3630 C   0  0  0  0  0  0  0  0  0  0  0  0
    4.8140   -2.5880   25.1880 O   0  0  0  0  0  0  0  0  0  0  0  0
    6.3550   -3.4030   26.6700 N   0  0  0  0  0  0  0  0  0  0  0  0
    5.8150   -4.5270   27.3900 C   0  0  0  0  0  0  0  0  0  0  0  0
    4.3700   -4.2140   27.6970 C   0  0  0  0  0  0  0  0  0  0  0  0
    5.9050   -5.7950   26.6280 C   0  0  0  0  0  0  0  0  0  0  0  0
    6.6460   -4.9320   28.5720 C   0  0  0  0  0  0  0  0  0  0  0  0
    6.1310   -6.0570   29.1700 C   0  0  0  0  0  0  0  0  0  0  0  0
    4.6930   -6.9290   28.6550 Cl  0  0  0  0  0  0  0  0  0  0  0  0
    5.7400   -4.7640   23.4720 C   0  0  0  0  0  0  0  0  0  0  0  0
    6.4800   -5.2720   22.2820 C   0  0  0  0  0  0  0  0  0  0  0  0
  1  2  1  0
  2  3  2  0
  2  4  1  0
  4  5  1  0
  5  6  1  0
  6  7  1  0
  7  8  1  0
  8  9  2  0
  8 10  1  0
 10 11  1  0
 11 12  1  0
 11 13  1  0
 11 14  1  0
 14 15  2  3
 15 16  1  0
  7 17  1  0
  4 18  1  0
 17 18  1  0
M  END
