piperidine-amides-14471-covalent
     RDKit          3D

 23 25  0  0  0  0  0  0  0  0999 V2000
    7.1130   -3.2900   19.2240 C   0  0  0  0  0  0  0  0  0  0  0  0
    6.3900   -4.0600   20.2330 C   0  0  0  0  0  0  0  0  0  0  0  0
    5.3130   -4.5870   19.9030 O   0  0  0  0  0  0  0  0  0  0  0  0
    6.9500   -4.2430   21.5260 N   0  0  0  0  0  0  0  0  0  0  0  0
    7.7430   -3.2010   22.1150 C   0  0  0  0  0  0  0  0  0  0  0  0
    7.0100   -2.6310   23.2810 C   0  0  0  0  0  0  0  0  0  0  0  0
    6.5370   -3.8040   24.1030 C   0  0  0  0  0  0  0  0  0  0  0  0
    5.6440   -3.2990   25.1830 C   0  0  0  0  0  0  0  0  0  0  0  0
    4.4450   -3.2410   24.9210 O   0  0  0  0  0  0  0  0  0  0  0  0
    6.2100   -2.9320   26.3850 N   0  0  0  0  0  0  0  0  0  0  0  0
    5.5070   -3.1020   27.6020 C   0  0  0  0  0  0  0  0  0  0  0  0
    4.5870   -4.1440   27.8030 C   0  0  0  0  0  0  0  0  0  0  0  0
    3.2150   -4.0630   27.7190 C   0  0  0  0  0  0  0  0  0  0  0  0
    2.3280   -5.1200   27.9320 C   0  0  0  0  0  0  0  0  0  0  0  0
    2.9580   -6.4410   28.2790 C   0  0  0  0  0  0  0  0  0  0  0  0
    1.7690   -7.9170   28.5840 Br  0  0  0  0  0  0  0  0  0  0  0  0
    4.4960   -6.5310   28.3720 C   0  0  0  0  0  0  0  0  0  0  0  0
    5.2790   -5.3970   28.1370 N   0  0  0  0  0  0  0  0  0  0  0  0
    5.0910   -1.9660   28.2740 C   0  0  0  0  0  0  0  0  0  0  0  0
    5.7290   -1.5000   29.4410 C   0  0  0  0  0  0  0  0  0  0  0  0
    6.4190   -2.7690   28.8160 C   0  0  0  0  0  0  0  0  0  0  0  0
    5.6900   -4.7360   23.2670 C   0  0  0  0  0  0  0  0  0  0  0  0
    6.5310   -5.3350   22.3580 C   0  0  0  0  0  0  0  0  0  0  0  0
  1  2  1  0
  2  3  2  0
  2  4  1  0
  4  5  1  0
  5  6  1  0
  6  7  1  0
  7  8  1  0
  8  9  2  0
  8 10  1  0
 11 10  1  0
 11 12  1  0
 12 13  2  0
 13 14  1  0
 14 15  2  0
 15 16  1  0
 15 17  1  0
 12 18  1  0
 17 18  2  0
 11 19  1  0
 19 20  1  0
 11 21  1  0
 20 21  1  0
  7 22  1  0
  4 23  1  0
 22 23  1  0
M  END
