piperidine-amides-12862-covalent
     RDKit          3D

 21 22  0  0  0  0  0  0  0  0999 V2000
    7.1090   -3.2750   19.2440 C   0  0  0  0  0  0  0  0  0  0  0  0
    6.3700   -4.0490   20.2700 C   0  0  0  0  0  0  0  0  0  0  0  0
    5.3050   -4.5810   19.8980 O   0  0  0  0  0  0  0  0  0  0  0  0
    6.8770   -4.2080   21.5720 N   0  0  0  0  0  0  0  0  0  0  0  0
    7.6660   -3.1720   22.1590 C   0  0  0  0  0  0  0  0  0  0  0  0
    7.3260   -2.9380   23.5540 C   0  0  0  0  0  0  0  0  0  0  0  0
    6.0700   -3.6130   23.9470 C   0  0  0  0  0  0  0  0  0  0  0  0
    5.7490   -3.4170   25.3830 C   0  0  0  0  0  0  0  0  0  0  0  0
    4.6490   -3.8330   25.7820 O   0  0  0  0  0  0  0  0  0  0  0  0
    6.6220   -2.7620   26.2750 N   0  0  0  0  0  0  0  0  0  0  0  0
    6.4470   -1.3160   26.5240 C   0  0  0  0  0  0  0  0  0  0  0  0
    6.7850   -0.8820   27.9090 C   0  0  0  0  0  0  0  0  0  0  0  0
    7.4330   -1.6650   28.8870 N   0  0  0  0  0  0  0  0  0  0  0  0
    7.5080   -0.7850   29.9870 C   0  0  0  0  0  0  0  0  0  0  0  0
    7.0330    0.3780   29.8780 O   0  0  0  0  0  0  0  0  0  0  0  0
    6.5220    0.4420   28.5510 C   0  0  0  0  0  0  0  0  0  0  0  0
    5.8900    1.4620   27.8690 C   0  0  0  0  0  0  0  0  0  0  0  0
    6.2880    2.7620   28.2230 O   0  0  0  0  0  0  0  0  0  0  0  0
    7.2840    3.3660   27.4110 C   0  0  0  0  0  0  0  0  0  0  0  0
    5.9140   -5.0530   23.5310 C   0  0  0  0  0  0  0  0  0  0  0  0
    6.6240   -5.3610   22.3940 C   0  0  0  0  0  0  0  0  0  0  0  0
  1  2  1  0
  2  3  2  0
  2  4  1  0
  4  5  1  0
  5  6  1  0
  6  7  1  0
  7  8  1  0
  8  9  2  0
  8 10  1  0
 10 11  1  0
 11 12  1  0
 12 13  1  0
 13 14  2  0
 14 15  1  0
 12 16  2  0
 15 16  1  0
 16 17  1  0
 17 18  1  0
 18 19  1  0
  7 20  1  0
  4 21  1  0
 20 21  1  0
M  END
