piperidine-amides-7174-covalent
     RDKit          3D

 21 22  0  0  0  0  0  0  0  0999 V2000
    7.0300   -3.3470   19.3630 C   0  0  0  0  0  0  0  0  0  0  0  0
    6.3900   -4.1980   20.3760 C   0  0  0  0  0  0  0  0  0  0  0  0
    5.3850   -4.8490   19.9830 O   0  0  0  0  0  0  0  0  0  0  0  0
    6.9010   -4.3090   21.6820 N   0  0  0  0  0  0  0  0  0  0  0  0
    6.6600   -5.4780   22.4970 C   0  0  0  0  0  0  0  0  0  0  0  0
    6.0800   -5.0480   23.8290 C   0  0  0  0  0  0  0  0  0  0  0  0
    6.0650   -3.5470   24.0070 C   0  0  0  0  0  0  0  0  0  0  0  0
    5.6680   -3.1810   25.3990 C   0  0  0  0  0  0  0  0  0  0  0  0
    4.4420   -3.2080   25.6690 O   0  0  0  0  0  0  0  0  0  0  0  0
    6.5700   -2.8000   26.4240 N   0  0  0  0  0  0  0  0  0  0  0  0
    6.5050   -1.5170   27.1180 C   0  0  0  0  0  0  0  0  0  0  0  0
    7.2540   -1.6060   28.4330 C   0  0  0  0  0  0  0  0  0  0  0  0
    6.9190   -0.1480   28.7490 N   0  0  0  0  0  0  0  0  0  0  0  0
    6.3230    1.0450   28.4300 C   0  0  0  0  0  0  0  0  0  0  0  0
    6.9550    1.1310   29.6540 C   0  0  0  0  0  0  0  0  0  0  0  0
    5.7770    0.7170   27.2120 C   0  0  0  0  0  0  0  0  0  0  0  0
    5.0760    1.7170   26.5620 C   0  0  0  0  0  0  0  0  0  0  0  0
    5.4870    2.2170   25.3450 C   0  0  0  0  0  0  0  0  0  0  0  0
    5.8470   -0.4650   26.5790 C   0  0  0  0  0  0  0  0  0  0  0  0
    7.3830   -2.9590   23.6520 C   0  0  0  0  0  0  0  0  0  0  0  0
    7.6960   -3.1830   22.1910 C   0  0  0  0  0  0  0  0  0  0  0  0
  1  2  1  0
  2  3  2  0
  2  4  1  0
  4  5  1  0
  5  6  1  0
  6  7  1  0
  7  8  1  0
  8  9  2  0
  8 10  1  0
 10 11  1  0
 11 12  2  0
 12 13  1  0
 13 14  2  0
 14 15  1  0
 14 16  1  0
 16 17  1  0
 17 18  3  0
 11 19  1  0
 16 19  2  0
  7 20  1  0
  4 21  1  0
 20 21  1  0
M  END
