piperidine-amides-25971-covalent
     RDKit          3D

 23 24  0  0  0  0  0  0  0  0999 V2000
    7.0210   -3.3760   19.4340 C   0  0  0  0  0  0  0  0  0  0  0  0
    6.3680   -4.2540   20.4130 C   0  0  0  0  0  0  0  0  0  0  0  0
    5.4230   -4.9590   20.0120 O   0  0  0  0  0  0  0  0  0  0  0  0
    6.7980   -4.3490   21.7610 N   0  0  0  0  0  0  0  0  0  0  0  0
    6.6790   -5.5770   22.5390 C   0  0  0  0  0  0  0  0  0  0  0  0
    6.0850   -5.2000   23.8850 C   0  0  0  0  0  0  0  0  0  0  0  0
    5.9540   -3.7190   24.0000 C   0  0  0  0  0  0  0  0  0  0  0  0
    5.2450   -3.1550   25.2060 C   0  0  0  0  0  0  0  0  0  0  0  0
    4.5290   -2.1390   25.0280 O   0  0  0  0  0  0  0  0  0  0  0  0
    5.2520   -3.6090   26.5610 N   0  0  0  0  0  0  0  0  0  0  0  0
    6.4050   -3.3100   27.3370 C   0  0  0  0  0  0  0  0  0  0  0  0
    6.5440   -4.4370   28.3090 C   0  0  0  0  0  0  0  0  0  0  0  0
    5.3680   -4.4650   28.9210 N   0  0  0  0  0  0  0  0  0  0  0  0
    4.5840   -5.6280   29.0590 C   0  0  0  0  0  0  0  0  0  0  0  0
    4.1520   -5.7300   30.4960 C   0  0  0  0  0  0  0  0  0  0  0  0
    5.0300   -7.1650   31.1070 S   0  0  0  0  0  0  0  0  0  0  0  0
    6.0580   -7.7330   29.7870 C   0  0  0  0  0  0  0  0  0  0  0  0
    4.0870   -8.2320   31.4630 O   0  0  0  0  0  0  0  0  0  0  0  0
    5.9410   -6.8500   32.2790 O   0  0  0  0  0  0  0  0  0  0  0  0
    4.4070   -3.4430   28.6640 C   0  0  0  0  0  0  0  0  0  0  0  0
    4.0570   -3.4620   27.3260 C   0  0  0  0  0  0  0  0  0  0  0  0
    7.2810   -3.0570   23.7550 C   0  0  0  0  0  0  0  0  0  0  0  0
    7.6640   -3.3020   22.3070 C   0  0  0  0  0  0  0  0  0  0  0  0
  1  2  1  0
  2  3  2  0
  2  4  1  0
  4  5  1  0
  5  6  1  0
  6  7  1  0
  7  8  1  0
  8  9  2  0
  8 10  1  0
 10 11  1  0
 11 12  1  0
 12 13  1  0
 13 14  1  0
 14 15  1  0
 16 15  1  0
 16 17  1  0
 16 18  2  0
 16 19  2  0
 13 20  1  0
 10 21  1  0
 20 21  1  0
  7 22  1  0
  4 23  1  0
 22 23  1  0
M  END
