piperidine-amides-29574-covalent
     RDKit          3D

 26 28  0  0  0  0  0  0  0  0999 V2000
    6.9870   -3.4010   19.4230 C   0  0  0  0  0  0  0  0  0  0  0  0
    6.2990   -4.2530   20.3900 C   0  0  0  0  0  0  0  0  0  0  0  0
    5.3730   -4.9610   20.0010 O   0  0  0  0  0  0  0  0  0  0  0  0
    6.7040   -4.3080   21.7690 N   0  0  0  0  0  0  0  0  0  0  0  0
    6.4210   -5.4880   22.5540 C   0  0  0  0  0  0  0  0  0  0  0  0
    5.6000   -5.1410   23.7780 C   0  0  0  0  0  0  0  0  0  0  0  0
    5.8010   -3.6590   24.0560 C   0  0  0  0  0  0  0  0  0  0  0  0
    5.2850   -3.1300   25.4010 C   0  0  0  0  0  0  0  0  0  0  0  0
    5.2370   -1.9080   25.5810 O   0  0  0  0  0  0  0  0  0  0  0  0
    4.7990   -3.9290   26.5140 N   0  0  0  0  0  0  0  0  0  0  0  0
    4.7110   -3.2600   27.8290 C   0  0  0  0  0  0  0  0  0  0  0  0
    5.9720   -3.6220   28.5850 C   0  0  0  0  0  0  0  0  0  0  0  0
    6.9510   -3.9510   27.7130 C   0  0  0  0  0  0  0  0  0  0  0  0
    8.2350   -3.4790   27.6750 C   0  0  0  0  0  0  0  0  0  0  0  0
    8.9860   -3.9700   26.6420 C   0  0  0  0  0  0  0  0  0  0  0  0
   10.0690   -3.7190   26.4490 O   0  0  0  0  0  0  0  0  0  0  0  0
   10.7540   -4.8220   26.6230 C   0  0  0  0  0  0  0  0  0  0  0  0
   10.1720   -5.7740   25.8610 F   0  0  0  0  0  0  0  0  0  0  0  0
   12.1150   -4.7000   26.4470 F   0  0  0  0  0  0  0  0  0  0  0  0
   10.4120   -5.1490   27.9200 F   0  0  0  0  0  0  0  0  0  0  0  0
    8.5510   -4.8400   25.7330 C   0  0  0  0  0  0  0  0  0  0  0  0
    7.3340   -5.2710   25.7990 C   0  0  0  0  0  0  0  0  0  0  0  0
    6.5550   -4.8200   26.7830 C   0  0  0  0  0  0  0  0  0  0  0  0
    5.2400   -5.2440   26.8310 C   0  0  0  0  0  0  0  0  0  0  0  0
    7.2300   -3.2130   23.7530 C   0  0  0  0  0  0  0  0  0  0  0  0
    7.4220   -3.2050   22.3670 C   0  0  0  0  0  0  0  0  0  0  0  0
  1  2  1  0
  2  3  2  0
  2  4  1  0
  4  5  1  0
  5  6  1  0
  6  7  1  0
  7  8  1  0
  8  9  2  0
  8 10  1  0
 10 11  1  0
 11 12  1  0
 12 13  1  0
 13 14  2  0
 14 15  1  0
 15 16  1  0
 16 17  1  0
 17 18  1  0
 17 19  1  0
 17 20  1  0
 15 21  2  0
 21 22  1  0
 13 23  1  0
 22 23  2  0
 10 24  1  0
 23 24  1  0
  7 25  1  0
  4 26  1  0
 25 26  1  0
M  END
