piperidine-amides-24230-covalent
     RDKit          3D

 24 26  0  0  0  0  0  0  0  0999 V2000
    7.1290   -3.2670   19.2460 C   0  0  0  0  0  0  0  0  0  0  0  0
    6.3930   -4.0760   20.2280 C   0  0  0  0  0  0  0  0  0  0  0  0
    5.3210   -4.6320   19.9150 O   0  0  0  0  0  0  0  0  0  0  0  0
    6.9130   -4.2840   21.5070 N   0  0  0  0  0  0  0  0  0  0  0  0
    6.4970   -5.4590   22.2230 C   0  0  0  0  0  0  0  0  0  0  0  0
    5.6110   -4.9470   23.3570 C   0  0  0  0  0  0  0  0  0  0  0  0
    6.4840   -4.0280   24.1840 C   0  0  0  0  0  0  0  0  0  0  0  0
    5.7360   -3.6100   25.3800 C   0  0  0  0  0  0  0  0  0  0  0  0
    5.5660   -2.3930   25.5840 O   0  0  0  0  0  0  0  0  0  0  0  0
    5.2070   -4.5940   26.2510 N   0  0  0  0  0  0  0  0  0  0  0  0
    5.7610   -4.7460   27.5680 C   0  0  0  0  0  0  0  0  0  0  0  0
    4.4310   -4.9720   28.0620 C   0  0  0  0  0  0  0  0  0  0  0  0
    3.9140   -4.1600   29.0400 C   0  0  0  0  0  0  0  0  0  0  0  0
    3.1450   -4.8850   29.9200 C   0  0  0  0  0  0  0  0  0  0  0  0
    3.7270   -6.0850   30.3400 C   0  0  0  0  0  0  0  0  0  0  0  0
    5.1010   -6.1100   30.1820 C   0  0  0  0  0  0  0  0  0  0  0  0
    5.7930   -6.9850   29.1480 C   0  0  0  0  0  0  0  0  0  0  0  0
    4.4680   -6.4200   28.6830 C   0  0  0  0  0  0  0  0  0  0  0  0
    3.8460   -4.9410   26.8280 C   0  0  1  0  0  0  0  0  0  0  0  0
    2.7100   -4.0910   26.4380 C   0  0  0  0  0  0  0  0  0  0  0  0
    3.0390   -2.8700   25.8250 C   0  0  0  0  0  0  0  0  0  0  0  0
    2.2700   -3.8800   25.0300 C   0  0  0  0  0  0  0  0  0  0  0  0
    6.8990   -2.7880   23.4110 C   0  0  0  0  0  0  0  0  0  0  0  0
    7.6290   -3.2200   22.1650 C   0  0  0  0  0  0  0  0  0  0  0  0
  1  2  1  0
  2  3  2  0
  2  4  1  0
  4  5  1  0
  5  6  1  0
  6  7  1  0
  7  8  1  0
  8  9  2  0
  8 10  1  0
 10 11  1  0
 12 11  1  0
 12 13  1  0
 13 14  1  0
 14 15  1  0
 15 16  1  0
 16 17  1  0
 12 18  1  0
 17 18  1  0
 10 19  1  0
 12 19  1  0
 19 20  1  1
 20 21  1  0
 20 22  1  0
  7 23  1  0
  4 24  1  0
 23 24  1  0
M  END
