piperidine-amides-24666-covalent
     RDKit          3D

 24 25  0  0  0  0  0  0  0  0999 V2000
    7.1820   -3.2820   19.2340 C   0  0  0  0  0  0  0  0  0  0  0  0
    6.3910   -4.0350   20.2100 C   0  0  0  0  0  0  0  0  0  0  0  0
    5.2970   -4.5500   19.8920 O   0  0  0  0  0  0  0  0  0  0  0  0
    6.9070   -4.2310   21.4890 N   0  0  0  0  0  0  0  0  0  0  0  0
    6.4550   -5.3640   22.2470 C   0  0  0  0  0  0  0  0  0  0  0  0
    5.6670   -4.7540   23.4030 C   0  0  0  0  0  0  0  0  0  0  0  0
    6.5950   -3.7880   24.1190 C   0  0  0  0  0  0  0  0  0  0  0  0
    5.8420   -3.1570   25.2060 C   0  0  0  0  0  0  0  0  0  0  0  0
    5.0420   -2.2430   24.9270 O   0  0  0  0  0  0  0  0  0  0  0  0
    5.9980   -3.5980   26.5250 N   0  0  0  0  0  0  0  0  0  0  0  0
    5.0220   -4.5280   26.9310 C   0  0  0  0  0  0  0  0  0  0  0  0
    5.7050   -5.4810   27.8470 C   0  0  0  0  0  0  0  0  0  0  0  0
    6.1280   -4.9440   28.9790 C   0  0  0  0  0  0  0  0  0  0  0  0
    5.1330   -5.0100   29.9060 C   0  0  0  0  0  0  0  0  0  0  0  0
    4.3170   -3.9210   30.1680 O   0  0  0  0  0  0  0  0  0  0  0  0
    4.9990   -6.2690   30.5630 N   0  0  0  0  0  0  0  0  0  0  0  0
    5.8040   -7.3570   30.2960 C   0  0  0  0  0  0  0  0  0  0  0  0
    3.8080   -6.4290   31.3330 C   0  0  0  0  0  0  0  0  0  0  0  0
    2.7900   -5.3080   31.4530 C   0  0  0  0  0  0  0  0  0  0  0  0
    3.6830   -5.7430   32.6470 C   0  0  0  0  0  0  0  0  0  0  0  0
    6.6540   -3.7080   28.8290 C   0  0  0  0  0  0  0  0  0  0  0  0
    6.3220   -2.8300   27.6950 C   0  0  0  0  0  0  0  0  0  0  0  0
    7.0530   -2.6910   23.2070 C   0  0  0  0  0  0  0  0  0  0  0  0
    7.6460   -3.1750   22.0930 C   0  0  0  0  0  0  0  0  0  0  0  0
  1  2  1  0
  2  3  2  0
  2  4  1  0
  4  5  1  0
  5  6  1  0
  6  7  1  0
  7  8  1  0
  8  9  2  0
  8 10  1  0
 10 11  1  0
 11 12  1  0
 12 13  1  0
 13 14  1  0
 14 15  2  0
 14 16  1  0
 16 17  1  0
 16 18  1  0
 18 19  1  0
 18 20  1  0
 13 21  1  0
 10 22  1  0
 21 22  1  0
  7 23  1  0
  4 24  1  0
 23 24  1  0
M  END
