piperidine-amides-26079-covalent
     RDKit          3D

 25 26  0  0  0  0  0  0  0  0999 V2000
    7.1010   -3.2650   19.2250 C   0  0  0  0  0  0  0  0  0  0  0  0
    6.3230   -4.0110   20.2190 C   0  0  0  0  0  0  0  0  0  0  0  0
    5.2500   -4.5240   19.8710 O   0  0  0  0  0  0  0  0  0  0  0  0
    6.7760   -4.2160   21.5320 N   0  0  0  0  0  0  0  0  0  0  0  0
    6.5390   -5.4690   22.2100 C   0  0  0  0  0  0  0  0  0  0  0  0
    6.1500   -5.1470   23.6360 C   0  0  0  0  0  0  0  0  0  0  0  0
    6.2180   -3.6840   23.9880 C   0  0  0  0  0  0  0  0  0  0  0  0
    5.8590   -3.4270   25.4070 C   0  0  0  0  0  0  0  0  0  0  0  0
    4.7010   -3.7290   25.8240 O   0  0  0  0  0  0  0  0  0  0  0  0
    6.7430   -2.8250   26.3410 N   0  0  0  0  0  0  0  0  0  0  0  0
    7.2230   -3.5760   27.5330 C   0  0  0  0  0  0  0  0  0  0  0  0
    7.4390   -5.0000   27.2060 C   0  0  0  0  0  0  0  0  0  0  0  0
    6.8110   -5.9100   27.8080 O   0  0  0  0  0  0  0  0  0  0  0  0
    8.3320   -5.3970   26.2370 O   0  0  0  0  0  0  0  0  0  0  0  0
    9.5820   -5.9670   26.5400 C   0  0  0  0  0  0  0  0  0  0  0  0
    6.8090   -1.4140   26.3560 C   0  0  0  0  0  0  0  0  0  0  0  0
    5.4580   -0.7150   26.3240 C   0  0  0  0  0  0  0  0  0  0  0  0
    4.8990   -0.3170   27.6600 C   0  0  0  0  0  0  0  0  0  0  0  0
    3.6940    0.3190   27.7300 C   0  0  0  0  0  0  0  0  0  0  0  0
    2.9080    0.6460   26.6500 C   0  0  0  0  0  0  0  0  0  0  0  0
    3.3600    0.3000   25.2700 C   0  0  0  0  0  0  0  0  0  0  0  0
    4.6900   -0.4190   25.0080 C   0  0  0  0  0  0  0  0  0  0  0  0
    5.0920   -0.7440   23.5910 C   0  0  0  0  0  0  0  0  0  0  0  0
    7.5440   -3.1370   23.5720 C   0  0  0  0  0  0  0  0  0  0  0  0
    7.6020   -3.1910   22.1010 C   0  0  0  0  0  0  0  0  0  0  0  0
  1  2  1  0
  2  3  2  0
  2  4  1  0
  4  5  1  0
  5  6  1  0
  6  7  1  0
  7  8  1  0
  8  9  2  0
  8 10  1  0
 10 11  1  0
 11 12  1  0
 12 13  2  0
 12 14  1  0
 14 15  1  0
 10 16  1  0
 16 17  1  0
 17 18  2  0
 18 19  1  0
 19 20  2  0
 20 21  1  0
 17 22  1  0
 21 22  2  0
 22 23  1  0
  7 24  1  0
  4 25  1  0
 24 25  1  0
M  END
