piperidine-amides-26868-covalent
     RDKit          3D

 24 26  0  0  0  0  0  0  0  0999 V2000
    7.0740   -3.3070   19.2530 C   0  0  0  0  0  0  0  0  0  0  0  0
    6.3650   -4.1030   20.2600 C   0  0  0  0  0  0  0  0  0  0  0  0
    5.2840   -4.6320   19.9050 O   0  0  0  0  0  0  0  0  0  0  0  0
    6.9060   -4.3030   21.5300 N   0  0  0  0  0  0  0  0  0  0  0  0
    6.6630   -5.5380   22.2310 C   0  0  0  0  0  0  0  0  0  0  0  0
    6.0100   -5.1820   23.5300 C   0  0  0  0  0  0  0  0  0  0  0  0
    6.7690   -4.1010   24.2460 C   0  0  0  0  0  0  0  0  0  0  0  0
    5.9300   -3.5790   25.3340 C   0  0  0  0  0  0  0  0  0  0  0  0
    4.8770   -2.9670   25.0390 O   0  0  0  0  0  0  0  0  0  0  0  0
    6.2490   -3.7550   26.6800 N   0  0  0  0  0  0  0  0  0  0  0  0
    5.2080   -3.9600   27.6350 C   0  0  0  0  0  0  0  0  0  0  0  0
    5.8680   -4.4810   28.8820 C   0  0  0  0  0  0  0  0  0  0  0  0
    6.9230   -5.1450   28.7550 O   0  0  0  0  0  0  0  0  0  0  0  0
    7.8410   -4.5780   27.8920 C   0  0  0  0  0  0  0  0  0  0  0  0
    7.5020   -3.3770   27.2530 C   0  0  2  0  0  0  0  0  0  0  0  0
    7.2830   -2.2470   28.0290 C   0  0  0  0  0  0  0  0  0  0  0  0
    8.1290   -1.8810   29.0520 C   0  0  0  0  0  0  0  0  0  0  0  0
    7.9300   -0.7670   29.8710 C   0  0  0  0  0  0  0  0  0  0  0  0
    6.7600    0.2020   29.7420 C   0  0  0  0  0  0  0  0  0  0  0  0
    6.4650    1.6310   30.7570 Cl  0  0  0  0  0  0  0  0  0  0  0  0
    5.8850   -0.2610   28.5900 C   0  0  0  0  0  0  0  0  0  0  0  0
    6.1840   -1.4770   27.7750 C   0  0  0  0  0  0  0  0  0  0  0  0
    7.0940   -2.9380   23.3530 C   0  0  0  0  0  0  0  0  0  0  0  0
    7.7380   -3.2920   22.1940 C   0  0  0  0  0  0  0  0  0  0  0  0
  1  2  1  0
  2  3  2  0
  2  4  1  0
  4  5  1  0
  5  6  1  0
  6  7  1  0
  7  8  1  0
  8  9  2  0
  8 10  1  0
 10 11  1  0
 11 12  1  0
 12 13  1  0
 13 14  1  0
 10 15  1  0
 14 15  1  0
 15 16  1  1
 16 17  2  0
 17 18  1  0
 18 19  2  0
 19 20  1  0
 19 21  1  0
 16 22  1  0
 21 22  2  0
  7 23  1  0
  4 24  1  0
 23 24  1  0
M  END
