piperidine-amides-1607-covalent
     RDKit          3D

 21 22  0  0  0  0  0  0  0  0999 V2000
    7.2140   -3.2870   19.2210 C   0  0  0  0  0  0  0  0  0  0  0  0
    6.3950   -4.0420   20.1970 C   0  0  0  0  0  0  0  0  0  0  0  0
    5.2810   -4.4740   19.8610 O   0  0  0  0  0  0  0  0  0  0  0  0
    6.9470   -4.3130   21.4580 N   0  0  0  0  0  0  0  0  0  0  0  0
    6.5100   -5.4530   22.2050 C   0  0  0  0  0  0  0  0  0  0  0  0
    5.6460   -4.8650   23.3140 C   0  0  0  0  0  0  0  0  0  0  0  0
    6.4560   -3.8060   23.9890 C   0  0  0  0  0  0  0  0  0  0  0  0
    5.7630   -3.2830   25.1610 C   0  0  0  0  0  0  0  0  0  0  0  0
    4.8650   -2.4530   24.9940 O   0  0  0  0  0  0  0  0  0  0  0  0
    6.1520   -3.7770   26.3770 N   0  0  0  0  0  0  0  0  0  0  0  0
    6.0790   -3.1640   27.6180 C   0  0  0  0  0  0  0  0  0  0  0  0
    5.7110   -3.8770   28.7030 C   0  0  0  0  0  0  0  0  0  0  0  0
    4.7270   -3.3350   29.5460 C   0  0  0  0  0  0  0  0  0  0  0  0
    3.8620   -4.1900   30.1800 C   0  0  0  0  0  0  0  0  0  0  0  0
    4.0130   -5.6280   29.8840 C   0  0  0  0  0  0  0  0  0  0  0  0
    2.8810   -6.4200   29.6510 N   0  0  0  0  0  0  0  0  0  0  0  0
    3.4070   -7.7210   29.3790 C   0  0  0  0  0  0  0  0  0  0  0  0
    4.9350   -7.8260   29.4290 C   0  0  0  0  0  0  0  0  0  0  0  0
    5.6700   -6.2760   29.8260 S   0  0  0  0  0  0  0  0  0  0  0  0
    6.7900   -2.6420   23.0560 C   0  0  0  0  0  0  0  0  0  0  0  0
    7.6990   -3.2500   22.0750 C   0  0  0  0  0  0  0  0  0  0  0  0
  1  2  1  0
  2  3  2  0
  2  4  1  0
  4  5  1  0
  5  6  1  0
  6  7  1  0
  7  8  1  0
  8  9  2  0
  8 10  1  0
 10 11  1  0
 11 12  1  0
 12 13  1  0
 13 14  1  0
 14 15  1  0
 15 16  2  0
 16 17  1  0
 17 18  2  0
 15 19  1  0
 18 19  1  0
  7 20  1  0
  4 21  1  0
 20 21  1  0
M  END
