piperidine-amides-27415-covalent
     RDKit          3D

 26 28  0  0  0  0  0  0  0  0999 V2000
    6.9980   -3.3630   19.3900 C   0  0  0  0  0  0  0  0  0  0  0  0
    6.3690   -4.2270   20.3990 C   0  0  0  0  0  0  0  0  0  0  0  0
    5.3900   -4.9120   19.9940 O   0  0  0  0  0  0  0  0  0  0  0  0
    6.8600   -4.3110   21.7150 N   0  0  0  0  0  0  0  0  0  0  0  0
    6.7630   -5.5610   22.4470 C   0  0  0  0  0  0  0  0  0  0  0  0
    6.2760   -5.2910   23.8470 C   0  0  0  0  0  0  0  0  0  0  0  0
    6.1330   -3.8190   24.0870 C   0  0  0  0  0  0  0  0  0  0  0  0
    5.5950   -3.4580   25.4350 C   0  0  0  0  0  0  0  0  0  0  0  0
    4.5990   -2.7040   25.4220 O   0  0  0  0  0  0  0  0  0  0  0  0
    6.0550   -3.8660   26.7220 N   0  0  0  0  0  0  0  0  0  0  0  0
    5.8250   -2.9790   27.8260 C   0  0  0  0  0  0  0  0  0  0  0  0
    5.9000   -3.7450   29.1430 C   0  0  0  0  0  0  0  0  0  0  0  0
    4.8930   -4.8190   29.1590 N   0  0  0  0  0  0  0  0  0  0  0  0
    3.6880   -4.6850   29.6920 C   0  0  0  0  0  0  0  0  0  0  0  0
    3.0370   -5.8230   30.1280 C   0  0  0  0  0  0  0  0  0  0  0  0
    2.8570   -6.9470   29.3150 C   0  0  0  0  0  0  0  0  0  0  0  0
    2.1950   -8.1020   29.7600 C   0  0  0  0  0  0  0  0  0  0  0  0
    1.6730   -8.2080   31.0440 C   0  0  0  0  0  0  0  0  0  0  0  0
    0.9600   -9.4560   31.5120 C   0  0  0  0  0  0  0  0  0  0  0  0
    1.2490   -9.8140   32.8630 N   0  0  0  0  0  0  0  0  0  0  0  0
    1.8350   -7.1330   31.8590 C   0  0  0  0  0  0  0  0  0  0  0  0
    2.5380   -5.8940   31.3980 C   0  0  0  0  0  0  0  0  0  0  0  0
    4.9890   -5.5170   27.8840 C   0  0  0  0  0  0  0  0  0  0  0  0
    6.0220   -5.2450   27.0730 C   0  0  0  0  0  0  0  0  0  0  0  0
    7.4680   -3.1710   23.7830 C   0  0  0  0  0  0  0  0  0  0  0  0
    7.7250   -3.2680   22.2800 C   0  0  0  0  0  0  0  0  0  0  0  0
  1  2  1  0
  2  3  2  0
  2  4  1  0
  4  5  1  0
  5  6  1  0
  6  7  1  0
  7  8  1  0
  8  9  2  0
  8 10  1  0
 10 11  1  0
 11 12  1  0
 12 13  1  0
 13 14  1  0
 14 15  1  0
 15 16  2  0
 16 17  1  0
 17 18  2  0
 18 19  1  0
 19 20  3  0
 18 21  1  0
 15 22  1  0
 21 22  2  0
 13 23  1  0
 10 24  1  0
 23 24  1  0
  7 25  1  0
  4 26  1  0
 25 26  1  0
M  END
