piperidine-amides-24087-covalent
     RDKit          3D

 24 26  0  0  0  0  0  0  0  0999 V2000
    7.0920   -3.2890   19.2290 C   0  0  0  0  0  0  0  0  0  0  0  0
    6.3870   -4.0470   20.2760 C   0  0  0  0  0  0  0  0  0  0  0  0
    5.3300   -4.6260   19.9230 O   0  0  0  0  0  0  0  0  0  0  0  0
    6.9040   -4.1600   21.5990 N   0  0  0  0  0  0  0  0  0  0  0  0
    6.5610   -5.3040   22.3690 C   0  0  0  0  0  0  0  0  0  0  0  0
    5.9940   -4.9460   23.6560 C   0  0  0  0  0  0  0  0  0  0  0  0
    6.2090   -3.5250   23.9900 C   0  0  0  0  0  0  0  0  0  0  0  0
    5.7990   -3.2300   25.4090 C   0  0  0  0  0  0  0  0  0  0  0  0
    4.9530   -3.9780   25.9290 O   0  0  0  0  0  0  0  0  0  0  0  0
    6.2680   -2.1420   26.1870 N   0  0  0  0  0  0  0  0  0  0  0  0
    5.7280   -0.8730   26.1530 C   0  0  0  0  0  0  0  0  0  0  0  0
    5.3110   -1.0420   27.4980 C   0  0  0  0  0  0  0  0  0  0  0  0
    6.0840   -0.2690   28.5910 C   0  0  0  0  0  0  0  0  0  0  0  0
    6.6220   -0.9450   29.6660 C   0  0  0  0  0  0  0  0  0  0  0  0
    7.3980   -0.1850   30.7950 C   0  0  0  0  0  0  0  0  0  0  0  0
    7.5480    1.3340   30.6820 C   0  0  0  0  0  0  0  0  0  0  0  0
    8.2530    1.9470   31.7290 F   0  0  0  0  0  0  0  0  0  0  0  0
    6.8970    1.9250   29.4320 C   0  0  0  0  0  0  0  0  0  0  0  0
    6.8920    3.2760   29.0880 O   0  0  0  0  0  0  0  0  0  0  0  0
    7.2430    3.7020   27.7710 C   0  0  0  0  0  0  0  0  0  0  0  0
    6.1920    1.0810   28.4410 C   0  0  0  0  0  0  0  0  0  0  0  0
    6.1000   -2.3670   27.6500 C   0  0  0  0  0  0  0  0  0  0  0  0
    7.6050   -3.1450   23.6160 C   0  0  0  0  0  0  0  0  0  0  0  0
    7.6710   -3.0730   22.2120 C   0  0  0  0  0  0  0  0  0  0  0  0
  1  2  1  0
  2  3  2  0
  2  4  1  0
  4  5  1  0
  5  6  1  0
  6  7  1  0
  7  8  1  0
  8  9  2  0
  8 10  1  0
 10 11  1  0
 11 12  1  0
 12 13  1  0
 13 14  2  0
 14 15  1  0
 15 16  2  0
 16 17  1  0
 16 18  1  0
 18 19  1  0
 19 20  1  0
 13 21  1  0
 18 21  2  0
 10 22  1  0
 12 22  1  0
  7 23  1  0
  4 24  1  0
 23 24  1  0
M  END
