piperidine-amides-588-covalent
     RDKit          3D

 26 28  0  0  0  0  0  0  0  0999 V2000
    7.2100   -3.2920   19.3040 C   0  0  0  0  0  0  0  0  0  0  0  0
    6.4570   -4.0830   20.2470 C   0  0  0  0  0  0  0  0  0  0  0  0
    5.3340   -4.5650   19.8930 O   0  0  0  0  0  0  0  0  0  0  0  0
    6.9790   -4.3740   21.5120 N   0  0  0  0  0  0  0  0  0  0  0  0
    6.5200   -5.6090   22.1730 C   0  0  0  0  0  0  0  0  0  0  0  0
    5.3830   -4.9910   23.0580 C   0  0  0  0  0  0  0  0  0  0  0  0
    6.0590   -3.8930   23.8400 C   0  0  0  0  0  0  0  0  0  0  0  0
    5.0610   -3.3680   24.9380 C   0  0  0  0  0  0  0  0  0  0  0  0
    4.0780   -2.8390   24.4460 O   0  0  0  0  0  0  0  0  0  0  0  0
    5.5780   -3.6470   26.0380 N   0  0  0  0  0  0  0  0  0  0  0  0
    6.1900   -3.9030   27.1920 C   0  0  0  0  0  0  0  0  0  0  0  0
    7.1700   -3.4190   27.9430 C   0  0  0  0  0  0  0  0  0  0  0  0
    6.9000   -2.4110   28.9200 C   0  0  0  0  0  0  0  0  0  0  0  0
    7.8940   -1.4050   29.3350 C   0  0  0  0  0  0  0  0  0  0  0  0
    7.3910   -0.4120   30.3870 C   0  0  0  0  0  0  0  0  0  0  0  0
    6.0830   -0.5100   30.8710 C   0  0  0  0  0  0  0  0  0  0  0  0
    4.9650   -1.3300   30.6710 C   0  0  0  0  0  0  0  0  0  0  0  0
    5.5610   -2.2740   29.6230 C   0  0  0  0  0  0  0  0  0  0  0  0
    4.3600   -3.4590   29.1620 Cl  0  0  0  0  0  0  0  0  0  0  0  0
    7.8800   -2.4120   27.1020 C   0  0  0  0  0  0  0  0  0  0  0  0
    8.2780   -3.0570   25.9740 C   0  0  0  0  0  0  0  0  0  0  0  0
    8.6600   -4.2630   26.0820 O   0  0  0  0  0  0  0  0  0  0  0  0
    8.3930   -5.1230   27.1980 C   0  0  0  0  0  0  0  0  0  0  0  0
    8.0350   -4.5420   28.3980 C   0  0  0  0  0  0  0  0  0  0  0  0
    6.7220   -2.7890   23.0780 C   0  0  0  0  0  0  0  0  0  0  0  0
    7.6770   -3.3840   22.2740 C   0  0  0  0  0  0  0  0  0  0  0  0
  1  2  1  0
  2  3  2  0
  2  4  1  0
  4  5  1  0
  5  6  1  0
  6  7  1  0
  7  8  1  0
  8  9  2  0
  8 10  1  0
 10 11  1  0
 12 11  1  0
 12 13  1  0
 13 14  2  0
 14 15  1  0
 15 16  2  0
 16 17  1  0
 13 18  1  0
 17 18  2  0
 18 19  1  0
 12 20  1  0
 20 21  1  0
 21 22  1  0
 22 23  1  0
 12 24  1  0
 23 24  1  0
  7 25  1  0
  4 26  1  0
 25 26  1  0
M  END
