piperidine-amides-12775-covalent
     RDKit          3D

 22 23  0  0  0  0  0  0  0  0999 V2000
    7.1350   -3.2960   19.2160 C   0  0  0  0  0  0  0  0  0  0  0  0
    6.4130   -4.0760   20.2410 C   0  0  0  0  0  0  0  0  0  0  0  0
    5.3090   -4.5400   19.8940 O   0  0  0  0  0  0  0  0  0  0  0  0
    6.9830   -4.3390   21.5010 N   0  0  0  0  0  0  0  0  0  0  0  0
    7.6370   -3.2910   22.2220 C   0  0  0  0  0  0  0  0  0  0  0  0
    6.8400   -2.8930   23.3650 C   0  0  0  0  0  0  0  0  0  0  0  0
    5.5930   -3.6810   23.3860 C   0  0  0  0  0  0  0  0  0  0  0  0
    4.6430   -3.2840   24.4390 C   0  0  0  0  0  0  0  0  0  0  0  0
    3.4340   -3.3770   24.2060 O   0  0  0  0  0  0  0  0  0  0  0  0
    5.0330   -2.8230   25.6760 N   0  0  0  0  0  0  0  0  0  0  0  0
    4.9040   -3.6590   26.8630 C   0  0  1  0  0  0  0  0  0  0  0  0
    4.8750   -5.1380   26.6060 C   0  0  0  0  0  0  0  0  0  0  0  0
    6.0900   -3.3840   27.5290 C   0  0  0  0  0  0  0  0  0  0  0  0
    6.9970   -4.3500   27.3850 C   0  0  0  0  0  0  0  0  0  0  0  0
    8.1940   -4.3550   27.8910 C   0  0  0  0  0  0  0  0  0  0  0  0
    9.1670   -5.7530   27.5360 Cl  0  0  0  0  0  0  0  0  0  0  0  0
    8.5080   -3.2700   28.6210 C   0  0  0  0  0  0  0  0  0  0  0  0
    7.6330   -2.2490   28.8020 C   0  0  0  0  0  0  0  0  0  0  0  0
    6.4100   -2.2860   28.2640 C   0  0  0  0  0  0  0  0  0  0  0  0
    5.3590   -0.8940   28.5760 Cl  0  0  0  0  0  0  0  0  0  0  0  0
    5.9060   -5.1520   23.4360 C   0  0  0  0  0  0  0  0  0  0  0  0
    6.6740   -5.5550   22.2320 C   0  0  0  0  0  0  0  0  0  0  0  0
  1  2  1  0
  2  3  2  0
  2  4  1  0
  4  5  1  0
  5  6  1  0
  6  7  1  0
  7  8  1  0
  8  9  2  0
  8 10  1  0
 10 11  1  0
 11 12  1  6
 11 13  1  0
 13 14  2  0
 14 15  1  0
 15 16  1  0
 15 17  2  0
 17 18  1  0
 13 19  1  0
 18 19  2  0
 19 20  1  0
  7 21  1  0
  4 22  1  0
 21 22  1  0
M  END
