piperidine-amides-3155-covalent
     RDKit          3D

 22 23  0  0  0  0  0  0  0  0999 V2000
    7.1350   -3.2580   19.2170 C   0  0  0  0  0  0  0  0  0  0  0  0
    6.3340   -3.9970   20.1930 C   0  0  0  0  0  0  0  0  0  0  0  0
    5.2690   -4.5120   19.8660 O   0  0  0  0  0  0  0  0  0  0  0  0
    6.8070   -4.1620   21.5290 N   0  0  0  0  0  0  0  0  0  0  0  0
    6.4510   -5.3550   22.2610 C   0  0  0  0  0  0  0  0  0  0  0  0
    5.8020   -5.0120   23.5740 C   0  0  0  0  0  0  0  0  0  0  0  0
    6.5890   -3.8610   24.1800 C   0  0  0  0  0  0  0  0  0  0  0  0
    5.9570   -3.4670   25.4670 C   0  0  0  0  0  0  0  0  0  0  0  0
    4.7640   -3.1030   25.5430 O   0  0  0  0  0  0  0  0  0  0  0  0
    6.7520   -3.5150   26.6390 N   0  0  0  0  0  0  0  0  0  0  0  0
    7.9810   -4.2790   26.6100 C   0  0  0  0  0  0  0  0  0  0  0  0
    8.9870   -3.4420   25.8580 C   0  0  0  0  0  0  0  0  0  0  0  0
    8.8090   -2.2730   25.1280 C   0  0  0  0  0  0  0  0  0  0  0  0
    9.9680   -1.7590   24.5600 C   0  0  0  0  0  0  0  0  0  0  0  0
   11.0520   -2.5240   24.8480 C   0  0  0  0  0  0  0  0  0  0  0  0
   12.3500   -2.1250   24.3270 C   0  0  0  0  0  0  0  0  0  0  0  0
   13.4540   -2.7400   24.8420 C   0  0  0  0  0  0  0  0  0  0  0  0
   12.2980   -2.0690   22.9650 C   0  0  0  0  0  0  0  0  0  0  0  0
   12.7630   -0.8370   24.6100 C   0  0  0  0  0  0  0  0  0  0  0  0
   10.7180   -3.8920   25.8130 S   0  0  0  0  0  0  0  0  0  0  0  0
    6.7660   -2.7340   23.2920 C   0  0  0  0  0  0  0  0  0  0  0  0
    7.5180   -3.1040   22.2060 C   0  0  0  0  0  0  0  0  0  0  0  0
  1  2  1  0
  2  3  2  0
  2  4  1  0
  4  5  1  0
  5  6  1  0
  6  7  1  0
  7  8  1  0
  8  9  2  0
  8 10  1  0
 10 11  1  0
 11 12  1  0
 12 13  2  0
 13 14  1  0
 14 15  2  0
 15 16  1  0
 16 17  1  0
 16 18  1  0
 16 19  1  0
 12 20  1  0
 15 20  1  0
  7 21  1  0
  4 22  1  0
 21 22  1  0
M  END
