piperidine-amides-2852-covalent
     RDKit          3D

 24 25  0  0  0  0  0  0  0  0999 V2000
    7.0630   -3.3380   19.2880 C   0  0  0  0  0  0  0  0  0  0  0  0
    6.3670   -4.1430   20.2800 C   0  0  0  0  0  0  0  0  0  0  0  0
    5.3450   -4.7530   19.9600 O   0  0  0  0  0  0  0  0  0  0  0  0
    6.9020   -4.2810   21.6070 N   0  0  0  0  0  0  0  0  0  0  0  0
    7.7160   -3.2320   22.1680 C   0  0  0  0  0  0  0  0  0  0  0  0
    7.0540   -2.6720   23.3830 C   0  0  0  0  0  0  0  0  0  0  0  0
    6.5350   -3.8330   24.2110 C   0  0  0  0  0  0  0  0  0  0  0  0
    5.7650   -3.2990   25.3630 C   0  0  0  0  0  0  0  0  0  0  0  0
    4.5340   -3.1130   25.3160 O   0  0  0  0  0  0  0  0  0  0  0  0
    6.4670   -3.0060   26.5510 N   0  0  0  0  0  0  0  0  0  0  0  0
    6.3830   -1.6870   27.1350 C   0  0  0  0  0  0  0  0  0  0  0  0
    7.0090   -1.6180   28.4910 C   0  0  0  0  0  0  0  0  0  0  0  0
    7.0200   -0.4470   29.2020 C   0  0  0  0  0  0  0  0  0  0  0  0
    6.4330    0.7050   28.6490 C   0  0  0  0  0  0  0  0  0  0  0  0
    6.4730    1.8680   29.4240 O   0  0  0  0  0  0  0  0  0  0  0  0
    6.0460    1.8100   30.7700 C   0  0  0  0  0  0  0  0  0  0  0  0
    4.7800    1.0880   30.8590 C   0  0  0  0  0  0  0  0  0  0  0  0
    5.7250    2.9790   31.3990 C   0  0  0  0  0  0  0  0  0  0  0  0
    5.8450    0.6870   27.4010 C   0  0  0  0  0  0  0  0  0  0  0  0
    5.3480    1.7690   27.0000 O   0  0  0  0  0  0  0  0  0  0  0  0
    3.9980    1.6100   26.8180 C   0  0  0  0  0  0  0  0  0  0  0  0
    5.8040   -0.5350   26.5920 C   0  0  0  0  0  0  0  0  0  0  0  0
    5.7150   -4.8450   23.4280 C   0  0  0  0  0  0  0  0  0  0  0  0
    6.5300   -5.3840   22.4400 C   0  0  0  0  0  0  0  0  0  0  0  0
  1  2  1  0
  2  3  2  0
  2  4  1  0
  4  5  1  0
  5  6  1  0
  6  7  1  0
  7  8  1  0
  8  9  2  0
  8 10  1  0
 10 11  1  0
 11 12  2  0
 12 13  1  0
 13 14  2  0
 14 15  1  0
 15 16  1  0
 16 17  1  0
 16 18  1  0
 14 19  1  0
 19 20  1  0
 20 21  1  0
 11 22  1  0
 19 22  2  0
  7 23  1  0
  4 24  1  0
 23 24  1  0
M  END
