piperidine-amides-13107-covalent
     RDKit          3D

 20 21  0  0  0  0  0  0  0  0999 V2000
    7.0930   -3.3040   19.2680 C   0  0  0  0  0  0  0  0  0  0  0  0
    6.3350   -4.0510   20.2980 C   0  0  0  0  0  0  0  0  0  0  0  0
    5.2820   -4.5940   19.9060 O   0  0  0  0  0  0  0  0  0  0  0  0
    6.8090   -4.1730   21.6190 N   0  0  0  0  0  0  0  0  0  0  0  0
    6.4870   -5.3460   22.3680 C   0  0  0  0  0  0  0  0  0  0  0  0
    5.8450   -5.0330   23.6410 C   0  0  0  0  0  0  0  0  0  0  0  0
    5.9000   -3.5940   23.9540 C   0  0  0  0  0  0  0  0  0  0  0  0
    5.5190   -3.3360   25.3710 C   0  0  0  0  0  0  0  0  0  0  0  0
    4.3020   -3.2540   25.6620 O   0  0  0  0  0  0  0  0  0  0  0  0
    6.4920   -3.1640   26.3760 N   0  0  0  0  0  0  0  0  0  0  0  0
    6.2000   -3.3300   27.8210 C   0  0  0  0  0  0  0  0  0  0  0  0
    5.6400   -4.6670   28.1730 C   0  0  0  0  0  0  0  0  0  0  0  0
    6.4230   -5.7260   28.7870 C   0  0  0  0  0  0  0  0  0  0  0  0
    5.9690   -6.9580   29.1360 C   0  0  0  0  0  0  0  0  0  0  0  0
    4.6690   -7.3200   28.9240 C   0  0  0  0  0  0  0  0  0  0  0  0
    3.8240   -6.4160   28.3530 C   0  0  0  0  0  0  0  0  0  0  0  0
    1.9830   -6.7750   28.0000 Br  0  0  0  0  0  0  0  0  0  0  0  0
    4.2940   -5.1220   27.9850 N   0  0  0  0  0  0  0  0  0  0  0  0
    7.1760   -2.9010   23.5720 C   0  0  0  0  0  0  0  0  0  0  0  0
    7.5910   -3.1480   22.2830 C   0  0  0  0  0  0  0  0  0  0  0  0
  1  2  1  0
  2  3  2  0
  2  4  1  0
  4  5  1  0
  5  6  1  0
  6  7  1  0
  7  8  1  0
  8  9  2  0
  8 10  1  0
 10 11  1  0
 11 12  1  0
 12 13  2  0
 13 14  1  0
 14 15  2  0
 15 16  1  0
 16 17  1  0
 12 18  1  0
 16 18  2  0
  7 19  1  0
  4 20  1  0
 19 20  1  0
M  END
