piperidine-amides-32291-covalent
     RDKit          3D

 24 26  0  0  0  0  0  0  0  0999 V2000
    7.0870   -3.3940   19.4470 C   0  0  0  0  0  0  0  0  0  0  0  0
    6.4060   -4.2890   20.4140 C   0  0  0  0  0  0  0  0  0  0  0  0
    5.4140   -4.9310   20.0130 O   0  0  0  0  0  0  0  0  0  0  0  0
    6.9320   -4.4260   21.7290 N   0  0  0  0  0  0  0  0  0  0  0  0
    6.5440   -5.4930   22.5900 C   0  0  0  0  0  0  0  0  0  0  0  0
    5.5860   -4.8750   23.6250 C   0  0  0  0  0  0  0  0  0  0  0  0
    6.2310   -3.7410   24.3960 C   0  0  0  0  0  0  0  0  0  0  0  0
    5.2540   -3.2010   25.4100 C   0  0  0  0  0  0  0  0  0  0  0  0
    4.2560   -2.7010   24.8950 O   0  0  0  0  0  0  0  0  0  0  0  0
    5.4100   -3.2450   26.8210 N   0  0  0  0  0  0  0  0  0  0  0  0
    4.6420   -2.6110   27.7970 C   0  0  0  0  0  0  0  0  0  0  0  0
    4.4890   -3.2270   29.0120 C   0  0  0  0  0  0  0  0  0  0  0  0
    4.9840   -4.5200   29.1720 C   0  0  0  0  0  0  0  0  0  0  0  0
    5.8730   -5.0230   28.2920 C   0  0  0  0  0  0  0  0  0  0  0  0
    6.3890   -6.3670   28.4790 C   0  0  0  0  0  0  0  0  0  0  0  0
    5.9340   -7.2230   29.6480 C   0  0  0  0  0  0  0  0  0  0  0  0
    4.9120   -6.5690   30.5810 C   0  0  0  0  0  0  0  0  0  0  0  0
    4.4940   -7.3550   31.6390 O   0  0  0  0  0  0  0  0  0  0  0  0
    5.5850   -7.6950   32.4050 C   0  0  0  0  0  0  0  0  0  0  0  0
    4.4580   -5.1720   30.2820 C   0  0  0  0  0  0  0  0  0  0  0  0
    3.1720   -4.3380   31.4280 Br  0  0  0  0  0  0  0  0  0  0  0  0
    6.2660   -4.2720   27.2330 C   0  0  0  0  0  0  0  0  0  0  0  0
    6.7490   -2.7230   23.4490 C   0  0  0  0  0  0  0  0  0  0  0  0
    7.6500   -3.3600   22.3670 C   0  0  0  0  0  0  0  0  0  0  0  0
  1  2  1  0
  2  3  2  0
  2  4  1  0
  4  5  1  0
  5  6  1  0
  6  7  1  0
  7  8  1  0
  8  9  2  0
  8 10  1  0
 10 11  1  0
 11 12  1  0
 12 13  1  0
 13 14  2  0
 14 15  1  0
 15 16  2  0
 16 17  1  0
 17 18  1  0
 18 19  1  0
 13 20  1  0
 17 20  2  0
 20 21  1  0
 10 22  1  0
 14 22  1  0
  7 23  1  0
  4 24  1  0
 23 24  1  0
M  END
