piperidine-amides-31702-covalent
     RDKit          3D

 28 30  0  0  0  0  0  0  0  0999 V2000
    7.1080   -3.3640   19.5250 C   0  0  0  0  0  0  0  0  0  0  0  0
    6.3830   -4.1880   20.4670 C   0  0  0  0  0  0  0  0  0  0  0  0
    5.4350   -4.9080   20.0060 O   0  0  0  0  0  0  0  0  0  0  0  0
    6.7100   -4.2480   21.8500 N   0  0  0  0  0  0  0  0  0  0  0  0
    6.5980   -5.5960   22.4740 C   0  0  0  0  0  0  0  0  0  0  0  0
    6.1030   -5.2690   23.9460 C   0  0  0  0  0  0  0  0  0  0  0  0
    5.9710   -3.7650   24.0140 C   0  0  0  0  0  0  0  0  0  0  0  0
    4.8590   -3.2250   25.0710 C   0  0  0  0  0  0  0  0  0  0  0  0
    3.8210   -3.1170   24.4560 O   0  0  0  0  0  0  0  0  0  0  0  0
    5.2380   -3.0230   26.2900 N   0  0  0  0  0  0  0  0  0  0  0  0
    5.3130   -2.5390   27.5480 C   0  0  0  0  0  0  0  0  0  0  0  0
    5.8320   -3.0140   28.7160 C   0  0  0  0  0  0  0  0  0  0  0  0
    5.8390   -4.4700   28.6370 N   0  0  0  0  0  0  0  0  0  0  0  0
    5.4020   -5.2730   29.5990 C   0  0  0  0  0  0  0  0  0  0  0  0
    6.3060   -6.4300   29.6630 C   0  0  0  0  0  0  0  0  0  0  0  0
    5.9010   -7.4140   30.8080 C   0  0  0  0  0  0  0  0  0  0  0  0
    4.7630   -7.0600   31.5890 C   0  0  0  0  0  0  0  0  0  0  0  0
    4.3900   -7.9080   32.6370 C   0  0  0  0  0  0  0  0  0  0  0  0
    5.4070   -8.0510   33.5290 O   0  0  0  0  0  0  0  0  0  0  0  0
    3.1740   -8.5400   32.8050 O   0  0  0  0  0  0  0  0  0  0  0  0
    2.8390   -9.2450   33.9900 C   0  0  0  0  0  0  0  0  0  0  0  0
    4.1410   -9.7410   34.7060 C   0  0  0  0  0  0  0  0  0  0  0  0
    4.0020   -5.7980   31.2810 C   0  0  0  0  0  0  0  0  0  0  0  0
    4.3320   -4.9240   30.2910 N   0  0  0  0  0  0  0  0  0  0  0  0
    5.7770   -5.0160   27.3260 C   0  0  0  0  0  0  0  0  0  0  0  0
    6.1860   -4.0230   26.4790 C   0  0  0  0  0  0  0  0  0  0  0  0
    7.2130   -2.9820   23.7550 C   0  0  0  0  0  0  0  0  0  0  0  0
    7.6250   -3.2860   22.4430 C   0  0  0  0  0  0  0  0  0  0  0  0
  1  2  1  0
  2  3  2  0
  2  4  1  0
  4  5  1  0
  5  6  1  0
  6  7  1  0
  7  8  1  0
  8  9  2  0
  8 10  1  0
 10 11  1  0
 11 12  1  0
 12 13  1  0
 13 14  1  0
 14 15  2  0
 15 16  1  0
 16 17  2  0
 17 18  1  0
 18 19  2  0
 18 20  1  0
 20 21  1  0
 21 22  1  0
 17 23  1  0
 14 24  1  0
 23 24  2  0
 13 25  1  0
 10 26  1  0
 25 26  1  0
  7 27  1  0
  4 28  1  0
 27 28  1  0
M  END
