piperidine-amides-28730-covalent
     RDKit          3D

 26 28  0  0  0  0  0  0  0  0999 V2000
    7.0520   -3.3420   19.3280 C   0  0  0  0  0  0  0  0  0  0  0  0
    6.3940   -4.1940   20.3130 C   0  0  0  0  0  0  0  0  0  0  0  0
    5.3670   -4.8050   19.9710 O   0  0  0  0  0  0  0  0  0  0  0  0
    6.9540   -4.3550   21.6050 N   0  0  0  0  0  0  0  0  0  0  0  0
    6.5670   -5.5000   22.3620 C   0  0  0  0  0  0  0  0  0  0  0  0
    5.6900   -5.0400   23.4920 C   0  0  0  0  0  0  0  0  0  0  0  0
    6.5150   -4.0730   24.3170 C   0  0  0  0  0  0  0  0  0  0  0  0
    5.7000   -3.5510   25.4780 C   0  0  0  0  0  0  0  0  0  0  0  0
    4.7210   -2.8850   25.1570 O   0  0  0  0  0  0  0  0  0  0  0  0
    6.0550   -3.8240   26.8100 N   0  0  0  0  0  0  0  0  0  0  0  0
    5.7650   -2.8950   27.8330 C   0  0  0  0  0  0  0  0  0  0  0  0
    5.5900   -3.4890   29.0880 C   0  0  0  0  0  0  0  0  0  0  0  0
    5.1330   -4.6480   29.1310 O   0  0  0  0  0  0  0  0  0  0  0  0
    4.9990   -5.3460   27.9760 C   0  0  2  0  0  0  0  0  0  0  0  0
    4.6040   -6.6750   27.9600 C   0  0  0  0  0  0  0  0  0  0  0  0
    4.1110   -7.1410   26.9040 O   0  0  0  0  0  0  0  0  0  0  0  0
    2.7990   -7.6790   26.9380 C   0  0  0  0  0  0  0  0  0  0  0  0
    1.8780   -7.2380   28.1000 C   0  0  0  0  0  0  0  0  0  0  0  0
    0.4830   -7.7570   28.2090 C   0  0  0  0  0  0  0  0  0  0  0  0
    0.0110   -8.7220   27.1490 C   0  0  0  0  0  0  0  0  0  0  0  0
   -1.2690   -9.2390   27.1940 F   0  0  0  0  0  0  0  0  0  0  0  0
    1.0200   -9.0920   26.0320 C   0  0  0  0  0  0  0  0  0  0  0  0
    2.3020   -8.6390   25.8940 C   0  0  0  0  0  0  0  0  0  0  0  0
    6.1070   -5.1860   27.2600 C   0  0  0  0  0  0  0  0  0  0  0  0
    7.0120   -2.9010   23.5340 C   0  0  0  0  0  0  0  0  0  0  0  0
    7.6800   -3.2920   22.2480 C   0  0  0  0  0  0  0  0  0  0  0  0
  1  2  1  0
  2  3  2  0
  2  4  1  0
  4  5  1  0
  5  6  1  0
  6  7  1  0
  7  8  1  0
  8  9  2  0
  8 10  1  0
 10 11  1  0
 11 12  1  0
 12 13  1  0
 13 14  1  0
 14 15  1  1
 15 16  1  0
 16 17  1  0
 17 18  2  0
 18 19  1  0
 19 20  2  0
 20 21  1  0
 20 22  1  0
 17 23  1  0
 22 23  2  0
 10 24  1  0
 14 24  1  0
  7 25  1  0
  4 26  1  0
 25 26  1  0
M  END
