piperidine-amides-10063-covalent
     RDKit          3D

 25 27  0  0  0  0  0  0  0  0999 V2000
    7.0190   -3.3500   19.3680 C   0  0  0  0  0  0  0  0  0  0  0  0
    6.3710   -4.1890   20.3830 C   0  0  0  0  0  0  0  0  0  0  0  0
    5.3900   -4.8740   19.9860 O   0  0  0  0  0  0  0  0  0  0  0  0
    6.8570   -4.2360   21.6980 N   0  0  0  0  0  0  0  0  0  0  0  0
    6.7110   -5.4370   22.4950 C   0  0  0  0  0  0  0  0  0  0  0  0
    6.0730   -5.0710   23.8090 C   0  0  0  0  0  0  0  0  0  0  0  0
    6.0500   -3.5800   24.0350 C   0  0  0  0  0  0  0  0  0  0  0  0
    5.5840   -3.2280   25.4060 C   0  0  0  0  0  0  0  0  0  0  0  0
    4.3490   -3.2680   25.5970 O   0  0  0  0  0  0  0  0  0  0  0  0
    6.4010   -2.8490   26.4990 N   0  0  0  0  0  0  0  0  0  0  0  0
    6.6390   -1.4570   26.8320 C   0  0  2  0  0  0  0  0  0  0  0  0
    7.1720   -1.3840   28.2530 C   0  0  0  0  0  0  0  0  0  0  0  0
    6.6550   -0.5440   29.1880 C   0  0  0  0  0  0  0  0  0  0  0  0
    5.8340    0.5000   28.8180 C   0  0  2  0  0  0  0  0  0  0  0  0
    4.6320    0.5390   29.5170 C   0  0  0  0  0  0  0  0  0  0  0  0
    3.8410   -0.5930   29.6680 C   0  0  0  0  0  0  0  0  0  0  0  0
    2.6290   -0.6010   30.3640 C   0  0  0  0  0  0  0  0  0  0  0  0
    2.0100    0.6150   31.0490 C   0  0  0  0  0  0  0  0  0  0  0  0
    0.8360    0.6080   31.7230 F   0  0  0  0  0  0  0  0  0  0  0  0
    2.9410    1.8010   30.8320 C   0  0  0  0  0  0  0  0  0  0  0  0
    4.2230    1.7160   30.0690 C   0  0  0  0  0  0  0  0  0  0  0  0
    5.7200    0.6320   27.4380 C   0  0  0  0  0  0  0  0  0  0  0  0
    5.6260   -0.5110   26.6530 C   0  0  0  0  0  0  0  0  0  0  0  0
    7.4310   -3.0350   23.7250 C   0  0  0  0  0  0  0  0  0  0  0  0
    7.7270   -3.1990   22.2420 C   0  0  0  0  0  0  0  0  0  0  0  0
  1  2  1  0
  2  3  2  0
  2  4  1  0
  4  5  1  0
  5  6  1  0
  6  7  1  0
  7  8  1  0
  8  9  2  0
  8 10  1  0
 11 10  1  1
 11 12  1  0
 12 13  1  0
 13 14  1  0
 14 15  1  1
 15 16  2  0
 16 17  1  0
 17 18  2  0
 18 19  1  0
 18 20  1  0
 15 21  1  0
 20 21  2  0
 14 22  1  0
 11 23  1  0
 22 23  1  0
  7 24  1  0
  4 25  1  0
 24 25  1  0
M  END
