piperidine-amides-15036-covalent
     RDKit          3D

 21 22  0  0  0  0  0  0  0  0999 V2000
    7.0100   -3.3440   19.3870 C   0  0  0  0  0  0  0  0  0  0  0  0
    6.3610   -4.1990   20.3810 C   0  0  0  0  0  0  0  0  0  0  0  0
    5.4090   -4.9050   19.9980 O   0  0  0  0  0  0  0  0  0  0  0  0
    6.8310   -4.2440   21.7280 N   0  0  0  0  0  0  0  0  0  0  0  0
    6.6590   -5.4600   22.4840 C   0  0  0  0  0  0  0  0  0  0  0  0
    6.0410   -5.1510   23.8250 C   0  0  0  0  0  0  0  0  0  0  0  0
    6.0150   -3.6500   23.9340 C   0  0  0  0  0  0  0  0  0  0  0  0
    5.5110   -3.2070   25.2890 C   0  0  0  0  0  0  0  0  0  0  0  0
    4.2880   -3.1660   25.3880 O   0  0  0  0  0  0  0  0  0  0  0  0
    6.3830   -2.8890   26.3260 N   0  0  0  0  0  0  0  0  0  0  0  0
    6.7470   -1.5400   26.6590 C   0  0  1  0  0  0  0  0  0  0  0  0
    5.7840   -0.5270   26.5500 C   0  0  0  0  0  0  0  0  0  0  0  0
    5.5950    0.1360   27.7320 C   0  0  0  0  0  0  0  0  0  0  0  0
    6.0360   -0.6910   28.8050 N   0  0  0  0  0  0  0  0  0  0  0  0
    6.2250   -0.0320   30.0480 C   0  0  0  0  0  0  0  0  0  0  0  0
    5.1130   -0.4200   30.9740 C   0  0  0  0  0  0  0  0  0  0  0  0
    7.4830   -0.4540   30.4120 C   0  0  0  0  0  0  0  0  0  0  0  0
    6.4140    1.3530   29.9840 C   0  0  0  0  0  0  0  0  0  0  0  0
    7.0100   -1.5580   28.1730 C   0  0  0  0  0  0  0  0  0  0  0  0
    7.2690   -2.9680   23.5950 C   0  0  0  0  0  0  0  0  0  0  0  0
    7.6810   -3.2080   22.2990 C   0  0  0  0  0  0  0  0  0  0  0  0
  1  2  1  0
  2  3  2  0
  2  4  1  0
  4  5  1  0
  5  6  1  0
  6  7  1  0
  7  8  1  0
  8  9  2  0
  8 10  1  0
 11 10  1  1
 11 12  1  0
 12 13  1  0
 13 14  1  0
 14 15  1  0
 15 16  1  0
 15 17  1  0
 15 18  1  0
 11 19  1  0
 14 19  1  0
  7 20  1  0
  4 21  1  0
 20 21  1  0
M  END
