piperidine-amides-1321-covalent
     RDKit          3D

 22 24  0  0  0  0  0  0  0  0999 V2000
    7.1170   -3.2640   19.1870 C   0  0  0  0  0  0  0  0  0  0  0  0
    6.3470   -4.0400   20.2020 C   0  0  0  0  0  0  0  0  0  0  0  0
    5.2640   -4.5520   19.8770 O   0  0  0  0  0  0  0  0  0  0  0  0
    6.8870   -4.2250   21.4850 N   0  0  0  0  0  0  0  0  0  0  0  0
    6.5620   -5.3860   22.2690 C   0  0  0  0  0  0  0  0  0  0  0  0
    5.7130   -4.8810   23.4350 C   0  0  0  0  0  0  0  0  0  0  0  0
    6.4460   -3.7310   24.0620 C   0  0  0  0  0  0  0  0  0  0  0  0
    5.6530   -3.0920   25.1330 C   0  0  0  0  0  0  0  0  0  0  0  0
    4.4860   -2.7920   24.8530 O   0  0  0  0  0  0  0  0  0  0  0  0
    6.2160   -2.8610   26.3860 N   0  0  0  0  0  0  0  0  0  0  0  0
    5.8860   -3.5610   27.5680 C   0  0  0  0  0  0  0  0  0  0  0  0
    6.4530   -4.7510   27.8870 C   0  0  0  0  0  0  0  0  0  0  0  0
    7.8220   -4.6420   27.6870 C   0  0  0  0  0  0  0  0  0  0  0  0
    8.2490   -3.4350   28.2090 O   0  0  0  0  0  0  0  0  0  0  0  0
    8.5890   -5.6770   28.0760 C   0  0  0  0  0  0  0  0  0  0  0  0
    9.0470   -5.7940   26.7480 C   0  0  0  0  0  0  0  0  0  0  0  0
    8.1530   -4.6290   26.2880 C   0  0  0  0  0  0  0  0  0  0  0  0
    6.1340   -5.4060   29.0780 C   0  0  0  0  0  0  0  0  0  0  0  0
    5.5090   -6.4470   28.5900 C   0  0  0  0  0  0  0  0  0  0  0  0
    5.8160   -5.8890   27.3060 C   0  0  0  0  0  0  0  0  0  0  0  0
    6.8930   -2.6610   23.1190 C   0  0  0  0  0  0  0  0  0  0  0  0
    7.6590   -3.2000   22.1290 C   0  0  0  0  0  0  0  0  0  0  0  0
  1  2  1  0
  2  3  2  0
  2  4  1  0
  4  5  1  0
  5  6  1  0
  6  7  1  0
  7  8  1  0
  8  9  2  0
  8 10  1  0
 10 11  1  0
 12 11  1  0
 12 13  1  0
 13 14  1  0
 13 15  1  0
 15 16  1  0
 13 17  1  0
 16 17  1  0
 12 18  1  0
 18 19  1  0
 12 20  1  0
 19 20  1  0
  7 21  1  0
  4 22  1  0
 21 22  1  0
M  END
