piperidine-amides-27507-covalent
     RDKit          3D

 26 28  0  0  0  0  0  0  0  0999 V2000
    7.1180   -3.3050   19.2560 C   0  0  0  0  0  0  0  0  0  0  0  0
    6.3540   -4.0600   20.2530 C   0  0  0  0  0  0  0  0  0  0  0  0
    5.2550   -4.5330   19.8740 O   0  0  0  0  0  0  0  0  0  0  0  0
    6.8720   -4.2770   21.5300 N   0  0  0  0  0  0  0  0  0  0  0  0
    6.5900   -5.4970   22.2590 C   0  0  0  0  0  0  0  0  0  0  0  0
    5.7590   -5.1690   23.4760 C   0  0  0  0  0  0  0  0  0  0  0  0
    5.8370   -3.7080   23.8360 C   0  0  0  0  0  0  0  0  0  0  0  0
    5.4050   -3.4980   25.2310 C   0  0  0  0  0  0  0  0  0  0  0  0
    4.1780   -3.5220   25.4580 O   0  0  0  0  0  0  0  0  0  0  0  0
    6.2680   -3.2540   26.3090 N   0  0  0  0  0  0  0  0  0  0  0  0
    6.7400   -4.3830   27.0980 C   0  0  0  0  0  0  0  0  0  0  0  0
    5.7200   -5.4920   27.2480 C   0  0  0  0  0  0  0  0  0  0  0  0
    6.4190   -1.9660   26.9040 C   0  0  0  0  0  0  0  0  0  0  0  0
    6.0200   -1.8310   28.2110 C   0  0  0  0  0  0  0  0  0  0  0  0
    6.7420   -1.0850   29.0910 C   0  0  0  0  0  0  0  0  0  0  0  0
    6.1210   -1.1240   30.2830 N   0  0  0  0  0  0  0  0  0  0  0  0
    5.0480   -1.9170   30.0140 N   0  0  0  0  0  0  0  0  0  0  0  0
    4.0700   -2.2570   31.0200 C   0  0  0  0  0  0  0  0  0  0  0  0
    3.7550   -1.4120   32.1250 C   0  0  0  0  0  0  0  0  0  0  0  0
    2.7590   -1.6100   33.2690 C   0  0  0  0  0  0  0  0  0  0  0  0
    2.0200   -2.9030   33.1830 C   0  0  0  0  0  0  0  0  0  0  0  0
    2.2750   -3.8340   32.0860 C   0  0  0  0  0  0  0  0  0  0  0  0
    3.2670   -3.5820   30.9890 C   0  0  0  0  0  0  0  0  0  0  0  0
    4.9280   -2.3790   28.7680 N   0  0  0  0  0  0  0  0  0  0  0  0
    7.1910   -3.1680   23.6160 C   0  0  0  0  0  0  0  0  0  0  0  0
    7.6100   -3.2290   22.1740 C   0  0  0  0  0  0  0  0  0  0  0  0
  1  2  1  0
  2  3  2  0
  2  4  1  0
  4  5  1  0
  5  6  1  0
  6  7  1  0
  7  8  1  0
  8  9  2  0
  8 10  1  0
 10 11  1  0
 11 12  1  0
 10 13  1  0
 13 14  1  0
 14 15  1  0
 15 16  2  0
 16 17  1  0
 17 18  1  0
 18 19  2  0
 19 20  1  0
 20 21  2  0
 21 22  1  0
 18 23  1  0
 22 23  2  0
 14 24  2  0
 17 24  1  0
  7 25  1  0
  4 26  1  0
 25 26  1  0
M  END
