piperidine-amides-26173-covalent
     RDKit          3D

 25 26  0  0  0  0  0  0  0  0999 V2000
    7.0800   -3.3110   19.2980 C   0  0  0  0  0  0  0  0  0  0  0  0
    6.3610   -4.1140   20.2830 C   0  0  0  0  0  0  0  0  0  0  0  0
    5.3270   -4.7110   19.9440 O   0  0  0  0  0  0  0  0  0  0  0  0
    6.8430   -4.2730   21.5900 N   0  0  0  0  0  0  0  0  0  0  0  0
    6.5210   -5.4440   22.3700 C   0  0  0  0  0  0  0  0  0  0  0  0
    5.7150   -4.9360   23.5350 C   0  0  0  0  0  0  0  0  0  0  0  0
    6.4430   -3.8440   24.2650 C   0  0  0  0  0  0  0  0  0  0  0  0
    5.5960   -3.1990   25.3020 C   0  0  0  0  0  0  0  0  0  0  0  0
    4.4830   -2.6950   24.9770 O   0  0  0  0  0  0  0  0  0  0  0  0
    5.9530   -3.1170   26.6720 N   0  0  0  0  0  0  0  0  0  0  0  0
    6.1790   -4.3820   27.4250 C   0  0  0  0  0  0  0  0  0  0  0  0
    5.0020   -4.9270   28.0870 C   0  0  0  0  0  0  0  0  0  0  0  0
    5.1140   -6.3850   28.3170 C   0  0  0  0  0  0  0  0  0  0  0  0
    6.2550   -6.6590   29.2590 C   0  0  0  0  0  0  0  0  0  0  0  0
    3.9660   -7.2360   28.7690 C   0  0  0  0  0  0  0  0  0  0  0  0
    6.1650   -1.8240   27.2660 C   0  0  0  0  0  0  0  0  0  0  0  0
    6.8550   -1.8630   28.4540 C   0  0  0  0  0  0  0  0  0  0  0  0
    7.1230   -0.6950   29.1460 C   0  0  0  0  0  0  0  0  0  0  0  0
    6.6560    0.6110   28.5930 C   0  0  0  0  0  0  0  0  0  0  0  0
    6.8920    1.8140   29.2350 O   0  0  0  0  0  0  0  0  0  0  0  0
    6.1540    2.9240   28.7180 C   0  0  0  0  0  0  0  0  0  0  0  0
    5.9120    0.4590   27.2660 C   0  0  0  0  0  0  0  0  0  0  0  0
    5.7200   -0.6170   26.7230 C   0  0  0  0  0  0  0  0  0  0  0  0
    7.0540   -2.7970   23.4290 C   0  0  0  0  0  0  0  0  0  0  0  0
    7.5860   -3.2380   22.2460 C   0  0  0  0  0  0  0  0  0  0  0  0
  1  2  1  0
  2  3  2  0
  2  4  1  0
  4  5  1  0
  5  6  1  0
  6  7  1  0
  7  8  1  0
  8  9  2  0
  8 10  1  0
 10 11  1  0
 11 12  1  0
 12 13  1  0
 13 14  1  0
 13 15  1  0
 10 16  1  0
 16 17  2  0
 17 18  1  0
 18 19  2  0
 19 20  1  0
 20 21  1  0
 19 22  1  0
 16 23  1  0
 22 23  2  0
  7 24  1  0
  4 25  1  0
 24 25  1  0
M  END
