piperidine-amides-14526-covalent
     RDKit          3D

 23 25  0  0  0  0  0  0  0  0999 V2000
    7.2130   -3.9540   19.6650 C   0  0  0  0  0  0  0  0  0  0  0  0
    5.9900   -3.8510   20.3150 C   0  0  0  0  0  0  0  0  0  0  0  0
    4.9920   -3.9480   19.5850 O   0  0  0  0  0  0  0  0  0  0  0  0
    6.0370   -3.7620   21.7060 N   0  0  0  0  0  0  0  0  0  0  0  0
    7.1220   -2.9640   22.1850 C   0  0  0  0  0  0  0  0  0  0  0  0
    6.7550   -2.4340   23.5270 C   0  0  0  0  0  0  0  0  0  0  0  0
    6.4440   -3.6120   24.4270 C   0  0  0  0  0  0  0  0  0  0  0  0
    5.7750   -3.0940   25.6560 C   0  0  0  0  0  0  0  0  0  0  0  0
    4.5710   -3.3310   25.7450 O   0  0  0  0  0  0  0  0  0  0  0  0
    6.5220   -2.3890   26.5910 N   0  0  0  0  0  0  0  0  0  0  0  0
    5.9500   -1.9240   27.8180 C   0  0  1  0  0  0  0  0  0  0  0  0
    6.8590   -1.4390   28.7070 C   0  0  0  0  0  0  0  0  0  0  0  0
    6.1310   -0.3480   28.7620 C   0  0  2  0  0  0  0  0  0  0  0  0
    5.7180    0.1470   29.9890 C   0  0  0  0  0  0  0  0  0  0  0  0
    6.9320    0.8100   30.5680 C   0  0  0  0  0  0  0  0  0  0  0  0
    6.8870    2.3440   30.8230 C   0  0  0  0  0  0  0  0  0  0  0  0
    8.0560    3.0740   31.3990 C   0  0  0  0  0  0  0  0  0  0  0  0
    9.2530    2.2210   31.7050 C   0  0  0  0  0  0  0  0  0  0  0  0
    9.2210    0.7100   31.4240 C   0  0  0  0  0  0  0  0  0  0  0  0
    8.1700    0.0080   30.8980 C   0  0  0  0  0  0  0  0  0  0  0  0
    5.1340   -0.7560   27.8570 C   0  0  0  0  0  0  0  0  0  0  0  0
    5.5270   -4.6540   23.8600 C   0  0  0  0  0  0  0  0  0  0  0  0
    5.8340   -4.9760   22.4400 C   0  0  0  0  0  0  0  0  0  0  0  0
  1  2  1  0
  2  3  2  0
  2  4  1  0
  4  5  1  0
  5  6  1  0
  6  7  1  0
  7  8  1  0
  8  9  2  0
  8 10  1  0
 11 10  1  6
 11 12  1  0
 12 13  1  0
 13 14  1  1
 14 15  1  0
 15 16  2  0
 16 17  1  0
 17 18  2  0
 18 19  1  0
 15 20  1  0
 19 20  2  0
 11 21  1  0
 13 21  1  0
  7 22  1  0
  4 23  1  0
 22 23  1  0
M  END
