piperidine-amides-15256-covalent
     RDKit          3D

 17 18  0  0  0  0  0  0  0  0999 V2000
    7.0850   -3.2710   19.2300 C   0  0  0  0  0  0  0  0  0  0  0  0
    6.3480   -4.0480   20.2420 C   0  0  0  0  0  0  0  0  0  0  0  0
    5.3030   -4.6530   19.9230 O   0  0  0  0  0  0  0  0  0  0  0  0
    6.8230   -4.1670   21.5550 N   0  0  0  0  0  0  0  0  0  0  0  0
    6.5800   -5.4050   22.2750 C   0  0  0  0  0  0  0  0  0  0  0  0
    6.1740   -5.1020   23.7390 C   0  0  0  0  0  0  0  0  0  0  0  0
    6.0380   -3.6050   23.9160 C   0  0  0  0  0  0  0  0  0  0  0  0
    5.5580   -3.2640   25.2740 C   0  0  0  0  0  0  0  0  0  0  0  0
    4.4280   -2.7470   25.3720 O   0  0  0  0  0  0  0  0  0  0  0  0
    6.3520   -3.5140   26.4180 N   0  0  0  0  0  0  0  0  0  0  0  0
    5.9460   -4.4780   27.4080 C   0  0  0  0  0  0  0  0  0  0  0  0
    6.6820   -4.3050   28.7130 C   0  0  0  0  0  0  0  0  0  0  0  0
    4.4880   -4.6000   27.5520 C   0  0  0  0  0  0  0  0  0  0  0  0
    4.5290   -5.8710   27.0870 C   0  0  0  0  0  0  0  0  0  0  0  0
    5.9180   -5.9010   26.8750 C   0  0  0  0  0  0  0  0  0  0  0  0
    7.2690   -2.8670   23.5610 C   0  0  0  0  0  0  0  0  0  0  0  0
    7.6810   -3.1680   22.1560 C   0  0  0  0  0  0  0  0  0  0  0  0
  1  2  1  0
  2  3  2  0
  2  4  1  0
  4  5  1  0
  5  6  1  0
  6  7  1  0
  7  8  1  0
  8  9  2  0
  8 10  1  0
 11 10  1  0
 11 12  1  0
 11 13  1  0
 13 14  1  0
 11 15  1  0
 14 15  1  0
  7 16  1  0
  4 17  1  0
 16 17  1  0
M  END
