piperidine-amides-23681-covalent
     RDKit          3D

 24 25  0  0  0  0  0  0  0  0999 V2000
    7.0850   -3.2750   19.2350 C   0  0  0  0  0  0  0  0  0  0  0  0
    6.3010   -3.9910   20.2590 C   0  0  0  0  0  0  0  0  0  0  0  0
    5.2430   -4.5320   19.8700 O   0  0  0  0  0  0  0  0  0  0  0  0
    6.7260   -4.1190   21.6090 N   0  0  0  0  0  0  0  0  0  0  0  0
    6.4520   -5.3320   22.2740 C   0  0  0  0  0  0  0  0  0  0  0  0
    6.5790   -5.2440   23.7280 C   0  0  0  0  0  0  0  0  0  0  0  0
    6.8150   -3.9020   24.3210 C   0  0  0  0  0  0  0  0  0  0  0  0
    5.6350   -3.5050   25.1510 C   0  0  0  0  0  0  0  0  0  0  0  0
    4.5630   -3.2350   24.5800 O   0  0  0  0  0  0  0  0  0  0  0  0
    5.6550   -3.4010   26.5520 N   0  0  0  0  0  0  0  0  0  0  0  0
    5.8330   -4.5040   27.4430 C   0  0  0  0  0  0  0  0  0  0  0  0
    6.8210   -5.5510   27.2010 C   0  0  0  0  0  0  0  0  0  0  0  0
    4.8540   -2.3050   27.0730 C   0  0  0  0  0  0  0  0  0  0  0  0
    5.4190   -1.3470   27.8930 C   0  0  0  0  0  0  0  0  0  0  0  0
    4.9890   -1.9060   29.2390 C   0  0  0  0  0  0  0  0  0  0  0  0
    5.4180   -1.1100   30.4800 C   0  0  0  0  0  0  0  0  0  0  0  0
    6.2650    0.2210   30.3700 C   0  0  0  0  0  0  0  0  0  0  0  0
    6.7030    1.0170   31.4640 N   0  0  0  0  0  0  0  0  0  0  0  0
    7.3350    2.1500   30.9300 C   0  0  0  0  0  0  0  0  0  0  0  0
    7.2950    0.4280   32.5040 C   0  0  0  0  0  0  0  0  0  0  0  0
    6.5650    0.5670   28.9730 C   0  0  0  0  0  0  0  0  0  0  0  0
    6.1890   -0.1390   27.7720 C   0  0  0  0  0  0  0  0  0  0  0  0
    7.1170   -2.7740   23.3680 C   0  0  0  0  0  0  0  0  0  0  0  0
    7.6860   -3.2340   22.1970 C   0  0  0  0  0  0  0  0  0  0  0  0
  1  2  1  0
  2  3  2  0
  2  4  1  0
  4  5  1  0
  5  6  1  0
  6  7  1  0
  7  8  1  0
  8  9  2  0
  8 10  1  0
 10 11  1  0
 11 12  1  0
 10 13  1  0
 13 14  1  0
 14 15  2  0
 15 16  1  0
 16 17  2  0
 17 18  1  0
 18 19  1  0
 18 20  1  0
 17 21  1  0
 14 22  1  0
 21 22  2  0
  7 23  1  0
  4 24  1  0
 23 24  1  0
M  END
