piperidine-amides-25228-covalent
     RDKit          3D

 25 28  0  0  0  0  0  0  0  0999 V2000
    7.1190   -3.2910   19.2120 C   0  0  0  0  0  0  0  0  0  0  0  0
    6.3880   -4.0880   20.2280 C   0  0  0  0  0  0  0  0  0  0  0  0
    5.3250   -4.6100   19.9010 O   0  0  0  0  0  0  0  0  0  0  0  0
    6.9540   -4.2560   21.4860 N   0  0  0  0  0  0  0  0  0  0  0  0
    6.6900   -5.4250   22.2800 C   0  0  0  0  0  0  0  0  0  0  0  0
    6.0880   -4.9850   23.5780 C   0  0  0  0  0  0  0  0  0  0  0  0
    6.8500   -3.7640   24.1050 C   0  0  0  0  0  0  0  0  0  0  0  0
    6.0730   -3.2170   25.2080 C   0  0  0  0  0  0  0  0  0  0  0  0
    5.3400   -2.2290   25.0670 O   0  0  0  0  0  0  0  0  0  0  0  0
    6.1470   -3.8710   26.4090 N   0  0  0  0  0  0  0  0  0  0  0  0
    5.9830   -3.1160   27.7720 C   0  0  0  0  0  0  0  0  0  0  0  0
    6.1050   -3.9010   29.2540 C   0  0  0  0  0  0  0  0  0  0  0  0
    5.0560   -5.0190   29.6900 N   0  0  0  0  0  0  0  0  0  0  0  0
    5.8470   -6.2740   29.8580 C   0  0  0  0  0  0  0  0  0  0  0  0
    5.5830   -7.2060   29.0830 C   0  0  0  0  0  0  0  0  0  0  0  0
    6.7140   -6.5200   28.5680 C   0  0  0  0  0  0  0  0  0  0  0  0
    5.2240   -4.8590   28.4280 C   0  0  0  0  0  0  0  0  0  0  0  0
    4.1350   -5.9250   28.4180 C   0  0  0  0  0  0  0  0  0  0  0  0
    4.2590   -5.7550   29.9250 C   0  0  0  0  0  0  0  0  0  0  0  0
    4.8630   -5.2320   27.4590 C   0  0  0  0  0  0  0  0  0  0  0  0
    5.4410   -4.6700   28.8770 C   0  0  0  0  0  0  0  0  0  0  0  0
    6.0970   -4.0050   27.8520 C   0  0  0  0  0  0  0  0  0  0  0  0
    5.3510   -4.7410   26.9220 C   0  0  0  0  0  0  0  0  0  0  0  0
    7.0230   -2.6870   23.0740 C   0  0  0  0  0  0  0  0  0  0  0  0
    7.7740   -3.2030   22.0640 C   0  0  0  0  0  0  0  0  0  0  0  0
  1  2  1  0
  2  3  2  0
  2  4  1  0
  4  5  1  0
  5  6  1  0
  6  7  1  0
  7  8  1  0
  8  9  2  0
  8 10  1  0
 10 11  1  0
 11 12  1  0
 12 13  1  0
 13 14  1  0
 14 15  1  0
 14 16  1  0
 15 16  1  0
 13 17  1  0
 17 18  2  0
 18 19  1  0
 18 20  1  0
 20 21  2  0
 21 22  1  0
 10 23  1  0
 17 23  1  0
 22 23  2  0
  7 24  1  0
  4 25  1  0
 24 25  1  0
M  END
