piperidine-amides-8799-covalent
     RDKit          3D

 22 23  0  0  0  0  0  0  0  0999 V2000
    7.1090   -3.2700   19.2450 C   0  0  0  0  0  0  0  0  0  0  0  0
    6.3090   -3.9970   20.2300 C   0  0  0  0  0  0  0  0  0  0  0  0
    5.2400   -4.5070   19.8600 O   0  0  0  0  0  0  0  0  0  0  0  0
    6.7760   -4.1540   21.5570 N   0  0  0  0  0  0  0  0  0  0  0  0
    7.6530   -3.1670   22.1200 C   0  0  0  0  0  0  0  0  0  0  0  0
    7.1580   -2.8050   23.4780 C   0  0  0  0  0  0  0  0  0  0  0  0
    5.8990   -3.6250   23.6760 C   0  0  0  0  0  0  0  0  0  0  0  0
    5.2970   -3.3870   25.0280 C   0  0  0  0  0  0  0  0  0  0  0  0
    4.1830   -2.8670   25.0360 O   0  0  0  0  0  0  0  0  0  0  0  0
    5.9980   -3.7420   26.1680 N   0  0  0  0  0  0  0  0  0  0  0  0
    6.2050   -5.1010   26.5620 C   0  0  2  0  0  0  0  0  0  0  0  0
    5.9600   -5.3350   27.8850 C   0  0  0  0  0  0  0  0  0  0  0  0
    7.2280   -5.4690   28.0230 C   0  0  2  0  0  0  0  0  0  0  0  0
    7.8060   -4.3790   28.5820 O   0  0  0  0  0  0  0  0  0  0  0  0
    8.9170   -3.7490   28.2940 C   0  0  0  0  0  0  0  0  0  0  0  0
    9.9210   -4.7460   27.8190 C   0  0  0  0  0  0  0  0  0  0  0  0
    8.6730   -2.5670   27.6420 C   0  0  0  0  0  0  0  0  0  0  0  0
    7.6720   -5.4360   26.5460 C   0  0  0  0  0  0  0  0  0  0  0  0
    8.9940   -6.1030   26.3210 C   0  0  0  0  0  0  0  0  0  0  0  0
    7.9880   -4.1800   26.0940 C   0  0  0  0  0  0  0  0  0  0  0  0
    6.2110   -5.1050   23.5640 C   0  0  0  0  0  0  0  0  0  0  0  0
    6.5620   -5.3950   22.2600 C   0  0  0  0  0  0  0  0  0  0  0  0
  1  2  1  0
  2  3  2  0
  2  4  1  0
  4  5  1  0
  5  6  1  0
  6  7  1  0
  7  8  1  0
  8  9  2  0
  8 10  1  0
 11 10  1  1
 11 12  1  0
 12 13  1  0
 13 14  1  1
 14 15  1  0
 15 16  1  0
 15 17  1  0
 11 18  1  0
 13 18  1  0
 18 19  1  0
 18 20  1  0
  7 21  1  0
  4 22  1  0
 21 22  1  0
M  END
