piperidine-amides-30199-covalent
     RDKit          3D

 27 29  0  0  0  0  0  0  0  0999 V2000
    7.0160   -3.3720   19.4550 C   0  0  0  0  0  0  0  0  0  0  0  0
    6.3740   -4.2760   20.4060 C   0  0  0  0  0  0  0  0  0  0  0  0
    5.4330   -4.9710   20.0130 O   0  0  0  0  0  0  0  0  0  0  0  0
    6.8460   -4.3880   21.7710 N   0  0  0  0  0  0  0  0  0  0  0  0
    7.6900   -3.3500   22.3410 C   0  0  0  0  0  0  0  0  0  0  0  0
    7.3310   -3.0780   23.7810 C   0  0  0  0  0  0  0  0  0  0  0  0
    5.9760   -3.7240   23.9920 C   0  0  0  0  0  0  0  0  0  0  0  0
    5.2530   -3.2210   25.2220 C   0  0  0  0  0  0  0  0  0  0  0  0
    4.4740   -2.2690   25.0940 O   0  0  0  0  0  0  0  0  0  0  0  0
    5.3490   -3.7260   26.5520 N   0  0  0  0  0  0  0  0  0  0  0  0
    6.4420   -3.2220   27.2640 C   0  0  0  0  0  0  0  0  0  0  0  0
    6.7120   -4.2610   28.3290 C   0  0  0  0  0  0  0  0  0  0  0  0
    5.6620   -4.5270   29.1150 C   0  0  0  0  0  0  0  0  0  0  0  0
    5.7600   -5.8050   29.7560 N   0  0  0  0  0  0  0  0  0  0  0  0
    4.5690   -6.2140   30.4610 C   0  0  0  0  0  0  0  0  0  0  0  0
    3.3140   -6.1110   29.8430 O   0  0  0  0  0  0  0  0  0  0  0  0
    4.6960   -6.7110   31.7450 C   0  0  0  0  0  0  0  0  0  0  0  0
    3.9430   -6.2370   32.8880 C   0  0  0  0  0  0  0  0  0  0  0  0
    4.0570   -6.7210   34.1570 C   0  0  0  0  0  0  0  0  0  0  0  0
    4.9280   -7.7380   34.4590 C   0  0  0  0  0  0  0  0  0  0  0  0
    4.9610   -8.1520   35.7540 F   0  0  0  0  0  0  0  0  0  0  0  0
    5.6940   -8.2520   33.4090 C   0  0  0  0  0  0  0  0  0  0  0  0
    5.5850   -7.7330   32.0230 C   0  0  0  0  0  0  0  0  0  0  0  0
    4.4300   -4.5410   28.5410 C   0  0  0  0  0  0  0  0  0  0  0  0
    4.2280   -3.6480   27.4780 C   0  0  0  0  0  0  0  0  0  0  0  0
    6.0940   -5.2200   23.9220 C   0  0  0  0  0  0  0  0  0  0  0  0
    6.6400   -5.6110   22.5270 C   0  0  0  0  0  0  0  0  0  0  0  0
  1  2  1  0
  2  3  2  0
  2  4  1  0
  4  5  1  0
  5  6  1  0
  6  7  1  0
  7  8  1  0
  8  9  2  0
  8 10  1  0
 10 11  1  0
 11 12  1  0
 12 13  1  0
 13 14  1  0
 14 15  1  0
 15 16  2  0
 15 17  1  0
 17 18  2  0
 18 19  1  0
 19 20  2  0
 20 21  1  0
 20 22  1  0
 17 23  1  0
 22 23  2  0
 13 24  1  0
 10 25  1  0
 24 25  1  0
  7 26  1  0
  4 27  1  0
 26 27  1  0
M  END
