piperidine-amides-13394-covalent
     RDKit          3D

 21 22  0  0  0  0  0  0  0  0999 V2000
    7.0390   -3.3250   19.3470 C   0  0  0  0  0  0  0  0  0  0  0  0
    6.3500   -4.1920   20.3430 C   0  0  0  0  0  0  0  0  0  0  0  0
    5.3600   -4.8440   19.9770 O   0  0  0  0  0  0  0  0  0  0  0  0
    6.8540   -4.3000   21.6600 N   0  0  0  0  0  0  0  0  0  0  0  0
    6.6240   -5.4750   22.4640 C   0  0  0  0  0  0  0  0  0  0  0  0
    5.7900   -5.0280   23.6700 C   0  0  0  0  0  0  0  0  0  0  0  0
    6.4420   -3.8110   24.2480 C   0  0  0  0  0  0  0  0  0  0  0  0
    5.7010   -3.2630   25.4270 C   0  0  0  0  0  0  0  0  0  0  0  0
    4.4670   -3.2170   25.3520 O   0  0  0  0  0  0  0  0  0  0  0  0
    6.3640   -2.8440   26.5900 N   0  0  0  0  0  0  0  0  0  0  0  0
    6.7040   -1.5210   27.0260 C   0  0  2  0  0  0  0  0  0  0  0  0
    7.1580   -1.3740   28.3320 C   0  0  0  0  0  0  0  0  0  0  0  0
    6.6320   -0.4460   29.2180 C   0  0  0  0  0  0  0  0  0  0  0  0
    5.4960    0.6960   28.7700 S   0  0  0  0  0  0  0  0  0  0  0  0
    6.1850    1.9990   28.4000 O   0  0  0  0  0  0  0  0  0  0  0  0
    4.4570    0.8600   29.8320 O   0  0  0  0  0  0  0  0  0  0  0  0
    4.9940   -0.1710   27.3810 C   0  0  2  0  0  0  0  0  0  0  0  0
    4.0840   -1.3520   27.3370 C   0  0  0  0  0  0  0  0  0  0  0  0
    5.9550   -0.4590   26.4090 C   0  0  0  0  0  0  0  0  0  0  0  0
    6.7030   -2.7090   23.2650 C   0  0  0  0  0  0  0  0  0  0  0  0
    7.5300   -3.1840   22.2640 C   0  0  0  0  0  0  0  0  0  0  0  0
  1  2  1  0
  2  3  2  0
  2  4  1  0
  4  5  1  0
  5  6  1  0
  6  7  1  0
  7  8  1  0
  8  9  2  0
  8 10  1  0
 11 10  1  1
 11 12  1  0
 12 13  1  0
 14 13  1  0
 14 15  2  0
 14 16  2  0
 14 17  1  0
 17 18  1  1
 11 19  1  0
 17 19  1  0
  7 20  1  0
  4 21  1  0
 20 21  1  0
M  END
