piperidine-amides-31081-covalent
     RDKit          3D

 27 28  0  0  0  0  0  0  0  0999 V2000
    7.0410   -3.3690   19.3660 C   0  0  0  0  0  0  0  0  0  0  0  0
    6.3990   -4.2290   20.3610 C   0  0  0  0  0  0  0  0  0  0  0  0
    5.4200   -4.9110   20.0050 O   0  0  0  0  0  0  0  0  0  0  0  0
    6.8980   -4.3250   21.6800 N   0  0  0  0  0  0  0  0  0  0  0  0
    7.7070   -3.2650   22.2660 C   0  0  0  0  0  0  0  0  0  0  0  0
    7.3540   -3.1730   23.7350 C   0  0  0  0  0  0  0  0  0  0  0  0
    6.0320   -3.8180   24.0320 C   0  0  0  0  0  0  0  0  0  0  0  0
    5.3360   -3.3560   25.2780 C   0  0  0  0  0  0  0  0  0  0  0  0
    4.4820   -2.4380   25.1560 O   0  0  0  0  0  0  0  0  0  0  0  0
    5.4820   -3.8410   26.6080 N   0  0  0  0  0  0  0  0  0  0  0  0
    4.3100   -4.4500   27.2780 C   0  0  0  0  0  0  0  0  0  0  0  0
    4.3970   -4.4550   28.7740 C   0  0  0  0  0  0  0  0  0  0  0  0
    5.5170   -5.0660   29.1540 N   0  0  0  0  0  0  0  0  0  0  0  0
    5.7620   -6.4640   29.1000 C   0  0  0  0  0  0  0  0  0  0  0  0
    6.6910   -4.5800   28.4420 C   0  0  0  0  0  0  0  0  0  0  0  0
    6.4180   -3.3760   27.5510 C   0  0  2  0  0  0  0  0  0  0  0  0
    5.9330   -2.2710   28.4230 C   0  0  0  0  0  0  0  0  0  0  0  0
    6.6150   -1.1650   28.0960 N   0  0  0  0  0  0  0  0  0  0  0  0
    6.1580    0.1430   28.5150 C   0  0  0  0  0  0  0  0  0  0  0  0
    7.0930    0.7930   29.1030 O   0  0  0  0  0  0  0  0  0  0  0  0
    5.0110    0.5790   28.3110 O   0  0  0  0  0  0  0  0  0  0  0  0
    4.7610    1.0380   27.0280 C   0  0  0  0  0  0  0  0  0  0  0  0
    3.6180    2.0080   26.8150 C   0  0  0  0  0  0  0  0  0  0  0  0
    4.4550   -0.1770   26.2070 C   0  0  0  0  0  0  0  0  0  0  0  0
    6.0130    1.5850   26.4080 C   0  0  0  0  0  0  0  0  0  0  0  0
    6.1660   -5.2850   23.8070 C   0  0  0  0  0  0  0  0  0  0  0  0
    6.5850   -5.5240   22.4050 C   0  0  0  0  0  0  0  0  0  0  0  0
  1  2  1  0
  2  3  2  0
  2  4  1  0
  4  5  1  0
  5  6  1  0
  6  7  1  0
  7  8  1  0
  8  9  2  0
  8 10  1  0
 10 11  1  0
 11 12  1  0
 12 13  1  0
 13 14  1  0
 13 15  1  0
 10 16  1  0
 15 16  1  0
 16 17  1  1
 17 18  1  0
 18 19  1  0
 19 20  2  0
 19 21  1  0
 22 21  1  0
 22 23  1  0
 22 24  1  0
 22 25  1  0
  7 26  1  0
  4 27  1  0
 26 27  1  0
M  END
