piperidine-amides-19249-covalent
     RDKit          3D

 22 23  0  0  0  0  0  0  0  0999 V2000
    7.0760   -3.3490   19.2340 C   0  0  0  0  0  0  0  0  0  0  0  0
    6.3090   -4.0050   20.2760 C   0  0  0  0  0  0  0  0  0  0  0  0
    5.2730   -4.6380   19.9140 O   0  0  0  0  0  0  0  0  0  0  0  0
    6.6670   -4.0160   21.6460 N   0  0  0  0  0  0  0  0  0  0  0  0
    7.7400   -3.0800   22.0710 C   0  0  0  0  0  0  0  0  0  0  0  0
    7.1840   -2.5330   23.4380 C   0  0  0  0  0  0  0  0  0  0  0  0
    6.0340   -3.4400   23.8070 C   0  0  0  0  0  0  0  0  0  0  0  0
    5.2890   -3.0090   25.1540 C   0  0  0  0  0  0  0  0  0  0  0  0
    4.0980   -3.2570   25.0760 O   0  0  0  0  0  0  0  0  0  0  0  0
    6.1310   -2.5090   25.9710 N   0  0  0  0  0  0  0  0  0  0  0  0
    7.0670   -1.6550   26.4850 C   0  0  0  0  0  0  0  0  0  0  0  0
    6.1110   -3.3780   27.0580 C   0  0  1  0  0  0  0  0  0  0  0  0
    5.0860   -4.3540   27.1210 C   0  0  0  0  0  0  0  0  0  0  0  0
    7.2800   -4.2750   26.8970 C   0  0  0  0  0  0  0  0  0  0  0  0
    7.8750   -3.6920   25.6710 C   0  0  0  0  0  0  0  0  0  0  0  0
    9.0200   -4.4550   25.3800 C   0  0  0  0  0  0  0  0  0  0  0  0
    9.7370   -5.5860   25.9210 C   0  0  0  0  0  0  0  0  0  0  0  0
    8.8930   -5.9460   27.1500 C   0  0  0  0  0  0  0  0  0  0  0  0
    7.6450   -5.3300   27.6910 C   0  0  0  0  0  0  0  0  0  0  0  0
    6.9450   -5.7230   28.7890 C   0  0  0  0  0  0  0  0  0  0  0  0
    6.2990   -4.9360   23.6990 C   0  0  0  0  0  0  0  0  0  0  0  0
    6.4800   -5.2430   22.3850 C   0  0  0  0  0  0  0  0  0  0  0  0
  1  2  1  0
  2  3  2  0
  2  4  1  0
  4  5  1  0
  5  6  1  0
  6  7  1  0
  7  8  1  0
  8  9  2  0
  8 10  1  0
 10 11  1  0
 10 12  1  0
 12 13  1  6
 12 14  1  0
 14 15  2  0
 15 16  1  0
 16 17  2  0
 17 18  1  0
 14 19  1  0
 18 19  2  0
 19 20  1  0
  7 21  1  0
  4 22  1  0
 21 22  1  0
M  END
