piperidine-amides-15334-covalent
     RDKit          3D

 17 18  0  0  0  0  0  0  0  0999 V2000
    7.0600   -3.3750   19.4340 C   0  0  0  0  0  0  0  0  0  0  0  0
    6.3800   -4.2360   20.4090 C   0  0  0  0  0  0  0  0  0  0  0  0
    5.4210   -4.9460   20.0180 O   0  0  0  0  0  0  0  0  0  0  0  0
    6.8180   -4.3190   21.7540 N   0  0  0  0  0  0  0  0  0  0  0  0
    6.5780   -5.5460   22.5030 C   0  0  0  0  0  0  0  0  0  0  0  0
    6.0870   -5.2210   23.9450 C   0  0  0  0  0  0  0  0  0  0  0  0
    5.8560   -3.7300   24.0310 C   0  0  0  0  0  0  0  0  0  0  0  0
    4.9520   -3.3300   25.1700 C   0  0  0  0  0  0  0  0  0  0  0  0
    3.7510   -3.2930   24.8740 O   0  0  0  0  0  0  0  0  0  0  0  0
    5.2900   -2.9960   26.5210 N   0  0  0  0  0  0  0  0  0  0  0  0
    6.5640   -3.2250   27.0340 C   0  0  0  0  0  0  0  0  0  0  0  0
    6.3980   -4.4980   27.8370 C   0  0  0  0  0  0  0  0  0  0  0  0
    5.1210   -4.5610   28.1250 C   0  0  1  0  0  0  0  0  0  0  0  0
    4.8060   -5.1800   29.2960 C   0  0  0  0  0  0  0  0  0  0  0  0
    4.6820   -3.3030   27.8410 C   0  0  0  0  0  0  0  0  0  0  0  0
    7.0960   -2.9570   23.7860 C   0  0  0  0  0  0  0  0  0  0  0  0
    7.6010   -3.2680   22.3930 C   0  0  0  0  0  0  0  0  0  0  0  0
  1  2  1  0
  2  3  2  0
  2  4  1  0
  4  5  1  0
  5  6  1  0
  6  7  1  0
  7  8  1  0
  8  9  2  0
  8 10  1  0
 10 11  1  0
 11 12  1  0
 12 13  1  0
 13 14  1  1
 10 15  1  0
 13 15  1  0
  7 16  1  0
  4 17  1  0
 16 17  1  0
M  END
