piperidine-amides-14442-covalent
     RDKit          3D

 25 27  0  0  0  0  0  0  0  0999 V2000
    7.0660   -3.3650   19.3780 C   0  0  0  0  0  0  0  0  0  0  0  0
    6.4170   -4.2530   20.3380 C   0  0  0  0  0  0  0  0  0  0  0  0
    5.3780   -4.8370   19.9800 O   0  0  0  0  0  0  0  0  0  0  0  0
    7.0020   -4.4780   21.6120 N   0  0  0  0  0  0  0  0  0  0  0  0
    6.5010   -5.5550   22.4000 C   0  0  0  0  0  0  0  0  0  0  0  0
    5.5610   -4.9830   23.4190 C   0  0  0  0  0  0  0  0  0  0  0  0
    6.3400   -4.0020   24.2770 C   0  0  0  0  0  0  0  0  0  0  0  0
    5.4490   -3.5020   25.3840 C   0  0  0  0  0  0  0  0  0  0  0  0
    4.2450   -3.6190   25.1860 O   0  0  0  0  0  0  0  0  0  0  0  0
    5.9920   -2.9360   26.5370 N   0  0  0  0  0  0  0  0  0  0  0  0
    6.1790   -1.5270   26.6230 C   0  0  0  0  0  0  0  0  0  0  0  0
    6.6140   -0.9360   25.4200 C   0  0  0  0  0  0  0  0  0  0  0  0
    6.2860    0.3960   25.1790 C   0  0  0  0  0  0  0  0  0  0  0  0
    6.3140    1.3240   26.2410 C   0  0  0  0  0  0  0  0  0  0  0  0
    5.9580    2.7630   25.9540 C   0  0  0  0  0  0  0  0  0  0  0  0
    5.5760    3.1940   24.5350 C   0  0  0  0  0  0  0  0  0  0  0  0
    5.5690    2.1810   23.4900 C   0  0  0  0  0  0  0  0  0  0  0  0
    5.9390    0.7920   23.8840 C   0  0  0  0  0  0  0  0  0  0  0  0
    5.9390   -0.1750   22.9020 F   0  0  0  0  0  0  0  0  0  0  0  0
    4.9970   -0.7710   27.1480 C   0  0  0  0  0  0  0  0  0  0  0  0
    5.2520   -0.0150   28.2750 C   0  0  0  0  0  0  0  0  0  0  0  0
    6.4940   -0.2570   28.7740 C   0  0  0  0  0  0  0  0  0  0  0  0
    7.0620   -1.2530   27.8130 C   0  0  0  0  0  0  0  0  0  0  0  0
    6.8740   -2.8600   23.3980 C   0  0  0  0  0  0  0  0  0  0  0  0
    7.7100   -3.4420   22.2880 C   0  0  0  0  0  0  0  0  0  0  0  0
  1  2  1  0
  2  3  2  0
  2  4  1  0
  4  5  1  0
  5  6  1  0
  6  7  1  0
  7  8  1  0
  8  9  2  0
  8 10  1  0
 11 10  1  0
 11 12  1  0
 12 13  1  0
 13 14  2  0
 14 15  1  0
 15 16  2  0
 16 17  1  0
 13 18  1  0
 17 18  2  0
 18 19  1  0
 11 20  1  0
 20 21  1  0
 21 22  1  0
 11 23  1  0
 22 23  1  0
  7 24  1  0
  4 25  1  0
 24 25  1  0
M  END
