piperidine-amides-4718-covalent
     RDKit          3D

 24 26  0  0  0  0  0  0  0  0999 V2000
    7.0730   -3.3350   19.3360 C   0  0  0  0  0  0  0  0  0  0  0  0
    6.4010   -4.1830   20.3440 C   0  0  0  0  0  0  0  0  0  0  0  0
    5.3680   -4.7770   19.9680 O   0  0  0  0  0  0  0  0  0  0  0  0
    6.9400   -4.3420   21.6330 N   0  0  0  0  0  0  0  0  0  0  0  0
    7.6790   -3.2770   22.2430 C   0  0  0  0  0  0  0  0  0  0  0  0
    7.2010   -2.8970   23.5680 C   0  0  0  0  0  0  0  0  0  0  0  0
    5.9640   -3.5850   23.9730 C   0  0  0  0  0  0  0  0  0  0  0  0
    5.6080   -3.2190   25.3600 C   0  0  0  0  0  0  0  0  0  0  0  0
    4.4100   -3.2510   25.6900 O   0  0  0  0  0  0  0  0  0  0  0  0
    6.5990   -2.8350   26.2740 N   0  0  0  0  0  0  0  0  0  0  0  0
    6.5040   -1.6080   27.0940 C   0  0  0  0  0  0  0  0  0  0  0  0
    7.0130   -1.5900   28.4720 C   0  0  0  0  0  0  0  0  0  0  0  0
    6.9160   -0.3880   29.2750 C   0  0  0  0  0  0  0  0  0  0  0  0
    6.3330    0.7500   28.7290 C   0  0  0  0  0  0  0  0  0  0  0  0
    6.2130    1.9130   29.4680 C   0  0  0  0  0  0  0  0  0  0  0  0
    7.2770    2.6410   30.0570 N   0  0  0  0  0  0  0  0  0  0  0  0
    6.7250    3.6450   30.6500 N   0  0  0  0  0  0  0  0  0  0  0  0
    5.2450    3.6650   30.5000 C   0  0  0  0  0  0  0  0  0  0  0  0
    5.0520    2.5420   29.7490 N   0  0  0  0  0  0  0  0  0  0  0  0
    3.7730    2.0530   29.2960 C   0  0  0  0  0  0  0  0  0  0  0  0
    5.8340    0.7750   27.4020 C   0  0  0  0  0  0  0  0  0  0  0  0
    5.9110   -0.3680   26.5930 C   0  0  0  0  0  0  0  0  0  0  0  0
    5.9610   -5.0530   23.7580 C   0  0  0  0  0  0  0  0  0  0  0  0
    6.6350   -5.4940   22.4780 C   0  0  0  0  0  0  0  0  0  0  0  0
  1  2  1  0
  2  3  2  0
  2  4  1  0
  4  5  1  0
  5  6  1  0
  6  7  1  0
  7  8  1  0
  8  9  2  0
  8 10  1  0
 10 11  1  0
 11 12  2  0
 12 13  1  0
 13 14  2  0
 14 15  1  0
 15 16  2  0
 16 17  1  0
 17 18  2  0
 15 19  1  0
 18 19  1  0
 19 20  1  0
 14 21  1  0
 11 22  1  0
 21 22  2  0
  7 23  1  0
  4 24  1  0
 23 24  1  0
M  END
