piperidine-amides-30668-covalent
     RDKit          3D

 27 29  0  0  0  0  0  0  0  0999 V2000
    7.0160   -3.3800   19.4360 C   0  0  0  0  0  0  0  0  0  0  0  0
    6.3830   -4.2570   20.4240 C   0  0  0  0  0  0  0  0  0  0  0  0
    5.4540   -4.9870   20.0250 O   0  0  0  0  0  0  0  0  0  0  0  0
    6.8190   -4.3150   21.7800 N   0  0  0  0  0  0  0  0  0  0  0  0
    7.7170   -3.2970   22.3350 C   0  0  0  0  0  0  0  0  0  0  0  0
    7.2460   -2.9370   23.7330 C   0  0  0  0  0  0  0  0  0  0  0  0
    5.9260   -3.5650   24.0250 C   0  0  0  0  0  0  0  0  0  0  0  0
    5.2240   -3.0320   25.2630 C   0  0  0  0  0  0  0  0  0  0  0  0
    4.5870   -1.9580   25.1360 O   0  0  0  0  0  0  0  0  0  0  0  0
    5.1500   -3.5620   26.5890 N   0  0  0  0  0  0  0  0  0  0  0  0
    4.8680   -2.6760   27.7360 C   0  0  0  0  0  0  0  0  0  0  0  0
    3.7410   -3.2030   28.5590 C   0  0  0  0  0  0  0  0  0  0  0  0
    4.0150   -4.3690   29.1710 N   0  0  0  0  0  0  0  0  0  0  0  0
    3.3100   -4.8770   30.2940 C   0  0  0  0  0  0  0  0  0  0  0  0
    3.4310   -4.4420   31.4540 O   0  0  0  0  0  0  0  0  0  0  0  0
    2.4680   -5.8670   30.1270 O   0  0  0  0  0  0  0  0  0  0  0  0
    2.7760   -7.2380   30.2770 C   0  0  0  0  0  0  0  0  0  0  0  0
    3.7610   -7.7400   29.2410 C   0  0  0  0  0  0  0  0  0  0  0  0
    3.1890   -7.6520   31.6970 C   0  0  0  0  0  0  0  0  0  0  0  0
    1.7230   -8.1940   29.7370 C   0  0  0  0  0  0  0  0  0  0  0  0
    4.1870   -5.4060   28.1890 C   0  0  0  0  0  0  0  0  0  0  0  0
    5.6650   -5.4000   27.9720 C   0  0  0  0  0  0  0  0  0  0  0  0
    6.5810   -6.2980   28.4510 C   0  0  0  0  0  0  0  0  0  0  0  0
    6.5820   -4.9840   29.2240 C   0  0  0  0  0  0  0  0  0  0  0  0
    6.1200   -4.4730   26.8890 C   0  0  0  0  0  0  0  0  0  0  0  0
    5.9240   -5.0310   23.8530 C   0  0  0  0  0  0  0  0  0  0  0  0
    6.4790   -5.4200   22.6390 C   0  0  0  0  0  0  0  0  0  0  0  0
  1  2  1  0
  2  3  2  0
  2  4  1  0
  4  5  1  0
  5  6  1  0
  6  7  1  0
  7  8  1  0
  8  9  2  0
  8 10  1  0
 10 11  1  0
 11 12  1  0
 12 13  1  0
 13 14  1  0
 14 15  2  0
 14 16  1  0
 17 16  1  0
 17 18  1  0
 17 19  1  0
 17 20  1  0
 13 21  1  0
 22 21  1  0
 22 23  1  0
 22 24  1  0
 23 24  1  0
 10 25  1  0
 22 25  1  0
  7 26  1  0
  4 27  1  0
 26 27  1  0
M  END
