piperidine-amides-32420-covalent
     RDKit          3D

 28 30  0  0  0  0  0  0  0  0999 V2000
    7.0050   -3.3550   19.4650 C   0  0  0  0  0  0  0  0  0  0  0  0
    6.3370   -4.2710   20.4360 C   0  0  0  0  0  0  0  0  0  0  0  0
    5.3990   -4.9710   20.0100 O   0  0  0  0  0  0  0  0  0  0  0  0
    6.7840   -4.3670   21.7860 N   0  0  0  0  0  0  0  0  0  0  0  0
    6.5630   -5.5700   22.5610 C   0  0  0  0  0  0  0  0  0  0  0  0
    6.0360   -5.1960   23.9700 C   0  0  0  0  0  0  0  0  0  0  0  0
    5.7540   -3.7280   24.0090 C   0  0  0  0  0  0  0  0  0  0  0  0
    4.9060   -3.2140   25.1670 C   0  0  0  0  0  0  0  0  0  0  0  0
    3.7820   -2.8520   24.8460 O   0  0  0  0  0  0  0  0  0  0  0  0
    5.3250   -3.1470   26.5110 N   0  0  0  0  0  0  0  0  0  0  0  0
    6.4210   -3.7310   26.9280 C   0  0  0  0  0  0  0  0  0  0  0  0
    6.4390   -4.0530   28.2330 C   0  0  0  0  0  0  0  0  0  0  0  0
    5.1570   -3.7870   28.6830 C   0  0  2  0  0  0  0  0  0  0  0  0
    4.5020   -4.8080   29.3300 C   0  0  0  0  0  0  0  0  0  0  0  0
    4.7710   -6.2340   29.0460 C   0  0  0  0  0  0  0  0  0  0  0  0
    4.0450   -7.3830   29.7540 C   0  0  0  0  0  0  0  0  0  0  0  0
    3.0010   -6.9340   30.7970 C   0  0  0  0  0  0  0  0  0  0  0  0
    2.2160   -7.7770   31.5600 C   0  0  0  0  0  0  0  0  0  0  0  0
    1.1230   -7.2720   32.2120 F   0  0  0  0  0  0  0  0  0  0  0  0
    1.6340   -8.7380   30.6830 F   0  0  0  0  0  0  0  0  0  0  0  0
    3.0080   -8.5650   32.4250 F   0  0  0  0  0  0  0  0  0  0  0  0
    2.7480   -5.4850   31.0690 C   0  0  0  0  0  0  0  0  0  0  0  0
    3.5640   -4.4880   30.2700 C   0  0  0  0  0  0  0  0  0  0  0  0
    4.3520   -3.2350   27.6220 C   0  0  0  0  0  0  0  0  0  0  0  0
    3.5130   -1.9550   27.8410 C   0  0  0  0  0  0  0  0  0  0  0  0
    3.5220   -4.2900   27.2940 C   0  0  0  0  0  0  0  0  0  0  0  0
    7.0430   -2.9590   23.8020 C   0  0  0  0  0  0  0  0  0  0  0  0
    7.5170   -3.2490   22.4100 C   0  0  0  0  0  0  0  0  0  0  0  0
  1  2  1  0
  2  3  2  0
  2  4  1  0
  4  5  1  0
  5  6  1  0
  6  7  1  0
  7  8  1  0
  8  9  2  0
  8 10  1  0
 10 11  1  0
 11 12  1  0
 12 13  1  0
 13 14  1  6
 14 15  2  0
 15 16  1  0
 16 17  2  0
 17 18  1  0
 18 19  1  0
 18 20  1  0
 18 21  1  0
 17 22  1  0
 14 23  1  0
 22 23  2  0
 10 24  1  0
 13 24  1  0
 24 25  1  0
 24 26  1  0
  7 27  1  0
  4 28  1  0
 27 28  1  0
M  END
