piperidine-amides-14814-covalent
     RDKit          3D

 22 24  0  0  0  0  0  0  0  0999 V2000
    7.0890   -3.3580   19.3360 C   0  0  0  0  0  0  0  0  0  0  0  0
    6.3730   -4.1720   20.3120 C   0  0  0  0  0  0  0  0  0  0  0  0
    5.3350   -4.7520   19.9540 O   0  0  0  0  0  0  0  0  0  0  0  0
    6.9050   -4.3190   21.6130 N   0  0  0  0  0  0  0  0  0  0  0  0
    7.6530   -3.2140   22.1570 C   0  0  0  0  0  0  0  0  0  0  0  0
    7.4860   -3.1440   23.6430 C   0  0  0  0  0  0  0  0  0  0  0  0
    6.0970   -3.6370   23.9660 C   0  0  0  0  0  0  0  0  0  0  0  0
    5.6890   -3.1630   25.3230 C   0  0  0  0  0  0  0  0  0  0  0  0
    4.5150   -3.3340   25.6470 O   0  0  0  0  0  0  0  0  0  0  0  0
    6.6800   -2.5670   26.0830 N   0  0  0  0  0  0  0  0  0  0  0  0
    6.4990   -1.3730   26.8440 C   0  0  0  0  0  0  0  0  0  0  0  0
    6.7850   -1.3230   28.1990 C   0  0  0  0  0  0  0  0  0  0  0  0
    7.2320   -2.3170   28.9740 C   0  0  0  0  0  0  0  0  0  0  0  0
    6.6370   -0.1530   29.0230 C   0  0  0  0  0  0  0  0  0  0  0  0
    6.1550    1.1360   28.5120 C   0  0  0  0  0  0  0  0  0  0  0  0
    5.8140    1.1450   27.0050 C   0  0  0  0  0  0  0  0  0  0  0  0
    5.3420    2.3080   26.3870 N   0  0  0  0  0  0  0  0  0  0  0  0
    5.1500    1.7290   24.7810 S   0  0  0  0  0  0  0  0  0  0  0  0
    5.6460    0.0780   24.8800 N   0  0  0  0  0  0  0  0  0  0  0  0
    6.0160   -0.1510   26.2500 C   0  0  0  0  0  0  0  0  0  0  0  0
    6.0250   -5.1030   23.7610 C   0  0  0  0  0  0  0  0  0  0  0  0
    6.5590   -5.4990   22.3710 C   0  0  0  0  0  0  0  0  0  0  0  0
  1  2  1  0
  2  3  2  0
  2  4  1  0
  4  5  1  0
  5  6  1  0
  6  7  1  0
  7  8  1  0
  8  9  2  0
  8 10  1  0
 10 11  1  0
 11 12  2  0
 12 13  1  0
 12 14  1  0
 14 15  2  0
 15 16  1  0
 16 17  2  0
 17 18  1  0
 18 19  1  0
 11 20  1  0
 16 20  1  0
 19 20  2  0
  7 21  1  0
  4 22  1  0
 21 22  1  0
M  END
