piperidine-amides-1282-covalent
     RDKit          3D

 21 21  0  0  0  0  0  0  0  0999 V2000
    7.1000   -3.2910   19.3030 C   0  0  0  0  0  0  0  0  0  0  0  0
    6.2970   -4.0600   20.2920 C   0  0  0  0  0  0  0  0  0  0  0  0
    5.2550   -4.6130   19.9050 O   0  0  0  0  0  0  0  0  0  0  0  0
    6.7530   -4.1870   21.6230 N   0  0  0  0  0  0  0  0  0  0  0  0
    6.6620   -5.4600   22.3040 C   0  0  0  0  0  0  0  0  0  0  0  0
    6.1340   -5.1800   23.7060 C   0  0  0  0  0  0  0  0  0  0  0  0
    6.0960   -3.7020   23.8440 C   0  0  0  0  0  0  0  0  0  0  0  0
    5.6220   -3.2340   25.1670 C   0  0  0  0  0  0  0  0  0  0  0  0
    4.4570   -2.8270   25.2160 O   0  0  0  0  0  0  0  0  0  0  0  0
    6.4570   -3.2660   26.2880 N   0  0  0  0  0  0  0  0  0  0  0  0
    6.1350   -3.7500   27.5870 C   0  0  0  0  0  0  0  0  0  0  0  0
    5.7660   -5.0460   27.9070 C   0  0  0  0  0  0  0  0  0  0  0  0
    6.5990   -5.7380   28.7950 C   0  0  0  0  0  0  0  0  0  0  0  0
    5.5040   -5.9060   26.6990 C   0  0  0  0  0  0  0  0  0  0  0  0
    4.4710   -4.9680   28.5910 C   0  0  0  0  0  0  0  0  0  0  0  0
    3.4970   -6.4500   28.7230 S   0  0  0  0  0  0  0  0  0  0  0  0
    4.4100   -7.8000   29.3710 C   0  0  0  0  0  0  0  0  0  0  0  0
    2.3960   -6.1290   29.7190 O   0  0  0  0  0  0  0  0  0  0  0  0
    2.8730   -6.8490   27.4230 O   0  0  0  0  0  0  0  0  0  0  0  0
    7.3920   -3.0280   23.5190 C   0  0  0  0  0  0  0  0  0  0  0  0
    7.6180   -3.1540   22.1590 C   0  0  0  0  0  0  0  0  0  0  0  0
  1  2  1  0
  2  3  2  0
  2  4  1  0
  4  5  1  0
  5  6  1  0
  6  7  1  0
  7  8  1  0
  8  9  2  0
  8 10  1  0
 10 11  1  0
 12 11  1  0
 12 13  1  0
 12 14  1  0
 12 15  1  0
 16 15  1  0
 16 17  1  0
 16 18  2  0
 16 19  2  0
  7 20  1  0
  4 21  1  0
 20 21  1  0
M  END
