piperidine-amides-4144-covalent
     RDKit          3D

 27 29  0  0  0  0  0  0  0  0999 V2000
    7.1890   -3.2650   19.1560 C   0  0  0  0  0  0  0  0  0  0  0  0
    6.3780   -3.9690   20.1570 C   0  0  0  0  0  0  0  0  0  0  0  0
    5.2520   -4.3910   19.8110 O   0  0  0  0  0  0  0  0  0  0  0  0
    6.8920   -4.2150   21.4400 N   0  0  0  0  0  0  0  0  0  0  0  0
    7.6730   -3.1880   22.0420 C   0  0  0  0  0  0  0  0  0  0  0  0
    7.3970   -2.9400   23.4440 C   0  0  0  0  0  0  0  0  0  0  0  0
    6.6130   -3.9820   24.1310 C   0  0  0  0  0  0  0  0  0  0  0  0
    5.7790   -3.3420   25.1790 C   0  0  0  0  0  0  0  0  0  0  0  0
    4.5880   -3.0730   24.9330 O   0  0  0  0  0  0  0  0  0  0  0  0
    6.3140   -3.0440   26.4320 N   0  0  0  0  0  0  0  0  0  0  0  0
    5.9750   -3.6510   27.6490 C   0  0  0  0  0  0  0  0  0  0  0  0
    4.7580   -3.2820   28.3620 C   0  0  0  0  0  0  0  0  0  0  0  0
    4.5720   -2.0860   28.9840 N   0  0  0  0  0  0  0  0  0  0  0  0
    3.9180   -0.9510   28.3700 C   0  0  0  0  0  0  0  0  0  0  0  0
    4.9190   -0.0270   28.1090 C   0  0  0  0  0  0  0  0  0  0  0  0
    5.5970    0.3700   29.2470 O   0  0  0  0  0  0  0  0  0  0  0  0
    6.2970   -0.6580   29.8610 C   0  0  0  0  0  0  0  0  0  0  0  0
    6.8240   -0.1130   31.1480 C   0  0  0  0  0  0  0  0  0  0  0  0
    7.5170   -1.2160   29.1000 C   0  0  0  0  0  0  0  0  0  0  0  0
    5.3650   -1.7960   30.0880 C   0  0  0  0  0  0  0  0  0  0  0  0
    4.6200   -4.3230   29.4510 C   0  0  0  0  0  0  0  0  0  0  0  0
    3.4270   -4.0710   30.3750 C   0  0  0  0  0  0  0  0  0  0  0  0
    2.2200   -3.9390   29.5130 C   0  0  0  0  0  0  0  0  0  0  0  0
    2.3590   -3.5020   28.1900 C   0  0  0  0  0  0  0  0  0  0  0  0
    3.6140   -3.5460   27.5990 C   0  0  0  0  0  0  0  0  0  0  0  0
    5.7300   -4.7890   23.2450 C   0  0  0  0  0  0  0  0  0  0  0  0
    6.4640   -5.3410   22.2150 C   0  0  0  0  0  0  0  0  0  0  0  0
  1  2  1  0
  2  3  2  0
  2  4  1  0
  4  5  1  0
  5  6  1  0
  6  7  1  0
  7  8  1  0
  8  9  2  0
  8 10  1  0
 10 11  1  0
 12 11  1  0
 12 13  1  0
 13 14  1  0
 14 15  1  0
 15 16  1  0
 16 17  1  0
 17 18  1  0
 17 19  1  0
 13 20  1  0
 17 20  1  0
 12 21  1  0
 21 22  1  0
 22 23  1  0
 23 24  1  0
 12 25  1  0
 24 25  1  0
  7 26  1  0
  4 27  1  0
 26 27  1  0
M  END
