piperidine-amides-3884-covalent
     RDKit          3D

 20 21  0  0  0  0  0  0  0  0999 V2000
    7.1690   -3.2990   19.2300 C   0  0  0  0  0  0  0  0  0  0  0  0
    6.3730   -4.0330   20.2200 C   0  0  0  0  0  0  0  0  0  0  0  0
    5.2620   -4.4750   19.8560 O   0  0  0  0  0  0  0  0  0  0  0  0
    6.9000   -4.2810   21.5060 N   0  0  0  0  0  0  0  0  0  0  0  0
    6.3000   -5.2970   22.2920 C   0  0  0  0  0  0  0  0  0  0  0  0
    5.7630   -4.8240   23.5650 C   0  0  0  0  0  0  0  0  0  0  0  0
    6.5170   -3.7380   24.2390 C   0  0  0  0  0  0  0  0  0  0  0  0
    5.7580   -3.1330   25.3770 C   0  0  0  0  0  0  0  0  0  0  0  0
    4.5330   -2.9110   25.2640 O   0  0  0  0  0  0  0  0  0  0  0  0
    6.4170   -2.8200   26.5770 N   0  0  0  0  0  0  0  0  0  0  0  0
    7.4870   -3.5390   27.1310 C   0  0  0  0  0  0  0  0  0  0  0  0
    7.4820   -4.9900   27.1380 C   0  0  0  0  0  0  0  0  0  0  0  0
    6.2480   -5.6200   27.8150 C   0  0  0  0  0  0  0  0  0  0  0  0
    5.5000   -4.7460   28.5710 C   0  0  0  0  0  0  0  0  0  0  0  0
    5.3420   -6.2180   26.9630 F   0  0  0  0  0  0  0  0  0  0  0  0
    6.6820   -6.5530   28.7130 F   0  0  0  0  0  0  0  0  0  0  0  0
    8.4320   -5.2610   28.3730 C   0  0  0  0  0  0  0  0  0  0  0  0
    8.7920   -5.8590   27.2080 C   0  0  0  0  0  0  0  0  0  0  0  0
    6.9060   -2.6450   23.2440 C   0  0  0  0  0  0  0  0  0  0  0  0
    7.7300   -3.3200   22.1900 C   0  0  0  0  0  0  0  0  0  0  0  0
  1  2  1  0
  2  3  2  0
  2  4  1  0
  4  5  1  0
  5  6  1  0
  6  7  1  0
  7  8  1  0
  8  9  2  0
  8 10  1  0
 10 11  1  0
 12 11  1  0
 12 13  1  0
 13 14  1  0
 13 15  1  0
 13 16  1  0
 12 17  1  0
 12 18  1  0
 17 18  1  0
  7 19  1  0
  4 20  1  0
 19 20  1  0
M  END
