piperidine-amides-3594-covalent
     RDKit          3D

 18 18  0  0  0  0  0  0  0  0999 V2000
    7.1170   -3.2900   19.2080 C   0  0  0  0  0  0  0  0  0  0  0  0
    6.3860   -4.0500   20.2380 C   0  0  0  0  0  0  0  0  0  0  0  0
    5.2920   -4.5490   19.8910 O   0  0  0  0  0  0  0  0  0  0  0  0
    6.9210   -4.2680   21.5350 N   0  0  0  0  0  0  0  0  0  0  0  0
    7.6440   -3.2030   22.1510 C   0  0  0  0  0  0  0  0  0  0  0  0
    7.2360   -2.9470   23.5230 C   0  0  0  0  0  0  0  0  0  0  0  0
    5.9720   -3.6120   23.8930 C   0  0  0  0  0  0  0  0  0  0  0  0
    5.5070   -3.2540   25.2670 C   0  0  0  0  0  0  0  0  0  0  0  0
    4.4680   -2.5860   25.3990 O   0  0  0  0  0  0  0  0  0  0  0  0
    6.2040   -3.6520   26.4160 N   0  0  0  0  0  0  0  0  0  0  0  0
    6.0140   -4.8100   27.2070 C   0  0  2  0  0  0  0  0  0  0  0  0
    4.7080   -5.3290   27.4960 C   0  0  0  0  0  0  0  0  0  0  0  0
    4.8680   -6.8300   27.7920 C   0  0  0  0  0  0  0  0  0  0  0  0
    6.5580   -4.6230   28.5670 C   0  0  0  0  0  0  0  0  0  0  0  0
    6.4840   -5.6370   29.5180 N   0  0  0  0  0  0  0  0  0  0  0  0
    7.0480   -3.3470   28.7220 O   0  0  0  0  0  0  0  0  0  0  0  0
    6.1250   -5.0950   23.6780 C   0  0  0  0  0  0  0  0  0  0  0  0
    6.5230   -5.4320   22.2770 C   0  0  0  0  0  0  0  0  0  0  0  0
  1  2  1  0
  2  3  2  0
  2  4  1  0
  4  5  1  0
  5  6  1  0
  6  7  1  0
  7  8  1  0
  8  9  2  0
  8 10  1  0
 10 11  1  0
 11 12  1  1
 12 13  1  0
 11 14  1  0
 14 15  1  0
 14 16  2  0
  7 17  1  0
  4 18  1  0
 17 18  1  0
M  END
