piperidine-amides-27890-covalent
     RDKit          3D

 26 28  0  0  0  0  0  0  0  0999 V2000
    7.0220   -3.3430   19.3830 C   0  0  0  0  0  0  0  0  0  0  0  0
    6.3760   -4.2000   20.4080 C   0  0  0  0  0  0  0  0  0  0  0  0
    5.4150   -4.8880   19.9980 O   0  0  0  0  0  0  0  0  0  0  0  0
    6.8430   -4.2630   21.7480 N   0  0  0  0  0  0  0  0  0  0  0  0
    6.5150   -5.3840   22.5760 C   0  0  0  0  0  0  0  0  0  0  0  0
    5.9080   -4.9940   23.8610 C   0  0  0  0  0  0  0  0  0  0  0  0
    5.8490   -3.5230   24.0100 C   0  0  0  0  0  0  0  0  0  0  0  0
    5.1680   -2.9900   25.2540 C   0  0  0  0  0  0  0  0  0  0  0  0
    4.3720   -2.0630   25.0530 O   0  0  0  0  0  0  0  0  0  0  0  0
    5.3260   -3.4210   26.6050 N   0  0  0  0  0  0  0  0  0  0  0  0
    4.1790   -3.4010   27.5340 C   0  0  0  0  0  0  0  0  0  0  0  0
    4.5860   -3.8280   28.9140 C   0  0  0  0  0  0  0  0  0  0  0  0
    5.6170   -4.8270   29.0160 C   0  0  0  0  0  0  0  0  0  0  0  0
    5.1810   -6.0920   28.7110 C   0  0  0  0  0  0  0  0  0  0  0  0
    4.3320   -6.4000   27.8580 O   0  0  0  0  0  0  0  0  0  0  0  0
    5.8550   -7.0010   29.5270 N   0  0  0  0  0  0  0  0  0  0  0  0
    5.2600   -7.2750   30.8210 C   0  0  0  0  0  0  0  0  0  0  0  0
    3.9430   -7.6410   30.7900 C   0  0  0  0  0  0  0  0  0  0  0  0
    3.2820   -7.9230   31.9480 C   0  0  0  0  0  0  0  0  0  0  0  0
    3.8890   -7.8550   33.1630 C   0  0  0  0  0  0  0  0  0  0  0  0
    5.2300   -7.4780   33.1680 C   0  0  0  0  0  0  0  0  0  0  0  0
    5.9510   -7.1840   32.0760 N   0  0  0  0  0  0  0  0  0  0  0  0
    6.6150   -4.4850   28.2320 C   0  0  0  0  0  0  0  0  0  0  0  0
    6.4660   -3.2740   27.3210 C   0  0  0  0  0  0  0  0  0  0  0  0
    7.2250   -2.9260   23.6820 C   0  0  0  0  0  0  0  0  0  0  0  0
    7.6450   -3.1960   22.3440 C   0  0  0  0  0  0  0  0  0  0  0  0
  1  2  1  0
  2  3  2  0
  2  4  1  0
  4  5  1  0
  5  6  1  0
  6  7  1  0
  7  8  1  0
  8  9  2  0
  8 10  1  0
 10 11  1  0
 11 12  1  0
 12 13  1  0
 13 14  1  0
 14 15  2  0
 14 16  1  0
 16 17  1  0
 17 18  2  0
 18 19  1  0
 19 20  2  0
 20 21  1  0
 17 22  1  0
 21 22  2  0
 13 23  1  0
 10 24  1  0
 23 24  1  0
  7 25  1  0
  4 26  1  0
 25 26  1  0
M  END
