piperidine-amides-14946-covalent
     RDKit          3D

 21 22  0  0  0  0  0  0  0  0999 V2000
    7.0040   -3.3410   19.3590 C   0  0  0  0  0  0  0  0  0  0  0  0
    6.3400   -4.1740   20.3620 C   0  0  0  0  0  0  0  0  0  0  0  0
    5.3910   -4.8860   19.9870 O   0  0  0  0  0  0  0  0  0  0  0  0
    6.7900   -4.1990   21.7120 N   0  0  0  0  0  0  0  0  0  0  0  0
    6.6580   -5.4190   22.4550 C   0  0  0  0  0  0  0  0  0  0  0  0
    6.0150   -5.1060   23.7760 C   0  0  0  0  0  0  0  0  0  0  0  0
    6.0480   -3.6010   23.8810 C   0  0  0  0  0  0  0  0  0  0  0  0
    5.6600   -3.1620   25.2650 C   0  0  0  0  0  0  0  0  0  0  0  0
    4.4600   -3.1590   25.5240 O   0  0  0  0  0  0  0  0  0  0  0  0
    6.6760   -2.7980   26.1320 N   0  0  0  0  0  0  0  0  0  0  0  0
    6.5880   -1.6880   27.0280 C   0  0  0  0  0  0  0  0  0  0  0  0
    7.0260   -1.6300   28.3670 C   0  0  0  0  0  0  0  0  0  0  0  0
    6.9050   -0.5060   29.1630 C   0  0  0  0  0  0  0  0  0  0  0  0
    6.3310    0.6640   28.6850 C   0  0  0  0  0  0  0  0  0  0  0  0
    6.3400    1.6970   29.7700 C   0  0  0  0  0  0  0  0  0  0  0  0
    4.9830    1.8830   30.8280 S   0  0  0  0  0  0  0  0  0  0  0  0
    3.6600    0.7910   30.3680 C   0  0  0  0  0  0  0  0  0  0  0  0
    5.8390    0.8000   27.3930 C   0  0  0  0  0  0  0  0  0  0  0  0
    5.9620   -0.4020   26.5200 C   0  0  0  0  0  0  0  0  0  0  0  0
    7.3290   -2.9600   23.5600 C   0  0  0  0  0  0  0  0  0  0  0  0
    7.6830   -3.1810   22.2430 C   0  0  0  0  0  0  0  0  0  0  0  0
  1  2  1  0
  2  3  2  0
  2  4  1  0
  4  5  1  0
  5  6  1  0
  6  7  1  0
  7  8  1  0
  8  9  2  0
  8 10  1  0
 10 11  1  0
 11 12  2  0
 12 13  1  0
 13 14  2  0
 14 15  1  0
 15 16  1  0
 16 17  1  0
 14 18  1  0
 11 19  1  0
 18 19  2  0
  7 20  1  0
  4 21  1  0
 20 21  1  0
M  END
