piperidine-amides-25999-covalent
     RDKit          3D

 24 25  0  0  0  0  0  0  0  0999 V2000
    7.1080   -3.2780   19.1970 C   0  0  0  0  0  0  0  0  0  0  0  0
    6.3600   -4.0230   20.2150 C   0  0  0  0  0  0  0  0  0  0  0  0
    5.3030   -4.5930   19.8970 O   0  0  0  0  0  0  0  0  0  0  0  0
    6.8430   -4.1430   21.5260 N   0  0  0  0  0  0  0  0  0  0  0  0
    7.7610   -3.1970   22.1150 C   0  0  0  0  0  0  0  0  0  0  0  0
    7.0800   -2.6710   23.3400 C   0  0  0  0  0  0  0  0  0  0  0  0
    6.6320   -3.7750   24.2490 C   0  0  0  0  0  0  0  0  0  0  0  0
    5.9080   -3.2100   25.4100 C   0  0  0  0  0  0  0  0  0  0  0  0
    4.6370   -3.1800   25.4270 O   0  0  0  0  0  0  0  0  0  0  0  0
    6.5890   -2.6750   26.5250 N   0  0  0  0  0  0  0  0  0  0  0  0
    6.6480   -1.2170   26.7110 C   0  0  0  0  0  0  0  0  0  0  0  0
    7.7050   -3.4230   27.1030 C   0  0  0  0  0  0  0  0  0  0  0  0
    7.2400   -4.6470   27.7440 C   0  0  0  0  0  0  0  0  0  0  0  0
    5.9480   -4.7390   28.4680 C   0  0  0  0  0  0  0  0  0  0  0  0
    5.9190   -6.1390   28.9240 C   0  0  0  0  0  0  0  0  0  0  0  0
    4.7130   -6.5500   29.6920 C   0  0  0  0  0  0  0  0  0  0  0  0
    5.0720   -7.0070   30.9580 F   0  0  0  0  0  0  0  0  0  0  0  0
    3.9430   -7.4690   29.0450 F   0  0  0  0  0  0  0  0  0  0  0  0
    3.8330   -5.4890   29.8720 F   0  0  0  0  0  0  0  0  0  0  0  0
    7.1650   -6.7590   28.4560 N   0  0  0  0  0  0  0  0  0  0  0  0
    7.8660   -5.8240   27.7800 N   0  0  0  0  0  0  0  0  0  0  0  0
    9.1530   -5.9860   27.1340 C   0  0  0  0  0  0  0  0  0  0  0  0
    5.7560   -4.7840   23.5410 C   0  0  0  0  0  0  0  0  0  0  0  0
    6.4970   -5.3000   22.3240 C   0  0  0  0  0  0  0  0  0  0  0  0
  1  2  1  0
  2  3  2  0
  2  4  1  0
  4  5  1  0
  5  6  1  0
  6  7  1  0
  7  8  1  0
  8  9  2  0
  8 10  1  0
 10 11  1  0
 10 12  1  0
 12 13  1  0
 13 14  2  0
 14 15  1  0
 15 16  1  0
 16 17  1  0
 16 18  1  0
 16 19  1  0
 15 20  2  0
 13 21  1  0
 20 21  1  0
 21 22  1  0
  7 23  1  0
  4 24  1  0
 23 24  1  0
M  END
