piperidine-amides-32822-covalent
     RDKit          3D

 29 31  0  0  0  0  0  0  0  0999 V2000
    7.0370   -3.3480   19.3970 C   0  0  0  0  0  0  0  0  0  0  0  0
    6.3720   -4.2450   20.3860 C   0  0  0  0  0  0  0  0  0  0  0  0
    5.3930   -4.9100   19.9980 O   0  0  0  0  0  0  0  0  0  0  0  0
    6.8710   -4.3660   21.7120 N   0  0  0  0  0  0  0  0  0  0  0  0
    6.6790   -5.6000   22.4540 C   0  0  0  0  0  0  0  0  0  0  0  0
    6.2130   -5.2740   23.8910 C   0  0  0  0  0  0  0  0  0  0  0  0
    6.0970   -3.7970   24.0010 C   0  0  0  0  0  0  0  0  0  0  0  0
    5.6880   -3.2290   25.3260 C   0  0  0  0  0  0  0  0  0  0  0  0
    5.0970   -2.1520   25.2540 O   0  0  0  0  0  0  0  0  0  0  0  0
    5.8940   -3.8470   26.5710 N   0  0  0  0  0  0  0  0  0  0  0  0
    4.8340   -4.3940   27.3700 C   0  0  0  0  0  0  0  0  0  0  0  0
    4.6950   -4.3430   28.7550 C   0  0  0  0  0  0  0  0  0  0  0  0
    5.8300   -5.0260   29.3080 N   0  0  0  0  0  0  0  0  0  0  0  0
    5.9380   -6.4000   29.4760 C   0  0  0  0  0  0  0  0  0  0  0  0
    7.0080   -7.0790   28.9540 O   0  0  0  0  0  0  0  0  0  0  0  0
    4.9520   -7.0580   30.1750 C   0  0  1  0  0  0  0  0  0  0  0  0
    5.4790   -7.4280   31.5150 C   0  0  0  0  0  0  0  0  0  0  0  0
    3.7200   -6.4750   30.1620 O   0  0  0  0  0  0  0  0  0  0  0  0
    2.3130   -6.5820   30.2590 C   0  0  0  0  0  0  0  0  0  0  0  0
    1.8640   -7.9970   30.6470 C   0  0  0  0  0  0  0  0  0  0  0  0
    0.5100   -8.3410   30.8020 C   0  0  0  0  0  0  0  0  0  0  0  0
   -0.6880   -7.4390   30.6280 C   0  0  0  0  0  0  0  0  0  0  0  0
   -0.1170   -6.0900   30.2520 C   0  0  0  0  0  0  0  0  0  0  0  0
   -0.4870   -4.8080   29.9390 C   0  0  0  0  0  0  0  0  0  0  0  0
    1.2390   -5.6160   30.0630 C   0  0  0  0  0  0  0  0  0  0  0  0
    6.9620   -4.7110   28.5220 C   0  0  0  0  0  0  0  0  0  0  0  0
    6.4790   -3.4480   27.8100 C   0  0  0  0  0  0  0  0  0  0  0  0
    7.3640   -3.0900   23.5940 C   0  0  0  0  0  0  0  0  0  0  0  0
    7.6260   -3.2670   22.2500 C   0  0  0  0  0  0  0  0  0  0  0  0
  1  2  1  0
  2  3  2  0
  2  4  1  0
  4  5  1  0
  5  6  1  0
  6  7  1  0
  7  8  1  0
  8  9  2  0
  8 10  1  0
 10 11  1  0
 11 12  1  0
 12 13  1  0
 13 14  1  0
 14 15  2  0
 14 16  1  0
 16 17  1  1
 16 18  1  0
 18 19  1  0
 19 20  2  0
 20 21  1  0
 21 22  2  0
 22 23  1  0
 23 24  1  0
 19 25  1  0
 23 25  2  0
 13 26  1  0
 10 27  1  0
 26 27  1  0
  7 28  1  0
  4 29  1  0
 28 29  1  0
M  END
