piperidine-amides-9257-covalent
     RDKit          3D

 19 20  0  0  0  0  0  0  0  0999 V2000
    7.1250   -3.3330   19.2680 C   0  0  0  0  0  0  0  0  0  0  0  0
    6.3500   -4.0910   20.2430 C   0  0  0  0  0  0  0  0  0  0  0  0
    5.2810   -4.6150   19.9050 O   0  0  0  0  0  0  0  0  0  0  0  0
    6.8420   -4.2830   21.5370 N   0  0  0  0  0  0  0  0  0  0  0  0
    7.7360   -3.3550   22.1840 C   0  0  0  0  0  0  0  0  0  0  0  0
    6.9970   -2.8540   23.3810 C   0  0  0  0  0  0  0  0  0  0  0  0
    6.4920   -3.9860   24.2160 C   0  0  0  0  0  0  0  0  0  0  0  0
    5.7460   -3.4870   25.3890 C   0  0  0  0  0  0  0  0  0  0  0  0
    4.4810   -3.5360   25.4230 O   0  0  0  0  0  0  0  0  0  0  0  0
    6.3880   -2.9230   26.5060 N   0  0  0  0  0  0  0  0  0  0  0  0
    6.5880   -1.4610   26.5670 C   0  0  0  0  0  0  0  0  0  0  0  0
    6.4540   -0.6660   25.3150 C   0  0  0  0  0  0  0  0  0  0  0  0
    6.0170    0.7370   25.4960 C   0  0  0  0  0  0  0  0  0  0  0  0
    4.8870    1.0390   24.5460 C   0  0  0  0  0  0  0  0  0  0  0  0
    3.6010    0.9350   25.3410 C   0  0  0  0  0  0  0  0  0  0  0  0
    5.5110   -0.9570   27.4610 C   0  0  0  0  0  0  0  0  0  0  0  0
    6.7710   -0.7650   27.9260 C   0  0  0  0  0  0  0  0  0  0  0  0
    5.6410   -4.9550   23.4380 C   0  0  0  0  0  0  0  0  0  0  0  0
    6.4620   -5.4640   22.2780 C   0  0  0  0  0  0  0  0  0  0  0  0
  1  2  1  0
  2  3  2  0
  2  4  1  0
  4  5  1  0
  5  6  1  0
  6  7  1  0
  7  8  1  0
  8  9  2  0
  8 10  1  0
 11 10  1  0
 11 12  1  0
 12 13  1  0
 13 14  1  0
 14 15  1  0
 11 16  1  0
 11 17  1  0
 16 17  1  0
  7 18  1  0
  4 19  1  0
 18 19  1  0
M  END
