piperidine-amides-10102-covalent
     RDKit          3D

 25 27  0  0  0  0  0  0  0  0999 V2000
    7.1040   -3.2890   19.2270 C   0  0  0  0  0  0  0  0  0  0  0  0
    6.4010   -4.0660   20.2520 C   0  0  0  0  0  0  0  0  0  0  0  0
    5.3140   -4.5930   19.9020 O   0  0  0  0  0  0  0  0  0  0  0  0
    6.9510   -4.2420   21.5200 N   0  0  0  0  0  0  0  0  0  0  0  0
    6.6440   -5.4080   22.3140 C   0  0  0  0  0  0  0  0  0  0  0  0
    6.5050   -4.9830   23.7510 C   0  0  0  0  0  0  0  0  0  0  0  0
    5.9230   -3.6010   23.8800 C   0  0  0  0  0  0  0  0  0  0  0  0
    5.6780   -3.2510   25.2930 C   0  0  0  0  0  0  0  0  0  0  0  0
    4.5370   -2.8420   25.5990 O   0  0  0  0  0  0  0  0  0  0  0  0
    6.6490   -3.3450   26.2990 N   0  0  0  0  0  0  0  0  0  0  0  0
    6.3950   -4.0890   27.5090 C   0  0  0  0  0  0  0  0  0  0  0  0
    6.3640   -5.5980   27.2970 C   0  0  0  0  0  0  0  0  0  0  0  0
    5.3600   -6.4010   27.7900 C   0  0  0  0  0  0  0  0  0  0  0  0
    4.9400   -6.9690   28.9420 C   0  0  0  0  0  0  0  0  0  0  0  0
    5.5700   -6.8430   30.1680 C   0  0  0  0  0  0  0  0  0  0  0  0
    3.7890   -7.6990   28.7490 N   0  0  0  0  0  0  0  0  0  0  0  0
    3.4560   -7.6030   27.4110 C   0  0  0  0  0  0  0  0  0  0  0  0
    2.3850   -8.1600   26.6960 C   0  0  0  0  0  0  0  0  0  0  0  0
    1.9960   -8.0730   25.2170 C   0  0  0  0  0  0  0  0  0  0  0  0
    0.5900   -8.8450   24.4530 Cl  0  0  0  0  0  0  0  0  0  0  0  0
    3.0310   -7.2030   24.5220 C   0  0  0  0  0  0  0  0  0  0  0  0
    4.1920   -6.5740   25.2080 C   0  0  0  0  0  0  0  0  0  0  0  0
    4.4570   -6.7450   26.6750 C   0  0  0  0  0  0  0  0  0  0  0  0
    6.7780   -2.5710   23.2360 C   0  0  0  0  0  0  0  0  0  0  0  0
    7.6440   -3.1490   22.1470 C   0  0  0  0  0  0  0  0  0  0  0  0
  1  2  1  0
  2  3  2  0
  2  4  1  0
  4  5  1  0
  5  6  1  0
  6  7  1  0
  7  8  1  0
  8  9  2  0
  8 10  1  0
 10 11  1  0
 11 12  1  0
 12 13  1  0
 13 14  2  0
 14 15  1  0
 14 16  1  0
 16 17  1  0
 17 18  1  0
 18 19  2  0
 19 20  1  0
 19 21  1  0
 21 22  2  0
 13 23  1  0
 17 23  2  0
 22 23  1  0
  7 24  1  0
  4 25  1  0
 24 25  1  0
M  END
