piperidine-amides-2677-covalent
     RDKit          3D

 25 27  0  0  0  0  0  0  0  0999 V2000
    7.0700   -3.3140   19.2640 C   0  0  0  0  0  0  0  0  0  0  0  0
    6.3720   -4.1480   20.2820 C   0  0  0  0  0  0  0  0  0  0  0  0
    5.3400   -4.7170   19.9370 O   0  0  0  0  0  0  0  0  0  0  0  0
    6.9130   -4.2970   21.5560 N   0  0  0  0  0  0  0  0  0  0  0  0
    6.5740   -5.4070   22.4160 C   0  0  0  0  0  0  0  0  0  0  0  0
    5.8770   -4.8910   23.6490 C   0  0  0  0  0  0  0  0  0  0  0  0
    6.6980   -3.7290   24.2110 C   0  0  0  0  0  0  0  0  0  0  0  0
    6.0070   -3.1530   25.3740 C   0  0  0  0  0  0  0  0  0  0  0  0
    4.8130   -3.4040   25.5890 O   0  0  0  0  0  0  0  0  0  0  0  0
    6.7410   -2.2960   26.2160 N   0  0  0  0  0  0  0  0  0  0  0  0
    6.0640   -1.6070   27.2810 C   0  0  2  0  0  0  0  0  0  0  0  0
    5.6270   -0.2860   26.7650 C   0  0  0  0  0  0  0  0  0  0  0  0
    5.8720    0.5840   27.7520 C   0  0  0  0  0  0  0  0  0  0  0  0
    6.5320    0.0130   28.8790 N   0  0  0  0  0  0  0  0  0  0  0  0
    6.0730    0.2000   30.2410 C   0  0  0  0  0  0  0  0  0  0  0  0
    5.1460   -0.5710   30.8210 C   0  0  0  0  0  0  0  0  0  0  0  0
    4.6360   -1.5830   30.0160 F   0  0  0  0  0  0  0  0  0  0  0  0
    4.5720   -0.5130   32.2070 C   0  0  0  0  0  0  0  0  0  0  0  0
    5.1960    0.6210   33.0000 C   0  0  0  0  0  0  0  0  0  0  0  0
    6.2640    1.5280   32.3690 C   0  0  0  0  0  0  0  0  0  0  0  0
    6.6360    1.2210   30.9500 C   0  0  0  0  0  0  0  0  0  0  0  0
    7.6000    2.0730   30.4440 F   0  0  0  0  0  0  0  0  0  0  0  0
    6.8840   -1.3520   28.5070 C   0  0  0  0  0  0  0  0  0  0  0  0
    7.0880   -2.6920   23.2540 C   0  0  0  0  0  0  0  0  0  0  0  0
    7.7780   -3.2600   22.0880 C   0  0  0  0  0  0  0  0  0  0  0  0
  1  2  1  0
  2  3  2  0
  2  4  1  0
  4  5  1  0
  5  6  1  0
  6  7  1  0
  7  8  1  0
  8  9  2  0
  8 10  1  0
 11 10  1  6
 11 12  1  0
 12 13  1  0
 13 14  1  0
 14 15  1  0
 15 16  2  0
 16 17  1  0
 16 18  1  0
 18 19  2  0
 19 20  1  0
 15 21  1  0
 20 21  2  0
 21 22  1  0
 11 23  1  0
 14 23  1  0
  7 24  1  0
  4 25  1  0
 24 25  1  0
M  END
