piperidine-amides-34226-covalent
     RDKit          3D

 30 31  0  0  0  0  0  0  0  0999 V2000
    7.1080   -3.3050   19.2940 C   0  0  0  0  0  0  0  0  0  0  0  0
    6.3980   -4.1510   20.2620 C   0  0  0  0  0  0  0  0  0  0  0  0
    5.3440   -4.7470   19.9510 O   0  0  0  0  0  0  0  0  0  0  0  0
    6.9420   -4.3500   21.5300 N   0  0  0  0  0  0  0  0  0  0  0  0
    6.6610   -5.5800   22.2190 C   0  0  0  0  0  0  0  0  0  0  0  0
    5.8660   -5.1640   23.4510 C   0  0  0  0  0  0  0  0  0  0  0  0
    6.7310   -4.1690   24.1920 C   0  0  0  0  0  0  0  0  0  0  0  0
    5.9270   -3.6490   25.2970 C   0  0  0  0  0  0  0  0  0  0  0  0
    5.0900   -2.7500   25.0780 O   0  0  0  0  0  0  0  0  0  0  0  0
    6.1260   -4.1990   26.5680 N   0  0  0  0  0  0  0  0  0  0  0  0
    6.9550   -5.3470   26.7320 C   0  0  0  0  0  0  0  0  0  0  0  0
    6.9790   -5.7160   28.2000 C   0  0  0  0  0  0  0  0  0  0  0  0
    6.0360   -6.5410   28.6760 C   0  0  0  0  0  0  0  0  0  0  0  0
    4.8520   -5.9630   29.0160 C   0  0  1  0  0  0  0  0  0  0  0  0
    4.7130   -5.6070   30.3790 N   0  0  0  0  0  0  0  0  0  0  0  0
    3.8780   -4.5450   30.7410 C   0  0  0  0  0  0  0  0  0  0  0  0
    4.4930   -3.4180   30.2240 C   0  0  0  0  0  0  0  0  0  0  0  0
    5.7290   -3.4700   29.6910 O   0  0  0  0  0  0  0  0  0  0  0  0
    3.8850   -2.1840   30.2550 O   0  0  0  0  0  0  0  0  0  0  0  0
    4.6470   -1.0440   29.8540 C   0  0  0  0  0  0  0  0  0  0  0  0
    4.4760   -0.6990   28.3960 C   0  0  0  0  0  0  0  0  0  0  0  0
    5.0490   -0.0150   30.8180 C   0  0  0  0  0  0  0  0  0  0  0  0
    6.0320   -0.9170   30.2200 C   0  0  0  0  0  0  0  0  0  0  0  0
    4.8390   -6.6940   31.3090 C   0  0  0  0  0  0  0  0  0  0  0  0
    3.8210   -7.6070   31.3660 C   0  0  0  0  0  0  0  0  0  0  0  0
    5.9300   -6.8730   32.1340 O   0  0  0  0  0  0  0  0  0  0  0  0
    4.3100   -4.9180   28.0750 C   0  0  0  0  0  0  0  0  0  0  0  0
    5.2490   -3.8390   27.6200 C   0  0  0  0  0  0  0  0  0  0  0  0
    7.2410   -2.9840   23.4320 C   0  0  0  0  0  0  0  0  0  0  0  0
    7.6510   -3.2600   22.1530 C   0  0  0  0  0  0  0  0  0  0  0  0
  1  2  1  0
  2  3  2  0
  2  4  1  0
  4  5  1  0
  5  6  1  0
  6  7  1  0
  7  8  1  0
  8  9  2  0
  8 10  1  0
 10 11  1  0
 11 12  1  0
 12 13  1  0
 13 14  1  0
 14 15  1  1
 15 16  1  0
 16 17  1  0
 17 18  2  0
 17 19  1  0
 20 19  1  0
 20 21  1  0
 20 22  1  0
 20 23  1  0
 15 24  1  0
 24 25  1  0
 24 26  2  0
 14 27  1  0
 10 28  1  0
 27 28  1  0
  7 29  1  0
  4 30  1  0
 29 30  1  0
M  END
