piperidine-amides-33181-covalent
     RDKit          3D

 28 30  0  0  0  0  0  0  0  0999 V2000
    7.1280   -3.3690   19.3470 C   0  0  0  0  0  0  0  0  0  0  0  0
    6.4210   -4.1850   20.3390 C   0  0  0  0  0  0  0  0  0  0  0  0
    5.3630   -4.7480   19.9650 O   0  0  0  0  0  0  0  0  0  0  0  0
    6.9710   -4.3670   21.6340 N   0  0  0  0  0  0  0  0  0  0  0  0
    6.5050   -5.4390   22.4350 C   0  0  0  0  0  0  0  0  0  0  0  0
    5.9880   -5.0460   23.7530 C   0  0  0  0  0  0  0  0  0  0  0  0
    6.4250   -3.7450   24.3350 C   0  0  0  0  0  0  0  0  0  0  0  0
    5.3590   -3.1970   25.2450 C   0  0  0  0  0  0  0  0  0  0  0  0
    4.4650   -2.5070   24.7370 O   0  0  0  0  0  0  0  0  0  0  0  0
    5.2840   -3.4200   26.6420 N   0  0  0  0  0  0  0  0  0  0  0  0
    4.2250   -3.0910   27.4850 C   0  0  0  0  0  0  0  0  0  0  0  0
    3.6410   -4.1340   28.3060 C   0  0  0  0  0  0  0  0  0  0  0  0
    4.6620   -4.5200   29.3530 C   0  0  0  0  0  0  0  0  0  0  0  0
    5.5410   -5.4530   28.7150 N   0  0  0  0  0  0  0  0  0  0  0  0
    4.8580   -6.5440   28.0910 C   0  0  0  0  0  0  0  0  0  0  0  0
    4.0760   -6.4760   26.9570 O   0  0  0  0  0  0  0  0  0  0  0  0
    5.1500   -7.6100   28.8210 N   0  0  0  0  0  0  0  0  0  0  0  0
    4.4790   -7.7450   30.1040 C   0  0  0  0  0  0  0  0  0  0  0  0
    5.4800   -7.5080   31.1950 C   0  0  0  0  0  0  0  0  0  0  0  0
    4.7780   -7.6550   32.5720 C   0  0  0  0  0  0  0  0  0  0  0  0
    3.3430   -7.9770   32.9590 C   0  0  0  0  0  0  0  0  0  0  0  0
    2.7990   -8.0900   34.6170 Cl  0  0  0  0  0  0  0  0  0  0  0  0
    2.4690   -8.1830   31.7500 C   0  0  0  0  0  0  0  0  0  0  0  0
    3.0330   -8.0670   30.3480 C   0  0  0  0  0  0  0  0  0  0  0  0
    6.4990   -4.8860   28.0610 C   0  0  0  0  0  0  0  0  0  0  0  0
    6.3600   -3.5870   27.5370 C   0  0  0  0  0  0  0  0  0  0  0  0
    6.9090   -2.7130   23.3720 C   0  0  0  0  0  0  0  0  0  0  0  0
    7.7010   -3.2970   22.2410 C   0  0  0  0  0  0  0  0  0  0  0  0
  1  2  1  0
  2  3  2  0
  2  4  1  0
  4  5  1  0
  5  6  1  0
  6  7  1  0
  7  8  1  0
  8  9  2  0
  8 10  1  0
 10 11  1  0
 11 12  1  0
 12 13  1  0
 13 14  1  0
 14 15  1  0
 15 16  2  0
 15 17  1  0
 17 18  1  0
 18 19  2  0
 19 20  1  0
 20 21  2  0
 21 22  1  0
 21 23  1  0
 18 24  1  0
 23 24  2  0
 14 25  1  0
 10 26  1  0
 25 26  1  0
  7 27  1  0
  4 28  1  0
 27 28  1  0
M  END
