piperidine-amides-31535-covalent
     RDKit          3D

 28 30  0  0  0  0  0  0  0  0999 V2000
    7.0800   -3.3330   19.1800 C   0  0  0  0  0  0  0  0  0  0  0  0
    6.3310   -3.9930   20.2250 C   0  0  0  0  0  0  0  0  0  0  0  0
    5.2710   -4.6030   19.8980 O   0  0  0  0  0  0  0  0  0  0  0  0
    6.7560   -4.0240   21.5640 N   0  0  0  0  0  0  0  0  0  0  0  0
    6.6600   -5.3350   22.2520 C   0  0  0  0  0  0  0  0  0  0  0  0
    5.8020   -4.9750   23.5340 C   0  0  0  0  0  0  0  0  0  0  0  0
    6.2260   -3.5930   23.9910 C   0  0  0  0  0  0  0  0  0  0  0  0
    5.7850   -3.3170   25.4920 C   0  0  0  0  0  0  0  0  0  0  0  0
    4.5720   -3.4440   25.6120 O   0  0  0  0  0  0  0  0  0  0  0  0
    6.8310   -3.0250   26.1670 N   0  0  0  0  0  0  0  0  0  0  0  0
    8.0310   -2.6410   26.5550 C   0  0  0  0  0  0  0  0  0  0  0  0
    8.0810   -2.5300   27.8290 C   0  0  1  0  0  0  0  0  0  0  0  0
    7.5000   -1.4220   28.4930 C   0  0  0  0  0  0  0  0  0  0  0  0
    6.3770   -0.6160   27.9740 C   0  0  0  0  0  0  0  0  0  0  0  0
    5.9490    0.5190   28.9190 C   0  0  0  0  0  0  0  0  0  0  0  0
    6.6170    0.7030   30.1420 C   0  0  0  0  0  0  0  0  0  0  0  0
    7.6730    0.1080   30.8470 C   0  0  0  0  0  0  0  0  0  0  0  0
    8.0040   -0.9770   29.8290 C   0  0  0  0  0  0  0  0  0  0  0  0
    6.6390   -3.0210   27.6750 C   0  0  2  0  0  0  0  0  0  0  0  0
    6.3090   -4.2030   28.2900 C   0  0  0  0  0  0  0  0  0  0  0  0
    6.7580   -5.3060   27.8820 O   0  0  0  0  0  0  0  0  0  0  0  0
    5.4790   -4.2280   29.3800 O   0  0  0  0  0  0  0  0  0  0  0  0
    4.4260   -3.2990   29.5060 C   0  0  0  0  0  0  0  0  0  0  0  0
    5.0050   -2.1580   29.9640 C   0  0  0  0  0  0  0  0  0  0  0  0
    3.5260   -3.8880   30.3610 C   0  0  0  0  0  0  0  0  0  0  0  0
    3.7570   -3.2100   28.3220 C   0  0  0  0  0  0  0  0  0  0  0  0
    7.5580   -3.0810   23.5900 C   0  0  0  0  0  0  0  0  0  0  0  0
    7.7120   -3.1100   22.1150 C   0  0  0  0  0  0  0  0  0  0  0  0
  1  2  1  0
  2  3  2  0
  2  4  1  0
  4  5  1  0
  5  6  1  0
  6  7  1  0
  7  8  1  0
  8  9  2  0
  8 10  1  0
 10 11  1  0
 11 12  1  0
 12 13  1  6
 13 14  2  0
 14 15  1  0
 15 16  2  0
 16 17  1  0
 13 18  1  0
 17 18  2  0
 10 19  1  0
 12 19  1  0
 19 20  1  1
 20 21  2  0
 20 22  1  0
 23 22  1  0
 23 24  1  0
 23 25  1  0
 23 26  1  0
  7 27  1  0
  4 28  1  0
 27 28  1  0
M  END
