piperidine-amides-976-covalent
     RDKit          3D

 24 25  0  0  0  0  0  0  0  0999 V2000
    7.1550   -3.2700   19.2360 C   0  0  0  0  0  0  0  0  0  0  0  0
    6.3860   -4.0740   20.2210 C   0  0  0  0  0  0  0  0  0  0  0  0
    5.2860   -4.5450   19.8850 O   0  0  0  0  0  0  0  0  0  0  0  0
    6.9420   -4.3500   21.4880 N   0  0  0  0  0  0  0  0  0  0  0  0
    6.5440   -5.5270   22.1980 C   0  0  0  0  0  0  0  0  0  0  0  0
    5.6360   -5.0250   23.3190 C   0  0  0  0  0  0  0  0  0  0  0  0
    6.3990   -3.9910   24.0790 C   0  0  0  0  0  0  0  0  0  0  0  0
    5.6560   -3.5350   25.2640 C   0  0  0  0  0  0  0  0  0  0  0  0
    4.4470   -3.3170   25.1240 O   0  0  0  0  0  0  0  0  0  0  0  0
    6.3310   -3.3720   26.4560 N   0  0  0  0  0  0  0  0  0  0  0  0
    6.0030   -3.8790   27.7320 C   0  0  1  0  0  0  0  0  0  0  0  0
    6.1750   -5.1810   28.1700 C   0  0  0  0  0  0  0  0  0  0  0  0
    6.7920   -3.0010   28.6790 C   0  0  0  0  0  0  0  0  0  0  0  0
    7.3260   -1.9940   29.4620 O   0  0  0  0  0  0  0  0  0  0  0  0
    6.0080   -1.8080   28.4470 N   0  0  0  0  0  0  0  0  0  0  0  0
    6.1260   -0.8890   27.4430 C   0  0  0  0  0  0  0  0  0  0  0  0
    5.7870    0.5290   27.7630 C   0  0  0  0  0  0  0  0  0  0  0  0
    6.0440    0.7740   29.5010 S   0  0  0  0  0  0  0  0  0  0  0  0
    7.4970    0.8840   29.8440 O   0  0  0  0  0  0  0  0  0  0  0  0
    5.4010    2.0440   29.9530 O   0  0  0  0  0  0  0  0  0  0  0  0
    5.3460   -0.5670   30.3850 C   0  0  0  0  0  0  0  0  0  0  0  0
    4.9380   -1.6220   29.3600 C   0  0  0  0  0  0  0  0  0  0  0  0
    6.7380   -2.7730   23.2090 C   0  0  0  0  0  0  0  0  0  0  0  0
    7.6340   -3.2710   22.1450 C   0  0  0  0  0  0  0  0  0  0  0  0
  1  2  1  0
  2  3  2  0
  2  4  1  0
  4  5  1  0
  5  6  1  0
  6  7  1  0
  7  8  1  0
  8  9  2  0
  8 10  1  0
 10 11  1  0
 11 12  1  6
 11 13  1  0
 13 14  2  0
 13 15  1  0
 15 16  1  0
 16 17  1  0
 18 17  1  0
 18 19  2  0
 18 20  2  0
 18 21  1  0
 15 22  1  0
 21 22  1  0
  7 23  1  0
  4 24  1  0
 23 24  1  0
M  END
