piperidine-amides-15390-covalent
     RDKit          3D

 17 17  0  0  0  0  0  0  0  0999 V2000
    7.0710   -3.2910   19.2920 C   0  0  0  0  0  0  0  0  0  0  0  0
    6.3330   -4.0730   20.3000 C   0  0  0  0  0  0  0  0  0  0  0  0
    5.3370   -4.7430   19.9540 O   0  0  0  0  0  0  0  0  0  0  0  0
    6.7490   -4.1230   21.6440 N   0  0  0  0  0  0  0  0  0  0  0  0
    7.6780   -3.1170   22.1510 C   0  0  0  0  0  0  0  0  0  0  0  0
    7.4130   -2.9240   23.6490 C   0  0  0  0  0  0  0  0  0  0  0  0
    6.0780   -3.5780   23.8880 C   0  0  0  0  0  0  0  0  0  0  0  0
    5.5370   -3.3070   25.2360 C   0  0  0  0  0  0  0  0  0  0  0  0
    4.2980   -3.1870   25.3360 O   0  0  0  0  0  0  0  0  0  0  0  0
    6.3610   -3.1740   26.3790 N   0  0  0  0  0  0  0  0  0  0  0  0
    6.7800   -1.8240   26.6650 C   0  0  0  0  0  0  0  0  0  0  0  0
    5.9640   -4.0060   27.5090 C   0  0  2  0  0  0  0  0  0  0  0  0
    6.7610   -3.7320   28.5740 C   0  0  0  0  0  0  0  0  0  0  0  0
    5.9240   -5.5210   27.3740 C   0  0  0  0  0  0  0  0  0  0  0  0
    5.5710   -6.0560   26.1490 O   0  0  0  0  0  0  0  0  0  0  0  0
    6.1040   -5.0540   23.6490 C   0  0  0  0  0  0  0  0  0  0  0  0
    6.6080   -5.3530   22.4040 C   0  0  0  0  0  0  0  0  0  0  0  0
  1  2  1  0
  2  3  2  0
  2  4  1  0
  4  5  1  0
  5  6  1  0
  6  7  1  0
  7  8  1  0
  8  9  2  0
  8 10  1  0
 10 11  1  0
 10 12  1  0
 12 13  1  1
 12 14  1  0
 14 15  1  0
  7 16  1  0
  4 17  1  0
 16 17  1  0
M  END
