piperidine-amides-30998-covalent
     RDKit          3D

 28 30  0  0  0  0  0  0  0  0999 V2000
    7.0910   -3.3760   19.3980 C   0  0  0  0  0  0  0  0  0  0  0  0
    6.3930   -4.2010   20.3780 C   0  0  0  0  0  0  0  0  0  0  0  0
    5.4010   -4.8530   19.9960 O   0  0  0  0  0  0  0  0  0  0  0  0
    6.8570   -4.3180   21.7080 N   0  0  0  0  0  0  0  0  0  0  0  0
    6.6560   -5.5270   22.4900 C   0  0  0  0  0  0  0  0  0  0  0  0
    6.0550   -5.1110   23.8210 C   0  0  0  0  0  0  0  0  0  0  0  0
    6.0940   -3.6210   23.9890 C   0  0  0  0  0  0  0  0  0  0  0  0
    5.5770   -3.0940   25.2990 C   0  0  0  0  0  0  0  0  0  0  0  0
    4.3450   -2.8080   25.3650 O   0  0  0  0  0  0  0  0  0  0  0  0
    6.2960   -2.8550   26.5030 N   0  0  0  0  0  0  0  0  0  0  0  0
    6.2290   -3.8800   27.5910 C   0  0  0  0  0  0  0  0  0  0  0  0
    5.3810   -5.0570   27.2820 C   0  0  0  0  0  0  0  0  0  0  0  0
    4.4990   -5.1170   26.1040 C   0  0  0  0  0  0  0  0  0  0  0  0
    3.6640   -6.3390   25.8710 C   0  0  0  0  0  0  0  0  0  0  0  0
    3.7320   -7.4930   26.8440 C   0  0  0  0  0  0  0  0  0  0  0  0
    4.6800   -7.2520   27.9660 C   0  0  0  0  0  0  0  0  0  0  0  0
    5.4260   -6.1200   28.1410 C   0  0  0  0  0  0  0  0  0  0  0  0
    6.3420   -1.5360   27.0960 C   0  0  0  0  0  0  0  0  0  0  0  0
    6.8640   -1.4910   28.3840 N   0  0  0  0  0  0  0  0  0  0  0  0
    7.1440   -0.5700   29.4310 C   0  0  0  0  0  0  0  0  0  0  0  0
    6.6030    0.6010   28.5980 C   0  0  0  0  0  0  0  0  0  0  0  0
    6.0970    0.3650   27.2670 C   0  0  0  0  0  0  0  0  0  0  0  0
    5.8430   -0.2890   26.3790 C   0  0  0  0  0  0  0  0  0  0  0  0
    5.2850    0.0440   25.1640 N   0  0  0  0  0  0  0  0  0  0  0  0
    4.0080    0.3470   25.1110 O   0  0  0  0  0  0  0  0  0  0  0  0
    6.0460    0.5960   24.2650 O   0  0  0  0  0  0  0  0  0  0  0  0
    7.3600   -2.9910   23.5880 C   0  0  0  0  0  0  0  0  0  0  0  0
    7.7040   -3.3090   22.2970 C   0  0  0  0  0  0  0  0  0  0  0  0
  1  2  1  0
  2  3  2  0
  2  4  1  0
  4  5  1  0
  5  6  1  0
  6  7  1  0
  7  8  1  0
  8  9  2  0
  8 10  1  0
 10 11  1  0
 11 12  1  0
 12 13  2  0
 13 14  1  0
 14 15  2  0
 15 16  1  0
 12 17  1  0
 16 17  2  0
 10 18  1  0
 18 19  2  0
 19 20  1  0
 20 21  2  0
 21 22  1  0
 18 23  1  0
 22 23  2  0
 23 24  1  0
 24 25  2  0
 24 26  1  0
  7 27  1  0
  4 28  1  0
 27 28  1  0
M  CHG  2  24   1  26  -1
M  END
