piperidine-amides-8646-covalent
     RDKit          3D

 23 24  0  0  0  0  0  0  0  0999 V2000
    7.0380   -3.2480   19.2130 C   0  0  0  0  0  0  0  0  0  0  0  0
    6.2960   -4.0060   20.2280 C   0  0  0  0  0  0  0  0  0  0  0  0
    5.2660   -4.6050   19.8820 O   0  0  0  0  0  0  0  0  0  0  0  0
    6.7480   -4.0870   21.5650 N   0  0  0  0  0  0  0  0  0  0  0  0
    7.7250   -3.1480   22.0180 C   0  0  0  0  0  0  0  0  0  0  0  0
    7.4880   -2.8840   23.4630 C   0  0  0  0  0  0  0  0  0  0  0  0
    6.1530   -3.5010   23.7970 C   0  0  0  0  0  0  0  0  0  0  0  0
    5.8960   -3.2720   25.2530 C   0  0  0  0  0  0  0  0  0  0  0  0
    4.7180   -3.2730   25.6160 O   0  0  0  0  0  0  0  0  0  0  0  0
    7.0090   -3.0710   26.0640 N   0  0  0  0  0  0  0  0  0  0  0  0
    7.4110   -4.0160   27.0490 C   0  0  0  0  0  0  0  0  0  0  0  0
    8.4270   -4.9150   26.6880 C   0  0  2  0  0  0  0  0  0  0  0  0
    8.4000   -6.0360   27.4390 C   0  0  0  0  0  0  0  0  0  0  0  0
    9.2760   -6.9330   26.9440 O   0  0  0  0  0  0  0  0  0  0  0  0
    9.8380   -4.5320   26.8990 C   0  0  0  0  0  0  0  0  0  0  0  0
   10.8300   -4.0830   25.8210 C   0  0  0  0  0  0  0  0  0  0  0  0
   12.3910   -4.0310   26.1890 C   0  0  0  0  0  0  0  0  0  0  0  0
   13.2410   -3.0820   25.3930 C   0  0  0  0  0  0  0  0  0  0  0  0
   12.5170   -2.1210   24.7350 O   0  0  0  0  0  0  0  0  0  0  0  0
   11.3760   -2.5320   24.0340 C   0  0  0  0  0  0  0  0  0  0  0  0
   10.3600   -2.9160   25.1270 C   0  0  0  0  0  0  0  0  0  0  0  0
    6.1800   -5.0090   23.5890 C   0  0  0  0  0  0  0  0  0  0  0  0
    6.5920   -5.3080   22.3010 C   0  0  0  0  0  0  0  0  0  0  0  0
  1  2  1  0
  2  3  2  0
  2  4  1  0
  4  5  1  0
  5  6  1  0
  6  7  1  0
  7  8  1  0
  8  9  2  0
  8 10  1  0
 10 11  1  0
 12 11  1  1
 12 13  1  0
 13 14  1  0
 12 15  1  0
 15 16  1  0
 16 17  1  0
 17 18  1  0
 18 19  1  0
 19 20  1  0
 16 21  1  0
 20 21  1  0
  7 22  1  0
  4 23  1  0
 22 23  1  0
M  END
