piperidine-amides-24509-covalent
     RDKit          3D

 25 27  0  0  0  0  0  0  0  0999 V2000
    7.0710   -3.3150   19.3390 C   0  0  0  0  0  0  0  0  0  0  0  0
    6.3980   -4.1750   20.3240 C   0  0  0  0  0  0  0  0  0  0  0  0
    5.4000   -4.8520   19.9850 O   0  0  0  0  0  0  0  0  0  0  0  0
    6.8910   -4.2790   21.6350 N   0  0  0  0  0  0  0  0  0  0  0  0
    6.5850   -5.4500   22.4160 C   0  0  0  0  0  0  0  0  0  0  0  0
    5.7610   -4.9590   23.6120 C   0  0  0  0  0  0  0  0  0  0  0  0
    6.5780   -3.8770   24.2990 C   0  0  0  0  0  0  0  0  0  0  0  0
    5.8510   -3.3690   25.4870 C   0  0  0  0  0  0  0  0  0  0  0  0
    4.6330   -3.6350   25.5810 O   0  0  0  0  0  0  0  0  0  0  0  0
    6.5110   -2.5820   26.4750 N   0  0  0  0  0  0  0  0  0  0  0  0
    6.4850   -2.9200   27.8610 C   0  0  0  0  0  0  0  0  0  0  0  0
    6.6780   -1.5160   28.5070 C   0  0  0  0  0  0  0  0  0  0  0  0
    6.7960   -0.2830   27.8530 C   0  0  0  0  0  0  0  0  0  0  0  0
    6.9480    0.9570   28.5010 C   0  0  0  0  0  0  0  0  0  0  0  0
    7.0120    1.0790   29.8750 C   0  0  0  0  0  0  0  0  0  0  0  0
    6.9200   -0.0260   30.6140 C   0  0  0  0  0  0  0  0  0  0  0  0
    6.7470   -1.3770   30.0050 C   0  0  0  0  0  0  0  0  0  0  0  0
    6.1240   -1.2420   26.7770 C   0  0  0  0  0  0  0  0  0  0  0  0
    5.9250   -1.3360   28.2930 C   0  0  0  0  0  0  0  0  0  0  0  0
    5.5060    0.0840   28.6150 C   0  0  0  0  0  0  0  0  0  0  0  0
    5.3470    1.1910   27.7530 C   0  0  0  0  0  0  0  0  0  0  0  0
    5.5670    1.0920   26.4470 C   0  0  0  0  0  0  0  0  0  0  0  0
    5.9800   -0.1980   25.9100 C   0  0  0  0  0  0  0  0  0  0  0  0
    6.8690   -2.6950   23.4050 C   0  0  0  0  0  0  0  0  0  0  0  0
    7.6770   -3.2160   22.2150 C   0  0  0  0  0  0  0  0  0  0  0  0
  1  2  1  0
  2  3  2  0
  2  4  1  0
  4  5  1  0
  5  6  1  0
  6  7  1  0
  7  8  1  0
  8  9  2  0
  8 10  1  0
 10 11  1  0
 11 12  1  0
 12 13  2  0
 13 14  1  0
 14 15  2  0
 15 16  1  0
 12 17  1  0
 16 17  2  0
 10 18  1  0
 18 19  2  0
 19 20  1  0
 20 21  2  0
 21 22  1  0
 18 23  1  0
 22 23  2  0
  7 24  1  0
  4 25  1  0
 24 25  1  0
M  END
