piperidine-amides-30388-covalent
     RDKit          3D

 27 29  0  0  0  0  0  0  0  0999 V2000
    7.1000   -3.3690   19.3620 C   0  0  0  0  0  0  0  0  0  0  0  0
    6.3900   -4.1670   20.3610 C   0  0  0  0  0  0  0  0  0  0  0  0
    5.4110   -4.8430   19.9930 O   0  0  0  0  0  0  0  0  0  0  0  0
    6.8350   -4.2170   21.6990 N   0  0  0  0  0  0  0  0  0  0  0  0
    7.7450   -3.1970   22.2240 C   0  0  0  0  0  0  0  0  0  0  0  0
    7.3810   -2.9090   23.6660 C   0  0  0  0  0  0  0  0  0  0  0  0
    6.0990   -3.5770   24.0250 C   0  0  0  0  0  0  0  0  0  0  0  0
    5.5560   -3.2670   25.3830 C   0  0  0  0  0  0  0  0  0  0  0  0
    4.3010   -3.1580   25.5020 O   0  0  0  0  0  0  0  0  0  0  0  0
    6.2930   -3.0510   26.5820 N   0  0  0  0  0  0  0  0  0  0  0  0
    6.1610   -4.0580   27.6820 C   0  0  0  0  0  0  0  0  0  0  0  0
    5.8750   -5.4280   27.1780 C   0  0  0  0  0  0  0  0  0  0  0  0
    4.8220   -5.9130   27.8760 N   0  0  0  0  0  0  0  0  0  0  0  0
    4.8100   -6.1110   29.2770 C   0  0  0  0  0  0  0  0  0  0  0  0
    4.0720   -7.3950   29.5800 C   0  0  0  0  0  0  0  0  0  0  0  0
    2.7450   -7.1020   29.3600 O   0  0  0  0  0  0  0  0  0  0  0  0
    2.5820   -6.4750   28.1470 C   0  0  0  0  0  0  0  0  0  0  0  0
    3.7850   -6.7620   27.3260 C   0  0  0  0  0  0  0  0  0  0  0  0
    6.3320   -1.6980   27.0820 C   0  0  0  0  0  0  0  0  0  0  0  0
    5.7900   -0.5630   26.3610 C   0  0  0  0  0  0  0  0  0  0  0  0
    5.7970    0.8940   26.8830 C   0  0  0  0  0  0  0  0  0  0  0  0
    6.4300    1.0540   28.2420 C   0  0  0  0  0  0  0  0  0  0  0  0
    6.8430   -0.2880   28.6140 C   0  0  0  0  0  0  0  0  0  0  0  0
    6.8920   -1.4070   28.3230 C   0  0  0  0  0  0  0  0  0  0  0  0
    7.4680   -2.2630   29.2130 F   0  0  0  0  0  0  0  0  0  0  0  0
    6.0930   -5.0300   23.7740 C   0  0  0  0  0  0  0  0  0  0  0  0
    6.5860   -5.3610   22.5300 C   0  0  0  0  0  0  0  0  0  0  0  0
  1  2  1  0
  2  3  2  0
  2  4  1  0
  4  5  1  0
  5  6  1  0
  6  7  1  0
  7  8  1  0
  8  9  2  0
  8 10  1  0
 10 11  1  0
 11 12  1  0
 12 13  1  0
 13 14  1  0
 14 15  1  0
 15 16  1  0
 16 17  1  0
 13 18  1  0
 17 18  1  0
 10 19  1  0
 19 20  2  0
 20 21  1  0
 21 22  2  0
 22 23  1  0
 19 24  1  0
 23 24  2  0
 24 25  1  0
  7 26  1  0
  4 27  1  0
 26 27  1  0
M  END
