piperidine-amides-10911-covalent
     RDKit          3D

 21 22  0  0  0  0  0  0  0  0999 V2000
    7.0650   -3.3620   19.3410 C   0  0  0  0  0  0  0  0  0  0  0  0
    6.3320   -4.1720   20.3140 C   0  0  0  0  0  0  0  0  0  0  0  0
    5.3080   -4.7680   19.9500 O   0  0  0  0  0  0  0  0  0  0  0  0
    6.7860   -4.3410   21.6290 N   0  0  0  0  0  0  0  0  0  0  0  0
    6.6620   -5.5910   22.3440 C   0  0  0  0  0  0  0  0  0  0  0  0
    6.0560   -5.2610   23.6860 C   0  0  0  0  0  0  0  0  0  0  0  0
    6.0050   -3.7830   23.9300 C   0  0  0  0  0  0  0  0  0  0  0  0
    5.5140   -3.4420   25.2910 C   0  0  0  0  0  0  0  0  0  0  0  0
    4.2820   -3.5600   25.5580 O   0  0  0  0  0  0  0  0  0  0  0  0
    6.3360   -2.9820   26.3410 N   0  0  0  0  0  0  0  0  0  0  0  0
    6.2550   -1.5670   26.7800 C   0  0  0  0  0  0  0  0  0  0  0  0
    6.6210   -0.7400   25.6130 C   0  0  0  0  0  0  0  0  0  0  0  0
    7.6740   -1.3870   24.9860 F   0  0  0  0  0  0  0  0  0  0  0  0
    5.5870   -0.8350   24.6680 F   0  0  0  0  0  0  0  0  0  0  0  0
    4.8170   -1.1390   27.1060 C   0  0  0  0  0  0  0  0  0  0  0  0
    4.9850    0.2790   27.5950 C   0  0  0  0  0  0  0  0  0  0  0  0
    5.5940    0.1010   28.9580 C   0  0  0  0  0  0  0  0  0  0  0  0
    6.9750   -0.1530   28.5750 C   0  0  0  0  0  0  0  0  0  0  0  0
    7.1760   -1.4040   28.0360 C   0  0  0  0  0  0  0  0  0  0  0  0
    7.3310   -3.1380   23.6450 C   0  0  0  0  0  0  0  0  0  0  0  0
    7.6770   -3.3370   22.1920 C   0  0  0  0  0  0  0  0  0  0  0  0
  1  2  1  0
  2  3  2  0
  2  4  1  0
  4  5  1  0
  5  6  1  0
  6  7  1  0
  7  8  1  0
  8  9  2  0
  8 10  1  0
 11 10  1  0
 11 12  1  0
 12 13  1  0
 12 14  1  0
 11 15  1  0
 15 16  1  0
 16 17  1  0
 17 18  1  0
 11 19  1  0
 18 19  1  0
  7 20  1  0
  4 21  1  0
 20 21  1  0
M  END
