piperidine-amides-33419-covalent
     RDKit          3D

 28 30  0  0  0  0  0  0  0  0999 V2000
    6.9900   -3.3780   19.4070 C   0  0  0  0  0  0  0  0  0  0  0  0
    6.3590   -4.2460   20.4200 C   0  0  0  0  0  0  0  0  0  0  0  0
    5.4010   -4.9430   20.0030 O   0  0  0  0  0  0  0  0  0  0  0  0
    6.8210   -4.3430   21.7720 N   0  0  0  0  0  0  0  0  0  0  0  0
    6.4280   -5.4520   22.5630 C   0  0  0  0  0  0  0  0  0  0  0  0
    6.2020   -5.1560   23.9920 C   0  0  0  0  0  0  0  0  0  0  0  0
    6.3920   -3.7540   24.4620 C   0  0  0  0  0  0  0  0  0  0  0  0
    5.2390   -3.3170   25.3780 C   0  0  0  0  0  0  0  0  0  0  0  0
    4.2430   -2.8340   24.8210 O   0  0  0  0  0  0  0  0  0  0  0  0
    5.1970   -3.4200   26.8220 N   0  0  0  0  0  0  0  0  0  0  0  0
    4.1190   -3.5890   27.6940 C   0  0  0  0  0  0  0  0  0  0  0  0
    4.3610   -4.5990   28.7220 C   0  0  0  0  0  0  0  0  0  0  0  0
    5.0960   -5.6650   28.3890 N   0  0  0  0  0  0  0  0  0  0  0  0
    5.3490   -6.7430   29.6640 S   0  0  0  0  0  0  0  0  0  0  0  0
    5.8530   -6.0420   30.8690 O   0  0  0  0  0  0  0  0  0  0  0  0
    6.3310   -7.7940   29.3290 O   0  0  0  0  0  0  0  0  0  0  0  0
    3.7560   -7.4450   29.9660 C   0  0  0  0  0  0  0  0  0  0  0  0
    3.0950   -7.5280   28.7270 C   0  0  0  0  0  0  0  0  0  0  0  0
    1.6750   -8.1420   28.8310 C   0  0  0  0  0  0  0  0  0  0  0  0
    1.3510   -8.4970   30.2280 C   0  0  0  0  0  0  0  0  0  0  0  0
    0.2220   -9.0200   30.4730 O   0  0  0  0  0  0  0  0  0  0  0  0
    0.2740  -10.3470   30.8060 C   0  0  0  0  0  0  0  0  0  0  0  0
    2.0200   -8.4020   31.4380 C   0  0  0  0  0  0  0  0  0  0  0  0
    3.3860   -7.8040   31.2850 C   0  0  0  0  0  0  0  0  0  0  0  0
    6.3310   -5.1560   27.9250 C   0  0  0  0  0  0  0  0  0  0  0  0
    6.3640   -3.6890   27.5120 C   0  0  0  0  0  0  0  0  0  0  0  0
    6.6010   -2.7700   23.3380 C   0  0  0  0  0  0  0  0  0  0  0  0
    7.5270   -3.2760   22.4290 C   0  0  0  0  0  0  0  0  0  0  0  0
  1  2  1  0
  2  3  2  0
  2  4  1  0
  4  5  1  0
  5  6  1  0
  6  7  1  0
  7  8  1  0
  8  9  2  0
  8 10  1  0
 10 11  1  0
 11 12  1  0
 12 13  1  0
 13 14  1  0
 14 15  2  0
 14 16  2  0
 14 17  1  0
 17 18  2  0
 18 19  1  0
 19 20  2  0
 20 21  1  0
 21 22  1  0
 20 23  1  0
 17 24  1  0
 23 24  2  0
 13 25  1  0
 10 26  1  0
 25 26  1  0
  7 27  1  0
  4 28  1  0
 27 28  1  0
M  END
