piperidine-amides-3778-covalent
     RDKit          3D

 21 23  0  0  0  0  0  0  0  0999 V2000
    7.0900   -3.3420   19.3310 C   0  0  0  0  0  0  0  0  0  0  0  0
    6.4190   -4.1940   20.3240 C   0  0  0  0  0  0  0  0  0  0  0  0
    5.3530   -4.7480   19.9600 O   0  0  0  0  0  0  0  0  0  0  0  0
    6.9860   -4.4330   21.6050 N   0  0  0  0  0  0  0  0  0  0  0  0
    6.4640   -5.4920   22.3830 C   0  0  0  0  0  0  0  0  0  0  0  0
    5.9100   -5.0660   23.6700 C   0  0  0  0  0  0  0  0  0  0  0  0
    6.5030   -3.8490   24.2740 C   0  0  0  0  0  0  0  0  0  0  0  0
    5.6770   -3.3570   25.4320 C   0  0  0  0  0  0  0  0  0  0  0  0
    4.4350   -3.4020   25.3490 O   0  0  0  0  0  0  0  0  0  0  0  0
    6.2570   -2.8310   26.6010 N   0  0  0  0  0  0  0  0  0  0  0  0
    6.7490   -1.5150   26.7450 C   0  0  0  0  0  0  0  0  0  0  0  0
    6.0090   -0.3490   26.3180 C   0  0  0  0  0  0  0  0  0  0  0  0
    6.4300    0.1380   27.6500 C   0  0  0  0  0  0  0  0  0  0  0  0
    6.9840   -1.0090   28.2050 C   0  0  0  0  0  0  0  0  0  0  0  0
    5.5890   -0.5180   28.8260 C   0  0  0  0  0  0  0  0  0  0  0  0
    5.4940    0.9690   28.9520 C   0  0  0  0  0  0  0  0  0  0  0  0
    4.4570    0.9270   27.8080 C   0  0  0  0  0  0  0  0  0  0  0  0
    4.4360    1.9030   29.1280 C   0  0  0  0  0  0  0  0  0  0  0  0
    6.5010    1.4650   28.0850 C   0  0  0  0  0  0  0  0  0  0  0  0
    6.6980   -2.7250   23.2530 C   0  0  0  0  0  0  0  0  0  0  0  0
    7.6440   -3.2860   22.2560 C   0  0  0  0  0  0  0  0  0  0  0  0
  1  2  1  0
  2  3  2  0
  2  4  1  0
  4  5  1  0
  5  6  1  0
  6  7  1  0
  7  8  1  0
  8  9  2  0
  8 10  1  0
 10 11  1  0
 11 12  1  0
 13 12  1  0
 11 14  1  0
 13 14  1  0
 13 15  1  0
 15 16  1  0
 16 17  1  0
 16 18  1  0
 13 19  1  0
 16 19  1  0
  7 20  1  0
  4 21  1  0
 20 21  1  0
M  END
