piperidine-amides-30242-covalent
     RDKit          3D

 26 28  0  0  0  0  0  0  0  0999 V2000
    6.9880   -3.3140   19.1640 C   0  0  0  0  0  0  0  0  0  0  0  0
    6.1950   -4.0810   20.1230 C   0  0  0  0  0  0  0  0  0  0  0  0
    5.1250   -4.5710   19.8280 O   0  0  0  0  0  0  0  0  0  0  0  0
    6.6830   -4.2930   21.4190 N   0  0  0  0  0  0  0  0  0  0  0  0
    6.3270   -5.5250   22.1040 C   0  0  0  0  0  0  0  0  0  0  0  0
    5.3610   -5.2810   23.2410 C   0  0  0  0  0  0  0  0  0  0  0  0
    5.8280   -4.0440   23.9850 C   0  0  0  0  0  0  0  0  0  0  0  0
    5.0630   -3.7700   25.2160 C   0  0  0  0  0  0  0  0  0  0  0  0
    4.0530   -3.0490   25.2810 O   0  0  0  0  0  0  0  0  0  0  0  0
    5.5790   -4.3870   26.3510 N   0  0  0  0  0  0  0  0  0  0  0  0
    5.0740   -4.0470   27.6510 C   0  0  0  0  0  0  0  0  0  0  0  0
    5.9840   -4.7770   28.8640 S   0  0  0  0  0  0  0  0  0  0  0  0
    6.9270   -5.2550   27.5410 C   0  0  0  0  0  0  0  0  0  0  0  0
    6.9920   -4.4670   26.3700 C   0  0  1  0  0  0  0  0  0  0  0  0
    7.7110   -4.9400   25.2470 C   0  0  0  0  0  0  0  0  0  0  0  0
    8.6750   -5.9250   25.4860 O   0  0  0  0  0  0  0  0  0  0  0  0
    7.5170   -4.4230   23.9270 N   0  0  0  0  0  0  0  0  0  0  0  0
    7.6650   -3.0630   23.5130 C   0  0  0  0  0  0  0  0  0  0  0  0
    8.5520   -2.7520   22.4300 C   0  0  0  0  0  0  0  0  0  0  0  0
    8.7470   -1.4900   22.0100 C   0  0  0  0  0  0  0  0  0  0  0  0
    8.0970   -0.4340   22.6060 C   0  0  0  0  0  0  0  0  0  0  0  0
    7.1730   -0.4970   23.6910 C   0  0  0  0  0  0  0  0  0  0  0  0
    6.4180    0.5270   24.4170 C   0  0  0  0  0  0  0  0  0  0  0  0
    7.0090   -1.9900   24.1140 C   0  0  0  0  0  0  0  0  0  0  0  0
    5.7910   -2.8770   23.0610 C   0  0  0  0  0  0  0  0  0  0  0  0
    6.8770   -3.0720   22.0800 C   0  0  0  0  0  0  0  0  0  0  0  0
  1  2  1  0
  2  3  2  0
  2  4  1  0
  4  5  1  0
  5  6  1  0
  6  7  1  0
  7  8  1  0
  8  9  2  0
  8 10  1  0
 10 11  1  0
 11 12  1  0
 12 13  1  0
 10 14  1  0
 13 14  1  0
 14 15  1  6
 15 16  2  0
 15 17  1  0
 17 18  1  0
 18 19  2  0
 19 20  1  0
 20 21  2  0
 21 22  1  0
 22 23  1  0
 18 24  1  0
 22 24  2  0
  7 25  1  0
  4 26  1  0
 25 26  1  0
M  END
