piperidine-amides-11571-covalent
     RDKit          3D

 22 23  0  0  0  0  0  0  0  0999 V2000
    7.0750   -3.3040   19.2970 C   0  0  0  0  0  0  0  0  0  0  0  0
    6.3740   -4.1010   20.3080 C   0  0  0  0  0  0  0  0  0  0  0  0
    5.3640   -4.7370   19.9580 O   0  0  0  0  0  0  0  0  0  0  0  0
    6.8260   -4.2120   21.6390 N   0  0  0  0  0  0  0  0  0  0  0  0
    6.6890   -5.4470   22.3830 C   0  0  0  0  0  0  0  0  0  0  0  0
    6.0970   -5.0790   23.7190 C   0  0  0  0  0  0  0  0  0  0  0  0
    6.1030   -3.5940   23.9290 C   0  0  0  0  0  0  0  0  0  0  0  0
    5.6530   -3.1650   25.2800 C   0  0  0  0  0  0  0  0  0  0  0  0
    4.4180   -2.9810   25.4760 O   0  0  0  0  0  0  0  0  0  0  0  0
    6.5030   -2.9400   26.3940 N   0  0  0  0  0  0  0  0  0  0  0  0
    6.1290   -3.4880   27.7260 C   0  0  0  0  0  0  0  0  0  0  0  0
    6.0520   -2.3840   28.7230 C   0  0  0  0  0  0  0  0  0  0  0  0
    7.1920   -1.5290   29.1590 C   0  0  0  0  0  0  0  0  0  0  0  0
    6.8830   -0.4780   30.1880 C   0  0  0  0  0  0  0  0  0  0  0  0
    5.1440   -0.6630   30.5190 S   0  0  0  0  0  0  0  0  0  0  0  0
    4.7800   -1.9970   29.4290 C   0  0  0  0  0  0  0  0  0  0  0  0
    3.4220   -2.5900   29.2900 C   0  0  0  0  0  0  0  0  0  0  0  0
    2.6730   -1.8820   28.3520 F   0  0  0  0  0  0  0  0  0  0  0  0
    3.4120   -3.9260   29.0210 F   0  0  0  0  0  0  0  0  0  0  0  0
    2.7250   -2.5030   30.4890 F   0  0  0  0  0  0  0  0  0  0  0  0
    7.4580   -3.0670   23.5460 C   0  0  0  0  0  0  0  0  0  0  0  0
    7.6880   -3.1530   22.1670 C   0  0  0  0  0  0  0  0  0  0  0  0
  1  2  1  0
  2  3  2  0
  2  4  1  0
  4  5  1  0
  5  6  1  0
  6  7  1  0
  7  8  1  0
  8  9  2  0
  8 10  1  0
 10 11  1  0
 11 12  1  0
 12 13  1  0
 13 14  2  0
 14 15  1  0
 12 16  2  0
 15 16  1  0
 16 17  1  0
 17 18  1  0
 17 19  1  0
 17 20  1  0
  7 21  1  0
  4 22  1  0
 21 22  1  0
M  END
