piperidine-amides-31768-covalent
     RDKit          3D

 28 29  0  0  0  0  0  0  0  0999 V2000
    7.1860   -3.3370   19.3610 C   0  0  0  0  0  0  0  0  0  0  0  0
    6.4530   -4.1690   20.2840 C   0  0  0  0  0  0  0  0  0  0  0  0
    5.3400   -4.6600   19.9240 O   0  0  0  0  0  0  0  0  0  0  0  0
    6.9820   -4.4930   21.5440 N   0  0  0  0  0  0  0  0  0  0  0  0
    7.7790   -3.4400   22.1950 C   0  0  0  0  0  0  0  0  0  0  0  0
    6.5860   -2.7810   22.9440 C   0  0  0  0  0  0  0  0  0  0  0  0
    6.2860   -3.8140   23.9910 C   0  0  0  0  0  0  0  0  0  0  0  0
    5.3220   -3.2120   25.0910 C   0  0  0  0  0  0  0  0  0  0  0  0
    4.2830   -2.8260   24.5840 O   0  0  0  0  0  0  0  0  0  0  0  0
    5.8660   -3.2800   26.2300 N   0  0  0  0  0  0  0  0  0  0  0  0
    6.1290   -3.7350   27.4980 C   0  0  0  0  0  0  0  0  0  0  0  0
    6.4090   -4.9650   28.0690 C   0  0  0  0  0  0  0  0  0  0  0  0
    5.3520   -5.5160   28.7880 O   0  0  0  0  0  0  0  0  0  0  0  0
    5.6160   -6.7780   29.2830 C   0  0  0  0  0  0  0  0  0  0  0  0
    6.5840   -1.9970   26.5090 C   0  0  0  0  0  0  0  0  0  0  0  0
    7.0780   -1.3970   25.1470 C   0  0  0  0  0  0  0  0  0  0  0  0
    6.5190   -0.4130   24.5940 O   0  0  0  0  0  0  0  0  0  0  0  0
    8.2610   -2.0720   24.5320 N   0  0  0  0  0  0  0  0  0  0  0  0
    9.2410   -1.2130   23.8900 C   0  0  0  0  0  0  0  0  0  0  0  0
    8.6510    0.0390   23.4060 C   0  0  0  0  0  0  0  0  0  0  0  0
    9.8710    0.7930   22.8040 C   0  0  0  0  0  0  0  0  0  0  0  0
   11.3580    0.4150   22.6850 C   0  0  0  0  0  0  0  0  0  0  0  0
   11.7520   -0.7430   23.1420 C   0  0  0  0  0  0  0  0  0  0  0  0
   13.0160   -1.2710   23.1260 C   0  0  0  0  0  0  0  0  0  0  0  0
   10.7050   -1.5730   23.7480 C   0  0  0  0  0  0  0  0  0  0  0  0
   11.2310   -2.7600   24.1860 C   0  0  0  0  0  0  0  0  0  0  0  0
    5.8030   -5.1460   23.5150 C   0  0  0  0  0  0  0  0  0  0  0  0
    6.5040   -5.6410   22.2760 C   0  0  0  0  0  0  0  0  0  0  0  0
  1  2  1  0
  2  3  2  0
  2  4  1  0
  4  5  1  0
  5  6  1  0
  6  7  1  0
  7  8  1  0
  8  9  2  0
  8 10  1  0
 10 11  1  0
 11 12  1  0
 12 13  1  0
 13 14  1  0
 10 15  1  0
 15 16  1  0
 16 17  2  0
 16 18  1  0
 18 19  1  0
 19 20  2  0
 20 21  1  0
 21 22  2  0
 22 23  1  0
 23 24  1  0
 19 25  1  0
 23 25  2  0
 25 26  1  0
  7 27  1  0
  4 28  1  0
 27 28  1  0
M  END
