piperidine-amides-24484-covalent
     RDKit          3D

 24 26  0  0  0  0  0  0  0  0999 V2000
    7.0410   -3.3480   19.3770 C   0  0  0  0  0  0  0  0  0  0  0  0
    6.3670   -4.2390   20.3360 C   0  0  0  0  0  0  0  0  0  0  0  0
    5.3680   -4.8980   19.9850 O   0  0  0  0  0  0  0  0  0  0  0  0
    6.8630   -4.3830   21.6390 N   0  0  0  0  0  0  0  0  0  0  0  0
    6.6100   -5.6140   22.3790 C   0  0  0  0  0  0  0  0  0  0  0  0
    5.8860   -5.2720   23.7050 C   0  0  0  0  0  0  0  0  0  0  0  0
    5.9180   -3.7710   23.8200 C   0  0  0  0  0  0  0  0  0  0  0  0
    5.3420   -3.2300   25.0790 C   0  0  0  0  0  0  0  0  0  0  0  0
    4.4770   -2.3490   24.9410 O   0  0  0  0  0  0  0  0  0  0  0  0
    5.6790   -3.6310   26.3970 N   0  0  0  0  0  0  0  0  0  0  0  0
    6.3910   -2.6690   27.1840 C   0  0  0  0  0  0  0  0  0  0  0  0
    6.7250   -3.2470   28.5590 C   0  0  2  0  0  0  0  0  0  0  0  0
    7.1720   -4.5220   28.7420 C   0  0  0  0  0  0  0  0  0  0  0  0
    5.4670   -3.4610   29.1330 O   0  0  0  0  0  0  0  0  0  0  0  0
    5.0070   -4.5450   28.4550 C   0  0  2  0  0  0  0  0  0  0  0  0
    6.0140   -5.4810   28.3450 C   0  0  0  0  0  0  0  0  0  0  0  0
    6.9420   -5.2250   27.4330 N   0  0  0  0  0  0  0  0  0  0  0  0
    7.9100   -6.2190   27.4850 C   0  0  0  0  0  0  0  0  0  0  0  0
    9.1860   -6.3360   26.6730 C   0  0  0  0  0  0  0  0  0  0  0  0
    7.4350   -7.0350   28.4360 N   0  0  0  0  0  0  0  0  0  0  0  0
    6.3140   -6.6630   28.9910 O   0  0  0  0  0  0  0  0  0  0  0  0
    4.5990   -4.0660   27.2630 C   0  0  0  0  0  0  0  0  0  0  0  0
    7.2500   -3.2420   23.6180 C   0  0  0  0  0  0  0  0  0  0  0  0
    7.6280   -3.3350   22.2320 C   0  0  0  0  0  0  0  0  0  0  0  0
  1  2  1  0
  2  3  2  0
  2  4  1  0
  4  5  1  0
  5  6  1  0
  6  7  1  0
  7  8  1  0
  8  9  2  0
  8 10  1  0
 10 11  1  0
 11 12  1  0
 12 13  1  6
 12 14  1  0
 14 15  1  0
 15 16  1  6
 16 17  2  0
 17 18  1  0
 18 19  1  0
 18 20  2  0
 16 21  1  0
 20 21  1  0
 10 22  1  0
 15 22  1  0
  7 23  1  0
  4 24  1  0
 23 24  1  0
M  END
