piperidine-amides-27050-covalent
     RDKit          3D

 25 27  0  0  0  0  0  0  0  0999 V2000
    7.1240   -3.3330   19.3080 C   0  0  0  0  0  0  0  0  0  0  0  0
    6.3830   -4.1150   20.2870 C   0  0  0  0  0  0  0  0  0  0  0  0
    5.2870   -4.6110   19.9090 O   0  0  0  0  0  0  0  0  0  0  0  0
    6.9180   -4.3350   21.5490 N   0  0  0  0  0  0  0  0  0  0  0  0
    6.6630   -5.5590   22.2540 C   0  0  0  0  0  0  0  0  0  0  0  0
    5.8890   -5.2060   23.4880 C   0  0  0  0  0  0  0  0  0  0  0  0
    6.4960   -4.0430   24.2280 C   0  0  0  0  0  0  0  0  0  0  0  0
    5.5230   -3.5400   25.2290 C   0  0  0  0  0  0  0  0  0  0  0  0
    4.7150   -2.6490   24.8970 O   0  0  0  0  0  0  0  0  0  0  0  0
    5.4930   -4.0480   26.5470 N   0  0  0  0  0  0  0  0  0  0  0  0
    6.8680   -4.3500   27.0480 C   0  0  0  0  0  0  0  0  0  0  0  0
    7.3430   -5.6450   27.8850 C   0  0  0  0  0  0  0  0  0  0  0  0
    7.4390   -5.5660   29.1680 O   0  0  0  0  0  0  0  0  0  0  0  0
    6.5970   -4.5780   29.2160 C   0  0  0  0  0  0  0  0  0  0  0  0
    6.8680   -5.6040   28.2940 C   0  0  0  0  0  0  0  0  0  0  0  0
    6.4110   -5.9960   27.1060 C   0  0  0  0  0  0  0  0  0  0  0  0
    5.4850   -5.3380   26.5570 C   0  0  0  0  0  0  0  0  0  0  0  0
    5.1060   -4.3070   27.2820 C   0  0  0  0  0  0  0  0  0  0  0  0
    5.5680   -3.7910   28.6580 C   0  0  0  0  0  0  0  0  0  0  0  0
    4.6470   -3.4670   27.5880 C   0  0  2  0  0  0  0  0  0  0  0  0
    3.2140   -3.9880   27.6090 C   0  0  0  0  0  0  0  0  0  0  0  0
    2.7920   -4.6640   28.7010 F   0  0  0  0  0  0  0  0  0  0  0  0
    2.2890   -2.9560   27.4670 F   0  0  0  0  0  0  0  0  0  0  0  0
    6.8580   -2.9100   23.3090 C   0  0  0  0  0  0  0  0  0  0  0  0
    7.6680   -3.3040   22.2750 C   0  0  0  0  0  0  0  0  0  0  0  0
  1  2  1  0
  2  3  2  0
  2  4  1  0
  4  5  1  0
  5  6  1  0
  6  7  1  0
  7  8  1  0
  8  9  2  0
  8 10  1  0
 10 11  1  0
 11 12  1  0
 12 13  1  0
 13 14  1  0
 14 15  1  0
 15 16  2  0
 16 17  1  0
 17 18  2  0
 14 19  2  0
 18 19  1  0
 10 20  1  0
 19 20  1  0
 20 21  1  1
 21 22  1  0
 21 23  1  0
  7 24  1  0
  4 25  1  0
 24 25  1  0
M  END
