piperidine-amides-6990-covalent
     RDKit          3D

 22 24  0  0  0  0  0  0  0  0999 V2000
    7.1120   -3.2750   19.2660 C   0  0  0  0  0  0  0  0  0  0  0  0
    6.3830   -4.0860   20.2540 C   0  0  0  0  0  0  0  0  0  0  0  0
    5.3290   -4.6750   19.9310 O   0  0  0  0  0  0  0  0  0  0  0  0
    6.8880   -4.2560   21.5480 N   0  0  0  0  0  0  0  0  0  0  0  0
    6.5490   -5.4430   22.2870 C   0  0  0  0  0  0  0  0  0  0  0  0
    5.7310   -4.9650   23.4860 C   0  0  0  0  0  0  0  0  0  0  0  0
    6.5510   -3.8800   24.1560 C   0  0  0  0  0  0  0  0  0  0  0  0
    5.8370   -3.3540   25.3290 C   0  0  0  0  0  0  0  0  0  0  0  0
    4.5880   -3.3340   25.3120 O   0  0  0  0  0  0  0  0  0  0  0  0
    6.5790   -2.8800   26.4300 N   0  0  0  0  0  0  0  0  0  0  0  0
    6.2160   -3.2340   27.7740 C   0  0  0  0  0  0  0  0  0  0  0  0
    5.9130   -1.9250   28.4740 C   0  0  2  0  0  0  0  0  0  0  0  0
    6.9920   -1.1590   28.8820 C   0  0  0  0  0  0  0  0  0  0  0  0
    6.6810   -0.6010   30.0760 C   0  0  0  0  0  0  0  0  0  0  0  0
    5.4740   -1.1280   30.4380 C   0  0  0  0  0  0  0  0  0  0  0  0
    4.6930   -0.9840   31.5610 C   0  0  0  0  0  0  0  0  0  0  0  0
    3.3480   -1.5120   32.0820 C   0  0  0  0  0  0  0  0  0  0  0  0
    2.9990   -2.3910   30.8690 C   0  0  0  0  0  0  0  0  0  0  0  0
    3.7240   -2.6460   29.5980 N   0  0  0  0  0  0  0  0  0  0  0  0
    4.9720   -1.9420   29.5020 C   0  0  0  0  0  0  0  0  0  0  0  0
    6.8310   -2.7420   23.2070 C   0  0  0  0  0  0  0  0  0  0  0  0
    7.6720   -3.2320   22.2060 C   0  0  0  0  0  0  0  0  0  0  0  0
  1  2  1  0
  2  3  2  0
  2  4  1  0
  4  5  1  0
  5  6  1  0
  6  7  1  0
  7  8  1  0
  8  9  2  0
  8 10  1  0
 10 11  1  0
 12 11  1  1
 12 13  1  0
 13 14  1  0
 14 15  1  0
 15 16  1  0
 16 17  2  0
 17 18  1  0
 18 19  2  0
 12 20  1  0
 15 20  2  0
 19 20  1  0
  7 21  1  0
  4 22  1  0
 21 22  1  0
M  END
