piperidine-amides-30015-covalent
     RDKit          3D

 27 30  0  0  0  0  0  0  0  0999 V2000
    7.0550   -3.3750   19.3530 C   0  0  0  0  0  0  0  0  0  0  0  0
    6.3980   -4.2280   20.3350 C   0  0  0  0  0  0  0  0  0  0  0  0
    5.4000   -4.8700   19.9960 O   0  0  0  0  0  0  0  0  0  0  0  0
    6.9400   -4.3680   21.6680 N   0  0  0  0  0  0  0  0  0  0  0  0
    7.6890   -3.3100   22.2870 C   0  0  0  0  0  0  0  0  0  0  0  0
    6.8750   -2.6610   23.3710 C   0  0  0  0  0  0  0  0  0  0  0  0
    6.3420   -3.7210   24.3290 C   0  0  0  0  0  0  0  0  0  0  0  0
    5.2550   -3.1130   25.1730 C   0  0  0  0  0  0  0  0  0  0  0  0
    4.1490   -2.8410   24.6850 O   0  0  0  0  0  0  0  0  0  0  0  0
    5.4370   -2.8320   26.5590 N   0  0  0  0  0  0  0  0  0  0  0  0
    4.3030   -2.9130   27.4110 C   0  0  0  0  0  0  0  0  0  0  0  0
    4.6780   -4.1310   28.1750 C   0  0  1  0  0  0  0  0  0  0  0  0
    3.8220   -5.2170   28.1850 C   0  0  0  0  0  0  0  0  0  0  0  0
    2.9950   -5.4060   29.3350 N   0  0  0  0  0  0  0  0  0  0  0  0
    2.3060   -6.5640   28.9640 C   0  0  0  0  0  0  0  0  0  0  0  0
    1.3530   -7.2210   29.7090 C   0  0  0  0  0  0  0  0  0  0  0  0
    1.7300   -8.5550   30.1600 C   0  0  0  0  0  0  0  0  0  0  0  0
    0.2040   -7.5690   29.0510 C   0  0  0  0  0  0  0  0  0  0  0  0
    2.6020   -7.0810   27.7700 N   0  0  0  0  0  0  0  0  0  0  0  0
    3.5390   -6.2490   27.2880 N   0  0  0  0  0  0  0  0  0  0  0  0
    6.0080   -4.6320   27.8480 C   0  0  2  0  0  0  0  0  0  0  0  0
    6.5060   -5.0470   29.0650 C   0  0  0  0  0  0  0  0  0  0  0  0
    5.9440   -6.0180   29.7540 C   0  0  0  0  0  0  0  0  0  0  0  0
    6.3280   -6.5430   28.5000 C   0  0  0  0  0  0  0  0  0  0  0  0
    6.5190   -3.3260   27.3070 C   0  0  0  0  0  0  0  0  0  0  0  0
    5.7160   -4.9120   23.6060 C   0  0  0  0  0  0  0  0  0  0  0  0
    6.6240   -5.4860   22.5030 C   0  0  0  0  0  0  0  0  0  0  0  0
  1  2  1  0
  2  3  2  0
  2  4  1  0
  4  5  1  0
  5  6  1  0
  6  7  1  0
  7  8  1  0
  8  9  2  0
  8 10  1  0
 10 11  1  0
 11 12  1  0
 12 13  1  6
 13 14  2  0
 14 15  1  0
 15 16  1  0
 16 17  1  0
 16 18  1  0
 15 19  2  0
 13 20  1  0
 19 20  1  0
 12 21  1  0
 21 22  1  1
 22 23  1  0
 22 24  1  0
 23 24  1  0
 10 25  1  0
 21 25  1  0
  7 26  1  0
  4 27  1  0
 26 27  1  0
M  END
