piperidine-amides-14292-covalent
     RDKit          3D

 24 26  0  0  0  0  0  0  0  0999 V2000
    7.0300   -3.3720   19.3900 C   0  0  0  0  0  0  0  0  0  0  0  0
    6.3110   -4.2200   20.3340 C   0  0  0  0  0  0  0  0  0  0  0  0
    5.2820   -4.7840   19.9500 O   0  0  0  0  0  0  0  0  0  0  0  0
    6.8190   -4.4210   21.6350 N   0  0  0  0  0  0  0  0  0  0  0  0
    7.5460   -3.3440   22.2350 C   0  0  0  0  0  0  0  0  0  0  0  0
    7.2570   -3.2780   23.6990 C   0  0  0  0  0  0  0  0  0  0  0  0
    5.8660   -3.8050   23.9110 C   0  0  0  0  0  0  0  0  0  0  0  0
    5.3270   -3.4900   25.2800 C   0  0  0  0  0  0  0  0  0  0  0  0
    4.1130   -3.6120   25.4070 O   0  0  0  0  0  0  0  0  0  0  0  0
    6.1810   -3.0790   26.2990 N   0  0  0  0  0  0  0  0  0  0  0  0
    6.7610   -1.7840   26.2900 C   0  0  0  0  0  0  0  0  0  0  0  0
    7.7420   -1.7190   25.2670 C   0  0  0  0  0  0  0  0  0  0  0  0
    8.8220   -2.5750   25.3040 C   0  0  0  0  0  0  0  0  0  0  0  0
    9.8750   -2.6420   24.3870 C   0  0  0  0  0  0  0  0  0  0  0  0
    9.7920   -1.6690   23.2600 C   0  0  0  0  0  0  0  0  0  0  0  0
   10.8050   -1.7000   22.3560 F   0  0  0  0  0  0  0  0  0  0  0  0
    8.6050   -0.6980   23.1610 C   0  0  0  0  0  0  0  0  0  0  0  0
    7.5890   -0.7940   24.2400 C   0  0  0  0  0  0  0  0  0  0  0  0
    7.4920   -1.7490   27.6560 C   0  0  0  0  0  0  0  0  0  0  0  0
    6.7990   -0.6680   28.4950 C   0  0  0  0  0  0  0  0  0  0  0  0
    5.9860   -0.0150   27.6300 C   0  0  0  0  0  0  0  0  0  0  0  0
    5.9760   -0.6220   26.3840 C   0  0  0  0  0  0  0  0  0  0  0  0
    5.8270   -5.2670   23.6620 C   0  0  0  0  0  0  0  0  0  0  0  0
    6.5280   -5.6200   22.3810 C   0  0  0  0  0  0  0  0  0  0  0  0
  1  2  1  0
  2  3  2  0
  2  4  1  0
  4  5  1  0
  5  6  1  0
  6  7  1  0
  7  8  1  0
  8  9  2  0
  8 10  1  0
 11 10  1  0
 11 12  1  0
 12 13  2  0
 13 14  1  0
 14 15  2  0
 15 16  1  0
 15 17  1  0
 12 18  1  0
 17 18  2  0
 11 19  1  0
 19 20  1  0
 20 21  1  0
 11 22  1  0
 21 22  1  0
  7 23  1  0
  4 24  1  0
 23 24  1  0
M  END
