piperidine-amides-6400-covalent
     RDKit          3D

 21 21  0  0  0  0  0  0  0  0999 V2000
    7.1090   -3.2720   19.1720 C   0  0  0  0  0  0  0  0  0  0  0  0
    6.3630   -4.0280   20.1870 C   0  0  0  0  0  0  0  0  0  0  0  0
    5.2960   -4.6080   19.9000 O   0  0  0  0  0  0  0  0  0  0  0  0
    6.8810   -4.1510   21.4760 N   0  0  0  0  0  0  0  0  0  0  0  0
    6.5810   -5.3310   22.2540 C   0  0  0  0  0  0  0  0  0  0  0  0
    5.7710   -4.8630   23.4690 C   0  0  0  0  0  0  0  0  0  0  0  0
    6.6010   -3.7800   24.1240 C   0  0  0  0  0  0  0  0  0  0  0  0
    5.9340   -3.3400   25.3490 C   0  0  0  0  0  0  0  0  0  0  0  0
    4.8430   -2.7330   25.2740 O   0  0  0  0  0  0  0  0  0  0  0  0
    6.5670   -3.6350   26.5660 N   0  0  0  0  0  0  0  0  0  0  0  0
    6.9690   -4.9960   26.7760 C   0  0  0  0  0  0  0  0  0  0  0  0
    5.8420   -5.6480   27.4890 C   0  0  0  0  0  0  0  0  0  0  0  0
    5.7670   -5.5020   28.8300 C   0  0  0  0  0  0  0  0  0  0  0  0
    5.7010   -4.3860   29.4260 O   0  0  0  0  0  0  0  0  0  0  0  0
    5.7710   -6.7280   29.4830 N   0  0  0  0  0  0  0  0  0  0  0  0
    4.7410   -6.9730   30.3980 C   0  0  0  0  0  0  0  0  0  0  0  0
    4.0200   -5.7910   30.5700 C   0  0  0  0  0  0  0  0  0  0  0  0
    3.9890   -7.9820   29.8910 C   0  0  0  0  0  0  0  0  0  0  0  0
    5.3530   -7.5210   31.5160 C   0  0  0  0  0  0  0  0  0  0  0  0
    6.8920   -2.6420   23.2180 C   0  0  0  0  0  0  0  0  0  0  0  0
    7.6980   -3.1140   22.0700 C   0  0  0  0  0  0  0  0  0  0  0  0
  1  2  1  0
  2  3  2  0
  2  4  1  0
  4  5  1  0
  5  6  1  0
  6  7  1  0
  7  8  1  0
  8  9  2  0
  8 10  1  0
 10 11  1  0
 11 12  1  0
 12 13  1  0
 13 14  2  0
 13 15  1  0
 16 15  1  0
 16 17  1  0
 16 18  1  0
 16 19  1  0
  7 20  1  0
  4 21  1  0
 20 21  1  0
M  END
