piperidine-amides-3130-covalent
     RDKit          3D

 23 24  0  0  0  0  0  0  0  0999 V2000
    7.1140   -3.3020   19.2320 C   0  0  0  0  0  0  0  0  0  0  0  0
    6.3060   -4.0240   20.2010 C   0  0  0  0  0  0  0  0  0  0  0  0
    5.2290   -4.5040   19.8650 O   0  0  0  0  0  0  0  0  0  0  0  0
    6.7900   -4.2360   21.5330 N   0  0  0  0  0  0  0  0  0  0  0  0
    7.5840   -3.2280   22.1850 C   0  0  0  0  0  0  0  0  0  0  0  0
    6.7810   -2.6470   23.3030 C   0  0  0  0  0  0  0  0  0  0  0  0
    5.9950   -3.7950   23.9090 C   0  0  0  0  0  0  0  0  0  0  0  0
    5.8910   -3.5770   25.3680 C   0  0  0  0  0  0  0  0  0  0  0  0
    5.0560   -2.8070   25.8750 O   0  0  0  0  0  0  0  0  0  0  0  0
    6.8000   -4.2960   26.1790 N   0  0  0  0  0  0  0  0  0  0  0  0
    6.6150   -4.3870   27.6090 C   0  0  2  0  0  0  0  0  0  0  0  0
    7.4790   -5.5350   28.0870 C   0  0  0  0  0  0  0  0  0  0  0  0
    5.1970   -4.6350   27.9570 C   0  0  0  0  0  0  0  0  0  0  0  0
    4.6950   -5.9840   28.0100 C   0  0  0  0  0  0  0  0  0  0  0  0
    3.3610   -6.2190   28.3420 C   0  0  0  0  0  0  0  0  0  0  0  0
    2.9890   -7.5340   28.3670 F   0  0  0  0  0  0  0  0  0  0  0  0
    2.5390   -5.0860   28.6180 C   0  0  0  0  0  0  0  0  0  0  0  0
    2.9950   -3.8310   28.5700 C   0  0  0  0  0  0  0  0  0  0  0  0
    4.3010   -3.5920   28.2460 C   0  0  0  0  0  0  0  0  0  0  0  0
    4.6410   -2.2480   28.2360 O   0  0  0  0  0  0  0  0  0  0  0  0
    3.7890   -1.4950   27.4160 C   0  0  0  0  0  0  0  0  0  0  0  0
    6.4890   -5.1330   23.6250 C   0  0  0  0  0  0  0  0  0  0  0  0
    6.4550   -5.4260   22.2700 C   0  0  0  0  0  0  0  0  0  0  0  0
  1  2  1  0
  2  3  2  0
  2  4  1  0
  4  5  1  0
  5  6  1  0
  6  7  1  0
  7  8  1  0
  8  9  2  0
  8 10  1  0
 10 11  1  0
 11 12  1  6
 11 13  1  0
 13 14  2  0
 14 15  1  0
 15 16  1  0
 15 17  2  0
 17 18  1  0
 13 19  1  0
 18 19  2  0
 19 20  1  0
 20 21  1  0
  7 22  1  0
  4 23  1  0
 22 23  1  0
M  END
