piperidine-amides-19548-covalent
     RDKit          3D

 22 23  0  0  0  0  0  0  0  0999 V2000
    7.1030   -3.3120   19.4150 C   0  0  0  0  0  0  0  0  0  0  0  0
    6.4000   -4.1180   20.3940 C   0  0  0  0  0  0  0  0  0  0  0  0
    5.4320   -4.8390   19.9860 O   0  0  0  0  0  0  0  0  0  0  0  0
    6.7680   -4.1540   21.7660 N   0  0  0  0  0  0  0  0  0  0  0  0
    6.6890   -5.4880   22.4180 C   0  0  0  0  0  0  0  0  0  0  0  0
    6.1440   -5.1420   23.8660 C   0  0  0  0  0  0  0  0  0  0  0  0
    6.2760   -3.6510   24.0200 C   0  0  0  0  0  0  0  0  0  0  0  0
    5.4470   -3.0480   25.2510 C   0  0  0  0  0  0  0  0  0  0  0  0
    4.4150   -2.5760   24.8070 O   0  0  0  0  0  0  0  0  0  0  0  0
    6.0210   -3.2090   26.3890 N   0  0  0  0  0  0  0  0  0  0  0  0
    6.3580   -3.8370   27.5580 C   0  0  0  0  0  0  0  0  0  0  0  0
    6.4880   -1.9170   26.7360 C   0  0  0  0  0  0  0  0  0  0  0  0
    5.5390   -0.9780   27.2130 C   0  0  0  0  0  0  0  0  0  0  0  0
    5.2530    0.3260   26.6100 C   0  0  0  0  0  0  0  0  0  0  0  0
    4.3360    1.2380   27.0730 N   0  0  0  0  0  0  0  0  0  0  0  0
    3.5000    1.0850   28.2190 C   0  0  0  0  0  0  0  0  0  0  0  0
    3.6970   -0.1370   28.8780 C   0  0  0  0  0  0  0  0  0  0  0  0
    2.9860   -0.3160   29.8900 O   0  0  0  0  0  0  0  0  0  0  0  0
    1.7110   -0.8060   29.8760 C   0  0  0  0  0  0  0  0  0  0  0  0
    4.6860   -1.2390   28.4660 C   0  0  0  0  0  0  0  0  0  0  0  0
    7.6370   -3.1710   23.6610 C   0  0  0  0  0  0  0  0  0  0  0  0
    7.6670   -3.1420   22.2870 C   0  0  0  0  0  0  0  0  0  0  0  0
  1  2  1  0
  2  3  2  0
  2  4  1  0
  4  5  1  0
  5  6  1  0
  6  7  1  0
  7  8  1  0
  8  9  2  0
  8 10  1  0
 10 11  1  0
 10 12  1  0
 12 13  1  0
 13 14  2  0
 14 15  1  0
 15 16  2  0
 16 17  1  0
 17 18  1  0
 18 19  1  0
 13 20  1  0
 17 20  2  0
  7 21  1  0
  4 22  1  0
 21 22  1  0
M  END
