piperidine-amides-4178-covalent
     RDKit          3D

 27 29  0  0  0  0  0  0  0  0999 V2000
    7.2360   -3.1890   18.9370 C   0  0  0  0  0  0  0  0  0  0  0  0
    6.3220   -3.8190   19.9000 C   0  0  0  0  0  0  0  0  0  0  0  0
    5.1360   -4.0140   19.5660 O   0  0  0  0  0  0  0  0  0  0  0  0
    6.7780   -4.2190   21.1570 N   0  0  0  0  0  0  0  0  0  0  0  0
    5.9390   -5.1360   21.8010 C   0  0  0  0  0  0  0  0  0  0  0  0
    5.0420   -4.5180   22.7880 C   0  0  0  0  0  0  0  0  0  0  0  0
    5.0490   -3.0280   22.9600 C   0  0  0  0  0  0  0  0  0  0  0  0
    4.8580   -2.6430   24.3830 C   0  0  0  0  0  0  0  0  0  0  0  0
    3.7990   -2.9100   24.9850 O   0  0  0  0  0  0  0  0  0  0  0  0
    5.9150   -1.9910   25.0220 N   0  0  0  0  0  0  0  0  0  0  0  0
    7.1850   -2.5730   25.0620 C   0  0  0  0  0  0  0  0  0  0  0  0
    7.6270   -3.4600   23.9460 C   0  0  0  0  0  0  0  0  0  0  0  0
    6.9460   -4.7170   23.9170 C   0  0  0  0  0  0  0  0  0  0  0  0
    6.0560   -4.8410   24.8880 C   0  0  0  0  0  0  0  0  0  0  0  0
    6.8080   -3.3680   24.9860 C   0  0  0  0  0  0  0  0  0  0  0  0
    6.1200   -2.7950   26.2310 C   0  0  0  0  0  0  0  0  0  0  0  0
    5.7920   -3.6600   27.2090 N   0  0  0  0  0  0  0  0  0  0  0  0
    6.5340   -3.7510   28.2920 C   0  0  0  0  0  0  0  0  0  0  0  0
    6.9010   -5.1560   28.6250 C   0  0  0  0  0  0  0  0  0  0  0  0
    5.6100   -5.6910   29.0980 C   0  0  0  0  0  0  0  0  0  0  0  0
    4.5300   -5.3630   28.0560 C   0  0  0  0  0  0  0  0  0  0  0  0
    4.5430   -3.9470   27.5470 C   0  0  1  0  0  0  0  0  0  0  0  0
    3.8970   -3.0650   28.4100 C   0  0  0  0  0  0  0  0  0  0  0  0
    7.9200   -2.4110   24.2940 C   0  0  0  0  0  0  0  0  0  0  0  0
    8.5600   -3.0430   23.1070 C   0  0  0  0  0  0  0  0  0  0  0  0
    6.2080   -2.2670   22.3530 C   0  0  0  0  0  0  0  0  0  0  0  0
    7.3330   -3.1570   21.8900 C   0  0  0  0  0  0  0  0  0  0  0  0
  1  2  1  0
  2  3  2  0
  2  4  1  0
  4  5  1  0
  5  6  1  0
  6  7  1  0
  7  8  1  0
  8  9  2  0
  8 10  1  0
 10 11  1  0
 11 12  1  0
 12 13  2  0
 13 14  1  0
 14 15  2  0
 15 16  1  0
 16 17  1  0
 17 18  1  0
 18 19  1  0
 19 20  1  0
 20 21  1  0
 17 22  1  0
 21 22  1  0
 22 23  1  1
 15 24  1  0
 12 25  1  0
 24 25  2  0
  7 26  1  0
  4 27  1  0
 26 27  1  0
M  END
