piperidine-amides-23352-covalent
     RDKit          3D

 24 26  0  0  0  0  0  0  0  0999 V2000
    7.0520   -3.4040   19.4440 C   0  0  0  0  0  0  0  0  0  0  0  0
    6.3950   -4.2540   20.4500 C   0  0  0  0  0  0  0  0  0  0  0  0
    5.4330   -4.9440   20.0190 O   0  0  0  0  0  0  0  0  0  0  0  0
    6.8490   -4.3290   21.8070 N   0  0  0  0  0  0  0  0  0  0  0  0
    6.5800   -5.5150   22.5590 C   0  0  0  0  0  0  0  0  0  0  0  0
    6.0090   -5.1980   23.8610 C   0  0  0  0  0  0  0  0  0  0  0  0
    5.8760   -3.7430   24.0030 C   0  0  0  0  0  0  0  0  0  0  0  0
    5.0160   -3.2760   25.1830 C   0  0  0  0  0  0  0  0  0  0  0  0
    3.8250   -3.0660   24.9290 O   0  0  0  0  0  0  0  0  0  0  0  0
    5.3890   -3.0530   26.5370 N   0  0  0  0  0  0  0  0  0  0  0  0
    6.6110   -3.0580   27.0330 C   0  0  0  0  0  0  0  0  0  0  0  0
    6.6410   -3.9740   28.1580 C   0  0  0  0  0  0  0  0  0  0  0  0
    5.1970   -3.8350   28.6740 C   0  0  2  0  0  0  0  0  0  0  0  0
    4.6750   -5.0050   29.1650 C   0  0  0  0  0  0  0  0  0  0  0  0
    5.3990   -6.2710   28.7510 C   0  0  0  0  0  0  0  0  0  0  0  0
    4.7170   -7.5060   29.3430 C   0  0  0  0  0  0  0  0  0  0  0  0
    3.4370   -7.2830   30.2460 C   0  0  0  0  0  0  0  0  0  0  0  0
    2.7200   -8.3210   30.8390 O   0  0  0  0  0  0  0  0  0  0  0  0
    1.5240   -8.8040   30.2280 C   0  0  0  0  0  0  0  0  0  0  0  0
    2.7830   -5.9510   30.6130 C   0  0  0  0  0  0  0  0  0  0  0  0
    3.4760   -4.7730   30.0150 C   0  0  0  0  0  0  0  0  0  0  0  0
    4.4410   -3.3360   27.5870 C   0  0  0  0  0  0  0  0  0  0  0  0
    7.1620   -3.0250   23.7240 C   0  0  0  0  0  0  0  0  0  0  0  0
    7.6200   -3.2480   22.4110 C   0  0  0  0  0  0  0  0  0  0  0  0
  1  2  1  0
  2  3  2  0
  2  4  1  0
  4  5  1  0
  5  6  1  0
  6  7  1  0
  7  8  1  0
  8  9  2  0
  8 10  1  0
 10 11  1  0
 11 12  1  0
 12 13  1  0
 13 14  1  6
 14 15  2  0
 15 16  1  0
 16 17  2  0
 17 18  1  0
 18 19  1  0
 17 20  1  0
 14 21  1  0
 20 21  2  0
 10 22  1  0
 13 22  1  0
  7 23  1  0
  4 24  1  0
 23 24  1  0
M  END
