piperidine-amides-29030-covalent
     RDKit          3D

 25 27  0  0  0  0  0  0  0  0999 V2000
    7.0190   -3.3710   19.3870 C   0  0  0  0  0  0  0  0  0  0  0  0
    6.3970   -4.2600   20.3730 C   0  0  0  0  0  0  0  0  0  0  0  0
    5.4090   -4.9200   19.9980 O   0  0  0  0  0  0  0  0  0  0  0  0
    6.9280   -4.3930   21.6880 N   0  0  0  0  0  0  0  0  0  0  0  0
    6.5940   -5.5680   22.4590 C   0  0  0  0  0  0  0  0  0  0  0  0
    6.2800   -5.2140   23.9010 C   0  0  0  0  0  0  0  0  0  0  0  0
    6.1350   -3.7120   23.9590 C   0  0  0  0  0  0  0  0  0  0  0  0
    5.5360   -3.1380   25.2180 C   0  0  0  0  0  0  0  0  0  0  0  0
    4.8960   -2.1160   25.0220 O   0  0  0  0  0  0  0  0  0  0  0  0
    5.6400   -3.6910   26.4940 N   0  0  0  0  0  0  0  0  0  0  0  0
    4.5970   -3.3150   27.4010 C   0  0  0  0  0  0  0  0  0  0  0  0
    4.0440   -4.2950   28.2480 C   0  0  0  0  0  0  0  0  0  0  0  0
    5.1540   -4.8380   29.0150 N   0  0  0  0  0  0  0  0  0  0  0  0
    5.1010   -5.7960   30.0280 C   0  0  0  0  0  0  0  0  0  0  0  0
    6.0700   -6.7750   30.0440 C   0  0  0  0  0  0  0  0  0  0  0  0
    5.9820   -7.7820   31.1330 C   0  0  0  0  0  0  0  0  0  0  0  0
    4.8570   -7.7120   32.1680 C   0  0  0  0  0  0  0  0  0  0  0  0
    4.9320   -8.6470   32.9980 O   0  0  0  0  0  0  0  0  0  0  0  0
    3.8460   -6.6500   32.1150 C   0  0  0  0  0  0  0  0  0  0  0  0
    2.5340   -6.5120   33.2630 Cl  0  0  0  0  0  0  0  0  0  0  0  0
    4.0730   -5.7140   30.9620 C   0  0  0  0  0  0  0  0  0  0  0  0
    6.4450   -4.6300   28.4850 C   0  0  0  0  0  0  0  0  0  0  0  0
    6.3250   -3.4990   27.7260 C   0  0  0  0  0  0  0  0  0  0  0  0
    7.4780   -3.1340   23.6870 C   0  0  0  0  0  0  0  0  0  0  0  0
    7.6910   -3.2720   22.2150 C   0  0  0  0  0  0  0  0  0  0  0  0
  1  2  1  0
  2  3  2  0
  2  4  1  0
  4  5  1  0
  5  6  1  0
  6  7  1  0
  7  8  1  0
  8  9  2  0
  8 10  1  0
 10 11  1  0
 11 12  1  0
 12 13  1  0
 13 14  1  0
 14 15  2  0
 15 16  1  0
 16 17  2  0
 17 18  1  0
 17 19  1  0
 19 20  1  0
 14 21  1  0
 19 21  2  0
 13 22  1  0
 10 23  1  0
 22 23  1  0
  7 24  1  0
  4 25  1  0
 24 25  1  0
M  END
