piperidine-amides-16159-covalent
     RDKit          3D

 19 20  0  0  0  0  0  0  0  0999 V2000
    7.0930   -3.3310   19.3150 C   0  0  0  0  0  0  0  0  0  0  0  0
    6.3690   -4.1540   20.3140 C   0  0  0  0  0  0  0  0  0  0  0  0
    5.3380   -4.7120   19.9440 O   0  0  0  0  0  0  0  0  0  0  0  0
    6.8950   -4.3070   21.5980 N   0  0  0  0  0  0  0  0  0  0  0  0
    7.7310   -3.3120   22.2210 C   0  0  0  0  0  0  0  0  0  0  0  0
    7.0780   -2.8170   23.4740 C   0  0  0  0  0  0  0  0  0  0  0  0
    6.6950   -3.9920   24.3820 C   0  0  0  0  0  0  0  0  0  0  0  0
    5.9800   -3.3900   25.5240 C   0  0  0  0  0  0  0  0  0  0  0  0
    4.7500   -3.2270   25.4580 O   0  0  0  0  0  0  0  0  0  0  0  0
    6.6910   -3.0080   26.6830 N   0  0  0  0  0  0  0  0  0  0  0  0
    7.6220   -3.9770   27.2330 C   0  0  0  0  0  0  0  0  0  0  0  0
    6.7980   -1.6130   27.0270 C   0  0  2  0  0  0  0  0  0  0  0  0
    7.1380   -1.5330   28.3640 C   0  0  0  0  0  0  0  0  0  0  0  0
    6.6390   -0.4450   28.8680 C   0  0  0  0  0  0  0  0  0  0  0  0
    6.0380    0.0670   27.8000 C   0  0  0  0  0  0  0  0  0  0  0  0
    5.4990   -0.8140   26.6690 C   0  0  1  0  0  0  0  0  0  0  0  0
    5.4790   -0.3130   25.3890 O   0  0  0  0  0  0  0  0  0  0  0  0
    5.8920   -5.0390   23.6690 C   0  0  0  0  0  0  0  0  0  0  0  0
    6.5260   -5.4630   22.3770 C   0  0  0  0  0  0  0  0  0  0  0  0
  1  2  1  0
  2  3  2  0
  2  4  1  0
  4  5  1  0
  5  6  1  0
  6  7  1  0
  7  8  1  0
  8  9  2  0
  8 10  1  0
 10 11  1  0
 12 10  1  1
 12 13  1  0
 13 14  1  0
 14 15  1  0
 12 16  1  0
 15 16  1  0
 16 17  1  6
  7 18  1  0
  4 19  1  0
 18 19  1  0
M  END
