piperidine-amides-31122-covalent
     RDKit          3D

 23 24  0  0  0  0  0  0  0  0999 V2000
    7.0660   -3.3020   19.2830 C   0  0  0  0  0  0  0  0  0  0  0  0
    6.3510   -4.0750   20.3040 C   0  0  0  0  0  0  0  0  0  0  0  0
    5.3640   -4.7490   19.9580 O   0  0  0  0  0  0  0  0  0  0  0  0
    6.7770   -4.1040   21.6470 N   0  0  0  0  0  0  0  0  0  0  0  0
    7.6860   -3.1000   22.1770 C   0  0  0  0  0  0  0  0  0  0  0  0
    7.3930   -2.9630   23.6450 C   0  0  0  0  0  0  0  0  0  0  0  0
    6.0580   -3.5520   23.9760 C   0  0  0  0  0  0  0  0  0  0  0  0
    5.5910   -3.3130   25.3670 C   0  0  0  0  0  0  0  0  0  0  0  0
    4.3590   -3.4510   25.6260 O   0  0  0  0  0  0  0  0  0  0  0  0
    6.4140   -2.9350   26.4610 N   0  0  0  0  0  0  0  0  0  0  0  0
    6.3350   -3.7070   27.7250 C   0  0  0  0  0  0  0  0  0  0  0  0
    6.8110   -1.5190   26.6050 C   0  0  0  0  0  0  0  0  0  0  0  0
    5.6670   -0.5950   26.6570 C   0  0  0  0  0  0  0  0  0  0  0  0
    5.5560    0.3330   25.4680 C   0  0  0  0  0  0  0  0  0  0  0  0
    4.3890    1.3200   25.4630 C   0  0  0  0  0  0  0  0  0  0  0  0
    4.1010    2.5760   24.0370 Br  0  0  0  0  0  0  0  0  0  0  0  0
    3.5210    1.2040   26.6670 C   0  0  0  0  0  0  0  0  0  0  0  0
    3.6890    0.3350   27.7040 C   0  0  0  0  0  0  0  0  0  0  0  0
    4.7600   -0.5470   27.6770 C   0  0  0  0  0  0  0  0  0  0  0  0
    4.8490   -1.3970   28.7820 O   0  0  0  0  0  0  0  0  0  0  0  0
    4.4530   -0.9190   30.0520 C   0  0  0  0  0  0  0  0  0  0  0  0
    5.9340   -5.0240   23.6830 C   0  0  0  0  0  0  0  0  0  0  0  0
    6.6650   -5.3440   22.3980 C   0  0  0  0  0  0  0  0  0  0  0  0
  1  2  1  0
  2  3  2  0
  2  4  1  0
  4  5  1  0
  5  6  1  0
  6  7  1  0
  7  8  1  0
  8  9  2  0
  8 10  1  0
 10 11  1  0
 10 12  1  0
 12 13  1  0
 13 14  2  0
 14 15  1  0
 15 16  1  0
 15 17  2  0
 17 18  1  0
 13 19  1  0
 18 19  2  0
 19 20  1  0
 20 21  1  0
  7 22  1  0
  4 23  1  0
 22 23  1  0
M  END
