piperidine-amides-10298-covalent
     RDKit          3D

 24 25  0  0  0  0  0  0  0  0999 V2000
    7.0400   -3.3480   19.3320 C   0  0  0  0  0  0  0  0  0  0  0  0
    6.3940   -4.1780   20.3560 C   0  0  0  0  0  0  0  0  0  0  0  0
    5.3920   -4.8460   19.9830 O   0  0  0  0  0  0  0  0  0  0  0  0
    6.9200   -4.2370   21.6510 N   0  0  0  0  0  0  0  0  0  0  0  0
    7.7340   -3.1670   22.2030 C   0  0  0  0  0  0  0  0  0  0  0  0
    7.3860   -2.9780   23.6490 C   0  0  0  0  0  0  0  0  0  0  0  0
    6.0350   -3.5580   23.9620 C   0  0  0  0  0  0  0  0  0  0  0  0
    5.6280   -3.2120   25.3420 C   0  0  0  0  0  0  0  0  0  0  0  0
    4.4100   -3.2330   25.6150 O   0  0  0  0  0  0  0  0  0  0  0  0
    6.5440   -2.8680   26.3530 N   0  0  0  0  0  0  0  0  0  0  0  0
    6.4440   -1.6440   27.1100 C   0  0  0  0  0  0  0  0  0  0  0  0
    5.8150   -0.4630   26.4230 C   0  0  0  0  0  0  0  0  0  0  0  0
    5.7010    0.7150   27.1000 C   0  0  0  0  0  0  0  0  0  0  0  0
    4.9830    2.1290   26.3590 Cl  0  0  0  0  0  0  0  0  0  0  0  0
    6.1630    0.8040   28.3990 C   0  0  0  0  0  0  0  0  0  0  0  0
    6.0610    1.9670   29.0910 F   0  0  0  0  0  0  0  0  0  0  0  0
    6.7520   -0.2900   29.0480 C   0  0  0  0  0  0  0  0  0  0  0  0
    7.1950   -0.1210   30.3350 C   0  0  0  0  0  0  0  0  0  0  0  0
    8.4740    0.3930   30.5320 O   0  0  0  0  0  0  0  0  0  0  0  0
    6.5060   -0.3910   31.3540 O   0  0  0  0  0  0  0  0  0  0  0  0
    6.8680    0.2120   32.5890 C   0  0  0  0  0  0  0  0  0  0  0  0
    6.9010   -1.5160   28.4210 C   0  0  0  0  0  0  0  0  0  0  0  0
    6.0360   -5.0450   23.7870 C   0  0  0  0  0  0  0  0  0  0  0  0
    6.5860   -5.4310   22.4320 C   0  0  0  0  0  0  0  0  0  0  0  0
  1  2  1  0
  2  3  2  0
  2  4  1  0
  4  5  1  0
  5  6  1  0
  6  7  1  0
  7  8  1  0
  8  9  2  0
  8 10  1  0
 10 11  1  0
 11 12  2  0
 12 13  1  0
 13 14  1  0
 13 15  2  0
 15 16  1  0
 15 17  1  0
 17 18  1  0
 18 19  2  0
 18 20  1  0
 20 21  1  0
 11 22  1  0
 17 22  2  0
  7 23  1  0
  4 24  1  0
 23 24  1  0
M  END
