piperidine-amides-2494-covalent
     RDKit          3D

 26 28  0  0  0  0  0  0  0  0999 V2000
    7.0180   -3.3310   19.3490 C   0  0  0  0  0  0  0  0  0  0  0  0
    6.3540   -4.1810   20.3760 C   0  0  0  0  0  0  0  0  0  0  0  0
    5.4170   -4.8820   19.9890 O   0  0  0  0  0  0  0  0  0  0  0  0
    6.8140   -4.1880   21.7030 N   0  0  0  0  0  0  0  0  0  0  0  0
    7.7320   -3.1840   22.1900 C   0  0  0  0  0  0  0  0  0  0  0  0
    7.3920   -2.8990   23.6110 C   0  0  0  0  0  0  0  0  0  0  0  0
    6.0090   -3.4810   23.8690 C   0  0  0  0  0  0  0  0  0  0  0  0
    5.6030   -3.1430   25.2500 C   0  0  0  0  0  0  0  0  0  0  0  0
    4.4030   -3.0750   25.5380 O   0  0  0  0  0  0  0  0  0  0  0  0
    6.5780   -2.9070   26.2310 N   0  0  0  0  0  0  0  0  0  0  0  0
    6.5250   -1.7380   27.0830 C   0  0  0  0  0  0  0  0  0  0  0  0
    5.9460   -0.4550   26.5840 C   0  0  0  0  0  0  0  0  0  0  0  0
    5.8510    0.7090   27.3030 C   0  0  0  0  0  0  0  0  0  0  0  0
    6.3320    0.7060   28.5990 C   0  0  0  0  0  0  0  0  0  0  0  0
    6.8830   -0.4590   29.1220 C   0  0  0  0  0  0  0  0  0  0  0  0
    7.3880   -0.1840   30.7200 S   0  0  0  0  0  0  0  0  0  0  0  0
    6.0430    0.6230   31.5480 C   0  0  0  0  0  0  0  0  0  0  0  0
    4.8390   -0.1810   31.9880 C   0  0  0  0  0  0  0  0  0  0  0  0
    3.6870    0.5160   32.6950 C   0  0  0  0  0  0  0  0  0  0  0  0
    3.7410    1.9800   32.9540 C   0  0  0  0  0  0  0  0  0  0  0  0
    2.4180    2.7910   33.7670 Cl  0  0  0  0  0  0  0  0  0  0  0  0
    4.9350    2.7200   32.5080 C   0  0  0  0  0  0  0  0  0  0  0  0
    6.1160    2.1090   31.8030 C   0  0  0  0  0  0  0  0  0  0  0  0
    7.0040   -1.6520   28.4540 C   0  0  0  0  0  0  0  0  0  0  0  0
    5.9920   -5.0040   23.6940 C   0  0  0  0  0  0  0  0  0  0  0  0
    6.6640   -5.3770   22.5310 C   0  0  0  0  0  0  0  0  0  0  0  0
  1  2  1  0
  2  3  2  0
  2  4  1  0
  4  5  1  0
  5  6  1  0
  6  7  1  0
  7  8  1  0
  8  9  2  0
  8 10  1  0
 10 11  1  0
 11 12  2  0
 12 13  1  0
 13 14  2  0
 14 15  1  0
 15 16  1  0
 16 17  1  0
 17 18  2  0
 18 19  1  0
 19 20  2  0
 20 21  1  0
 20 22  1  0
 17 23  1  0
 22 23  2  0
 11 24  1  0
 15 24  2  0
  7 25  1  0
  4 26  1  0
 25 26  1  0
M  END
