piperidine-amides-14317-covalent
     RDKit          3D

 24 26  0  0  0  0  0  0  0  0999 V2000
    7.0730   -3.3540   19.3180 C   0  0  0  0  0  0  0  0  0  0  0  0
    6.4140   -4.2150   20.2990 C   0  0  0  0  0  0  0  0  0  0  0  0
    5.3570   -4.7780   19.9640 O   0  0  0  0  0  0  0  0  0  0  0  0
    7.0120   -4.4500   21.5640 N   0  0  0  0  0  0  0  0  0  0  0  0
    7.7370   -3.3800   22.1820 C   0  0  0  0  0  0  0  0  0  0  0  0
    6.8580   -2.7730   23.2140 C   0  0  0  0  0  0  0  0  0  0  0  0
    6.5840   -3.8640   24.2140 C   0  0  0  0  0  0  0  0  0  0  0  0
    5.9230   -3.2710   25.4120 C   0  0  0  0  0  0  0  0  0  0  0  0
    4.7740   -3.6390   25.6520 O   0  0  0  0  0  0  0  0  0  0  0  0
    6.6560   -2.3440   26.1460 N   0  0  0  0  0  0  0  0  0  0  0  0
    6.1030   -1.6440   27.2540 C   0  0  1  0  0  0  0  0  0  0  0  0
    7.0380   -1.3520   28.2400 C   0  0  0  0  0  0  0  0  0  0  0  0
    6.6900   -0.3690   29.1170 C   0  0  0  0  0  0  0  0  0  0  0  0
    6.3770    0.9100   28.6750 C   0  0  0  0  0  0  0  0  0  0  0  0
    5.2830    0.7200   27.6620 C   0  0  0  0  0  0  0  0  0  0  0  0
    5.4000   -0.4880   26.6970 C   0  0  1  0  0  0  0  0  0  0  0  0
    5.6940    0.0200   25.3250 C   0  0  0  0  0  0  0  0  0  0  0  0
    5.1780   -0.8440   24.2160 C   0  0  0  0  0  0  0  0  0  0  0  0
    5.5010   -0.2690   22.8150 C   0  0  0  0  0  0  0  0  0  0  0  0
    6.1870    0.9070   22.6160 C   0  0  0  0  0  0  0  0  0  0  0  0
    6.6540    1.6890   23.6560 C   0  0  0  0  0  0  0  0  0  0  0  0
    6.3760    1.1940   25.0600 C   0  0  0  0  0  0  0  0  0  0  0  0
    5.7300   -4.9420   23.5310 C   0  0  0  0  0  0  0  0  0  0  0  0
    6.5570   -5.5180   22.3990 C   0  0  0  0  0  0  0  0  0  0  0  0
  1  2  1  0
  2  3  2  0
  2  4  1  0
  4  5  1  0
  5  6  1  0
  6  7  1  0
  7  8  1  0
  8  9  2  0
  8 10  1  0
 11 10  1  6
 11 12  1  0
 12 13  1  0
 13 14  1  0
 14 15  1  0
 11 16  1  0
 15 16  1  0
 16 17  1  6
 17 18  2  0
 18 19  1  0
 19 20  2  0
 20 21  1  0
 17 22  1  0
 21 22  2  0
  7 23  1  0
  4 24  1  0
 23 24  1  0
M  END
