piperidine-amides-12826-covalent
     RDKit          3D

 22 23  0  0  0  0  0  0  0  0999 V2000
    7.0650   -3.3570   19.2980 C   0  0  0  0  0  0  0  0  0  0  0  0
    6.3410   -4.1340   20.3260 C   0  0  0  0  0  0  0  0  0  0  0  0
    5.2980   -4.6970   19.9390 O   0  0  0  0  0  0  0  0  0  0  0  0
    6.8440   -4.2710   21.6360 N   0  0  0  0  0  0  0  0  0  0  0  0
    7.6490   -3.2430   22.2260 C   0  0  0  0  0  0  0  0  0  0  0  0
    7.2440   -2.9310   23.5870 C   0  0  0  0  0  0  0  0  0  0  0  0
    5.9880   -3.5950   23.9660 C   0  0  0  0  0  0  0  0  0  0  0  0
    5.6130   -3.2120   25.3460 C   0  0  0  0  0  0  0  0  0  0  0  0
    4.4070   -3.2350   25.6570 O   0  0  0  0  0  0  0  0  0  0  0  0
    6.5870   -2.8260   26.2770 N   0  0  0  0  0  0  0  0  0  0  0  0
    6.4930   -1.6020   27.1040 C   0  0  0  0  0  0  0  0  0  0  0  0
    7.0480   -1.5690   28.4650 C   0  0  0  0  0  0  0  0  0  0  0  0
    6.9450   -0.3620   29.2630 C   0  0  0  0  0  0  0  0  0  0  0  0
    6.3110    0.7520   28.7130 C   0  0  0  0  0  0  0  0  0  0  0  0
    5.7630    0.7760   27.4240 C   0  0  0  0  0  0  0  0  0  0  0  0
    5.1900    1.8800   27.0270 O   0  0  0  0  0  0  0  0  0  0  0  0
    4.0490    2.4670   27.5450 C   0  0  0  0  0  0  0  0  0  0  0  0
    3.0440    1.5940   27.8420 C   0  0  0  0  0  0  0  0  0  0  0  0
    3.3560    0.7930   28.9040 C   0  0  0  0  0  0  0  0  0  0  0  0
    5.8550   -0.3630   26.6490 C   0  0  0  0  0  0  0  0  0  0  0  0
    5.9500   -5.0670   23.7560 C   0  0  0  0  0  0  0  0  0  0  0  0
    6.6200   -5.4660   22.4510 C   0  0  0  0  0  0  0  0  0  0  0  0
  1  2  1  0
  2  3  2  0
  2  4  1  0
  4  5  1  0
  5  6  1  0
  6  7  1  0
  7  8  1  0
  8  9  2  0
  8 10  1  0
 10 11  1  0
 11 12  2  0
 12 13  1  0
 13 14  2  0
 14 15  1  0
 15 16  1  0
 16 17  1  0
 17 18  1  0
 18 19  1  0
 11 20  1  0
 15 20  2  0
  7 21  1  0
  4 22  1  0
 21 22  1  0
M  END
