piperidine-amides-21707-covalent
     RDKit          3D

 23 25  0  0  0  0  0  0  0  0999 V2000
    7.0830   -3.3390   19.3240 C   0  0  0  0  0  0  0  0  0  0  0  0
    6.4060   -4.1730   20.3210 C   0  0  0  0  0  0  0  0  0  0  0  0
    5.3420   -4.7340   19.9510 O   0  0  0  0  0  0  0  0  0  0  0  0
    6.9630   -4.3690   21.5860 N   0  0  0  0  0  0  0  0  0  0  0  0
    6.6910   -5.5510   22.3740 C   0  0  0  0  0  0  0  0  0  0  0  0
    6.1510   -5.1260   23.7150 C   0  0  0  0  0  0  0  0  0  0  0  0
    6.1070   -3.6240   23.8630 C   0  0  0  0  0  0  0  0  0  0  0  0
    5.7000   -3.2510   25.2270 C   0  0  0  0  0  0  0  0  0  0  0  0
    4.7620   -2.4390   25.3630 O   0  0  0  0  0  0  0  0  0  0  0  0
    6.2890   -3.7830   26.3740 N   0  0  0  0  0  0  0  0  0  0  0  0
    7.6630   -3.3510   26.7640 C   0  0  0  0  0  0  0  0  0  0  0  0
    7.8800   -3.1900   28.2920 C   0  0  0  0  0  0  0  0  0  0  0  0
    8.5830   -2.3090   28.8460 O   0  0  0  0  0  0  0  0  0  0  0  0
    7.0610   -4.2260   28.8610 N   0  0  0  0  0  0  0  0  0  0  0  0
    6.4510   -4.4020   27.7900 C   0  0  0  0  0  0  0  0  0  0  0  0
    5.7640   -5.5740   28.1740 C   0  0  0  0  0  0  0  0  0  0  0  0
    6.1870   -5.8240   29.5020 C   0  0  0  0  0  0  0  0  0  0  0  0
    6.1280   -6.5930   30.6180 F   0  0  0  0  0  0  0  0  0  0  0  0
    5.2940   -6.6630   28.9200 C   0  0  0  0  0  0  0  0  0  0  0  0
    5.7380   -5.6260   28.2090 C   0  0  0  0  0  0  0  0  0  0  0  0
    5.6570   -4.9430   26.9120 C   0  0  0  0  0  0  0  0  0  0  0  0
    7.4200   -3.0090   23.5540 C   0  0  0  0  0  0  0  0  0  0  0  0
    7.7580   -3.2530   22.1180 C   0  0  0  0  0  0  0  0  0  0  0  0
  1  2  1  0
  2  3  2  0
  2  4  1  0
  4  5  1  0
  5  6  1  0
  6  7  1  0
  7  8  1  0
  8  9  2  0
  8 10  1  0
 10 11  1  0
 11 12  1  0
 12 13  2  0
 12 14  1  0
 14 15  1  0
 15 16  2  0
 16 17  1  0
 17 18  1  0
 17 19  2  0
 19 20  1  0
 10 21  1  0
 15 21  1  0
 20 21  2  0
  7 22  1  0
  4 23  1  0
 22 23  1  0
M  END
