piperidine-amides-29190-covalent
     RDKit          3D

 26 27  0  0  0  0  0  0  0  0999 V2000
    7.0490   -3.3000   19.3100 C   0  0  0  0  0  0  0  0  0  0  0  0
    6.3690   -4.1210   20.3160 C   0  0  0  0  0  0  0  0  0  0  0  0
    5.3590   -4.7540   19.9550 O   0  0  0  0  0  0  0  0  0  0  0  0
    6.8650   -4.2300   21.6480 N   0  0  0  0  0  0  0  0  0  0  0  0
    7.6770   -3.1580   22.1900 C   0  0  0  0  0  0  0  0  0  0  0  0
    7.4440   -2.9970   23.6710 C   0  0  0  0  0  0  0  0  0  0  0  0
    6.1040   -3.6310   23.9480 C   0  0  0  0  0  0  0  0  0  0  0  0
    5.5030   -3.2570   25.2760 C   0  0  0  0  0  0  0  0  0  0  0  0
    4.2960   -3.0370   25.2400 O   0  0  0  0  0  0  0  0  0  0  0  0
    6.2680   -3.1730   26.4430 N   0  0  0  0  0  0  0  0  0  0  0  0
    5.9870   -4.0910   27.5130 C   0  0  0  0  0  0  0  0  0  0  0  0
    5.6310   -5.4030   27.1330 C   0  0  0  0  0  0  0  0  0  0  0  0
    5.4830   -6.1380   28.4000 N   0  0  0  0  0  0  0  0  0  0  0  0
    4.7860   -7.3370   28.6650 C   0  0  0  0  0  0  0  0  0  0  0  0
    6.4220   -5.9220   29.4090 C   0  0  0  0  0  0  0  0  0  0  0  0
    6.5130   -1.6990   26.8560 C   0  0  0  0  0  0  0  0  0  0  0  0
    5.7050   -1.5680   28.1700 C   0  0  0  0  0  0  0  0  0  0  0  0
    4.2630   -1.9390   28.0880 C   0  0  0  0  0  0  0  0  0  0  0  0
    3.5330   -1.7890   29.4020 C   0  0  0  0  0  0  0  0  0  0  0  0
    4.3120   -1.2900   30.6380 C   0  0  0  0  0  0  0  0  0  0  0  0
    3.7020   -1.1330   31.8640 F   0  0  0  0  0  0  0  0  0  0  0  0
    5.6370   -1.0060   30.4800 C   0  0  0  0  0  0  0  0  0  0  0  0
    6.3530   -1.1240   29.3190 C   0  0  0  0  0  0  0  0  0  0  0  0
    7.6700   -0.8200   29.2710 F   0  0  0  0  0  0  0  0  0  0  0  0
    6.1570   -5.1090   23.7930 C   0  0  0  0  0  0  0  0  0  0  0  0
    6.6470   -5.4340   22.4110 C   0  0  0  0  0  0  0  0  0  0  0  0
  1  2  1  0
  2  3  2  0
  2  4  1  0
  4  5  1  0
  5  6  1  0
  6  7  1  0
  7  8  1  0
  8  9  2  0
  8 10  1  0
 10 11  1  0
 11 12  1  0
 12 13  1  0
 13 14  1  0
 13 15  1  0
 10 16  1  0
 16 17  1  0
 17 18  2  0
 18 19  1  0
 19 20  2  0
 20 21  1  0
 20 22  1  0
 17 23  1  0
 22 23  2  0
 23 24  1  0
  7 25  1  0
  4 26  1  0
 25 26  1  0
M  END
