piperidine-amides-3877-covalent
     RDKit          3D

 24 26  0  0  0  0  0  0  0  0999 V2000
    7.0880   -3.3270   19.3070 C   0  0  0  0  0  0  0  0  0  0  0  0
    6.4070   -4.1490   20.3170 C   0  0  0  0  0  0  0  0  0  0  0  0
    5.3520   -4.7250   19.9530 O   0  0  0  0  0  0  0  0  0  0  0  0
    6.9570   -4.3300   21.6140 N   0  0  0  0  0  0  0  0  0  0  0  0
    7.7840   -3.3130   22.1750 C   0  0  0  0  0  0  0  0  0  0  0  0
    7.4030   -2.9740   23.5280 C   0  0  0  0  0  0  0  0  0  0  0  0
    6.1690   -3.6530   23.9390 C   0  0  0  0  0  0  0  0  0  0  0  0
    5.7350   -3.2550   25.3110 C   0  0  0  0  0  0  0  0  0  0  0  0
    4.5840   -3.5440   25.6840 O   0  0  0  0  0  0  0  0  0  0  0  0
    6.5920   -2.5500   26.1790 N   0  0  0  0  0  0  0  0  0  0  0  0
    6.2850   -2.0630   27.4700 C   0  0  1  0  0  0  0  0  0  0  0  0
    7.3060   -1.4940   28.2960 C   0  0  0  0  0  0  0  0  0  0  0  0
    6.5570   -0.4790   29.1830 C   0  0  1  0  0  0  0  0  0  0  0  0
    6.3180    0.7760   28.6140 C   0  0  0  0  0  0  0  0  0  0  0  0
    6.0020    0.2940   27.1630 C   0  0  0  0  0  0  0  0  0  0  0  0
    5.2710   -0.9720   27.4510 C   0  0  2  0  0  0  0  0  0  0  0  0
    4.5660   -0.9600   28.5860 N   0  0  0  0  0  0  0  0  0  0  0  0
    3.2720   -0.5950   28.6570 C   0  0  0  0  0  0  0  0  0  0  0  0
    2.8490    0.4740   29.4500 O   0  0  0  0  0  0  0  0  0  0  0  0
    2.3550   -1.1770   28.0350 O   0  0  0  0  0  0  0  0  0  0  0  0
    2.1470   -0.9910   26.6190 C   0  0  0  0  0  0  0  0  0  0  0  0
    5.3340   -0.9740   29.6650 C   0  0  0  0  0  0  0  0  0  0  0  0
    6.3070   -5.1790   23.8120 C   0  0  0  0  0  0  0  0  0  0  0  0
    6.5270   -5.5250   22.3680 C   0  0  0  0  0  0  0  0  0  0  0  0
  1  2  1  0
  2  3  2  0
  2  4  1  0
  4  5  1  0
  5  6  1  0
  6  7  1  0
  7  8  1  0
  8  9  2  0
  8 10  1  0
 11 10  1  6
 11 12  1  0
 13 12  1  6
 13 14  1  0
 14 15  1  0
 11 16  1  0
 16 15  1  1
 16 17  1  0
 17 18  1  0
 18 19  2  0
 18 20  1  0
 20 21  1  0
 13 22  1  0
 17 22  1  0
  7 23  1  0
  4 24  1  0
 23 24  1  0
M  END
