piperidine-amides-35450-covalent
     RDKit          3D

 30 32  0  0  0  0  0  0  0  0999 V2000
    6.9990   -3.2060   19.1920 C   0  0  0  0  0  0  0  0  0  0  0  0
    6.2670   -4.0130   20.2050 C   0  0  0  0  0  0  0  0  0  0  0  0
    5.2190   -4.5350   19.8540 O   0  0  0  0  0  0  0  0  0  0  0  0
    6.7720   -4.2060   21.4850 N   0  0  0  0  0  0  0  0  0  0  0  0
    6.2430   -5.2610   22.3100 C   0  0  0  0  0  0  0  0  0  0  0  0
    5.3870   -4.6590   23.3790 C   0  0  0  0  0  0  0  0  0  0  0  0
    6.2530   -3.6850   24.1820 C   0  0  0  0  0  0  0  0  0  0  0  0
    5.4870   -3.2690   25.3840 C   0  0  0  0  0  0  0  0  0  0  0  0
    4.2500   -3.2050   25.3220 O   0  0  0  0  0  0  0  0  0  0  0  0
    6.1490   -2.9380   26.5990 N   0  0  0  0  0  0  0  0  0  0  0  0
    6.2010   -3.8960   27.7110 C   0  0  0  0  0  0  0  0  0  0  0  0
    6.1910   -5.3220   27.1770 C   0  0  0  0  0  0  0  0  0  0  0  0
    7.5300   -5.7060   26.7170 N   0  0  0  0  0  0  0  0  0  0  0  0
    7.8490   -4.8010   25.6430 C   0  0  0  0  0  0  0  0  0  0  0  0
    7.8920   -3.5890   26.2310 C   0  0  0  0  0  0  0  0  0  0  0  0
    8.6850   -3.3880   27.3000 N   0  0  0  0  0  0  0  0  0  0  0  0
    8.5500   -2.3930   28.3350 C   0  0  0  0  0  0  0  0  0  0  0  0
    9.1460   -4.6460   27.8990 C   0  0  0  0  0  0  0  0  0  0  0  0
    8.4840   -5.9460   27.6070 C   0  0  0  0  0  0  0  0  0  0  0  0
    6.3160   -1.5300   26.9320 C   0  0  0  0  0  0  0  0  0  0  0  0
    5.4910   -0.9410   28.0420 C   0  0  0  0  0  0  0  0  0  0  0  0
    5.5720   -1.5660   29.3890 C   0  0  0  0  0  0  0  0  0  0  0  0
    4.7830   -1.0310   30.5400 C   0  0  0  0  0  0  0  0  0  0  0  0
    3.9070    0.1340   30.3400 C   0  0  0  0  0  0  0  0  0  0  0  0
    2.8550    0.8940   31.7470 Br  0  0  0  0  0  0  0  0  0  0  0  0
    3.8860    0.7070   28.9330 C   0  0  0  0  0  0  0  0  0  0  0  0
    4.6520    0.1610   27.8910 C   0  0  0  0  0  0  0  0  0  0  0  0
    4.5620    0.7460   26.6790 F   0  0  0  0  0  0  0  0  0  0  0  0
    6.7030   -2.5850   23.2730 C   0  0  0  0  0  0  0  0  0  0  0  0
    7.5650   -3.1470   22.1420 C   0  0  0  0  0  0  0  0  0  0  0  0
  1  2  1  0
  2  3  2  0
  2  4  1  0
  4  5  1  0
  5  6  1  0
  6  7  1  0
  7  8  1  0
  8  9  2  0
  8 10  1  0
 10 11  1  0
 11 12  1  0
 12 13  1  0
 13 14  1  0
 14 15  1  0
 15 16  1  0
 16 17  1  0
 16 18  1  0
 13 19  1  0
 18 19  1  0
 10 20  1  0
 20 21  1  0
 21 22  2  0
 22 23  1  0
 23 24  2  0
 24 25  1  0
 24 26  1  0
 21 27  1  0
 26 27  2  0
 27 28  1  0
  7 29  1  0
  4 30  1  0
 29 30  1  0
M  END
