piperidine-amides-14266-covalent
     RDKit          3D

 24 25  0  0  0  0  0  0  0  0999 V2000
    7.1870   -3.2500   19.1540 C   0  0  0  0  0  0  0  0  0  0  0  0
    6.3990   -3.9990   20.1670 C   0  0  0  0  0  0  0  0  0  0  0  0
    5.2970   -4.4800   19.8570 O   0  0  0  0  0  0  0  0  0  0  0  0
    6.9460   -4.2000   21.4470 N   0  0  0  0  0  0  0  0  0  0  0  0
    6.3010   -5.1120   22.3350 C   0  0  0  0  0  0  0  0  0  0  0  0
    5.4020   -4.2110   23.1870 C   0  0  0  0  0  0  0  0  0  0  0  0
    6.3070   -3.3230   23.9920 C   0  0  0  0  0  0  0  0  0  0  0  0
    5.6190   -2.7140   25.1520 C   0  0  0  0  0  0  0  0  0  0  0  0
    4.4850   -2.2640   24.9620 O   0  0  0  0  0  0  0  0  0  0  0  0
    6.2560   -2.7000   26.3890 N   0  0  0  0  0  0  0  0  0  0  0  0
    6.5730   -3.8770   27.0780 C   0  0  0  0  0  0  0  0  0  0  0  0
    6.8270   -5.0300   26.4020 C   0  0  0  0  0  0  0  0  0  0  0  0
    5.7510   -5.5520   25.6490 C   0  0  0  0  0  0  0  0  0  0  0  0
    4.8290   -6.3830   26.2630 C   0  0  0  0  0  0  0  0  0  0  0  0
    4.3650   -6.3870   27.5070 O   0  0  0  0  0  0  0  0  0  0  0  0
    4.2730   -7.3750   25.4890 O   0  0  0  0  0  0  0  0  0  0  0  0
    3.9780   -7.2100   24.0990 C   0  0  0  0  0  0  0  0  0  0  0  0
    8.0210   -5.0470   25.6820 C   0  0  0  0  0  0  0  0  0  0  0  0
    9.2660   -5.1730   26.5730 C   0  0  0  0  0  0  0  0  0  0  0  0
    8.9990   -5.2240   27.9330 C   0  0  0  0  0  0  0  0  0  0  0  0
    7.6090   -5.0410   28.4210 C   0  0  0  0  0  0  0  0  0  0  0  0
    7.1140   -6.0420   27.4210 C   0  0  0  0  0  0  0  0  0  0  0  0
    6.9230   -2.3720   23.0620 C   0  0  0  0  0  0  0  0  0  0  0  0
    7.7500   -3.1670   22.0420 C   0  0  0  0  0  0  0  0  0  0  0  0
  1  2  1  0
  2  3  2  0
  2  4  1  0
  4  5  1  0
  5  6  1  0
  6  7  1  0
  7  8  1  0
  8  9  2  0
  8 10  1  0
 10 11  1  0
 12 11  1  0
 12 13  1  0
 13 14  1  0
 14 15  2  0
 14 16  1  0
 16 17  1  0
 12 18  1  0
 18 19  1  0
 19 20  1  0
 20 21  1  0
 12 22  1  0
 21 22  1  0
  7 23  1  0
  4 24  1  0
 23 24  1  0
M  END
