piperidine-amides-33781-covalent
     RDKit          3D

 31 35  0  0  0  0  0  0  0  0999 V2000
    7.0840   -3.3290   19.2270 C   0  0  0  0  0  0  0  0  0  0  0  0
    6.3900   -4.1130   20.2610 C   0  0  0  0  0  0  0  0  0  0  0  0
    5.3220   -4.6790   19.9300 O   0  0  0  0  0  0  0  0  0  0  0  0
    6.9450   -4.2670   21.5520 N   0  0  0  0  0  0  0  0  0  0  0  0
    7.5590   -3.1210   22.1290 C   0  0  0  0  0  0  0  0  0  0  0  0
    6.8800   -2.6180   23.3070 C   0  0  0  0  0  0  0  0  0  0  0  0
    6.6370   -3.6390   24.3240 C   0  0  0  0  0  0  0  0  0  0  0  0
    5.7650   -3.1120   25.4220 C   0  0  0  0  0  0  0  0  0  0  0  0
    4.5630   -2.8970   25.1760 O   0  0  0  0  0  0  0  0  0  0  0  0
    6.2520   -2.8410   26.7220 N   0  0  0  0  0  0  0  0  0  0  0  0
    6.1680   -3.7310   27.8320 C   0  0  0  0  0  0  0  0  0  0  0  0
    5.1020   -4.6970   27.9880 C   0  0  0  0  0  0  0  0  0  0  0  0
    5.2830   -6.1910   27.7710 C   0  0  0  0  0  0  0  0  0  0  0  0
    4.2450   -7.1360   27.9350 C   0  0  0  0  0  0  0  0  0  0  0  0
    2.7630   -6.7560   28.3620 C   0  0  0  0  0  0  0  0  0  0  0  0
    2.5600   -5.2750   28.5840 C   0  0  0  0  0  0  0  0  0  0  0  0
    1.4130   -4.6930   28.9500 N   0  0  0  0  0  0  0  0  0  0  0  0
    1.6410   -3.3900   29.0410 C   0  0  0  0  0  0  0  0  0  0  0  0
    3.0700   -3.0710   28.7050 C   0  0  0  0  0  0  0  0  0  0  0  0
    3.7210   -4.4170   28.3790 C   0  0  0  0  0  0  0  0  0  0  0  0
    6.1830   -1.4370   27.0690 C   0  0  0  0  0  0  0  0  0  0  0  0
    5.5870   -0.2860   26.3360 C   0  0  0  0  0  0  0  0  0  0  0  0
    5.5550    1.0560   26.7840 C   0  0  0  0  0  0  0  0  0  0  0  0
    6.1240    1.3620   28.0190 C   0  0  0  0  0  0  0  0  0  0  0  0
    6.7470    0.2750   28.8140 C   0  0  0  0  0  0  0  0  0  0  0  0
    7.3580    0.2930   30.0170 N   0  0  0  0  0  0  0  0  0  0  0  0
    7.7700   -0.9480   30.3280 N   0  0  0  0  0  0  0  0  0  0  0  0
    7.4310   -1.8180   29.3220 C   0  0  0  0  0  0  0  0  0  0  0  0
    6.7380   -1.0910   28.2660 C   0  0  0  0  0  0  0  0  0  0  0  0
    6.1090   -4.9100   23.7680 C   0  0  0  0  0  0  0  0  0  0  0  0
    6.6060   -5.3390   22.4400 C   0  0  0  0  0  0  0  0  0  0  0  0
  1  2  1  0
  2  3  2  0
  2  4  1  0
  4  5  1  0
  5  6  1  0
  6  7  1  0
  7  8  1  0
  8  9  2  0
  8 10  1  0
 10 11  1  0
 11 12  1  0
 12 13  2  0
 13 14  1  0
 14 15  2  0
 15 16  1  0
 16 17  1  0
 17 18  1  0
 18 19  2  0
 12 20  1  0
 16 20  2  0
 19 20  1  0
 10 21  1  0
 21 22  2  0
 22 23  1  0
 23 24  2  0
 24 25  1  0
 25 26  1  0
 26 27  1  0
 27 28  2  0
 21 29  1  0
 25 29  2  0
 28 29  1  0
  7 30  1  0
  4 31  1  0
 30 31  1  0
M  END
