piperidine-amides-19901-covalent
     RDKit          3D

 22 24  0  0  0  0  0  0  0  0999 V2000
    7.0520   -3.3650   19.3150 C   0  0  0  0  0  0  0  0  0  0  0  0
    6.3400   -4.1980   20.3160 C   0  0  0  0  0  0  0  0  0  0  0  0
    5.3150   -4.7610   19.9500 O   0  0  0  0  0  0  0  0  0  0  0  0
    6.8660   -4.3550   21.5980 N   0  0  0  0  0  0  0  0  0  0  0  0
    6.6450   -5.5580   22.3660 C   0  0  0  0  0  0  0  0  0  0  0  0
    5.8360   -5.2410   23.6030 C   0  0  0  0  0  0  0  0  0  0  0  0
    6.0160   -3.7620   23.9290 C   0  0  0  0  0  0  0  0  0  0  0  0
    5.6030   -3.4760   25.3240 C   0  0  0  0  0  0  0  0  0  0  0  0
    4.5430   -2.8610   25.4850 O   0  0  0  0  0  0  0  0  0  0  0  0
    6.3360   -3.8550   26.4710 N   0  0  0  0  0  0  0  0  0  0  0  0
    7.0870   -5.1000   26.4110 C   0  0  0  0  0  0  0  0  0  0  0  0
    7.3640   -5.5940   27.8200 C   0  0  0  0  0  0  0  0  0  0  0  0
    6.7470   -5.0370   28.8790 C   0  0  0  0  0  0  0  0  0  0  0  0
    5.4560   -4.7990   28.6290 C   0  0  2  0  0  0  0  0  0  0  0  0
    4.6290   -4.2550   29.6280 C   0  0  0  0  0  0  0  0  0  0  0  0
    4.3970   -5.3080   30.3780 N   0  0  0  0  0  0  0  0  0  0  0  0
    4.4670   -6.4090   29.4790 C   0  0  0  0  0  0  0  0  0  0  0  0
    4.4860   -7.7610   29.7650 O   0  0  0  0  0  0  0  0  0  0  0  0
    4.5310   -5.8720   28.0990 C   0  0  0  0  0  0  0  0  0  0  0  0
    5.6960   -3.5640   27.7390 C   0  0  0  0  0  0  0  0  0  0  0  0
    7.3290   -3.2430   23.5880 C   0  0  0  0  0  0  0  0  0  0  0  0
    7.6500   -3.2820   22.1480 C   0  0  0  0  0  0  0  0  0  0  0  0
  1  2  1  0
  2  3  2  0
  2  4  1  0
  4  5  1  0
  5  6  1  0
  6  7  1  0
  7  8  1  0
  8  9  2  0
  8 10  1  0
 10 11  1  0
 11 12  1  0
 12 13  1  0
 14 13  1  1
 14 15  1  0
 15 16  1  0
 16 17  1  0
 17 18  2  0
 14 19  1  0
 17 19  1  0
 10 20  1  0
 14 20  1  0
  7 21  1  0
  4 22  1  0
 21 22  1  0
M  END
