piperidine-amides-35571-covalent
     RDKit          3D

 34 36  0  0  0  0  0  0  0  0999 V2000
    7.0170   -3.2920   19.3300 C   0  0  0  0  0  0  0  0  0  0  0  0
    6.3250   -4.1270   20.3570 C   0  0  0  0  0  0  0  0  0  0  0  0
    5.3670   -4.7900   19.9620 O   0  0  0  0  0  0  0  0  0  0  0  0
    6.7670   -4.1790   21.6930 N   0  0  0  0  0  0  0  0  0  0  0  0
    7.6310   -3.1710   22.2760 C   0  0  0  0  0  0  0  0  0  0  0  0
    7.2250   -2.9060   23.7070 C   0  0  0  0  0  0  0  0  0  0  0  0
    5.9280   -3.6670   23.9810 C   0  0  0  0  0  0  0  0  0  0  0  0
    5.2760   -3.2330   25.2550 C   0  0  0  0  0  0  0  0  0  0  0  0
    4.0380   -3.2230   25.2770 O   0  0  0  0  0  0  0  0  0  0  0  0
    5.9560   -2.8370   26.4370 N   0  0  0  0  0  0  0  0  0  0  0  0
    6.1480   -3.7890   27.5160 C   0  0  0  0  0  0  0  0  0  0  0  0
    5.0760   -3.7400   28.5790 C   0  0  0  0  0  0  0  0  0  0  0  0
    4.3010   -2.6320   28.7180 C   0  0  0  0  0  0  0  0  0  0  0  0
    3.3740   -2.5520   29.6280 C   0  0  0  0  0  0  0  0  0  0  0  0
    3.2050   -3.5950   30.4270 C   0  0  0  0  0  0  0  0  0  0  0  0
    3.9310   -4.9200   30.4650 C   0  0  0  0  0  0  0  0  0  0  0  0
    3.7540   -6.3670   31.5130 S   0  0  0  0  0  0  0  0  0  0  0  0
    5.1050   -7.4460   31.4050 N   0  0  0  0  0  0  0  0  0  0  0  0
    3.6900   -5.9140   32.9350 O   0  0  0  0  0  0  0  0  0  0  0  0
    2.4890   -7.1080   31.1860 O   0  0  0  0  0  0  0  0  0  0  0  0
    5.0250   -5.0140   29.3900 C   0  0  0  0  0  0  0  0  0  0  0  0
    6.6070   -1.5530   26.5130 C   0  0  0  0  0  0  0  0  0  0  0  0
    6.4400   -0.8020   27.8000 C   0  0  0  0  0  0  0  0  0  0  0  0
    7.1200   -1.3110   29.0350 C   0  0  0  0  0  0  0  0  0  0  0  0
    7.0060   -0.6000   30.3560 C   0  0  0  0  0  0  0  0  0  0  0  0
    6.1840    0.6190   30.3640 C   0  0  0  0  0  0  0  0  0  0  0  0
    5.5240    1.0770   29.0930 C   0  0  0  0  0  0  0  0  0  0  0  0
    4.6340    2.5070   29.3640 S   0  0  0  0  0  0  0  0  0  0  0  0
    3.1100    2.2320   30.1340 N   0  0  0  0  0  0  0  0  0  0  0  0
    5.4430    3.3780   30.2490 O   0  0  0  0  0  0  0  0  0  0  0  0
    4.3730    3.1650   28.0400 O   0  0  0  0  0  0  0  0  0  0  0  0
    5.6860    0.3610   27.9150 C   0  0  0  0  0  0  0  0  0  0  0  0
    6.1870   -5.1340   23.8590 C   0  0  0  0  0  0  0  0  0  0  0  0
    6.6540   -5.4530   22.4240 C   0  0  0  0  0  0  0  0  0  0  0  0
  1  2  1  0
  2  3  2  0
  2  4  1  0
  4  5  1  0
  5  6  1  0
  6  7  1  0
  7  8  1  0
  8  9  2  0
  8 10  1  0
 10 11  1  0
 11 12  1  0
 12 13  2  0
 13 14  1  0
 14 15  2  0
 15 16  1  0
 16 17  1  0
 17 18  1  0
 17 19  2  0
 17 20  2  0
 12 21  1  0
 16 21  2  0
 10 22  1  0
 22 23  1  0
 23 24  2  0
 24 25  1  0
 25 26  2  0
 26 27  1  0
 27 28  1  0
 28 29  1  0
 28 30  2  0
 28 31  2  0
 23 32  1  0
 27 32  2  0
  7 33  1  0
  4 34  1  0
 33 34  1  0
M  END
