piperidine-amides-32473-covalent
     RDKit          3D

 24 26  0  0  0  0  0  0  0  0999 V2000
    7.1050   -3.3020   19.2770 C   0  0  0  0  0  0  0  0  0  0  0  0
    6.3710   -4.1350   20.2680 C   0  0  0  0  0  0  0  0  0  0  0  0
    5.3140   -4.6880   19.9310 O   0  0  0  0  0  0  0  0  0  0  0  0
    6.9250   -4.3230   21.5500 N   0  0  0  0  0  0  0  0  0  0  0  0
    6.7250   -5.5840   22.2390 C   0  0  0  0  0  0  0  0  0  0  0  0
    6.5360   -5.3260   23.7440 C   0  0  0  0  0  0  0  0  0  0  0  0
    6.3400   -3.8690   23.9390 C   0  0  0  0  0  0  0  0  0  0  0  0
    5.6930   -3.5380   25.2050 C   0  0  0  0  0  0  0  0  0  0  0  0
    4.6670   -2.8560   25.1190 O   0  0  0  0  0  0  0  0  0  0  0  0
    6.1870   -3.9740   26.4180 N   0  0  0  0  0  0  0  0  0  0  0  0
    5.5520   -5.0270   27.0640 C   0  0  0  0  0  0  0  0  0  0  0  0
    5.1980   -4.7560   28.3120 C   0  0  0  0  0  0  0  0  0  0  0  0
    3.8550   -4.8090   28.6980 C   0  0  0  0  0  0  0  0  0  0  0  0
    6.0640   -5.5750   29.2300 C   0  0  0  0  0  0  0  0  0  0  0  0
    5.6420   -3.3650   28.3810 C   0  0  0  0  0  0  0  0  0  0  0  0
    5.3790   -2.3770   29.6830 C   0  0  0  0  0  0  0  0  0  0  0  0
    5.9120   -0.9030   29.7400 C   0  0  0  0  0  0  0  0  0  0  0  0
    5.7410    0.4160   31.1130 Br  0  0  0  0  0  0  0  0  0  0  0  0
    6.4770   -0.8360   28.6110 C   0  0  0  0  0  0  0  0  0  0  0  0
    7.1320    0.1410   27.9520 F   0  0  0  0  0  0  0  0  0  0  0  0
    6.1020   -2.1740   28.3570 C   0  0  0  0  0  0  0  0  0  0  0  0
    6.3930   -2.7510   27.1500 C   0  0  0  0  0  0  0  0  0  0  0  0
    7.6120   -3.2320   23.6450 C   0  0  0  0  0  0  0  0  0  0  0  0
    7.7560   -3.2860   22.1320 C   0  0  0  0  0  0  0  0  0  0  0  0
  1  2  1  0
  2  3  2  0
  2  4  1  0
  4  5  1  0
  5  6  1  0
  6  7  1  0
  7  8  1  0
  8  9  2  0
  8 10  1  0
 10 11  1  0
 11 12  1  0
 12 13  1  0
 12 14  1  0
 12 15  1  0
 15 16  1  0
 16 17  2  0
 17 18  1  0
 17 19  1  0
 19 20  1  0
 19 21  2  0
 10 22  1  0
 15 22  2  0
 21 22  1  0
  7 23  1  0
  4 24  1  0
 23 24  1  0
M  END
