piperidine-amides-19358-covalent
     RDKit          3D

 21 22  0  0  0  0  0  0  0  0999 V2000
    7.0390   -3.4140   19.3930 C   0  0  0  0  0  0  0  0  0  0  0  0
    6.3480   -4.1920   20.4030 C   0  0  0  0  0  0  0  0  0  0  0  0
    5.3910   -4.9220   19.9990 O   0  0  0  0  0  0  0  0  0  0  0  0
    6.7000   -4.2140   21.7760 N   0  0  0  0  0  0  0  0  0  0  0  0
    6.6810   -5.5540   22.4420 C   0  0  0  0  0  0  0  0  0  0  0  0
    6.0030   -5.2760   23.8470 C   0  0  0  0  0  0  0  0  0  0  0  0
    5.9300   -3.7820   23.9730 C   0  0  0  0  0  0  0  0  0  0  0  0
    4.9620   -3.2610   25.1430 C   0  0  0  0  0  0  0  0  0  0  0  0
    3.8870   -2.9590   24.6660 O   0  0  0  0  0  0  0  0  0  0  0  0
    5.5250   -3.2870   26.2730 N   0  0  0  0  0  0  0  0  0  0  0  0
    6.4410   -3.2540   27.2080 C   0  0  0  0  0  0  0  0  0  0  0  0
    6.5660   -3.9760   28.3290 C   0  0  0  0  0  0  0  0  0  0  0  0
    5.2260   -4.1450   28.5460 C   0  0  0  0  0  0  0  0  0  0  0  0
    4.5200   -3.4730   27.4050 C   0  0  1  0  0  0  0  0  0  0  0  0
    4.3930   -2.1460   28.1920 C   0  0  0  0  0  0  0  0  0  0  0  0
    3.1150   -1.7740   28.6870 O   0  0  0  0  0  0  0  0  0  0  0  0
    2.8130   -0.4190   28.9770 C   0  0  0  0  0  0  0  0  0  0  0  0
    2.9410   -0.2030   30.3400 F   0  0  0  0  0  0  0  0  0  0  0  0
    1.4810   -0.0800   28.6990 F   0  0  0  0  0  0  0  0  0  0  0  0
    7.2740   -3.1180   23.8280 C   0  0  0  0  0  0  0  0  0  0  0  0
    7.5090   -3.1060   22.3160 C   0  0  0  0  0  0  0  0  0  0  0  0
  1  2  1  0
  2  3  2  0
  2  4  1  0
  4  5  1  0
  5  6  1  0
  6  7  1  0
  7  8  1  0
  8  9  2  0
  8 10  1  0
 10 11  1  0
 11 12  1  0
 12 13  1  0
 10 14  1  0
 13 14  1  0
 14 15  1  1
 15 16  1  0
 16 17  1  0
 17 18  1  0
 17 19  1  0
  7 20  1  0
  4 21  1  0
 20 21  1  0
M  END
