piperidine-amides-14046-covalent
     RDKit          3D

 25 26  0  0  0  0  0  0  0  0999 V2000
    7.1180   -3.2570   19.1960 C   0  0  0  0  0  0  0  0  0  0  0  0
    6.3350   -4.0310   20.2020 C   0  0  0  0  0  0  0  0  0  0  0  0
    5.2560   -4.5370   19.8700 O   0  0  0  0  0  0  0  0  0  0  0  0
    6.8650   -4.2210   21.4900 N   0  0  0  0  0  0  0  0  0  0  0  0
    6.5470   -5.3710   22.2920 C   0  0  0  0  0  0  0  0  0  0  0  0
    5.6680   -4.8680   23.4370 C   0  0  0  0  0  0  0  0  0  0  0  0
    6.4670   -3.8540   24.1830 C   0  0  0  0  0  0  0  0  0  0  0  0
    5.7460   -3.2900   25.3460 C   0  0  0  0  0  0  0  0  0  0  0  0
    4.5630   -2.9830   25.1650 O   0  0  0  0  0  0  0  0  0  0  0  0
    6.3950   -3.1350   26.5740 N   0  0  0  0  0  0  0  0  0  0  0  0
    6.1930   -3.9090   27.7470 C   0  0  0  0  0  0  0  0  0  0  0  0
    5.9460   -5.2690   27.7530 C   0  0  0  0  0  0  0  0  0  0  0  0
    6.2810   -6.0410   28.8690 C   0  0  0  0  0  0  0  0  0  0  0  0
    5.2720   -6.7000   29.5260 C   0  0  0  0  0  0  0  0  0  0  0  0
    4.0880   -7.2720   28.8640 C   0  0  0  0  0  0  0  0  0  0  0  0
    3.0300   -7.9690   29.6660 C   0  0  0  0  0  0  0  0  0  0  0  0
    3.2190   -8.0550   31.0660 N   0  0  0  0  0  0  0  0  0  0  0  0
    4.3750   -7.5040   31.7030 C   0  0  0  0  0  0  0  0  0  0  0  0
    4.4160   -7.6740   33.0690 C   0  0  0  0  0  0  0  0  0  0  0  0
    3.4160   -8.5630   33.7200 C   0  0  0  0  0  0  0  0  0  0  0  0
    4.7550   -6.5180   33.7780 C   0  0  0  0  0  0  0  0  0  0  0  0
    5.4600   -8.7410   33.4300 C   0  0  0  0  0  0  0  0  0  0  0  0
    5.3260   -6.8710   30.9510 N   0  0  0  0  0  0  0  0  0  0  0  0
    6.9450   -2.6980   23.3660 C   0  0  0  0  0  0  0  0  0  0  0  0
    7.6510   -3.1730   22.1230 C   0  0  0  0  0  0  0  0  0  0  0  0
  1  2  1  0
  2  3  2  0
  2  4  1  0
  4  5  1  0
  5  6  1  0
  6  7  1  0
  7  8  1  0
  8  9  2  0
  8 10  1  0
 10 11  1  0
 11 12  1  0
 12 13  1  0
 13 14  1  0
 14 15  2  0
 15 16  1  0
 16 17  2  0
 17 18  1  0
 18 19  1  0
 19 20  1  0
 19 21  1  0
 19 22  1  0
 14 23  1  0
 18 23  2  0
  7 24  1  0
  4 25  1  0
 24 25  1  0
M  END
