piperidine-amides-24339-covalent
     RDKit          3D

 24 26  0  0  0  0  0  0  0  0999 V2000
    7.0430   -3.3510   19.3710 C   0  0  0  0  0  0  0  0  0  0  0  0
    6.3860   -4.2410   20.3390 C   0  0  0  0  0  0  0  0  0  0  0  0
    5.3710   -4.8810   19.9880 O   0  0  0  0  0  0  0  0  0  0  0  0
    6.9040   -4.4380   21.6330 N   0  0  0  0  0  0  0  0  0  0  0  0
    6.4260   -5.5710   22.3660 C   0  0  0  0  0  0  0  0  0  0  0  0
    5.4700   -4.9710   23.3980 C   0  0  0  0  0  0  0  0  0  0  0  0
    6.3110   -4.1110   24.3210 C   0  0  0  0  0  0  0  0  0  0  0  0
    5.4180   -3.4640   25.3310 C   0  0  0  0  0  0  0  0  0  0  0  0
    4.6130   -2.6150   24.9100 O   0  0  0  0  0  0  0  0  0  0  0  0
    5.4530   -3.7870   26.7230 N   0  0  0  0  0  0  0  0  0  0  0  0
    4.2490   -3.8050   27.4910 C   0  0  0  0  0  0  0  0  0  0  0  0
    4.5930   -4.2310   28.9210 C   0  0  0  0  0  0  0  0  0  0  0  0
    5.6080   -5.1200   29.0970 C   0  0  0  0  0  0  0  0  0  0  0  0
    5.2440   -6.4160   28.8170 C   0  0  0  0  0  0  0  0  0  0  0  0
    5.3770   -6.9480   27.5450 O   0  0  0  0  0  0  0  0  0  0  0  0
    4.6970   -7.1620   29.8990 N   0  0  0  0  0  0  0  0  0  0  0  0
    3.4100   -7.5770   29.9810 C   0  0  0  0  0  0  0  0  0  0  0  0
    3.3350   -7.5130   31.3470 C   0  0  0  0  0  0  0  0  0  0  0  0
    3.9200   -6.2640   32.0020 C   0  0  0  0  0  0  0  0  0  0  0  0
    5.0120   -7.0550   31.2830 C   0  0  0  0  0  0  0  0  0  0  0  0
    6.6500   -4.7120   28.4000 C   0  0  0  0  0  0  0  0  0  0  0  0
    6.3860   -3.4390   27.7130 C   0  0  0  0  0  0  0  0  0  0  0  0
    7.0190   -3.0190   23.5440 C   0  0  0  0  0  0  0  0  0  0  0  0
    7.5450   -3.3620   22.3190 C   0  0  0  0  0  0  0  0  0  0  0  0
  1  2  1  0
  2  3  2  0
  2  4  1  0
  4  5  1  0
  5  6  1  0
  6  7  1  0
  7  8  1  0
  8  9  2  0
  8 10  1  0
 10 11  1  0
 11 12  1  0
 12 13  1  0
 13 14  1  0
 14 15  2  0
 14 16  1  0
 16 17  1  0
 17 18  1  0
 18 19  1  0
 16 20  1  0
 19 20  1  0
 13 21  1  0
 10 22  1  0
 21 22  1  0
  7 23  1  0
  4 24  1  0
 23 24  1  0
M  END
