piperidine-amides-32593-covalent
     RDKit          3D

 26 28  0  0  0  0  0  0  0  0999 V2000
    7.0080   -3.3540   19.4130 C   0  0  0  0  0  0  0  0  0  0  0  0
    6.3500   -4.2560   20.3990 C   0  0  0  0  0  0  0  0  0  0  0  0
    5.3980   -4.9530   20.0040 O   0  0  0  0  0  0  0  0  0  0  0  0
    6.8240   -4.3430   21.7350 N   0  0  0  0  0  0  0  0  0  0  0  0
    6.7100   -5.5680   22.5080 C   0  0  0  0  0  0  0  0  0  0  0  0
    6.1670   -5.2700   23.9280 C   0  0  0  0  0  0  0  0  0  0  0  0
    6.1020   -3.7940   24.1130 C   0  0  0  0  0  0  0  0  0  0  0  0
    5.6090   -3.2750   25.4370 C   0  0  0  0  0  0  0  0  0  0  0  0
    5.1760   -2.1250   25.3970 O   0  0  0  0  0  0  0  0  0  0  0  0
    5.5840   -4.0110   26.6430 N   0  0  0  0  0  0  0  0  0  0  0  0
    4.4390   -4.5170   27.2520 C   0  0  0  0  0  0  0  0  0  0  0  0
    4.2890   -4.4460   28.6230 C   0  0  0  0  0  0  0  0  0  0  0  0
    5.4970   -4.9830   29.2200 N   0  0  0  0  0  0  0  0  0  0  0  0
    5.6950   -6.3370   29.5350 C   0  0  0  0  0  0  0  0  0  0  0  0
    4.4990   -6.9610   29.8250 C   0  0  0  0  0  0  0  0  0  0  0  0
    3.4890   -7.2370   28.7740 C   0  0  0  0  0  0  0  0  0  0  0  0
    2.1490   -7.9220   29.0320 C   0  0  0  0  0  0  0  0  0  0  0  0
    1.9200   -8.3140   30.4930 C   0  0  0  0  0  0  0  0  0  0  0  0
    2.8900   -8.0400   31.4400 C   0  0  0  0  0  0  0  0  0  0  0  0
    2.5550   -8.5210   33.0900 Cl  0  0  0  0  0  0  0  0  0  0  0  0
    4.1830   -7.3640   31.1100 C   0  0  0  0  0  0  0  0  0  0  0  0
    5.1970   -7.1680   32.5350 Cl  0  0  0  0  0  0  0  0  0  0  0  0
    6.6150   -4.6570   28.4250 C   0  0  0  0  0  0  0  0  0  0  0  0
    6.3900   -3.4890   27.7030 C   0  0  0  0  0  0  0  0  0  0  0  0
    7.3730   -3.0970   23.7600 C   0  0  0  0  0  0  0  0  0  0  0  0
    7.6790   -3.2900   22.2940 C   0  0  0  0  0  0  0  0  0  0  0  0
  1  2  1  0
  2  3  2  0
  2  4  1  0
  4  5  1  0
  5  6  1  0
  6  7  1  0
  7  8  1  0
  8  9  2  0
  8 10  1  0
 10 11  1  0
 11 12  1  0
 12 13  1  0
 13 14  1  0
 14 15  1  0
 15 16  2  0
 16 17  1  0
 17 18  2  0
 18 19  1  0
 19 20  1  0
 15 21  1  0
 19 21  2  0
 21 22  1  0
 13 23  1  0
 10 24  1  0
 23 24  1  0
  7 25  1  0
  4 26  1  0
 25 26  1  0
M  END
