piperidine-amides-13389-covalent
     RDKit          3D

 20 21  0  0  0  0  0  0  0  0999 V2000
    7.0890   -3.3250   19.3140 C   0  0  0  0  0  0  0  0  0  0  0  0
    6.3860   -4.1710   20.3140 C   0  0  0  0  0  0  0  0  0  0  0  0
    5.3610   -4.7870   19.9680 O   0  0  0  0  0  0  0  0  0  0  0  0
    6.9340   -4.2940   21.6070 N   0  0  0  0  0  0  0  0  0  0  0  0
    7.7190   -3.2630   22.2430 C   0  0  0  0  0  0  0  0  0  0  0  0
    6.8880   -2.7350   23.4090 C   0  0  0  0  0  0  0  0  0  0  0  0
    6.5660   -3.9010   24.2800 C   0  0  0  0  0  0  0  0  0  0  0  0
    5.7390   -3.5230   25.4480 C   0  0  0  0  0  0  0  0  0  0  0  0
    4.5300   -3.8130   25.3840 O   0  0  0  0  0  0  0  0  0  0  0  0
    6.2740   -2.8560   26.5570 N   0  0  0  0  0  0  0  0  0  0  0  0
    5.4580   -2.1080   27.4370 C   0  0  0  0  0  0  0  0  0  0  0  0
    4.1000   -2.3160   27.5220 C   0  0  0  0  0  0  0  0  0  0  0  0
    5.6230   -0.8110   27.1440 C   0  0  0  0  0  0  0  0  0  0  0  0
    6.3730   -0.4760   26.0510 C   0  0  0  0  0  0  0  0  0  0  0  0
    4.3840    0.0160   27.1570 C   0  0  0  0  0  0  0  0  0  0  0  0
    6.1080   -1.1960   28.4520 C   0  0  0  0  0  0  0  0  0  0  0  0
    7.5740   -1.1760   28.7760 C   0  0  0  0  0  0  0  0  0  0  0  0
    5.2400   -1.0690   29.5540 C   0  0  0  0  0  0  0  0  0  0  0  0
    5.8530   -5.0310   23.6030 C   0  0  0  0  0  0  0  0  0  0  0  0
    6.6230   -5.4690   22.3770 C   0  0  0  0  0  0  0  0  0  0  0  0
  1  2  1  0
  2  3  2  0
  2  4  1  0
  4  5  1  0
  5  6  1  0
  6  7  1  0
  7  8  1  0
  8  9  2  0
  8 10  1  0
 11 10  1  0
 11 12  1  0
 11 13  1  0
 13 14  1  0
 13 15  1  0
 11 16  1  0
 13 16  1  0
 16 17  1  0
 16 18  1  0
  7 19  1  0
  4 20  1  0
 19 20  1  0
M  END
