piperidine-amides-33470-covalent
     RDKit          3D

 28 29  0  0  0  0  0  0  0  0999 V2000
    7.0980   -3.3140   19.2490 C   0  0  0  0  0  0  0  0  0  0  0  0
    6.3530   -4.0460   20.2850 C   0  0  0  0  0  0  0  0  0  0  0  0
    5.2980   -4.6090   19.9110 O   0  0  0  0  0  0  0  0  0  0  0  0
    6.8340   -4.1540   21.6210 N   0  0  0  0  0  0  0  0  0  0  0  0
    6.5850   -5.3610   22.3270 C   0  0  0  0  0  0  0  0  0  0  0  0
    6.0570   -5.0890   23.6450 C   0  0  0  0  0  0  0  0  0  0  0  0
    6.1010   -3.6520   23.9430 C   0  0  0  0  0  0  0  0  0  0  0  0
    5.5470   -3.3470   25.3160 C   0  0  0  0  0  0  0  0  0  0  0  0
    4.3190   -3.4590   25.4810 O   0  0  0  0  0  0  0  0  0  0  0  0
    6.3230   -2.9310   26.4200 N   0  0  0  0  0  0  0  0  0  0  0  0
    6.8680   -1.6260   26.5330 C   0  0  0  0  0  0  0  0  0  0  0  0
    6.0500   -0.4360   26.3510 C   0  0  0  0  0  0  0  0  0  0  0  0
    5.4190   -0.2480   24.9310 C   0  0  0  0  0  0  0  0  0  0  0  0
    4.6080    0.8290   24.5500 C   0  0  0  0  0  0  0  0  0  0  0  0
    4.4030    1.8180   25.6900 C   0  0  0  0  0  0  0  0  0  0  0  0
    3.5330    2.9320   25.2050 C   0  0  0  0  0  0  0  0  0  0  0  0
    2.2030    2.5280   25.3870 F   0  0  0  0  0  0  0  0  0  0  0  0
    3.8150    4.0730   25.8690 F   0  0  0  0  0  0  0  0  0  0  0  0
    3.7230    3.2010   23.8840 F   0  0  0  0  0  0  0  0  0  0  0  0
    4.9900    1.6890   27.0890 C   0  0  0  0  0  0  0  0  0  0  0  0
    5.8490    0.5430   27.4830 C   0  0  0  0  0  0  0  0  0  0  0  0
    6.2180   -3.6310   27.6760 C   0  0  0  0  0  0  0  0  0  0  0  0
    5.7960   -5.1170   27.6410 C   0  0  0  0  0  0  0  0  0  0  0  0
    5.9260   -5.6990   26.3810 F   0  0  0  0  0  0  0  0  0  0  0  0
    4.5480   -5.3390   28.1400 F   0  0  0  0  0  0  0  0  0  0  0  0
    6.6800   -5.8270   28.4810 F   0  0  0  0  0  0  0  0  0  0  0  0
    7.4700   -3.1310   23.6380 C   0  0  0  0  0  0  0  0  0  0  0  0
    7.6340   -3.0910   22.2310 C   0  0  0  0  0  0  0  0  0  0  0  0
  1  2  1  0
  2  3  2  0
  2  4  1  0
  4  5  1  0
  5  6  1  0
  6  7  1  0
  7  8  1  0
  8  9  2  0
  8 10  1  0
 10 11  1  0
 11 12  1  0
 12 13  2  0
 13 14  1  0
 14 15  2  0
 15 16  1  0
 16 17  1  0
 16 18  1  0
 16 19  1  0
 15 20  1  0
 12 21  1  0
 20 21  2  0
 10 22  1  0
 22 23  1  0
 23 24  1  0
 23 25  1  0
 23 26  1  0
  7 27  1  0
  4 28  1  0
 27 28  1  0
M  END
