piperidine-amides-8146-covalent
     RDKit          3D

 25 27  0  0  0  0  0  0  0  0999 V2000
    7.0800   -3.2910   19.2740 C   0  0  0  0  0  0  0  0  0  0  0  0
    6.3780   -4.0970   20.2740 C   0  0  0  0  0  0  0  0  0  0  0  0
    5.3280   -4.6650   19.9260 O   0  0  0  0  0  0  0  0  0  0  0  0
    6.9100   -4.2660   21.5810 N   0  0  0  0  0  0  0  0  0  0  0  0
    6.5460   -5.4300   22.3280 C   0  0  0  0  0  0  0  0  0  0  0  0
    5.7620   -5.0050   23.5340 C   0  0  0  0  0  0  0  0  0  0  0  0
    6.5580   -3.9000   24.2010 C   0  0  0  0  0  0  0  0  0  0  0  0
    5.7940   -3.3580   25.3810 C   0  0  0  0  0  0  0  0  0  0  0  0
    4.6090   -3.1010   25.1760 O   0  0  0  0  0  0  0  0  0  0  0  0
    6.4530   -3.1760   26.6020 N   0  0  0  0  0  0  0  0  0  0  0  0
    6.2630   -4.0350   27.7410 C   0  0  2  0  0  0  0  0  0  0  0  0
    5.5710   -5.2370   27.4940 C   0  0  0  0  0  0  0  0  0  0  0  0
    5.3760   -6.1260   28.5300 C   0  0  0  0  0  0  0  0  0  0  0  0
    5.8960   -5.9070   29.8080 N   0  0  0  0  0  0  0  0  0  0  0  0
    5.5780   -6.8880   30.6230 N   0  0  0  0  0  0  0  0  0  0  0  0
    4.8570   -7.7280   29.8640 N   0  0  0  0  0  0  0  0  0  0  0  0
    4.7250   -7.2940   28.6110 N   0  0  0  0  0  0  0  0  0  0  0  0
    5.5600   -3.1760   28.7400 C   0  0  0  0  0  0  0  0  0  0  0  0
    4.1670   -3.6040   29.1020 C   0  0  0  0  0  0  0  0  0  0  0  0
    3.3370   -2.7850   30.1300 C   0  0  0  0  0  0  0  0  0  0  0  0
    3.9720   -1.5800   30.7320 C   0  0  0  0  0  0  0  0  0  0  0  0
    5.3640   -1.2050   30.3330 C   0  0  0  0  0  0  0  0  0  0  0  0
    6.1390   -2.0480   29.3130 C   0  0  0  0  0  0  0  0  0  0  0  0
    6.7310   -2.7600   23.2250 C   0  0  0  0  0  0  0  0  0  0  0  0
    7.6140   -3.2000   22.2620 C   0  0  0  0  0  0  0  0  0  0  0  0
  1  2  1  0
  2  3  2  0
  2  4  1  0
  4  5  1  0
  5  6  1  0
  6  7  1  0
  7  8  1  0
  8  9  2  0
  8 10  1  0
 10 11  1  0
 11 12  1  6
 12 13  1  0
 13 14  2  0
 14 15  1  0
 15 16  2  0
 13 17  1  0
 16 17  1  0
 11 18  1  0
 18 19  2  0
 19 20  1  0
 20 21  2  0
 21 22  1  0
 18 23  1  0
 22 23  2  0
  7 24  1  0
  4 25  1  0
 24 25  1  0
M  END
