piperidine-amides-14171-covalent
     RDKit          3D

 24 26  0  0  0  0  0  0  0  0999 V2000
    7.0980   -3.2750   19.2060 C   0  0  0  0  0  0  0  0  0  0  0  0
    6.3290   -4.0770   20.1990 C   0  0  0  0  0  0  0  0  0  0  0  0
    5.2400   -4.5650   19.8740 O   0  0  0  0  0  0  0  0  0  0  0  0
    6.8780   -4.3090   21.4700 N   0  0  0  0  0  0  0  0  0  0  0  0
    7.4940   -3.2330   22.1860 C   0  0  0  0  0  0  0  0  0  0  0  0
    6.3920   -2.7290   23.1150 C   0  0  0  0  0  0  0  0  0  0  0  0
    6.1660   -3.7940   24.1430 C   0  0  0  0  0  0  0  0  0  0  0  0
    5.4760   -3.2430   25.3410 C   0  0  0  0  0  0  0  0  0  0  0  0
    4.2810   -2.9600   25.2000 O   0  0  0  0  0  0  0  0  0  0  0  0
    6.1640   -3.0710   26.5480 N   0  0  0  0  0  0  0  0  0  0  0  0
    6.7080   -4.1270   27.3020 C   0  0  0  0  0  0  0  0  0  0  0  0
    7.3760   -5.1460   26.7120 C   0  0  0  0  0  0  0  0  0  0  0  0
    8.7080   -4.7170   26.3470 N   0  0  0  0  0  0  0  0  0  0  0  0
    9.9270   -5.2930   26.6570 C   0  0  0  0  0  0  0  0  0  0  0  0
   10.9480   -4.5830   26.1090 C   0  0  0  0  0  0  0  0  0  0  0  0
   10.5260   -3.4360   25.3570 C   0  0  0  0  0  0  0  0  0  0  0  0
   11.2270   -2.3430   24.5630 C   0  0  0  0  0  0  0  0  0  0  0  0
   13.0880   -2.1640   24.3090 Br  0  0  0  0  0  0  0  0  0  0  0  0
   10.1740   -1.4120   24.0010 C   0  0  0  0  0  0  0  0  0  0  0  0
    8.8230   -1.5520   24.1970 C   0  0  0  0  0  0  0  0  0  0  0  0
    8.0640   -2.5810   24.9590 C   0  0  0  0  0  0  0  0  0  0  0  0
    9.0700   -3.5570   25.5430 C   0  0  0  0  0  0  0  0  0  0  0  0
    5.5130   -4.9120   23.4450 C   0  0  0  0  0  0  0  0  0  0  0  0
    6.3680   -5.3990   22.2520 C   0  0  0  0  0  0  0  0  0  0  0  0
  1  2  1  0
  2  3  2  0
  2  4  1  0
  4  5  1  0
  5  6  1  0
  6  7  1  0
  7  8  1  0
  8  9  2  0
  8 10  1  0
 10 11  1  0
 11 12  1  0
 12 13  1  0
 13 14  1  0
 14 15  2  0
 15 16  1  0
 16 17  1  0
 17 18  1  0
 17 19  2  0
 19 20  1  0
 20 21  2  0
 13 22  1  0
 16 22  2  0
 21 22  1  0
  7 23  1  0
  4 24  1  0
 23 24  1  0
M  END
