piperidine-amides-31500-covalent
     RDKit          3D

 28 30  0  0  0  0  0  0  0  0999 V2000
    7.1060   -3.3200   19.1860 C   0  0  0  0  0  0  0  0  0  0  0  0
    6.3770   -4.0110   20.2260 C   0  0  0  0  0  0  0  0  0  0  0  0
    5.2810   -4.5570   19.8980 O   0  0  0  0  0  0  0  0  0  0  0  0
    6.8460   -4.1630   21.5470 N   0  0  0  0  0  0  0  0  0  0  0  0
    7.7340   -3.1180   22.1160 C   0  0  0  0  0  0  0  0  0  0  0  0
    6.7600   -2.4880   23.1750 C   0  0  0  0  0  0  0  0  0  0  0  0
    6.4060   -3.6330   24.0880 C   0  0  0  0  0  0  0  0  0  0  0  0
    5.5850   -3.1160   25.3490 C   0  0  0  0  0  0  0  0  0  0  0  0
    4.3900   -3.3640   25.2260 O   0  0  0  0  0  0  0  0  0  0  0  0
    6.3970   -2.5660   26.1650 N   0  0  0  0  0  0  0  0  0  0  0  0
    7.4670   -1.8280   26.5710 C   0  0  0  0  0  0  0  0  0  0  0  0
    5.8170   -2.8430   27.4290 C   0  0  1  0  0  0  0  0  0  0  0  0
    6.1470   -4.0500   28.0810 C   0  0  0  0  0  0  0  0  0  0  0  0
    7.3060   -4.5620   27.4140 C   0  0  0  0  0  0  0  0  0  0  0  0
    6.9920   -5.1030   26.0920 C   0  0  0  0  0  0  0  0  0  0  0  0
    8.2800   -5.4830   25.6050 C   0  0  0  0  0  0  0  0  0  0  0  0
    9.6560   -5.4430   26.1220 C   0  0  0  0  0  0  0  0  0  0  0  0
   10.7860   -5.7920   25.6050 F   0  0  0  0  0  0  0  0  0  0  0  0
    9.5960   -4.8570   27.5130 C   0  0  0  0  0  0  0  0  0  0  0  0
    8.4030   -4.3850   28.1970 C   0  0  0  0  0  0  0  0  0  0  0  0
    6.2950   -2.0340   28.6180 C   0  0  0  0  0  0  0  0  0  0  0  0
    7.5750   -1.6890   28.9470 N   0  0  0  0  0  0  0  0  0  0  0  0
    7.3660   -0.9260   30.1510 C   0  0  0  0  0  0  0  0  0  0  0  0
    6.0540   -0.8910   30.4110 C   0  0  0  0  0  0  0  0  0  0  0  0
    5.3020   -1.5760   29.4800 N   0  0  0  0  0  0  0  0  0  0  0  0
    3.8790   -1.7450   29.4430 C   0  0  0  0  0  0  0  0  0  0  0  0
    5.7700   -4.8580   23.4950 C   0  0  0  0  0  0  0  0  0  0  0  0
    6.5220   -5.3450   22.2960 C   0  0  0  0  0  0  0  0  0  0  0  0
  1  2  1  0
  2  3  2  0
  2  4  1  0
  4  5  1  0
  5  6  1  0
  6  7  1  0
  7  8  1  0
  8  9  2  0
  8 10  1  0
 10 11  1  0
 10 12  1  0
 12 13  1  1
 13 14  1  0
 14 15  2  0
 15 16  1  0
 16 17  2  0
 17 18  1  0
 17 19  1  0
 14 20  1  0
 19 20  2  0
 12 21  1  0
 21 22  2  0
 22 23  1  0
 23 24  2  0
 21 25  1  0
 24 25  1  0
 25 26  1  0
  7 27  1  0
  4 28  1  0
 27 28  1  0
M  END
