piperidine-amides-32191-covalent
     RDKit          3D

 28 30  0  0  0  0  0  0  0  0999 V2000
    7.0680   -3.3630   19.3760 C   0  0  0  0  0  0  0  0  0  0  0  0
    6.4000   -4.2630   20.3510 C   0  0  0  0  0  0  0  0  0  0  0  0
    5.3810   -4.8780   19.9930 O   0  0  0  0  0  0  0  0  0  0  0  0
    6.9760   -4.4330   21.6370 N   0  0  0  0  0  0  0  0  0  0  0  0
    6.7090   -5.5990   22.4410 C   0  0  0  0  0  0  0  0  0  0  0  0
    5.8950   -5.1430   23.6710 C   0  0  0  0  0  0  0  0  0  0  0  0
    6.6090   -4.0390   24.3980 C   0  0  0  0  0  0  0  0  0  0  0  0
    5.7870   -3.4680   25.4960 C   0  0  0  0  0  0  0  0  0  0  0  0
    4.9200   -2.6700   25.1250 O   0  0  0  0  0  0  0  0  0  0  0  0
    5.9430   -3.8040   26.8560 N   0  0  0  0  0  0  0  0  0  0  0  0
    6.8840   -4.6680   27.4150 C   0  0  0  0  0  0  0  0  0  0  0  0
    6.3580   -5.4330   28.3320 C   0  0  0  0  0  0  0  0  0  0  0  0
    5.2350   -4.7130   28.7220 C   0  0  0  0  0  0  0  0  0  0  0  0
    4.9250   -3.6430   27.8440 C   0  0  1  0  0  0  0  0  0  0  0  0
    4.5630   -2.3100   28.4240 C   0  0  2  0  0  0  0  0  0  0  0  0
    5.4640   -1.8210   29.5620 C   0  0  0  0  0  0  0  0  0  0  0  0
    4.3770   -1.4750   30.5940 C   0  0  0  0  0  0  0  0  0  0  0  0
    3.1580   -1.8350   30.0620 C   0  0  0  0  0  0  0  0  0  0  0  0
    3.2030   -2.3280   28.8160 N   0  0  0  0  0  0  0  0  0  0  0  0
    2.3810   -3.4850   28.7560 C   0  0  0  0  0  0  0  0  0  0  0  0
    2.0790   -4.1880   27.7700 O   0  0  0  0  0  0  0  0  0  0  0  0
    1.7550   -3.9900   29.9080 O   0  0  0  0  0  0  0  0  0  0  0  0
    0.3700   -3.7480   30.1660 C   0  0  0  0  0  0  0  0  0  0  0  0
   -0.1830   -2.6020   30.6840 C   0  0  0  0  0  0  0  0  0  0  0  0
   -0.5240   -3.0390   29.2250 C   0  0  0  0  0  0  0  0  0  0  0  0
   -0.2250   -4.8170   30.8060 C   0  0  0  0  0  0  0  0  0  0  0  0
    6.8850   -2.8820   23.4590 C   0  0  0  0  0  0  0  0  0  0  0  0
    7.6580   -3.3170   22.2740 C   0  0  0  0  0  0  0  0  0  0  0  0
  1  2  1  0
  2  3  2  0
  2  4  1  0
  4  5  1  0
  5  6  1  0
  6  7  1  0
  7  8  1  0
  8  9  2  0
  8 10  1  0
 10 11  1  0
 11 12  1  0
 12 13  1  0
 10 14  1  0
 14 13  1  1
 14 15  1  0
 15 16  1  1
 16 17  1  0
 17 18  1  0
 15 19  1  0
 18 19  1  0
 19 20  1  0
 20 21  2  0
 20 22  1  0
 23 22  1  0
 23 24  1  0
 23 25  1  0
 23 26  1  0
  7 27  1  0
  4 28  1  0
 27 28  1  0
M  END
