piperidine-amides-25844-covalent
     RDKit          3D

 24 25  0  0  0  0  0  0  0  0999 V2000
    7.0700   -3.1990   19.1560 C   0  0  0  0  0  0  0  0  0  0  0  0
    6.1540   -3.8840   20.1100 C   0  0  0  0  0  0  0  0  0  0  0  0
    5.0820   -4.2770   19.6990 O   0  0  0  0  0  0  0  0  0  0  0  0
    6.5080   -4.1200   21.4200 N   0  0  0  0  0  0  0  0  0  0  0  0
    5.9250   -5.2640   22.0850 C   0  0  0  0  0  0  0  0  0  0  0  0
    5.0290   -4.8360   23.2200 C   0  0  0  0  0  0  0  0  0  0  0  0
    5.7770   -3.8180   24.0630 C   0  0  0  0  0  0  0  0  0  0  0  0
    4.9580   -3.5080   25.2780 C   0  0  0  0  0  0  0  0  0  0  0  0
    3.9230   -2.8390   25.2000 O   0  0  0  0  0  0  0  0  0  0  0  0
    5.4150   -4.0030   26.5190 N   0  0  0  0  0  0  0  0  0  0  0  0
    4.7550   -3.7070   27.7620 C   0  0  0  0  0  0  0  0  0  0  0  0
    5.6260   -4.3200   28.8570 C   0  0  0  0  0  0  0  0  0  0  0  0
    6.6620   -5.1930   28.6050 C   0  0  0  0  0  0  0  0  0  0  0  0
    7.0130   -5.2580   27.3050 C   0  0  0  0  0  0  0  0  0  0  0  0
    6.7360   -4.0580   26.7130 C   0  0  1  0  0  0  0  0  0  0  0  0
    7.2200   -3.4140   25.4500 C   0  0  0  0  0  0  0  0  0  0  0  0
    7.0120   -2.0640   25.2940 O   0  0  0  0  0  0  0  0  0  0  0  0
    7.8550   -4.2050   24.5640 N   0  0  0  0  0  0  0  0  0  0  0  0
    7.4880   -5.4670   24.5340 C   0  0  0  0  0  0  0  0  0  0  0  0
    7.2340   -6.1840   23.2480 C   0  0  0  0  0  0  0  0  0  0  0  0
    7.2640   -5.3460   22.1830 F   0  0  0  0  0  0  0  0  0  0  0  0
    7.9930   -7.2170   22.9740 F   0  0  0  0  0  0  0  0  0  0  0  0
    6.3120   -2.6810   23.2680 C   0  0  0  0  0  0  0  0  0  0  0  0
    7.2130   -3.0940   22.1510 C   0  0  0  0  0  0  0  0  0  0  0  0
  1  2  1  0
  2  3  2  0
  2  4  1  0
  4  5  1  0
  5  6  1  0
  6  7  1  0
  7  8  1  0
  8  9  2  0
  8 10  1  0
 10 11  1  0
 11 12  1  0
 12 13  1  0
 13 14  1  0
 10 15  1  0
 14 15  1  0
 15 16  1  6
 16 17  2  0
 16 18  1  0
 18 19  1  0
 19 20  1  0
 20 21  1  0
 20 22  1  0
  7 23  1  0
  4 24  1  0
 23 24  1  0
M  END
