piperidine-amides-2769-covalent
     RDKit          3D

 24 25  0  0  0  0  0  0  0  0999 V2000
    7.0340   -3.3610   19.3160 C   0  0  0  0  0  0  0  0  0  0  0  0
    6.3140   -4.1470   20.3140 C   0  0  0  0  0  0  0  0  0  0  0  0
    5.3360   -4.8070   19.9700 O   0  0  0  0  0  0  0  0  0  0  0  0
    6.7740   -4.1950   21.6780 N   0  0  0  0  0  0  0  0  0  0  0  0
    7.6720   -3.1690   22.1490 C   0  0  0  0  0  0  0  0  0  0  0  0
    7.4340   -2.9310   23.6000 C   0  0  0  0  0  0  0  0  0  0  0  0
    6.1060   -3.5760   23.9220 C   0  0  0  0  0  0  0  0  0  0  0  0
    5.6790   -3.2060   25.2990 C   0  0  0  0  0  0  0  0  0  0  0  0
    4.4910   -3.2620   25.6740 O   0  0  0  0  0  0  0  0  0  0  0  0
    6.6780   -2.7800   26.2010 N   0  0  0  0  0  0  0  0  0  0  0  0
    6.5170   -1.5490   26.9430 C   0  0  0  0  0  0  0  0  0  0  0  0
    6.9550   -1.6610   28.3650 C   0  0  0  0  0  0  0  0  0  0  0  0
    6.8610   -0.5770   29.1980 C   0  0  0  0  0  0  0  0  0  0  0  0
    6.3490    0.6420   28.7080 C   0  0  0  0  0  0  0  0  0  0  0  0
    6.2490    1.7360   29.5460 C   0  0  0  0  0  0  0  0  0  0  0  0
    7.2790    2.0720   30.4710 N   0  0  0  0  0  0  0  0  0  0  0  0
    5.9510    0.7260   27.3790 C   0  0  0  0  0  0  0  0  0  0  0  0
    6.0250   -0.3310   26.4940 C   0  0  0  0  0  0  0  0  0  0  0  0
    5.6620   -0.2620   25.2390 O   0  0  0  0  0  0  0  0  0  0  0  0
    6.1230   -0.0400   23.9080 C   0  0  0  0  0  0  0  0  0  0  0  0
    5.4950   -0.8140   22.9310 C   0  0  0  0  0  0  0  0  0  0  0  0
    5.3130    0.7030   22.9390 C   0  0  0  0  0  0  0  0  0  0  0  0
    6.1000   -5.0820   23.7060 C   0  0  0  0  0  0  0  0  0  0  0  0
    6.6400   -5.4060   22.4520 C   0  0  0  0  0  0  0  0  0  0  0  0
  1  2  1  0
  2  3  2  0
  2  4  1  0
  4  5  1  0
  5  6  1  0
  6  7  1  0
  7  8  1  0
  8  9  2  0
  8 10  1  0
 10 11  1  0
 11 12  2  0
 12 13  1  0
 13 14  2  0
 14 15  1  0
 15 16  3  0
 14 17  1  0
 11 18  1  0
 17 18  2  0
 18 19  1  0
 19 20  1  0
 20 21  1  0
 20 22  1  0
  7 23  1  0
  4 24  1  0
 23 24  1  0
M  END
