piperidine-amides-31841-covalent
     RDKit          3D

 28 30  0  0  0  0  0  0  0  0999 V2000
    7.0390   -3.3990   19.3120 C   0  0  0  0  0  0  0  0  0  0  0  0
    6.3740   -4.1870   20.3220 C   0  0  0  0  0  0  0  0  0  0  0  0
    5.3330   -4.8190   19.9740 O   0  0  0  0  0  0  0  0  0  0  0  0
    6.8640   -4.3290   21.6360 N   0  0  0  0  0  0  0  0  0  0  0  0
    6.4580   -5.5460   22.3680 C   0  0  0  0  0  0  0  0  0  0  0  0
    5.4970   -4.8690   23.4130 C   0  0  0  0  0  0  0  0  0  0  0  0
    6.4540   -4.1950   24.3500 C   0  0  0  0  0  0  0  0  0  0  0  0
    5.7350   -3.2560   25.4270 C   0  0  0  0  0  0  0  0  0  0  0  0
    5.5420   -2.1460   24.9670 O   0  0  0  0  0  0  0  0  0  0  0  0
    5.5130   -3.9100   26.5050 N   0  0  0  0  0  0  0  0  0  0  0  0
    4.9360   -4.8080   27.3320 C   0  0  0  0  0  0  0  0  0  0  0  0
    5.3210   -5.6100   28.3660 C   0  0  0  0  0  0  0  0  0  0  0  0
    5.8260   -4.8570   29.4260 C   0  0  0  0  0  0  0  0  0  0  0  0
    4.7900   -4.1230   30.0150 O   0  0  0  0  0  0  0  0  0  0  0  0
    3.9880   -5.0000   30.7520 C   0  0  0  0  0  0  0  0  0  0  0  0
    4.6160   -6.2790   31.3740 C   0  0  0  0  0  0  0  0  0  0  0  0
    5.8240   -6.6530   31.2940 O   0  0  0  0  0  0  0  0  0  0  0  0
    6.0110   -7.6170   30.3220 C   0  0  0  0  0  0  0  0  0  0  0  0
    3.8700   -7.3220   32.1960 C   0  0  0  0  0  0  0  0  0  0  0  0
    2.3740   -7.0360   32.4000 C   0  0  0  0  0  0  0  0  0  0  0  0
    1.7970   -5.7370   31.7570 C   0  0  0  0  0  0  0  0  0  0  0  0
    2.4860   -4.8210   31.0250 C   0  0  0  0  0  0  0  0  0  0  0  0
    1.7690   -3.7370   30.5510 O   0  0  0  0  0  0  0  0  0  0  0  0
    1.3140   -2.8930   31.5370 C   0  0  0  0  0  0  0  0  0  0  0  0
    6.6710   -4.2440   28.3670 C   0  0  0  0  0  0  0  0  0  0  0  0
    6.2450   -3.2170   27.5440 C   0  0  0  0  0  0  0  0  0  0  0  0
    7.6650   -3.5440   23.7550 C   0  0  0  0  0  0  0  0  0  0  0  0
    7.5370   -3.2250   22.2890 C   0  0  0  0  0  0  0  0  0  0  0  0
  1  2  1  0
  2  3  2  0
  2  4  1  0
  4  5  1  0
  5  6  1  0
  6  7  1  0
  7  8  1  0
  8  9  2  0
  8 10  1  0
 10 11  1  0
 11 12  1  0
 12 13  1  0
 13 14  1  0
 14 15  1  0
 15 16  2  0
 16 17  1  0
 17 18  1  0
 16 19  1  0
 19 20  2  0
 20 21  1  0
 15 22  1  0
 21 22  2  0
 22 23  1  0
 23 24  1  0
 13 25  1  0
 10 26  1  0
 25 26  1  0
  7 27  1  0
  4 28  1  0
 27 28  1  0
M  END
