piperidine-amides-17231-covalent
     RDKit          3D

 20 21  0  0  0  0  0  0  0  0999 V2000
    7.1330   -3.3260   19.2800 C   0  0  0  0  0  0  0  0  0  0  0  0
    6.4430   -4.1600   20.2700 C   0  0  0  0  0  0  0  0  0  0  0  0
    5.3460   -4.6650   19.9330 O   0  0  0  0  0  0  0  0  0  0  0  0
    7.0480   -4.4350   21.5190 N   0  0  0  0  0  0  0  0  0  0  0  0
    6.5880   -5.5580   22.2430 C   0  0  0  0  0  0  0  0  0  0  0  0
    6.0000   -5.2210   23.5320 C   0  0  0  0  0  0  0  0  0  0  0  0
    6.5520   -4.0320   24.2160 C   0  0  0  0  0  0  0  0  0  0  0  0
    5.5660   -3.5940   25.2380 C   0  0  0  0  0  0  0  0  0  0  0  0
    4.5510   -2.9780   24.8770 O   0  0  0  0  0  0  0  0  0  0  0  0
    5.7500   -3.8520   26.5870 N   0  0  0  0  0  0  0  0  0  0  0  0
    5.2600   -2.9640   27.5750 C   0  0  0  0  0  0  0  0  0  0  0  0
    4.7020   -3.4720   28.8110 C   0  0  0  0  0  0  0  0  0  0  0  0
    4.9150   -4.9830   28.8280 C   0  0  0  0  0  0  0  0  0  0  0  0
    6.2290   -5.3830   28.8170 C   0  0  1  0  0  0  0  0  0  0  0  0
    6.7450   -3.9520   28.8350 C   0  0  0  0  0  0  0  0  0  0  0  0
    6.6640   -6.0240   29.9400 O   0  0  0  0  0  0  0  0  0  0  0  0
    6.6750   -5.8870   27.4610 C   0  0  0  0  0  0  0  0  0  0  0  0
    6.9750   -4.5010   26.9260 C   0  0  0  0  0  0  0  0  0  0  0  0
    6.9030   -2.8710   23.3200 C   0  0  0  0  0  0  0  0  0  0  0  0
    7.7790   -3.4040   22.2200 C   0  0  0  0  0  0  0  0  0  0  0  0
  1  2  1  0
  2  3  2  0
  2  4  1  0
  4  5  1  0
  5  6  1  0
  6  7  1  0
  7  8  1  0
  8  9  2  0
  8 10  1  0
 10 11  1  0
 11 12  1  0
 12 13  1  0
 13 14  1  0
 14 15  1  1
 14 16  1  0
 14 17  1  0
 10 18  1  0
 17 18  1  0
  7 19  1  0
  4 20  1  0
 19 20  1  0
M  END
