piperidine-amides-186-covalent
     RDKit          3D

 20 22  0  0  0  0  0  0  0  0999 V2000
    7.1330   -3.3320   19.4260 C   0  0  0  0  0  0  0  0  0  0  0  0
    6.4400   -4.1740   20.3710 C   0  0  0  0  0  0  0  0  0  0  0  0
    5.4020   -4.7990   19.9760 O   0  0  0  0  0  0  0  0  0  0  0  0
    6.9000   -4.3590   21.6940 N   0  0  0  0  0  0  0  0  0  0  0  0
    7.6840   -3.2580   22.3150 C   0  0  0  0  0  0  0  0  0  0  0  0
    6.6690   -2.7470   23.4140 C   0  0  0  0  0  0  0  0  0  0  0  0
    6.2880   -3.9720   24.2160 C   0  0  0  0  0  0  0  0  0  0  0  0
    5.6380   -3.5700   25.6210 C   0  0  0  0  0  0  0  0  0  0  0  0
    4.8060   -4.4030   25.9280 O   0  0  0  0  0  0  0  0  0  0  0  0
    6.1050   -2.4810   26.0810 N   0  0  0  0  0  0  0  0  0  0  0  0
    6.5060   -1.2890   26.6120 C   0  0  1  0  0  0  0  0  0  0  0  0
    5.9700   -0.0350   26.8130 C   0  0  0  0  0  0  0  0  0  0  0  0
    5.6620    0.2090   28.1300 O   0  0  0  0  0  0  0  0  0  0  0  0
    6.0290   -0.8360   28.8930 C   0  0  2  0  0  0  0  0  0  0  0  0
    6.4860   -0.2440   30.1690 C   0  0  0  0  0  0  0  0  0  0  0  0
    5.3530    0.6330   30.5900 C   0  0  0  0  0  0  0  0  0  0  0  0
    4.9670   -0.6640   30.5370 C   0  0  0  0  0  0  0  0  0  0  0  0
    7.1010   -1.4550   28.0510 C   0  0  0  0  0  0  0  0  0  0  0  0
    5.6420   -5.0510   23.5140 C   0  0  0  0  0  0  0  0  0  0  0  0
    6.6910   -5.5100   22.4630 C   0  0  0  0  0  0  0  0  0  0  0  0
  1  2  1  0
  2  3  2  0
  2  4  1  0
  4  5  1  0
  5  6  1  0
  6  7  1  0
  7  8  1  0
  8  9  2  0
  8 10  1  0
 11 10  1  1
 11 12  1  0
 12 13  1  0
 13 14  1  0
 14 15  1  1
 15 16  1  0
 15 17  1  0
 16 17  1  0
 11 18  1  0
 14 18  1  0
  7 19  1  0
  4 20  1  0
 19 20  1  0
M  END
