piperidine-amides-4442-covalent
     RDKit          3D

 25 26  0  0  0  0  0  0  0  0999 V2000
    7.1360   -3.3100   19.2960 C   0  0  0  0  0  0  0  0  0  0  0  0
    6.3770   -4.0660   20.3000 C   0  0  0  0  0  0  0  0  0  0  0  0
    5.3080   -4.6020   19.9150 O   0  0  0  0  0  0  0  0  0  0  0  0
    6.8750   -4.2170   21.6210 N   0  0  0  0  0  0  0  0  0  0  0  0
    6.5100   -5.3800   22.3570 C   0  0  0  0  0  0  0  0  0  0  0  0
    5.9280   -5.0430   23.6410 C   0  0  0  0  0  0  0  0  0  0  0  0
    6.1100   -3.6190   23.9560 C   0  0  0  0  0  0  0  0  0  0  0  0
    5.5980   -3.2650   25.3230 C   0  0  0  0  0  0  0  0  0  0  0  0
    4.3960   -2.9700   25.4480 O   0  0  0  0  0  0  0  0  0  0  0  0
    6.4050   -3.2600   26.4780 N   0  0  0  0  0  0  0  0  0  0  0  0
    6.1850   -3.9350   27.7080 C   0  0  0  0  0  0  0  0  0  0  0  0
    5.8370   -5.3590   27.7850 C   0  0  0  0  0  0  0  0  0  0  0  0
    6.6550   -5.9830   28.9330 C   0  0  0  0  0  0  0  0  0  0  0  0
    6.0220   -6.5240   30.0500 C   0  0  0  0  0  0  0  0  0  0  0  0
    4.5820   -6.7960   29.5820 C   0  0  0  0  0  0  0  0  0  0  0  0
    4.1870   -7.3280   30.8780 C   0  0  0  0  0  0  0  0  0  0  0  0
    2.7390   -7.8090   31.0660 C   0  0  0  0  0  0  0  0  0  0  0  0
    2.2600   -8.4150   32.2310 O   0  0  0  0  0  0  0  0  0  0  0  0
    1.8820   -7.6830   30.1760 O   0  0  0  0  0  0  0  0  0  0  0  0
    2.1320   -8.1760   28.8520 C   0  0  0  0  0  0  0  0  0  0  0  0
    5.1600   -7.3950   31.9630 C   0  0  0  0  0  0  0  0  0  0  0  0
    4.9140   -7.9290   33.3780 C   0  0  0  0  0  0  0  0  0  0  0  0
    6.2940   -6.8580   31.3420 O   0  0  0  0  0  0  0  0  0  0  0  0
    7.5330   -3.2440   23.6760 C   0  0  0  0  0  0  0  0  0  0  0  0
    7.5920   -3.1250   22.2770 C   0  0  0  0  0  0  0  0  0  0  0  0
  1  2  1  0
  2  3  2  0
  2  4  1  0
  4  5  1  0
  5  6  1  0
  6  7  1  0
  7  8  1  0
  8  9  2  0
  8 10  1  0
 10 11  1  0
 11 12  1  0
 12 13  1  0
 13 14  1  0
 14 15  2  0
 15 16  1  0
 16 17  1  0
 17 18  2  0
 17 19  1  0
 19 20  1  0
 16 21  2  0
 21 22  1  0
 14 23  1  0
 21 23  1  0
  7 24  1  0
  4 25  1  0
 24 25  1  0
M  END
