piperidine-amides-30518-covalent
     RDKit          3D

 27 29  0  0  0  0  0  0  0  0999 V2000
    7.0540   -3.3610   19.3740 C   0  0  0  0  0  0  0  0  0  0  0  0
    6.3870   -4.2160   20.3570 C   0  0  0  0  0  0  0  0  0  0  0  0
    5.3930   -4.8680   19.9910 O   0  0  0  0  0  0  0  0  0  0  0  0
    6.8710   -4.3610   21.6720 N   0  0  0  0  0  0  0  0  0  0  0  0
    7.7130   -3.3880   22.3280 C   0  0  0  0  0  0  0  0  0  0  0  0
    6.9740   -2.9080   23.5540 C   0  0  0  0  0  0  0  0  0  0  0  0
    6.2590   -3.9880   24.3430 C   0  0  0  0  0  0  0  0  0  0  0  0
    5.3130   -3.3820   25.3380 C   0  0  0  0  0  0  0  0  0  0  0  0
    4.3320   -2.7310   24.8870 O   0  0  0  0  0  0  0  0  0  0  0  0
    5.3880   -3.4500   26.7710 N   0  0  0  0  0  0  0  0  0  0  0  0
    4.1590   -3.4530   27.5780 C   0  0  0  0  0  0  0  0  0  0  0  0
    4.3700   -4.1140   28.9000 C   0  0  1  0  0  0  0  0  0  0  0  0
    3.6410   -5.3820   28.9820 C   0  0  0  0  0  0  0  0  0  0  0  0
    4.1670   -6.2190   27.8450 C   0  0  0  0  0  0  0  0  0  0  0  0
    3.5980   -7.6200   27.9820 C   0  0  0  0  0  0  0  0  0  0  0  0
    2.5050   -7.5800   28.9940 C   0  0  0  0  0  0  0  0  0  0  0  0
    3.0210   -7.2590   30.2160 C   0  0  0  0  0  0  0  0  0  0  0  0
    3.6610   -6.0330   30.1920 C   0  0  0  0  0  0  0  0  0  0  0  0
    5.6610   -4.2860   29.3150 C   0  0  0  0  0  0  0  0  0  0  0  0
    6.6470   -4.1350   28.2170 C   0  0  0  0  0  0  0  0  0  0  0  0
    6.5260   -2.8760   27.3860 C   0  0  2  0  0  0  0  0  0  0  0  0
    6.5110   -1.6970   27.1270 C   0  0  0  0  0  0  0  0  0  0  0  0
    6.2380   -1.2950   25.9750 O   0  0  0  0  0  0  0  0  0  0  0  0
    6.7670   -0.8630   28.0260 O   0  0  0  0  0  0  0  0  0  0  0  0
    7.3060   -1.2180   29.2900 C   0  0  0  0  0  0  0  0  0  0  0  0
    5.5660   -5.0290   23.4690 C   0  0  0  0  0  0  0  0  0  0  0  0
    6.5420   -5.5350   22.4120 C   0  0  0  0  0  0  0  0  0  0  0  0
  1  2  1  0
  2  3  2  0
  2  4  1  0
  4  5  1  0
  5  6  1  0
  6  7  1  0
  7  8  1  0
  8  9  2  0
  8 10  1  0
 10 11  1  0
 11 12  1  0
 12 13  1  6
 13 14  1  0
 14 15  1  0
 15 16  1  0
 16 17  1  0
 13 18  1  0
 17 18  1  0
 12 19  1  0
 19 20  1  0
 10 21  1  0
 20 21  1  0
 21 22  1  1
 22 23  2  0
 22 24  1  0
 24 25  1  0
  7 26  1  0
  4 27  1  0
 26 27  1  0
M  END
