piperidine-amides-17102-covalent
     RDKit          3D

 20 21  0  0  0  0  0  0  0  0999 V2000
    7.0780   -3.4020   19.3340 C   0  0  0  0  0  0  0  0  0  0  0  0
    6.3870   -4.2190   20.3340 C   0  0  0  0  0  0  0  0  0  0  0  0
    5.3380   -4.7950   19.9700 O   0  0  0  0  0  0  0  0  0  0  0  0
    6.9360   -4.3910   21.6300 N   0  0  0  0  0  0  0  0  0  0  0  0
    6.4550   -5.4450   22.4410 C   0  0  0  0  0  0  0  0  0  0  0  0
    5.9430   -5.0360   23.7560 C   0  0  0  0  0  0  0  0  0  0  0  0
    6.4850   -3.7800   24.3470 C   0  0  0  0  0  0  0  0  0  0  0  0
    5.6080   -3.2790   25.4740 C   0  0  0  0  0  0  0  0  0  0  0  0
    4.8750   -2.3030   25.2470 O   0  0  0  0  0  0  0  0  0  0  0  0
    5.5250   -3.8540   26.7770 N   0  0  0  0  0  0  0  0  0  0  0  0
    6.3850   -3.7450   27.8550 C   0  0  0  0  0  0  0  0  0  0  0  0
    6.7810   -4.9970   28.5040 C   0  0  0  0  0  0  0  0  0  0  0  0
    5.5400   -5.5310   29.1480 C   0  0  2  0  0  0  0  0  0  0  0  0
    4.5790   -6.0740   28.3160 C   0  0  0  0  0  0  0  0  0  0  0  0
    4.4000   -4.5360   28.8040 C   0  0  2  0  0  0  0  0  0  0  0  0
    3.1600   -4.9010   29.3370 O   0  0  0  0  0  0  0  0  0  0  0  0
    2.5760   -3.7700   29.9090 C   0  0  0  0  0  0  0  0  0  0  0  0
    4.2310   -4.1120   27.3030 C   0  0  0  0  0  0  0  0  0  0  0  0
    6.7830   -2.6990   23.3300 C   0  0  0  0  0  0  0  0  0  0  0  0
    7.6620   -3.3150   22.2660 C   0  0  0  0  0  0  0  0  0  0  0  0
  1  2  1  0
  2  3  2  0
  2  4  1  0
  4  5  1  0
  5  6  1  0
  6  7  1  0
  7  8  1  0
  8  9  2  0
  8 10  1  0
 10 11  1  0
 11 12  1  0
 12 13  1  0
 13 14  1  6
 13 15  1  0
 15 16  1  6
 16 17  1  0
 10 18  1  0
 15 18  1  0
  7 19  1  0
  4 20  1  0
 19 20  1  0
M  END
