piperidine-amides-11990-covalent
     RDKit          3D

 26 28  0  0  0  0  0  0  0  0999 V2000
    7.0690   -3.2880   19.2360 C   0  0  0  0  0  0  0  0  0  0  0  0
    6.3340   -4.0510   20.2390 C   0  0  0  0  0  0  0  0  0  0  0  0
    5.3040   -4.6350   19.9180 O   0  0  0  0  0  0  0  0  0  0  0  0
    6.8200   -4.1770   21.5890 N   0  0  0  0  0  0  0  0  0  0  0  0
    6.5420   -5.3740   22.3320 C   0  0  0  0  0  0  0  0  0  0  0  0
    5.9490   -5.0520   23.6820 C   0  0  0  0  0  0  0  0  0  0  0  0
    5.9350   -3.5400   23.9020 C   0  0  0  0  0  0  0  0  0  0  0  0
    5.5390   -3.2230   25.3050 C   0  0  0  0  0  0  0  0  0  0  0  0
    4.6790   -2.3740   25.5990 O   0  0  0  0  0  0  0  0  0  0  0  0
    6.1860   -3.9610   26.3110 N   0  0  0  0  0  0  0  0  0  0  0  0
    5.8140   -3.8930   27.7030 C   0  0  0  0  0  0  0  0  0  0  0  0
    5.9050   -2.4830   28.2180 C   0  0  0  0  0  0  0  0  0  0  0  0
    6.6050   -1.4910   27.5220 C   0  0  0  0  0  0  0  0  0  0  0  0
    6.4620    0.0110   28.4700 S   0  0  0  0  0  0  0  0  0  0  0  0
    5.5100   -0.7010   29.7160 C   0  0  0  0  0  0  0  0  0  0  0  0
    5.0430   -0.0110   30.8150 C   0  0  0  0  0  0  0  0  0  0  0  0
    5.9620    0.0860   31.9370 C   0  0  0  0  0  0  0  0  0  0  0  0
    5.6740   -0.0350   33.2880 C   0  0  0  0  0  0  0  0  0  0  0  0
    6.5840    0.0600   34.3150 C   0  0  0  0  0  0  0  0  0  0  0  0
    7.9250    0.2970   34.0830 C   0  0  0  0  0  0  0  0  0  0  0  0
    9.0790    0.4200   35.3910 Cl  0  0  0  0  0  0  0  0  0  0  0  0
    8.2290    0.4260   32.6610 C   0  0  0  0  0  0  0  0  0  0  0  0
    7.2980    0.3270   31.6390 C   0  0  0  0  0  0  0  0  0  0  0  0
    5.3140   -2.0660   29.3940 N   0  0  0  0  0  0  0  0  0  0  0  0
    7.2750   -2.9300   23.5950 C   0  0  0  0  0  0  0  0  0  0  0  0
    7.5840   -3.1160   22.1510 C   0  0  0  0  0  0  0  0  0  0  0  0
  1  2  1  0
  2  3  2  0
  2  4  1  0
  4  5  1  0
  5  6  1  0
  6  7  1  0
  7  8  1  0
  8  9  2  0
  8 10  1  0
 10 11  1  0
 11 12  1  0
 12 13  2  0
 13 14  1  0
 14 15  1  0
 15 16  1  0
 16 17  1  0
 17 18  2  0
 18 19  1  0
 19 20  2  0
 20 21  1  0
 20 22  1  0
 17 23  1  0
 22 23  2  0
 12 24  1  0
 15 24  2  0
  7 25  1  0
  4 26  1  0
 25 26  1  0
M  END
