piperidine-amides-13941-covalent
     RDKit          3D

 26 28  0  0  0  0  0  0  0  0999 V2000
    7.1250   -3.2810   19.2100 C   0  0  0  0  0  0  0  0  0  0  0  0
    6.3190   -4.0150   20.2220 C   0  0  0  0  0  0  0  0  0  0  0  0
    5.2530   -4.5430   19.8780 O   0  0  0  0  0  0  0  0  0  0  0  0
    6.8160   -4.1340   21.5290 N   0  0  0  0  0  0  0  0  0  0  0  0
    7.7060   -3.1420   22.1050 C   0  0  0  0  0  0  0  0  0  0  0  0
    7.4440   -3.0520   23.6120 C   0  0  0  0  0  0  0  0  0  0  0  0
    6.0790   -3.6000   23.8490 C   0  0  0  0  0  0  0  0  0  0  0  0
    5.5690   -3.3640   25.2170 C   0  0  0  0  0  0  0  0  0  0  0  0
    4.4640   -2.8220   25.3090 O   0  0  0  0  0  0  0  0  0  0  0  0
    6.3340   -3.7430   26.3170 N   0  0  0  0  0  0  0  0  0  0  0  0
    6.3100   -4.9920   27.0040 C   0  0  1  0  0  0  0  0  0  0  0  0
    7.2750   -5.3020   27.9060 C   0  0  0  0  0  0  0  0  0  0  0  0
    8.2100   -4.3190   28.1050 C   0  0  0  0  0  0  0  0  0  0  0  0
    7.9120   -2.6480   28.2990 S   0  0  0  0  0  0  0  0  0  0  0  0
    6.3110   -2.7320   28.9160 C   0  0  0  0  0  0  0  0  0  0  0  0
    4.9580   -5.0620   27.6310 C   0  0  0  0  0  0  0  0  0  0  0  0
    3.9780   -4.0350   27.5520 N   0  0  0  0  0  0  0  0  0  0  0  0
    2.9160   -4.6170   28.3100 C   0  0  0  0  0  0  0  0  0  0  0  0
    1.5510   -4.1220   28.6650 C   0  0  0  0  0  0  0  0  0  0  0  0
    0.7200   -4.9270   29.4380 C   0  0  0  0  0  0  0  0  0  0  0  0
    1.0130   -6.3120   30.0000 C   0  0  0  0  0  0  0  0  0  0  0  0
    2.4550   -6.6800   29.5400 C   0  0  0  0  0  0  0  0  0  0  0  0
    3.2810   -5.8960   28.7850 C   0  0  0  0  0  0  0  0  0  0  0  0
    4.5350   -6.1460   28.3560 N   0  0  0  0  0  0  0  0  0  0  0  0
    5.9580   -5.0620   23.5750 C   0  0  0  0  0  0  0  0  0  0  0  0
    6.6100   -5.3730   22.2630 C   0  0  0  0  0  0  0  0  0  0  0  0
  1  2  1  0
  2  3  2  0
  2  4  1  0
  4  5  1  0
  5  6  1  0
  6  7  1  0
  7  8  1  0
  8  9  2  0
  8 10  1  0
 10 11  1  0
 11 12  1  1
 12 13  1  0
 13 14  1  0
 14 15  1  0
 11 16  1  0
 16 17  2  0
 17 18  1  0
 18 19  2  0
 19 20  1  0
 20 21  2  0
 21 22  1  0
 18 23  1  0
 22 23  2  0
 16 24  1  0
 23 24  1  0
  7 25  1  0
  4 26  1  0
 25 26  1  0
M  END
