piperidine-amides-34211-covalent
     RDKit          3D

 30 31  0  0  0  0  0  0  0  0999 V2000
    7.0920   -3.3140   19.3300 C   0  0  0  0  0  0  0  0  0  0  0  0
    6.3360   -4.0970   20.3200 C   0  0  0  0  0  0  0  0  0  0  0  0
    5.3260   -4.7370   19.9550 O   0  0  0  0  0  0  0  0  0  0  0  0
    6.7600   -4.1810   21.6600 N   0  0  0  0  0  0  0  0  0  0  0  0
    7.6590   -3.1550   22.1740 C   0  0  0  0  0  0  0  0  0  0  0  0
    7.4330   -3.0230   23.6880 C   0  0  0  0  0  0  0  0  0  0  0  0
    6.0860   -3.6470   23.9440 C   0  0  0  0  0  0  0  0  0  0  0  0
    5.5210   -3.3260   25.2790 C   0  0  0  0  0  0  0  0  0  0  0  0
    4.2960   -3.0970   25.3300 O   0  0  0  0  0  0  0  0  0  0  0  0
    6.3120   -3.2680   26.4560 N   0  0  0  0  0  0  0  0  0  0  0  0
    6.6400   -1.9560   26.9540 C   0  0  0  0  0  0  0  0  0  0  0  0
    6.1670   -4.3480   27.4330 C   0  0  0  0  0  0  0  0  0  0  0  0
    4.9170   -4.2680   27.9280 C   0  0  0  0  0  0  0  0  0  0  0  0
    4.1200   -3.3400   27.6010 O   0  0  0  0  0  0  0  0  0  0  0  0
    4.5210   -5.2700   28.8430 N   0  0  0  0  0  0  0  0  0  0  0  0
    3.1410   -5.4540   29.0360 C   0  0  0  0  0  0  0  0  0  0  0  0
    2.9790   -5.8090   30.3700 C   0  0  0  0  0  0  0  0  0  0  0  0
    3.8980   -6.7970   30.8370 N   0  0  0  0  0  0  0  0  0  0  0  0
    3.7770   -7.4080   32.1590 C   0  0  0  0  0  0  0  0  0  0  0  0
    5.0720   -7.1270   32.8950 C   0  0  0  0  0  0  0  0  0  0  0  0
    6.1930   -7.0530   32.1460 O   0  0  0  0  0  0  0  0  0  0  0  0
    5.1300   -6.9600   34.2270 N   0  0  0  0  0  0  0  0  0  0  0  0
    6.2580   -7.4380   34.9990 C   0  0  0  0  0  0  0  0  0  0  0  0
    7.5150   -6.7050   35.3560 C   0  0  0  0  0  0  0  0  0  0  0  0
    6.3780   -6.8000   36.3770 C   0  0  0  0  0  0  0  0  0  0  0  0
    6.5230   -8.8710   34.9440 C   0  0  0  0  0  0  0  0  0  0  0  0
    4.6880   -7.4800   29.8830 C   0  0  0  0  0  0  0  0  0  0  0  0
    5.1070   -6.5580   28.7460 C   0  0  0  0  0  0  0  0  0  0  0  0
    6.1130   -5.1410   23.7630 C   0  0  0  0  0  0  0  0  0  0  0  0
    6.6210   -5.4470   22.3460 C   0  0  0  0  0  0  0  0  0  0  0  0
  1  2  1  0
  2  3  2  0
  2  4  1  0
  4  5  1  0
  5  6  1  0
  6  7  1  0
  7  8  1  0
  8  9  2  0
  8 10  1  0
 10 11  1  0
 10 12  1  0
 12 13  1  0
 13 14  2  0
 13 15  1  0
 15 16  1  0
 16 17  1  0
 17 18  1  0
 18 19  1  0
 19 20  1  0
 20 21  2  0
 20 22  1  0
 23 22  1  0
 23 24  1  0
 23 25  1  0
 23 26  1  0
 18 27  1  0
 15 28  1  0
 27 28  1  0
  7 29  1  0
  4 30  1  0
 29 30  1  0
M  END
