piperidine-amides-9901-covalent
     RDKit          3D

 27 29  0  0  0  0  0  0  0  0999 V2000
    7.0340   -3.3390   19.3660 C   0  0  0  0  0  0  0  0  0  0  0  0
    6.3720   -4.1730   20.3760 C   0  0  0  0  0  0  0  0  0  0  0  0
    5.3760   -4.8340   19.9780 O   0  0  0  0  0  0  0  0  0  0  0  0
    6.8620   -4.2470   21.6870 N   0  0  0  0  0  0  0  0  0  0  0  0
    7.7400   -3.2250   22.2240 C   0  0  0  0  0  0  0  0  0  0  0  0
    7.4560   -3.0740   23.6860 C   0  0  0  0  0  0  0  0  0  0  0  0
    6.0750   -3.5710   24.0030 C   0  0  0  0  0  0  0  0  0  0  0  0
    5.6430   -3.2160   25.3760 C   0  0  0  0  0  0  0  0  0  0  0  0
    4.4140   -3.1740   25.5930 O   0  0  0  0  0  0  0  0  0  0  0  0
    6.5170   -2.9190   26.4450 N   0  0  0  0  0  0  0  0  0  0  0  0
    6.4850   -1.6420   27.1200 C   0  0  0  0  0  0  0  0  0  0  0  0
    5.7200   -0.5110   26.4470 C   0  0  0  0  0  0  0  0  0  0  0  0
    5.6400    0.7370   27.0300 C   0  0  0  0  0  0  0  0  0  0  0  0
    6.2670    0.9540   28.2370 C   0  0  0  0  0  0  0  0  0  0  0  0
    6.3330    2.0760   28.9980 C   0  0  0  0  0  0  0  0  0  0  0  0
    7.0540    1.8760   30.1250 C   0  0  0  0  0  0  0  0  0  0  0  0
    7.4890    0.5880   30.1240 N   0  0  0  0  0  0  0  0  0  0  0  0
    8.2330    0.0330   31.0960 C   0  0  0  0  0  0  0  0  0  0  0  0
    7.3670    0.1200   32.3280 C   0  0  0  0  0  0  0  0  0  0  0  0
    7.8880    0.2110   33.5960 O   0  0  0  0  0  0  0  0  0  0  0  0
    5.9550    0.1030   32.1010 N   0  0  0  0  0  0  0  0  0  0  0  0
    5.2340   -0.0500   33.2280 C   0  0  0  0  0  0  0  0  0  0  0  0
    5.4570   -0.6540   31.0310 C   0  0  0  0  0  0  0  0  0  0  0  0
    6.9690   -0.0490   28.8690 C   0  0  0  0  0  0  0  0  0  0  0  0
    7.0770   -1.3090   28.3340 C   0  0  0  0  0  0  0  0  0  0  0  0
    6.0510   -5.0810   23.8010 C   0  0  0  0  0  0  0  0  0  0  0  0
    6.7240   -5.4590   22.4830 C   0  0  0  0  0  0  0  0  0  0  0  0
  1  2  1  0
  2  3  2  0
  2  4  1  0
  4  5  1  0
  5  6  1  0
  6  7  1  0
  7  8  1  0
  8  9  2  0
  8 10  1  0
 10 11  1  0
 11 12  2  0
 12 13  1  0
 13 14  2  0
 14 15  1  0
 15 16  2  0
 16 17  1  0
 17 18  1  0
 18 19  1  0
 19 20  2  0
 19 21  1  0
 21 22  1  0
 21 23  1  0
 14 24  1  0
 17 24  1  0
 11 25  1  0
 24 25  2  0
  7 26  1  0
  4 27  1  0
 26 27  1  0
M  END
