piperidine-amides-29683-covalent
     RDKit          3D

 27 29  0  0  0  0  0  0  0  0999 V2000
    7.7040   -3.3080   19.2880 C   0  0  0  0  0  0  0  0  0  0  0  0
    6.7490   -3.9680   20.2060 C   0  0  0  0  0  0  0  0  0  0  0  0
    5.6000   -4.2740   19.8410 O   0  0  0  0  0  0  0  0  0  0  0  0
    7.1630   -4.3020   21.5390 N   0  0  0  0  0  0  0  0  0  0  0  0
    6.4960   -5.3270   22.2910 C   0  0  0  0  0  0  0  0  0  0  0  0
    5.6020   -4.7190   23.3480 C   0  0  0  0  0  0  0  0  0  0  0  0
    6.3520   -3.6360   24.1340 C   0  0  0  0  0  0  0  0  0  0  0  0
    5.3510   -2.8650   24.9450 C   0  0  0  0  0  0  0  0  0  0  0  0
    4.2010   -3.2930   25.1530 O   0  0  0  0  0  0  0  0  0  0  0  0
    5.7150   -1.6030   25.5040 N   0  0  0  0  0  0  0  0  0  0  0  0
    7.1200   -1.4410   25.7410 C   0  0  0  0  0  0  0  0  0  0  0  0
    4.7650   -0.9820   26.4280 C   0  0  0  0  0  0  0  0  0  0  0  0
    4.8490   -1.5590   27.6390 C   0  0  0  0  0  0  0  0  0  0  0  0
    5.6610   -2.5680   27.6010 C   0  0  0  0  0  0  0  0  0  0  0  0
    5.7980   -3.1610   28.7110 C   0  0  0  0  0  0  0  0  0  0  0  0
    6.7040   -4.1580   28.3520 C   0  0  0  0  0  0  0  0  0  0  0  0
    7.4790   -3.8320   27.3130 C   0  0  0  0  0  0  0  0  0  0  0  0
    8.3850   -4.5720   26.7260 C   0  0  0  0  0  0  0  0  0  0  0  0
    8.7110   -5.8290   27.0740 C   0  0  0  0  0  0  0  0  0  0  0  0
    9.6420   -6.4760   26.3740 O   0  0  0  0  0  0  0  0  0  0  0  0
    9.5650   -6.0110   25.0640 C   0  0  0  0  0  0  0  0  0  0  0  0
    7.8220   -6.1990   28.2880 C   0  0  0  0  0  0  0  0  0  0  0  0
    6.8690   -5.3700   28.8740 C   0  0  0  0  0  0  0  0  0  0  0  0
    4.9930   -2.5130   29.6730 N   0  0  0  0  0  0  0  0  0  0  0  0
    4.3590   -1.4500   28.9720 O   0  0  0  0  0  0  0  0  0  0  0  0
    7.0720   -2.6640   23.2180 C   0  0  0  0  0  0  0  0  0  0  0  0
    8.0100   -3.4110   22.2690 C   0  0  0  0  0  0  0  0  0  0  0  0
  1  2  1  0
  2  3  2  0
  2  4  1  0
  4  5  1  0
  5  6  1  0
  6  7  1  0
  7  8  1  0
  8  9  2  0
  8 10  1  0
 10 11  1  0
 10 12  1  0
 12 13  1  0
 13 14  2  0
 14 15  1  0
 15 16  1  0
 16 17  2  0
 17 18  1  0
 18 19  2  0
 19 20  1  0
 20 21  1  0
 19 22  1  0
 16 23  1  0
 22 23  2  0
 15 24  2  0
 13 25  1  0
 24 25  1  0
  7 26  1  0
  4 27  1  0
 26 27  1  0
M  END
