piperidine-amides-3567-covalent
     RDKit          3D

 19 19  0  0  0  0  0  0  0  0999 V2000
    7.1460   -3.2760   19.1340 C   0  0  0  0  0  0  0  0  0  0  0  0
    6.3760   -3.9860   20.1460 C   0  0  0  0  0  0  0  0  0  0  0  0
    5.2920   -4.4950   19.8680 O   0  0  0  0  0  0  0  0  0  0  0  0
    6.9210   -4.1500   21.4500 N   0  0  0  0  0  0  0  0  0  0  0  0
    6.5980   -5.2970   22.2530 C   0  0  0  0  0  0  0  0  0  0  0  0
    5.9600   -4.8570   23.5380 C   0  0  0  0  0  0  0  0  0  0  0  0
    6.7350   -3.6680   24.1070 C   0  0  0  0  0  0  0  0  0  0  0  0
    5.9490   -3.0100   25.1670 C   0  0  0  0  0  0  0  0  0  0  0  0
    4.9070   -2.3600   24.9380 O   0  0  0  0  0  0  0  0  0  0  0  0
    6.4030   -3.1540   26.4820 N   0  0  0  0  0  0  0  0  0  0  0  0
    5.6950   -4.1630   27.1800 C   0  0  1  0  0  0  0  0  0  0  0  0
    5.7250   -5.4020   26.3350 C   0  0  0  0  0  0  0  0  0  0  0  0
    6.3180   -4.5130   28.4390 C   0  0  1  0  0  0  0  0  0  0  0  0
    5.7910   -4.1660   29.5070 O   0  0  0  0  0  0  0  0  0  0  0  0
    6.6240   -5.8500   28.4920 C   0  0  0  0  0  0  0  0  0  0  0  0
    5.9980   -6.5810   29.4820 C   0  0  0  0  0  0  0  0  0  0  0  0
    7.9410   -6.0160   28.2630 C   0  0  0  0  0  0  0  0  0  0  0  0
    7.1020   -2.6200   23.1020 C   0  0  0  0  0  0  0  0  0  0  0  0
    7.7910   -3.1460   22.0550 C   0  0  0  0  0  0  0  0  0  0  0  0
  1  2  1  0
  2  3  2  0
  2  4  1  0
  4  5  1  0
  5  6  1  0
  6  7  1  0
  7  8  1  0
  8  9  2  0
  8 10  1  0
 10 11  1  0
 11 12  1  6
 11 13  1  0
 13 14  1  1
 13 15  1  0
 15 16  1  0
 15 17  1  0
  7 18  1  0
  4 19  1  0
 18 19  1  0
M  END
