piperidine-amides-21644-covalent
     RDKit          3D

 23 25  0  0  0  0  0  0  0  0999 V2000
    7.0140   -3.4040   19.4330 C   0  0  0  0  0  0  0  0  0  0  0  0
    6.3290   -4.2670   20.4020 C   0  0  0  0  0  0  0  0  0  0  0  0
    5.3170   -4.8760   19.9750 O   0  0  0  0  0  0  0  0  0  0  0  0
    6.8120   -4.4340   21.7030 N   0  0  0  0  0  0  0  0  0  0  0  0
    6.4400   -5.5500   22.5350 C   0  0  0  0  0  0  0  0  0  0  0  0
    5.6210   -5.0310   23.6960 C   0  0  0  0  0  0  0  0  0  0  0  0
    6.2430   -3.8410   24.4090 C   0  0  0  0  0  0  0  0  0  0  0  0
    5.2930   -3.2530   25.4320 C   0  0  0  0  0  0  0  0  0  0  0  0
    4.2790   -2.7230   24.9420 O   0  0  0  0  0  0  0  0  0  0  0  0
    5.3740   -3.2310   26.8810 N   0  0  0  0  0  0  0  0  0  0  0  0
    4.6090   -4.1980   27.6080 C   0  0  0  0  0  0  0  0  0  0  0  0
    5.4240   -4.3350   28.8350 C   0  0  0  0  0  0  0  0  0  0  0  0
    6.4570   -3.4750   28.8100 C   0  0  0  0  0  0  0  0  0  0  0  0
    6.5430   -2.7560   27.6310 C   0  0  1  0  0  0  0  0  0  0  0  0
    7.3900   -3.1770   26.7970 C   0  0  0  0  0  0  0  0  0  0  0  0
    7.7300   -2.6250   25.6420 N   0  0  0  0  0  0  0  0  0  0  0  0
    8.5060   -3.5140   25.2130 C   0  0  0  0  0  0  0  0  0  0  0  0
    9.2830   -4.0080   24.2860 C   0  0  0  0  0  0  0  0  0  0  0  0
    8.8200   -4.7400   26.0500 C   0  0  0  0  0  0  0  0  0  0  0  0
    9.6530   -5.9640   25.9360 C   0  0  0  0  0  0  0  0  0  0  0  0
    8.0120   -4.4270   27.1150 N   0  0  0  0  0  0  0  0  0  0  0  0
    6.6230   -2.7420   23.3690 C   0  0  0  0  0  0  0  0  0  0  0  0
    7.5640   -3.3780   22.3550 C   0  0  0  0  0  0  0  0  0  0  0  0
  1  2  1  0
  2  3  2  0
  2  4  1  0
  4  5  1  0
  5  6  1  0
  6  7  1  0
  7  8  1  0
  8  9  2  0
  8 10  1  0
 10 11  1  0
 11 12  1  0
 12 13  1  0
 10 14  1  0
 13 14  1  0
 14 15  1  6
 15 16  2  0
 16 17  1  0
 17 18  1  0
 17 19  2  0
 19 20  1  0
 15 21  1  0
 19 21  1  0
  7 22  1  0
  4 23  1  0
 22 23  1  0
M  END
