piperidine-amides-34037-covalent
     RDKit          3D

 28 29  0  0  0  0  0  0  0  0999 V2000
    7.1480   -3.2520   19.2370 C   0  0  0  0  0  0  0  0  0  0  0  0
    6.3820   -4.0420   20.2120 C   0  0  0  0  0  0  0  0  0  0  0  0
    5.2950   -4.5680   19.8920 O   0  0  0  0  0  0  0  0  0  0  0  0
    6.8930   -4.2580   21.4900 N   0  0  0  0  0  0  0  0  0  0  0  0
    7.6630   -3.2210   22.1410 C   0  0  0  0  0  0  0  0  0  0  0  0
    6.7770   -2.6780   23.2530 C   0  0  0  0  0  0  0  0  0  0  0  0
    6.5600   -3.8560   24.1680 C   0  0  0  0  0  0  0  0  0  0  0  0
    5.8170   -3.4610   25.3770 C   0  0  0  0  0  0  0  0  0  0  0  0
    4.5950   -3.7210   25.4330 O   0  0  0  0  0  0  0  0  0  0  0  0
    6.4890   -2.7830   26.4250 N   0  0  0  0  0  0  0  0  0  0  0  0
    6.1860   -3.0590   27.8070 C   0  0  0  0  0  0  0  0  0  0  0  0
    6.5200   -4.4850   28.1710 C   0  0  0  0  0  0  0  0  0  0  0  0
    5.7600   -5.1480   29.0820 C   0  0  0  0  0  0  0  0  0  0  0  0
    4.5920   -4.7310   29.5830 C   0  0  0  0  0  0  0  0  0  0  0  0
    4.0200   -5.5630   30.4870 C   0  0  0  0  0  0  0  0  0  0  0  0
    4.5120   -6.7600   30.9260 C   0  0  0  0  0  0  0  0  0  0  0  0
    3.5510   -7.6270   32.1100 Cl  0  0  0  0  0  0  0  0  0  0  0  0
    5.8370   -7.3970   30.4600 C   0  0  0  0  0  0  0  0  0  0  0  0
    6.3240   -6.3310   29.4610 C   0  0  0  0  0  0  0  0  0  0  0  0
    6.7000   -1.4020   26.7890 C   0  0  0  0  0  0  0  0  0  0  0  0
    5.4830   -0.5910   26.9580 C   0  0  2  0  0  0  0  0  0  0  0  0
    5.1450    0.1200   25.9730 O   0  0  0  0  0  0  0  0  0  0  0  0
    5.6460    0.3240   28.0120 C   0  0  0  0  0  0  0  0  0  0  0  0
    5.7330    1.6190   27.5800 F   0  0  0  0  0  0  0  0  0  0  0  0
    6.6160    0.1040   28.9510 F   0  0  0  0  0  0  0  0  0  0  0  0
    4.4440    0.2720   28.6940 F   0  0  0  0  0  0  0  0  0  0  0  0
    5.7180   -4.9000   23.4410 C   0  0  0  0  0  0  0  0  0  0  0  0
    6.4840   -5.4130   22.2520 C   0  0  0  0  0  0  0  0  0  0  0  0
  1  2  1  0
  2  3  2  0
  2  4  1  0
  4  5  1  0
  5  6  1  0
  6  7  1  0
  7  8  1  0
  8  9  2  0
  8 10  1  0
 10 11  1  0
 11 12  1  0
 12 13  1  0
 13 14  2  0
 14 15  1  0
 15 16  2  0
 16 17  1  0
 16 18  1  0
 13 19  1  0
 18 19  2  0
 10 20  1  0
 20 21  1  0
 21 22  1  6
 21 23  1  0
 23 24  1  0
 23 25  1  0
 23 26  1  0
  7 27  1  0
  4 28  1  0
 27 28  1  0
M  END
