piperidine-amides-31777-covalent
     RDKit          3D

 27 30  0  0  0  0  0  0  0  0999 V2000
    6.9900   -3.4310   19.4030 C   0  0  0  0  0  0  0  0  0  0  0  0
    6.3570   -4.2510   20.4250 C   0  0  0  0  0  0  0  0  0  0  0  0
    5.4200   -5.0040   20.0190 O   0  0  0  0  0  0  0  0  0  0  0  0
    6.7430   -4.2840   21.8020 N   0  0  0  0  0  0  0  0  0  0  0  0
    7.7050   -3.2210   22.2470 C   0  0  0  0  0  0  0  0  0  0  0  0
    7.5090   -3.1200   23.8180 C   0  0  0  0  0  0  0  0  0  0  0  0
    6.2310   -3.8540   24.0900 C   0  0  0  0  0  0  0  0  0  0  0  0
    5.3290   -3.2960   25.3090 C   0  0  0  0  0  0  0  0  0  0  0  0
    4.4150   -2.6710   24.8070 O   0  0  0  0  0  0  0  0  0  0  0  0
    5.7180   -3.5970   26.5010 N   0  0  0  0  0  0  0  0  0  0  0  0
    6.4130   -3.7570   27.6200 C   0  0  0  0  0  0  0  0  0  0  0  0
    6.6260   -4.7800   28.4790 C   0  0  0  0  0  0  0  0  0  0  0  0
    5.4150   -4.7200   29.1240 C   0  0  0  0  0  0  0  0  0  0  0  0
    5.0490   -5.6260   30.2410 C   0  0  0  0  0  0  0  0  0  0  0  0
    3.9740   -5.4770   31.1700 N   0  0  0  0  0  0  0  0  0  0  0  0
    3.9050   -6.5050   32.1850 C   0  0  0  0  0  0  0  0  0  0  0  0
    2.9010   -6.4470   33.1520 C   0  0  0  0  0  0  0  0  0  0  0  0
    2.6230   -7.3400   34.2680 C   0  0  0  0  0  0  0  0  0  0  0  0
    1.6370   -7.2780   35.2140 F   0  0  0  0  0  0  0  0  0  0  0  0
    3.7570   -8.4500   34.1530 C   0  0  0  0  0  0  0  0  0  0  0  0
    4.8640   -8.4690   33.0450 C   0  0  0  0  0  0  0  0  0  0  0  0
    4.7900   -7.4810   32.1910 C   0  0  0  0  0  0  0  0  0  0  0  0
    5.8730   -7.1370   30.7530 S   0  0  0  0  0  0  0  0  0  0  0  0
    4.3050   -4.6640   28.2070 C   0  0  0  0  0  0  0  0  0  0  0  0
    4.3930   -3.7750   27.1390 C   0  0  0  0  0  0  0  0  0  0  0  0
    6.2670   -5.3180   23.8440 C   0  0  0  0  0  0  0  0  0  0  0  0
    6.6970   -5.5420   22.5270 C   0  0  0  0  0  0  0  0  0  0  0  0
  1  2  1  0
  2  3  2  0
  2  4  1  0
  4  5  1  0
  5  6  1  0
  6  7  1  0
  7  8  1  0
  8  9  2  0
  8 10  1  0
 10 11  1  0
 11 12  1  0
 12 13  1  0
 13 14  1  0
 14 15  2  0
 15 16  1  0
 16 17  2  0
 17 18  1  0
 18 19  1  0
 18 20  2  0
 20 21  1  0
 16 22  1  0
 21 22  2  0
 14 23  1  0
 22 23  1  0
 13 24  1  0
 10 25  1  0
 24 25  1  0
  7 26  1  0
  4 27  1  0
 26 27  1  0
M  END
