piperidine-amides-7165-covalent
     RDKit          3D

 20 21  0  0  0  0  0  0  0  0999 V2000
    7.0410   -3.3340   19.2880 C   0  0  0  0  0  0  0  0  0  0  0  0
    6.3690   -4.1540   20.2990 C   0  0  0  0  0  0  0  0  0  0  0  0
    5.3230   -4.7520   19.9460 O   0  0  0  0  0  0  0  0  0  0  0  0
    6.9160   -4.2920   21.5750 N   0  0  0  0  0  0  0  0  0  0  0  0
    7.6900   -3.2350   22.1840 C   0  0  0  0  0  0  0  0  0  0  0  0
    6.9330   -2.7440   23.3810 C   0  0  0  0  0  0  0  0  0  0  0  0
    6.5510   -3.8830   24.2720 C   0  0  0  0  0  0  0  0  0  0  0  0
    5.8050   -3.3940   25.4630 C   0  0  0  0  0  0  0  0  0  0  0  0
    4.5460   -3.4340   25.4680 O   0  0  0  0  0  0  0  0  0  0  0  0
    6.4590   -2.8720   26.5990 N   0  0  0  0  0  0  0  0  0  0  0  0
    6.0650   -1.6200   27.2090 C   0  0  1  0  0  0  0  0  0  0  0  0
    6.9500   -1.4240   28.4190 C   0  0  0  0  0  0  0  0  0  0  0  0
    6.7340   -0.3800   29.2540 C   0  0  0  0  0  0  0  0  0  0  0  0
    6.2410    0.7920   28.7250 C   0  0  2  0  0  0  0  0  0  0  0  0
    5.2830    1.4630   29.4760 C   0  0  0  0  0  0  0  0  0  0  0  0
    4.3890    0.7270   30.1590 N   0  0  0  0  0  0  0  0  0  0  0  0
    5.6660    0.6960   27.3150 C   0  0  0  0  0  0  0  0  0  0  0  0
    5.8570   -0.4480   26.5370 C   0  0  0  0  0  0  0  0  0  0  0  0
    5.7110   -4.9170   23.5150 C   0  0  0  0  0  0  0  0  0  0  0  0
    6.5620   -5.4400   22.3590 C   0  0  0  0  0  0  0  0  0  0  0  0
  1  2  1  0
  2  3  2  0
  2  4  1  0
  4  5  1  0
  5  6  1  0
  6  7  1  0
  7  8  1  0
  8  9  2  0
  8 10  1  0
 11 10  1  6
 11 12  1  0
 12 13  1  0
 13 14  1  0
 14 15  1  1
 15 16  3  0
 14 17  1  0
 11 18  1  0
 17 18  1  0
  7 19  1  0
  4 20  1  0
 19 20  1  0
M  END
