piperidine-amides-13120-covalent
     RDKit          3D

 23 25  0  0  0  0  0  0  0  0999 V2000
    7.1440   -3.2500   19.1650 C   0  0  0  0  0  0  0  0  0  0  0  0
    6.3840   -3.9960   20.1940 C   0  0  0  0  0  0  0  0  0  0  0  0
    5.2880   -4.4810   19.8540 O   0  0  0  0  0  0  0  0  0  0  0  0
    6.9150   -4.1880   21.4710 N   0  0  0  0  0  0  0  0  0  0  0  0
    7.6480   -3.1310   22.0930 C   0  0  0  0  0  0  0  0  0  0  0  0
    7.1290   -2.7150   23.3910 C   0  0  0  0  0  0  0  0  0  0  0  0
    6.5410   -3.8010   24.1900 C   0  0  0  0  0  0  0  0  0  0  0  0
    5.7800   -3.2280   25.3220 C   0  0  0  0  0  0  0  0  0  0  0  0
    4.5660   -3.0070   25.1660 O   0  0  0  0  0  0  0  0  0  0  0  0
    6.4030   -2.9380   26.5460 N   0  0  0  0  0  0  0  0  0  0  0  0
    6.1820   -3.7820   27.7360 C   0  0  0  0  0  0  0  0  0  0  0  0
    5.7520   -5.1630   27.3680 C   0  0  0  0  0  0  0  0  0  0  0  0
    5.4570   -6.0410   28.4770 C   0  0  0  0  0  0  0  0  0  0  0  0
    6.3900   -6.3870   29.4020 C   0  0  0  0  0  0  0  0  0  0  0  0
    5.7980   -7.4730   30.7050 S   0  0  0  0  0  0  0  0  0  0  0  0
    4.2390   -7.3870   29.8580 C   0  0  0  0  0  0  0  0  0  0  0  0
    3.1010   -8.0210   30.2560 C   0  0  0  0  0  0  0  0  0  0  0  0
    1.9390   -7.8900   29.5230 C   0  0  0  0  0  0  0  0  0  0  0  0
    1.8310   -7.1380   28.3750 C   0  0  0  0  0  0  0  0  0  0  0  0
    2.9770   -6.4760   27.9480 C   0  0  0  0  0  0  0  0  0  0  0  0
    4.2140   -6.6080   28.7160 C   0  0  0  0  0  0  0  0  0  0  0  0
    5.6910   -4.7610   23.4320 C   0  0  0  0  0  0  0  0  0  0  0  0
    6.4880   -5.2990   22.2810 C   0  0  0  0  0  0  0  0  0  0  0  0
  1  2  1  0
  2  3  2  0
  2  4  1  0
  4  5  1  0
  5  6  1  0
  6  7  1  0
  7  8  1  0
  8  9  2  0
  8 10  1  0
 10 11  1  0
 11 12  1  0
 12 13  1  0
 13 14  2  0
 14 15  1  0
 15 16  1  0
 16 17  1  0
 17 18  2  0
 18 19  1  0
 19 20  2  0
 13 21  1  0
 16 21  2  0
 20 21  1  0
  7 22  1  0
  4 23  1  0
 22 23  1  0
M  END
