piperidine-amides-19071-covalent
     RDKit          3D

 22 24  0  0  0  0  0  0  0  0999 V2000
    7.0260   -3.4270   19.3530 C   0  0  0  0  0  0  0  0  0  0  0  0
    6.4040   -4.2370   20.3790 C   0  0  0  0  0  0  0  0  0  0  0  0
    5.4050   -4.9310   20.0110 O   0  0  0  0  0  0  0  0  0  0  0  0
    6.8780   -4.3290   21.7170 N   0  0  0  0  0  0  0  0  0  0  0  0
    6.6980   -5.6010   22.4460 C   0  0  0  0  0  0  0  0  0  0  0  0
    5.8260   -5.1120   23.6730 C   0  0  0  0  0  0  0  0  0  0  0  0
    6.5260   -3.9140   24.3000 C   0  0  0  0  0  0  0  0  0  0  0  0
    5.6280   -3.3010   25.4750 C   0  0  0  0  0  0  0  0  0  0  0  0
    4.7630   -2.5910   24.9870 O   0  0  0  0  0  0  0  0  0  0  0  0
    6.0080   -3.6950   26.6320 N   0  0  0  0  0  0  0  0  0  0  0  0
    6.6350   -4.0810   27.7480 C   0  0  0  0  0  0  0  0  0  0  0  0
    7.3560   -5.1560   28.1660 C   0  0  0  0  0  0  0  0  0  0  0  0
    6.3800   -5.8380   28.8440 C   0  0  0  0  0  0  0  0  0  0  0  0
    5.2070   -4.9470   28.8520 C   0  0  0  0  0  0  0  0  0  0  0  0
    4.1900   -5.0580   29.9110 C   0  0  0  0  0  0  0  0  0  0  0  0
    4.2020   -5.9660   30.9810 C   0  0  0  0  0  0  0  0  0  0  0  0
    2.9410   -4.3150   30.1680 C   0  0  0  0  0  0  0  0  0  0  0  0
    2.8300   -3.2630   29.0200 C   0  0  0  0  0  0  0  0  0  0  0  0
    3.9110   -3.0850   27.8210 C   0  0  0  0  0  0  0  0  0  0  0  0
    5.0580   -3.8910   27.7320 C   0  0  0  0  0  0  0  0  0  0  0  0
    6.9010   -2.8110   23.3120 C   0  0  0  0  0  0  0  0  0  0  0  0
    7.6820   -3.2990   22.3230 C   0  0  0  0  0  0  0  0  0  0  0  0
  1  2  1  0
  2  3  2  0
  2  4  1  0
  4  5  1  0
  5  6  1  0
  6  7  1  0
  7  8  1  0
  8  9  2  0
  8 10  1  0
 10 11  1  0
 11 12  1  0
 12 13  1  0
 13 14  1  0
 14 15  2  0
 15 16  1  0
 15 17  1  0
 17 18  2  0
 18 19  1  0
 10 20  1  0
 14 20  1  0
 19 20  2  0
  7 21  1  0
  4 22  1  0
 21 22  1  0
M  END
