piperidine-amides-27529-covalent
     RDKit          3D

 26 29  0  0  0  0  0  0  0  0999 V2000
    7.1180   -3.3590   19.3460 C   0  0  0  0  0  0  0  0  0  0  0  0
    6.3880   -4.1770   20.3110 C   0  0  0  0  0  0  0  0  0  0  0  0
    5.2940   -4.6590   19.9210 O   0  0  0  0  0  0  0  0  0  0  0  0
    6.9310   -4.4430   21.5640 N   0  0  0  0  0  0  0  0  0  0  0  0
    6.3660   -5.4890   22.3690 C   0  0  0  0  0  0  0  0  0  0  0  0
    5.3820   -4.8310   23.3000 C   0  0  0  0  0  0  0  0  0  0  0  0
    6.0140   -3.6760   24.0450 C   0  0  0  0  0  0  0  0  0  0  0  0
    5.0710   -3.0280   24.9990 C   0  0  0  0  0  0  0  0  0  0  0  0
    3.9100   -2.7370   24.6750 O   0  0  0  0  0  0  0  0  0  0  0  0
    5.5530   -2.7780   26.2690 N   0  0  0  0  0  0  0  0  0  0  0  0
    6.4690   -3.7090   26.5030 C   0  0  0  0  0  0  0  0  0  0  0  0
    7.2490   -4.3120   25.4640 C   0  0  0  0  0  0  0  0  0  0  0  0
    8.0500   -5.1990   26.0470 C   0  0  0  0  0  0  0  0  0  0  0  0
    8.0370   -5.4010   27.4630 C   0  0  0  0  0  0  0  0  0  0  0  0
    8.8700   -6.2320   27.9390 C   0  0  0  0  0  0  0  0  0  0  0  0
    7.1900   -4.7980   28.6290 C   0  0  0  0  0  0  0  0  0  0  0  0
    6.8810   -4.2940   27.5230 C   0  0  0  0  0  0  0  0  0  0  0  0
    5.7840   -3.4650   28.2400 C   0  0  2  0  0  0  0  0  0  0  0  0
    5.1860   -4.5940   29.0800 C   0  0  0  0  0  0  0  0  0  0  0  0
    3.8880   -4.2380   29.4870 N   0  0  0  0  0  0  0  0  0  0  0  0
    3.7770   -3.4030   30.6640 C   0  0  0  0  0  0  0  0  0  0  0  0
    2.9910   -4.0030   28.3500 C   0  0  0  0  0  0  0  0  0  0  0  0
    3.4590   -3.4020   27.2030 C   0  0  0  0  0  0  0  0  0  0  0  0
    4.8070   -2.7350   27.4750 C   0  0  2  0  0  0  0  0  0  0  0  0
    6.6160   -2.6570   23.1200 C   0  0  0  0  0  0  0  0  0  0  0  0
    7.6410   -3.3730   22.2420 C   0  0  0  0  0  0  0  0  0  0  0  0
  1  2  1  0
  2  3  2  0
  2  4  1  0
  4  5  1  0
  5  6  1  0
  6  7  1  0
  7  8  1  0
  8  9  2  0
  8 10  1  0
 10 11  1  0
 11 12  2  0
 12 13  1  0
 13 14  2  0
 14 15  1  0
 14 16  1  0
 11 17  1  0
 16 17  2  0
 17 18  1  0
 18 19  1  1
 19 20  1  0
 20 21  1  0
 20 22  1  0
 22 23  1  0
 10 24  1  0
 18 24  1  0
 24 23  1  6
  7 25  1  0
  4 26  1  0
 25 26  1  0
M  END
