piperidine-amides-25626-covalent
     RDKit          3D

 25 27  0  0  0  0  0  0  0  0999 V2000
    7.0220   -3.2590   19.2150 C   0  0  0  0  0  0  0  0  0  0  0  0
    6.3070   -4.0810   20.2300 C   0  0  0  0  0  0  0  0  0  0  0  0
    5.2410   -4.5690   19.8780 O   0  0  0  0  0  0  0  0  0  0  0  0
    6.8470   -4.3280   21.4950 N   0  0  0  0  0  0  0  0  0  0  0  0
    6.4390   -5.4820   22.2400 C   0  0  0  0  0  0  0  0  0  0  0  0
    5.6010   -5.0050   23.3850 C   0  0  0  0  0  0  0  0  0  0  0  0
    6.4530   -4.0970   24.2630 C   0  0  0  0  0  0  0  0  0  0  0  0
    5.6440   -3.7250   25.4540 C   0  0  0  0  0  0  0  0  0  0  0  0
    4.9480   -2.7000   25.4040 O   0  0  0  0  0  0  0  0  0  0  0  0
    5.6470   -4.5060   26.6420 N   0  0  0  0  0  0  0  0  0  0  0  0
    5.7200   -5.9350   26.5850 C   0  0  0  0  0  0  0  0  0  0  0  0
    4.7550   -6.0970   27.6980 C   0  0  0  0  0  0  0  0  0  0  0  0
    3.6070   -6.8320   27.5950 C   0  0  0  0  0  0  0  0  0  0  0  0
    3.0180   -7.3540   26.5060 C   0  0  0  0  0  0  0  0  0  0  0  0
    1.8630   -8.0540   26.7420 C   0  0  0  0  0  0  0  0  0  0  0  0
    1.2190   -8.2720   28.1140 C   0  0  0  0  0  0  0  0  0  0  0  0
    2.0420   -7.6060   29.1800 C   0  0  0  0  0  0  0  0  0  0  0  0
    1.3600   -7.8590   30.5000 C   0  0  0  0  0  0  0  0  0  0  0  0
    1.0960   -6.6950   31.1970 O   0  0  0  0  0  0  0  0  0  0  0  0
    1.0820   -9.1770   30.8420 O   0  0  0  0  0  0  0  0  0  0  0  0
    1.2340   -9.7130   32.1250 C   0  0  0  0  0  0  0  0  0  0  0  0
    3.1950   -6.9140   28.8990 C   0  0  0  0  0  0  0  0  0  0  0  0
    4.5410   -4.5650   27.6490 C   0  0  0  0  0  0  0  0  0  0  0  0
    6.8750   -2.8740   23.4700 C   0  0  0  0  0  0  0  0  0  0  0  0
    7.6070   -3.3340   22.2280 C   0  0  0  0  0  0  0  0  0  0  0  0
  1  2  1  0
  2  3  2  0
  2  4  1  0
  4  5  1  0
  5  6  1  0
  6  7  1  0
  7  8  1  0
  8  9  2  0
  8 10  1  0
 10 11  1  0
 11 12  1  0
 12 13  1  0
 13 14  2  0
 14 15  1  0
 15 16  2  0
 16 17  1  0
 17 18  1  0
 18 19  2  0
 18 20  1  0
 20 21  1  0
 13 22  1  0
 17 22  2  0
 10 23  1  0
 12 23  1  0
  7 24  1  0
  4 25  1  0
 24 25  1  0
M  END
