piperidine-amides-33391-covalent
     RDKit          3D

 25 27  0  0  0  0  0  0  0  0999 V2000
    7.0640   -3.3300   19.3450 C   0  0  0  0  0  0  0  0  0  0  0  0
    6.3930   -4.1670   20.3590 C   0  0  0  0  0  0  0  0  0  0  0  0
    5.3760   -4.8010   19.9750 O   0  0  0  0  0  0  0  0  0  0  0  0
    6.8900   -4.2970   21.6880 N   0  0  0  0  0  0  0  0  0  0  0  0
    6.4070   -5.3630   22.4940 C   0  0  0  0  0  0  0  0  0  0  0  0
    6.0260   -4.9620   23.8560 C   0  0  0  0  0  0  0  0  0  0  0  0
    6.7000   -3.7530   24.3980 C   0  0  0  0  0  0  0  0  0  0  0  0
    5.9050   -3.1200   25.5220 C   0  0  0  0  0  0  0  0  0  0  0  0
    4.7720   -2.6750   25.2520 O   0  0  0  0  0  0  0  0  0  0  0  0
    6.3740   -3.0120   26.8670 N   0  0  0  0  0  0  0  0  0  0  0  0
    6.4390   -4.1180   27.7600 C   0  0  0  0  0  0  0  0  0  0  0  0
    6.5020   -5.4950   27.2850 C   0  0  0  0  0  0  0  0  0  0  0  0
    5.4100   -6.1470   27.3710 O   0  0  0  0  0  0  0  0  0  0  0  0
    6.3120   -1.7120   27.5720 C   0  0  1  0  0  0  0  0  0  0  0  0
    7.2790   -1.6350   28.5670 C   0  0  0  0  0  0  0  0  0  0  0  0
    6.3320   -0.8840   29.4530 C   0  0  0  0  0  0  0  0  0  0  0  0
    6.1360   -0.1180   28.2090 C   0  0  0  0  0  0  0  0  0  0  0  0
    5.9990    1.2860   29.0260 C   0  0  0  0  0  0  0  0  0  0  0  0
    5.7680    2.6600   28.4130 C   0  0  0  0  0  0  0  0  0  0  0  0
    5.7410    3.6540   30.0320 Br  0  0  0  0  0  0  0  0  0  0  0  0
    5.9150    1.3360   27.8720 C   0  0  0  0  0  0  0  0  0  0  0  0
    5.8920    0.8280   26.5220 C   0  0  0  0  0  0  0  0  0  0  0  0
    6.1040   -0.5770   26.7920 C   0  0  0  0  0  0  0  0  0  0  0  0
    6.9700   -2.7240   23.3390 C   0  0  0  0  0  0  0  0  0  0  0  0
    7.6960   -3.2740   22.2980 C   0  0  0  0  0  0  0  0  0  0  0  0
  1  2  1  0
  2  3  2  0
  2  4  1  0
  4  5  1  0
  5  6  1  0
  6  7  1  0
  7  8  1  0
  8  9  2  0
  8 10  1  0
 10 11  1  0
 11 12  1  0
 12 13  1  0
 14 10  1  6
 14 15  1  0
 15 16  1  0
 16 17  1  0
 17 18  1  0
 18 19  2  0
 19 20  1  0
 19 21  1  0
 21 22  2  0
 14 23  1  0
 17 23  2  0
 22 23  1  0
  7 24  1  0
  4 25  1  0
 24 25  1  0
M  END
