piperidine-amides-29198-covalent
     RDKit          3D

 26 28  0  0  0  0  0  0  0  0999 V2000
    7.0630   -3.3640   19.4530 C   0  0  0  0  0  0  0  0  0  0  0  0
    6.3840   -4.2180   20.4230 C   0  0  0  0  0  0  0  0  0  0  0  0
    5.4150   -4.8810   20.0010 O   0  0  0  0  0  0  0  0  0  0  0  0
    6.8350   -4.3340   21.7780 N   0  0  0  0  0  0  0  0  0  0  0  0
    6.5530   -5.5710   22.4560 C   0  0  0  0  0  0  0  0  0  0  0  0
    6.5370   -5.3810   23.9530 C   0  0  0  0  0  0  0  0  0  0  0  0
    6.2080   -3.9320   24.2450 C   0  0  0  0  0  0  0  0  0  0  0  0
    5.5750   -3.7160   25.6290 C   0  0  0  0  0  0  0  0  0  0  0  0
    4.3620   -3.8740   25.5620 O   0  0  0  0  0  0  0  0  0  0  0  0
    6.1700   -3.3260   26.8760 N   0  0  0  0  0  0  0  0  0  0  0  0
    5.1800   -2.9020   27.8420 C   0  0  0  0  0  0  0  0  0  0  0  0
    4.2640   -3.8810   28.4020 C   0  0  0  0  0  0  0  0  0  0  0  0
    5.0460   -5.0340   28.8990 N   0  0  0  0  0  0  0  0  0  0  0  0
    4.7140   -6.2350   29.5720 C   0  0  1  0  0  0  0  0  0  0  0  0
    4.8350   -6.2870   30.9630 C   0  0  0  0  0  0  0  0  0  0  0  0
    3.8060   -5.6540   31.6440 O   0  0  0  0  0  0  0  0  0  0  0  0
    5.7820   -6.8470   31.5950 O   0  0  0  0  0  0  0  0  0  0  0  0
    5.4350   -7.8170   32.5710 C   0  0  0  0  0  0  0  0  0  0  0  0
    3.2180   -6.5330   29.4110 C   0  0  0  0  0  0  0  0  0  0  0  0
    3.0450   -7.1190   28.0860 C   0  0  0  0  0  0  0  0  0  0  0  0
    4.2890   -7.5090   27.7720 O   0  0  0  0  0  0  0  0  0  0  0  0
    5.1180   -7.4160   28.9190 C   0  0  0  0  0  0  0  0  0  0  0  0
    6.3680   -5.0100   28.4930 C   0  0  0  0  0  0  0  0  0  0  0  0
    6.6220   -3.7290   28.2000 C   0  0  0  0  0  0  0  0  0  0  0  0
    7.4240   -3.1480   23.8730 C   0  0  0  0  0  0  0  0  0  0  0  0
    7.6180   -3.2480   22.3690 C   0  0  0  0  0  0  0  0  0  0  0  0
  1  2  1  0
  2  3  2  0
  2  4  1  0
  4  5  1  0
  5  6  1  0
  6  7  1  0
  7  8  1  0
  8  9  2  0
  8 10  1  0
 10 11  1  0
 11 12  1  0
 12 13  1  0
 13 14  1  0
 14 15  1  1
 15 16  2  0
 15 17  1  0
 17 18  1  0
 14 19  1  0
 19 20  1  0
 20 21  1  0
 14 22  1  0
 21 22  1  0
 13 23  1  0
 10 24  1  0
 23 24  1  0
  7 25  1  0
  4 26  1  0
 25 26  1  0
M  END
