piperidine-amides-18903-covalent
     RDKit          3D

 22 24  0  0  0  0  0  0  0  0999 V2000
    7.0140   -3.4190   19.3810 C   0  0  0  0  0  0  0  0  0  0  0  0
    6.3910   -4.2480   20.3870 C   0  0  0  0  0  0  0  0  0  0  0  0
    5.3850   -4.9280   20.0090 O   0  0  0  0  0  0  0  0  0  0  0  0
    6.8790   -4.3730   21.7180 N   0  0  0  0  0  0  0  0  0  0  0  0
    6.5790   -5.6150   22.4540 C   0  0  0  0  0  0  0  0  0  0  0  0
    5.5280   -5.0240   23.4630 C   0  0  0  0  0  0  0  0  0  0  0  0
    6.3270   -4.1790   24.4280 C   0  0  0  0  0  0  0  0  0  0  0  0
    5.3570   -3.2720   25.3330 C   0  0  0  0  0  0  0  0  0  0  0  0
    4.4640   -2.8560   24.6180 O   0  0  0  0  0  0  0  0  0  0  0  0
    5.6800   -3.1600   26.5870 N   0  0  0  0  0  0  0  0  0  0  0  0
    5.7690   -2.5640   27.8280 C   0  0  0  0  0  0  0  0  0  0  0  0
    5.3890   -3.0850   28.9730 C   0  0  0  0  0  0  0  0  0  0  0  0
    5.5680   -4.3600   28.6940 C   0  0  0  0  0  0  0  0  0  0  0  0
    5.2910   -5.4790   29.5950 C   0  0  0  0  0  0  0  0  0  0  0  0
    4.1230   -5.1370   30.4290 C   0  0  0  0  0  0  0  0  0  0  0  0
    4.0430   -6.3210   31.2230 C   0  0  0  0  0  0  0  0  0  0  0  0
    4.7290   -7.6080   31.3950 C   0  0  0  0  0  0  0  0  0  0  0  0
    5.9220   -7.6790   30.3630 C   0  0  0  0  0  0  0  0  0  0  0  0
    6.2120   -6.5210   29.4010 C   0  0  0  0  0  0  0  0  0  0  0  0
    6.0950   -4.3650   27.4170 C   0  0  0  0  0  0  0  0  0  0  0  0
    7.5140   -3.4350   23.7950 C   0  0  0  0  0  0  0  0  0  0  0  0
    7.4500   -3.2500   22.4360 C   0  0  0  0  0  0  0  0  0  0  0  0
  1  2  1  0
  2  3  2  0
  2  4  1  0
  4  5  1  0
  5  6  1  0
  6  7  1  0
  7  8  1  0
  8  9  2  0
  8 10  1  0
 10 11  1  0
 11 12  1  0
 12 13  2  0
 13 14  1  0
 14 15  2  0
 15 16  1  0
 16 17  2  0
 17 18  1  0
 14 19  1  0
 18 19  2  0
 10 20  1  0
 13 20  1  0
  7 21  1  0
  4 22  1  0
 21 22  1  0
M  END
