piperidine-amides-241-covalent
     RDKit          3D

 30 33  0  0  0  0  0  0  0  0999 V2000
    7.0490   -3.3540   19.2980 C   0  0  0  0  0  0  0  0  0  0  0  0
    6.3560   -4.0980   20.3320 C   0  0  0  0  0  0  0  0  0  0  0  0
    5.3370   -4.7570   19.9640 O   0  0  0  0  0  0  0  0  0  0  0  0
    6.7710   -4.1820   21.6860 N   0  0  0  0  0  0  0  0  0  0  0  0
    7.7250   -3.1280   22.1860 C   0  0  0  0  0  0  0  0  0  0  0  0
    7.3830   -2.8660   23.7250 C   0  0  0  0  0  0  0  0  0  0  0  0
    6.2310   -3.7610   24.0660 C   0  0  0  0  0  0  0  0  0  0  0  0
    5.4140   -3.4210   25.3910 C   0  0  0  0  0  0  0  0  0  0  0  0
    4.3580   -4.0280   25.3450 O   0  0  0  0  0  0  0  0  0  0  0  0
    5.9910   -2.6060   26.1920 N   0  0  0  0  0  0  0  0  0  0  0  0
    6.3460   -1.7110   27.1570 C   0  0  0  0  0  0  0  0  0  0  0  0
    7.0220   -1.6560   28.3720 C   0  0  0  0  0  0  0  0  0  0  0  0
    7.1640   -0.4630   29.1230 C   0  0  0  0  0  0  0  0  0  0  0  0
    6.6020    0.8070   28.6620 C   0  0  0  0  0  0  0  0  0  0  0  0
    6.7080    2.0200   29.3550 N   0  0  0  0  0  0  0  0  0  0  0  0
    6.0010    3.2430   28.9760 C   0  0  0  0  0  0  0  0  0  0  0  0
    5.2410    3.0480   27.8830 N   0  0  0  0  0  0  0  0  0  0  0  0
    4.0280    3.5210   28.1360 C   0  0  0  0  0  0  0  0  0  0  0  0
    4.1590    4.9490   27.8860 C   0  0  0  0  0  0  0  0  0  0  0  0
    2.6890    5.2730   28.2320 C   0  0  0  0  0  0  0  0  0  0  0  0
    1.5640    4.3310   28.6760 C   0  0  0  0  0  0  0  0  0  0  0  0
    1.7480    3.0330   28.8220 C   0  0  0  0  0  0  0  0  0  0  0  0
    0.8120    2.2740   29.1870 O   0  0  0  0  0  0  0  0  0  0  0  0
    3.0130    2.6330   28.5420 C   0  0  0  0  0  0  0  0  0  0  0  0
    5.4140    1.9950   27.0460 C   0  0  0  0  0  0  0  0  0  0  0  0
    5.0960    2.0960   25.8150 O   0  0  0  0  0  0  0  0  0  0  0  0
    5.9400    0.7940   27.4820 C   0  0  0  0  0  0  0  0  0  0  0  0
    5.7930   -0.3710   26.7350 C   0  0  0  0  0  0  0  0  0  0  0  0
    6.3930   -5.2070   23.8010 C   0  0  0  0  0  0  0  0  0  0  0  0
    6.7570   -5.4400   22.3840 C   0  0  0  0  0  0  0  0  0  0  0  0
  1  2  1  0
  2  3  2  0
  2  4  1  0
  4  5  1  0
  5  6  1  0
  6  7  1  0
  7  8  1  0
  8  9  2  0
  8 10  1  0
 10 11  1  0
 11 12  2  0
 12 13  1  0
 13 14  2  0
 14 15  1  0
 15 16  2  0
 16 17  1  0
 17 18  1  0
 18 19  2  0
 19 20  1  0
 20 21  2  0
 21 22  1  0
 22 23  1  0
 18 24  1  0
 22 24  2  0
 17 25  1  0
 25 26  2  0
 14 27  1  0
 25 27  1  0
 11 28  1  0
 27 28  2  0
  7 29  1  0
  4 30  1  0
 29 30  1  0
M  END
