piperidine-amides-19744-covalent
     RDKit          3D

 22 23  0  0  0  0  0  0  0  0999 V2000
    7.0990   -3.3190   19.2960 C   0  0  0  0  0  0  0  0  0  0  0  0
    6.3410   -4.0840   20.3180 C   0  0  0  0  0  0  0  0  0  0  0  0
    5.3150   -4.6400   19.9280 O   0  0  0  0  0  0  0  0  0  0  0  0
    6.8210   -4.1960   21.6380 N   0  0  0  0  0  0  0  0  0  0  0  0
    6.6270   -5.4170   22.3940 C   0  0  0  0  0  0  0  0  0  0  0  0
    6.0540   -5.1160   23.7550 C   0  0  0  0  0  0  0  0  0  0  0  0
    6.0870   -3.6100   23.9830 C   0  0  0  0  0  0  0  0  0  0  0  0
    5.5620   -3.3160   25.3310 C   0  0  0  0  0  0  0  0  0  0  0  0
    4.3850   -2.9490   25.4060 O   0  0  0  0  0  0  0  0  0  0  0  0
    6.2910   -3.4410   26.5360 N   0  0  0  0  0  0  0  0  0  0  0  0
    6.5370   -2.2110   27.2690 C   0  0  0  0  0  0  0  0  0  0  0  0
    5.2000   -1.5410   27.5060 C   0  0  0  0  0  0  0  0  0  0  0  0
    4.3320   -1.4400   28.5380 C   0  0  0  0  0  0  0  0  0  0  0  0
    3.1300   -0.6960   28.3810 N   0  0  0  0  0  0  0  0  0  0  0  0
    3.2190   -0.2680   27.1190 N   0  0  0  0  0  0  0  0  0  0  0  0
    2.1950    0.4800   26.6770 C   0  0  0  0  0  0  0  0  0  0  0  0
    4.4540   -0.7340   26.5000 C   0  0  0  0  0  0  0  0  0  0  0  0
    5.9250   -4.1010   27.7770 C   0  0  0  0  0  0  0  0  0  0  0  0
    6.0240   -5.5870   27.5930 C   0  0  0  0  0  0  0  0  0  0  0  0
    6.8510   -4.9450   28.6150 C   0  0  0  0  0  0  0  0  0  0  0  0
    7.3530   -2.9620   23.6200 C   0  0  0  0  0  0  0  0  0  0  0  0
    7.6700   -3.1470   22.1780 C   0  0  0  0  0  0  0  0  0  0  0  0
  1  2  1  0
  2  3  2  0
  2  4  1  0
  4  5  1  0
  5  6  1  0
  6  7  1  0
  7  8  1  0
  8  9  2  0
  8 10  1  0
 10 11  1  0
 11 12  1  0
 12 13  1  0
 13 14  2  0
 14 15  1  0
 15 16  1  0
 12 17  2  0
 15 17  1  0
 10 18  1  0
 18 19  1  0
 18 20  1  0
  7 21  1  0
  4 22  1  0
 21 22  1  0
M  END
