piperidine-amides-2189-covalent
     RDKit          3D

 30 32  0  0  0  0  0  0  0  0999 V2000
    7.1300   -3.2300   19.2160 C   0  0  0  0  0  0  0  0  0  0  0  0
    6.3720   -3.9930   20.2420 C   0  0  0  0  0  0  0  0  0  0  0  0
    5.3260   -4.5330   19.8860 O   0  0  0  0  0  0  0  0  0  0  0  0
    6.8730   -4.1090   21.5410 N   0  0  0  0  0  0  0  0  0  0  0  0
    7.7430   -3.1130   22.1170 C   0  0  0  0  0  0  0  0  0  0  0  0
    7.2150   -2.6730   23.4540 C   0  0  0  0  0  0  0  0  0  0  0  0
    6.7240   -3.8720   24.2680 C   0  0  0  0  0  0  0  0  0  0  0  0
    5.9480   -3.3350   25.4100 C   0  0  0  0  0  0  0  0  0  0  0  0
    4.8720   -2.7540   25.1910 O   0  0  0  0  0  0  0  0  0  0  0  0
    6.4110   -3.4640   26.7400 N   0  0  0  0  0  0  0  0  0  0  0  0
    7.7390   -3.9630   27.0040 C   0  0  0  0  0  0  0  0  0  0  0  0
    7.6190   -5.4090   27.4510 C   0  0  0  0  0  0  0  0  0  0  0  0
    6.4400   -6.0710   27.5530 C   0  0  0  0  0  0  0  0  0  0  0  0
    5.6000   -6.0270   26.4790 C   0  0  0  0  0  0  0  0  0  0  0  0
    4.3950   -6.6670   26.5160 C   0  0  0  0  0  0  0  0  0  0  0  0
    3.5080   -6.6690   25.4830 O   0  0  0  0  0  0  0  0  0  0  0  0
    3.8330   -7.3080   24.3300 C   0  0  0  0  0  0  0  0  0  0  0  0
    3.9320   -7.4150   27.6580 C   0  0  0  0  0  0  0  0  0  0  0  0
    2.6840   -7.9470   27.4110 O   0  0  0  0  0  0  0  0  0  0  0  0
    1.4790   -7.2120   27.6640 C   0  0  0  0  0  0  0  0  0  0  0  0
    0.2970   -8.1240   27.5750 C   0  0  0  0  0  0  0  0  0  0  0  0
    0.5030   -9.2950   26.6760 C   0  0  0  0  0  0  0  0  0  0  0  0
   -0.5620   -8.9160   25.7870 C   0  0  0  0  0  0  0  0  0  0  0  0
   -0.8800   -7.7020   26.5830 C   0  0  0  0  0  0  0  0  0  0  0  0
    4.7620   -7.4750   28.7400 C   0  0  0  0  0  0  0  0  0  0  0  0
    4.3730   -8.1910   29.8670 O   0  0  0  0  0  0  0  0  0  0  0  0
    3.1230   -7.8800   30.4470 C   0  0  0  0  0  0  0  0  0  0  0  0
    6.0880   -6.7590   28.6770 C   0  0  0  0  0  0  0  0  0  0  0  0
    5.7780   -4.8130   23.4960 C   0  0  0  0  0  0  0  0  0  0  0  0
    6.5460   -5.2980   22.2770 C   0  0  0  0  0  0  0  0  0  0  0  0
  1  2  1  0
  2  3  2  0
  2  4  1  0
  4  5  1  0
  5  6  1  0
  6  7  1  0
  7  8  1  0
  8  9  2  0
  8 10  1  0
 10 11  1  0
 11 12  1  0
 12 13  1  0
 13 14  2  0
 14 15  1  0
 15 16  1  0
 16 17  1  0
 15 18  2  0
 18 19  1  0
 19 20  1  0
 20 21  1  0
 21 22  1  0
 22 23  1  0
 21 24  1  0
 23 24  1  0
 18 25  1  0
 25 26  1  0
 26 27  1  0
 13 28  1  0
 25 28  2  0
  7 29  1  0
  4 30  1  0
 29 30  1  0
M  END
