piperidine-amides-33082-covalent
     RDKit          3D

 28 30  0  0  0  0  0  0  0  0999 V2000
    7.1410   -3.2760   19.1890 C   0  0  0  0  0  0  0  0  0  0  0  0
    6.3420   -3.9790   20.2070 C   0  0  0  0  0  0  0  0  0  0  0  0
    5.2400   -4.4520   19.8460 O   0  0  0  0  0  0  0  0  0  0  0  0
    6.8310   -4.1630   21.5220 N   0  0  0  0  0  0  0  0  0  0  0  0
    6.3830   -5.2980   22.2470 C   0  0  0  0  0  0  0  0  0  0  0  0
    5.8780   -4.9940   23.5840 C   0  0  0  0  0  0  0  0  0  0  0  0
    6.5090   -3.8490   24.2830 C   0  0  0  0  0  0  0  0  0  0  0  0
    5.7430   -3.4900   25.5160 C   0  0  0  0  0  0  0  0  0  0  0  0
    4.5200   -3.2530   25.4790 O   0  0  0  0  0  0  0  0  0  0  0  0
    6.3910   -3.4220   26.7510 N   0  0  0  0  0  0  0  0  0  0  0  0
    6.8570   -4.5680   27.4450 C   0  0  0  0  0  0  0  0  0  0  0  0
    5.9560   -5.6580   27.7590 C   0  0  0  0  0  0  0  0  0  0  0  0
    6.5610   -6.4140   28.9470 C   0  0  0  0  0  0  0  0  0  0  0  0
    6.5660   -2.1100   27.3330 C   0  0  0  0  0  0  0  0  0  0  0  0
    5.2710   -1.2880   27.4220 C   0  0  0  0  0  0  0  0  0  0  0  0
    4.9360   -0.5360   28.6120 N   0  0  0  0  0  0  0  0  0  0  0  0
    3.7500    0.0420   28.3210 N   0  0  0  0  0  0  0  0  0  0  0  0
    3.5590   -0.4280   27.0650 C   0  0  0  0  0  0  0  0  0  0  0  0
    2.2430    0.0710   26.4570 C   0  0  0  0  0  0  0  0  0  0  0  0
    1.1010   -0.9390   26.3420 C   0  0  0  0  0  0  0  0  0  0  0  0
   -0.1890   -0.4180   25.7300 C   0  0  0  0  0  0  0  0  0  0  0  0
   -0.2580    1.0340   25.2880 C   0  0  0  0  0  0  0  0  0  0  0  0
    0.9410    1.8620   25.4800 C   0  0  0  0  0  0  0  0  0  0  0  0
    2.1400    1.4210   26.0330 C   0  0  0  0  0  0  0  0  0  0  0  0
    3.5340    2.4770   26.2230 Cl  0  0  0  0  0  0  0  0  0  0  0  0
    4.3980   -1.2570   26.3570 O   0  0  0  0  0  0  0  0  0  0  0  0
    6.7760   -2.6610   23.4280 C   0  0  0  0  0  0  0  0  0  0  0  0
    7.4970   -3.0670   22.1760 C   0  0  0  0  0  0  0  0  0  0  0  0
  1  2  1  0
  2  3  2  0
  2  4  1  0
  4  5  1  0
  5  6  1  0
  6  7  1  0
  7  8  1  0
  8  9  2  0
  8 10  1  0
 10 11  1  0
 11 12  1  0
 12 13  1  0
 10 14  1  0
 14 15  1  0
 15 16  2  0
 16 17  1  0
 17 18  2  0
 18 19  1  0
 19 20  2  0
 20 21  1  0
 21 22  2  0
 22 23  1  0
 19 24  1  0
 23 24  2  0
 24 25  1  0
 15 26  1  0
 18 26  1  0
  7 27  1  0
  4 28  1  0
 27 28  1  0
M  END
