piperidine-amides-26152-covalent
     RDKit          3D

 24 26  0  0  0  0  0  0  0  0999 V2000
    7.0570   -3.3530   19.3580 C   0  0  0  0  0  0  0  0  0  0  0  0
    6.3970   -4.2030   20.3480 C   0  0  0  0  0  0  0  0  0  0  0  0
    5.4040   -4.8640   19.9910 O   0  0  0  0  0  0  0  0  0  0  0  0
    6.8790   -4.3330   21.6700 N   0  0  0  0  0  0  0  0  0  0  0  0
    6.6740   -5.5050   22.4730 C   0  0  0  0  0  0  0  0  0  0  0  0
    5.9080   -5.0490   23.6960 C   0  0  0  0  0  0  0  0  0  0  0  0
    6.3860   -3.7490   24.3170 C   0  0  0  0  0  0  0  0  0  0  0  0
    5.2970   -3.1310   25.1310 C   0  0  0  0  0  0  0  0  0  0  0  0
    4.2280   -2.8080   24.5490 O   0  0  0  0  0  0  0  0  0  0  0  0
    5.3050   -2.8550   26.5290 N   0  0  0  0  0  0  0  0  0  0  0  0
    6.4390   -3.1950   27.3290 C   0  0  0  0  0  0  0  0  0  0  0  0
    6.2250   -4.4860   28.0840 C   0  0  0  0  0  0  0  0  0  0  0  0
    5.0210   -4.4390   28.7360 N   0  0  0  0  0  0  0  0  0  0  0  0
    4.4940   -5.3680   29.6510 C   0  0  0  0  0  0  0  0  0  0  0  0
    3.2210   -5.0190   30.3680 C   0  0  0  0  0  0  0  0  0  0  0  0
    2.7120   -6.0630   31.3340 C   0  0  0  0  0  0  0  0  0  0  0  0
    3.8740   -7.4640   31.2980 S   0  0  0  0  0  0  0  0  0  0  0  0
    5.0150   -6.7400   30.0600 C   0  0  0  0  0  0  0  0  0  0  0  0
    6.1020   -7.4350   29.6710 C   0  0  0  0  0  0  0  0  0  0  0  0
    6.3550   -8.5670   30.3000 N   0  0  0  0  0  0  0  0  0  0  0  0
    3.9490   -4.1680   27.8430 C   0  0  0  0  0  0  0  0  0  0  0  0
    4.1940   -2.7940   27.3350 C   0  0  0  0  0  0  0  0  0  0  0  0
    6.8860   -2.6890   23.3650 C   0  0  0  0  0  0  0  0  0  0  0  0
    7.7100   -3.3170   22.2740 C   0  0  0  0  0  0  0  0  0  0  0  0
  1  2  1  0
  2  3  2  0
  2  4  1  0
  4  5  1  0
  5  6  1  0
  6  7  1  0
  7  8  1  0
  8  9  2  0
  8 10  1  0
 10 11  1  0
 11 12  1  0
 12 13  1  0
 13 14  1  0
 14 15  1  0
 15 16  2  0
 16 17  1  0
 14 18  2  0
 17 18  1  0
 18 19  1  0
 19 20  3  0
 13 21  1  0
 10 22  1  0
 21 22  1  0
  7 23  1  0
  4 24  1  0
 23 24  1  0
M  END
