piperidine-amides-9225-covalent
     RDKit          3D

 20 21  0  0  0  0  0  0  0  0999 V2000
    7.0380   -3.3340   19.3130 C   0  0  0  0  0  0  0  0  0  0  0  0
    6.3590   -4.1490   20.3250 C   0  0  0  0  0  0  0  0  0  0  0  0
    5.3890   -4.8430   19.9810 O   0  0  0  0  0  0  0  0  0  0  0  0
    6.8090   -4.1860   21.6590 N   0  0  0  0  0  0  0  0  0  0  0  0
    7.7450   -3.2030   22.1780 C   0  0  0  0  0  0  0  0  0  0  0  0
    7.4390   -3.0350   23.6380 C   0  0  0  0  0  0  0  0  0  0  0  0
    6.1000   -3.6050   23.9730 C   0  0  0  0  0  0  0  0  0  0  0  0
    5.6510   -3.2670   25.3410 C   0  0  0  0  0  0  0  0  0  0  0  0
    4.4150   -3.2540   25.6140 O   0  0  0  0  0  0  0  0  0  0  0  0
    6.5320   -2.9470   26.3920 N   0  0  0  0  0  0  0  0  0  0  0  0
    6.4590   -1.6390   27.0720 C   0  0  0  0  0  0  0  0  0  0  0  0
    5.9120   -0.4710   26.3970 C   0  0  0  0  0  0  0  0  0  0  0  0
    5.8780    0.7700   27.1530 C   0  0  0  0  0  0  0  0  0  0  0  0
    5.3150    1.9790   26.4560 C   0  0  0  0  0  0  0  0  0  0  0  0
    6.3290    1.0320   28.5500 C   0  0  0  0  0  0  0  0  0  0  0  0
    6.8740   -0.2280   29.1580 C   0  0  0  0  0  0  0  0  0  0  0  0
    7.4860   -0.0530   30.9520 Br  0  0  0  0  0  0  0  0  0  0  0  0
    6.9550   -1.4620   28.5230 C   0  0  0  0  0  0  0  0  0  0  0  0
    6.0720   -5.0990   23.7660 C   0  0  0  0  0  0  0  0  0  0  0  0
    6.6720   -5.4260   22.4110 C   0  0  0  0  0  0  0  0  0  0  0  0
  1  2  1  0
  2  3  2  0
  2  4  1  0
  4  5  1  0
  5  6  1  0
  6  7  1  0
  7  8  1  0
  8  9  2  0
  8 10  1  0
 10 11  1  0
 11 12  2  0
 12 13  1  0
 13 14  1  0
 13 15  2  0
 15 16  1  0
 16 17  1  0
 11 18  1  0
 16 18  2  0
  7 19  1  0
  4 20  1  0
 19 20  1  0
M  END
