piperidine-amides-33479-covalent
     RDKit          3D

 29 31  0  0  0  0  0  0  0  0999 V2000
    7.1140   -3.3580   19.3400 C   0  0  0  0  0  0  0  0  0  0  0  0
    6.4630   -4.2250   20.3340 C   0  0  0  0  0  0  0  0  0  0  0  0
    5.3940   -4.7860   19.9760 O   0  0  0  0  0  0  0  0  0  0  0  0
    7.0530   -4.4670   21.6060 N   0  0  0  0  0  0  0  0  0  0  0  0
    6.5080   -5.5150   22.3780 C   0  0  0  0  0  0  0  0  0  0  0  0
    5.8670   -5.0740   23.6190 C   0  0  0  0  0  0  0  0  0  0  0  0
    6.3730   -3.8410   24.3020 C   0  0  0  0  0  0  0  0  0  0  0  0
    5.2840   -3.2790   25.1790 C   0  0  0  0  0  0  0  0  0  0  0  0
    4.2600   -2.8400   24.6410 O   0  0  0  0  0  0  0  0  0  0  0  0
    5.3830   -3.2200   26.5780 N   0  0  0  0  0  0  0  0  0  0  0  0
    6.5930   -3.2400   27.2160 C   0  0  0  0  0  0  0  0  0  0  0  0
    6.7700   -4.0060   28.4270 C   0  0  2  0  0  0  0  0  0  0  0  0
    6.8600   -5.3860   27.8810 C   0  0  0  0  0  0  0  0  0  0  0  0
    7.9540   -6.1630   28.1230 C   0  0  0  0  0  0  0  0  0  0  0  0
    6.5890   -6.4620   28.9240 C   0  0  0  0  0  0  0  0  0  0  0  0
    6.5710   -5.8330   26.5250 C   0  0  0  0  0  0  0  0  0  0  0  0
    5.7460   -3.9740   29.4150 C   0  0  0  0  0  0  0  0  0  0  0  0
    4.4590   -3.9000   28.7060 C   0  0  0  0  0  0  0  0  0  0  0  0
    3.2330   -4.2500   29.5360 C   0  0  0  0  0  0  0  0  0  0  0  0
    1.8390   -4.1980   28.8860 C   0  0  0  0  0  0  0  0  0  0  0  0
    0.6670   -4.5480   29.7410 C   0  0  0  0  0  0  0  0  0  0  0  0
    0.7170   -3.7770   30.8790 F   0  0  0  0  0  0  0  0  0  0  0  0
    0.6820   -5.9100   30.0610 F   0  0  0  0  0  0  0  0  0  0  0  0
   -0.5240   -4.2070   29.1080 F   0  0  0  0  0  0  0  0  0  0  0  0
    1.7480   -3.8320   27.5550 C   0  0  0  0  0  0  0  0  0  0  0  0
    2.8540   -3.5160   26.7960 C   0  0  0  0  0  0  0  0  0  0  0  0
    4.2410   -3.5530   27.3940 C   0  0  0  0  0  0  0  0  0  0  0  0
    6.8570   -2.7910   23.3350 C   0  0  0  0  0  0  0  0  0  0  0  0
    7.7290   -3.3980   22.2640 C   0  0  0  0  0  0  0  0  0  0  0  0
  1  2  1  0
  2  3  2  0
  2  4  1  0
  4  5  1  0
  5  6  1  0
  6  7  1  0
  7  8  1  0
  8  9  2  0
  8 10  1  0
 10 11  1  0
 11 12  1  0
 12 13  1  6
 13 14  1  0
 13 15  1  0
 13 16  1  0
 12 17  1  0
 17 18  1  0
 18 19  2  0
 19 20  1  0
 20 21  1  0
 21 22  1  0
 21 23  1  0
 21 24  1  0
 20 25  2  0
 25 26  1  0
 10 27  1  0
 18 27  1  0
 26 27  2  0
  7 28  1  0
  4 29  1  0
 28 29  1  0
M  END
