piperidine-amides-17039-covalent
     RDKit          3D

 20 21  0  0  0  0  0  0  0  0999 V2000
    7.1170   -3.3640   19.3420 C   0  0  0  0  0  0  0  0  0  0  0  0
    6.4670   -4.2320   20.3370 C   0  0  0  0  0  0  0  0  0  0  0  0
    5.4070   -4.8050   19.9810 O   0  0  0  0  0  0  0  0  0  0  0  0
    7.0580   -4.4590   21.6140 N   0  0  0  0  0  0  0  0  0  0  0  0
    6.4980   -5.4530   22.4450 C   0  0  0  0  0  0  0  0  0  0  0  0
    5.9610   -4.9520   23.7170 C   0  0  0  0  0  0  0  0  0  0  0  0
    6.4360   -3.6260   24.2300 C   0  0  0  0  0  0  0  0  0  0  0  0
    5.3390   -2.9670   25.0120 C   0  0  0  0  0  0  0  0  0  0  0  0
    4.4950   -2.2970   24.4110 O   0  0  0  0  0  0  0  0  0  0  0  0
    5.2020   -3.0830   26.3960 N   0  0  0  0  0  0  0  0  0  0  0  0
    4.1470   -3.7760   26.9900 C   0  0  0  0  0  0  0  0  0  0  0  0
    4.6760   -4.9220   27.6320 C   0  0  2  0  0  0  0  0  0  0  0  0
    3.8670   -5.2000   28.9200 C   0  0  0  0  0  0  0  0  0  0  0  0
    6.0840   -4.6770   27.8110 C   0  0  2  0  0  0  0  0  0  0  0  0
    6.3390   -4.4540   29.1150 N   0  0  0  0  0  0  0  0  0  0  0  0
    5.5120   -3.4300   29.6430 C   0  0  0  0  0  0  0  0  0  0  0  0
    6.0730   -5.7920   29.6940 C   0  0  0  0  0  0  0  0  0  0  0  0
    6.3920   -3.3850   27.0980 C   0  0  0  0  0  0  0  0  0  0  0  0
    6.9770   -2.6520   23.2120 C   0  0  0  0  0  0  0  0  0  0  0  0
    7.8380   -3.4380   22.2580 C   0  0  0  0  0  0  0  0  0  0  0  0
  1  2  1  0
  2  3  2  0
  2  4  1  0
  4  5  1  0
  5  6  1  0
  6  7  1  0
  7  8  1  0
  8  9  2  0
  8 10  1  0
 10 11  1  0
 11 12  1  0
 12 13  1  1
 12 14  1  0
 14 15  1  1
 15 16  1  0
 15 17  1  0
 10 18  1  0
 14 18  1  0
  7 19  1  0
  4 20  1  0
 19 20  1  0
M  END
