piperidine-amides-12016-covalent
     RDKit          3D

 26 28  0  0  0  0  0  0  0  0999 V2000
    7.1600   -3.2640   19.2140 C   0  0  0  0  0  0  0  0  0  0  0  0
    6.3540   -3.9960   20.1790 C   0  0  0  0  0  0  0  0  0  0  0  0
    5.2680   -4.4740   19.8550 O   0  0  0  0  0  0  0  0  0  0  0  0
    6.8640   -4.2190   21.4890 N   0  0  0  0  0  0  0  0  0  0  0  0
    6.3840   -5.3300   22.2630 C   0  0  0  0  0  0  0  0  0  0  0  0
    5.5690   -4.8160   23.4140 C   0  0  0  0  0  0  0  0  0  0  0  0
    6.4180   -3.8000   24.1670 C   0  0  0  0  0  0  0  0  0  0  0  0
    5.6430   -3.2130   25.2920 C   0  0  0  0  0  0  0  0  0  0  0  0
    4.4020   -3.0850   25.2550 O   0  0  0  0  0  0  0  0  0  0  0  0
    6.3430   -2.7810   26.4440 N   0  0  0  0  0  0  0  0  0  0  0  0
    7.7390   -3.0970   26.5660 C   0  0  0  0  0  0  0  0  0  0  0  0
    7.9080   -4.5200   26.1210 C   0  0  1  0  0  0  0  0  0  0  0  0
    9.0250   -5.1600   26.5730 C   0  0  0  0  0  0  0  0  0  0  0  0
    8.8540   -6.4930   26.9410 N   0  0  0  0  0  0  0  0  0  0  0  0
   10.0650   -7.2830   26.5800 C   0  0  0  0  0  0  0  0  0  0  0  0
    9.9070   -9.0540   26.4880 C   0  0  0  0  0  0  0  0  0  0  0  0
    9.5150   -9.0890   25.2760 C   0  0  0  0  0  0  0  0  0  0  0  0
    8.4920  -10.7330   24.7670 C   0  0  0  0  0  0  0  0  0  0  0  0
    8.4740  -11.9380   25.8820 C   0  0  0  0  0  0  0  0  0  0  0  0
    9.3490  -11.5590   27.6900 C   0  0  0  0  0  0  0  0  0  0  0  0
    9.8430  -10.5300   27.8020 C   0  0  0  0  0  0  0  0  0  0  0  0
    8.0910   -6.3000   28.1090 C   0  0  0  0  0  0  0  0  0  0  0  0
    6.9250   -5.6230   27.8410 C   0  0  0  0  0  0  0  0  0  0  0  0
    6.8300   -5.2150   26.6560 O   0  0  0  0  0  0  0  0  0  0  0  0
    6.8430   -2.6620   23.2690 C   0  0  0  0  0  0  0  0  0  0  0  0
    7.6910   -3.2360   22.1380 C   0  0  0  0  0  0  0  0  0  0  0  0
  1  2  1  0
  2  3  2  0
  2  4  1  0
  4  5  1  0
  5  6  1  0
  6  7  1  0
  7  8  1  0
  8  9  2  0
  8 10  1  0
 10 11  1  0
 12 11  1  1
 12 13  1  0
 13 14  1  0
 14 15  1  0
 15 16  1  0
 16 17  2  0
 17 18  1  0
 18 19  2  0
 19 20  1  0
 16 21  1  0
 20 21  2  0
 14 22  1  0
 22 23  1  0
 12 24  1  0
 23 24  1  0
  7 25  1  0
  4 26  1  0
 25 26  1  0
M  END
