piperidine-amides-25190-covalent
     RDKit          3D

 24 25  0  0  0  0  0  0  0  0999 V2000
    7.1040   -3.2840   19.2370 C   0  0  0  0  0  0  0  0  0  0  0  0
    6.3090   -4.0280   20.2450 C   0  0  0  0  0  0  0  0  0  0  0  0
    5.2490   -4.5140   19.8690 O   0  0  0  0  0  0  0  0  0  0  0  0
    6.7970   -4.1990   21.5410 N   0  0  0  0  0  0  0  0  0  0  0  0
    7.6040   -3.1920   22.1910 C   0  0  0  0  0  0  0  0  0  0  0  0
    6.9220   -2.7310   23.4510 C   0  0  0  0  0  0  0  0  0  0  0  0
    6.5050   -3.9500   24.2720 C   0  0  0  0  0  0  0  0  0  0  0  0
    5.7470   -3.4770   25.4640 C   0  0  0  0  0  0  0  0  0  0  0  0
    4.5090   -3.4890   25.4220 O   0  0  0  0  0  0  0  0  0  0  0  0
    6.3880   -2.9960   26.6330 N   0  0  0  0  0  0  0  0  0  0  0  0
    6.7180   -1.5880   26.5670 C   0  0  0  0  0  0  0  0  0  0  0  0
    5.4340   -0.8200   26.8020 C   0  0  0  0  0  0  0  0  0  0  0  0
    5.4540    0.3990   26.1530 O   0  0  0  0  0  0  0  0  0  0  0  0
    6.2060   -3.7300   27.8160 C   0  0  0  0  0  0  0  0  0  0  0  0
    5.8690   -5.0480   27.6950 C   0  0  0  0  0  0  0  0  0  0  0  0
    6.2840   -5.8060   28.7670 C   0  0  0  0  0  0  0  0  0  0  0  0
    5.1880   -6.1480   29.4160 N   0  0  0  0  0  0  0  0  0  0  0  0
    4.3130   -7.1500   28.7110 C   0  0  0  0  0  0  0  0  0  0  0  0
    3.2470   -7.5510   29.6540 C   0  0  0  0  0  0  0  0  0  0  0  0
    3.6960   -7.2750   30.8850 O   0  0  0  0  0  0  0  0  0  0  0  0
    5.0110   -6.7360   30.7600 C   0  0  0  0  0  0  0  0  0  0  0  0
    5.9150   -6.8160   31.8280 O   0  0  0  0  0  0  0  0  0  0  0  0
    5.7830   -5.0000   23.5250 C   0  0  0  0  0  0  0  0  0  0  0  0
    6.4580   -5.3910   22.2550 C   0  0  0  0  0  0  0  0  0  0  0  0
  1  2  1  0
  2  3  2  0
  2  4  1  0
  4  5  1  0
  5  6  1  0
  6  7  1  0
  7  8  1  0
  8  9  2  0
  8 10  1  0
 10 11  1  0
 11 12  1  0
 12 13  1  0
 10 14  1  0
 14 15  1  0
 15 16  1  0
 16 17  1  0
 17 18  1  0
 18 19  1  0
 19 20  1  0
 17 21  1  0
 20 21  1  0
 21 22  2  0
  7 23  1  0
  4 24  1  0
 23 24  1  0
M  END
