piperidine-amides-27849-covalent
     RDKit          3D

 26 28  0  0  0  0  0  0  0  0999 V2000
    7.1070   -3.3250   19.3350 C   0  0  0  0  0  0  0  0  0  0  0  0
    6.3590   -4.1340   20.3220 C   0  0  0  0  0  0  0  0  0  0  0  0
    5.3030   -4.6560   19.9250 O   0  0  0  0  0  0  0  0  0  0  0  0
    6.8580   -4.3360   21.6220 N   0  0  0  0  0  0  0  0  0  0  0  0
    6.4770   -5.4940   22.3530 C   0  0  0  0  0  0  0  0  0  0  0  0
    5.8350   -5.1940   23.6360 C   0  0  0  0  0  0  0  0  0  0  0  0
    6.3260   -3.9890   24.3570 C   0  0  0  0  0  0  0  0  0  0  0  0
    5.2160   -3.4630   25.2150 C   0  0  0  0  0  0  0  0  0  0  0  0
    4.0900   -3.3820   24.7100 O   0  0  0  0  0  0  0  0  0  0  0  0
    5.3910   -3.0570   26.5540 N   0  0  0  0  0  0  0  0  0  0  0  0
    4.5620   -3.5410   27.6610 C   0  0  0  0  0  0  0  0  0  0  0  0
    5.4560   -4.0510   28.7450 C   0  0  0  0  0  0  0  0  0  0  0  0
    6.3040   -5.1970   28.4590 C   0  0  0  0  0  0  0  0  0  0  0  0
    7.4720   -5.0550   27.7450 C   0  0  0  0  0  0  0  0  0  0  0  0
    8.3550   -6.0120   27.8090 C   0  0  0  0  0  0  0  0  0  0  0  0
    9.4630   -5.8670   27.1480 C   0  0  0  0  0  0  0  0  0  0  0  0
    9.6980   -4.7630   26.4330 C   0  0  0  0  0  0  0  0  0  0  0  0
   10.7590   -4.3280   25.7080 C   0  0  0  0  0  0  0  0  0  0  0  0
   12.0170   -4.4170   26.1970 O   0  0  0  0  0  0  0  0  0  0  0  0
   10.5670   -3.7190   24.5060 O   0  0  0  0  0  0  0  0  0  0  0  0
   11.3320   -2.5830   24.3570 C   0  0  0  0  0  0  0  0  0  0  0  0
    8.8870   -3.5380   26.1480 C   0  0  0  0  0  0  0  0  0  0  0  0
    7.6740   -3.9290   26.9940 C   0  0  0  0  0  0  0  0  0  0  0  0
    6.7220   -2.8400   26.8560 C   0  0  0  0  0  0  0  0  0  0  0  0
    6.9070   -2.9070   23.5290 C   0  0  0  0  0  0  0  0  0  0  0  0
    7.6770   -3.3620   22.3080 C   0  0  0  0  0  0  0  0  0  0  0  0
  1  2  1  0
  2  3  2  0
  2  4  1  0
  4  5  1  0
  5  6  1  0
  6  7  1  0
  7  8  1  0
  8  9  2  0
  8 10  1  0
 10 11  1  0
 11 12  1  0
 12 13  1  0
 13 14  1  0
 14 15  1  0
 15 16  2  0
 16 17  1  0
 17 18  1  0
 18 19  2  0
 18 20  1  0
 20 21  1  0
 17 22  2  0
 14 23  2  0
 22 23  1  0
 10 24  1  0
 23 24  1  0
  7 25  1  0
  4 26  1  0
 25 26  1  0
M  END
