piperidine-amides-28708-covalent
     RDKit          3D

 25 27  0  0  0  0  0  0  0  0999 V2000
    7.0490   -3.3480   19.3480 C   0  0  0  0  0  0  0  0  0  0  0  0
    6.3980   -4.2080   20.3350 C   0  0  0  0  0  0  0  0  0  0  0  0
    5.3940   -4.8510   19.9840 O   0  0  0  0  0  0  0  0  0  0  0  0
    6.9440   -4.3220   21.6420 N   0  0  0  0  0  0  0  0  0  0  0  0
    6.5360   -5.4250   22.4580 C   0  0  0  0  0  0  0  0  0  0  0  0
    5.7410   -4.8990   23.6250 C   0  0  0  0  0  0  0  0  0  0  0  0
    6.5880   -3.8520   24.3350 C   0  0  0  0  0  0  0  0  0  0  0  0
    5.8580   -3.2630   25.5220 C   0  0  0  0  0  0  0  0  0  0  0  0
    5.3340   -2.1720   25.3330 O   0  0  0  0  0  0  0  0  0  0  0  0
    5.7630   -3.9660   26.7300 N   0  0  0  0  0  0  0  0  0  0  0  0
    4.6090   -4.6580   27.0480 C   0  0  0  0  0  0  0  0  0  0  0  0
    4.8610   -5.7530   27.8770 C   0  0  0  0  0  0  0  0  0  0  0  0
    5.2590   -5.2370   29.2000 N   0  0  0  0  0  0  0  0  0  0  0  0
    4.9090   -5.8400   30.4270 C   0  0  0  0  0  0  0  0  0  0  0  0
    5.6360   -6.9510   30.8430 C   0  0  0  0  0  0  0  0  0  0  0  0
    5.2620   -7.5820   32.1500 C   0  0  0  0  0  0  0  0  0  0  0  0
    4.1060   -7.0280   33.0110 C   0  0  0  0  0  0  0  0  0  0  0  0
    3.3730   -5.8430   32.5040 C   0  0  0  0  0  0  0  0  0  0  0  0
    2.0460   -5.1150   33.3780 Cl  0  0  0  0  0  0  0  0  0  0  0  0
    3.8750   -5.3360   31.1850 C   0  0  0  0  0  0  0  0  0  0  0  0
    3.0710   -4.0990   30.7160 C   0  0  0  0  0  0  0  0  0  0  0  0
    6.5070   -4.8300   28.5710 C   0  0  0  0  0  0  0  0  0  0  0  0
    6.3790   -3.5850   27.9410 C   0  0  0  0  0  0  0  0  0  0  0  0
    6.9940   -2.7320   23.4420 C   0  0  0  0  0  0  0  0  0  0  0  0
    7.7010   -3.2530   22.2300 C   0  0  0  0  0  0  0  0  0  0  0  0
  1  2  1  0
  2  3  2  0
  2  4  1  0
  4  5  1  0
  5  6  1  0
  6  7  1  0
  7  8  1  0
  8  9  2  0
  8 10  1  0
 10 11  1  0
 11 12  1  0
 12 13  1  0
 13 14  1  0
 14 15  2  0
 15 16  1  0
 16 17  2  0
 17 18  1  0
 18 19  1  0
 14 20  1  0
 18 20  2  0
 20 21  1  0
 13 22  1  0
 10 23  1  0
 22 23  1  0
  7 24  1  0
  4 25  1  0
 24 25  1  0
M  END
