piperidine-amides-8619-covalent
     RDKit          3D

 23 25  0  0  0  0  0  0  0  0999 V2000
    7.0490   -3.3520   19.3860 C   0  0  0  0  0  0  0  0  0  0  0  0
    6.3500   -4.1610   20.3840 C   0  0  0  0  0  0  0  0  0  0  0  0
    5.4040   -4.8710   19.9910 O   0  0  0  0  0  0  0  0  0  0  0  0
    6.7670   -4.1530   21.7450 N   0  0  0  0  0  0  0  0  0  0  0  0
    7.7100   -3.1520   22.1800 C   0  0  0  0  0  0  0  0  0  0  0  0
    7.6150   -3.0240   23.6650 C   0  0  0  0  0  0  0  0  0  0  0  0
    6.2170   -3.4700   23.9840 C   0  0  0  0  0  0  0  0  0  0  0  0
    5.8320   -3.1610   25.4050 C   0  0  0  0  0  0  0  0  0  0  0  0
    4.7830   -3.6760   25.7900 O   0  0  0  0  0  0  0  0  0  0  0  0
    6.6380   -2.3150   26.1800 N   0  0  0  0  0  0  0  0  0  0  0  0
    6.0640   -1.3920   27.1240 C   0  0  2  0  0  0  0  0  0  0  0  0
    5.7750   -0.0270   26.5640 C   0  0  0  0  0  0  0  0  0  0  0  0
    5.5320    1.0330   27.3220 O   0  0  0  0  0  0  0  0  0  0  0  0
    6.0510    0.7440   28.4740 C   0  0  0  0  0  0  0  0  0  0  0  0
    6.0500   -0.0590   27.5420 C   0  0  0  0  0  0  0  0  0  0  0  0
    5.6300    1.3920   28.0150 C   0  0  0  0  0  0  0  0  0  0  0  0
    4.7940    2.5770   26.9780 Cl  0  0  0  0  0  0  0  0  0  0  0  0
    6.0630    1.6970   29.6090 C   0  0  0  0  0  0  0  0  0  0  0  0
    6.7710    0.5360   30.3010 C   0  0  0  0  0  0  0  0  0  0  0  0
    6.6320   -0.1500   29.1130 C   0  0  0  0  0  0  0  0  0  0  0  0
    6.9020   -1.4380   28.4170 C   0  0  0  0  0  0  0  0  0  0  0  0
    6.1140   -4.9740   23.7930 C   0  0  0  0  0  0  0  0  0  0  0  0
    6.6270   -5.3420   22.5550 C   0  0  0  0  0  0  0  0  0  0  0  0
  1  2  1  0
  2  3  2  0
  2  4  1  0
  4  5  1  0
  5  6  1  0
  6  7  1  0
  7  8  1  0
  8  9  2  0
  8 10  1  0
 11 10  1  6
 11 12  1  0
 12 13  1  0
 13 14  1  0
 14 15  2  0
 15 16  1  0
 16 17  1  0
 16 18  2  0
 18 19  1  0
 14 20  1  0
 19 20  2  0
 11 21  1  0
 20 21  1  0
  7 22  1  0
  4 23  1  0
 22 23  1  0
M  END
