piperidine-amides-1092-covalent
     RDKit          3D

 23 24  0  0  0  0  0  0  0  0999 V2000
    7.1580   -3.2850   19.2480 C   0  0  0  0  0  0  0  0  0  0  0  0
    6.3340   -4.0310   20.2380 C   0  0  0  0  0  0  0  0  0  0  0  0
    5.2590   -4.5380   19.8780 O   0  0  0  0  0  0  0  0  0  0  0  0
    6.8270   -4.1850   21.5490 N   0  0  0  0  0  0  0  0  0  0  0  0
    7.7070   -3.2000   22.1380 C   0  0  0  0  0  0  0  0  0  0  0  0
    6.9730   -2.6270   23.3440 C   0  0  0  0  0  0  0  0  0  0  0  0
    6.5050   -3.8030   24.1230 C   0  0  0  0  0  0  0  0  0  0  0  0
    5.8040   -3.3930   25.3560 C   0  0  0  0  0  0  0  0  0  0  0  0
    4.5680   -3.4000   25.3380 O   0  0  0  0  0  0  0  0  0  0  0  0
    6.5640   -3.0110   26.4630 N   0  0  0  0  0  0  0  0  0  0  0  0
    6.1780   -2.9370   27.8210 C   0  0  0  0  0  0  0  0  0  0  0  0
    5.6950   -3.9640   28.6000 C   0  0  0  0  0  0  0  0  0  0  0  0
    6.4590   -5.1090   28.9040 C   0  0  0  0  0  0  0  0  0  0  0  0
    5.9710   -6.1290   29.6890 C   0  0  0  0  0  0  0  0  0  0  0  0
    4.6000   -6.0290   30.2450 C   0  0  0  0  0  0  0  0  0  0  0  0
    4.1490   -7.4170   31.2410 S   0  0  0  0  0  0  0  0  0  0  0  0
    5.4540   -7.8100   32.3500 C   0  0  0  0  0  0  0  0  0  0  0  0
    3.8630   -4.9410   29.9560 C   0  0  0  0  0  0  0  0  0  0  0  0
    2.5730   -4.7040   30.3900 C   0  0  0  0  0  0  0  0  0  0  0  0
    2.1690   -3.5900   31.0200 N   0  0  0  0  0  0  0  0  0  0  0  0
    4.4340   -3.8830   29.1080 C   0  0  0  0  0  0  0  0  0  0  0  0
    5.6730   -4.7890   23.3610 C   0  0  0  0  0  0  0  0  0  0  0  0
    6.4490   -5.3090   22.3530 C   0  0  0  0  0  0  0  0  0  0  0  0
  1  2  1  0
  2  3  2  0
  2  4  1  0
  4  5  1  0
  5  6  1  0
  6  7  1  0
  7  8  1  0
  8  9  2  0
  8 10  1  0
 10 11  1  0
 11 12  1  0
 12 13  2  0
 13 14  1  0
 14 15  2  0
 15 16  1  0
 16 17  1  0
 15 18  1  0
 18 19  1  0
 19 20  3  0
 12 21  1  0
 18 21  2  0
  7 22  1  0
  4 23  1  0
 22 23  1  0
M  END
