piperidine-amides-33643-covalent
     RDKit          3D

 30 32  0  0  0  0  0  0  0  0999 V2000
    7.1760   -3.2710   19.1270 C   0  0  0  0  0  0  0  0  0  0  0  0
    6.4180   -3.9940   20.1550 C   0  0  0  0  0  0  0  0  0  0  0  0
    5.2850   -4.4290   19.8400 O   0  0  0  0  0  0  0  0  0  0  0  0
    6.9840   -4.2530   21.4240 N   0  0  0  0  0  0  0  0  0  0  0  0
    6.4540   -5.3270   22.1740 C   0  0  0  0  0  0  0  0  0  0  0  0
    5.8600   -4.9280   23.4430 C   0  0  0  0  0  0  0  0  0  0  0  0
    6.5530   -3.8260   24.1450 C   0  0  0  0  0  0  0  0  0  0  0  0
    5.7340   -3.2900   25.2560 C   0  0  0  0  0  0  0  0  0  0  0  0
    4.6670   -2.6840   25.0390 O   0  0  0  0  0  0  0  0  0  0  0  0
    6.1830   -3.4880   26.5470 N   0  0  0  0  0  0  0  0  0  0  0  0
    6.7110   -4.7530   26.9270 C   0  0  0  0  0  0  0  0  0  0  0  0
    6.8860   -5.1770   28.2990 C   0  0  0  0  0  0  0  0  0  0  0  0
    5.6900   -6.0630   28.6920 C   0  0  0  0  0  0  0  0  0  0  0  0
    4.8390   -6.5430   27.7130 C   0  0  0  0  0  0  0  0  0  0  0  0
    3.6460   -7.4360   28.2120 C   0  0  0  0  0  0  0  0  0  0  0  0
    3.4340   -7.7580   29.6920 C   0  0  0  0  0  0  0  0  0  0  0  0
    4.4700   -7.1420   30.6140 C   0  0  0  0  0  0  0  0  0  0  0  0
    4.5670   -7.2370   32.0060 O   0  0  0  0  0  0  0  0  0  0  0  0
    3.9230   -8.2790   32.7370 C   0  0  0  0  0  0  0  0  0  0  0  0
    5.5280   -6.3320   30.0130 C   0  0  0  0  0  0  0  0  0  0  0  0
    6.2840   -2.2320   27.2720 C   0  0  0  0  0  0  0  0  0  0  0  0
    5.6590   -2.1000   28.6060 C   0  0  0  0  0  0  0  0  0  0  0  0
    4.5400   -2.4850   29.1920 C   0  0  0  0  0  0  0  0  0  0  0  0
    4.0670   -2.3820   30.1910 N   0  0  0  0  0  0  0  0  0  0  0  0
    2.7740   -2.9050   30.6660 C   0  0  0  0  0  0  0  0  0  0  0  0
    4.9850   -1.6530   30.8710 N   0  0  0  0  0  0  0  0  0  0  0  0
    6.0840   -1.4290   29.8890 C   0  0  0  0  0  0  0  0  0  0  0  0
    7.2550   -0.7290   30.1530 C   0  0  0  0  0  0  0  0  0  0  0  0
    6.8790   -2.7130   23.1910 C   0  0  0  0  0  0  0  0  0  0  0  0
    7.7420   -3.2060   22.0660 C   0  0  0  0  0  0  0  0  0  0  0  0
  1  2  1  0
  2  3  2  0
  2  4  1  0
  4  5  1  0
  5  6  1  0
  6  7  1  0
  7  8  1  0
  8  9  2  0
  8 10  1  0
 10 11  1  0
 11 12  1  0
 12 13  1  0
 13 14  2  0
 14 15  1  0
 15 16  2  0
 16 17  1  0
 17 18  1  0
 18 19  1  0
 13 20  1  0
 17 20  2  0
 10 21  1  0
 21 22  1  0
 22 23  2  0
 23 24  1  0
 24 25  1  0
 24 26  1  0
 22 27  1  0
 26 27  2  0
 27 28  1  0
  7 29  1  0
  4 30  1  0
 29 30  1  0
M  END
