piperidine-amides-33323-covalent
     RDKit          3D

 30 33  0  0  0  0  0  0  0  0999 V2000
    7.1160   -3.3610   19.3340 C   0  0  0  0  0  0  0  0  0  0  0  0
    6.4010   -4.1540   20.3400 C   0  0  0  0  0  0  0  0  0  0  0  0
    5.3440   -4.7150   19.9550 O   0  0  0  0  0  0  0  0  0  0  0  0
    6.9160   -4.3290   21.6530 N   0  0  0  0  0  0  0  0  0  0  0  0
    7.6790   -3.2740   22.2430 C   0  0  0  0  0  0  0  0  0  0  0  0
    7.2940   -3.0000   23.6150 C   0  0  0  0  0  0  0  0  0  0  0  0
    6.0220   -3.6610   23.9480 C   0  0  0  0  0  0  0  0  0  0  0  0
    5.4050   -3.2460   25.2530 C   0  0  0  0  0  0  0  0  0  0  0  0
    4.1980   -2.9460   25.2420 O   0  0  0  0  0  0  0  0  0  0  0  0
    6.0740   -3.1730   26.4900 N   0  0  0  0  0  0  0  0  0  0  0  0
    5.6490   -3.9330   27.6190 C   0  0  0  0  0  0  0  0  0  0  0  0
    5.9920   -5.2240   27.7670 N   0  0  0  0  0  0  0  0  0  0  0  0
    5.6900   -6.1050   28.7350 C   0  0  0  0  0  0  0  0  0  0  0  0
    4.8000   -5.5250   29.8550 C   0  0  0  0  0  0  0  0  0  0  0  0
    4.4050   -6.3130   30.9220 C   0  0  0  0  0  0  0  0  0  0  0  0
    5.5430   -7.1680   31.4290 C   0  0  0  0  0  0  0  0  0  0  0  0
    5.0570   -8.0120   32.6110 C   0  0  0  0  0  0  0  0  0  0  0  0
    3.5480   -7.8330   33.0340 C   0  0  0  0  0  0  0  0  0  0  0  0
    3.0080   -8.5590   34.0970 O   0  0  0  0  0  0  0  0  0  0  0  0
    3.7890   -9.5480   34.7660 C   0  0  0  0  0  0  0  0  0  0  0  0
    2.4630   -6.9300   32.4410 C   0  0  0  0  0  0  0  0  0  0  0  0
    2.9750   -6.1200   31.2940 C   0  0  0  0  0  0  0  0  0  0  0  0
    4.4580   -4.1960   29.6870 C   0  0  0  0  0  0  0  0  0  0  0  0
    3.6550   -3.6680   30.7000 C   0  0  0  0  0  0  0  0  0  0  0  0
    4.8760   -3.4120   28.5860 N   0  0  0  0  0  0  0  0  0  0  0  0
    6.6750   -1.8700   26.7330 C   0  0  0  0  0  0  0  0  0  0  0  0
    6.7790   -1.2810   28.0940 C   0  0  0  0  0  0  0  0  0  0  0  0
    5.9530   -0.6430   27.1710 C   0  0  0  0  0  0  0  0  0  0  0  0
    6.2100   -5.1550   23.8250 C   0  0  0  0  0  0  0  0  0  0  0  0
    6.5990   -5.5300   22.3970 C   0  0  0  0  0  0  0  0  0  0  0  0
  1  2  1  0
  2  3  2  0
  2  4  1  0
  4  5  1  0
  5  6  1  0
  6  7  1  0
  7  8  1  0
  8  9  2  0
  8 10  1  0
 10 11  1  0
 11 12  2  0
 12 13  1  0
 13 14  2  0
 14 15  1  0
 15 16  2  0
 16 17  1  0
 17 18  2  0
 18 19  1  0
 19 20  1  0
 18 21  1  0
 15 22  1  0
 21 22  2  0
 14 23  1  0
 23 24  1  0
 11 25  1  0
 23 25  2  0
 10 26  1  0
 26 27  1  0
 26 28  1  0
 27 28  1  0
  7 29  1  0
  4 30  1  0
 29 30  1  0
M  END
