piperidine-amides-1382-covalent
     RDKit          3D

 22 24  0  0  0  0  0  0  0  0999 V2000
    7.1200   -3.2560   19.1950 C   0  0  0  0  0  0  0  0  0  0  0  0
    6.3430   -4.0340   20.2020 C   0  0  0  0  0  0  0  0  0  0  0  0
    5.2570   -4.5330   19.8700 O   0  0  0  0  0  0  0  0  0  0  0  0
    6.8720   -4.2450   21.4890 N   0  0  0  0  0  0  0  0  0  0  0  0
    6.5490   -5.4130   22.2660 C   0  0  0  0  0  0  0  0  0  0  0  0
    5.6730   -4.9370   23.4290 C   0  0  0  0  0  0  0  0  0  0  0  0
    6.4710   -3.9020   24.1450 C   0  0  0  0  0  0  0  0  0  0  0  0
    5.8240   -3.3700   25.3580 C   0  0  0  0  0  0  0  0  0  0  0  0
    4.5870   -3.3640   25.3920 O   0  0  0  0  0  0  0  0  0  0  0  0
    6.6400   -2.9000   26.3820 N   0  0  0  0  0  0  0  0  0  0  0  0
    6.2540   -2.3490   27.6180 C   0  0  0  0  0  0  0  0  0  0  0  0
    6.1170   -0.9880   27.7900 C   0  0  0  0  0  0  0  0  0  0  0  0
    5.8430    0.0230   26.8600 C   0  0  0  0  0  0  0  0  0  0  0  0
    5.8130    1.2730   27.6100 N   0  0  0  0  0  0  0  0  0  0  0  0
    6.0500    1.0470   28.8960 N   0  0  0  0  0  0  0  0  0  0  0  0
    6.2370   -0.2330   29.0850 C   0  0  0  0  0  0  0  0  0  0  0  0
    6.5220   -0.7460   30.4360 C   0  0  0  0  0  0  0  0  0  0  0  0
    6.8260    0.3760   31.4490 C   0  0  0  0  0  0  0  0  0  0  0  0
    5.8420    1.4940   31.0430 C   0  0  0  0  0  0  0  0  0  0  0  0
    6.0730    2.0300   29.7820 C   0  0  0  0  0  0  0  0  0  0  0  0
    6.8750   -2.7490   23.3050 C   0  0  0  0  0  0  0  0  0  0  0  0
    7.6740   -3.2060   22.1070 C   0  0  0  0  0  0  0  0  0  0  0  0
  1  2  1  0
  2  3  2  0
  2  4  1  0
  4  5  1  0
  5  6  1  0
  6  7  1  0
  7  8  1  0
  8  9  2  0
  8 10  1  0
 10 11  1  0
 11 12  1  0
 12 13  1  0
 13 14  2  0
 14 15  1  0
 12 16  2  0
 15 16  1  0
 16 17  1  0
 17 18  1  0
 18 19  1  0
 15 20  1  0
 19 20  1  0
  7 21  1  0
  4 22  1  0
 21 22  1  0
M  END
