piperidine-amides-33805-covalent
     RDKit          3D

 30 32  0  0  0  0  0  0  0  0999 V2000
    7.0080   -3.4050   19.3950 C   0  0  0  0  0  0  0  0  0  0  0  0
    6.4090   -4.2890   20.4130 C   0  0  0  0  0  0  0  0  0  0  0  0
    5.4300   -4.9730   20.0150 O   0  0  0  0  0  0  0  0  0  0  0  0
    6.9380   -4.3960   21.7350 N   0  0  0  0  0  0  0  0  0  0  0  0
    6.5540   -5.5040   22.5590 C   0  0  0  0  0  0  0  0  0  0  0  0
    6.0260   -5.1140   23.8740 C   0  0  0  0  0  0  0  0  0  0  0  0
    5.9560   -3.6540   24.0170 C   0  0  0  0  0  0  0  0  0  0  0  0
    5.2510   -3.0560   25.2280 C   0  0  0  0  0  0  0  0  0  0  0  0
    4.5140   -2.0930   24.9940 O   0  0  0  0  0  0  0  0  0  0  0  0
    5.3160   -3.4550   26.5900 N   0  0  0  0  0  0  0  0  0  0  0  0
    6.4300   -3.4000   27.3530 C   0  0  0  0  0  0  0  0  0  0  0  0
    6.5600   -4.4920   28.3090 C   0  0  0  0  0  0  0  0  0  0  0  0
    5.5140   -4.7740   29.0640 N   0  0  0  0  0  0  0  0  0  0  0  0
    5.4540   -5.8760   29.9900 C   0  0  0  0  0  0  0  0  0  0  0  0
    6.4590   -6.7980   29.8720 O   0  0  0  0  0  0  0  0  0  0  0  0
    4.5010   -5.8580   30.7960 O   0  0  0  0  0  0  0  0  0  0  0  0
    4.2220   -6.6930   31.7980 C   0  0  0  0  0  0  0  0  0  0  0  0
    5.4090   -7.5540   32.2400 C   0  0  0  0  0  0  0  0  0  0  0  0
    3.5820   -6.0130   33.0210 C   0  0  0  0  0  0  0  0  0  0  0  0
    3.4570   -7.8990   31.3850 C   0  0  0  0  0  0  0  0  0  0  0  0
    4.3200   -4.1130   28.7450 C   0  0  0  0  0  0  0  0  0  0  0  0
    4.1880   -3.3000   27.4400 C   0  0  2  0  0  0  0  0  0  0  0  0
    2.8330   -3.4670   26.7250 C   0  0  0  0  0  0  0  0  0  0  0  0
    1.7860   -2.5030   27.1860 C   0  0  0  0  0  0  0  0  0  0  0  0
    0.4980   -2.4840   26.6650 C   0  0  0  0  0  0  0  0  0  0  0  0
    0.1600   -3.3800   25.6880 C   0  0  0  0  0  0  0  0  0  0  0  0
    1.1890   -4.3630   25.2020 C   0  0  0  0  0  0  0  0  0  0  0  0
    2.4730   -4.3600   25.7420 C   0  0  0  0  0  0  0  0  0  0  0  0
    7.3380   -3.1040   23.7690 C   0  0  0  0  0  0  0  0  0  0  0  0
    7.6700   -3.2670   22.2950 C   0  0  0  0  0  0  0  0  0  0  0  0
  1  2  1  0
  2  3  2  0
  2  4  1  0
  4  5  1  0
  5  6  1  0
  6  7  1  0
  7  8  1  0
  8  9  2  0
  8 10  1  0
 10 11  1  0
 11 12  1  0
 12 13  1  0
 13 14  1  0
 14 15  2  0
 14 16  1  0
 17 16  1  0
 17 18  1  0
 17 19  1  0
 17 20  1  0
 13 21  1  0
 10 22  1  0
 21 22  1  0
 22 23  1  6
 23 24  2  0
 24 25  1  0
 25 26  2  0
 26 27  1  0
 23 28  1  0
 27 28  2  0
  7 29  1  0
  4 30  1  0
 29 30  1  0
M  END
