piperidine-amides-6944-covalent
     RDKit          3D

 22 24  0  0  0  0  0  0  0  0999 V2000
    7.0860   -3.3330   19.3040 C   0  0  0  0  0  0  0  0  0  0  0  0
    6.4000   -4.1720   20.2950 C   0  0  0  0  0  0  0  0  0  0  0  0
    5.3700   -4.8060   19.9750 O   0  0  0  0  0  0  0  0  0  0  0  0
    6.9210   -4.3160   21.5880 N   0  0  0  0  0  0  0  0  0  0  0  0
    7.7630   -3.2800   22.1520 C   0  0  0  0  0  0  0  0  0  0  0  0
    6.9560   -2.6700   23.2860 C   0  0  0  0  0  0  0  0  0  0  0  0
    6.6090   -3.8220   24.1880 C   0  0  0  0  0  0  0  0  0  0  0  0
    5.9040   -3.3020   25.3670 C   0  0  0  0  0  0  0  0  0  0  0  0
    4.7020   -3.6030   25.5350 O   0  0  0  0  0  0  0  0  0  0  0  0
    6.6070   -2.4630   26.2580 N   0  0  0  0  0  0  0  0  0  0  0  0
    5.8860   -1.6050   27.1520 C   0  0  1  0  0  0  0  0  0  0  0  0
    6.4490   -1.8420   28.5430 C   0  0  0  0  0  0  0  0  0  0  0  0
    7.1740   -0.8770   29.1670 C   0  0  0  0  0  0  0  0  0  0  0  0
    6.6350    0.3800   29.2480 C   0  0  0  0  0  0  0  0  0  0  0  0
    6.2290    0.9180   28.0060 N   0  0  0  0  0  0  0  0  0  0  0  0
    5.5460    2.1060   27.8750 C   0  0  0  0  0  0  0  0  0  0  0  0
    4.4210    1.8260   27.1260 C   0  0  0  0  0  0  0  0  0  0  0  0
    4.5460    1.4640   25.6550 C   0  0  0  0  0  0  0  0  0  0  0  0
    4.6620    0.2530   26.5660 C   0  0  0  0  0  0  0  0  0  0  0  0
    6.0450   -0.1070   26.9810 C   0  0  2  0  0  0  0  0  0  0  0  0
    5.7580   -4.8470   23.4740 C   0  0  0  0  0  0  0  0  0  0  0  0
    6.5220   -5.4080   22.4400 C   0  0  0  0  0  0  0  0  0  0  0  0
  1  2  1  0
  2  3  2  0
  2  4  1  0
  4  5  1  0
  5  6  1  0
  6  7  1  0
  7  8  1  0
  8  9  2  0
  8 10  1  0
 11 10  1  6
 11 12  1  0
 12 13  1  0
 13 14  1  0
 14 15  1  0
 15 16  1  0
 16 17  1  0
 17 18  1  0
 18 19  1  0
 11 20  1  0
 15 20  1  0
 20 19  1  1
  7 21  1  0
  4 22  1  0
 21 22  1  0
M  END
