piperidine-amides-29967-covalent
     RDKit          3D

 27 30  0  0  0  0  0  0  0  0999 V2000
    7.0500   -3.3710   19.4220 C   0  0  0  0  0  0  0  0  0  0  0  0
    6.3160   -4.2160   20.3590 C   0  0  0  0  0  0  0  0  0  0  0  0
    5.3340   -4.8440   19.9750 O   0  0  0  0  0  0  0  0  0  0  0  0
    6.7600   -4.3550   21.7170 N   0  0  0  0  0  0  0  0  0  0  0  0
    7.6120   -3.3280   22.2900 C   0  0  0  0  0  0  0  0  0  0  0  0
    7.3830   -3.1820   23.7690 C   0  0  0  0  0  0  0  0  0  0  0  0
    6.1060   -3.9280   24.1090 C   0  0  0  0  0  0  0  0  0  0  0  0
    5.6790   -3.6710   25.5250 C   0  0  0  0  0  0  0  0  0  0  0  0
    5.4020   -2.5160   25.8850 O   0  0  0  0  0  0  0  0  0  0  0  0
    5.5300   -4.7230   26.4920 N   0  0  0  0  0  0  0  0  0  0  0  0
    6.5930   -5.0520   27.3020 C   0  0  0  0  0  0  0  0  0  0  0  0
    5.9570   -4.2260   28.4630 C   0  0  0  0  0  0  0  0  0  0  0  0
    5.0170   -3.2070   28.1990 N   0  0  0  0  0  0  0  0  0  0  0  0
    5.2000   -1.9120   28.6540 C   0  0  0  0  0  0  0  0  0  0  0  0
    6.1300   -1.1530   29.3920 C   0  0  0  0  0  0  0  0  0  0  0  0
    7.0750   -0.3080   28.7610 O   0  0  0  0  0  0  0  0  0  0  0  0
    6.0540   -1.2190   30.7280 O   0  0  0  0  0  0  0  0  0  0  0  0
    4.8950   -0.8510   31.4350 C   0  0  0  0  0  0  0  0  0  0  0  0
    4.0290   -1.1970   28.1880 C   0  0  0  0  0  0  0  0  0  0  0  0
    3.3600   -2.1630   27.5470 C   0  0  0  0  0  0  0  0  0  0  0  0
    3.7830   -3.4950   27.4180 C   0  0  0  0  0  0  0  0  0  0  0  0
    4.6020   -4.5770   27.5780 C   0  0  0  0  0  0  0  0  0  0  0  0
    4.1950   -5.8480   28.0630 C   0  0  0  0  0  0  0  0  0  0  0  0
    4.9290   -5.7170   29.1960 C   0  0  0  0  0  0  0  0  0  0  0  0
    5.2830   -4.3680   28.9910 C   0  0  0  0  0  0  0  0  0  0  0  0
    6.2930   -5.3950   23.8510 C   0  0  0  0  0  0  0  0  0  0  0  0
    6.6650   -5.6370   22.3800 C   0  0  0  0  0  0  0  0  0  0  0  0
  1  2  1  0
  2  3  2  0
  2  4  1  0
  4  5  1  0
  5  6  1  0
  6  7  1  0
  7  8  1  0
  8  9  2  0
  8 10  1  0
 10 11  1  0
 11 12  1  0
 12 13  1  0
 13 14  1  0
 14 15  1  0
 15 16  2  0
 15 17  1  0
 17 18  1  0
 14 19  2  0
 19 20  1  0
 13 21  1  0
 20 21  2  0
 22 10  1  0
 21 22  1  0
 22 23  1  0
 23 24  1  0
 22 25  1  0
 24 25  1  0
  7 26  1  0
  4 27  1  0
 26 27  1  0
M  END
