piperidine-amides-1020-covalent
     RDKit          3D

 24 25  0  0  0  0  0  0  0  0999 V2000
    7.0810   -3.2840   19.2860 C   0  0  0  0  0  0  0  0  0  0  0  0
    6.3480   -4.0900   20.3050 C   0  0  0  0  0  0  0  0  0  0  0  0
    5.3470   -4.7410   19.9530 O   0  0  0  0  0  0  0  0  0  0  0  0
    6.8230   -4.1240   21.6370 N   0  0  0  0  0  0  0  0  0  0  0  0
    7.7270   -3.1120   22.1550 C   0  0  0  0  0  0  0  0  0  0  0  0
    7.5500   -3.0140   23.6750 C   0  0  0  0  0  0  0  0  0  0  0  0
    6.1980   -3.5550   23.9760 C   0  0  0  0  0  0  0  0  0  0  0  0
    5.6680   -3.2290   25.3250 C   0  0  0  0  0  0  0  0  0  0  0  0
    4.4570   -2.9930   25.3700 O   0  0  0  0  0  0  0  0  0  0  0  0
    6.4780   -3.2010   26.4690 N   0  0  0  0  0  0  0  0  0  0  0  0
    6.1040   -3.6850   27.7520 C   0  0  1  0  0  0  0  0  0  0  0  0
    6.7440   -4.6690   28.4760 C   0  0  0  0  0  0  0  0  0  0  0  0
    5.9910   -2.5150   28.7330 C   0  0  0  0  0  0  0  0  0  0  0  0
    6.9500   -1.5350   28.7920 C   0  0  0  0  0  0  0  0  0  0  0  0
    6.8830   -0.4000   29.7280 C   0  0  0  0  0  0  0  0  0  0  0  0
    5.7220   -0.2480   30.6970 C   0  0  0  0  0  0  0  0  0  0  0  0
    4.7070   -1.3820   30.5520 C   0  0  0  0  0  0  0  0  0  0  0  0
    3.2700   -1.4210   31.5830 S   0  0  0  0  0  0  0  0  0  0  0  0
    1.8590   -1.6230   30.6260 N   0  0  0  0  0  0  0  0  0  0  0  0
    3.2020   -0.1670   32.4310 O   0  0  0  0  0  0  0  0  0  0  0  0
    3.4370   -2.6260   32.4550 O   0  0  0  0  0  0  0  0  0  0  0  0
    4.9290   -2.3850   29.6090 C   0  0  0  0  0  0  0  0  0  0  0  0
    6.0740   -5.0180   23.7320 C   0  0  0  0  0  0  0  0  0  0  0  0
    6.6700   -5.3600   22.3790 C   0  0  0  0  0  0  0  0  0  0  0  0
  1  2  1  0
  2  3  2  0
  2  4  1  0
  4  5  1  0
  5  6  1  0
  6  7  1  0
  7  8  1  0
  8  9  2  0
  8 10  1  0
 10 11  1  0
 11 12  1  1
 11 13  1  0
 13 14  2  0
 14 15  1  0
 15 16  2  0
 16 17  1  0
 17 18  1  0
 18 19  1  0
 18 20  2  0
 18 21  2  0
 13 22  1  0
 17 22  2  0
  7 23  1  0
  4 24  1  0
 23 24  1  0
M  END
