piperidine-amides-10734-covalent
     RDKit          3D

 22 23  0  0  0  0  0  0  0  0999 V2000
    7.0760   -3.3490   19.3360 C   0  0  0  0  0  0  0  0  0  0  0  0
    6.3490   -4.1260   20.3360 C   0  0  0  0  0  0  0  0  0  0  0  0
    5.3640   -4.7940   19.9760 O   0  0  0  0  0  0  0  0  0  0  0  0
    6.7790   -4.1690   21.6760 N   0  0  0  0  0  0  0  0  0  0  0  0
    7.7280   -3.1960   22.1960 C   0  0  0  0  0  0  0  0  0  0  0  0
    7.4610   -3.0590   23.6650 C   0  0  0  0  0  0  0  0  0  0  0  0
    6.1120   -3.5920   24.0090 C   0  0  0  0  0  0  0  0  0  0  0  0
    5.6590   -3.2510   25.3790 C   0  0  0  0  0  0  0  0  0  0  0  0
    4.4410   -3.4080   25.6850 O   0  0  0  0  0  0  0  0  0  0  0  0
    6.5050   -2.7380   26.3920 N   0  0  0  0  0  0  0  0  0  0  0  0
    6.3220   -1.3560   26.8980 C   0  0  0  0  0  0  0  0  0  0  0  0
    5.7610   -0.3250   26.0030 C   0  0  0  0  0  0  0  0  0  0  0  0
    5.6700    0.8420   26.6530 N   0  0  0  0  0  0  0  0  0  0  0  0
    6.0330    1.1360   27.9830 C   0  0  0  0  0  0  0  0  0  0  0  0
    5.8410    2.5330   28.5200 C   0  0  0  0  0  0  0  0  0  0  0  0
    4.5580    2.4770   29.0170 O   0  0  0  0  0  0  0  0  0  0  0  0
    4.3810    1.3210   29.7360 C   0  0  0  0  0  0  0  0  0  0  0  0
    6.5450    0.2110   28.7950 N   0  0  0  0  0  0  0  0  0  0  0  0
    6.6950   -1.0190   28.2920 C   0  0  0  0  0  0  0  0  0  0  0  0
    7.2000   -2.0040   29.0790 C   0  0  0  0  0  0  0  0  0  0  0  0
    6.0520   -5.0840   23.7970 C   0  0  0  0  0  0  0  0  0  0  0  0
    6.6340   -5.4020   22.4330 C   0  0  0  0  0  0  0  0  0  0  0  0
  1  2  1  0
  2  3  2  0
  2  4  1  0
  4  5  1  0
  5  6  1  0
  6  7  1  0
  7  8  1  0
  8  9  2  0
  8 10  1  0
 10 11  1  0
 11 12  2  0
 12 13  1  0
 13 14  2  0
 14 15  1  0
 15 16  1  0
 16 17  1  0
 14 18  1  0
 11 19  1  0
 18 19  2  0
 19 20  1  0
  7 21  1  0
  4 22  1  0
 21 22  1  0
M  END
