piperidine-amides-2207-covalent
     RDKit          3D

 29 32  0  0  0  0  0  0  0  0999 V2000
    7.0660   -3.3360   19.2800 C   0  0  0  0  0  0  0  0  0  0  0  0
    6.3870   -4.1760   20.3010 C   0  0  0  0  0  0  0  0  0  0  0  0
    5.3610   -4.7590   19.9560 O   0  0  0  0  0  0  0  0  0  0  0  0
    6.9460   -4.3210   21.5730 N   0  0  0  0  0  0  0  0  0  0  0  0
    6.6030   -5.4190   22.4360 C   0  0  0  0  0  0  0  0  0  0  0  0
    5.8300   -4.8940   23.6140 C   0  0  0  0  0  0  0  0  0  0  0  0
    6.5840   -3.7300   24.2700 C   0  0  0  0  0  0  0  0  0  0  0  0
    5.7810   -3.2610   25.4110 C   0  0  0  0  0  0  0  0  0  0  0  0
    4.5660   -3.0760   25.2650 O   0  0  0  0  0  0  0  0  0  0  0  0
    6.3780   -3.0280   26.6610 N   0  0  0  0  0  0  0  0  0  0  0  0
    6.3500   -1.6920   27.2130 C   0  0  0  0  0  0  0  0  0  0  0  0
    7.0000   -1.5410   28.5470 C   0  0  0  0  0  0  0  0  0  0  0  0
    7.0920   -0.3890   29.2570 C   0  0  0  0  0  0  0  0  0  0  0  0
    6.5220    0.7010   28.6530 C   0  0  0  0  0  0  0  0  0  0  0  0
    5.9000    0.6830   27.4330 C   0  0  0  0  0  0  0  0  0  0  0  0
    5.3360    2.0550   26.9670 C   0  0  0  0  0  0  0  0  0  0  0  0
    5.7640    2.8910   28.1870 C   0  0  0  0  0  0  0  0  0  0  0  0
    6.4450    2.0130   29.1090 N   0  0  0  0  0  0  0  0  0  0  0  0
    6.9520    2.5430   30.3480 C   0  0  0  0  0  0  0  0  0  0  0  0
    8.2260    3.3280   30.3220 C   0  0  0  0  0  0  0  0  0  0  0  0
    9.1350    3.3780   31.3390 N   0  0  0  0  0  0  0  0  0  0  0  0
   10.4330    3.9870   31.1880 C   0  0  0  0  0  0  0  0  0  0  0  0
   10.9780    4.8690   32.3010 C   0  0  0  0  0  0  0  0  0  0  0  0
    9.9270    5.3750   33.0510 O   0  0  0  0  0  0  0  0  0  0  0  0
    9.1460    4.4300   33.6490 C   0  0  0  0  0  0  0  0  0  0  0  0
    8.4750    3.5460   32.6220 C   0  0  0  0  0  0  0  0  0  0  0  0
    5.8170   -0.5020   26.7240 C   0  0  0  0  0  0  0  0  0  0  0  0
    6.8750   -2.6700   23.2640 C   0  0  0  0  0  0  0  0  0  0  0  0
    7.7550   -3.2480   22.1670 C   0  0  0  0  0  0  0  0  0  0  0  0
  1  2  1  0
  2  3  2  0
  2  4  1  0
  4  5  1  0
  5  6  1  0
  6  7  1  0
  7  8  1  0
  8  9  2  0
  8 10  1  0
 10 11  1  0
 11 12  2  0
 12 13  1  0
 13 14  2  0
 14 15  1  0
 15 16  1  0
 16 17  2  0
 14 18  1  0
 17 18  1  0
 18 19  1  0
 19 20  1  0
 20 21  1  0
 21 22  1  0
 22 23  1  0
 23 24  1  0
 24 25  1  0
 21 26  1  0
 25 26  1  0
 11 27  1  0
 15 27  2  0
  7 28  1  0
  4 29  1  0
 28 29  1  0
M  END
