piperidine-amides-29221-covalent
     RDKit          3D

 26 27  0  0  0  0  0  0  0  0999 V2000
    7.0810   -3.3590   19.2960 C   0  0  0  0  0  0  0  0  0  0  0  0
    6.3620   -4.1750   20.2660 C   0  0  0  0  0  0  0  0  0  0  0  0
    5.2920   -4.7020   19.9290 O   0  0  0  0  0  0  0  0  0  0  0  0
    6.9300   -4.3910   21.5350 N   0  0  0  0  0  0  0  0  0  0  0  0
    6.5170   -5.5540   22.2680 C   0  0  0  0  0  0  0  0  0  0  0  0
    5.7010   -5.1250   23.4550 C   0  0  0  0  0  0  0  0  0  0  0  0
    6.5460   -4.1200   24.2070 C   0  0  0  0  0  0  0  0  0  0  0  0
    5.8460   -3.6180   25.4190 C   0  0  0  0  0  0  0  0  0  0  0  0
    4.6500   -3.3520   25.2900 O   0  0  0  0  0  0  0  0  0  0  0  0
    6.5600   -3.4780   26.6030 N   0  0  0  0  0  0  0  0  0  0  0  0
    5.8200   -3.3830   27.8040 C   0  0  0  0  0  0  0  0  0  0  0  0
    6.1300   -4.3580   28.7470 C   0  0  0  0  0  0  0  0  0  0  0  0
    7.1020   -5.2870   28.4320 C   0  0  0  0  0  0  0  0  0  0  0  0
    7.4560   -5.5550   27.1120 C   0  0  0  0  0  0  0  0  0  0  0  0
    7.9210   -4.2140   26.6880 C   0  0  1  0  0  0  0  0  0  0  0  0
    8.6340   -3.9660   25.3220 C   0  0  0  0  0  0  0  0  0  0  0  0
    9.1370   -2.7960   25.3190 O   0  0  0  0  0  0  0  0  0  0  0  0
    9.6810   -2.3070   24.1380 C   0  0  0  0  0  0  0  0  0  0  0  0
    9.0310   -1.3520   23.3840 O   0  0  0  0  0  0  0  0  0  0  0  0
   10.9550   -2.8190   23.7360 N   0  0  0  0  0  0  0  0  0  0  0  0
   11.7050   -1.9710   22.8270 C   0  0  0  0  0  0  0  0  0  0  0  0
   12.6220   -0.8010   23.2820 C   0  0  0  0  0  0  0  0  0  0  0  0
   11.7410   -3.0730   24.9000 C   0  0  0  0  0  0  0  0  0  0  0  0
   11.2670   -4.0860   25.7070 C   0  0  0  0  0  0  0  0  0  0  0  0
    6.8720   -2.9300   23.3760 C   0  0  0  0  0  0  0  0  0  0  0  0
    7.6570   -3.3370   22.1830 C   0  0  0  0  0  0  0  0  0  0  0  0
  1  2  1  0
  2  3  2  0
  2  4  1  0
  4  5  1  0
  5  6  1  0
  6  7  1  0
  7  8  1  0
  8  9  2  0
  8 10  1  0
 10 11  1  0
 11 12  1  0
 12 13  1  0
 13 14  1  0
 10 15  1  0
 14 15  1  0
 15 16  1  6
 16 17  1  0
 17 18  1  0
 18 19  2  0
 18 20  1  0
 20 21  1  0
 21 22  1  0
 20 23  1  0
 23 24  1  0
  7 25  1  0
  4 26  1  0
 25 26  1  0
M  END
