piperidine-amides-26835-covalent
     RDKit          3D

 25 27  0  0  0  0  0  0  0  0999 V2000
    7.0570   -3.3950   19.4100 C   0  0  0  0  0  0  0  0  0  0  0  0
    6.3810   -4.2330   20.4050 C   0  0  0  0  0  0  0  0  0  0  0  0
    5.3840   -4.8830   19.9950 O   0  0  0  0  0  0  0  0  0  0  0  0
    6.8710   -4.3190   21.7190 N   0  0  0  0  0  0  0  0  0  0  0  0
    6.6750   -5.5150   22.5300 C   0  0  0  0  0  0  0  0  0  0  0  0
    6.2370   -5.1290   23.9340 C   0  0  0  0  0  0  0  0  0  0  0  0
    6.3020   -3.6390   24.1420 C   0  0  0  0  0  0  0  0  0  0  0  0
    5.9480   -3.1600   25.5100 C   0  0  0  0  0  0  0  0  0  0  0  0
    5.5630   -1.9810   25.5780 O   0  0  0  0  0  0  0  0  0  0  0  0
    5.9210   -3.8810   26.7310 N   0  0  0  0  0  0  0  0  0  0  0  0
    4.6620   -3.8020   27.3980 C   0  0  0  0  0  0  0  0  0  0  0  0
    4.1620   -5.1860   27.7350 C   0  0  0  0  0  0  0  0  0  0  0  0
    5.0280   -5.7070   28.7740 N   0  0  0  0  0  0  0  0  0  0  0  0
    4.5600   -5.7910   30.0170 C   0  0  1  0  0  0  0  0  0  0  0  0
    3.1780   -5.7500   30.1450 C   0  0  0  0  0  0  0  0  0  0  0  0
    2.6750   -6.3850   31.2720 C   0  0  0  0  0  0  0  0  0  0  0  0
    3.3710   -7.6150   31.4380 N   0  0  0  0  0  0  0  0  0  0  0  0
    2.7600   -8.4780   32.4280 C   0  0  0  0  0  0  0  0  0  0  0  0
    4.7430   -7.3910   31.7710 C   0  0  2  0  0  0  0  0  0  0  0  0
    5.1050   -6.6860   33.0500 C   0  0  0  0  0  0  0  0  0  0  0  0
    5.2160   -6.8470   30.6030 C   0  0  0  0  0  0  0  0  0  0  0  0
    6.3510   -5.1040   28.7400 C   0  0  0  0  0  0  0  0  0  0  0  0
    6.3400   -3.7020   28.1160 C   0  0  0  0  0  0  0  0  0  0  0  0
    7.5920   -3.0790   23.6960 C   0  0  0  0  0  0  0  0  0  0  0  0
    7.7300   -3.2660   22.2100 C   0  0  0  0  0  0  0  0  0  0  0  0
  1  2  1  0
  2  3  2  0
  2  4  1  0
  4  5  1  0
  5  6  1  0
  6  7  1  0
  7  8  1  0
  8  9  2  0
  8 10  1  0
 10 11  1  0
 11 12  1  0
 12 13  1  0
 14 13  1  6
 14 15  1  0
 15 16  1  0
 16 17  1  0
 17 18  1  0
 17 19  1  0
 19 20  1  1
 14 21  1  0
 19 21  1  0
 13 22  1  0
 10 23  1  0
 22 23  1  0
  7 24  1  0
  4 25  1  0
 24 25  1  0
M  END
