piperidine-amides-27388-covalent
     RDKit          3D

 26 29  0  0  0  0  0  0  0  0999 V2000
    7.1110   -3.3080   19.2490 C   0  0  0  0  0  0  0  0  0  0  0  0
    6.4000   -4.1160   20.2410 C   0  0  0  0  0  0  0  0  0  0  0  0
    5.2920   -4.5960   19.8990 O   0  0  0  0  0  0  0  0  0  0  0  0
    6.9900   -4.3760   21.4720 N   0  0  0  0  0  0  0  0  0  0  0  0
    6.6760   -5.5810   22.1880 C   0  0  0  0  0  0  0  0  0  0  0  0
    5.8420   -5.1780   23.3600 C   0  0  0  0  0  0  0  0  0  0  0  0
    6.5120   -4.0970   24.1590 C   0  0  0  0  0  0  0  0  0  0  0  0
    5.6150   -3.6580   25.2310 C   0  0  0  0  0  0  0  0  0  0  0  0
    4.4770   -3.2490   24.9270 O   0  0  0  0  0  0  0  0  0  0  0  0
    5.9740   -3.6700   26.5690 N   0  0  0  0  0  0  0  0  0  0  0  0
    5.2420   -4.4730   27.5030 C   0  0  0  0  0  0  0  0  0  0  0  0
    5.4660   -3.9940   28.9260 C   0  0  0  0  0  0  0  0  0  0  0  0
    5.7190   -2.6790   29.2470 C   0  0  0  0  0  0  0  0  0  0  0  0
    4.8610   -1.6490   29.0430 N   0  0  0  0  0  0  0  0  0  0  0  0
    3.6830   -1.5310   28.3940 C   0  0  0  0  0  0  0  0  0  0  0  0
    3.2270   -0.2250   28.5090 N   0  0  0  0  0  0  0  0  0  0  0  0
    4.2640    0.3860   29.2880 C   0  0  0  0  0  0  0  0  0  0  0  0
    4.3330    1.7030   29.7100 C   0  0  0  0  0  0  0  0  0  0  0  0
    5.4060    2.1840   30.4750 C   0  0  0  0  0  0  0  0  0  0  0  0
    6.6110    1.3420   30.9310 C   0  0  0  0  0  0  0  0  0  0  0  0
    6.4660   -0.0910   30.4300 C   0  0  0  0  0  0  0  0  0  0  0  0
    5.2570   -0.4270   29.6280 C   0  0  0  0  0  0  0  0  0  0  0  0
    6.8800   -2.7620   28.3650 C   0  0  0  0  0  0  0  0  0  0  0  0
    6.5530   -2.5140   27.0690 C   0  0  0  0  0  0  0  0  0  0  0  0
    6.8450   -2.9000   23.2940 C   0  0  0  0  0  0  0  0  0  0  0  0
    7.7540   -3.3720   22.1840 C   0  0  0  0  0  0  0  0  0  0  0  0
  1  2  1  0
  2  3  2  0
  2  4  1  0
  4  5  1  0
  5  6  1  0
  6  7  1  0
  7  8  1  0
  8  9  2  0
  8 10  1  0
 10 11  1  0
 11 12  1  0
 12 13  1  0
 13 14  1  0
 14 15  1  0
 15 16  2  0
 16 17  1  0
 17 18  1  0
 18 19  2  0
 19 20  1  0
 20 21  2  0
 14 22  1  0
 17 22  2  0
 21 22  1  0
 13 23  1  0
 10 24  1  0
 23 24  1  0
  7 25  1  0
  4 26  1  0
 25 26  1  0
M  END
