piperidine-amides-25016-covalent
     RDKit          3D

 23 25  0  0  0  0  0  0  0  0999 V2000
    7.1280   -3.3110   19.2570 C   0  0  0  0  0  0  0  0  0  0  0  0
    6.4270   -4.1460   20.2400 C   0  0  0  0  0  0  0  0  0  0  0  0
    5.3670   -4.7410   19.9480 O   0  0  0  0  0  0  0  0  0  0  0  0
    6.9880   -4.3230   21.4990 N   0  0  0  0  0  0  0  0  0  0  0  0
    6.6030   -5.4700   22.2800 C   0  0  0  0  0  0  0  0  0  0  0  0
    5.7340   -4.9090   23.4040 C   0  0  0  0  0  0  0  0  0  0  0  0
    6.6350   -3.9700   24.1680 C   0  0  0  0  0  0  0  0  0  0  0  0
    5.8600   -3.3470   25.2460 C   0  0  0  0  0  0  0  0  0  0  0  0
    5.1570   -2.3530   24.9870 O   0  0  0  0  0  0  0  0  0  0  0  0
    5.8910   -3.8920   26.5300 N   0  0  0  0  0  0  0  0  0  0  0  0
    4.6170   -4.1600   27.1190 C   0  0  0  0  0  0  0  0  0  0  0  0
    4.7680   -5.3060   28.0870 C   0  0  0  0  0  0  0  0  0  0  0  0
    5.4120   -4.9750   29.1950 C   0  0  0  0  0  0  0  0  0  0  0  0
    6.5810   -4.5720   28.6600 C   0  0  0  0  0  0  0  0  0  0  0  0
    6.3500   -3.4740   27.8340 C   0  0  0  0  0  0  0  0  0  0  0  0
    4.3140   -3.9080   30.0880 S   0  0  0  0  0  0  0  0  0  0  0  0
    3.6770   -5.1130   31.1940 C   0  0  0  0  0  0  0  0  0  0  0  0
    4.7070   -6.1880   31.1210 C   0  0  0  0  0  0  0  0  0  0  0  0
    4.8980   -7.0790   31.9500 O   0  0  0  0  0  0  0  0  0  0  0  0
    5.4960   -6.1300   30.0380 N   0  0  0  0  0  0  0  0  0  0  0  0
    6.1400   -7.2780   29.5200 C   0  0  0  0  0  0  0  0  0  0  0  0
    7.2370   -2.8750   23.4020 C   0  0  0  0  0  0  0  0  0  0  0  0
    7.7210   -3.2610   22.0960 C   0  0  0  0  0  0  0  0  0  0  0  0
  1  2  1  0
  2  3  2  0
  2  4  1  0
  4  5  1  0
  5  6  1  0
  6  7  1  0
  7  8  1  0
  8  9  2  0
  8 10  1  0
 10 11  1  0
 11 12  1  0
 12 13  1  0
 13 14  1  0
 10 15  1  0
 14 15  1  0
 13 16  1  0
 16 17  1  0
 17 18  1  0
 18 19  2  0
 13 20  1  0
 18 20  1  0
 20 21  1  0
  7 22  1  0
  4 23  1  0
 22 23  1  0
M  END
