piperidine-amides-4722-covalent
     RDKit          3D

 24 25  0  0  0  0  0  0  0  0999 V2000
    7.1480   -3.3020   19.2170 C   0  0  0  0  0  0  0  0  0  0  0  0
    6.3750   -4.0260   20.2440 C   0  0  0  0  0  0  0  0  0  0  0  0
    5.2810   -4.5040   19.8770 O   0  0  0  0  0  0  0  0  0  0  0  0
    6.8900   -4.2160   21.5320 N   0  0  0  0  0  0  0  0  0  0  0  0
    7.7030   -3.2060   22.1370 C   0  0  0  0  0  0  0  0  0  0  0  0
    7.2480   -2.9020   23.4750 C   0  0  0  0  0  0  0  0  0  0  0  0
    5.9570   -3.5450   23.7660 C   0  0  0  0  0  0  0  0  0  0  0  0
    5.5130   -3.2090   25.1240 C   0  0  0  0  0  0  0  0  0  0  0  0
    4.2990   -3.0350   25.3290 O   0  0  0  0  0  0  0  0  0  0  0  0
    6.4310   -3.0910   26.1610 N   0  0  0  0  0  0  0  0  0  0  0  0
    6.0920   -3.5440   27.5090 C   0  0  0  0  0  0  0  0  0  0  0  0
    6.6660   -2.6270   28.5080 C   0  0  0  0  0  0  0  0  0  0  0  0
    5.7920   -2.0910   29.4810 N   0  0  0  0  0  0  0  0  0  0  0  0
    4.6050   -2.8430   29.8150 C   0  0  0  0  0  0  0  0  0  0  0  0
    4.8610   -4.1960   29.7110 C   0  0  0  0  0  0  0  0  0  0  0  0
    6.2400   -0.9830   30.3080 C   0  0  0  0  0  0  0  0  0  0  0  0
    5.3840   -0.1730   30.9720 C   0  0  0  0  0  0  0  0  0  0  0  0
    5.8310    0.8420   31.7400 C   0  0  0  0  0  0  0  0  0  0  0  0
    7.1550    1.0970   31.8860 C   0  0  0  0  0  0  0  0  0  0  0  0
    8.1160    0.3110   31.2360 C   0  0  0  0  0  0  0  0  0  0  0  0
    9.5760    0.5590   31.3760 C   0  0  0  0  0  0  0  0  0  0  0  0
    7.6090   -0.7280   30.4470 C   0  0  0  0  0  0  0  0  0  0  0  0
    6.0110   -5.0640   23.5230 C   0  0  0  0  0  0  0  0  0  0  0  0
    6.6390   -5.4170   22.3020 C   0  0  0  0  0  0  0  0  0  0  0  0
  1  2  1  0
  2  3  2  0
  2  4  1  0
  4  5  1  0
  5  6  1  0
  6  7  1  0
  7  8  1  0
  8  9  2  0
  8 10  1  0
 10 11  1  0
 11 12  1  0
 12 13  1  0
 13 14  1  0
 14 15  1  0
 13 16  1  0
 16 17  2  0
 17 18  1  0
 18 19  2  0
 19 20  1  0
 20 21  1  0
 16 22  1  0
 20 22  2  0
  7 23  1  0
  4 24  1  0
 23 24  1  0
M  END
