piperidine-amides-4153-covalent
     RDKit          3D

 27 29  0  0  0  0  0  0  0  0999 V2000
    7.2090   -3.2550   19.1010 C   0  0  0  0  0  0  0  0  0  0  0  0
    6.4380   -3.9810   20.1200 C   0  0  0  0  0  0  0  0  0  0  0  0
    5.2910   -4.3920   19.8190 O   0  0  0  0  0  0  0  0  0  0  0  0
    7.0240   -4.2570   21.3680 N   0  0  0  0  0  0  0  0  0  0  0  0
    7.7190   -3.1870   21.9870 C   0  0  0  0  0  0  0  0  0  0  0  0
    7.2260   -2.8380   23.2950 C   0  0  0  0  0  0  0  0  0  0  0  0
    6.5890   -3.9360   24.0430 C   0  0  0  0  0  0  0  0  0  0  0  0
    5.9060   -3.3720   25.2150 C   0  0  0  0  0  0  0  0  0  0  0  0
    4.6840   -3.1200   25.1830 O   0  0  0  0  0  0  0  0  0  0  0  0
    6.6510   -3.1360   26.3600 N   0  0  0  0  0  0  0  0  0  0  0  0
    6.4580   -3.7780   27.5670 C   0  0  1  0  0  0  0  0  0  0  0  0
    7.5960   -4.4240   28.2050 C   0  0  0  0  0  0  0  0  0  0  0  0
    7.9730   -5.6230   27.3030 C   0  0  0  0  0  0  0  0  0  0  0  0
    9.2830   -5.9860   27.1580 C   0  0  0  0  0  0  0  0  0  0  0  0
    8.7800   -5.1540   26.0750 C   0  0  0  0  0  0  0  0  0  0  0  0
    5.7770   -2.7760   28.4490 C   0  0  0  0  0  0  0  0  0  0  0  0
    4.8330   -1.9570   28.0830 N   0  0  0  0  0  0  0  0  0  0  0  0
    4.4770   -1.2230   29.1430 C   0  0  0  0  0  0  0  0  0  0  0  0
    3.3990   -0.1610   29.0900 C   0  0  0  0  0  0  0  0  0  0  0  0
    2.1830   -0.5330   28.6420 N   0  0  0  0  0  0  0  0  0  0  0  0
    1.4290    0.6860   28.7250 C   0  0  0  0  0  0  0  0  0  0  0  0
    2.1950    1.7480   29.2140 N   0  0  0  0  0  0  0  0  0  0  0  0
    3.4260    1.1880   29.4350 N   0  0  0  0  0  0  0  0  0  0  0  0
    5.2780   -1.6610   30.1850 N   0  0  0  0  0  0  0  0  0  0  0  0
    6.0730   -2.6050   29.7650 O   0  0  0  0  0  0  0  0  0  0  0  0
    5.6080   -4.7720   23.2160 C   0  0  0  0  0  0  0  0  0  0  0  0
    6.4230   -5.3550   22.1290 C   0  0  0  0  0  0  0  0  0  0  0  0
  1  2  1  0
  2  3  2  0
  2  4  1  0
  4  5  1  0
  5  6  1  0
  6  7  1  0
  7  8  1  0
  8  9  2  0
  8 10  1  0
 10 11  1  0
 11 12  1  1
 12 13  1  0
 13 14  1  0
 13 15  1  0
 11 16  1  0
 16 17  2  0
 17 18  1  0
 18 19  1  0
 19 20  2  0
 20 21  1  0
 21 22  2  0
 19 23  1  0
 22 23  1  0
 18 24  2  0
 16 25  1  0
 24 25  1  0
  7 26  1  0
  4 27  1  0
 26 27  1  0
M  END
