piperidine-amides-32549-covalent
     RDKit          3D

 28 29  0  0  0  0  0  0  0  0999 V2000
    7.1070   -3.3510   19.3270 C   0  0  0  0  0  0  0  0  0  0  0  0
    6.3660   -4.1660   20.3160 C   0  0  0  0  0  0  0  0  0  0  0  0
    5.3420   -4.7750   19.9650 O   0  0  0  0  0  0  0  0  0  0  0  0
    6.8820   -4.2630   21.6200 N   0  0  0  0  0  0  0  0  0  0  0  0
    6.7260   -5.4930   22.3760 C   0  0  0  0  0  0  0  0  0  0  0  0
    6.2300   -5.1510   23.7910 C   0  0  0  0  0  0  0  0  0  0  0  0
    6.3100   -3.6750   23.9290 C   0  0  0  0  0  0  0  0  0  0  0  0
    5.7380   -3.1200   25.1620 C   0  0  0  0  0  0  0  0  0  0  0  0
    4.9080   -2.2280   25.0000 O   0  0  0  0  0  0  0  0  0  0  0  0
    6.0600   -3.5920   26.4190 N   0  0  0  0  0  0  0  0  0  0  0  0
    5.3160   -4.6550   26.9050 C   0  0  0  0  0  0  0  0  0  0  0  0
    4.6180   -4.4880   28.0520 C   0  0  0  0  0  0  0  0  0  0  0  0
    5.6760   -4.4920   28.9800 N   0  0  0  0  0  0  0  0  0  0  0  0
    6.1640   -5.7120   29.3790 C   0  0  0  0  0  0  0  0  0  0  0  0
    7.3950   -6.2440   29.0920 O   0  0  0  0  0  0  0  0  0  0  0  0
    5.2100   -6.3640   30.1060 O   0  0  0  0  0  0  0  0  0  0  0  0
    4.0070   -6.8290   29.5010 C   0  0  0  0  0  0  0  0  0  0  0  0
    4.2290   -7.0940   28.0450 C   0  0  0  0  0  0  0  0  0  0  0  0
    3.7540   -8.0750   29.9910 C   0  0  0  0  0  0  0  0  0  0  0  0
    2.9070   -6.0980   29.9020 C   0  0  0  0  0  0  0  0  0  0  0  0
    6.5580   -3.5060   28.7610 C   0  0  0  0  0  0  0  0  0  0  0  0
    6.0390   -2.7380   27.5910 C   0  0  1  0  0  0  0  0  0  0  0  0
    6.9110   -1.5150   27.7870 C   0  0  0  0  0  0  0  0  0  0  0  0
    6.2990   -0.3150   28.0610 C   0  0  0  0  0  0  0  0  0  0  0  0
    5.3960    0.1510   27.2520 O   0  0  0  0  0  0  0  0  0  0  0  0
    5.7240    0.2780   25.8760 C   0  0  0  0  0  0  0  0  0  0  0  0
    7.6480   -3.1410   23.6190 C   0  0  0  0  0  0  0  0  0  0  0  0
    7.7650   -3.2140   22.1180 C   0  0  0  0  0  0  0  0  0  0  0  0
  1  2  1  0
  2  3  2  0
  2  4  1  0
  4  5  1  0
  5  6  1  0
  6  7  1  0
  7  8  1  0
  8  9  2  0
  8 10  1  0
 10 11  1  0
 11 12  1  0
 12 13  1  0
 13 14  1  0
 14 15  2  0
 14 16  1  0
 17 16  1  0
 17 18  1  0
 17 19  1  0
 17 20  1  0
 13 21  1  0
 10 22  1  0
 21 22  1  0
 22 23  1  6
 23 24  1  0
 24 25  1  0
 25 26  1  0
  7 27  1  0
  4 28  1  0
 27 28  1  0
M  END
