piperidine-amides-14345-covalent
     RDKit          3D

 24 25  0  0  0  0  0  0  0  0999 V2000
    7.1820   -3.2630   19.1840 C   0  0  0  0  0  0  0  0  0  0  0  0
    6.3840   -3.9520   20.1920 C   0  0  0  0  0  0  0  0  0  0  0  0
    5.2930   -4.4490   19.8540 O   0  0  0  0  0  0  0  0  0  0  0  0
    6.8920   -4.0830   21.4990 N   0  0  0  0  0  0  0  0  0  0  0  0
    7.7750   -3.0790   22.0260 C   0  0  0  0  0  0  0  0  0  0  0  0
    7.1900   -2.4630   23.2540 C   0  0  0  0  0  0  0  0  0  0  0  0
    6.6270   -3.5890   24.0890 C   0  0  0  0  0  0  0  0  0  0  0  0
    5.9190   -3.0030   25.2650 C   0  0  0  0  0  0  0  0  0  0  0  0
    4.6880   -3.1250   25.2960 O   0  0  0  0  0  0  0  0  0  0  0  0
    6.6900   -2.3480   26.2240 N   0  0  0  0  0  0  0  0  0  0  0  0
    7.9430   -2.8520   26.6870 C   0  0  0  0  0  0  0  0  0  0  0  0
    7.9380   -3.1540   28.0510 C   0  0  0  0  0  0  0  0  0  0  0  0
    6.7300   -3.4710   28.6170 C   0  0  0  0  0  0  0  0  0  0  0  0
    6.1840   -2.4730   29.3920 O   0  0  0  0  0  0  0  0  0  0  0  0
    6.1800   -4.7470   28.3400 N   0  0  0  0  0  0  0  0  0  0  0  0
    6.7970   -5.3220   27.2120 C   0  0  0  0  0  0  0  0  0  0  0  0
    8.2610   -5.4120   27.0960 C   0  0  0  0  0  0  0  0  0  0  0  0
    8.8580   -6.0510   25.8450 C   0  0  0  0  0  0  0  0  0  0  0  0
    7.8740   -6.5500   24.8230 C   0  0  0  0  0  0  0  0  0  0  0  0
    6.3930   -6.3630   25.1470 C   0  0  0  0  0  0  0  0  0  0  0  0
    5.5390   -6.9560   23.9960 C   0  0  0  0  0  0  0  0  0  0  0  0
    5.8970   -5.7810   26.2690 N   0  0  0  0  0  0  0  0  0  0  0  0
    5.5890   -4.3310   23.2730 C   0  0  0  0  0  0  0  0  0  0  0  0
    6.3520   -5.0620   22.3920 C   0  0  0  0  0  0  0  0  0  0  0  0
  1  2  1  0
  2  3  2  0
  2  4  1  0
  4  5  1  0
  5  6  1  0
  6  7  1  0
  7  8  1  0
  8  9  2  0
  8 10  1  0
 10 11  1  0
 11 12  1  0
 12 13  1  0
 13 14  2  0
 13 15  1  0
 15 16  1  0
 16 17  2  0
 17 18  1  0
 18 19  2  0
 19 20  1  0
 20 21  1  0
 16 22  1  0
 20 22  2  0
  7 23  1  0
  4 24  1  0
 23 24  1  0
M  END
