piperidine-amides-11153-covalent
     RDKit          3D

 20 21  0  0  0  0  0  0  0  0999 V2000
    7.1370   -3.2830   19.2020 C   0  0  0  0  0  0  0  0  0  0  0  0
    6.3200   -3.9740   20.1940 C   0  0  0  0  0  0  0  0  0  0  0  0
    5.2420   -4.4860   19.8530 O   0  0  0  0  0  0  0  0  0  0  0  0
    6.7640   -4.1200   21.5090 N   0  0  0  0  0  0  0  0  0  0  0  0
    7.6540   -3.1710   22.1440 C   0  0  0  0  0  0  0  0  0  0  0  0
    6.9300   -2.7000   23.3710 C   0  0  0  0  0  0  0  0  0  0  0  0
    6.4870   -3.8530   24.2170 C   0  0  0  0  0  0  0  0  0  0  0  0
    5.7830   -3.4160   25.4510 C   0  0  0  0  0  0  0  0  0  0  0  0
    4.6390   -2.8720   25.3680 O   0  0  0  0  0  0  0  0  0  0  0  0
    6.3310   -3.5670   26.7510 N   0  0  0  0  0  0  0  0  0  0  0  0
    5.6640   -4.3680   27.8160 C   0  0  2  0  0  0  0  0  0  0  0  0
    6.5440   -5.4660   28.2970 C   0  0  0  0  0  0  0  0  0  0  0  0
    5.9880   -6.4290   29.2670 C   0  0  0  0  0  0  0  0  0  0  0  0
    4.2970   -4.8900   27.3990 C   0  0  1  0  0  0  0  0  0  0  0  0
    4.6030   -6.2720   26.7860 C   0  0  0  0  0  0  0  0  0  0  0  0
    3.3210   -6.9930   26.7890 C   0  0  0  0  0  0  0  0  0  0  0  0
    2.4530   -6.3830   27.6030 O   0  0  0  0  0  0  0  0  0  0  0  0
    3.1570   -5.4160   28.3010 C   0  0  0  0  0  0  0  0  0  0  0  0
    5.6280   -4.8220   23.4390 C   0  0  0  0  0  0  0  0  0  0  0  0
    6.4300   -5.3090   22.2560 C   0  0  0  0  0  0  0  0  0  0  0  0
  1  2  1  0
  2  3  2  0
  2  4  1  0
  4  5  1  0
  5  6  1  0
  6  7  1  0
  7  8  1  0
  8  9  2  0
  8 10  1  0
 10 11  1  0
 11 12  1  6
 12 13  1  0
 11 14  1  0
 14 15  1  6
 15 16  1  0
 16 17  1  0
 14 18  1  0
 17 18  1  0
  7 19  1  0
  4 20  1  0
 19 20  1  0
M  END
