piperidine-amides-1285-covalent
     RDKit          3D

 22 24  0  0  0  0  0  0  0  0999 V2000
    7.1300   -3.2670   19.1990 C   0  0  0  0  0  0  0  0  0  0  0  0
    6.2930   -4.0100   20.1820 C   0  0  0  0  0  0  0  0  0  0  0  0
    5.2050   -4.4780   19.8350 O   0  0  0  0  0  0  0  0  0  0  0  0
    6.7940   -4.2050   21.4740 N   0  0  0  0  0  0  0  0  0  0  0  0
    6.5410   -5.4290   22.1890 C   0  0  0  0  0  0  0  0  0  0  0  0
    5.9710   -5.0580   23.5690 C   0  0  0  0  0  0  0  0  0  0  0  0
    5.7500   -3.5780   23.6310 C   0  0  0  0  0  0  0  0  0  0  0  0
    4.9430   -3.2070   24.8130 C   0  0  0  0  0  0  0  0  0  0  0  0
    3.8530   -2.6770   24.6170 O   0  0  0  0  0  0  0  0  0  0  0  0
    5.4310   -3.4660   26.0760 N   0  0  0  0  0  0  0  0  0  0  0  0
    6.7510   -3.2570   26.4420 C   0  0  0  0  0  0  0  0  0  0  0  0
    7.5080   -4.1910   27.0240 C   0  0  1  0  0  0  0  0  0  0  0  0
    7.8120   -5.4240   26.4700 C   0  0  1  0  0  0  0  0  0  0  0  0
    8.6340   -5.3240   25.3800 C   0  0  0  0  0  0  0  0  0  0  0  0
    9.9960   -5.0660   25.9390 C   0  0  0  0  0  0  0  0  0  0  0  0
    9.5930   -4.7990   27.3680 C   0  0  2  0  0  0  0  0  0  0  0  0
    8.6750   -5.9890   27.3580 C   0  0  0  0  0  0  0  0  0  0  0  0
    8.7330   -3.7060   27.3630 C   0  0  0  0  0  0  0  0  0  0  0  0
    8.7800   -2.8420   26.1570 C   0  0  0  0  0  0  0  0  0  0  0  0
    8.6210   -3.1690   28.5810 C   0  0  0  0  0  0  0  0  0  0  0  0
    7.0560   -2.9110   23.5020 C   0  0  0  0  0  0  0  0  0  0  0  0
    7.5780   -3.1810   22.0910 C   0  0  0  0  0  0  0  0  0  0  0  0
  1  2  1  0
  2  3  2  0
  2  4  1  0
  4  5  1  0
  5  6  1  0
  6  7  1  0
  7  8  1  0
  8  9  2  0
  8 10  1  0
 10 11  1  0
 12 11  1  6
 12 13  1  0
 13 14  1  6
 14 15  1  0
 16 15  1  6
 13 17  1  0
 16 17  1  0
 12 18  1  0
 16 18  1  0
 18 19  1  0
 18 20  1  0
  7 21  1  0
  4 22  1  0
 21 22  1  0
M  END
