piperidine-amides-4164-covalent
     RDKit          3D

 27 29  0  0  0  0  0  0  0  0999 V2000
    7.0500   -3.3630   19.3410 C   0  0  0  0  0  0  0  0  0  0  0  0
    6.4150   -4.2110   20.3640 C   0  0  0  0  0  0  0  0  0  0  0  0
    5.3990   -4.8520   19.9890 O   0  0  0  0  0  0  0  0  0  0  0  0
    6.9490   -4.3480   21.6780 N   0  0  0  0  0  0  0  0  0  0  0  0
    7.6510   -3.2400   22.2560 C   0  0  0  0  0  0  0  0  0  0  0  0
    7.2580   -2.9220   23.6260 C   0  0  0  0  0  0  0  0  0  0  0  0
    6.0160   -3.5910   24.0420 C   0  0  0  0  0  0  0  0  0  0  0  0
    5.5000   -3.1420   25.3840 C   0  0  0  0  0  0  0  0  0  0  0  0
    4.2710   -3.0320   25.5270 O   0  0  0  0  0  0  0  0  0  0  0  0
    6.3230   -2.8390   26.4930 N   0  0  0  0  0  0  0  0  0  0  0  0
    6.7180   -1.5780   27.0170 C   0  0  0  0  0  0  0  0  0  0  0  0
    7.2430   -1.5620   28.3960 C   0  0  0  0  0  0  0  0  0  0  0  0
    6.4230   -0.7050   29.3580 C   0  0  0  0  0  0  0  0  0  0  0  0
    6.4490    0.6100   28.7410 N   0  0  0  0  0  0  0  0  0  0  0  0
    6.0670    1.5970   29.7160 C   0  0  0  0  0  0  0  0  0  0  0  0
    5.2400    2.6980   29.6330 O   0  0  0  0  0  0  0  0  0  0  0  0
    6.7170    1.3450   31.0880 C   0  0  0  0  0  0  0  0  0  0  0  0
    5.7690    0.4230   31.8000 C   0  0  0  0  0  0  0  0  0  0  0  0
    6.3980    0.1380   33.1970 C   0  0  0  0  0  0  0  0  0  0  0  0
    7.6990    0.6380   33.8130 C   0  0  0  0  0  0  0  0  0  0  0  0
    8.5210    1.5600   32.9480 C   0  0  0  0  0  0  0  0  0  0  0  0
    8.0190    1.9180   31.5650 C   0  0  0  0  0  0  0  0  0  0  0  0
    8.8120    2.7680   30.8150 F   0  0  0  0  0  0  0  0  0  0  0  0
    5.8820    0.6320   27.5360 C   0  0  0  0  0  0  0  0  0  0  0  0
    5.6610   -0.5500   26.8240 C   0  0  0  0  0  0  0  0  0  0  0  0
    6.0480   -5.0690   23.8410 C   0  0  0  0  0  0  0  0  0  0  0  0
    6.5750   -5.4850   22.4810 C   0  0  0  0  0  0  0  0  0  0  0  0
  1  2  1  0
  2  3  2  0
  2  4  1  0
  4  5  1  0
  5  6  1  0
  6  7  1  0
  7  8  1  0
  8  9  2  0
  8 10  1  0
 10 11  1  0
 11 12  1  0
 12 13  1  0
 13 14  1  0
 14 15  1  0
 15 16  2  0
 15 17  1  0
 17 18  2  0
 18 19  1  0
 19 20  2  0
 20 21  1  0
 17 22  1  0
 21 22  2  0
 22 23  1  0
 14 24  1  0
 11 25  1  0
 24 25  1  0
  7 26  1  0
  4 27  1  0
 26 27  1  0
M  END
