piperidine-amides-28630-covalent
     RDKit          3D

 26 28  0  0  0  0  0  0  0  0999 V2000
    7.0170   -3.3560   19.3650 C   0  0  0  0  0  0  0  0  0  0  0  0
    6.3770   -4.2090   20.3670 C   0  0  0  0  0  0  0  0  0  0  0  0
    5.4140   -4.9050   19.9970 O   0  0  0  0  0  0  0  0  0  0  0  0
    6.8710   -4.2560   21.7000 N   0  0  0  0  0  0  0  0  0  0  0  0
    6.6450   -5.4610   22.4640 C   0  0  0  0  0  0  0  0  0  0  0  0
    6.1930   -5.1530   23.8750 C   0  0  0  0  0  0  0  0  0  0  0  0
    6.2070   -3.6490   24.0370 C   0  0  0  0  0  0  0  0  0  0  0  0
    5.7450   -3.1620   25.3900 C   0  0  0  0  0  0  0  0  0  0  0  0
    5.2230   -2.0540   25.3900 O   0  0  0  0  0  0  0  0  0  0  0  0
    5.8750   -3.9480   26.5320 N   0  0  0  0  0  0  0  0  0  0  0  0
    4.9020   -4.9180   26.7810 C   0  0  0  0  0  0  0  0  0  0  0  0
    5.2240   -5.8000   27.8090 C   0  0  0  0  0  0  0  0  0  0  0  0
    5.2220   -4.9820   29.0220 N   0  0  0  0  0  0  0  0  0  0  0  0
    4.4600   -5.1520   30.2040 C   0  0  0  0  0  0  0  0  0  0  0  0
    3.3530   -4.3120   30.4090 C   0  0  0  0  0  0  0  0  0  0  0  0
    2.5460   -4.4990   31.6690 C   0  0  0  0  0  0  0  0  0  0  0  0
    1.4840   -3.6720   31.8370 F   0  0  0  0  0  0  0  0  0  0  0  0
    2.9220   -5.5760   32.6940 C   0  0  0  0  0  0  0  0  0  0  0  0
    4.0890   -6.4110   32.4060 C   0  0  0  0  0  0  0  0  0  0  0  0
    4.8140   -6.1350   31.1300 C   0  0  0  0  0  0  0  0  0  0  0  0
    5.8260   -6.8220   30.8510 O   0  0  0  0  0  0  0  0  0  0  0  0
    6.1070   -7.5080   29.6910 C   0  0  0  0  0  0  0  0  0  0  0  0
    6.4990   -4.4790   28.5540 C   0  0  0  0  0  0  0  0  0  0  0  0
    6.2920   -3.3570   27.7530 C   0  0  0  0  0  0  0  0  0  0  0  0
    7.5270   -3.0740   23.6940 C   0  0  0  0  0  0  0  0  0  0  0  0
    7.7130   -3.2000   22.2200 C   0  0  0  0  0  0  0  0  0  0  0  0
  1  2  1  0
  2  3  2  0
  2  4  1  0
  4  5  1  0
  5  6  1  0
  6  7  1  0
  7  8  1  0
  8  9  2  0
  8 10  1  0
 10 11  1  0
 11 12  1  0
 12 13  1  0
 13 14  1  0
 14 15  2  0
 15 16  1  0
 16 17  1  0
 16 18  2  0
 18 19  1  0
 14 20  1  0
 19 20  2  0
 20 21  1  0
 21 22  1  0
 13 23  1  0
 10 24  1  0
 23 24  1  0
  7 25  1  0
  4 26  1  0
 25 26  1  0
M  END
