piperidine-amides-33404-covalent
     RDKit          3D

 29 31  0  0  0  0  0  0  0  0999 V2000
    7.0450   -3.3540   19.3470 C   0  0  0  0  0  0  0  0  0  0  0  0
    6.3920   -4.2140   20.3490 C   0  0  0  0  0  0  0  0  0  0  0  0
    5.3710   -4.8390   19.9780 O   0  0  0  0  0  0  0  0  0  0  0  0
    6.9300   -4.3640   21.6550 N   0  0  0  0  0  0  0  0  0  0  0  0
    6.4780   -5.4660   22.4450 C   0  0  0  0  0  0  0  0  0  0  0  0
    5.7550   -5.0470   23.6430 C   0  0  0  0  0  0  0  0  0  0  0  0
    5.8880   -3.6000   23.8670 C   0  0  0  0  0  0  0  0  0  0  0  0
    5.3910   -3.1230   25.2140 C   0  0  0  0  0  0  0  0  0  0  0  0
    4.1870   -2.8250   25.2920 O   0  0  0  0  0  0  0  0  0  0  0  0
    6.1570   -2.9870   26.4000 N   0  0  0  0  0  0  0  0  0  0  0  0
    6.3270   -1.7490   27.1100 C   0  0  0  0  0  0  0  0  0  0  0  0
    6.9300   -1.6660   28.4040 C   0  0  0  0  0  0  0  0  0  0  0  0
    7.0950   -0.3530   29.1880 C   0  0  0  0  0  0  0  0  0  0  0  0
    6.6290    0.8510   28.6050 C   0  0  0  0  0  0  0  0  0  0  0  0
    5.9660    0.8560   27.1960 C   0  0  0  0  0  0  0  0  0  0  0  0
    5.8640   -0.4720   26.5430 C   0  0  0  0  0  0  0  0  0  0  0  0
    5.2580   -0.4280   25.2810 O   0  0  0  0  0  0  0  0  0  0  0  0
    4.6960    0.7460   24.8400 C   0  0  0  0  0  0  0  0  0  0  0  0
    3.6250    0.5120   24.0240 F   0  0  0  0  0  0  0  0  0  0  0  0
    5.6650    1.4840   24.1680 F   0  0  0  0  0  0  0  0  0  0  0  0
    6.1420   -3.9390   27.4650 C   0  0  0  0  0  0  0  0  0  0  0  0
    4.8170   -4.0980   28.1980 C   0  0  0  0  0  0  0  0  0  0  0  0
    4.6030   -5.4910   28.8350 C   0  0  0  0  0  0  0  0  0  0  0  0
    5.7960   -6.2570   28.9770 N   0  0  0  0  0  0  0  0  0  0  0  0
    5.6210   -7.4800   29.4890 C   0  0  0  0  0  0  0  0  0  0  0  0
    6.9940   -5.8360   28.3440 C   0  0  0  0  0  0  0  0  0  0  0  0
    6.6690   -5.1790   27.1900 C   0  0  0  0  0  0  0  0  0  0  0  0
    7.2840   -3.2010   23.6170 C   0  0  0  0  0  0  0  0  0  0  0  0
    7.6530   -3.2700   22.2770 C   0  0  0  0  0  0  0  0  0  0  0  0
  1  2  1  0
  2  3  2  0
  2  4  1  0
  4  5  1  0
  5  6  1  0
  6  7  1  0
  7  8  1  0
  8  9  2  0
  8 10  1  0
 10 11  1  0
 11 12  2  0
 12 13  1  0
 13 14  2  0
 14 15  1  0
 11 16  1  0
 15 16  2  0
 16 17  1  0
 17 18  1  0
 18 19  1  0
 18 20  1  0
 10 21  1  0
 21 22  1  0
 22 23  1  0
 23 24  1  0
 24 25  1  0
 24 26  1  0
 21 27  1  0
 26 27  1  0
  7 28  1  0
  4 29  1  0
 28 29  1  0
M  END
