piperidine-amides-11584-covalent
     RDKit          3D

 32 34  0  0  0  0  0  0  0  0999 V2000
    7.1160   -3.3320   19.2880 C   0  0  0  0  0  0  0  0  0  0  0  0
    6.3740   -4.1130   20.2770 C   0  0  0  0  0  0  0  0  0  0  0  0
    5.3190   -4.6660   19.9320 O   0  0  0  0  0  0  0  0  0  0  0  0
    6.8740   -4.2930   21.5760 N   0  0  0  0  0  0  0  0  0  0  0  0
    7.6400   -3.2610   22.2340 C   0  0  0  0  0  0  0  0  0  0  0  0
    6.7770   -2.7940   23.3760 C   0  0  0  0  0  0  0  0  0  0  0  0
    6.3900   -3.9180   24.2970 C   0  0  0  0  0  0  0  0  0  0  0  0
    5.7080   -3.3950   25.5080 C   0  0  0  0  0  0  0  0  0  0  0  0
    4.4440   -3.2390   25.5450 O   0  0  0  0  0  0  0  0  0  0  0  0
    6.4050   -3.0570   26.6810 N   0  0  0  0  0  0  0  0  0  0  0  0
    6.3490   -1.6830   27.2370 C   0  0  0  0  0  0  0  0  0  0  0  0
    7.0270   -1.6000   28.5520 C   0  0  0  0  0  0  0  0  0  0  0  0
    7.0710   -0.3170   29.2610 C   0  0  0  0  0  0  0  0  0  0  0  0
    6.4140    0.8680   28.6130 C   0  0  0  0  0  0  0  0  0  0  0  0
    5.7560    0.6470   27.2690 C   0  0  0  0  0  0  0  0  0  0  0  0
    5.1430    1.8910   26.7300 C   0  0  0  0  0  0  0  0  0  0  0  0
    5.9060    2.9990   26.4750 O   0  0  0  0  0  0  0  0  0  0  0  0
    3.7390    1.8460   26.4970 N   0  0  0  0  0  0  0  0  0  0  0  0
    3.0470    2.8260   27.1130 C   0  0  0  0  0  0  0  0  0  0  0  0
    3.3710    3.2720   28.3900 C   0  0  0  0  0  0  0  0  0  0  0  0
    2.5600    4.3500   28.9860 C   0  0  0  0  0  0  0  0  0  0  0  0
    1.4240    4.8980   28.1630 C   0  0  0  0  0  0  0  0  0  0  0  0
    1.0440    4.4350   26.7700 C   0  0  0  0  0  0  0  0  0  0  0  0
    0.4000    4.4280   25.7540 C   0  0  0  0  0  0  0  0  0  0  0  0
    0.8990    4.8710   24.6970 O   0  0  0  0  0  0  0  0  0  0  0  0
   -0.8960    3.9470   25.6930 O   0  0  0  0  0  0  0  0  0  0  0  0
   -1.7210    4.0760   24.5710 C   0  0  0  0  0  0  0  0  0  0  0  0
   -2.0520    5.3970   24.3560 C   0  0  0  0  0  0  0  0  0  0  0  0
    1.9400    3.4140   26.4030 C   0  0  0  0  0  0  0  0  0  0  0  0
    5.7400   -0.5560   26.6430 C   0  0  0  0  0  0  0  0  0  0  0  0
    5.7300   -5.0360   23.5970 C   0  0  0  0  0  0  0  0  0  0  0  0
    6.4490   -5.4130   22.3330 C   0  0  0  0  0  0  0  0  0  0  0  0
  1  2  1  0
  2  3  2  0
  2  4  1  0
  4  5  1  0
  5  6  1  0
  6  7  1  0
  7  8  1  0
  8  9  2  0
  8 10  1  0
 10 11  1  0
 11 12  2  0
 12 13  1  0
 13 14  2  0
 14 15  1  0
 15 16  1  0
 16 17  2  0
 16 18  1  0
 18 19  1  0
 19 20  2  0
 20 21  1  0
 21 22  2  0
 22 23  1  0
 23 24  1  0
 24 25  2  0
 24 26  1  0
 26 27  1  0
 27 28  1  0
 19 29  1  0
 23 29  2  0
 11 30  1  0
 15 30  2  0
  7 31  1  0
  4 32  1  0
 31 32  1  0
M  END
