piperidine-amides-33679-covalent
     RDKit          3D

 30 33  0  0  0  0  0  0  0  0999 V2000
    7.0930   -3.3510   19.3110 C   0  0  0  0  0  0  0  0  0  0  0  0
    6.4270   -4.1990   20.3070 C   0  0  0  0  0  0  0  0  0  0  0  0
    5.3520   -4.7380   19.9570 O   0  0  0  0  0  0  0  0  0  0  0  0
    7.0130   -4.4520   21.5710 N   0  0  0  0  0  0  0  0  0  0  0  0
    6.5020   -5.5350   22.3250 C   0  0  0  0  0  0  0  0  0  0  0  0
    5.8630   -5.1340   23.5740 C   0  0  0  0  0  0  0  0  0  0  0  0
    6.4670   -3.9730   24.2650 C   0  0  0  0  0  0  0  0  0  0  0  0
    5.5950   -3.4790   25.3860 C   0  0  0  0  0  0  0  0  0  0  0  0
    4.9530   -2.4300   25.2080 O   0  0  0  0  0  0  0  0  0  0  0  0
    5.4360   -4.1510   26.6210 N   0  0  0  0  0  0  0  0  0  0  0  0
    6.3400   -4.2610   27.6340 C   0  0  0  0  0  0  0  0  0  0  0  0
    5.8190   -3.9440   28.8600 C   0  0  1  0  0  0  0  0  0  0  0  0
    6.3830   -2.5460   29.0810 C   0  0  0  0  0  0  0  0  0  0  0  0
    5.8770   -2.1020   30.2780 O   0  0  0  0  0  0  0  0  0  0  0  0
    4.5570   -2.5060   30.3990 C   0  0  0  0  0  0  0  0  0  0  0  0
    3.9340   -2.4000   29.0240 C   0  0  0  0  0  0  0  0  0  0  0  0
    4.3550   -3.7890   28.6100 C   0  0  2  0  0  0  0  0  0  0  0  0
    3.4350   -4.3790   29.7050 C   0  0  0  0  0  0  0  0  0  0  0  0
    3.4920   -5.7990   29.7910 N   0  0  0  0  0  0  0  0  0  0  0  0
    2.7880   -6.1970   30.9440 C   0  0  0  0  0  0  0  0  0  0  0  0
    1.5380   -5.7270   31.2020 O   0  0  0  0  0  0  0  0  0  0  0  0
    3.3430   -7.1680   31.9780 C   0  0  0  0  0  0  0  0  0  0  0  0
    4.8420   -7.1290   32.3860 C   0  0  0  0  0  0  0  0  0  0  0  0
    5.2520   -8.1350   33.4140 C   0  0  0  0  0  0  0  0  0  0  0  0
    4.3520   -9.0370   33.9560 C   0  0  0  0  0  0  0  0  0  0  0  0
    3.0380   -9.0680   33.5930 C   0  0  0  0  0  0  0  0  0  0  0  0
    2.5170   -8.1010   32.5680 C   0  0  0  0  0  0  0  0  0  0  0  0
    4.1340   -4.1180   27.2660 C   0  0  0  0  0  0  0  0  0  0  0  0
    6.7260   -2.8610   23.2800 C   0  0  0  0  0  0  0  0  0  0  0  0
    7.6990   -3.3780   22.2490 C   0  0  0  0  0  0  0  0  0  0  0  0
  1  2  1  0
  2  3  2  0
  2  4  1  0
  4  5  1  0
  5  6  1  0
  6  7  1  0
  7  8  1  0
  8  9  2  0
  8 10  1  0
 10 11  1  0
 12 11  1  6
 12 13  1  0
 13 14  1  0
 14 15  1  0
 15 16  1  0
 12 17  1  0
 16 17  1  0
 17 18  1  1
 18 19  1  0
 19 20  1  0
 20 21  2  0
 20 22  1  0
 22 23  2  0
 23 24  1  0
 24 25  2  0
 25 26  1  0
 22 27  1  0
 26 27  2  0
 10 28  1  0
 17 28  1  0
  7 29  1  0
  4 30  1  0
 29 30  1  0
M  END
