piperidine-amides-2787-covalent
     RDKit          3D

 24 26  0  0  0  0  0  0  0  0999 V2000
    7.0150   -3.3530   19.3150 C   0  0  0  0  0  0  0  0  0  0  0  0
    6.3340   -4.1720   20.3170 C   0  0  0  0  0  0  0  0  0  0  0  0
    5.3730   -4.8650   19.9830 O   0  0  0  0  0  0  0  0  0  0  0  0
    6.8010   -4.2140   21.6760 N   0  0  0  0  0  0  0  0  0  0  0  0
    7.6720   -3.1700   22.1580 C   0  0  0  0  0  0  0  0  0  0  0  0
    7.4100   -2.9330   23.6100 C   0  0  0  0  0  0  0  0  0  0  0  0
    6.0720   -3.5730   23.9040 C   0  0  0  0  0  0  0  0  0  0  0  0
    5.6350   -3.1730   25.2700 C   0  0  0  0  0  0  0  0  0  0  0  0
    4.4370   -3.1340   25.6100 O   0  0  0  0  0  0  0  0  0  0  0  0
    6.6370   -2.8310   26.1960 N   0  0  0  0  0  0  0  0  0  0  0  0
    6.5260   -1.6470   27.0250 C   0  0  0  0  0  0  0  0  0  0  0  0
    7.0450   -1.6160   28.4420 C   0  0  0  0  0  0  0  0  0  0  0  0
    6.9440   -0.4860   29.2340 C   0  0  0  0  0  0  0  0  0  0  0  0
    6.3420    0.6590   28.7000 C   0  0  0  0  0  0  0  0  0  0  0  0
    5.8380    0.7400   27.4240 C   0  0  0  0  0  0  0  0  0  0  0  0
    5.8870   -0.3810   26.4970 C   0  0  0  0  0  0  0  0  0  0  0  0
    5.2360    1.8110   26.8230 C   0  0  0  0  0  0  0  0  0  0  0  0
    5.4710    2.0490   25.5570 O   0  0  0  0  0  0  0  0  0  0  0  0
    4.4010    2.6630   27.4480 N   0  0  0  0  0  0  0  0  0  0  0  0
    5.0180    3.4300   28.4910 C   0  0  0  0  0  0  0  0  0  0  0  0
    5.1740    2.6480   29.6350 C   0  0  0  0  0  0  0  0  0  0  0  0
    6.2320    1.7720   29.4590 O   0  0  0  0  0  0  0  0  0  0  0  0
    5.9910   -5.0150   23.6880 C   0  0  0  0  0  0  0  0  0  0  0  0
    6.6250   -5.3860   22.5020 C   0  0  0  0  0  0  0  0  0  0  0  0
  1  2  1  0
  2  3  2  0
  2  4  1  0
  4  5  1  0
  5  6  1  0
  6  7  1  0
  7  8  1  0
  8  9  2  0
  8 10  1  0
 10 11  1  0
 11 12  2  0
 12 13  1  0
 13 14  2  0
 14 15  1  0
 11 16  1  0
 15 16  2  0
 15 17  1  0
 17 18  2  0
 17 19  1  0
 19 20  1  0
 20 21  1  0
 14 22  1  0
 21 22  1  0
  7 23  1  0
  4 24  1  0
 23 24  1  0
M  END
