piperidine-amides-21693-covalent
     RDKit          3D

 22 24  0  0  0  0  0  0  0  0999 V2000
    7.0830   -3.3480   19.3090 C   0  0  0  0  0  0  0  0  0  0  0  0
    6.4190   -4.1970   20.3040 C   0  0  0  0  0  0  0  0  0  0  0  0
    5.3390   -4.7350   19.9470 O   0  0  0  0  0  0  0  0  0  0  0  0
    6.9970   -4.4430   21.5520 N   0  0  0  0  0  0  0  0  0  0  0  0
    6.5680   -5.5490   22.3650 C   0  0  0  0  0  0  0  0  0  0  0  0
    5.7530   -4.9850   23.4950 C   0  0  0  0  0  0  0  0  0  0  0  0
    6.4660   -3.8380   24.1730 C   0  0  0  0  0  0  0  0  0  0  0  0
    5.6610   -3.2950   25.2870 C   0  0  0  0  0  0  0  0  0  0  0  0
    4.4970   -2.9090   25.0620 O   0  0  0  0  0  0  0  0  0  0  0  0
    6.1770   -3.2240   26.5860 N   0  0  0  0  0  0  0  0  0  0  0  0
    7.2050   -4.1820   26.8130 C   0  0  0  0  0  0  0  0  0  0  0  0
    8.3120   -4.2500   25.8570 C   0  0  0  0  0  0  0  0  0  0  0  0
    9.3140   -5.1500   25.9930 C   0  0  0  0  0  0  0  0  0  0  0  0
    9.5540   -6.1410   26.9620 C   0  0  0  0  0  0  0  0  0  0  0  0
    8.4100   -5.9120   27.7740 C   0  0  0  0  0  0  0  0  0  0  0  0
    7.3470   -5.0940   27.7820 C   0  0  0  0  0  0  0  0  0  0  0  0
    6.1340   -5.2280   29.0580 S   0  0  0  0  0  0  0  0  0  0  0  0
    5.2620   -3.6620   28.8090 C   0  0  0  0  0  0  0  0  0  0  0  0
    5.3490   -2.7420   27.6310 C   0  0  2  0  0  0  0  0  0  0  0  0
    3.8640   -2.5070   27.3640 C   0  0  0  0  0  0  0  0  0  0  0  0
    6.8330   -2.7300   23.1820 C   0  0  0  0  0  0  0  0  0  0  0  0
    7.7770   -3.4010   22.2140 C   0  0  0  0  0  0  0  0  0  0  0  0
  1  2  1  0
  2  3  2  0
  2  4  1  0
  4  5  1  0
  5  6  1  0
  6  7  1  0
  7  8  1  0
  8  9  2  0
  8 10  1  0
 10 11  1  0
 11 12  2  0
 12 13  1  0
 13 14  2  0
 14 15  1  0
 11 16  1  0
 15 16  2  0
 16 17  1  0
 17 18  1  0
 10 19  1  0
 18 19  1  0
 19 20  1  6
  7 21  1  0
  4 22  1  0
 21 22  1  0
M  END
