piperidine-amides-15138-covalent
     RDKit          3D

 20 21  0  0  0  0  0  0  0  0999 V2000
    7.0930   -3.3290   19.3110 C   0  0  0  0  0  0  0  0  0  0  0  0
    6.4220   -4.1820   20.2860 C   0  0  0  0  0  0  0  0  0  0  0  0
    5.3670   -4.7490   19.9540 O   0  0  0  0  0  0  0  0  0  0  0  0
    7.0050   -4.3950   21.5550 N   0  0  0  0  0  0  0  0  0  0  0  0
    7.6630   -3.2910   22.1960 C   0  0  0  0  0  0  0  0  0  0  0  0
    6.7440   -2.7160   23.2290 C   0  0  0  0  0  0  0  0  0  0  0  0
    6.5580   -3.7800   24.2810 C   0  0  0  0  0  0  0  0  0  0  0  0
    5.7760   -3.2180   25.4210 C   0  0  0  0  0  0  0  0  0  0  0  0
    4.5740   -3.0390   25.2290 O   0  0  0  0  0  0  0  0  0  0  0  0
    6.4520   -2.9400   26.5960 N   0  0  0  0  0  0  0  0  0  0  0  0
    6.4240   -1.6610   27.2160 C   0  0  0  0  0  0  0  0  0  0  0  0
    5.8860   -0.4880   26.6360 C   0  0  0  0  0  0  0  0  0  0  0  0
    5.8780    0.7300   27.2810 C   0  0  0  0  0  0  0  0  0  0  0  0
    6.4060    0.8620   28.5440 C   0  0  0  0  0  0  0  0  0  0  0  0
    6.2660    2.2820   28.9970 C   0  0  0  0  0  0  0  0  0  0  0  0
    6.9420   -0.2200   29.1700 C   0  0  0  0  0  0  0  0  0  0  0  0
    7.4050   -0.0440   30.3210 O   0  0  0  0  0  0  0  0  0  0  0  0
    6.9750   -1.5420   28.5220 C   0  0  0  0  0  0  0  0  0  0  0  0
    5.9540   -5.0130   23.7080 C   0  0  0  0  0  0  0  0  0  0  0  0
    6.4690   -5.4700   22.3340 C   0  0  0  0  0  0  0  0  0  0  0  0
  1  2  1  0
  2  3  2  0
  2  4  1  0
  4  5  1  0
  5  6  1  0
  6  7  1  0
  7  8  1  0
  8  9  2  0
  8 10  1  0
 10 11  1  0
 11 12  2  0
 12 13  1  0
 13 14  2  0
 14 15  1  0
 14 16  1  0
 16 17  1  0
 11 18  1  0
 16 18  2  0
  7 19  1  0
  4 20  1  0
 19 20  1  0
M  END
