piperidine-amides-169-covalent
     RDKit          3D

 21 23  0  0  0  0  0  0  0  0999 V2000
    7.0480   -3.3370   19.2440 C   0  0  0  0  0  0  0  0  0  0  0  0
    6.3250   -4.0410   20.2820 C   0  0  0  0  0  0  0  0  0  0  0  0
    5.2930   -4.6880   19.9320 O   0  0  0  0  0  0  0  0  0  0  0  0
    6.7320   -4.0810   21.6380 N   0  0  0  0  0  0  0  0  0  0  0  0
    6.6050   -5.3930   22.3260 C   0  0  0  0  0  0  0  0  0  0  0  0
    5.9200   -4.9820   23.6980 C   0  0  0  0  0  0  0  0  0  0  0  0
    5.9430   -3.4760   23.7030 C   0  0  0  0  0  0  0  0  0  0  0  0
    5.1770   -2.7630   24.9090 C   0  0  0  0  0  0  0  0  0  0  0  0
    4.5480   -1.8110   24.4970 O   0  0  0  0  0  0  0  0  0  0  0  0
    5.3960   -3.3510   26.0010 N   0  0  0  0  0  0  0  0  0  0  0  0
    5.5990   -3.9460   27.1860 C   0  0  1  0  0  0  0  0  0  0  0  0
    5.0540   -4.9570   27.9310 C   0  0  0  0  0  0  0  0  0  0  0  0
    6.9850   -4.3510   27.1420 C   0  0  0  0  0  0  0  0  0  0  0  0
    7.5050   -4.2080   28.4840 C   0  0  0  0  0  0  0  0  0  0  0  0
    7.8380   -5.6650   28.1550 C   0  0  0  0  0  0  0  0  0  0  0  0
    8.9950   -5.1610   28.0420 C   0  0  0  0  0  0  0  0  0  0  0  0
    9.2320   -5.1820   26.6300 C   0  0  0  0  0  0  0  0  0  0  0  0
    8.0810   -6.2060   26.8630 C   0  0  0  0  0  0  0  0  0  0  0  0
    7.0430   -5.8140   26.8950 C   0  0  0  0  0  0  0  0  0  0  0  0
    7.3670   -2.9510   23.4950 C   0  0  0  0  0  0  0  0  0  0  0  0
    7.6690   -3.0980   22.1690 C   0  0  0  0  0  0  0  0  0  0  0  0
  1  2  1  0
  2  3  2  0
  2  4  1  0
  4  5  1  0
  5  6  1  0
  6  7  1  0
  7  8  1  0
  8  9  2  0
  8 10  1  0
 10 11  1  0
 11 12  1  6
 11 13  1  0
 13 14  1  0
 15 14  1  0
 15 16  1  0
 16 17  1  0
 15 18  1  0
 17 18  1  0
 13 19  1  0
 15 19  1  0
  7 20  1  0
  4 21  1  0
 20 21  1  0
M  END
