piperidine-amides-2344-covalent
     RDKit          3D

 27 28  0  0  0  0  0  0  0  0999 V2000
    7.0650   -3.2670   19.2140 C   0  0  0  0  0  0  0  0  0  0  0  0
    6.3250   -4.0280   20.2560 C   0  0  0  0  0  0  0  0  0  0  0  0
    5.3000   -4.6090   19.9030 O   0  0  0  0  0  0  0  0  0  0  0  0
    6.8150   -4.0940   21.5610 N   0  0  0  0  0  0  0  0  0  0  0  0
    7.6780   -3.0790   22.1020 C   0  0  0  0  0  0  0  0  0  0  0  0
    7.4320   -3.0100   23.5720 C   0  0  0  0  0  0  0  0  0  0  0  0
    5.9900   -3.4390   23.8270 C   0  0  0  0  0  0  0  0  0  0  0  0
    5.6680   -3.2410   25.2580 C   0  0  0  0  0  0  0  0  0  0  0  0
    4.4970   -3.3940   25.6370 O   0  0  0  0  0  0  0  0  0  0  0  0
    6.6640   -2.8690   26.1860 N   0  0  0  0  0  0  0  0  0  0  0  0
    6.5450   -3.3120   27.5560 C   0  0  0  0  0  0  0  0  0  0  0  0
    6.8100   -4.7930   27.5820 C   0  0  2  0  0  0  0  0  0  0  0  0
    7.9810   -5.3800   27.9720 C   0  0  0  0  0  0  0  0  0  0  0  0
    8.9230   -4.6350   28.3690 O   0  0  0  0  0  0  0  0  0  0  0  0
    7.5740   -5.4670   26.5880 C   0  0  0  0  0  0  0  0  0  0  0  0
    8.8370   -5.1140   26.2470 C   0  0  0  0  0  0  0  0  0  0  0  0
    9.9640   -6.1480   26.2520 C   0  0  0  0  0  0  0  0  0  0  0  0
   11.3770   -5.6840   25.8790 C   0  0  0  0  0  0  0  0  0  0  0  0
   13.0500   -6.7830   25.8020 O   0  0  0  0  0  0  0  0  0  0  0  0
   14.1170   -8.5350   25.9510 C   0  0  0  0  0  0  0  0  0  0  0  0
   11.4420   -4.2050   25.5470 C   0  0  0  0  0  0  0  0  0  0  0  0
   10.4200   -3.2020   25.5050 C   0  0  0  0  0  0  0  0  0  0  0  0
   10.7170   -1.9000   25.1400 O   0  0  0  0  0  0  0  0  0  0  0  0
   11.8390   -1.6900   24.2960 C   0  0  0  0  0  0  0  0  0  0  0  0
    9.1010   -3.7930   25.8960 C   0  0  0  0  0  0  0  0  0  0  0  0
    5.7390   -4.9010   23.4440 C   0  0  0  0  0  0  0  0  0  0  0  0
    6.5730   -5.2610   22.3950 C   0  0  0  0  0  0  0  0  0  0  0  0
  1  2  1  0
  2  3  2  0
  2  4  1  0
  4  5  1  0
  5  6  1  0
  6  7  1  0
  7  8  1  0
  8  9  2  0
  8 10  1  0
 10 11  1  0
 12 11  1  6
 12 13  1  0
 13 14  1  0
 12 15  1  0
 15 16  1  0
 16 17  2  0
 17 18  1  0
 18 19  1  0
 19 20  1  0
 18 21  2  0
 21 22  1  0
 22 23  1  0
 23 24  1  0
 16 25  1  0
 22 25  2  0
  7 26  1  0
  4 27  1  0
 26 27  1  0
M  END
