piperidine-amides-13157-covalent
     RDKit          3D

 20 21  0  0  0  0  0  0  0  0999 V2000
    7.0280   -3.3680   19.3550 C   0  0  0  0  0  0  0  0  0  0  0  0
    6.4000   -4.2360   20.3800 C   0  0  0  0  0  0  0  0  0  0  0  0
    5.3970   -4.8730   19.9970 O   0  0  0  0  0  0  0  0  0  0  0  0
    6.9320   -4.3820   21.6850 N   0  0  0  0  0  0  0  0  0  0  0  0
    7.6710   -3.3140   22.2970 C   0  0  0  0  0  0  0  0  0  0  0  0
    7.2000   -2.9780   23.6400 C   0  0  0  0  0  0  0  0  0  0  0  0
    5.9820   -3.7260   24.0090 C   0  0  0  0  0  0  0  0  0  0  0  0
    5.4160   -3.4230   25.3650 C   0  0  0  0  0  0  0  0  0  0  0  0
    4.1920   -3.5810   25.4930 O   0  0  0  0  0  0  0  0  0  0  0  0
    6.1490   -2.9580   26.4830 N   0  0  0  0  0  0  0  0  0  0  0  0
    6.2990   -1.5070   26.7940 C   0  0  0  0  0  0  0  0  0  0  0  0
    6.7230   -0.9020   25.5090 C   0  0  0  0  0  0  0  0  0  0  0  0
    6.6680    0.3490   25.3890 O   0  0  0  0  0  0  0  0  0  0  0  0
    5.0180   -0.8340   27.0490 C   0  0  0  0  0  0  0  0  0  0  0  0
    5.0770    0.4160   27.6140 C   0  0  0  0  0  0  0  0  0  0  0  0
    5.9350    0.5280   28.6470 O   0  0  0  0  0  0  0  0  0  0  0  0
    6.7020   -0.6020   29.0370 C   0  0  0  0  0  0  0  0  0  0  0  0
    7.1340   -1.3600   27.9890 C   0  0  0  0  0  0  0  0  0  0  0  0
    6.0450   -5.1940   23.7180 C   0  0  0  0  0  0  0  0  0  0  0  0
    6.6560   -5.5210   22.5280 C   0  0  0  0  0  0  0  0  0  0  0  0
  1  2  1  0
  2  3  2  0
  2  4  1  0
  4  5  1  0
  5  6  1  0
  6  7  1  0
  7  8  1  0
  8  9  2  0
  8 10  1  0
 11 10  1  0
 11 12  1  0
 12 13  1  0
 11 14  1  0
 14 15  1  0
 15 16  1  0
 16 17  1  0
 11 18  1  0
 17 18  1  0
  7 19  1  0
  4 20  1  0
 19 20  1  0
M  END
