piperidine-amides-35342-covalent
     RDKit          3D

 30 33  0  0  0  0  0  0  0  0999 V2000
    7.0040   -3.3340   19.3750 C   0  0  0  0  0  0  0  0  0  0  0  0
    6.3660   -4.2240   20.3840 C   0  0  0  0  0  0  0  0  0  0  0  0
    5.4030   -4.8880   19.9910 O   0  0  0  0  0  0  0  0  0  0  0  0
    6.8690   -4.3190   21.6970 N   0  0  0  0  0  0  0  0  0  0  0  0
    6.7250   -5.5420   22.4420 C   0  0  0  0  0  0  0  0  0  0  0  0
    6.0750   -5.2280   23.7560 C   0  0  0  0  0  0  0  0  0  0  0  0
    6.0450   -3.7110   23.9260 C   0  0  0  0  0  0  0  0  0  0  0  0
    5.4380   -3.4010   25.2450 C   0  0  0  0  0  0  0  0  0  0  0  0
    4.2060   -3.4070   25.3350 O   0  0  0  0  0  0  0  0  0  0  0  0
    6.1900   -3.0920   26.3970 N   0  0  0  0  0  0  0  0  0  0  0  0
    6.1700   -4.0170   27.5140 C   0  0  0  0  0  0  0  0  0  0  0  0
    4.9450   -3.7780   28.3590 C   0  0  0  0  0  0  0  0  0  0  0  0
    3.6550   -4.1630   28.0380 C   0  0  0  0  0  0  0  0  0  0  0  0
    2.5840   -3.9220   28.8670 C   0  0  0  0  0  0  0  0  0  0  0  0
    2.7680   -3.2790   30.0620 C   0  0  0  0  0  0  0  0  0  0  0  0
    1.6940   -3.0660   30.8620 O   0  0  0  0  0  0  0  0  0  0  0  0
    1.8540   -3.3990   32.1640 C   0  0  0  0  0  0  0  0  0  0  0  0
    0.9650   -2.5580   33.0540 C   0  0  0  0  0  0  0  0  0  0  0  0
    1.0140   -2.7860   34.5570 C   0  0  0  0  0  0  0  0  0  0  0  0
    1.9250   -3.8210   35.1180 C   0  0  0  0  0  0  0  0  0  0  0  0
    1.9220   -4.0500   37.0250 Br  0  0  0  0  0  0  0  0  0  0  0  0
    2.7690   -4.6130   34.2060 C   0  0  0  0  0  0  0  0  0  0  0  0
    2.7850   -4.4540   32.7120 C   0  0  0  0  0  0  0  0  0  0  0  0
    4.0050   -2.8650   30.4430 C   0  0  0  0  0  0  0  0  0  0  0  0
    5.1650   -3.1240   29.5500 C   0  0  0  0  0  0  0  0  0  0  0  0
    6.6550   -1.7510   26.5720 C   0  0  0  0  0  0  0  0  0  0  0  0
    5.7740   -0.8190   27.0680 C   0  0  0  0  0  0  0  0  0  0  0  0
    6.8310   -1.3740   28.0980 C   0  0  0  0  0  0  0  0  0  0  0  0
    7.4570   -3.2200   23.6670 C   0  0  0  0  0  0  0  0  0  0  0  0
    7.6630   -3.2580   22.3110 C   0  0  0  0  0  0  0  0  0  0  0  0
  1  2  1  0
  2  3  2  0
  2  4  1  0
  4  5  1  0
  5  6  1  0
  6  7  1  0
  7  8  1  0
  8  9  2  0
  8 10  1  0
 10 11  1  0
 11 12  1  0
 12 13  2  0
 13 14  1  0
 14 15  2  0
 15 16  1  0
 16 17  1  0
 17 18  2  0
 18 19  1  0
 19 20  2  0
 20 21  1  0
 20 22  1  0
 17 23  1  0
 22 23  2  0
 15 24  1  0
 12 25  1  0
 24 25  2  0
 10 26  1  0
 26 27  1  0
 26 28  1  0
 27 28  1  0
  7 29  1  0
  4 30  1  0
 29 30  1  0
M  END
