piperidine-amides-14020-covalent
     RDKit          3D

 25 27  0  0  0  0  0  0  0  0999 V2000
    7.0890   -3.2810   19.2450 C   0  0  0  0  0  0  0  0  0  0  0  0
    6.3490   -4.0740   20.2680 C   0  0  0  0  0  0  0  0  0  0  0  0
    5.3130   -4.6730   19.9300 O   0  0  0  0  0  0  0  0  0  0  0  0
    6.8580   -4.1640   21.5860 N   0  0  0  0  0  0  0  0  0  0  0  0
    7.6980   -3.1080   22.1260 C   0  0  0  0  0  0  0  0  0  0  0  0
    7.5450   -3.0860   23.6530 C   0  0  0  0  0  0  0  0  0  0  0  0
    6.1770   -3.5780   23.9600 C   0  0  0  0  0  0  0  0  0  0  0  0
    5.6930   -3.1940   25.3080 C   0  0  0  0  0  0  0  0  0  0  0  0
    4.4890   -3.3610   25.5160 O   0  0  0  0  0  0  0  0  0  0  0  0
    6.5720   -2.6740   26.2660 N   0  0  0  0  0  0  0  0  0  0  0  0
    6.7630   -1.3080   26.6210 C   0  0  0  0  0  0  0  0  0  0  0  0
    7.0270   -0.8740   27.8980 C   0  0  2  0  0  0  0  0  0  0  0  0
    6.6380   -1.6150   29.0260 C   0  0  0  0  0  0  0  0  0  0  0  0
    5.6840   -0.9370   29.7390 C   0  0  0  0  0  0  0  0  0  0  0  0
    5.4140    0.3900   29.1430 C   0  0  0  0  0  0  0  0  0  0  0  0
    6.3080    0.3810   28.0530 N   0  0  0  0  0  0  0  0  0  0  0  0
    7.0250    1.5850   27.7260 C   0  0  0  0  0  0  0  0  0  0  0  0
    7.9880    2.1550   28.8030 C   0  0  0  0  0  0  0  0  0  0  0  0
    8.7010    3.3100   28.5500 C   0  0  0  0  0  0  0  0  0  0  0  0
    8.6230    4.0710   27.3010 C   0  0  0  0  0  0  0  0  0  0  0  0
    9.5530    5.2680   27.4230 C   0  0  0  0  0  0  0  0  0  0  0  0
    7.7280    3.5840   26.2250 C   0  0  0  0  0  0  0  0  0  0  0  0
    6.8910    2.3050   26.4120 C   0  0  0  0  0  0  0  0  0  0  0  0
    6.0060   -5.0350   23.6980 C   0  0  0  0  0  0  0  0  0  0  0  0
    6.6730   -5.3750   22.3630 C   0  0  0  0  0  0  0  0  0  0  0  0
  1  2  1  0
  2  3  2  0
  2  4  1  0
  4  5  1  0
  5  6  1  0
  6  7  1  0
  7  8  1  0
  8  9  2  0
  8 10  1  0
 10 11  1  0
 12 11  1  6
 12 13  1  0
 13 14  1  0
 14 15  1  0
 12 16  1  0
 15 16  1  0
 16 17  1  0
 17 18  2  0
 18 19  1  0
 19 20  2  0
 20 21  1  0
 20 22  1  0
 17 23  1  0
 22 23  2  0
  7 24  1  0
  4 25  1  0
 24 25  1  0
M  END
