piperidine-amides-3537-covalent
     RDKit          3D

 20 20  0  0  0  0  0  0  0  0999 V2000
    7.1300   -3.2460   19.1720 C   0  0  0  0  0  0  0  0  0  0  0  0
    6.3430   -3.9810   20.1600 C   0  0  0  0  0  0  0  0  0  0  0  0
    5.2710   -4.4940   19.8560 O   0  0  0  0  0  0  0  0  0  0  0  0
    6.8440   -4.1550   21.4880 N   0  0  0  0  0  0  0  0  0  0  0  0
    7.6850   -3.1220   22.0340 C   0  0  0  0  0  0  0  0  0  0  0  0
    7.5980   -3.1470   23.5230 C   0  0  0  0  0  0  0  0  0  0  0  0
    6.2510   -3.7420   23.8960 C   0  0  0  0  0  0  0  0  0  0  0  0
    5.9830   -3.3770   25.3000 C   0  0  0  0  0  0  0  0  0  0  0  0
    4.8370   -3.1090   25.7240 O   0  0  0  0  0  0  0  0  0  0  0  0
    7.1020   -3.3350   26.1630 N   0  0  0  0  0  0  0  0  0  0  0  0
    7.3550   -4.4450   27.0500 C   0  0  1  0  0  0  0  0  0  0  0  0
    7.4660   -3.8530   28.4130 C   0  0  0  0  0  0  0  0  0  0  0  0
    6.9970   -2.5620   28.6080 C   0  0  0  0  0  0  0  0  0  0  0  0
    8.3010   -1.3350   28.4110 S   0  0  0  0  0  0  0  0  0  0  0  0
    8.5030   -0.4260   29.8960 C   0  0  0  0  0  0  0  0  0  0  0  0
    6.2390   -5.4150   26.8800 C   0  0  0  0  0  0  0  0  0  0  0  0
    6.8800   -6.1300   27.9300 N   0  0  0  0  0  0  0  0  0  0  0  0
    5.4940   -6.4000   27.0260 O   0  0  0  0  0  0  0  0  0  0  0  0
    6.3320   -5.1650   23.5380 C   0  0  0  0  0  0  0  0  0  0  0  0
    6.4980   -5.3280   22.1840 C   0  0  0  0  0  0  0  0  0  0  0  0
  1  2  1  0
  2  3  2  0
  2  4  1  0
  4  5  1  0
  5  6  1  0
  6  7  1  0
  7  8  1  0
  8  9  2  0
  8 10  1  0
 10 11  1  0
 11 12  1  1
 12 13  1  0
 13 14  1  0
 14 15  1  0
 11 16  1  0
 16 17  1  0
 16 18  2  0
  7 19  1  0
  4 20  1  0
 19 20  1  0
M  END
