piperidine-amides-11682-covalent
     RDKit          3D

 29 31  0  0  0  0  0  0  0  0999 V2000
    7.0570   -3.3250   19.3460 C   0  0  0  0  0  0  0  0  0  0  0  0
    6.3640   -4.1590   20.3260 C   0  0  0  0  0  0  0  0  0  0  0  0
    5.3830   -4.8200   19.9770 O   0  0  0  0  0  0  0  0  0  0  0  0
    6.8540   -4.2430   21.6800 N   0  0  0  0  0  0  0  0  0  0  0  0
    6.6470   -5.4510   22.4440 C   0  0  0  0  0  0  0  0  0  0  0  0
    6.0440   -5.1380   23.7920 C   0  0  0  0  0  0  0  0  0  0  0  0
    5.9750   -3.6310   23.9320 C   0  0  0  0  0  0  0  0  0  0  0  0
    5.5660   -3.2100   25.2980 C   0  0  0  0  0  0  0  0  0  0  0  0
    4.3720   -3.1700   25.6490 O   0  0  0  0  0  0  0  0  0  0  0  0
    6.5640   -2.8400   26.2180 N   0  0  0  0  0  0  0  0  0  0  0  0
    6.4110   -1.6090   26.9630 C   0  0  0  0  0  0  0  0  0  0  0  0
    6.9880   -1.6430   28.3500 C   0  0  0  0  0  0  0  0  0  0  0  0
    6.9360   -0.5560   29.2150 C   0  0  0  0  0  0  0  0  0  0  0  0
    6.3290    0.6750   28.8610 C   0  0  0  0  0  0  0  0  0  0  0  0
    6.2970    1.7310   29.7840 O   0  0  0  0  0  0  0  0  0  0  0  0
    5.3840    1.6660   30.8650 C   0  0  0  0  0  0  0  0  0  0  0  0
    4.9260    0.2910   31.0180 C   0  0  0  0  0  0  0  0  0  0  0  0
    4.0230   -0.0040   32.0120 C   0  0  0  0  0  0  0  0  0  0  0  0
    3.5690    1.0010   32.8440 C   0  0  0  0  0  0  0  0  0  0  0  0
    2.4220    0.6640   34.1180 S   0  0  0  0  0  0  0  0  0  0  0  0
    0.9840    0.8280   33.2210 C   0  0  0  0  0  0  0  0  0  0  0  0
    2.5120    1.7080   35.1730 O   0  0  0  0  0  0  0  0  0  0  0  0
    2.5750   -0.7220   34.7140 O   0  0  0  0  0  0  0  0  0  0  0  0
    4.0710    2.3620   32.6380 C   0  0  0  0  0  0  0  0  0  0  0  0
    4.9770    2.7180   31.6560 C   0  0  0  0  0  0  0  0  0  0  0  0
    5.7440    0.7360   27.4710 C   0  0  0  0  0  0  0  0  0  0  0  0
    5.8070   -0.4260   26.5550 C   0  0  0  0  0  0  0  0  0  0  0  0
    7.2620   -2.9460   23.6390 C   0  0  0  0  0  0  0  0  0  0  0  0
    7.6820   -3.1860   22.2110 C   0  0  0  0  0  0  0  0  0  0  0  0
  1  2  1  0
  2  3  2  0
  2  4  1  0
  4  5  1  0
  5  6  1  0
  6  7  1  0
  7  8  1  0
  8  9  2  0
  8 10  1  0
 10 11  1  0
 11 12  2  0
 12 13  1  0
 13 14  2  0
 14 15  1  0
 15 16  1  0
 16 17  2  0
 17 18  1  0
 18 19  2  0
 19 20  1  0
 20 21  1  0
 20 22  2  0
 20 23  2  0
 19 24  1  0
 16 25  1  0
 24 25  2  0
 14 26  1  0
 11 27  1  0
 26 27  2  0
  7 28  1  0
  4 29  1  0
 28 29  1  0
M  END
