piperidine-amides-32563-covalent
     RDKit          3D

 27 30  0  0  0  0  0  0  0  0999 V2000
    7.0330   -3.3590   19.4200 C   0  0  0  0  0  0  0  0  0  0  0  0
    6.3770   -4.2630   20.4090 C   0  0  0  0  0  0  0  0  0  0  0  0
    5.4240   -4.9600   20.0110 O   0  0  0  0  0  0  0  0  0  0  0  0
    6.8750   -4.3260   21.7410 N   0  0  0  0  0  0  0  0  0  0  0  0
    7.7080   -3.2700   22.3210 C   0  0  0  0  0  0  0  0  0  0  0  0
    7.3530   -3.0600   23.8100 C   0  0  0  0  0  0  0  0  0  0  0  0
    6.0280   -3.6950   24.0080 C   0  0  0  0  0  0  0  0  0  0  0  0
    5.1560   -3.2240   25.1420 C   0  0  0  0  0  0  0  0  0  0  0  0
    4.1600   -2.6240   24.7520 O   0  0  0  0  0  0  0  0  0  0  0  0
    5.3400   -3.3910   26.5330 N   0  0  0  0  0  0  0  0  0  0  0  0
    6.4980   -3.2390   27.2300 C   0  0  1  0  0  0  0  0  0  0  0  0
    6.4900   -2.0090   27.7730 C   0  0  0  0  0  0  0  0  0  0  0  0
    5.1430   -1.7090   27.7620 C   0  0  0  0  0  0  0  0  0  0  0  0
    4.4540   -2.8910   27.4990 C   0  0  2  0  0  0  0  0  0  0  0  0
    4.2600   -3.7020   28.7050 C   0  0  0  0  0  0  0  0  0  0  0  0
    5.5500   -4.3280   29.2100 C   0  0  1  0  0  0  0  0  0  0  0  0
    5.2300   -5.5890   29.7830 N   0  0  0  0  0  0  0  0  0  0  0  0
    5.8710   -6.7260   29.2440 C   0  0  0  0  0  0  0  0  0  0  0  0
    5.6680   -7.7650   30.1010 C   0  0  0  0  0  0  0  0  0  0  0  0
    5.4420   -7.4720   31.5370 C   0  0  0  0  0  0  0  0  0  0  0  0
    3.9500   -7.4130   31.2980 C   0  0  0  0  0  0  0  0  0  0  0  0
    3.7250   -5.8990   30.5610 S   0  0  0  0  0  0  0  0  0  0  0  0
    2.5610   -5.9710   29.5890 O   0  0  0  0  0  0  0  0  0  0  0  0
    3.4840   -4.8570   31.6050 O   0  0  0  0  0  0  0  0  0  0  0  0
    6.5890   -4.2980   28.1750 C   0  0  0  0  0  0  0  0  0  0  0  0
    6.0650   -5.1770   23.8790 C   0  0  0  0  0  0  0  0  0  0  0  0
    6.6660   -5.5390   22.5350 C   0  0  0  0  0  0  0  0  0  0  0  0
  1  2  1  0
  2  3  2  0
  2  4  1  0
  4  5  1  0
  5  6  1  0
  6  7  1  0
  7  8  1  0
  8  9  2  0
  8 10  1  0
 10 11  1  0
 11 12  1  1
 12 13  1  0
 10 14  1  0
 14 13  1  1
 14 15  1  0
 15 16  1  0
 16 17  1  6
 17 18  1  0
 18 19  1  0
 19 20  1  0
 20 21  1  0
 22 17  1  0
 21 22  1  0
 22 23  2  0
 22 24  2  0
 11 25  1  0
 16 25  1  0
  7 26  1  0
  4 27  1  0
 26 27  1  0
M  END
