piperidine-amides-13839-covalent
     RDKit          3D

 26 28  0  0  0  0  0  0  0  0999 V2000
    7.0470   -3.3970   19.4210 C   0  0  0  0  0  0  0  0  0  0  0  0
    6.3450   -4.2860   20.3760 C   0  0  0  0  0  0  0  0  0  0  0  0
    5.3350   -4.8930   19.9890 O   0  0  0  0  0  0  0  0  0  0  0  0
    6.8770   -4.4590   21.6680 N   0  0  0  0  0  0  0  0  0  0  0  0
    7.5690   -3.4030   22.3450 C   0  0  0  0  0  0  0  0  0  0  0  0
    6.5780   -2.8950   23.3900 C   0  0  0  0  0  0  0  0  0  0  0  0
    6.3490   -3.9890   24.3860 C   0  0  0  0  0  0  0  0  0  0  0  0
    5.4370   -3.5800   25.4950 C   0  0  0  0  0  0  0  0  0  0  0  0
    4.2290   -3.6830   25.2590 O   0  0  0  0  0  0  0  0  0  0  0  0
    5.9210   -3.0920   26.7290 N   0  0  0  0  0  0  0  0  0  0  0  0
    6.5690   -1.8440   26.8800 C   0  0  0  0  0  0  0  0  0  0  0  0
    7.2240   -1.5120   25.7430 C   0  0  0  0  0  0  0  0  0  0  0  0
    6.7490   -0.4810   24.8730 C   0  0  0  0  0  0  0  0  0  0  0  0
    7.4100   -0.1400   23.7150 C   0  0  0  0  0  0  0  0  0  0  0  0
    8.6330   -0.8800   23.3940 C   0  0  0  0  0  0  0  0  0  0  0  0
    9.6560   -0.5150   21.8340 Br  0  0  0  0  0  0  0  0  0  0  0  0
    9.0920   -1.9620   24.3280 C   0  0  0  0  0  0  0  0  0  0  0  0
   10.3640   -2.6230   23.8260 C   0  0  0  0  0  0  0  0  0  0  0  0
    8.3720   -2.2460   25.4810 C   0  0  0  0  0  0  0  0  0  0  0  0
    7.4710   -1.7290   28.0670 C   0  0  0  0  0  0  0  0  0  0  0  0
    6.2930   -0.7870   28.1680 C   0  0  0  0  0  0  0  0  0  0  0  0
    6.3850    0.2830   29.0260 C   0  0  0  0  0  0  0  0  0  0  0  0
    5.8210    0.4140   27.5970 C   0  0  0  0  0  0  0  0  0  0  0  0
    5.3870   -0.8870   26.9370 C   0  0  0  0  0  0  0  0  0  0  0  0
    5.7150   -5.1870   23.6920 C   0  0  0  0  0  0  0  0  0  0  0  0
    6.4670   -5.6070   22.4700 C   0  0  0  0  0  0  0  0  0  0  0  0
  1  2  1  0
  2  3  2  0
  2  4  1  0
  4  5  1  0
  5  6  1  0
  6  7  1  0
  7  8  1  0
  8  9  2  0
  8 10  1  0
 11 10  1  0
 11 12  1  0
 12 13  2  0
 13 14  1  0
 14 15  2  0
 15 16  1  0
 15 17  1  0
 17 18  1  0
 12 19  1  0
 17 19  2  0
 11 20  1  0
 20 21  1  0
 21 22  1  0
 22 23  1  0
 11 24  1  0
 23 24  1  0
  7 25  1  0
  4 26  1  0
 25 26  1  0
M  END
