piperidine-amides-4531-covalent
     RDKit          3D

 25 26  0  0  0  0  0  0  0  0999 V2000
    7.0990   -3.2810   19.1760 C   0  0  0  0  0  0  0  0  0  0  0  0
    6.3710   -4.0290   20.2280 C   0  0  0  0  0  0  0  0  0  0  0  0
    5.2900   -4.5470   19.8840 O   0  0  0  0  0  0  0  0  0  0  0  0
    6.8930   -4.1910   21.5200 N   0  0  0  0  0  0  0  0  0  0  0  0
    6.5010   -5.3240   22.2830 C   0  0  0  0  0  0  0  0  0  0  0  0
    6.0290   -4.9960   23.6310 C   0  0  0  0  0  0  0  0  0  0  0  0
    6.6780   -3.8260   24.2780 C   0  0  0  0  0  0  0  0  0  0  0  0
    5.8810   -3.3610   25.4360 C   0  0  0  0  0  0  0  0  0  0  0  0
    4.8060   -2.7730   25.2060 O   0  0  0  0  0  0  0  0  0  0  0  0
    6.3120   -3.5670   26.7580 N   0  0  0  0  0  0  0  0  0  0  0  0
    6.8920   -4.8570   27.2060 C   0  0  0  0  0  0  0  0  0  0  0  0
    5.8790   -5.9150   27.4650 C   0  0  0  0  0  0  0  0  0  0  0  0
    4.5130   -5.6970   27.1100 N   0  0  0  0  0  0  0  0  0  0  0  0
    3.5030   -5.8880   28.1280 C   0  0  0  0  0  0  0  0  0  0  0  0
    3.9110   -5.2740   29.2590 N   0  0  0  0  0  0  0  0  0  0  0  0
    2.9970   -5.4250   30.2440 C   0  0  0  0  0  0  0  0  0  0  0  0
    1.8040   -6.0950   30.1650 C   0  0  0  0  0  0  0  0  0  0  0  0
    1.4710   -6.6820   28.9900 C   0  0  0  0  0  0  0  0  0  0  0  0
    2.3300   -6.5850   27.9340 C   0  0  0  0  0  0  0  0  0  0  0  0
    1.9260   -7.2020   26.7760 C   0  0  0  0  0  0  0  0  0  0  0  0
    2.8350   -7.7540   25.9140 F   0  0  0  0  0  0  0  0  0  0  0  0
    0.9960   -8.1970   27.0190 F   0  0  0  0  0  0  0  0  0  0  0  0
    1.2100   -6.2630   26.0330 F   0  0  0  0  0  0  0  0  0  0  0  0
    6.8770   -2.6990   23.2970 C   0  0  0  0  0  0  0  0  0  0  0  0
    7.7150   -3.2050   22.1940 C   0  0  0  0  0  0  0  0  0  0  0  0
  1  2  1  0
  2  3  2  0
  2  4  1  0
  4  5  1  0
  5  6  1  0
  6  7  1  0
  7  8  1  0
  8  9  2  0
  8 10  1  0
 10 11  1  0
 11 12  1  0
 12 13  1  0
 13 14  1  0
 14 15  2  0
 15 16  1  0
 16 17  2  0
 17 18  1  0
 14 19  1  0
 18 19  2  0
 19 20  1  0
 20 21  1  0
 20 22  1  0
 20 23  1  0
  7 24  1  0
  4 25  1  0
 24 25  1  0
M  END
