piperidine-amides-32309-covalent
     RDKit          3D

 24 26  0  0  0  0  0  0  0  0999 V2000
    7.2280   -4.0320   19.6600 C   0  0  0  0  0  0  0  0  0  0  0  0
    6.0440   -4.0450   20.4030 C   0  0  0  0  0  0  0  0  0  0  0  0
    5.0130   -4.1710   19.7370 O   0  0  0  0  0  0  0  0  0  0  0  0
    6.2260   -4.0560   21.7810 N   0  0  0  0  0  0  0  0  0  0  0  0
    6.1680   -5.3330   22.4200 C   0  0  0  0  0  0  0  0  0  0  0  0
    5.7700   -5.0750   23.8630 C   0  0  0  0  0  0  0  0  0  0  0  0
    6.4320   -3.8400   24.3980 C   0  0  0  0  0  0  0  0  0  0  0  0
    5.5360   -3.1980   25.3900 C   0  0  0  0  0  0  0  0  0  0  0  0
    5.2930   -2.0060   25.2170 O   0  0  0  0  0  0  0  0  0  0  0  0
    4.9700   -3.9360   26.4400 N   0  0  0  0  0  0  0  0  0  0  0  0
    4.4730   -3.4000   27.6850 C   0  0  0  0  0  0  0  0  0  0  0  0
    4.2000   -4.2040   28.7970 C   0  0  0  0  0  0  0  0  0  0  0  0
    3.9380   -5.5770   28.5770 C   0  0  0  0  0  0  0  0  0  0  0  0
    4.5860   -6.0600   27.4950 C   0  0  2  0  0  0  0  0  0  0  0  0
    5.8410   -5.8000   27.7910 C   0  0  0  0  0  0  0  0  0  0  0  0
    5.7490   -4.4260   27.6630 N   0  0  0  0  0  0  0  0  0  0  0  0
    6.8400   -3.7530   27.9100 C   0  0  0  0  0  0  0  0  0  0  0  0
    7.8570   -4.6810   28.2500 C   0  0  0  0  0  0  0  0  0  0  0  0
    9.2810   -3.8030   28.5900 Br  0  0  0  0  0  0  0  0  0  0  0  0
    7.7490   -6.0090   28.3110 C   0  0  0  0  0  0  0  0  0  0  0  0
    6.7140   -6.7400   28.0900 N   0  0  0  0  0  0  0  0  0  0  0  0
    4.5050   -5.3290   26.3460 C   0  0  0  0  0  0  0  0  0  0  0  0
    6.8360   -2.7390   23.4470 C   0  0  0  0  0  0  0  0  0  0  0  0
    7.3120   -3.2830   22.2940 C   0  0  0  0  0  0  0  0  0  0  0  0
  1  2  1  0
  2  3  2  0
  2  4  1  0
  4  5  1  0
  5  6  1  0
  6  7  1  0
  7  8  1  0
  8  9  2  0
  8 10  1  0
 10 11  1  0
 11 12  1  0
 12 13  1  0
 13 14  1  0
 14 15  1  1
 15 16  2  0
 16 17  1  0
 17 18  2  0
 18 19  1  0
 18 20  1  0
 15 21  1  0
 20 21  2  0
 10 22  1  0
 14 22  1  0
  7 23  1  0
  4 24  1  0
 23 24  1  0
M  END
