piperidine-amides-30291-covalent
     RDKit          3D

 27 29  0  0  0  0  0  0  0  0999 V2000
    7.0240   -3.4080   19.4960 C   0  0  0  0  0  0  0  0  0  0  0  0
    6.3320   -4.2880   20.4370 C   0  0  0  0  0  0  0  0  0  0  0  0
    5.4150   -4.9950   20.0170 O   0  0  0  0  0  0  0  0  0  0  0  0
    6.7380   -4.3620   21.8280 N   0  0  0  0  0  0  0  0  0  0  0  0
    7.6090   -3.3440   22.3820 C   0  0  0  0  0  0  0  0  0  0  0  0
    7.2230   -3.0110   23.8050 C   0  0  0  0  0  0  0  0  0  0  0  0
    5.8930   -3.6960   24.0840 C   0  0  0  0  0  0  0  0  0  0  0  0
    5.2000   -3.1980   25.3480 C   0  0  0  0  0  0  0  0  0  0  0  0
    4.4030   -2.2570   25.2420 O   0  0  0  0  0  0  0  0  0  0  0  0
    5.3470   -3.7030   26.6910 N   0  0  0  0  0  0  0  0  0  0  0  0
    6.5940   -3.4620   27.2660 C   0  0  0  0  0  0  0  0  0  0  0  0
    6.8470   -4.7110   28.0730 C   0  0  0  0  0  0  0  0  0  0  0  0
    5.8560   -5.1020   28.8460 C   0  0  0  0  0  0  0  0  0  0  0  0
    6.0670   -6.0970   29.8010 C   0  0  0  0  0  0  0  0  0  0  0  0
    5.1340   -6.5960   30.6610 C   0  0  0  0  0  0  0  0  0  0  0  0
    5.4730   -7.4810   31.4660 O   0  0  0  0  0  0  0  0  0  0  0  0
    5.3600   -7.5470   32.8380 C   0  0  0  0  0  0  0  0  0  0  0  0
    3.8690   -6.1380   30.6390 C   0  0  0  0  0  0  0  0  0  0  0  0
    2.9510   -6.6780   31.5230 O   0  0  0  0  0  0  0  0  0  0  0  0
    2.7110   -8.0670   31.4210 C   0  0  0  0  0  0  0  0  0  0  0  0
    3.4940   -5.0610   29.6490 C   0  0  0  0  0  0  0  0  0  0  0  0
    2.1910   -4.5640   29.5920 O   0  0  0  0  0  0  0  0  0  0  0  0
    1.2740   -5.4400   29.0750 C   0  0  0  0  0  0  0  0  0  0  0  0
    4.6070   -4.5540   28.7230 C   0  0  0  0  0  0  0  0  0  0  0  0
    4.3510   -3.5510   27.7590 C   0  0  0  0  0  0  0  0  0  0  0  0
    6.0280   -5.1990   23.9920 C   0  0  0  0  0  0  0  0  0  0  0  0
    6.5730   -5.5840   22.5910 C   0  0  0  0  0  0  0  0  0  0  0  0
  1  2  1  0
  2  3  2  0
  2  4  1  0
  4  5  1  0
  5  6  1  0
  6  7  1  0
  7  8  1  0
  8  9  2  0
  8 10  1  0
 10 11  1  0
 11 12  1  0
 12 13  1  0
 13 14  2  0
 14 15  1  0
 15 16  1  0
 16 17  1  0
 15 18  2  0
 18 19  1  0
 19 20  1  0
 18 21  1  0
 21 22  1  0
 22 23  1  0
 13 24  1  0
 21 24  2  0
 10 25  1  0
 24 25  1  0
  7 26  1  0
  4 27  1  0
 26 27  1  0
M  END
