piperidine-amides-12832-covalent
     RDKit          3D

 22 23  0  0  0  0  0  0  0  0999 V2000
    7.1060   -3.3460   19.3230 C   0  0  0  0  0  0  0  0  0  0  0  0
    6.3850   -4.1470   20.3300 C   0  0  0  0  0  0  0  0  0  0  0  0
    5.3450   -4.7250   19.9490 O   0  0  0  0  0  0  0  0  0  0  0  0
    6.8960   -4.2800   21.6270 N   0  0  0  0  0  0  0  0  0  0  0  0
    7.6900   -3.2370   22.2010 C   0  0  0  0  0  0  0  0  0  0  0  0
    7.3380   -2.9630   23.5840 C   0  0  0  0  0  0  0  0  0  0  0  0
    6.1170   -3.6730   23.9980 C   0  0  0  0  0  0  0  0  0  0  0  0
    5.7430   -3.3090   25.3820 C   0  0  0  0  0  0  0  0  0  0  0  0
    4.6160   -3.6530   25.7850 O   0  0  0  0  0  0  0  0  0  0  0  0
    6.6040   -2.5800   26.2220 N   0  0  0  0  0  0  0  0  0  0  0  0
    6.0680   -1.6730   27.2640 C   0  0  1  0  0  0  0  0  0  0  0  0
    7.0240   -1.4260   28.3670 C   0  0  0  0  0  0  0  0  0  0  0  0
    6.7040   -0.3520   29.2960 C   0  0  0  0  0  0  0  0  0  0  0  0
    6.2580    0.8560   28.7800 C   0  0  0  0  0  0  0  0  0  0  0  0
    5.2190    0.5250   27.8860 N   0  0  0  0  0  0  0  0  0  0  0  0
    3.8580    0.5500   28.3960 C   0  0  0  0  0  0  0  0  0  0  0  0
    3.1390    1.6530   28.0390 C   0  0  0  0  0  0  0  0  0  0  0  0
    1.7220    1.7180   28.0890 N   0  0  0  0  0  0  0  0  0  0  0  0
    3.9560    2.7210   27.6190 O   0  0  0  0  0  0  0  0  0  0  0  0
    5.5950   -0.3530   26.8180 C   0  0  0  0  0  0  0  0  0  0  0  0
    6.1080   -5.1340   23.7060 C   0  0  0  0  0  0  0  0  0  0  0  0
    6.5950   -5.4420   22.4260 C   0  0  0  0  0  0  0  0  0  0  0  0
  1  2  1  0
  2  3  2  0
  2  4  1  0
  4  5  1  0
  5  6  1  0
  6  7  1  0
  7  8  1  0
  8  9  2  0
  8 10  1  0
 11 10  1  6
 11 12  1  0
 12 13  1  0
 13 14  1  0
 14 15  1  0
 15 16  1  0
 16 17  1  0
 17 18  1  0
 17 19  2  0
 11 20  1  0
 15 20  1  0
  7 21  1  0
  4 22  1  0
 21 22  1  0
M  END
