piperidine-amides-32438-covalent
     RDKit          3D

 27 29  0  0  0  0  0  0  0  0999 V2000
    7.0820   -3.3250   19.2980 C   0  0  0  0  0  0  0  0  0  0  0  0
    6.3800   -4.1740   20.2970 C   0  0  0  0  0  0  0  0  0  0  0  0
    5.3560   -4.7910   19.9660 O   0  0  0  0  0  0  0  0  0  0  0  0
    6.9370   -4.2890   21.5840 N   0  0  0  0  0  0  0  0  0  0  0  0
    7.7380   -3.2500   22.1890 C   0  0  0  0  0  0  0  0  0  0  0  0
    6.8750   -2.6340   23.2830 C   0  0  0  0  0  0  0  0  0  0  0  0
    6.6330   -3.7240   24.2600 C   0  0  0  0  0  0  0  0  0  0  0  0
    5.8140   -3.2940   25.4130 C   0  0  0  0  0  0  0  0  0  0  0  0
    4.5910   -3.3030   25.2310 O   0  0  0  0  0  0  0  0  0  0  0  0
    6.3920   -2.8940   26.6330 N   0  0  0  0  0  0  0  0  0  0  0  0
    6.1630   -3.5780   27.8550 C   0  0  0  0  0  0  0  0  0  0  0  0
    5.5020   -2.8830   28.8430 C   0  0  0  0  0  0  0  0  0  0  0  0
    4.1300   -3.1850   29.0710 C   0  0  0  0  0  0  0  0  0  0  0  0
    3.3350   -2.5600   30.0140 C   0  0  0  0  0  0  0  0  0  0  0  0
    3.9190   -1.5020   30.8570 C   0  0  0  0  0  0  0  0  0  0  0  0
    5.3710   -1.1070   30.6940 C   0  0  0  0  0  0  0  0  0  0  0  0
    6.1040   -1.9020   29.6090 C   0  0  0  0  0  0  0  0  0  0  0  0
    7.4150   -1.6310   29.3820 F   0  0  0  0  0  0  0  0  0  0  0  0
    6.5420   -1.4870   26.7950 C   0  0  2  0  0  0  0  0  0  0  0  0
    5.8260   -1.0030   28.0090 C   0  0  0  0  0  0  0  0  0  0  0  0
    6.4550    0.3600   28.0470 C   0  0  0  0  0  0  0  0  0  0  0  0
    5.6640    0.9520   26.6860 S   0  0  0  0  0  0  0  0  0  0  0  0
    6.4990    1.9940   25.9600 O   0  0  0  0  0  0  0  0  0  0  0  0
    4.3240    1.5030   27.0610 O   0  0  0  0  0  0  0  0  0  0  0  0
    5.5970   -0.6350   25.9140 C   0  0  0  0  0  0  0  0  0  0  0  0
    5.9590   -4.9450   23.6930 C   0  0  0  0  0  0  0  0  0  0  0  0
    6.6180   -5.4300   22.4210 C   0  0  0  0  0  0  0  0  0  0  0  0
  1  2  1  0
  2  3  2  0
  2  4  1  0
  4  5  1  0
  5  6  1  0
  6  7  1  0
  7  8  1  0
  8  9  2  0
  8 10  1  0
 10 11  1  0
 11 12  1  0
 12 13  2  0
 13 14  1  0
 14 15  2  0
 15 16  1  0
 12 17  1  0
 16 17  2  0
 17 18  1  0
 19 10  1  6
 19 20  1  0
 20 21  1  0
 22 21  1  0
 22 23  2  0
 22 24  2  0
 19 25  1  0
 22 25  1  0
  7 26  1  0
  4 27  1  0
 26 27  1  0
M  END
