piperidine-amides-12942-covalent
     RDKit          3D

 21 21  0  0  0  0  0  0  0  0999 V2000
    7.1280   -3.2690   19.2330 C   0  0  0  0  0  0  0  0  0  0  0  0
    6.3800   -4.0430   20.2480 C   0  0  0  0  0  0  0  0  0  0  0  0
    5.2980   -4.5470   19.8840 O   0  0  0  0  0  0  0  0  0  0  0  0
    6.9050   -4.2330   21.5340 N   0  0  0  0  0  0  0  0  0  0  0  0
    6.5320   -5.3740   22.2970 C   0  0  0  0  0  0  0  0  0  0  0  0
    5.9410   -5.0150   23.5860 C   0  0  0  0  0  0  0  0  0  0  0  0
    6.0920   -3.5820   23.9230 C   0  0  0  0  0  0  0  0  0  0  0  0
    5.7450   -3.3440   25.3430 C   0  0  0  0  0  0  0  0  0  0  0  0
    4.5930   -2.9430   25.6000 O   0  0  0  0  0  0  0  0  0  0  0  0
    6.6790   -3.5570   26.3770 N   0  0  0  0  0  0  0  0  0  0  0  0
    6.9790   -4.9080   26.9110 C   0  0  2  0  0  0  0  0  0  0  0  0
    5.7790   -5.5250   27.5230 C   0  0  0  0  0  0  0  0  0  0  0  0
    5.4950   -5.2690   28.9370 C   0  0  0  0  0  0  0  0  0  0  0  0
    5.1740   -4.0860   29.2900 O   0  0  0  0  0  0  0  0  0  0  0  0
    5.5670   -6.2650   29.8800 O   0  0  0  0  0  0  0  0  0  0  0  0
    5.4870   -7.6470   29.5290 C   0  0  0  0  0  0  0  0  0  0  0  0
    8.0920   -4.9120   27.8250 C   0  0  0  0  0  0  0  0  0  0  0  0
    9.0990   -5.6610   27.3050 C   0  0  0  0  0  0  0  0  0  0  0  0
    8.1250   -3.4810   28.2480 C   0  0  0  0  0  0  0  0  0  0  0  0
    7.3800   -2.9750   23.5110 C   0  0  0  0  0  0  0  0  0  0  0  0
    7.6750   -3.1790   22.1620 C   0  0  0  0  0  0  0  0  0  0  0  0
  1  2  1  0
  2  3  2  0
  2  4  1  0
  4  5  1  0
  5  6  1  0
  6  7  1  0
  7  8  1  0
  8  9  2  0
  8 10  1  0
 10 11  1  0
 11 12  1  1
 12 13  1  0
 13 14  2  0
 13 15  1  0
 15 16  1  0
 11 17  1  0
 17 18  1  0
 17 19  1  0
  7 20  1  0
  4 21  1  0
 20 21  1  0
M  END
