piperidine-amides-35123-covalent
     RDKit          3D

 31 33  0  0  0  0  0  0  0  0999 V2000
    7.0440   -3.3380   19.3070 C   0  0  0  0  0  0  0  0  0  0  0  0
    6.3630   -4.1800   20.3220 C   0  0  0  0  0  0  0  0  0  0  0  0
    5.3570   -4.7870   19.9630 O   0  0  0  0  0  0  0  0  0  0  0  0
    6.8990   -4.2960   21.6070 N   0  0  0  0  0  0  0  0  0  0  0  0
    7.6830   -3.2500   22.2090 C   0  0  0  0  0  0  0  0  0  0  0  0
    6.9360   -2.6990   23.3860 C   0  0  0  0  0  0  0  0  0  0  0  0
    6.4780   -3.8620   24.2600 C   0  0  0  0  0  0  0  0  0  0  0  0
    5.5790   -3.3470   25.3260 C   0  0  0  0  0  0  0  0  0  0  0  0
    4.3830   -3.1840   25.0590 O   0  0  0  0  0  0  0  0  0  0  0  0
    6.0370   -3.0270   26.6260 N   0  0  0  0  0  0  0  0  0  0  0  0
    5.6210   -3.8960   27.7240 C   0  0  0  0  0  0  0  0  0  0  0  0
    6.2020   -5.0890   27.9210 N   0  0  0  0  0  0  0  0  0  0  0  0
    5.8810   -5.9470   28.8960 C   0  0  0  0  0  0  0  0  0  0  0  0
    4.8900   -5.6180   29.7740 N   0  0  0  0  0  0  0  0  0  0  0  0
    4.2510   -4.4210   29.6360 C   0  0  0  0  0  0  0  0  0  0  0  0
    2.9710   -3.9490   30.7310 Cl  0  0  0  0  0  0  0  0  0  0  0  0
    4.6700   -3.6350   28.6030 N   0  0  0  0  0  0  0  0  0  0  0  0
    6.5080   -1.7040   26.9160 C   0  0  1  0  0  0  0  0  0  0  0  0
    5.7050   -0.6780   26.5460 C   0  0  0  0  0  0  0  0  0  0  0  0
    5.7500    0.2590   27.6860 C   0  0  0  0  0  0  0  0  0  0  0  0
    6.4420   -0.1810   28.7120 N   0  0  0  0  0  0  0  0  0  0  0  0
    6.6180    0.3950   30.0560 C   0  0  0  0  0  0  0  0  0  0  0  0
    7.7300    0.1620   30.8080 O   0  0  0  0  0  0  0  0  0  0  0  0
    5.6300    1.1920   30.5900 O   0  0  0  0  0  0  0  0  0  0  0  0
    4.4820    0.5870   31.2010 C   0  0  0  0  0  0  0  0  0  0  0  0
    3.2080    1.2560   30.8070 C   0  0  0  0  0  0  0  0  0  0  0  0
    4.6400    0.7210   32.7010 C   0  0  0  0  0  0  0  0  0  0  0  0
    4.3870   -0.8850   30.8860 C   0  0  0  0  0  0  0  0  0  0  0  0
    6.8540   -1.4620   28.3940 C   0  0  0  0  0  0  0  0  0  0  0  0
    5.7250   -4.9170   23.4540 C   0  0  0  0  0  0  0  0  0  0  0  0
    6.5370   -5.4130   22.4550 C   0  0  0  0  0  0  0  0  0  0  0  0
  1  2  1  0
  2  3  2  0
  2  4  1  0
  4  5  1  0
  5  6  1  0
  6  7  1  0
  7  8  1  0
  8  9  2  0
  8 10  1  0
 10 11  1  0
 11 12  2  0
 12 13  1  0
 13 14  2  0
 14 15  1  0
 15 16  1  0
 11 17  1  0
 15 17  2  0
 18 10  1  1
 18 19  1  0
 19 20  1  0
 20 21  1  0
 21 22  1  0
 22 23  2  0
 22 24  1  0
 25 24  1  0
 25 26  1  0
 25 27  1  0
 25 28  1  0
 18 29  1  0
 21 29  1  0
  7 30  1  0
  4 31  1  0
 30 31  1  0
M  END
