piperidine-amides-30378-covalent
     RDKit          3D

 28 31  0  0  0  0  0  0  0  0999 V2000
    7.0710   -3.3400   19.2990 C   0  0  0  0  0  0  0  0  0  0  0  0
    6.3910   -4.1660   20.2990 C   0  0  0  0  0  0  0  0  0  0  0  0
    5.3660   -4.7840   19.9680 O   0  0  0  0  0  0  0  0  0  0  0  0
    6.8960   -4.3190   21.6030 N   0  0  0  0  0  0  0  0  0  0  0  0
    6.6350   -5.4890   22.4040 C   0  0  0  0  0  0  0  0  0  0  0  0
    5.8900   -4.9900   23.6190 C   0  0  0  0  0  0  0  0  0  0  0  0
    6.5490   -3.8090   24.2860 C   0  0  0  0  0  0  0  0  0  0  0  0
    5.7640   -3.3360   25.4590 C   0  0  0  0  0  0  0  0  0  0  0  0
    4.4990   -3.3730   25.3980 O   0  0  0  0  0  0  0  0  0  0  0  0
    6.3150   -2.7970   26.6560 N   0  0  0  0  0  0  0  0  0  0  0  0
    6.2830   -3.5400   27.9490 C   0  0  0  0  0  0  0  0  0  0  0  0
    5.4820   -4.7880   27.9130 C   0  0  0  0  0  0  0  0  0  0  0  0
    5.9780   -6.0750   28.3860 C   0  0  0  0  0  0  0  0  0  0  0  0
    5.0630   -7.2540   28.3080 C   0  0  0  0  0  0  0  0  0  0  0  0
    3.6610   -7.1210   27.7480 C   0  0  0  0  0  0  0  0  0  0  0  0
    3.1380   -5.8270   27.2620 N   0  0  0  0  0  0  0  0  0  0  0  0
    4.0890   -4.7210   27.3760 C   0  0  0  0  0  0  0  0  0  0  0  0
    6.2470   -1.3640   26.7730 C   0  0  0  0  0  0  0  0  0  0  0  0
    6.3990   -0.7090   27.9740 N   0  0  0  0  0  0  0  0  0  0  0  0
    6.2570    0.5750   27.6390 C   0  0  0  0  0  0  0  0  0  0  0  0
    6.3510    1.7040   28.6790 C   0  0  0  0  0  0  0  0  0  0  0  0
    6.1640    3.1000   28.0890 C   0  0  0  0  0  0  0  0  0  0  0  0
    5.9350    2.9770   26.6340 C   0  0  0  0  0  0  0  0  0  0  0  0
    5.8440    2.1930   25.7620 C   0  0  0  0  0  0  0  0  0  0  0  0
    6.0270    0.8200   26.3250 C   0  0  0  0  0  0  0  0  0  0  0  0
    6.0220   -0.3990   25.7970 N   0  0  0  0  0  0  0  0  0  0  0  0
    6.8540   -2.6870   23.3160 C   0  0  0  0  0  0  0  0  0  0  0  0
    7.6810   -3.2680   22.1820 C   0  0  0  0  0  0  0  0  0  0  0  0
  1  2  1  0
  2  3  2  0
  2  4  1  0
  4  5  1  0
  5  6  1  0
  6  7  1  0
  7  8  1  0
  8  9  2  0
  8 10  1  0
 10 11  1  0
 11 12  1  0
 12 13  2  0
 13 14  1  0
 14 15  2  0
 15 16  1  0
 12 17  1  0
 16 17  2  0
 10 18  1  0
 18 19  2  0
 19 20  1  0
 20 21  2  0
 21 22  1  0
 22 23  2  0
 23 24  1  0
 20 25  1  0
 24 25  2  0
 18 26  1  0
 25 26  1  0
  7 27  1  0
  4 28  1  0
 27 28  1  0
M  END
