piperidine-amides-12821-covalent
     RDKit          3D

 22 23  0  0  0  0  0  0  0  0999 V2000
    7.1430   -3.2840   19.1740 C   0  0  0  0  0  0  0  0  0  0  0  0
    6.3360   -3.9850   20.1940 C   0  0  0  0  0  0  0  0  0  0  0  0
    5.2340   -4.4330   19.8310 O   0  0  0  0  0  0  0  0  0  0  0  0
    6.8420   -4.1830   21.4770 N   0  0  0  0  0  0  0  0  0  0  0  0
    7.5710   -3.1470   22.1350 C   0  0  0  0  0  0  0  0  0  0  0  0
    7.0340   -2.7450   23.4340 C   0  0  0  0  0  0  0  0  0  0  0  0
    6.4730   -3.8440   24.2480 C   0  0  0  0  0  0  0  0  0  0  0  0
    5.6280   -3.3210   25.3520 C   0  0  0  0  0  0  0  0  0  0  0  0
    5.1370   -2.1830   25.2270 O   0  0  0  0  0  0  0  0  0  0  0  0
    5.3510   -4.0920   26.5020 N   0  0  0  0  0  0  0  0  0  0  0  0
    5.9960   -3.9190   27.8270 C   0  0  2  0  0  0  0  0  0  0  0  0
    6.0230   -5.2520   28.5160 C   0  0  0  0  0  0  0  0  0  0  0  0
    5.0460   -6.2830   28.1760 C   0  0  0  0  0  0  0  0  0  0  0  0
    5.3760   -6.9510   27.1460 O   0  0  0  0  0  0  0  0  0  0  0  0
    5.1860   -2.9460   28.5300 C   0  0  0  0  0  0  0  0  0  0  0  0
    4.2100   -3.4600   29.3680 C   0  0  0  0  0  0  0  0  0  0  0  0
    3.5780   -2.6200   30.2330 C   0  0  0  0  0  0  0  0  0  0  0  0
    4.1410   -1.4210   30.5500 C   0  0  0  0  0  0  0  0  0  0  0  0
    5.2410   -0.9730   29.8880 C   0  0  0  0  0  0  0  0  0  0  0  0
    5.9070   -1.9380   29.1310 C   0  0  0  0  0  0  0  0  0  0  0  0
    5.7640   -4.9140   23.5010 C   0  0  0  0  0  0  0  0  0  0  0  0
    6.5080   -5.3510   22.2720 C   0  0  0  0  0  0  0  0  0  0  0  0
  1  2  1  0
  2  3  2  0
  2  4  1  0
  4  5  1  0
  5  6  1  0
  6  7  1  0
  7  8  1  0
  8  9  2  0
  8 10  1  0
 10 11  1  0
 11 12  1  1
 12 13  1  0
 13 14  1  0
 11 15  1  0
 15 16  1  0
 16 17  1  0
 17 18  1  0
 18 19  1  0
 15 20  1  0
 19 20  1  0
  7 21  1  0
  4 22  1  0
 21 22  1  0
M  END
