piperidine-amides-32471-covalent
     RDKit          3D

 24 26  0  0  0  0  0  0  0  0999 V2000
    7.0920   -3.3410   19.3070 C   0  0  0  0  0  0  0  0  0  0  0  0
    6.4080   -4.2080   20.3060 C   0  0  0  0  0  0  0  0  0  0  0  0
    5.3740   -4.8120   19.9720 O   0  0  0  0  0  0  0  0  0  0  0  0
    6.9840   -4.3600   21.5850 N   0  0  0  0  0  0  0  0  0  0  0  0
    6.7170   -5.5140   22.4050 C   0  0  0  0  0  0  0  0  0  0  0  0
    6.0190   -5.0090   23.6720 C   0  0  0  0  0  0  0  0  0  0  0  0
    6.6940   -3.7530   24.1410 C   0  0  0  0  0  0  0  0  0  0  0  0
    5.8740   -3.0350   25.1290 C   0  0  0  0  0  0  0  0  0  0  0  0
    5.1170   -2.1790   24.6720 O   0  0  0  0  0  0  0  0  0  0  0  0
    5.8850   -3.3200   26.4880 N   0  0  0  0  0  0  0  0  0  0  0  0
    5.6560   -2.2980   27.4150 C   0  0  0  0  0  0  0  0  0  0  0  0
    6.3100   -2.6110   28.4630 C   0  0  2  0  0  0  0  0  0  0  0  0
    7.2430   -1.6960   29.0090 C   0  0  0  0  0  0  0  0  0  0  0  0
    7.2550   -0.3820   28.5150 O   0  0  0  0  0  0  0  0  0  0  0  0
    6.7690   -3.8170   27.9490 O   0  0  0  0  0  0  0  0  0  0  0  0
    5.8010   -4.8490   27.9940 C   0  0  0  0  0  0  0  0  0  0  0  0
    6.8160   -4.9620   29.0050 C   0  0  0  0  0  0  0  0  0  0  0  0
    5.9880   -6.1280   29.4710 C   0  0  0  0  0  0  0  0  0  0  0  0
    4.7400   -6.3530   28.6540 C   0  0  0  0  0  0  0  0  0  0  0  0
    3.5560   -7.7370   29.1680 Br  0  0  0  0  0  0  0  0  0  0  0  0
    4.4000   -5.5880   27.5550 C   0  0  0  0  0  0  0  0  0  0  0  0
    5.0190   -4.4150   26.8730 C   0  0  0  0  0  0  0  0  0  0  0  0
    7.0170   -2.7470   23.0890 C   0  0  0  0  0  0  0  0  0  0  0  0
    7.8090   -3.3390   22.1670 C   0  0  0  0  0  0  0  0  0  0  0  0
  1  2  1  0
  2  3  2  0
  2  4  1  0
  4  5  1  0
  5  6  1  0
  6  7  1  0
  7  8  1  0
  8  9  2  0
  8 10  1  0
 10 11  1  0
 11 12  1  0
 12 13  1  6
 13 14  1  0
 12 15  1  0
 15 16  1  0
 16 17  2  0
 17 18  1  0
 18 19  2  0
 19 20  1  0
 19 21  1  0
 10 22  1  0
 16 22  1  0
 21 22  2  0
  7 23  1  0
  4 24  1  0
 23 24  1  0
M  END
