piperidine-amides-33366-covalent
     RDKit          3D

 30 34  0  0  0  0  0  0  0  0999 V2000
    7.1430   -3.2960   19.2030 C   0  0  0  0  0  0  0  0  0  0  0  0
    6.3580   -4.0120   20.2150 C   0  0  0  0  0  0  0  0  0  0  0  0
    5.2530   -4.4760   19.8550 O   0  0  0  0  0  0  0  0  0  0  0  0
    6.8730   -4.2320   21.5140 N   0  0  0  0  0  0  0  0  0  0  0  0
    7.6120   -3.1880   22.1420 C   0  0  0  0  0  0  0  0  0  0  0  0
    7.1630   -2.8140   23.4810 C   0  0  0  0  0  0  0  0  0  0  0  0
    6.4800   -3.8620   24.2680 C   0  0  0  0  0  0  0  0  0  0  0  0
    5.6710   -3.2690   25.3860 C   0  0  0  0  0  0  0  0  0  0  0  0
    4.4620   -3.0460   25.1820 O   0  0  0  0  0  0  0  0  0  0  0  0
    6.2090   -2.9420   26.6530 N   0  0  0  0  0  0  0  0  0  0  0  0
    6.5650   -1.6130   26.9950 C   0  0  0  0  0  0  0  0  0  0  0  0
    6.4730   -1.1350   28.3730 C   0  0  0  0  0  0  0  0  0  0  0  0
    5.0720   -0.6910   28.6910 C   0  0  0  0  0  0  0  0  0  0  0  0
    4.7030   -0.1990   29.9000 C   0  0  0  0  0  0  0  0  0  0  0  0
    5.7600   -0.0780   31.0220 C   0  0  0  0  0  0  0  0  0  0  0  0
    7.1960   -0.5200   30.7310 C   0  0  0  0  0  0  0  0  0  0  0  0
    7.5620   -1.0800   29.3330 C   0  0  0  0  0  0  0  0  0  0  0  0
    6.0500   -3.6830   27.8670 C   0  0  0  0  0  0  0  0  0  0  0  0
    4.6620   -4.2380   28.1570 C   0  0  1  0  0  0  0  0  0  0  0  0
    4.2010   -5.5610   27.4910 C   0  0  1  0  0  0  0  0  0  0  0  0
    5.3190   -6.4990   27.7560 C   0  0  0  0  0  0  0  0  0  0  0  0
    5.3970   -6.8080   29.1000 C   0  0  2  0  0  0  0  0  0  0  0  0
    4.2470   -7.4660   29.4890 C   0  0  0  0  0  0  0  0  0  0  0  0
    3.0360   -6.6070   29.2250 C   0  0  2  0  0  0  0  0  0  0  0  0
    3.0160   -6.1330   27.9100 C   0  0  0  0  0  0  0  0  0  0  0  0
    3.1020   -5.2700   29.9560 C   0  0  0  0  0  0  0  0  0  0  0  0
    4.4260   -4.6720   29.5750 C   0  0  1  0  0  0  0  0  0  0  0  0
    5.5450   -5.6270   29.8090 C   0  0  0  0  0  0  0  0  0  0  0  0
    5.6180   -4.7550   23.4020 C   0  0  0  0  0  0  0  0  0  0  0  0
    6.4560   -5.3660   22.2830 C   0  0  0  0  0  0  0  0  0  0  0  0
  1  2  1  0
  2  3  2  0
  2  4  1  0
  4  5  1  0
  5  6  1  0
  6  7  1  0
  7  8  1  0
  8  9  2  0
  8 10  1  0
 10 11  1  0
 11 12  1  0
 12 13  2  0
 13 14  1  0
 14 15  2  0
 15 16  1  0
 12 17  1  0
 16 17  2  0
 10 18  1  0
 19 18  1  1
 19 20  1  0
 20 21  1  1
 22 21  1  6
 22 23  1  0
 24 23  1  6
 20 25  1  0
 24 25  1  0
 24 26  1  0
 19 27  1  0
 27 26  1  6
 22 28  1  0
 27 28  1  0
  7 29  1  0
  4 30  1  0
 29 30  1  0
M  END
