piperidine-amides-34021-covalent
     RDKit          3D

 31 34  0  0  0  0  0  0  0  0999 V2000
    7.1210   -3.3240   19.3370 C   0  0  0  0  0  0  0  0  0  0  0  0
    6.4470   -4.1790   20.3170 C   0  0  0  0  0  0  0  0  0  0  0  0
    5.4200   -4.8250   19.9870 O   0  0  0  0  0  0  0  0  0  0  0  0
    6.9810   -4.3140   21.6060 N   0  0  0  0  0  0  0  0  0  0  0  0
    7.8030   -3.2660   22.1660 C   0  0  0  0  0  0  0  0  0  0  0  0
    6.9560   -2.5890   23.2340 C   0  0  0  0  0  0  0  0  0  0  0  0
    6.6240   -3.6530   24.2520 C   0  0  0  0  0  0  0  0  0  0  0  0
    5.6590   -3.0740   25.2040 C   0  0  0  0  0  0  0  0  0  0  0  0
    4.6400   -2.5350   24.7250 O   0  0  0  0  0  0  0  0  0  0  0  0
    5.8420   -3.1060   26.6090 N   0  0  0  0  0  0  0  0  0  0  0  0
    6.1390   -1.8420   27.2480 C   0  0  0  0  0  0  0  0  0  0  0  0
    5.6480   -0.5460   26.6460 C   0  0  0  0  0  0  0  0  0  0  0  0
    5.9340    0.6110   27.3150 C   0  0  0  0  0  0  0  0  0  0  0  0
    6.6430    0.6040   28.4910 C   0  0  0  0  0  0  0  0  0  0  0  0
    6.8170    1.8810   29.0060 F   0  0  0  0  0  0  0  0  0  0  0  0
    7.1320   -0.5650   29.0900 C   0  0  0  0  0  0  0  0  0  0  0  0
    6.9130   -1.7970   28.5190 C   0  0  0  0  0  0  0  0  0  0  0  0
    4.7110   -3.7460   27.3090 C   0  0  0  0  0  0  0  0  0  0  0  0
    4.4910   -3.2060   28.6510 C   0  0  0  0  0  0  0  0  0  0  0  0
    3.3560   -4.0250   28.9910 C   0  0  0  0  0  0  0  0  0  0  0  0
    3.3140   -3.3400   30.2830 C   0  0  0  0  0  0  0  0  0  0  0  0
    2.9170   -4.9090   28.1040 N   0  0  0  0  0  0  0  0  0  0  0  0
    3.7790   -4.7270   27.0310 N   0  0  0  0  0  0  0  0  0  0  0  0
    3.5040   -5.5400   25.9670 C   0  0  0  0  0  0  0  0  0  0  0  0
    3.4140   -6.8690   26.3410 C   0  0  0  0  0  0  0  0  0  0  0  0
    3.1050   -7.9810   25.3720 C   0  0  0  0  0  0  0  0  0  0  0  0
    2.9020   -7.5460   23.9560 C   0  0  0  0  0  0  0  0  0  0  0  0
    3.0270   -6.0610   23.6580 C   0  0  0  0  0  0  0  0  0  0  0  0
    3.3130   -5.1120   24.6210 C   0  0  0  0  0  0  0  0  0  0  0  0
    6.0090   -4.8920   23.6540 C   0  0  0  0  0  0  0  0  0  0  0  0
    6.5670   -5.3510   22.4780 C   0  0  0  0  0  0  0  0  0  0  0  0
  1  2  1  0
  2  3  2  0
  2  4  1  0
  4  5  1  0
  5  6  1  0
  6  7  1  0
  7  8  1  0
  8  9  2  0
  8 10  1  0
 10 11  1  0
 11 12  2  0
 12 13  1  0
 13 14  2  0
 14 15  1  0
 14 16  1  0
 11 17  1  0
 16 17  2  0
 10 18  1  0
 18 19  2  0
 19 20  1  0
 20 21  1  0
 20 22  2  0
 18 23  1  0
 22 23  1  0
 23 24  1  0
 24 25  2  0
 25 26  1  0
 26 27  2  0
 27 28  1  0
 24 29  1  0
 28 29  2  0
  7 30  1  0
  4 31  1  0
 30 31  1  0
M  END
