piperidine-amides-6995-covalent
     RDKit          3D

 23 25  0  0  0  0  0  0  0  0999 V2000
    7.1000   -3.3390   19.3350 C   0  0  0  0  0  0  0  0  0  0  0  0
    6.4020   -4.1660   20.3270 C   0  0  0  0  0  0  0  0  0  0  0  0
    5.4000   -4.8350   19.9880 O   0  0  0  0  0  0  0  0  0  0  0  0
    6.8900   -4.2420   21.6410 N   0  0  0  0  0  0  0  0  0  0  0  0
    7.7560   -3.1750   22.1140 C   0  0  0  0  0  0  0  0  0  0  0  0
    7.6390   -3.1300   23.6370 C   0  0  0  0  0  0  0  0  0  0  0  0
    6.2420   -3.6100   23.9320 C   0  0  0  0  0  0  0  0  0  0  0  0
    5.8400   -3.3020   25.3150 C   0  0  0  0  0  0  0  0  0  0  0  0
    4.7250   -3.7140   25.6990 O   0  0  0  0  0  0  0  0  0  0  0  0
    6.6790   -2.5410   26.1650 N   0  0  0  0  0  0  0  0  0  0  0  0
    6.0480   -1.6650   27.1110 C   0  0  2  0  0  0  0  0  0  0  0  0
    5.8940   -0.3240   26.4770 C   0  0  0  0  0  0  0  0  0  0  0  0
    6.0100    0.6210   27.4430 C   0  0  0  0  0  0  0  0  0  0  0  0
    6.1560   -0.0450   28.6940 N   0  0  0  0  0  0  0  0  0  0  0  0
    5.0610    0.1090   29.5690 C   0  0  0  0  0  0  0  0  0  0  0  0
    5.1150   -0.6820   30.7220 C   0  0  0  0  0  0  0  0  0  0  0  0
    4.0270   -1.5030   31.0160 C   0  0  0  0  0  0  0  0  0  0  0  0
    3.5910   -1.9200   32.4350 C   0  0  0  0  0  0  0  0  0  0  0  0
    3.7550   -0.4260   32.3450 C   0  0  0  0  0  0  0  0  0  0  0  0
    5.0870    0.0240   31.8840 C   0  0  0  0  0  0  0  0  0  0  0  0
    6.6260   -1.3980   28.3400 C   0  0  0  0  0  0  0  0  0  0  0  0
    6.2030   -5.0910   23.7000 C   0  0  0  0  0  0  0  0  0  0  0  0
    6.5870   -5.3990   22.4260 C   0  0  0  0  0  0  0  0  0  0  0  0
  1  2  1  0
  2  3  2  0
  2  4  1  0
  4  5  1  0
  5  6  1  0
  6  7  1  0
  7  8  1  0
  8  9  2  0
  8 10  1  0
 11 10  1  6
 11 12  1  0
 12 13  1  0
 13 14  1  0
 14 15  1  0
 15 16  1  0
 16 17  1  0
 17 18  1  0
 18 19  1  0
 16 20  1  0
 19 20  1  0
 11 21  1  0
 14 21  1  0
  7 22  1  0
  4 23  1  0
 22 23  1  0
M  END
