piperidine-amides-14119-covalent
     RDKit          3D

 25 27  0  0  0  0  0  0  0  0999 V2000
    7.1270   -3.2900   19.2790 C   0  0  0  0  0  0  0  0  0  0  0  0
    6.3240   -4.0460   20.2800 C   0  0  0  0  0  0  0  0  0  0  0  0
    5.2860   -4.6180   19.9120 O   0  0  0  0  0  0  0  0  0  0  0  0
    6.7960   -4.1250   21.6070 N   0  0  0  0  0  0  0  0  0  0  0  0
    7.7130   -3.1360   22.1550 C   0  0  0  0  0  0  0  0  0  0  0  0
    7.4770   -2.9810   23.6640 C   0  0  0  0  0  0  0  0  0  0  0  0
    6.1280   -3.5310   23.9630 C   0  0  0  0  0  0  0  0  0  0  0  0
    5.6490   -3.2870   25.3410 C   0  0  0  0  0  0  0  0  0  0  0  0
    4.4590   -3.5400   25.5560 O   0  0  0  0  0  0  0  0  0  0  0  0
    6.5090   -2.7890   26.3220 N   0  0  0  0  0  0  0  0  0  0  0  0
    6.6120   -1.4450   26.7680 C   0  0  0  0  0  0  0  0  0  0  0  0
    5.7720   -0.8770   27.6860 C   0  0  0  0  0  0  0  0  0  0  0  0
    5.2890   -1.4880   28.8690 C   0  0  0  0  0  0  0  0  0  0  0  0
    4.4360   -0.8560   29.7680 C   0  0  0  0  0  0  0  0  0  0  0  0
    3.9680    0.5400   29.5340 C   0  0  0  0  0  0  0  0  0  0  0  0
    4.4310    1.2830   28.2920 C   0  0  0  0  0  0  0  0  0  0  0  0
    3.8630    2.6990   28.2060 C   0  0  0  0  0  0  0  0  0  0  0  0
    4.2440    3.5350   27.2230 N   0  0  0  0  0  0  0  0  0  0  0  0
    5.4760    3.5110   26.6880 C   0  0  0  0  0  0  0  0  0  0  0  0
    5.5770    4.5410   25.6430 C   0  0  0  0  0  0  0  0  0  0  0  0
    4.1730    5.0980   25.7420 C   0  0  0  0  0  0  0  0  0  0  0  0
    3.4490    4.4630   26.6860 N   0  0  0  0  0  0  0  0  0  0  0  0
    5.3230    0.5700   27.3850 C   0  0  0  0  0  0  0  0  0  0  0  0
    6.0140   -4.9900   23.6850 C   0  0  0  0  0  0  0  0  0  0  0  0
    6.6180   -5.3640   22.3560 C   0  0  0  0  0  0  0  0  0  0  0  0
  1  2  1  0
  2  3  2  0
  2  4  1  0
  4  5  1  0
  5  6  1  0
  6  7  1  0
  7  8  1  0
  8  9  2  0
  8 10  1  0
 10 11  1  0
 11 12  1  0
 12 13  2  0
 13 14  1  0
 14 15  2  0
 15 16  1  0
 16 17  1  0
 17 18  1  0
 18 19  1  0
 19 20  2  0
 20 21  1  0
 18 22  1  0
 21 22  2  0
 12 23  1  0
 16 23  2  0
  7 24  1  0
  4 25  1  0
 24 25  1  0
M  END
