piperidine-amides-14558-covalent
     RDKit          3D

 23 24  0  0  0  0  0  0  0  0999 V2000
    7.1000   -3.3020   19.2780 C   0  0  0  0  0  0  0  0  0  0  0  0
    6.3490   -4.0740   20.2660 C   0  0  0  0  0  0  0  0  0  0  0  0
    5.2820   -4.5930   19.9030 O   0  0  0  0  0  0  0  0  0  0  0  0
    6.8630   -4.2630   21.5760 N   0  0  0  0  0  0  0  0  0  0  0  0
    6.5110   -5.4410   22.3030 C   0  0  0  0  0  0  0  0  0  0  0  0
    5.7590   -5.0320   23.5340 C   0  0  0  0  0  0  0  0  0  0  0  0
    6.5610   -3.9380   24.2130 C   0  0  0  0  0  0  0  0  0  0  0  0
    5.7780   -3.3910   25.3730 C   0  0  0  0  0  0  0  0  0  0  0  0
    4.5810   -3.1910   25.1680 O   0  0  0  0  0  0  0  0  0  0  0  0
    6.4350   -3.1310   26.5830 N   0  0  0  0  0  0  0  0  0  0  0  0
    6.3060   -3.9480   27.7630 C   0  0  2  0  0  0  0  0  0  0  0  0
    5.8150   -5.2590   27.6100 C   0  0  0  0  0  0  0  0  0  0  0  0
    6.2060   -6.1720   28.5630 C   0  0  0  0  0  0  0  0  0  0  0  0
    5.3960   -3.2060   28.6670 C   0  0  0  0  0  0  0  0  0  0  0  0
    4.2920   -3.9940   28.9560 O   0  0  0  0  0  0  0  0  0  0  0  0
    5.6480   -1.8960   29.1400 N   0  0  0  0  0  0  0  0  0  0  0  0
    7.0140   -1.3950   29.1740 C   0  0  0  0  0  0  0  0  0  0  0  0
    7.1980   -0.3720   30.3240 C   0  0  0  0  0  0  0  0  0  0  0  0
    6.3320    0.8300   30.2530 C   0  0  0  0  0  0  0  0  0  0  0  0
    5.0530    0.4250   29.5760 C   0  0  0  0  0  0  0  0  0  0  0  0
    4.7930   -1.0650   29.9350 C   0  0  0  0  0  0  0  0  0  0  0  0
    6.7740   -2.7880   23.2500 C   0  0  0  0  0  0  0  0  0  0  0  0
    7.6140   -3.2390   22.2590 C   0  0  0  0  0  0  0  0  0  0  0  0
  1  2  1  0
  2  3  2  0
  2  4  1  0
  4  5  1  0
  5  6  1  0
  6  7  1  0
  7  8  1  0
  8  9  2  0
  8 10  1  0
 10 11  1  0
 11 12  1  6
 12 13  1  0
 11 14  1  0
 14 15  2  0
 14 16  1  0
 16 17  1  0
 17 18  1  0
 18 19  1  0
 19 20  1  0
 16 21  1  0
 20 21  1  0
  7 22  1  0
  4 23  1  0
 22 23  1  0
M  END
