piperidine-amides-29545-covalent
     RDKit          3D

 27 30  0  0  0  0  0  0  0  0999 V2000
    7.0980   -3.3390   19.3170 C   0  0  0  0  0  0  0  0  0  0  0  0
    6.4030   -4.1830   20.2770 C   0  0  0  0  0  0  0  0  0  0  0  0
    5.3700   -4.7740   19.9630 O   0  0  0  0  0  0  0  0  0  0  0  0
    6.9700   -4.3660   21.5800 N   0  0  0  0  0  0  0  0  0  0  0  0
    7.7550   -3.3210   22.1780 C   0  0  0  0  0  0  0  0  0  0  0  0
    7.0090   -2.7210   23.3230 C   0  0  0  0  0  0  0  0  0  0  0  0
    6.6140   -3.8540   24.2470 C   0  0  0  0  0  0  0  0  0  0  0  0
    5.8380   -3.2980   25.3860 C   0  0  0  0  0  0  0  0  0  0  0  0
    4.9260   -2.4690   25.2160 O   0  0  0  0  0  0  0  0  0  0  0  0
    6.1120   -3.7420   26.6960 N   0  0  0  0  0  0  0  0  0  0  0  0
    5.9990   -2.7750   27.7490 C   0  0  0  0  0  0  0  0  0  0  0  0
    4.8630   -3.2610   28.6070 C   0  0  0  0  0  0  0  0  0  0  0  0
    4.3630   -4.5050   28.5320 N   0  0  0  0  0  0  0  0  0  0  0  0
    3.8670   -4.7960   29.7580 C   0  0  0  0  0  0  0  0  0  0  0  0
    3.3090   -5.9960   30.2150 C   0  0  0  0  0  0  0  0  0  0  0  0
    3.4210   -6.3570   31.5560 C   0  0  0  0  0  0  0  0  0  0  0  0
    2.8260   -7.6120   31.9990 C   0  0  0  0  0  0  0  0  0  0  0  0
    2.1630   -8.4510   31.1570 C   0  0  0  0  0  0  0  0  0  0  0  0
    2.0750   -8.0650   29.8500 C   0  0  0  0  0  0  0  0  0  0  0  0
    2.6270   -6.8750   29.3810 C   0  0  0  0  0  0  0  0  0  0  0  0
    5.4110   -5.3130   28.2470 C   0  0  0  0  0  0  0  0  0  0  0  0
    5.4950   -6.6510   28.5290 C   0  0  0  0  0  0  0  0  0  0  0  0
    6.6110   -6.4310   29.2310 C   0  0  0  0  0  0  0  0  0  0  0  0
    6.6010   -4.9520   29.0760 C   0  0  0  0  0  0  0  0  0  0  0  0
    5.6880   -5.0670   26.9240 C   0  0  0  0  0  0  0  0  0  0  0  0
    5.8830   -4.9600   23.5400 C   0  0  0  0  0  0  0  0  0  0  0  0
    6.6170   -5.5160   22.3670 C   0  0  0  0  0  0  0  0  0  0  0  0
  1  2  1  0
  2  3  2  0
  2  4  1  0
  4  5  1  0
  5  6  1  0
  6  7  1  0
  7  8  1  0
  8  9  2  0
  8 10  1  0
 10 11  1  0
 11 12  1  0
 12 13  1  0
 13 14  1  0
 14 15  1  0
 15 16  2  0
 16 17  1  0
 17 18  2  0
 18 19  1  0
 15 20  1  0
 19 20  2  0
 21 13  1  0
 21 22  1  0
 22 23  1  0
 21 24  1  0
 23 24  1  0
 10 25  1  0
 21 25  1  0
  7 26  1  0
  4 27  1  0
 26 27  1  0
M  END
