piperidine-amides-13992-covalent
     RDKit          3D

 25 26  0  0  0  0  0  0  0  0999 V2000
    7.0740   -3.3200   19.2960 C   0  0  0  0  0  0  0  0  0  0  0  0
    6.3640   -4.1690   20.2880 C   0  0  0  0  0  0  0  0  0  0  0  0
    5.3270   -4.7590   19.9530 O   0  0  0  0  0  0  0  0  0  0  0  0
    6.9180   -4.3280   21.5730 N   0  0  0  0  0  0  0  0  0  0  0  0
    6.5780   -5.4410   22.4230 C   0  0  0  0  0  0  0  0  0  0  0  0
    5.6750   -4.8860   23.5310 C   0  0  0  0  0  0  0  0  0  0  0  0
    6.4570   -3.8290   24.2390 C   0  0  0  0  0  0  0  0  0  0  0  0
    5.7390   -3.2310   25.3900 C   0  0  0  0  0  0  0  0  0  0  0  0
    4.5330   -3.0130   25.2300 O   0  0  0  0  0  0  0  0  0  0  0  0
    6.4170   -2.9500   26.5800 N   0  0  0  0  0  0  0  0  0  0  0  0
    6.4490   -1.7120   27.2850 C   0  0  0  0  0  0  0  0  0  0  0  0
    7.0460   -1.5380   28.5080 C   0  0  0  0  0  0  0  0  0  0  0  0
    7.0450   -0.2980   29.1530 C   0  0  0  0  0  0  0  0  0  0  0  0
    6.4320    0.7860   28.5620 C   0  0  0  0  0  0  0  0  0  0  0  0
    6.4010    2.1250   29.2070 C   0  0  0  0  0  0  0  0  0  0  0  0
    7.7720    2.7930   29.3700 C   0  0  0  0  0  0  0  0  0  0  0  0
    5.5230    2.9280   28.5520 C   0  0  0  0  0  0  0  0  0  0  0  0
    5.9700    2.3080   30.6310 C   0  0  0  0  0  0  0  0  0  0  0  0
    5.4800    1.1850   31.2610 O   0  0  0  0  0  0  0  0  0  0  0  0
    6.0970    3.5670   31.1740 O   0  0  0  0  0  0  0  0  0  0  0  0
    5.4200    4.0230   32.3130 C   0  0  0  0  0  0  0  0  0  0  0  0
    5.8290    0.6180   27.3310 C   0  0  0  0  0  0  0  0  0  0  0  0
    5.8380   -0.6030   26.7070 C   0  0  0  0  0  0  0  0  0  0  0  0
    6.9150   -2.6990   23.3750 C   0  0  0  0  0  0  0  0  0  0  0  0
    7.6650   -3.2380   22.1880 C   0  0  0  0  0  0  0  0  0  0  0  0
  1  2  1  0
  2  3  2  0
  2  4  1  0
  4  5  1  0
  5  6  1  0
  6  7  1  0
  7  8  1  0
  8  9  2  0
  8 10  1  0
 10 11  1  0
 11 12  2  0
 12 13  1  0
 13 14  2  0
 14 15  1  0
 15 16  1  0
 15 17  1  0
 15 18  1  0
 18 19  2  0
 18 20  1  0
 20 21  1  0
 14 22  1  0
 11 23  1  0
 22 23  2  0
  7 24  1  0
  4 25  1  0
 24 25  1  0
M  END
