piperidine-amides-1769-covalent
     RDKit          3D

 20 20  0  0  0  0  0  0  0  0999 V2000
    7.1210   -3.2900   19.2390 C   0  0  0  0  0  0  0  0  0  0  0  0
    6.3840   -4.0890   20.2560 C   0  0  0  0  0  0  0  0  0  0  0  0
    5.3300   -4.6590   19.9300 O   0  0  0  0  0  0  0  0  0  0  0  0
    6.9340   -4.2170   21.5500 N   0  0  0  0  0  0  0  0  0  0  0  0
    7.7070   -3.1640   22.1490 C   0  0  0  0  0  0  0  0  0  0  0  0
    6.8580   -2.6220   23.2980 C   0  0  0  0  0  0  0  0  0  0  0  0
    6.4910   -3.7760   24.1730 C   0  0  0  0  0  0  0  0  0  0  0  0
    5.7550   -3.3240   25.3790 C   0  0  0  0  0  0  0  0  0  0  0  0
    4.5530   -3.0840   25.2210 O   0  0  0  0  0  0  0  0  0  0  0  0
    6.3990   -3.1830   26.6120 N   0  0  0  0  0  0  0  0  0  0  0  0
    6.1920   -3.9730   27.7780 C   0  0  0  0  0  0  0  0  0  0  0  0
    6.1660   -5.3500   27.7860 C   0  0  0  0  0  0  0  0  0  0  0  0
    4.8480   -5.7270   28.2690 O   0  0  0  0  0  0  0  0  0  0  0  0
    4.8460   -6.0060   29.6170 C   0  0  0  0  0  0  0  0  0  0  0  0
    4.3740   -7.2150   30.0600 C   0  0  0  0  0  0  0  0  0  0  0  0
    4.2160   -7.3920   31.5280 C   0  0  0  0  0  0  0  0  0  0  0  0
    5.4990   -7.7480   32.2930 C   0  0  0  0  0  0  0  0  0  0  0  0
    3.1730   -8.2080   31.8260 C   0  0  0  0  0  0  0  0  0  0  0  0
    5.6330   -4.7980   23.4110 C   0  0  0  0  0  0  0  0  0  0  0  0
    6.4790   -5.3410   22.3230 C   0  0  0  0  0  0  0  0  0  0  0  0
  1  2  1  0
  2  3  2  0
  2  4  1  0
  4  5  1  0
  5  6  1  0
  6  7  1  0
  7  8  1  0
  8  9  2  0
  8 10  1  0
 10 11  1  0
 11 12  1  0
 12 13  1  0
 13 14  1  0
 14 15  1  0
 15 16  1  0
 16 17  1  0
 16 18  1  0
  7 19  1  0
  4 20  1  0
 19 20  1  0
M  END
