piperidine-amides-27640-covalent
     RDKit          3D

 24 26  0  0  0  0  0  0  0  0999 V2000
    7.1140   -3.3430   19.2690 C   0  0  0  0  0  0  0  0  0  0  0  0
    6.4420   -4.1770   20.2690 C   0  0  0  0  0  0  0  0  0  0  0  0
    5.3420   -4.6900   19.9370 O   0  0  0  0  0  0  0  0  0  0  0  0
    7.0500   -4.4240   21.4980 N   0  0  0  0  0  0  0  0  0  0  0  0
    6.7070   -5.5720   22.2950 C   0  0  0  0  0  0  0  0  0  0  0  0
    5.9900   -5.0760   23.5130 C   0  0  0  0  0  0  0  0  0  0  0  0
    6.6720   -3.8870   24.1400 C   0  0  0  0  0  0  0  0  0  0  0  0
    5.8290   -3.3850   25.2190 C   0  0  0  0  0  0  0  0  0  0  0  0
    4.9610   -2.5310   24.9410 O   0  0  0  0  0  0  0  0  0  0  0  0
    5.9210   -3.8240   26.5280 N   0  0  0  0  0  0  0  0  0  0  0  0
    4.9230   -4.7540   26.9190 C   0  0  0  0  0  0  0  0  0  0  0  0
    5.5410   -5.8390   27.7510 C   0  0  0  0  0  0  0  0  0  0  0  0
    6.1750   -5.0760   29.1770 S   0  0  0  0  0  0  0  0  0  0  0  0
    5.3480   -5.5240   30.3230 O   0  0  0  0  0  0  0  0  0  0  0  0
    7.5740   -5.4190   29.3270 O   0  0  0  0  0  0  0  0  0  0  0  0
    6.0380   -3.3240   28.8150 C   0  0  0  0  0  0  0  0  0  0  0  0
    4.7740   -3.2030   29.3210 C   0  0  0  0  0  0  0  0  0  0  0  0
    4.3830   -1.8940   29.6780 C   0  0  0  0  0  0  0  0  0  0  0  0
    4.9830   -0.8180   29.0320 C   0  0  0  0  0  0  0  0  0  0  0  0
    6.3310   -0.9160   28.8500 C   0  0  0  0  0  0  0  0  0  0  0  0
    6.8130   -2.2680   29.2590 C   0  0  0  0  0  0  0  0  0  0  0  0
    6.1750   -2.8820   27.5280 C   0  0  0  0  0  0  0  0  0  0  0  0
    6.9480   -2.7620   23.1510 C   0  0  0  0  0  0  0  0  0  0  0  0
    7.8490   -3.3780   22.1250 C   0  0  0  0  0  0  0  0  0  0  0  0
  1  2  1  0
  2  3  2  0
  2  4  1  0
  4  5  1  0
  5  6  1  0
  6  7  1  0
  7  8  1  0
  8  9  2  0
  8 10  1  0
 10 11  1  0
 11 12  1  0
 13 12  1  0
 13 14  2  0
 13 15  2  0
 13 16  1  0
 16 17  1  0
 17 18  1  0
 18 19  1  0
 19 20  1  0
 16 21  1  0
 20 21  1  0
 10 22  1  0
 16 22  1  0
  7 23  1  0
  4 24  1  0
 23 24  1  0
M  END
