piperidine-amides-25463-covalent
     RDKit          3D

 25 27  0  0  0  0  0  0  0  0999 V2000
    7.1180   -3.3090   19.2110 C   0  0  0  0  0  0  0  0  0  0  0  0
    6.3970   -4.1170   20.2270 C   0  0  0  0  0  0  0  0  0  0  0  0
    5.3160   -4.6020   19.9040 O   0  0  0  0  0  0  0  0  0  0  0  0
    6.9850   -4.3500   21.4670 N   0  0  0  0  0  0  0  0  0  0  0  0
    6.6680   -5.5180   22.2340 C   0  0  0  0  0  0  0  0  0  0  0  0
    5.9710   -5.0750   23.4810 C   0  0  0  0  0  0  0  0  0  0  0  0
    6.8180   -4.0280   24.2130 C   0  0  0  0  0  0  0  0  0  0  0  0
    6.0170   -3.5590   25.3320 C   0  0  0  0  0  0  0  0  0  0  0  0
    4.8440   -3.1900   25.1450 O   0  0  0  0  0  0  0  0  0  0  0  0
    6.5650   -3.5240   26.6060 N   0  0  0  0  0  0  0  0  0  0  0  0
    6.2990   -4.6420   27.4090 C   0  0  0  0  0  0  0  0  0  0  0  0
    5.1570   -5.5450   27.0950 C   0  0  0  0  0  0  0  0  0  0  0  0
    4.8030   -6.6810   27.8670 C   0  0  0  0  0  0  0  0  0  0  0  0
    5.3780   -7.2480   29.0650 C   0  0  0  0  0  0  0  0  0  0  0  0
    6.4250   -6.3220   29.2390 C   0  0  0  0  0  0  0  0  0  0  0  0
    6.8240   -5.1430   28.4650 C   0  0  0  0  0  0  0  0  0  0  0  0
    5.6850   -5.9860   28.1840 C   0  0  0  0  0  0  0  0  0  0  0  0
    4.7850   -4.8020   28.5180 C   0  0  0  0  0  0  0  0  0  0  0  0
    5.8050   -3.6950   28.7720 C   0  0  0  0  0  0  0  0  0  0  0  0
    5.9880   -2.7380   27.6400 C   0  0  1  0  0  0  0  0  0  0  0  0
    6.6830   -1.4360   27.9320 C   0  0  0  0  0  0  0  0  0  0  0  0
    7.9960   -1.3510   28.0710 N   0  0  0  0  0  0  0  0  0  0  0  0
    5.8190   -0.3520   28.0570 O   0  0  0  0  0  0  0  0  0  0  0  0
    7.1230   -2.8410   23.3370 C   0  0  0  0  0  0  0  0  0  0  0  0
    7.7990   -3.3390   22.1090 C   0  0  0  0  0  0  0  0  0  0  0  0
  1  2  1  0
  2  3  2  0
  2  4  1  0
  4  5  1  0
  5  6  1  0
  6  7  1  0
  7  8  1  0
  8  9  2  0
  8 10  1  0
 10 11  1  0
 11 12  2  0
 12 13  1  0
 13 14  2  0
 14 15  1  0
 11 16  1  0
 15 16  2  0
 16 17  1  0
 17 18  1  0
 18 19  1  0
 10 20  1  0
 19 20  1  0
 20 21  1  1
 21 22  1  0
 21 23  2  0
  7 24  1  0
  4 25  1  0
 24 25  1  0
M  END
