piperidine-amides-11317-covalent
     RDKit          3D

 17 17  0  0  0  0  0  0  0  0999 V2000
    7.1200   -3.2570   19.1540 C   0  0  0  0  0  0  0  0  0  0  0  0
    6.3380   -3.9730   20.1660 C   0  0  0  0  0  0  0  0  0  0  0  0
    5.2600   -4.4980   19.8540 O   0  0  0  0  0  0  0  0  0  0  0  0
    6.8200   -4.1140   21.4660 N   0  0  0  0  0  0  0  0  0  0  0  0
    6.6160   -5.3200   22.2450 C   0  0  0  0  0  0  0  0  0  0  0  0
    5.9240   -4.9110   23.5220 C   0  0  0  0  0  0  0  0  0  0  0  0
    6.6290   -3.7660   24.1930 C   0  0  0  0  0  0  0  0  0  0  0  0
    5.9750   -3.3540   25.4440 C   0  0  0  0  0  0  0  0  0  0  0  0
    4.9810   -2.5600   25.4480 O   0  0  0  0  0  0  0  0  0  0  0  0
    6.4390   -3.8390   26.6760 N   0  0  0  0  0  0  0  0  0  0  0  0
    6.8800   -5.2510   26.7270 C   0  0  0  0  0  0  0  0  0  0  0  0
    6.6340   -5.7520   28.0840 C   0  0  0  0  0  0  0  0  0  0  0  0
    5.2670   -6.1820   28.4350 C   0  0  1  0  0  0  0  0  0  0  0  0
    4.2240   -5.4100   27.6730 C   0  0  0  0  0  0  0  0  0  0  0  0
    5.0910   -7.3730   28.1110 O   0  0  0  0  0  0  0  0  0  0  0  0
    6.9220   -2.6270   23.3020 C   0  0  0  0  0  0  0  0  0  0  0  0
    7.5830   -3.0660   22.0750 C   0  0  0  0  0  0  0  0  0  0  0  0
  1  2  1  0
  2  3  2  0
  2  4  1  0
  4  5  1  0
  5  6  1  0
  6  7  1  0
  7  8  1  0
  8  9  2  0
  8 10  1  0
 10 11  1  0
 11 12  1  0
 12 13  1  0
 13 14  1  6
 13 15  1  0
  7 16  1  0
  4 17  1  0
 16 17  1  0
M  END
