piperidine-amides-30108-covalent
     RDKit          3D

 27 29  0  0  0  0  0  0  0  0999 V2000
    7.1160   -3.2690   19.2600 C   0  0  0  0  0  0  0  0  0  0  0  0
    6.3630   -4.0430   20.2420 C   0  0  0  0  0  0  0  0  0  0  0  0
    5.3210   -4.6120   19.9120 O   0  0  0  0  0  0  0  0  0  0  0  0
    6.8560   -4.1830   21.5800 N   0  0  0  0  0  0  0  0  0  0  0  0
    7.7380   -3.1650   22.1210 C   0  0  0  0  0  0  0  0  0  0  0  0
    7.4350   -2.9070   23.5640 C   0  0  0  0  0  0  0  0  0  0  0  0
    6.0680   -3.4930   23.8350 C   0  0  0  0  0  0  0  0  0  0  0  0
    5.5820   -3.1880   25.2060 C   0  0  0  0  0  0  0  0  0  0  0  0
    4.4360   -3.4980   25.5770 O   0  0  0  0  0  0  0  0  0  0  0  0
    6.4310   -2.5070   26.1070 N   0  0  0  0  0  0  0  0  0  0  0  0
    7.7770   -2.9300   26.2770 C   0  0  0  0  0  0  0  0  0  0  0  0
    7.4880   -2.9700   27.7410 C   0  0  0  0  0  0  0  0  0  0  0  0
    7.3800   -4.1530   28.4390 C   0  0  0  0  0  0  0  0  0  0  0  0
    8.3170   -1.9400   28.5220 C   0  0  0  0  0  0  0  0  0  0  0  0
    6.0590   -2.2970   27.4910 C   0  0  2  0  0  0  0  0  0  0  0  0
    5.2120   -3.0230   28.4250 C   0  0  0  0  0  0  0  0  0  0  0  0
    4.6030   -2.5230   29.5480 C   0  0  0  0  0  0  0  0  0  0  0  0
    3.8220   -3.2920   30.3760 C   0  0  0  0  0  0  0  0  0  0  0  0
    3.4860   -4.6420   30.2920 C   0  0  0  0  0  0  0  0  0  0  0  0
    2.7030   -5.3430   31.1600 O   0  0  0  0  0  0  0  0  0  0  0  0
    2.2160   -4.5850   32.2140 C   0  0  0  0  0  0  0  0  0  0  0  0
    4.1830   -5.1520   29.0340 C   0  0  0  0  0  0  0  0  0  0  0  0
    3.9910   -6.4690   28.7610 O   0  0  0  0  0  0  0  0  0  0  0  0
    5.0490   -7.4190   28.6720 C   0  0  0  0  0  0  0  0  0  0  0  0
    4.9530   -4.3840   28.2160 C   0  0  0  0  0  0  0  0  0  0  0  0
    5.9990   -4.9780   23.6590 C   0  0  0  0  0  0  0  0  0  0  0  0
    6.5860   -5.3790   22.3260 C   0  0  0  0  0  0  0  0  0  0  0  0
  1  2  1  0
  2  3  2  0
  2  4  1  0
  4  5  1  0
  5  6  1  0
  6  7  1  0
  7  8  1  0
  8  9  2  0
  8 10  1  0
 10 11  1  0
 11 12  1  0
 12 13  1  0
 12 14  1  0
 10 15  1  0
 12 15  1  0
 15 16  1  1
 16 17  2  0
 17 18  1  0
 18 19  2  0
 19 20  1  0
 20 21  1  0
 19 22  1  0
 22 23  1  0
 23 24  1  0
 16 25  1  0
 22 25  2  0
  7 26  1  0
  4 27  1  0
 26 27  1  0
M  END
