piperidine-amides-32388-covalent
     RDKit          3D

 27 29  0  0  0  0  0  0  0  0999 V2000
    7.0350   -3.3560   19.3900 C   0  0  0  0  0  0  0  0  0  0  0  0
    6.3760   -4.2570   20.3730 C   0  0  0  0  0  0  0  0  0  0  0  0
    5.3930   -4.9200   19.9970 O   0  0  0  0  0  0  0  0  0  0  0  0
    6.9010   -4.3710   21.6890 N   0  0  0  0  0  0  0  0  0  0  0  0
    7.6690   -3.3480   22.3510 C   0  0  0  0  0  0  0  0  0  0  0  0
    6.7620   -2.7160   23.4150 C   0  0  0  0  0  0  0  0  0  0  0  0
    6.3240   -3.7760   24.3780 C   0  0  0  0  0  0  0  0  0  0  0  0
    5.2940   -3.2740   25.3520 C   0  0  0  0  0  0  0  0  0  0  0  0
    4.4370   -2.5490   24.8520 O   0  0  0  0  0  0  0  0  0  0  0  0
    5.2580   -3.5880   26.7390 N   0  0  0  0  0  0  0  0  0  0  0  0
    4.2040   -3.4450   27.6410 C   0  0  0  0  0  0  0  0  0  0  0  0
    4.3920   -3.9190   28.9130 C   0  0  0  0  0  0  0  0  0  0  0  0
    5.2700   -5.0440   28.7060 N   0  0  0  0  0  0  0  0  0  0  0  0
    5.5270   -6.1110   29.5500 C   0  0  0  0  0  0  0  0  0  0  0  0
    6.8100   -6.4890   29.8280 O   0  0  0  0  0  0  0  0  0  0  0  0
    4.4560   -6.7950   30.0770 C   0  0  0  0  0  0  0  0  0  0  0  0
    4.4070   -7.1090   31.5230 C   0  0  0  0  0  0  0  0  0  0  0  0
    3.2490   -7.8700   32.1610 C   0  0  0  0  0  0  0  0  0  0  0  0
    2.1350   -8.2930   31.2060 C   0  0  0  0  0  0  0  0  0  0  0  0
    0.7420   -9.1780   31.8050 Cl  0  0  0  0  0  0  0  0  0  0  0  0
    2.2370   -7.9700   29.8590 C   0  0  0  0  0  0  0  0  0  0  0  0
    3.3990   -7.2200   29.2970 C   0  0  0  0  0  0  0  0  0  0  0  0
    3.4070   -6.9480   27.9710 F   0  0  0  0  0  0  0  0  0  0  0  0
    6.5420   -4.6600   28.2260 C   0  0  0  0  0  0  0  0  0  0  0  0
    6.4780   -3.5030   27.4440 C   0  0  0  0  0  0  0  0  0  0  0  0
    5.7860   -5.0360   23.7470 C   0  0  0  0  0  0  0  0  0  0  0  0
    6.5540   -5.5060   22.5190 C   0  0  0  0  0  0  0  0  0  0  0  0
  1  2  1  0
  2  3  2  0
  2  4  1  0
  4  5  1  0
  5  6  1  0
  6  7  1  0
  7  8  1  0
  8  9  2  0
  8 10  1  0
 10 11  1  0
 11 12  1  0
 12 13  1  0
 13 14  1  0
 14 15  2  0
 14 16  1  0
 16 17  2  0
 17 18  1  0
 18 19  2  0
 19 20  1  0
 19 21  1  0
 16 22  1  0
 21 22  2  0
 22 23  1  0
 13 24  1  0
 10 25  1  0
 24 25  1  0
  7 26  1  0
  4 27  1  0
 26 27  1  0
M  END
