piperidine-amides-25364-covalent
     RDKit          3D

 25 27  0  0  0  0  0  0  0  0999 V2000
    7.0650   -3.3370   19.3600 C   0  0  0  0  0  0  0  0  0  0  0  0
    6.3960   -4.2200   20.3450 C   0  0  0  0  0  0  0  0  0  0  0  0
    5.3710   -4.7930   19.9690 O   0  0  0  0  0  0  0  0  0  0  0  0
    6.9540   -4.4180   21.6120 N   0  0  0  0  0  0  0  0  0  0  0  0
    6.5930   -5.5680   22.3850 C   0  0  0  0  0  0  0  0  0  0  0  0
    5.7340   -5.1130   23.5360 C   0  0  0  0  0  0  0  0  0  0  0  0
    6.4260   -4.0110   24.3550 C   0  0  0  0  0  0  0  0  0  0  0  0
    5.4460   -3.5670   25.3860 C   0  0  0  0  0  0  0  0  0  0  0  0
    4.5580   -2.7640   25.0910 O   0  0  0  0  0  0  0  0  0  0  0  0
    5.5450   -4.0680   26.6900 N   0  0  0  0  0  0  0  0  0  0  0  0
    6.8580   -4.2480   27.0440 C   0  0  0  0  0  0  0  0  0  0  0  0
    6.9940   -5.4950   27.8460 C   0  0  0  0  0  0  0  0  0  0  0  0
    6.1100   -5.7480   28.8320 C   0  0  0  0  0  0  0  0  0  0  0  0
    6.0960   -6.8130   29.7110 C   0  0  0  0  0  0  0  0  0  0  0  0
    5.1140   -6.8920   30.6470 C   0  0  0  0  0  0  0  0  0  0  0  0
    3.9890   -5.9450   30.8660 C   0  0  0  0  0  0  0  0  0  0  0  0
    3.1240   -6.3880   32.0000 C   0  0  0  0  0  0  0  0  0  0  0  0
    4.0850   -6.2150   33.1460 C   0  0  0  0  0  0  0  0  0  0  0  0
    3.0530   -7.8990   31.9300 C   0  0  0  0  0  0  0  0  0  0  0  0
    1.8380   -5.8920   32.0240 C   0  0  0  0  0  0  0  0  0  0  0  0
    3.9140   -4.7790   29.9640 C   0  0  0  0  0  0  0  0  0  0  0  0
    4.9730   -4.6650   28.9310 C   0  0  0  0  0  0  0  0  0  0  0  0
    5.0040   -3.5230   27.9220 C   0  0  0  0  0  0  0  0  0  0  0  0
    6.7740   -2.8540   23.4440 C   0  0  0  0  0  0  0  0  0  0  0  0
    7.5810   -3.3010   22.2540 C   0  0  0  0  0  0  0  0  0  0  0  0
  1  2  1  0
  2  3  2  0
  2  4  1  0
  4  5  1  0
  5  6  1  0
  6  7  1  0
  7  8  1  0
  8  9  2  0
  8 10  1  0
 10 11  1  0
 11 12  1  0
 12 13  1  0
 13 14  2  0
 14 15  1  0
 15 16  2  0
 16 17  1  0
 17 18  1  0
 17 19  1  0
 17 20  1  0
 16 21  1  0
 13 22  1  0
 21 22  2  0
 10 23  1  0
 22 23  1  0
  7 24  1  0
  4 25  1  0
 24 25  1  0
M  END
