piperidine-amides-3275-covalent
     RDKit          3D

 22 23  0  0  0  0  0  0  0  0999 V2000
    7.1870   -3.2540   19.2170 C   0  0  0  0  0  0  0  0  0  0  0  0
    6.3440   -3.9530   20.1750 C   0  0  0  0  0  0  0  0  0  0  0  0
    5.2600   -4.4150   19.8320 O   0  0  0  0  0  0  0  0  0  0  0  0
    6.8060   -4.1640   21.5110 N   0  0  0  0  0  0  0  0  0  0  0  0
    6.2070   -5.2010   22.3000 C   0  0  0  0  0  0  0  0  0  0  0  0
    5.4170   -4.5490   23.3930 C   0  0  0  0  0  0  0  0  0  0  0  0
    6.4150   -3.6800   24.1250 C   0  0  0  0  0  0  0  0  0  0  0  0
    5.8270   -3.0630   25.3470 C   0  0  0  0  0  0  0  0  0  0  0  0
    4.6310   -2.7150   25.4210 O   0  0  0  0  0  0  0  0  0  0  0  0
    6.6890   -2.8590   26.4510 N   0  0  0  0  0  0  0  0  0  0  0  0
    6.4180   -3.4520   27.7550 C   0  0  0  0  0  0  0  0  0  0  0  0
    5.5160   -4.6580   27.6340 C   0  0  1  0  0  0  0  0  0  0  0  0
    5.4850   -5.2830   26.4000 C   0  0  0  0  0  0  0  0  0  0  0  0
    4.4450   -6.2680   26.2110 N   0  0  0  0  0  0  0  0  0  0  0  0
    4.6590   -7.1680   25.1160 C   0  0  0  0  0  0  0  0  0  0  0  0
    5.7550   -7.0880   24.3290 N   0  0  0  0  0  0  0  0  0  0  0  0
    3.7100   -8.1650   24.8710 O   0  0  0  0  0  0  0  0  0  0  0  0
    3.8080   -6.6380   27.4050 C   0  0  0  0  0  0  0  0  0  0  0  0
    4.5420   -6.4340   28.6340 C   0  0  0  0  0  0  0  0  0  0  0  0
    5.6830   -5.6780   28.5440 O   0  0  0  0  0  0  0  0  0  0  0  0
    7.0380   -2.6360   23.2410 C   0  0  0  0  0  0  0  0  0  0  0  0
    7.7180   -3.2300   22.1950 C   0  0  0  0  0  0  0  0  0  0  0  0
  1  2  1  0
  2  3  2  0
  2  4  1  0
  4  5  1  0
  5  6  1  0
  6  7  1  0
  7  8  1  0
  8  9  2  0
  8 10  1  0
 10 11  1  0
 12 11  1  6
 12 13  1  0
 13 14  1  0
 14 15  1  0
 15 16  1  0
 15 17  2  0
 14 18  1  0
 18 19  1  0
 12 20  1  0
 19 20  1  0
  7 21  1  0
  4 22  1  0
 21 22  1  0
M  END
