piperidine-amides-4383-covalent
     RDKit          3D

 25 27  0  0  0  0  0  0  0  0999 V2000
    7.1270   -3.3020   19.2310 C   0  0  0  0  0  0  0  0  0  0  0  0
    6.3650   -4.0290   20.2640 C   0  0  0  0  0  0  0  0  0  0  0  0
    5.2890   -4.5530   19.8930 O   0  0  0  0  0  0  0  0  0  0  0  0
    6.8480   -4.1910   21.5910 N   0  0  0  0  0  0  0  0  0  0  0  0
    7.7200   -3.2090   22.1300 C   0  0  0  0  0  0  0  0  0  0  0  0
    7.4210   -2.9730   23.5190 C   0  0  0  0  0  0  0  0  0  0  0  0
    6.1370   -3.5880   23.8870 C   0  0  0  0  0  0  0  0  0  0  0  0
    5.7200   -3.2300   25.2810 C   0  0  0  0  0  0  0  0  0  0  0  0
    4.5320   -3.3920   25.6110 O   0  0  0  0  0  0  0  0  0  0  0  0
    6.6320   -2.7100   26.2170 N   0  0  0  0  0  0  0  0  0  0  0  0
    6.4870   -1.5700   27.0460 C   0  0  0  0  0  0  0  0  0  0  0  0
    5.5410   -1.5260   28.1620 C   0  0  0  0  0  0  0  0  0  0  0  0
    4.8230   -2.5490   28.7400 N   0  0  0  0  0  0  0  0  0  0  0  0
    3.9760   -2.3390   29.7970 N   0  0  0  0  0  0  0  0  0  0  0  0
    3.2360   -3.4430   29.9880 C   0  0  0  0  0  0  0  0  0  0  0  0
    3.4190   -1.0910   29.9850 C   0  0  0  0  0  0  0  0  0  0  0  0
    2.1560   -0.8040   30.4590 O   0  0  0  0  0  0  0  0  0  0  0  0
    4.2780    0.0920   29.6370 C   0  0  0  0  0  0  0  0  0  0  0  0
    3.8340    1.3290   30.3470 C   0  0  0  0  0  0  0  0  0  0  0  0
    4.8300    2.4360   29.8710 C   0  0  0  0  0  0  0  0  0  0  0  0
    6.0130    2.3440   28.8980 C   0  0  0  0  0  0  0  0  0  0  0  0
    6.2670    0.9760   28.3020 C   0  0  0  0  0  0  0  0  0  0  0  0
    5.3520   -0.1470   28.7100 C   0  0  0  0  0  0  0  0  0  0  0  0
    6.1270   -5.0710   23.6270 C   0  0  0  0  0  0  0  0  0  0  0  0
    6.6390   -5.4130   22.3510 C   0  0  0  0  0  0  0  0  0  0  0  0
  1  2  1  0
  2  3  2  0
  2  4  1  0
  4  5  1  0
  5  6  1  0
  6  7  1  0
  7  8  1  0
  8  9  2  0
  8 10  1  0
 10 11  1  0
 11 12  1  0
 12 13  2  0
 13 14  1  0
 14 15  1  0
 14 16  1  0
 16 17  2  0
 16 18  1  0
 18 19  1  0
 19 20  2  0
 20 21  1  0
 21 22  2  0
 12 23  1  0
 18 23  2  0
 22 23  1  0
  7 24  1  0
  4 25  1  0
 24 25  1  0
M  END
