piperidine-amides-16211-covalent
     RDKit          3D

 19 20  0  0  0  0  0  0  0  0999 V2000
    7.0720   -3.3740   19.3500 C   0  0  0  0  0  0  0  0  0  0  0  0
    6.3520   -4.2210   20.3320 C   0  0  0  0  0  0  0  0  0  0  0  0
    5.3150   -4.7530   19.9510 O   0  0  0  0  0  0  0  0  0  0  0  0
    6.8950   -4.4260   21.5970 N   0  0  0  0  0  0  0  0  0  0  0  0
    6.6230   -5.6190   22.3760 C   0  0  0  0  0  0  0  0  0  0  0  0
    5.8320   -5.2750   23.6180 C   0  0  0  0  0  0  0  0  0  0  0  0
    5.8390   -3.7590   23.8010 C   0  0  0  0  0  0  0  0  0  0  0  0
    5.1710   -3.3810   25.0590 C   0  0  0  0  0  0  0  0  0  0  0  0
    4.3280   -2.4810   25.0350 O   0  0  0  0  0  0  0  0  0  0  0  0
    5.4430   -3.9740   26.2900 N   0  0  0  0  0  0  0  0  0  0  0  0
    6.8120   -4.1760   26.5690 C   0  0  0  0  0  0  0  0  0  0  0  0
    6.9600   -5.4180   27.4070 C   0  0  0  0  0  0  0  0  0  0  0  0
    6.4880   -5.3790   28.6600 C   0  0  0  0  0  0  0  0  0  0  0  0
    6.3340   -6.5580   29.2900 C   0  0  0  0  0  0  0  0  0  0  0  0
    6.9330   -4.5070   29.3970 O   0  0  0  0  0  0  0  0  0  0  0  0
    5.1380   -4.7090   28.5060 C   0  0  0  0  0  0  0  0  0  0  0  0
    5.2490   -3.4800   27.6390 C   0  0  0  0  0  0  0  0  0  0  0  0
    7.2130   -3.2420   23.6450 C   0  0  0  0  0  0  0  0  0  0  0  0
    7.6250   -3.3410   22.2250 C   0  0  0  0  0  0  0  0  0  0  0  0
  1  2  1  0
  2  3  2  0
  2  4  1  0
  4  5  1  0
  5  6  1  0
  6  7  1  0
  7  8  1  0
  8  9  2  0
  8 10  1  0
 10 11  1  0
 11 12  1  0
 12 13  1  0
 13 14  1  0
 13 15  1  0
 13 16  1  0
 10 17  1  0
 16 17  1  0
  7 18  1  0
  4 19  1  0
 18 19  1  0
M  END
