piperidine-amides-14604-covalent
     RDKit          3D

 23 24  0  0  0  0  0  0  0  0999 V2000
    7.1140   -3.3010   19.2810 C   0  0  0  0  0  0  0  0  0  0  0  0
    6.3370   -4.0710   20.2440 C   0  0  0  0  0  0  0  0  0  0  0  0
    5.2480   -4.5430   19.8770 O   0  0  0  0  0  0  0  0  0  0  0  0
    6.8570   -4.3280   21.5350 N   0  0  0  0  0  0  0  0  0  0  0  0
    6.4040   -5.4830   22.2380 C   0  0  0  0  0  0  0  0  0  0  0  0
    5.5550   -5.0290   23.3850 C   0  0  0  0  0  0  0  0  0  0  0  0
    6.3550   -3.9720   24.1210 C   0  0  0  0  0  0  0  0  0  0  0  0
    5.5220   -3.3690   25.2070 C   0  0  0  0  0  0  0  0  0  0  0  0
    4.3020   -3.4250   25.0690 O   0  0  0  0  0  0  0  0  0  0  0  0
    6.1750   -2.7870   26.2810 N   0  0  0  0  0  0  0  0  0  0  0  0
    6.2470   -3.3840   27.5710 C   0  0  1  0  0  0  0  0  0  0  0  0
    5.9740   -4.7620   27.6930 C   0  0  0  0  0  0  0  0  0  0  0  0
    7.6520   -3.2280   27.8960 C   0  0  0  0  0  0  0  0  0  0  0  0
    7.9160   -2.4700   28.9870 O   0  0  0  0  0  0  0  0  0  0  0  0
    8.7120   -3.7570   27.1450 N   0  0  0  0  0  0  0  0  0  0  0  0
    8.8810   -3.0890   25.9200 C   0  0  0  0  0  0  0  0  0  0  0  0
   10.1860   -3.4600   25.3700 C   0  0  0  0  0  0  0  0  0  0  0  0
   10.5930   -4.7260   26.1280 C   0  0  0  0  0  0  0  0  0  0  0  0
    9.5260   -5.7270   26.2150 C   0  0  0  0  0  0  0  0  0  0  0  0
    8.5000   -5.1750   27.1510 C   0  0  2  0  0  0  0  0  0  0  0  0
    7.1780   -5.7240   26.5980 C   0  0  0  0  0  0  0  0  0  0  0  0
    6.7020   -2.8350   23.1820 C   0  0  0  0  0  0  0  0  0  0  0  0
    7.5960   -3.3260   22.2610 C   0  0  0  0  0  0  0  0  0  0  0  0
  1  2  1  0
  2  3  2  0
  2  4  1  0
  4  5  1  0
  5  6  1  0
  6  7  1  0
  7  8  1  0
  8  9  2  0
  8 10  1  0
 10 11  1  0
 11 12  1  6
 11 13  1  0
 13 14  2  0
 13 15  1  0
 15 16  1  0
 16 17  1  0
 17 18  1  0
 18 19  1  0
 15 20  1  0
 19 20  1  0
 20 21  1  6
  7 22  1  0
  4 23  1  0
 22 23  1  0
M  END
