piperidine-amides-19115-covalent
     RDKit          3D

 22 24  0  0  0  0  0  0  0  0999 V2000
    7.0700   -3.4160   19.3050 C   0  0  0  0  0  0  0  0  0  0  0  0
    6.4280   -4.2100   20.3250 C   0  0  0  0  0  0  0  0  0  0  0  0
    5.3780   -4.8400   19.9900 O   0  0  0  0  0  0  0  0  0  0  0  0
    6.9540   -4.3600   21.6290 N   0  0  0  0  0  0  0  0  0  0  0  0
    6.6300   -5.5830   22.3830 C   0  0  0  0  0  0  0  0  0  0  0  0
    5.6170   -4.9740   23.4260 C   0  0  0  0  0  0  0  0  0  0  0  0
    6.3560   -3.8600   24.1520 C   0  0  0  0  0  0  0  0  0  0  0  0
    5.4420   -3.1970   25.2820 C   0  0  0  0  0  0  0  0  0  0  0  0
    4.8850   -2.2080   24.8420 O   0  0  0  0  0  0  0  0  0  0  0  0
    5.4980   -3.8500   26.3710 N   0  0  0  0  0  0  0  0  0  0  0  0
    5.1140   -4.2420   27.6170 C   0  0  0  0  0  0  0  0  0  0  0  0
    5.1640   -5.3550   28.3850 C   0  0  2  0  0  0  0  0  0  0  0  0
    4.2170   -5.3700   29.4330 C   0  0  0  0  0  0  0  0  0  0  0  0
    6.5140   -5.3530   29.0460 C   0  0  0  0  0  0  0  0  0  0  0  0
    7.0900   -5.3510   27.6400 C   0  0  0  0  0  0  0  0  0  0  0  0
    8.1980   -6.1350   27.7530 C   0  0  0  0  0  0  0  0  0  0  0  0
    9.0940   -6.4480   26.7230 C   0  0  0  0  0  0  0  0  0  0  0  0
    8.2220   -5.6050   25.7790 C   0  0  0  0  0  0  0  0  0  0  0  0
    7.3980   -4.9260   25.3230 N   0  0  0  0  0  0  0  0  0  0  0  0
    6.6590   -4.6940   26.3850 C   0  0  0  0  0  0  0  0  0  0  0  0
    6.8580   -2.7700   23.1880 C   0  0  0  0  0  0  0  0  0  0  0  0
    7.7270   -3.3340   22.3010 C   0  0  0  0  0  0  0  0  0  0  0  0
  1  2  1  0
  2  3  2  0
  2  4  1  0
  4  5  1  0
  5  6  1  0
  6  7  1  0
  7  8  1  0
  8  9  2  0
  8 10  1  0
 10 11  1  0
 11 12  1  0
 12 13  1  1
 12 14  1  0
 14 15  1  0
 15 16  2  0
 16 17  1  0
 17 18  2  0
 18 19  1  0
 10 20  1  0
 15 20  1  0
 19 20  2  0
  7 21  1  0
  4 22  1  0
 21 22  1  0
M  END
