piperidine-amides-472-covalent
     RDKit          3D

 27 29  0  0  0  0  0  0  0  0999 V2000
    7.0510   -3.3500   19.2540 C   0  0  0  0  0  0  0  0  0  0  0  0
    6.3330   -4.0690   20.2900 C   0  0  0  0  0  0  0  0  0  0  0  0
    5.2800   -4.6790   19.9320 O   0  0  0  0  0  0  0  0  0  0  0  0
    6.7610   -4.1700   21.6360 N   0  0  0  0  0  0  0  0  0  0  0  0
    7.7200   -3.1150   22.1080 C   0  0  0  0  0  0  0  0  0  0  0  0
    7.5790   -3.0510   23.6860 C   0  0  0  0  0  0  0  0  0  0  0  0
    6.2520   -3.6590   24.0340 C   0  0  0  0  0  0  0  0  0  0  0  0
    5.6670   -3.1040   25.4070 C   0  0  0  0  0  0  0  0  0  0  0  0
    5.1530   -2.0120   25.2340 O   0  0  0  0  0  0  0  0  0  0  0  0
    5.8600   -3.9440   26.3480 N   0  0  0  0  0  0  0  0  0  0  0  0
    5.9590   -4.8040   27.4030 C   0  0  0  0  0  0  0  0  0  0  0  0
    5.2080   -5.5420   28.2650 C   0  0  0  0  0  0  0  0  0  0  0  0
    5.8870   -6.4490   29.1430 C   0  0  0  0  0  0  0  0  0  0  0  0
    5.2580   -7.3540   30.1600 C   0  0  0  0  0  0  0  0  0  0  0  0
    3.7540   -7.0650   30.0170 C   0  0  0  0  0  0  0  0  0  0  0  0
    3.0640   -7.8680   30.9270 C   0  0  0  0  0  0  0  0  0  0  0  0
    1.8620   -8.3770   30.2970 C   0  0  0  0  0  0  0  0  0  0  0  0
    1.0870   -9.2720   31.3180 C   0  0  0  0  0  0  0  0  0  0  0  0
    1.5220   -9.5760   32.7740 C   0  0  0  0  0  0  0  0  0  0  0  0
    2.6340   -9.0720   33.2760 C   0  0  0  0  0  0  0  0  0  0  0  0
    3.0030   -9.3110   34.4540 O   0  0  0  0  0  0  0  0  0  0  0  0
    2.4470  -10.3600   35.2080 C   0  0  0  0  0  0  0  0  0  0  0  0
    3.3690   -8.2330   32.3310 C   0  0  0  0  0  0  0  0  0  0  0  0
    3.1040   -6.1890   29.1720 C   0  0  0  0  0  0  0  0  0  0  0  0
    3.8410   -5.4330   28.3000 C   0  0  0  0  0  0  0  0  0  0  0  0
    6.1280   -5.1030   23.7550 C   0  0  0  0  0  0  0  0  0  0  0  0
    6.6550   -5.3940   22.3930 C   0  0  0  0  0  0  0  0  0  0  0  0
  1  2  1  0
  2  3  2  0
  2  4  1  0
  4  5  1  0
  5  6  1  0
  6  7  1  0
  7  8  1  0
  8  9  2  0
  8 10  1  0
 10 11  1  0
 11 12  1  0
 12 13  2  0
 13 14  1  0
 14 15  2  0
 15 16  1  0
 16 17  2  0
 17 18  1  0
 18 19  2  0
 19 20  1  0
 20 21  1  0
 21 22  1  0
 16 23  1  0
 20 23  2  0
 15 24  1  0
 12 25  1  0
 24 25  2  0
  7 26  1  0
  4 27  1  0
 26 27  1  0
M  END
