piperidine-amides-10028-covalent
     RDKit          3D

 26 28  0  0  0  0  0  0  0  0999 V2000
    7.1140   -3.2600   19.1760 C   0  0  0  0  0  0  0  0  0  0  0  0
    6.3440   -4.0160   20.1660 C   0  0  0  0  0  0  0  0  0  0  0  0
    5.2140   -4.4360   19.8210 O   0  0  0  0  0  0  0  0  0  0  0  0
    6.8910   -4.2990   21.4050 N   0  0  0  0  0  0  0  0  0  0  0  0
    6.5390   -5.5070   22.0950 C   0  0  0  0  0  0  0  0  0  0  0  0
    5.5590   -5.1260   23.1590 C   0  0  0  0  0  0  0  0  0  0  0  0
    6.0790   -4.0140   24.0270 C   0  0  0  0  0  0  0  0  0  0  0  0
    5.0160   -3.6420   24.9740 C   0  0  0  0  0  0  0  0  0  0  0  0
    4.2040   -2.7510   24.6420 O   0  0  0  0  0  0  0  0  0  0  0  0
    4.8670   -4.2540   26.2290 N   0  0  0  0  0  0  0  0  0  0  0  0
    5.9070   -4.1820   27.1980 C   0  0  0  0  0  0  0  0  0  0  0  0
    6.6380   -2.8630   27.1090 C   0  0  0  0  0  0  0  0  0  0  0  0
    7.7030   -2.8980   26.2340 C   0  0  0  0  0  0  0  0  0  0  0  0
    7.8740   -3.6380   25.0850 C   0  0  0  0  0  0  0  0  0  0  0  0
    8.9860   -3.5980   24.2410 C   0  0  0  0  0  0  0  0  0  0  0  0
   10.0430   -2.7540   24.5530 C   0  0  0  0  0  0  0  0  0  0  0  0
   11.6740   -2.4830   23.5780 Br  0  0  0  0  0  0  0  0  0  0  0  0
    9.9410   -2.0210   25.6650 C   0  0  0  0  0  0  0  0  0  0  0  0
    8.7290   -2.0960   26.5310 C   0  0  0  0  0  0  0  0  0  0  0  0
    5.7250   -1.8620   26.7200 C   0  0  0  0  0  0  0  0  0  0  0  0
    4.5210   -1.8700   27.6310 C   0  0  0  0  0  0  0  0  0  0  0  0
    4.7740   -1.9860   29.1140 C   0  0  0  0  0  0  0  0  0  0  0  0
    6.0410   -2.3750   29.4710 C   0  0  0  0  0  0  0  0  0  0  0  0
    6.9990   -2.2870   28.2850 C   0  0  0  0  0  0  0  0  0  0  0  0
    6.4830   -2.7950   23.2260 C   0  0  0  0  0  0  0  0  0  0  0  0
    7.4770   -3.2050   22.1400 C   0  0  0  0  0  0  0  0  0  0  0  0
  1  2  1  0
  2  3  2  0
  2  4  1  0
  4  5  1  0
  5  6  1  0
  6  7  1  0
  7  8  1  0
  8  9  2  0
  8 10  1  0
 10 11  1  0
 12 11  1  0
 12 13  1  0
 13 14  2  0
 14 15  1  0
 15 16  2  0
 16 17  1  0
 16 18  1  0
 13 19  1  0
 18 19  2  0
 12 20  1  0
 20 21  1  0
 21 22  1  0
 22 23  1  0
 12 24  1  0
 23 24  1  0
  7 25  1  0
  4 26  1  0
 25 26  1  0
M  END
