piperidine-amides-10590-covalent
     RDKit          3D

 23 23  0  0  0  0  0  0  0  0999 V2000
    7.1000   -3.2690   19.2110 C   0  0  0  0  0  0  0  0  0  0  0  0
    6.3560   -4.0140   20.2300 C   0  0  0  0  0  0  0  0  0  0  0  0
    5.2650   -4.5270   19.8730 O   0  0  0  0  0  0  0  0  0  0  0  0
    6.8860   -4.1820   21.5100 N   0  0  0  0  0  0  0  0  0  0  0  0
    7.7060   -3.1710   22.1340 C   0  0  0  0  0  0  0  0  0  0  0  0
    7.0360   -2.7490   23.4070 C   0  0  0  0  0  0  0  0  0  0  0  0
    6.5970   -3.9210   24.2480 C   0  0  0  0  0  0  0  0  0  0  0  0
    5.7630   -3.4540   25.3750 C   0  0  0  0  0  0  0  0  0  0  0  0
    4.6690   -2.9080   25.1100 O   0  0  0  0  0  0  0  0  0  0  0  0
    6.1380   -3.6050   26.7200 N   0  0  0  0  0  0  0  0  0  0  0  0
    6.9000   -4.7440   27.1480 C   0  0  2  0  0  0  0  0  0  0  0  0
    6.0130   -5.7020   27.9380 C   0  0  0  0  0  0  0  0  0  0  0  0
    6.3120   -6.1200   29.2140 C   0  0  0  0  0  0  0  0  0  0  0  0
    5.3570   -6.5350   30.1380 C   0  0  0  0  0  0  0  0  0  0  0  0
    5.8740   -6.7280   31.3440 O   0  0  0  0  0  0  0  0  0  0  0  0
    4.0100   -6.7290   29.9040 O   0  0  0  0  0  0  0  0  0  0  0  0
    3.5620   -7.7430   29.0580 C   0  0  0  0  0  0  0  0  0  0  0  0
    8.1060   -4.4940   27.7710 C   0  0  0  0  0  0  0  0  0  0  0  0
    8.3190   -3.3630   28.5440 O   0  0  0  0  0  0  0  0  0  0  0  0
    9.1410   -5.3800   27.6200 O   0  0  0  0  0  0  0  0  0  0  0  0
    9.4070   -5.9800   26.3820 C   0  0  0  0  0  0  0  0  0  0  0  0
    5.7540   -4.9220   23.4430 C   0  0  0  0  0  0  0  0  0  0  0  0
    6.5870   -5.3720   22.2490 C   0  0  0  0  0  0  0  0  0  0  0  0
  1  2  1  0
  2  3  2  0
  2  4  1  0
  4  5  1  0
  5  6  1  0
  6  7  1  0
  7  8  1  0
  8  9  2  0
  8 10  1  0
 10 11  1  0
 11 12  1  1
 12 13  1  0
 13 14  1  0
 14 15  2  0
 14 16  1  0
 16 17  1  0
 11 18  1  0
 18 19  2  0
 18 20  1  0
 20 21  1  0
  7 22  1  0
  4 23  1  0
 22 23  1  0
M  END
