piperidine-amides-17268-covalent
     RDKit          3D

 20 20  0  0  0  0  0  0  0  0999 V2000
    7.1090   -3.2900   19.2010 C   0  0  0  0  0  0  0  0  0  0  0  0
    6.3800   -4.0520   20.2300 C   0  0  0  0  0  0  0  0  0  0  0  0
    5.2850   -4.5510   19.8830 O   0  0  0  0  0  0  0  0  0  0  0  0
    6.9270   -4.2660   21.5230 N   0  0  0  0  0  0  0  0  0  0  0  0
    6.4210   -5.3500   22.2800 C   0  0  0  0  0  0  0  0  0  0  0  0
    5.8900   -4.9560   23.5840 C   0  0  0  0  0  0  0  0  0  0  0  0
    6.5150   -3.7760   24.2430 C   0  0  0  0  0  0  0  0  0  0  0  0
    5.7280   -3.4020   25.4690 C   0  0  0  0  0  0  0  0  0  0  0  0
    4.4890   -3.3430   25.3740 O   0  0  0  0  0  0  0  0  0  0  0  0
    6.3320   -3.1030   26.7100 N   0  0  0  0  0  0  0  0  0  0  0  0
    6.2060   -3.8110   27.9410 C   0  0  0  0  0  0  0  0  0  0  0  0
    6.3860   -5.2640   28.0520 C   0  0  0  0  0  0  0  0  0  0  0  0
    5.2100   -5.8870   28.8190 C   0  0  0  0  0  0  0  0  0  0  0  0
    5.5580   -7.0630   29.4610 C   0  0  0  0  0  0  0  0  0  0  0  0
    6.7310   -1.6990   26.8880 C   0  0  0  0  0  0  0  0  0  0  0  0
    5.4750   -0.8950   26.7310 C   0  0  0  0  0  0  0  0  0  0  0  0
    5.4870   -0.7230   28.2640 C   0  0  0  0  0  0  0  0  0  0  0  0
    6.4640    0.2150   28.9250 C   0  0  0  0  0  0  0  0  0  0  0  0
    6.7100   -2.6260   23.2820 C   0  0  0  0  0  0  0  0  0  0  0  0
    7.5970   -3.1680   22.1580 C   0  0  0  0  0  0  0  0  0  0  0  0
  1  2  1  0
  2  3  2  0
  2  4  1  0
  4  5  1  0
  5  6  1  0
  6  7  1  0
  7  8  1  0
  8  9  2  0
  8 10  1  0
 10 11  1  0
 11 12  1  0
 12 13  1  0
 13 14  1  0
 10 15  1  0
 15 16  1  0
 16 17  1  0
 17 18  1  0
  7 19  1  0
  4 20  1  0
 19 20  1  0
M  END
