piperidine-amides-23247-covalent
     RDKit          3D

 24 26  0  0  0  0  0  0  0  0999 V2000
    7.1030   -3.3600   19.3190 C   0  0  0  0  0  0  0  0  0  0  0  0
    6.4250   -4.2110   20.3060 C   0  0  0  0  0  0  0  0  0  0  0  0
    5.3370   -4.7220   19.9510 O   0  0  0  0  0  0  0  0  0  0  0  0
    7.0160   -4.5010   21.5590 N   0  0  0  0  0  0  0  0  0  0  0  0
    6.5160   -5.6090   22.2880 C   0  0  0  0  0  0  0  0  0  0  0  0
    5.9640   -5.2400   23.5820 C   0  0  0  0  0  0  0  0  0  0  0  0
    6.5690   -4.0530   24.2180 C   0  0  0  0  0  0  0  0  0  0  0  0
    5.6730   -3.5430   25.3000 C   0  0  0  0  0  0  0  0  0  0  0  0
    4.9060   -2.6140   24.9900 O   0  0  0  0  0  0  0  0  0  0  0  0
    5.5790   -4.0130   26.6370 N   0  0  0  0  0  0  0  0  0  0  0  0
    5.9510   -3.2470   27.6780 C   0  0  0  0  0  0  0  0  0  0  0  0
    6.6540   -4.3750   28.1450 C   0  0  0  0  0  0  0  0  0  0  0  0
    6.7550   -3.1590   29.0010 C   0  0  0  0  0  0  0  0  0  0  0  0
    5.9870   -2.1140   28.4480 C   0  0  0  0  0  0  0  0  0  0  0  0
    6.4830   -1.3850   29.6470 C   0  0  0  0  0  0  0  0  0  0  0  0
    6.5610   -2.7120   28.9310 C   0  0  0  0  0  0  0  0  0  0  0  0
    5.6920   -2.0340   28.1880 N   0  0  0  0  0  0  0  0  0  0  0  0
    4.4580   -2.6810   28.0450 C   0  0  0  0  0  0  0  0  0  0  0  0
    3.3830   -1.9930   28.6190 O   0  0  0  0  0  0  0  0  0  0  0  0
    4.3640   -4.0450   27.2980 C   0  0  0  0  0  0  0  0  0  0  0  0
    3.0820   -4.0030   26.4840 C   0  0  0  0  0  0  0  0  0  0  0  0
    4.3310   -5.2990   28.1480 C   0  0  0  0  0  0  0  0  0  0  0  0
    6.8550   -2.9700   23.2220 C   0  0  0  0  0  0  0  0  0  0  0  0
    7.7470   -3.4990   22.3030 C   0  0  0  0  0  0  0  0  0  0  0  0
  1  2  1  0
  2  3  2  0
  2  4  1  0
  4  5  1  0
  5  6  1  0
  6  7  1  0
  7  8  1  0
  8  9  2  0
  8 10  1  0
 10 11  1  0
 11 12  2  0
 12 13  1  0
 13 14  2  0
 14 15  1  0
 11 16  1  0
 15 16  2  0
 16 17  1  0
 17 18  1  0
 18 19  2  0
 10 20  1  0
 18 20  1  0
 20 21  1  0
 20 22  1  0
  7 23  1  0
  4 24  1  0
 23 24  1  0
M  END
