piperidine-amides-30065-covalent
     RDKit          3D

 26 28  0  0  0  0  0  0  0  0999 V2000
    7.0820   -3.3590   19.3280 C   0  0  0  0  0  0  0  0  0  0  0  0
    6.4330   -4.2080   20.3150 C   0  0  0  0  0  0  0  0  0  0  0  0
    5.4100   -4.8190   19.9930 O   0  0  0  0  0  0  0  0  0  0  0  0
    7.0140   -4.3910   21.6280 N   0  0  0  0  0  0  0  0  0  0  0  0
    6.7010   -5.6050   22.3580 C   0  0  0  0  0  0  0  0  0  0  0  0
    6.1670   -5.2920   23.7370 C   0  0  0  0  0  0  0  0  0  0  0  0
    5.9030   -3.8070   23.7790 C   0  0  0  0  0  0  0  0  0  0  0  0
    4.9260   -3.4450   24.8420 C   0  0  0  0  0  0  0  0  0  0  0  0
    3.7220   -3.6590   24.6650 O   0  0  0  0  0  0  0  0  0  0  0  0
    5.2610   -2.8800   26.0740 N   0  0  0  0  0  0  0  0  0  0  0  0
    4.1050   -2.5170   26.8420 C   0  0  0  0  0  0  0  0  0  0  0  0
    4.3310   -3.3710   28.0210 C   0  0  0  0  0  0  0  0  0  0  0  0
    5.6410   -3.6130   28.1060 C   0  0  2  0  0  0  0  0  0  0  0  0
    5.8480   -4.8310   28.7630 C   0  0  0  0  0  0  0  0  0  0  0  0
    5.2940   -5.2050   29.9660 N   0  0  0  0  0  0  0  0  0  0  0  0
    5.7360   -6.4770   30.2210 C   0  0  0  0  0  0  0  0  0  0  0  0
    5.4830   -7.3660   31.3440 C   0  0  0  0  0  0  0  0  0  0  0  0
    6.5880   -6.8990   29.1240 N   0  0  0  0  0  0  0  0  0  0  0  0
    6.6380   -5.8740   28.2540 O   0  0  0  0  0  0  0  0  0  0  0  0
    6.0790   -2.6390   28.9730 C   0  0  0  0  0  0  0  0  0  0  0  0
    5.4750   -2.8000   30.1470 F   0  0  0  0  0  0  0  0  0  0  0  0
    5.5810   -1.4650   28.4700 F   0  0  0  0  0  0  0  0  0  0  0  0
    7.4250   -2.3540   29.1250 F   0  0  0  0  0  0  0  0  0  0  0  0
    6.2290   -3.5310   26.8700 C   0  0  0  0  0  0  0  0  0  0  0  0
    7.0970   -2.9730   23.5750 C   0  0  0  0  0  0  0  0  0  0  0  0
    7.6740   -3.2840   22.2710 C   0  0  0  0  0  0  0  0  0  0  0  0
  1  2  1  0
  2  3  2  0
  2  4  1  0
  4  5  1  0
  5  6  1  0
  6  7  1  0
  7  8  1  0
  8  9  2  0
  8 10  1  0
 10 11  1  0
 11 12  1  0
 12 13  1  0
 13 14  1  0
 14 15  2  0
 15 16  1  0
 16 17  1  0
 16 18  2  0
 14 19  1  0
 18 19  1  0
 13 20  1  1
 20 21  1  0
 20 22  1  0
 20 23  1  0
 10 24  1  0
 13 24  1  0
  7 25  1  0
  4 26  1  0
 25 26  1  0
M  END
