piperidine-amides-4731-covalent
     RDKit          3D

 24 26  0  0  0  0  0  0  0  0999 V2000
    7.0280   -3.3500   19.3000 C   0  0  0  0  0  0  0  0  0  0  0  0
    6.3800   -4.1820   20.3390 C   0  0  0  0  0  0  0  0  0  0  0  0
    5.3640   -4.8080   19.9750 O   0  0  0  0  0  0  0  0  0  0  0  0
    6.9190   -4.3030   21.6390 N   0  0  0  0  0  0  0  0  0  0  0  0
    7.6750   -3.2360   22.2210 C   0  0  0  0  0  0  0  0  0  0  0  0
    7.2500   -2.9090   23.5760 C   0  0  0  0  0  0  0  0  0  0  0  0
    5.9850   -3.5630   23.9460 C   0  0  0  0  0  0  0  0  0  0  0  0
    5.5980   -3.2030   25.3330 C   0  0  0  0  0  0  0  0  0  0  0  0
    4.3890   -3.2320   25.6260 O   0  0  0  0  0  0  0  0  0  0  0  0
    6.5560   -2.8360   26.2890 N   0  0  0  0  0  0  0  0  0  0  0  0
    6.4830   -1.5860   27.0840 C   0  0  0  0  0  0  0  0  0  0  0  0
    7.0290   -1.6260   28.4530 C   0  0  0  0  0  0  0  0  0  0  0  0
    6.9840   -0.4460   29.2660 C   0  0  0  0  0  0  0  0  0  0  0  0
    6.4120    0.6480   28.6620 C   0  0  0  0  0  0  0  0  0  0  0  0
    5.8730    0.7550   27.3700 C   0  0  0  0  0  0  0  0  0  0  0  0
    5.9010   -0.3620   26.5590 C   0  0  0  0  0  0  0  0  0  0  0  0
    5.3540    2.1620   27.1610 C   0  0  0  0  0  0  0  0  0  0  0  0
    6.4270    2.9580   27.4700 C   0  0  0  0  0  0  0  0  0  0  0  0
    6.5610    2.9890   28.8530 C   0  0  0  0  0  0  0  0  0  0  0  0
    6.8100    4.0080   29.5090 O   0  0  0  0  0  0  0  0  0  0  0  0
    6.4000    1.7710   29.4860 N   0  0  0  0  0  0  0  0  0  0  0  0
    6.4650    1.7080   30.9520 C   0  0  0  0  0  0  0  0  0  0  0  0
    5.9890   -5.0460   23.7610 C   0  0  0  0  0  0  0  0  0  0  0  0
    6.6450   -5.4660   22.4650 C   0  0  0  0  0  0  0  0  0  0  0  0
  1  2  1  0
  2  3  2  0
  2  4  1  0
  4  5  1  0
  5  6  1  0
  6  7  1  0
  7  8  1  0
  8  9  2  0
  8 10  1  0
 10 11  1  0
 11 12  2  0
 12 13  1  0
 13 14  2  0
 14 15  1  0
 11 16  1  0
 15 16  2  0
 15 17  1  0
 17 18  1  0
 18 19  1  0
 19 20  2  0
 14 21  1  0
 19 21  1  0
 21 22  1  0
  7 23  1  0
  4 24  1  0
 23 24  1  0
M  END
