piperidine-amides-32587-covalent
     RDKit          3D

 26 28  0  0  0  0  0  0  0  0999 V2000
    7.0780   -3.3180   19.3020 C   0  0  0  0  0  0  0  0  0  0  0  0
    6.3640   -4.1700   20.2910 C   0  0  0  0  0  0  0  0  0  0  0  0
    5.3280   -4.7610   19.9520 O   0  0  0  0  0  0  0  0  0  0  0  0
    6.9160   -4.3280   21.5780 N   0  0  0  0  0  0  0  0  0  0  0  0
    6.6240   -5.4770   22.3970 C   0  0  0  0  0  0  0  0  0  0  0  0
    5.7500   -4.9730   23.5510 C   0  0  0  0  0  0  0  0  0  0  0  0
    6.5450   -3.9340   24.2710 C   0  0  0  0  0  0  0  0  0  0  0  0
    5.8640   -3.3940   25.4850 C   0  0  0  0  0  0  0  0  0  0  0  0
    5.1030   -2.4380   25.3000 O   0  0  0  0  0  0  0  0  0  0  0  0
    6.0620   -3.9770   26.7470 N   0  0  0  0  0  0  0  0  0  0  0  0
    5.5480   -5.1890   27.1710 C   0  0  0  0  0  0  0  0  0  0  0  0
    5.8350   -5.6230   28.4250 C   0  0  0  0  0  0  0  0  0  0  0  0
    5.3640   -4.5940   29.3120 N   0  0  0  0  0  0  0  0  0  0  0  0
    4.1480   -4.6630   29.9900 C   0  0  0  0  0  0  0  0  0  0  0  0
    4.2490   -5.6350   30.9650 C   0  0  0  0  0  0  0  0  0  0  0  0
    5.3430   -6.6340   30.9460 C   0  0  0  0  0  0  0  0  0  0  0  0
    5.5190   -7.7250   31.9920 C   0  0  0  0  0  0  0  0  0  0  0  0
    4.4580   -7.7150   33.0890 C   0  0  0  0  0  0  0  0  0  0  0  0
    3.4520   -6.7620   33.0660 C   0  0  0  0  0  0  0  0  0  0  0  0
    2.2680   -6.8130   34.3560 Cl  0  0  0  0  0  0  0  0  0  0  0  0
    3.3410   -5.7180   32.0070 C   0  0  0  0  0  0  0  0  0  0  0  0
    1.9630   -4.6490   32.2450 Cl  0  0  0  0  0  0  0  0  0  0  0  0
    5.4720   -3.2890   28.7440 C   0  0  0  0  0  0  0  0  0  0  0  0
    6.5000   -3.1650   27.8680 C   0  0  0  0  0  0  0  0  0  0  0  0
    6.9670   -2.7750   23.4330 C   0  0  0  0  0  0  0  0  0  0  0  0
    7.6790   -3.2510   22.1920 C   0  0  0  0  0  0  0  0  0  0  0  0
  1  2  1  0
  2  3  2  0
  2  4  1  0
  4  5  1  0
  5  6  1  0
  6  7  1  0
  7  8  1  0
  8  9  2  0
  8 10  1  0
 10 11  1  0
 11 12  1  0
 12 13  1  0
 13 14  1  0
 14 15  1  0
 15 16  2  0
 16 17  1  0
 17 18  2  0
 18 19  1  0
 19 20  1  0
 15 21  1  0
 19 21  2  0
 21 22  1  0
 13 23  1  0
 10 24  1  0
 23 24  1  0
  7 25  1  0
  4 26  1  0
 25 26  1  0
M  END
