piperidine-amides-10264-covalent
     RDKit          3D

 25 27  0  0  0  0  0  0  0  0999 V2000
    7.0590   -3.3420   19.3200 C   0  0  0  0  0  0  0  0  0  0  0  0
    6.4010   -4.1900   20.3170 C   0  0  0  0  0  0  0  0  0  0  0  0
    5.3440   -4.7690   19.9550 O   0  0  0  0  0  0  0  0  0  0  0  0
    6.9660   -4.3740   21.5790 N   0  0  0  0  0  0  0  0  0  0  0  0
    6.6260   -5.5050   22.4000 C   0  0  0  0  0  0  0  0  0  0  0  0
    5.8680   -4.9910   23.5930 C   0  0  0  0  0  0  0  0  0  0  0  0
    6.5540   -3.8140   24.2450 C   0  0  0  0  0  0  0  0  0  0  0  0
    5.7680   -3.3260   25.3940 C   0  0  0  0  0  0  0  0  0  0  0  0
    4.5510   -3.0960   25.2210 O   0  0  0  0  0  0  0  0  0  0  0  0
    6.3200   -3.1060   26.6660 N   0  0  0  0  0  0  0  0  0  0  0  0
    6.3640   -1.7910   27.2480 C   0  0  0  0  0  0  0  0  0  0  0  0
    7.0760   -1.5250   28.5680 C   0  0  0  0  0  0  0  0  0  0  0  0
    7.1580   -0.2890   29.1870 C   0  0  0  0  0  0  0  0  0  0  0  0
    6.5910    0.8750   28.6680 C   0  0  0  0  0  0  0  0  0  0  0  0
    6.6770    2.0780   29.2720 N   0  0  0  0  0  0  0  0  0  0  0  0
    5.8580    2.4750   30.2430 C   0  0  0  0  0  0  0  0  0  0  0  0
    5.3190    3.7340   30.0230 C   0  0  0  0  0  0  0  0  0  0  0  0
    6.1320    4.6050   29.3270 C   0  0  0  0  0  0  0  0  0  0  0  0
    7.0720    3.4820   28.4380 S   0  0  0  0  0  0  0  0  0  0  0  0
    6.6250    3.4060   27.0220 O   0  0  0  0  0  0  0  0  0  0  0  0
    8.5160    3.7600   28.6520 O   0  0  0  0  0  0  0  0  0  0  0  0
    5.8440    0.8240   27.3750 C   0  0  0  0  0  0  0  0  0  0  0  0
    5.7950   -0.5510   26.7560 C   0  0  0  0  0  0  0  0  0  0  0  0
    6.8130   -2.6900   23.2390 C   0  0  0  0  0  0  0  0  0  0  0  0
    7.7290   -3.2990   22.2050 C   0  0  0  0  0  0  0  0  0  0  0  0
  1  2  1  0
  2  3  2  0
  2  4  1  0
  4  5  1  0
  5  6  1  0
  6  7  1  0
  7  8  1  0
  8  9  2  0
  8 10  1  0
 10 11  1  0
 11 12  2  0
 12 13  1  0
 13 14  2  0
 14 15  1  0
 15 16  1  0
 16 17  1  0
 17 18  1  0
 19 15  1  0
 18 19  1  0
 19 20  2  0
 19 21  2  0
 14 22  1  0
 11 23  1  0
 22 23  2  0
  7 24  1  0
  4 25  1  0
 24 25  1  0
M  END
