piperidine-amides-30529-covalent
     RDKit          3D

 26 28  0  0  0  0  0  0  0  0999 V2000
    7.0560   -3.3490   19.3330 C   0  0  0  0  0  0  0  0  0  0  0  0
    6.3890   -4.2020   20.3180 C   0  0  0  0  0  0  0  0  0  0  0  0
    5.3700   -4.8230   19.9750 O   0  0  0  0  0  0  0  0  0  0  0  0
    6.8980   -4.3860   21.6190 N   0  0  0  0  0  0  0  0  0  0  0  0
    6.6310   -5.5700   22.3910 C   0  0  0  0  0  0  0  0  0  0  0  0
    5.8020   -5.1040   23.5620 C   0  0  0  0  0  0  0  0  0  0  0  0
    6.3840   -3.8990   24.2480 C   0  0  0  0  0  0  0  0  0  0  0  0
    5.4340   -3.3030   25.2320 C   0  0  0  0  0  0  0  0  0  0  0  0
    4.6040   -2.4380   24.8390 O   0  0  0  0  0  0  0  0  0  0  0  0
    5.3610   -3.6260   26.6080 N   0  0  0  0  0  0  0  0  0  0  0  0
    4.1200   -3.4130   27.3330 C   0  0  0  0  0  0  0  0  0  0  0  0
    4.4710   -3.5430   28.7590 C   0  0  0  0  0  0  0  0  0  0  0  0
    5.0140   -4.7490   28.9370 N   0  0  0  0  0  0  0  0  0  0  0  0
    4.7210   -5.5120   30.0920 C   0  0  0  0  0  0  0  0  0  0  0  0
    3.8640   -5.0410   31.0270 N   0  0  0  0  0  0  0  0  0  0  0  0
    3.7170   -5.9070   32.0490 C   0  0  0  0  0  0  0  0  0  0  0  0
    2.7190   -5.7590   33.5120 Cl  0  0  0  0  0  0  0  0  0  0  0  0
    4.6070   -7.0190   31.6410 C   0  0  0  0  0  0  0  0  0  0  0  0
    4.6470   -8.1430   32.6110 C   0  0  0  0  0  0  0  0  0  0  0  0
    3.5100   -8.4590   33.2660 N   0  0  0  0  0  0  0  0  0  0  0  0
    5.2050   -6.7420   30.4230 N   0  0  0  0  0  0  0  0  0  0  0  0
    6.0670   -7.5580   29.7650 C   0  0  0  0  0  0  0  0  0  0  0  0
    6.4090   -4.7190   28.4740 C   0  0  0  0  0  0  0  0  0  0  0  0
    6.3700   -3.5140   27.5330 C   0  0  0  0  0  0  0  0  0  0  0  0
    6.8390   -2.7880   23.3380 C   0  0  0  0  0  0  0  0  0  0  0  0
    7.7120   -3.3760   22.2630 C   0  0  0  0  0  0  0  0  0  0  0  0
  1  2  1  0
  2  3  2  0
  2  4  1  0
  4  5  1  0
  5  6  1  0
  6  7  1  0
  7  8  1  0
  8  9  2  0
  8 10  1  0
 10 11  1  0
 11 12  1  0
 12 13  1  0
 13 14  1  0
 14 15  2  0
 15 16  1  0
 16 17  1  0
 16 18  2  0
 18 19  1  0
 19 20  3  0
 14 21  1  0
 18 21  1  0
 21 22  1  0
 13 23  1  0
 10 24  1  0
 23 24  1  0
  7 25  1  0
  4 26  1  0
 25 26  1  0
M  END
