piperidine-amides-10402-covalent
     RDKit          3D

 25 26  0  0  0  0  0  0  0  0999 V2000
    7.0800   -3.2610   19.2130 C   0  0  0  0  0  0  0  0  0  0  0  0
    6.3220   -4.0030   20.2290 C   0  0  0  0  0  0  0  0  0  0  0  0
    5.2410   -4.5200   19.8610 O   0  0  0  0  0  0  0  0  0  0  0  0
    6.8160   -4.1580   21.5220 N   0  0  0  0  0  0  0  0  0  0  0  0
    7.6900   -3.1650   22.1110 C   0  0  0  0  0  0  0  0  0  0  0  0
    7.1100   -2.7330   23.4220 C   0  0  0  0  0  0  0  0  0  0  0  0
    6.6550   -3.9150   24.2290 C   0  0  0  0  0  0  0  0  0  0  0  0
    5.8520   -3.4400   25.3760 C   0  0  0  0  0  0  0  0  0  0  0  0
    4.6330   -3.2240   25.2020 O   0  0  0  0  0  0  0  0  0  0  0  0
    6.4050   -3.2050   26.6520 N   0  0  0  0  0  0  0  0  0  0  0  0
    7.2730   -4.1680   27.2810 C   0  0  2  0  0  0  0  0  0  0  0  0
    8.4630   -4.4460   26.3750 C   0  0  0  0  0  0  0  0  0  0  0  0
    9.5950   -4.4730   26.8690 O   0  0  0  0  0  0  0  0  0  0  0  0
    9.5270   -5.1150   28.0640 C   0  0  0  0  0  0  0  0  0  0  0  0
    6.5260   -5.4500   27.6340 C   0  0  0  0  0  0  0  0  0  0  0  0
    5.5700   -5.2650   28.6380 C   0  0  0  0  0  0  0  0  0  0  0  0
    4.7310   -4.1560   28.6880 C   0  0  0  0  0  0  0  0  0  0  0  0
    3.7610   -3.9080   29.6490 C   0  0  0  0  0  0  0  0  0  0  0  0
    3.4330   -4.8070   30.8300 C   0  0  0  0  0  0  0  0  0  0  0  0
    2.4880   -4.5700   31.7700 F   0  0  0  0  0  0  0  0  0  0  0  0
    4.3870   -5.9960   30.7160 C   0  0  0  0  0  0  0  0  0  0  0  0
    5.4190   -6.1990   29.6380 C   0  0  0  0  0  0  0  0  0  0  0  0
    6.1640   -7.3680   29.7600 F   0  0  0  0  0  0  0  0  0  0  0  0
    5.8070   -4.8510   23.4090 C   0  0  0  0  0  0  0  0  0  0  0  0
    6.5050   -5.3440   22.3260 C   0  0  0  0  0  0  0  0  0  0  0  0
  1  2  1  0
  2  3  2  0
  2  4  1  0
  4  5  1  0
  5  6  1  0
  6  7  1  0
  7  8  1  0
  8  9  2  0
  8 10  1  0
 10 11  1  0
 11 12  1  6
 12 13  1  0
 13 14  1  0
 11 15  1  0
 15 16  1  0
 16 17  2  0
 17 18  1  0
 18 19  2  0
 19 20  1  0
 19 21  1  0
 16 22  1  0
 21 22  2  0
 22 23  1  0
  7 24  1  0
  4 25  1  0
 24 25  1  0
M  END
