piperidine-amides-3799-covalent
     RDKit          3D

 25 26  0  0  0  0  0  0  0  0999 V2000
    7.0600   -3.3010   19.2830 C   0  0  0  0  0  0  0  0  0  0  0  0
    6.3520   -4.0840   20.3160 C   0  0  0  0  0  0  0  0  0  0  0  0
    5.3180   -4.6840   19.9360 O   0  0  0  0  0  0  0  0  0  0  0  0
    6.8210   -4.2140   21.6600 N   0  0  0  0  0  0  0  0  0  0  0  0
    7.6350   -3.1830   22.2220 C   0  0  0  0  0  0  0  0  0  0  0  0
    7.2890   -2.9210   23.6010 C   0  0  0  0  0  0  0  0  0  0  0  0
    6.0880   -3.6750   23.9860 C   0  0  0  0  0  0  0  0  0  0  0  0
    5.6080   -3.3510   25.3800 C   0  0  0  0  0  0  0  0  0  0  0  0
    4.6870   -2.5180   25.4910 O   0  0  0  0  0  0  0  0  0  0  0  0
    6.1290   -3.9230   26.5720 N   0  0  0  0  0  0  0  0  0  0  0  0
    5.8770   -5.2080   27.1560 C   0  0  2  0  0  0  0  0  0  0  0  0
    4.7130   -5.9920   26.8260 C   0  0  0  0  0  0  0  0  0  0  0  0
    3.4010   -5.2720   27.2050 C   0  0  0  0  0  0  0  0  0  0  0  0
    3.5460   -3.9180   27.0000 O   0  0  0  0  0  0  0  0  0  0  0  0
    2.3400   -5.7830   27.6270 O   0  0  0  0  0  0  0  0  0  0  0  0
    2.1940   -7.0070   28.1440 C   0  0  0  0  0  0  0  0  0  0  0  0
    5.8680   -5.1040   28.6930 C   0  0  0  0  0  0  0  0  0  0  0  0
    5.0250   -6.1630   29.3620 C   0  0  0  0  0  0  0  0  0  0  0  0
    4.2000   -5.0330   29.9930 C   0  0  0  0  0  0  0  0  0  0  0  0
    3.5130   -5.2510   31.3240 C   0  0  0  0  0  0  0  0  0  0  0  0
    4.1910   -6.3490   32.1390 C   0  0  0  0  0  0  0  0  0  0  0  0
    4.7050   -7.5720   31.3630 C   0  0  0  0  0  0  0  0  0  0  0  0
    5.5460   -7.0960   30.2310 C   0  0  0  0  0  0  0  0  0  0  0  0
    6.2020   -5.1480   23.7100 C   0  0  0  0  0  0  0  0  0  0  0  0
    6.5920   -5.4360   22.3950 C   0  0  0  0  0  0  0  0  0  0  0  0
  1  2  1  0
  2  3  2  0
  2  4  1  0
  4  5  1  0
  5  6  1  0
  6  7  1  0
  7  8  1  0
  8  9  2  0
  8 10  1  0
 10 11  1  0
 11 12  1  6
 12 13  1  0
 13 14  2  0
 13 15  1  0
 15 16  1  0
 11 17  1  0
 17 18  1  0
 18 19  1  0
 19 20  1  0
 20 21  1  0
 21 22  1  0
 18 23  1  0
 22 23  1  0
  7 24  1  0
  4 25  1  0
 24 25  1  0
M  END
