piperidine-amides-29980-covalent
     RDKit          3D

 27 29  0  0  0  0  0  0  0  0999 V2000
    7.0510   -3.3630   19.3220 C   0  0  0  0  0  0  0  0  0  0  0  0
    6.3640   -4.2000   20.2960 C   0  0  0  0  0  0  0  0  0  0  0  0
    5.3430   -4.8020   19.9690 O   0  0  0  0  0  0  0  0  0  0  0  0
    6.9080   -4.3790   21.6140 N   0  0  0  0  0  0  0  0  0  0  0  0
    7.6610   -3.3290   22.2460 C   0  0  0  0  0  0  0  0  0  0  0  0
    6.9250   -2.8440   23.4570 C   0  0  0  0  0  0  0  0  0  0  0  0
    6.7230   -4.0320   24.3830 C   0  0  0  0  0  0  0  0  0  0  0  0
    5.9020   -3.5900   25.5430 C   0  0  0  0  0  0  0  0  0  0  0  0
    4.8150   -3.0000   25.3910 O   0  0  0  0  0  0  0  0  0  0  0  0
    6.3610   -3.8560   26.8560 N   0  0  0  0  0  0  0  0  0  0  0  0
    5.7230   -3.1550   27.9430 C   0  0  0  0  0  0  0  0  0  0  0  0
    5.4450   -4.2090   28.9820 C   0  0  0  0  0  0  0  0  0  0  0  0
    5.3210   -5.5040   28.6580 N   0  0  0  0  0  0  0  0  0  0  0  0
    5.4940   -6.2670   29.7480 C   0  0  0  0  0  0  0  0  0  0  0  0
    6.5860   -6.5230   30.2700 O   0  0  0  0  0  0  0  0  0  0  0  0
    4.4990   -6.9270   30.4690 C   0  0  0  0  0  0  0  0  0  0  0  0
    4.6760   -7.4220   31.7640 C   0  0  0  0  0  0  0  0  0  0  0  0
    3.6260   -8.1130   32.4980 C   0  0  0  0  0  0  0  0  0  0  0  0
    2.4040   -8.3110   31.9490 C   0  0  0  0  0  0  0  0  0  0  0  0
    2.1080   -7.8740   30.6940 C   0  0  0  0  0  0  0  0  0  0  0  0
    0.9820   -8.0490   30.1700 O   0  0  0  0  0  0  0  0  0  0  0  0
    0.8650   -9.3530   29.7560 C   0  0  0  0  0  0  0  0  0  0  0  0
    3.2010   -7.1840   29.9940 C   0  0  0  0  0  0  0  0  0  0  0  0
    6.2080   -5.9590   27.6600 C   0  0  0  0  0  0  0  0  0  0  0  0
    7.1220   -5.0100   27.2960 C   0  0  0  0  0  0  0  0  0  0  0  0
    5.9460   -5.1180   23.6720 C   0  0  0  0  0  0  0  0  0  0  0  0
    6.6370   -5.5680   22.3760 C   0  0  0  0  0  0  0  0  0  0  0  0
  1  2  1  0
  2  3  2  0
  2  4  1  0
  4  5  1  0
  5  6  1  0
  6  7  1  0
  7  8  1  0
  8  9  2  0
  8 10  1  0
 10 11  1  0
 11 12  1  0
 12 13  1  0
 13 14  1  0
 14 15  2  0
 14 16  1  0
 16 17  2  0
 17 18  1  0
 18 19  2  0
 19 20  1  0
 20 21  1  0
 21 22  1  0
 16 23  1  0
 20 23  2  0
 13 24  1  0
 10 25  1  0
 24 25  1  0
  7 26  1  0
  4 27  1  0
 26 27  1  0
M  END
