piperidine-amides-27918-covalent
     RDKit          3D

 26 29  0  0  0  0  0  0  0  0999 V2000
    7.0880   -3.3790   19.3140 C   0  0  0  0  0  0  0  0  0  0  0  0
    6.4150   -4.2060   20.3440 C   0  0  0  0  0  0  0  0  0  0  0  0
    5.3950   -4.8190   19.9800 O   0  0  0  0  0  0  0  0  0  0  0  0
    6.9530   -4.3220   21.6370 N   0  0  0  0  0  0  0  0  0  0  0  0
    6.6830   -5.4940   22.4160 C   0  0  0  0  0  0  0  0  0  0  0  0
    6.1780   -5.1740   23.7470 C   0  0  0  0  0  0  0  0  0  0  0  0
    6.1140   -3.7180   23.9620 C   0  0  0  0  0  0  0  0  0  0  0  0
    5.5380   -3.3300   25.2780 C   0  0  0  0  0  0  0  0  0  0  0  0
    4.5440   -2.5870   25.2540 O   0  0  0  0  0  0  0  0  0  0  0  0
    6.0340   -3.7510   26.5170 N   0  0  0  0  0  0  0  0  0  0  0  0
    5.9670   -2.8460   27.6600 C   0  0  0  0  0  0  0  0  0  0  0  0
    6.4100   -3.5630   28.8710 C   0  0  0  0  0  0  0  0  0  0  0  0
    6.1470   -4.9900   29.0550 C   0  0  0  0  0  0  0  0  0  0  0  0
    4.7290   -4.9800   29.3620 N   0  0  0  0  0  0  0  0  0  0  0  0
    3.6140   -4.1800   28.9150 C   0  0  0  0  0  0  0  0  0  0  0  0
    2.5190   -4.6500   29.5770 N   0  0  0  0  0  0  0  0  0  0  0  0
    2.9290   -5.6430   30.3520 C   0  0  0  0  0  0  0  0  0  0  0  0
    4.2370   -5.8820   30.2610 C   0  0  0  0  0  0  0  0  0  0  0  0
    4.9800   -6.8180   30.9090 C   0  0  0  0  0  0  0  0  0  0  0  0
    4.1620   -7.6700   31.6150 C   0  0  0  0  0  0  0  0  0  0  0  0
    3.0760   -7.0010   32.2070 C   0  0  0  0  0  0  0  0  0  0  0  0
    2.1720   -6.4050   31.1930 C   0  0  0  0  0  0  0  0  0  0  0  0
    6.2460   -5.8750   27.9950 C   0  0  0  0  0  0  0  0  0  0  0  0
    5.8140   -5.1490   26.7540 C   0  0  0  0  0  0  0  0  0  0  0  0
    7.3380   -2.9970   23.6230 C   0  0  0  0  0  0  0  0  0  0  0  0
    7.8010   -3.2740   22.2100 C   0  0  0  0  0  0  0  0  0  0  0  0
  1  2  1  0
  2  3  2  0
  2  4  1  0
  4  5  1  0
  5  6  1  0
  6  7  1  0
  7  8  1  0
  8  9  2  0
  8 10  1  0
 10 11  1  0
 11 12  1  0
 12 13  1  0
 13 14  1  0
 14 15  1  0
 15 16  2  0
 16 17  1  0
 14 18  1  0
 17 18  2  0
 18 19  1  0
 19 20  1  0
 20 21  1  0
 17 22  1  0
 21 22  1  0
 13 23  1  0
 10 24  1  0
 23 24  1  0
  7 25  1  0
  4 26  1  0
 25 26  1  0
M  END
