piperidine-amides-15285-covalent
     RDKit          3D

 18 18  0  0  0  0  0  0  0  0999 V2000
    7.1230   -3.2240   19.1660 C   0  0  0  0  0  0  0  0  0  0  0  0
    6.3800   -4.0130   20.1620 C   0  0  0  0  0  0  0  0  0  0  0  0
    5.2840   -4.5360   19.8720 O   0  0  0  0  0  0  0  0  0  0  0  0
    6.9270   -4.2380   21.4200 N   0  0  0  0  0  0  0  0  0  0  0  0
    7.7120   -3.2050   22.0600 C   0  0  0  0  0  0  0  0  0  0  0  0
    6.8250   -2.6230   23.1550 C   0  0  0  0  0  0  0  0  0  0  0  0
    6.6160   -3.7540   24.1250 C   0  0  0  0  0  0  0  0  0  0  0  0
    5.8660   -3.2510   25.2830 C   0  0  0  0  0  0  0  0  0  0  0  0
    4.7060   -2.8200   25.1010 O   0  0  0  0  0  0  0  0  0  0  0  0
    6.4640   -3.2760   26.5570 N   0  0  0  0  0  0  0  0  0  0  0  0
    5.7720   -3.9390   27.6160 C   0  0  1  0  0  0  0  0  0  0  0  0
    4.9620   -5.0550   27.0140 C   0  0  0  0  0  0  0  0  0  0  0  0
    5.5550   -6.1130   26.4130 C   0  0  0  0  0  0  0  0  0  0  0  0
    6.5390   -4.3860   28.7560 C   0  0  0  0  0  0  0  0  0  0  0  0
    6.1480   -5.6070   29.3030 C   0  0  0  0  0  0  0  0  0  0  0  0
    6.9850   -6.5190   28.7960 N   0  0  0  0  0  0  0  0  0  0  0  0
    5.9320   -4.9370   23.5350 C   0  0  0  0  0  0  0  0  0  0  0  0
    6.5050   -5.3570   22.2110 C   0  0  0  0  0  0  0  0  0  0  0  0
  1  2  1  0
  2  3  2  0
  2  4  1  0
  4  5  1  0
  5  6  1  0
  6  7  1  0
  7  8  1  0
  8  9  2  0
  8 10  1  0
 10 11  1  0
 11 12  1  6
 12 13  1  0
 11 14  1  0
 14 15  1  0
 15 16  3  0
  7 17  1  0
  4 18  1  0
 17 18  1  0
M  END
