piperidine-amides-31773-covalent
     RDKit          3D

 28 31  0  0  0  0  0  0  0  0999 V2000
    7.0840   -3.3870   19.2900 C   0  0  0  0  0  0  0  0  0  0  0  0
    6.3530   -4.0920   20.3140 C   0  0  0  0  0  0  0  0  0  0  0  0
    5.3180   -4.7290   19.9510 O   0  0  0  0  0  0  0  0  0  0  0  0
    6.7670   -4.1500   21.6590 N   0  0  0  0  0  0  0  0  0  0  0  0
    6.5010   -5.3870   22.4000 C   0  0  0  0  0  0  0  0  0  0  0  0
    5.5720   -4.7690   23.5130 C   0  0  0  0  0  0  0  0  0  0  0  0
    6.3610   -3.6670   24.2290 C   0  0  0  0  0  0  0  0  0  0  0  0
    5.3430   -2.8730   25.1750 C   0  0  0  0  0  0  0  0  0  0  0  0
    4.6390   -2.1960   24.4540 O   0  0  0  0  0  0  0  0  0  0  0  0
    5.4140   -3.0770   26.4480 N   0  0  0  0  0  0  0  0  0  0  0  0
    5.0480   -3.0270   27.7310 C   0  0  0  0  0  0  0  0  0  0  0  0
    5.1980   -3.9730   28.6430 C   0  0  0  0  0  0  0  0  0  0  0  0
    5.8240   -5.0000   27.9240 C   0  0  2  0  0  0  0  0  0  0  0  0
    6.6070   -5.9370   28.7570 C   0  0  0  0  0  0  0  0  0  0  0  0
    5.3640   -6.7740   28.6430 C   0  0  0  0  0  0  0  0  0  0  0  0
    5.4710   -6.2360   29.8730 C   0  0  0  0  0  0  0  0  0  0  0  0
    6.4480   -3.8880   27.0510 C   0  0  1  0  0  0  0  0  0  0  0  0
    6.9220   -4.8480   25.9960 C   0  0  0  0  0  0  0  0  0  0  0  0
    6.9300   -5.6310   25.1430 N   0  0  0  0  0  0  0  0  0  0  0  0
    8.1120   -5.9980   24.6990 N   0  0  0  0  0  0  0  0  0  0  0  0
    9.0190   -5.3080   25.5530 C   0  0  0  0  0  0  0  0  0  0  0  0
   10.2570   -5.3170   25.6680 O   0  0  0  0  0  0  0  0  0  0  0  0
    8.1600   -4.5390   26.3210 N   0  0  0  0  0  0  0  0  0  0  0  0
    8.1740   -4.8580   27.5700 C   0  0  0  0  0  0  0  0  0  0  0  0
    9.0720   -5.7730   27.9520 C   0  0  0  0  0  0  0  0  0  0  0  0
    8.3700   -3.6030   28.3530 C   0  0  0  0  0  0  0  0  0  0  0  0
    7.1820   -2.7040   23.4080 C   0  0  0  0  0  0  0  0  0  0  0  0
    7.7080   -3.2340   22.2290 C   0  0  0  0  0  0  0  0  0  0  0  0
  1  2  1  0
  2  3  2  0
  2  4  1  0
  4  5  1  0
  5  6  1  0
  6  7  1  0
  7  8  1  0
  8  9  2  0
  8 10  1  0
 10 11  1  0
 11 12  1  0
 12 13  1  0
 13 14  1  1
 14 15  1  0
 14 16  1  0
 15 16  1  0
 10 17  1  0
 13 17  1  0
 17 18  1  6
 18 19  2  0
 19 20  1  0
 20 21  1  0
 21 22  2  0
 18 23  1  0
 21 23  1  0
 23 24  1  0
 24 25  1  0
 24 26  1  0
  7 27  1  0
  4 28  1  0
 27 28  1  0
M  END
