piperidine-amides-3229-covalent
     RDKit          3D

 22 23  0  0  0  0  0  0  0  0999 V2000
    7.1190   -3.2900   19.2590 C   0  0  0  0  0  0  0  0  0  0  0  0
    6.3910   -4.0870   20.2400 C   0  0  0  0  0  0  0  0  0  0  0  0
    5.3410   -4.6510   19.9260 O   0  0  0  0  0  0  0  0  0  0  0  0
    6.9310   -4.2600   21.5580 N   0  0  0  0  0  0  0  0  0  0  0  0
    7.6670   -3.1850   22.1630 C   0  0  0  0  0  0  0  0  0  0  0  0
    6.9440   -2.7130   23.3910 C   0  0  0  0  0  0  0  0  0  0  0  0
    6.4720   -3.9200   24.1900 C   0  0  0  0  0  0  0  0  0  0  0  0
    5.7130   -3.4520   25.3860 C   0  0  0  0  0  0  0  0  0  0  0  0
    4.5140   -3.1100   25.3290 O   0  0  0  0  0  0  0  0  0  0  0  0
    6.3940   -3.3770   26.6220 N   0  0  0  0  0  0  0  0  0  0  0  0
    5.7870   -3.9030   27.8290 C   0  0  0  0  0  0  0  0  0  0  0  0
    5.8060   -5.4250   27.8370 C   0  0  2  0  0  0  0  0  0  0  0  0
    6.6890   -6.0850   28.6550 C   0  0  0  0  0  0  0  0  0  0  0  0
    6.0940   -5.8810   26.5710 O   0  0  0  0  0  0  0  0  0  0  0  0
    4.4750   -5.8650   28.4820 C   0  0  0  0  0  0  0  0  0  0  0  0
    3.7190   -4.9800   29.1690 C   0  0  0  0  0  0  0  0  0  0  0  0
    2.5350   -5.6030   29.6830 N   0  0  0  0  0  0  0  0  0  0  0  0
    2.6840   -6.8790   29.2410 N   0  0  0  0  0  0  0  0  0  0  0  0
    1.7420   -7.8890   29.5120 C   0  0  0  0  0  0  0  0  0  0  0  0
    3.8330   -7.0340   28.5300 C   0  0  0  0  0  0  0  0  0  0  0  0
    5.5530   -4.7710   23.3140 C   0  0  0  0  0  0  0  0  0  0  0  0
    6.3780   -5.3410   22.3440 C   0  0  0  0  0  0  0  0  0  0  0  0
  1  2  1  0
  2  3  2  0
  2  4  1  0
  4  5  1  0
  5  6  1  0
  6  7  1  0
  7  8  1  0
  8  9  2  0
  8 10  1  0
 10 11  1  0
 11 12  1  0
 12 13  1  1
 12 14  1  0
 12 15  1  0
 15 16  1  0
 16 17  2  0
 17 18  1  0
 18 19  1  0
 15 20  2  0
 18 20  1  0
  7 21  1  0
  4 22  1  0
 21 22  1  0
M  END
