piperidine-amides-27735-covalent
     RDKit          3D

 26 28  0  0  0  0  0  0  0  0999 V2000
    7.0360   -3.3890   19.3370 C   0  0  0  0  0  0  0  0  0  0  0  0
    6.3660   -4.2040   20.3770 C   0  0  0  0  0  0  0  0  0  0  0  0
    5.3800   -4.8640   19.9900 O   0  0  0  0  0  0  0  0  0  0  0  0
    6.8540   -4.2590   21.7010 N   0  0  0  0  0  0  0  0  0  0  0  0
    6.5650   -5.3730   22.5410 C   0  0  0  0  0  0  0  0  0  0  0  0
    6.2280   -5.0390   23.9460 C   0  0  0  0  0  0  0  0  0  0  0  0
    6.4840   -3.6470   24.4340 C   0  0  0  0  0  0  0  0  0  0  0  0
    5.3230   -3.1810   25.2740 C   0  0  0  0  0  0  0  0  0  0  0  0
    4.2310   -3.0990   24.6980 O   0  0  0  0  0  0  0  0  0  0  0  0
    5.3650   -2.8410   26.6630 N   0  0  0  0  0  0  0  0  0  0  0  0
    4.1520   -2.7840   27.4480 C   0  0  0  0  0  0  0  0  0  0  0  0
    3.9990   -4.0610   28.1860 C   0  0  0  0  0  0  0  0  0  0  0  0
    5.0750   -4.7450   28.7860 N   0  0  0  0  0  0  0  0  0  0  0  0
    4.7290   -5.3240   30.0540 C   0  0  0  0  0  0  0  0  0  0  0  0
    4.0650   -4.6730   30.9270 O   0  0  0  0  0  0  0  0  0  0  0  0
    5.1780   -6.6150   30.1280 C   0  0  0  0  0  0  0  0  0  0  0  0
    4.6020   -7.3230   31.1640 C   0  0  0  0  0  0  0  0  0  0  0  0
    5.3130   -7.5570   32.3110 C   0  0  0  0  0  0  0  0  0  0  0  0
    4.7730   -8.2530   33.3700 C   0  0  0  0  0  0  0  0  0  0  0  0
    3.5030   -8.7620   33.3700 C   0  0  0  0  0  0  0  0  0  0  0  0
    2.7540   -8.5450   32.2260 C   0  0  0  0  0  0  0  0  0  0  0  0
    3.3220   -7.8040   31.0910 C   0  0  0  0  0  0  0  0  0  0  0  0
    6.3970   -4.5510   28.2760 C   0  0  0  0  0  0  0  0  0  0  0  0
    6.4630   -3.3430   27.3540 C   0  0  0  0  0  0  0  0  0  0  0  0
    6.8670   -2.6540   23.4140 C   0  0  0  0  0  0  0  0  0  0  0  0
    7.6770   -3.2210   22.2740 C   0  0  0  0  0  0  0  0  0  0  0  0
  1  2  1  0
  2  3  2  0
  2  4  1  0
  4  5  1  0
  5  6  1  0
  6  7  1  0
  7  8  1  0
  8  9  2  0
  8 10  1  0
 10 11  1  0
 11 12  1  0
 12 13  1  0
 13 14  1  0
 14 15  2  0
 14 16  1  0
 16 17  1  0
 17 18  2  0
 18 19  1  0
 19 20  2  0
 20 21  1  0
 17 22  1  0
 21 22  2  0
 13 23  1  0
 10 24  1  0
 23 24  1  0
  7 25  1  0
  4 26  1  0
 25 26  1  0
M  END
