piperidine-amides-21483-covalent
     RDKit          3D

 23 25  0  0  0  0  0  0  0  0999 V2000
    7.0600   -3.3460   19.3630 C   0  0  0  0  0  0  0  0  0  0  0  0
    6.3920   -4.1990   20.3480 C   0  0  0  0  0  0  0  0  0  0  0  0
    5.3440   -4.7780   19.9620 O   0  0  0  0  0  0  0  0  0  0  0  0
    6.9350   -4.3900   21.6230 N   0  0  0  0  0  0  0  0  0  0  0  0
    6.6140   -5.5490   22.4140 C   0  0  0  0  0  0  0  0  0  0  0  0
    5.8310   -5.0810   23.6120 C   0  0  0  0  0  0  0  0  0  0  0  0
    6.4820   -3.9100   24.3060 C   0  0  0  0  0  0  0  0  0  0  0  0
    5.6890   -3.4910   25.5070 C   0  0  0  0  0  0  0  0  0  0  0  0
    4.8520   -2.5770   25.3390 O   0  0  0  0  0  0  0  0  0  0  0  0
    5.7980   -4.0560   26.8210 N   0  0  0  0  0  0  0  0  0  0  0  0
    6.4930   -3.3970   27.8620 C   0  0  0  0  0  0  0  0  0  0  0  0
    7.0670   -4.5220   28.7420 C   0  0  0  0  0  0  0  0  0  0  0  0
    6.3860   -4.8550   29.7220 O   0  0  0  0  0  0  0  0  0  0  0  0
    5.1970   -4.3160   29.4310 C   0  0  0  0  0  0  0  0  0  0  0  0
    5.7200   -5.1100   28.3650 C   0  0  0  0  0  0  0  0  0  0  0  0
    5.2310   -5.4170   27.0610 C   0  0  0  0  0  0  0  0  0  0  0  0
    5.9440   -6.2380   26.2170 O   0  0  0  0  0  0  0  0  0  0  0  0
    4.0450   -4.9510   26.5130 C   0  0  0  0  0  0  0  0  0  0  0  0
    3.3730   -4.1750   27.3520 C   0  0  0  0  0  0  0  0  0  0  0  0
    4.1170   -4.0490   28.6270 C   0  0  0  0  0  0  0  0  0  0  0  0
    4.7690   -4.8300   27.4910 C   0  0  0  0  0  0  0  0  0  0  0  0
    6.7080   -2.7450   23.3310 C   0  0  0  0  0  0  0  0  0  0  0  0
    7.6570   -3.3120   22.2910 C   0  0  0  0  0  0  0  0  0  0  0  0
  1  2  1  0
  2  3  2  0
  2  4  1  0
  4  5  1  0
  5  6  1  0
  6  7  1  0
  7  8  1  0
  8  9  2  0
  8 10  1  0
 10 11  1  0
 11 12  1  0
 12 13  1  0
 13 14  1  0
 14 15  1  0
 15 16  2  0
 16 17  1  0
 16 18  1  0
 18 19  2  0
 14 20  2  0
 19 20  1  0
 10 21  1  0
 20 21  1  0
  7 22  1  0
  4 23  1  0
 22 23  1  0
M  END
