piperidine-amides-6511-covalent
     RDKit          3D

 25 26  0  0  0  0  0  0  0  0999 V2000
    7.1200   -3.2820   19.2650 C   0  0  0  0  0  0  0  0  0  0  0  0
    6.3940   -4.0920   20.2570 C   0  0  0  0  0  0  0  0  0  0  0  0
    5.3390   -4.6860   19.9380 O   0  0  0  0  0  0  0  0  0  0  0  0
    6.9090   -4.2510   21.5530 N   0  0  0  0  0  0  0  0  0  0  0  0
    7.7290   -3.2140   22.1400 C   0  0  0  0  0  0  0  0  0  0  0  0
    6.9230   -2.6480   23.3040 C   0  0  0  0  0  0  0  0  0  0  0  0
    6.5320   -3.8360   24.1480 C   0  0  0  0  0  0  0  0  0  0  0  0
    5.7700   -3.3780   25.3220 C   0  0  0  0  0  0  0  0  0  0  0  0
    4.5230   -3.4190   25.2750 O   0  0  0  0  0  0  0  0  0  0  0  0
    6.4600   -2.9050   26.4590 N   0  0  0  0  0  0  0  0  0  0  0  0
    6.6510   -1.4970   26.6480 C   0  0  0  0  0  0  0  0  0  0  0  0
    5.7320   -1.0660   27.7620 C   0  0  0  0  0  0  0  0  0  0  0  0
    5.8340   -1.6680   28.9980 C   0  0  0  0  0  0  0  0  0  0  0  0
    5.0290   -1.3260   30.0600 C   0  0  0  0  0  0  0  0  0  0  0  0
    4.0510   -0.3480   29.9610 C   0  0  0  0  0  0  0  0  0  0  0  0
    3.3590   -0.1510   31.0950 N   0  0  0  0  0  0  0  0  0  0  0  0
    4.1800   -0.4230   32.5260 S   0  0  0  0  0  0  0  0  0  0  0  0
    3.5080    0.3590   33.6220 O   0  0  0  0  0  0  0  0  0  0  0  0
    4.1660   -1.8990   32.8340 O   0  0  0  0  0  0  0  0  0  0  0  0
    5.8440    0.1660   32.3560 C   0  0  0  0  0  0  0  0  0  0  0  0
    5.8060    1.5520   31.7440 C   0  0  0  0  0  0  0  0  0  0  0  0
    3.9160    0.3190   28.6440 C   0  0  0  0  0  0  0  0  0  0  0  0
    4.8070   -0.0770   27.5230 C   0  0  0  0  0  0  0  0  0  0  0  0
    5.6980   -4.8240   23.3620 C   0  0  0  0  0  0  0  0  0  0  0  0
    6.5330   -5.3690   22.3780 C   0  0  0  0  0  0  0  0  0  0  0  0
  1  2  1  0
  2  3  2  0
  2  4  1  0
  4  5  1  0
  5  6  1  0
  6  7  1  0
  7  8  1  0
  8  9  2  0
  8 10  1  0
 10 11  1  0
 11 12  1  0
 12 13  2  0
 13 14  1  0
 14 15  2  0
 15 16  1  0
 17 16  1  0
 17 18  2  0
 17 19  2  0
 17 20  1  0
 20 21  1  0
 15 22  1  0
 12 23  1  0
 22 23  2  0
  7 24  1  0
  4 25  1  0
 24 25  1  0
M  END
