piperidine-amides-13116-covalent
     RDKit          3D

 23 25  0  0  0  0  0  0  0  0999 V2000
    7.0820   -3.3240   19.1930 C   0  0  0  0  0  0  0  0  0  0  0  0
    6.3120   -4.0650   20.2120 C   0  0  0  0  0  0  0  0  0  0  0  0
    5.2220   -4.5360   19.8620 O   0  0  0  0  0  0  0  0  0  0  0  0
    6.8220   -4.2790   21.4900 N   0  0  0  0  0  0  0  0  0  0  0  0
    7.6260   -3.2710   22.1100 C   0  0  0  0  0  0  0  0  0  0  0  0
    7.2510   -2.8970   23.4650 C   0  0  0  0  0  0  0  0  0  0  0  0
    6.5140   -3.9150   24.2350 C   0  0  0  0  0  0  0  0  0  0  0  0
    5.9340   -3.2380   25.4110 C   0  0  0  0  0  0  0  0  0  0  0  0
    4.7190   -3.3680   25.6720 O   0  0  0  0  0  0  0  0  0  0  0  0
    6.8040   -2.4470   26.1840 N   0  0  0  0  0  0  0  0  0  0  0  0
    6.3900   -1.2630   26.9820 C   0  0  0  0  0  0  0  0  0  0  0  0
    5.4710   -0.3530   26.2470 C   0  0  0  0  0  0  0  0  0  0  0  0
    4.9290    0.8550   26.7500 C   0  0  0  0  0  0  0  0  0  0  0  0
    5.4470    0.9680   28.0540 N   0  0  0  0  0  0  0  0  0  0  0  0
    6.3290    0.1540   28.8460 C   0  0  0  0  0  0  0  0  0  0  0  0
    6.4040    0.9830   30.1810 C   0  0  0  0  0  0  0  0  0  0  0  0
    7.2220    0.1060   30.7220 C   0  0  0  0  0  0  0  0  0  0  0  0
    6.7280    0.0490   29.5910 C   0  0  0  0  0  0  0  0  0  0  0  0
    6.3990   -0.7020   27.8780 Br  0  0  0  0  0  0  0  0  0  0  0  0
    7.3800   -0.9760   29.5530 C   0  0  0  0  0  0  0  0  0  0  0  0
    7.0110   -1.2340   28.3820 C   0  0  0  0  0  0  0  0  0  0  0  0
    5.5760   -4.7570   23.4800 C   0  0  0  0  0  0  0  0  0  0  0  0
    6.3230   -5.3590   22.3250 C   0  0  0  0  0  0  0  0  0  0  0  0
  1  2  1  0
  2  3  2  0
  2  4  1  0
  4  5  1  0
  5  6  1  0
  6  7  1  0
  7  8  1  0
  8  9  2  0
  8 10  1  0
 10 11  1  0
 11 12  2  0
 12 13  1  0
 13 14  2  0
 14 15  1  0
 15 16  1  0
 16 17  2  0
 17 18  1  0
 18 19  1  0
 18 20  2  0
 11 21  1  0
 15 21  2  0
 20 21  1  0
  7 22  1  0
  4 23  1  0
 22 23  1  0
M  END
