piperidine-amides-32486-covalent
     RDKit          3D

 26 28  0  0  0  0  0  0  0  0999 V2000
    7.0860   -3.3490   19.3810 C   0  0  0  0  0  0  0  0  0  0  0  0
    6.4010   -4.2430   20.3500 C   0  0  0  0  0  0  0  0  0  0  0  0
    5.3760   -4.8490   19.9850 O   0  0  0  0  0  0  0  0  0  0  0  0
    6.9590   -4.4210   21.6370 N   0  0  0  0  0  0  0  0  0  0  0  0
    6.6640   -5.5810   22.4290 C   0  0  0  0  0  0  0  0  0  0  0  0
    5.7760   -5.1110   23.5880 C   0  0  0  0  0  0  0  0  0  0  0  0
    6.4510   -3.9820   24.3160 C   0  0  0  0  0  0  0  0  0  0  0  0
    5.5900   -3.4950   25.4180 C   0  0  0  0  0  0  0  0  0  0  0  0
    4.7750   -2.6170   25.1240 O   0  0  0  0  0  0  0  0  0  0  0  0
    5.7070   -4.0200   26.7090 N   0  0  0  0  0  0  0  0  0  0  0  0
    6.8710   -4.4290   27.2840 C   0  0  0  0  0  0  0  0  0  0  0  0
    6.6530   -5.2840   28.2550 C   0  0  0  0  0  0  0  0  0  0  0  0
    5.3170   -5.0530   28.5330 C   0  0  0  0  0  0  0  0  0  0  0  0
    4.7580   -4.0080   27.7640 C   0  0  1  0  0  0  0  0  0  0  0  0
    4.5200   -2.7690   28.5530 C   0  0  0  0  0  0  0  0  0  0  0  0
    3.5100   -4.3000   27.2340 C   0  0  0  0  0  0  0  0  0  0  0  0
    2.3300   -4.3110   28.2030 C   0  0  0  0  0  0  0  0  0  0  0  0
    1.6180   -3.2130   28.3940 C   0  0  0  0  0  0  0  0  0  0  0  0
    0.4860   -3.0760   29.2760 C   0  0  0  0  0  0  0  0  0  0  0  0
    0.1910   -4.4060   29.9930 C   0  0  0  0  0  0  0  0  0  0  0  0
   -1.1820   -4.2870   31.0810 Cl  0  0  0  0  0  0  0  0  0  0  0  0
    0.7830   -5.7010   29.9680 C   0  0  0  0  0  0  0  0  0  0  0  0
    0.3470   -7.1490   30.8420 Cl  0  0  0  0  0  0  0  0  0  0  0  0
    1.9170   -5.3860   28.9250 C   0  0  0  0  0  0  0  0  0  0  0  0
    6.8620   -2.8300   23.4480 C   0  0  0  0  0  0  0  0  0  0  0  0
    7.6980   -3.3640   22.2930 C   0  0  0  0  0  0  0  0  0  0  0  0
  1  2  1  0
  2  3  2  0
  2  4  1  0
  4  5  1  0
  5  6  1  0
  6  7  1  0
  7  8  1  0
  8  9  2  0
  8 10  1  0
 10 11  1  0
 11 12  1  0
 12 13  1  0
 10 14  1  0
 13 14  1  0
 14 15  1  1
 14 16  1  0
 16 17  1  0
 17 18  2  0
 18 19  1  0
 19 20  2  0
 20 21  1  0
 20 22  1  0
 22 23  1  0
 17 24  1  0
 22 24  2  0
  7 25  1  0
  4 26  1  0
 25 26  1  0
M  END
