piperidine-amides-14539-covalent
     RDKit          3D

 23 24  0  0  0  0  0  0  0  0999 V2000
    7.0490   -3.2980   19.3100 C   0  0  0  0  0  0  0  0  0  0  0  0
    6.3560   -4.1000   20.3220 C   0  0  0  0  0  0  0  0  0  0  0  0
    5.3660   -4.7600   19.9590 O   0  0  0  0  0  0  0  0  0  0  0  0
    6.8170   -4.1500   21.6650 N   0  0  0  0  0  0  0  0  0  0  0  0
    7.6730   -3.1190   22.1920 C   0  0  0  0  0  0  0  0  0  0  0  0
    7.4430   -2.9670   23.6670 C   0  0  0  0  0  0  0  0  0  0  0  0
    6.1140   -3.6260   23.9380 C   0  0  0  0  0  0  0  0  0  0  0  0
    5.6340   -3.4070   25.3480 C   0  0  0  0  0  0  0  0  0  0  0  0
    4.4220   -3.5100   25.5040 O   0  0  0  0  0  0  0  0  0  0  0  0
    6.5470   -3.0980   26.3590 N   0  0  0  0  0  0  0  0  0  0  0  0
    6.3250   -3.3660   27.7570 C   0  0  2  0  0  0  0  0  0  0  0  0
    6.3930   -4.7010   28.1980 C   0  0  0  0  0  0  0  0  0  0  0  0
    4.9290   -2.9770   28.0480 C   0  0  0  0  0  0  0  0  0  0  0  0
    3.7340   -3.7360   28.0310 N   0  0  0  0  0  0  0  0  0  0  0  0
    2.7070   -2.8570   28.3930 C   0  0  0  0  0  0  0  0  0  0  0  0
    1.2920   -3.3570   28.4710 C   0  0  0  0  0  0  0  0  0  0  0  0
    0.9830   -4.2240   27.4750 F   0  0  0  0  0  0  0  0  0  0  0  0
    1.1430   -3.9650   29.7130 F   0  0  0  0  0  0  0  0  0  0  0  0
    0.5090   -2.2060   28.4540 F   0  0  0  0  0  0  0  0  0  0  0  0
    3.2580   -1.5990   28.6250 N   0  0  0  0  0  0  0  0  0  0  0  0
    4.5740   -1.6950   28.4150 O   0  0  0  0  0  0  0  0  0  0  0  0
    6.1180   -5.1130   23.7200 C   0  0  0  0  0  0  0  0  0  0  0  0
    6.6130   -5.4350   22.3560 C   0  0  0  0  0  0  0  0  0  0  0  0
  1  2  1  0
  2  3  2  0
  2  4  1  0
  4  5  1  0
  5  6  1  0
  6  7  1  0
  7  8  1  0
  8  9  2  0
  8 10  1  0
 10 11  1  0
 11 12  1  6
 11 13  1  0
 13 14  2  0
 14 15  1  0
 15 16  1  0
 16 17  1  0
 16 18  1  0
 16 19  1  0
 15 20  2  0
 13 21  1  0
 20 21  1  0
  7 22  1  0
  4 23  1  0
 22 23  1  0
M  END
