piperidine-amides-19449-covalent
     RDKit          3D

 22 24  0  0  0  0  0  0  0  0999 V2000
    7.0080   -3.4050   19.3810 C   0  0  0  0  0  0  0  0  0  0  0  0
    6.3550   -4.2100   20.3930 C   0  0  0  0  0  0  0  0  0  0  0  0
    5.3910   -4.9350   20.0040 O   0  0  0  0  0  0  0  0  0  0  0  0
    6.7580   -4.2600   21.7520 N   0  0  0  0  0  0  0  0  0  0  0  0
    6.7270   -5.6170   22.3670 C   0  0  0  0  0  0  0  0  0  0  0  0
    6.2950   -5.3300   23.8640 C   0  0  0  0  0  0  0  0  0  0  0  0
    6.1840   -3.8380   23.9860 C   0  0  0  0  0  0  0  0  0  0  0  0
    5.1980   -3.3250   25.1430 C   0  0  0  0  0  0  0  0  0  0  0  0
    4.2050   -2.8670   24.6130 O   0  0  0  0  0  0  0  0  0  0  0  0
    5.6450   -3.4910   26.3300 N   0  0  0  0  0  0  0  0  0  0  0  0
    6.4160   -3.5980   27.3910 C   0  0  0  0  0  0  0  0  0  0  0  0
    6.7600   -4.5910   28.2480 C   0  0  0  0  0  0  0  0  0  0  0  0
    5.6900   -4.6330   29.0660 C   0  0  0  0  0  0  0  0  0  0  0  0
    4.4470   -4.4040   28.3250 C   0  0  2  0  0  0  0  0  0  0  0  0
    3.7200   -5.5320   27.8960 N   0  0  0  0  0  0  0  0  0  0  0  0
    2.2930   -5.7740   28.1220 C   0  0  0  0  0  0  0  0  0  0  0  0
    2.0460   -6.9790   27.5330 C   0  0  0  0  0  0  0  0  0  0  0  0
    3.1530   -7.5480   26.9490 C   0  0  0  0  0  0  0  0  0  0  0  0
    4.2250   -6.5870   27.2000 N   0  0  0  0  0  0  0  0  0  0  0  0
    4.5480   -3.3720   27.2720 C   0  0  0  0  0  0  0  0  0  0  0  0
    7.4650   -3.1570   23.6520 C   0  0  0  0  0  0  0  0  0  0  0  0
    7.6200   -3.2270   22.2870 C   0  0  0  0  0  0  0  0  0  0  0  0
  1  2  1  0
  2  3  2  0
  2  4  1  0
  4  5  1  0
  5  6  1  0
  6  7  1  0
  7  8  1  0
  8  9  2  0
  8 10  1  0
 10 11  1  0
 11 12  1  0
 12 13  1  0
 13 14  1  0
 14 15  1  6
 15 16  1  0
 16 17  2  0
 17 18  1  0
 15 19  1  0
 18 19  2  0
 10 20  1  0
 14 20  1  0
  7 21  1  0
  4 22  1  0
 21 22  1  0
M  END
