piperidine-amides-6412-covalent
     RDKit          3D

 25 27  0  0  0  0  0  0  0  0999 V2000
    7.0740   -3.3360   19.3720 C   0  0  0  0  0  0  0  0  0  0  0  0
    6.3430   -4.1560   20.3500 C   0  0  0  0  0  0  0  0  0  0  0  0
    5.3710   -4.8520   19.9810 O   0  0  0  0  0  0  0  0  0  0  0  0
    6.7520   -4.1950   21.6890 N   0  0  0  0  0  0  0  0  0  0  0  0
    6.6070   -5.4280   22.4280 C   0  0  0  0  0  0  0  0  0  0  0  0
    6.0380   -5.0840   23.8200 C   0  0  0  0  0  0  0  0  0  0  0  0
    6.0000   -3.5730   23.9390 C   0  0  0  0  0  0  0  0  0  0  0  0
    5.6180   -3.1310   25.2970 C   0  0  0  0  0  0  0  0  0  0  0  0
    4.4070   -3.0760   25.5910 O   0  0  0  0  0  0  0  0  0  0  0  0
    6.6330   -2.7920   26.2120 N   0  0  0  0  0  0  0  0  0  0  0  0
    6.5290   -1.6880   27.1280 C   0  0  0  0  0  0  0  0  0  0  0  0
    5.8670   -0.4540   26.5670 C   0  0  0  0  0  0  0  0  0  0  0  0
    5.7180    0.6650   27.3480 C   0  0  0  0  0  0  0  0  0  0  0  0
    6.1770    0.6610   28.6540 C   0  0  0  0  0  0  0  0  0  0  0  0
    6.0330    1.7870   29.4550 O   0  0  0  0  0  0  0  0  0  0  0  0
    4.7400    2.3360   29.6080 C   0  0  0  0  0  0  0  0  0  0  0  0
    4.1500    1.6870   30.6660 C   0  0  0  0  0  0  0  0  0  0  0  0
    2.8520    2.2020   31.2720 C   0  0  0  0  0  0  0  0  0  0  0  0
    4.0030    3.1830   31.3840 C   0  0  0  0  0  0  0  0  0  0  0  0
    4.5400    3.6110   30.0590 C   0  0  0  0  0  0  0  0  0  0  0  0
    6.7920   -0.4530   29.2140 C   0  0  0  0  0  0  0  0  0  0  0  0
    7.2310   -0.4280   30.5070 F   0  0  0  0  0  0  0  0  0  0  0  0
    6.9480   -1.5990   28.4280 C   0  0  0  0  0  0  0  0  0  0  0  0
    7.3980   -3.0370   23.6590 C   0  0  0  0  0  0  0  0  0  0  0  0
    7.6740   -3.1980   22.1950 C   0  0  0  0  0  0  0  0  0  0  0  0
  1  2  1  0
  2  3  2  0
  2  4  1  0
  4  5  1  0
  5  6  1  0
  6  7  1  0
  7  8  1  0
  8  9  2  0
  8 10  1  0
 10 11  1  0
 11 12  2  0
 12 13  1  0
 13 14  2  0
 14 15  1  0
 15 16  1  0
 16 17  1  0
 17 18  1  0
 18 19  1  0
 16 20  1  0
 19 20  1  0
 14 21  1  0
 21 22  1  0
 11 23  1  0
 21 23  2  0
  7 24  1  0
  4 25  1  0
 24 25  1  0
M  END
