piperidine-amides-3180-covalent
     RDKit          3D

 22 24  0  0  0  0  0  0  0  0999 V2000
    7.1080   -3.3110   19.2540 C   0  0  0  0  0  0  0  0  0  0  0  0
    6.3190   -4.0350   20.2400 C   0  0  0  0  0  0  0  0  0  0  0  0
    5.2700   -4.5800   19.9020 O   0  0  0  0  0  0  0  0  0  0  0  0
    6.7910   -4.1640   21.5900 N   0  0  0  0  0  0  0  0  0  0  0  0
    6.5710   -5.4010   22.2990 C   0  0  0  0  0  0  0  0  0  0  0  0
    6.0730   -5.1060   23.6880 C   0  0  0  0  0  0  0  0  0  0  0  0
    6.1360   -3.5990   23.8540 C   0  0  0  0  0  0  0  0  0  0  0  0
    5.6000   -3.1830   25.1830 C   0  0  0  0  0  0  0  0  0  0  0  0
    4.6370   -2.3970   25.2660 O   0  0  0  0  0  0  0  0  0  0  0  0
    6.1570   -3.6760   26.3910 N   0  0  0  0  0  0  0  0  0  0  0  0
    5.1980   -3.8600   27.4680 C   0  0  1  0  0  0  0  0  0  0  0  0
    4.5770   -5.2260   27.3600 C   0  0  0  0  0  0  0  0  0  0  0  0
    4.9760   -6.3340   27.8290 C   0  0  0  0  0  0  0  0  0  0  0  0
    5.5950   -6.1520   26.5560 C   0  0  0  0  0  0  0  0  0  0  0  0
    5.7860   -3.5690   28.7940 C   0  0  2  0  0  0  0  0  0  0  0  0
    5.8880   -2.1690   29.0930 C   0  0  0  0  0  0  0  0  0  0  0  0
    7.0940   -1.5890   28.9090 C   0  0  0  0  0  0  0  0  0  0  0  0
    8.0540   -2.3810   28.3080 C   0  0  0  0  0  0  0  0  0  0  0  0
    7.8980   -3.7850   28.2710 C   0  0  0  0  0  0  0  0  0  0  0  0
    6.8030   -4.2520   28.9520 O   0  0  0  0  0  0  0  0  0  0  0  0
    7.4090   -2.9910   23.5280 C   0  0  0  0  0  0  0  0  0  0  0  0
    7.6690   -3.1750   22.1810 C   0  0  0  0  0  0  0  0  0  0  0  0
  1  2  1  0
  2  3  2  0
  2  4  1  0
  4  5  1  0
  5  6  1  0
  6  7  1  0
  7  8  1  0
  8  9  2  0
  8 10  1  0
 11 10  1  6
 11 12  1  0
 12 13  1  0
 12 14  1  0
 13 14  1  0
 11 15  1  0
 15 16  1  6
 16 17  1  0
 17 18  1  0
 18 19  1  0
 15 20  1  0
 19 20  1  0
  7 21  1  0
  4 22  1  0
 21 22  1  0
M  END
