piperidine-amides-6461-covalent
     RDKit          3D

 25 26  0  0  0  0  0  0  0  0999 V2000
    7.0400   -3.3130   19.3640 C   0  0  0  0  0  0  0  0  0  0  0  0
    6.3690   -4.1860   20.3460 C   0  0  0  0  0  0  0  0  0  0  0  0
    5.3920   -4.8790   19.9870 O   0  0  0  0  0  0  0  0  0  0  0  0
    6.8270   -4.2870   21.6740 N   0  0  0  0  0  0  0  0  0  0  0  0
    6.5580   -5.5180   22.3900 C   0  0  0  0  0  0  0  0  0  0  0  0
    6.1570   -5.1560   23.8340 C   0  0  0  0  0  0  0  0  0  0  0  0
    6.0580   -3.6460   23.9280 C   0  0  0  0  0  0  0  0  0  0  0  0
    5.6230   -3.2220   25.2830 C   0  0  0  0  0  0  0  0  0  0  0  0
    4.3960   -3.1840   25.5030 O   0  0  0  0  0  0  0  0  0  0  0  0
    6.5550   -2.8700   26.2890 N   0  0  0  0  0  0  0  0  0  0  0  0
    6.4270   -1.6050   26.9710 C   0  0  0  0  0  0  0  0  0  0  0  0
    7.0190   -1.5580   28.3610 C   0  0  0  0  0  0  0  0  0  0  0  0
    6.9690   -0.4160   29.1260 C   0  0  0  0  0  0  0  0  0  0  0  0
    6.3650    0.7360   28.6390 C   0  0  0  0  0  0  0  0  0  0  0  0
    6.3630    1.8770   29.4970 N   0  0  0  0  0  0  0  0  0  0  0  0
    6.6610    1.9120   30.8450 C   0  0  0  0  0  0  0  0  0  0  0  0
    7.8470    2.0070   31.4910 O   0  0  0  0  0  0  0  0  0  0  0  0
    5.5790    1.8580   31.6930 C   0  0  0  0  0  0  0  0  0  0  0  0
    5.7040    1.3800   32.9330 N   0  0  0  0  0  0  0  0  0  0  0  0
    6.0650    0.0910   32.8040 C   0  0  0  0  0  0  0  0  0  0  0  0
    6.4370    2.3220   33.7570 C   0  0  0  0  0  0  0  0  0  0  0  0
    5.8210    0.6980   27.3710 C   0  0  0  0  0  0  0  0  0  0  0  0
    5.8310   -0.4710   26.4920 C   0  0  0  0  0  0  0  0  0  0  0  0
    7.3790   -3.0420   23.5730 C   0  0  0  0  0  0  0  0  0  0  0  0
    7.6090   -3.2290   22.2420 C   0  0  0  0  0  0  0  0  0  0  0  0
  1  2  1  0
  2  3  2  0
  2  4  1  0
  4  5  1  0
  5  6  1  0
  6  7  1  0
  7  8  1  0
  8  9  2  0
  8 10  1  0
 10 11  1  0
 11 12  2  0
 12 13  1  0
 13 14  2  0
 14 15  1  0
 15 16  1  0
 16 17  2  0
 16 18  1  0
 18 19  1  0
 19 20  1  0
 19 21  1  0
 14 22  1  0
 11 23  1  0
 22 23  2  0
  7 24  1  0
  4 25  1  0
 24 25  1  0
M  END
