piperidine-amides-25401-covalent
     RDKit          3D

 25 27  0  0  0  0  0  0  0  0999 V2000
    7.0800   -3.3360   19.3470 C   0  0  0  0  0  0  0  0  0  0  0  0
    6.4040   -4.2090   20.3410 C   0  0  0  0  0  0  0  0  0  0  0  0
    5.3840   -4.7890   19.9710 O   0  0  0  0  0  0  0  0  0  0  0  0
    6.9550   -4.3840   21.6180 N   0  0  0  0  0  0  0  0  0  0  0  0
    6.6870   -5.5920   22.3670 C   0  0  0  0  0  0  0  0  0  0  0  0
    6.2920   -5.2480   23.7810 C   0  0  0  0  0  0  0  0  0  0  0  0
    6.1370   -3.7320   23.9100 C   0  0  0  0  0  0  0  0  0  0  0  0
    5.6200   -3.3740   25.2430 C   0  0  0  0  0  0  0  0  0  0  0  0
    4.5850   -2.6990   25.2910 O   0  0  0  0  0  0  0  0  0  0  0  0
    6.2140   -3.7600   26.4550 N   0  0  0  0  0  0  0  0  0  0  0  0
    5.3780   -3.5120   27.6040 C   0  0  0  0  0  0  0  0  0  0  0  0
    5.1230   -4.8490   28.2560 C   0  0  0  0  0  0  0  0  0  0  0  0
    6.0470   -5.8240   28.1720 C   0  0  0  0  0  0  0  0  0  0  0  0
    7.2220   -5.4480   28.6780 C   0  0  0  0  0  0  0  0  0  0  0  0
    7.9160   -4.5090   27.9810 C   0  0  0  0  0  0  0  0  0  0  0  0
    7.3650   -3.3160   27.2050 C   0  0  2  0  0  0  0  0  0  0  0  0
    6.9360   -2.5040   28.4110 C   0  0  0  0  0  0  0  0  0  0  0  0
    8.1340   -1.6810   28.7990 C   0  0  0  0  0  0  0  0  0  0  0  0
    7.8990   -0.7940   29.9810 C   0  0  0  0  0  0  0  0  0  0  0  0
    6.5850   -0.7650   30.6600 C   0  0  0  0  0  0  0  0  0  0  0  0
    5.4530   -1.6390   30.1810 C   0  0  0  0  0  0  0  0  0  0  0  0
    4.1130   -1.6610   30.8260 C   0  0  0  0  0  0  0  0  0  0  0  0
    5.7310   -2.4460   29.0850 C   0  0  0  0  0  0  0  0  0  0  0  0
    7.4620   -3.1010   23.6210 C   0  0  0  0  0  0  0  0  0  0  0  0
    7.7430   -3.2990   22.1620 C   0  0  0  0  0  0  0  0  0  0  0  0
  1  2  1  0
  2  3  2  0
  2  4  1  0
  4  5  1  0
  5  6  1  0
  6  7  1  0
  7  8  1  0
  8  9  2  0
  8 10  1  0
 10 11  1  0
 11 12  1  0
 12 13  1  0
 13 14  1  0
 14 15  1  0
 10 16  1  0
 15 16  1  0
 16 17  1  1
 17 18  2  0
 18 19  1  0
 19 20  2  0
 20 21  1  0
 21 22  1  0
 17 23  1  0
 21 23  2  0
  7 24  1  0
  4 25  1  0
 24 25  1  0
M  END
