piperidine-amides-34104-covalent
     RDKit          3D

 30 32  0  0  0  0  0  0  0  0999 V2000
    7.0420   -3.3300   19.3900 C   0  0  0  0  0  0  0  0  0  0  0  0
    6.3750   -4.2120   20.3640 C   0  0  0  0  0  0  0  0  0  0  0  0
    5.4020   -4.9090   19.9970 O   0  0  0  0  0  0  0  0  0  0  0  0
    6.8390   -4.3090   21.6910 N   0  0  0  0  0  0  0  0  0  0  0  0
    6.6680   -5.5790   22.3910 C   0  0  0  0  0  0  0  0  0  0  0  0
    6.2580   -5.3100   23.8550 C   0  0  0  0  0  0  0  0  0  0  0  0
    6.1190   -3.8180   23.9740 C   0  0  0  0  0  0  0  0  0  0  0  0
    5.6390   -3.3160   25.2930 C   0  0  0  0  0  0  0  0  0  0  0  0
    4.9660   -2.2680   25.2530 O   0  0  0  0  0  0  0  0  0  0  0  0
    5.8800   -3.9380   26.5540 N   0  0  0  0  0  0  0  0  0  0  0  0
    5.9580   -5.3510   26.6650 C   0  0  0  0  0  0  0  0  0  0  0  0
    6.4570   -5.5850   28.0650 C   0  0  0  0  0  0  0  0  0  0  0  0
    5.5980   -5.3350   29.0150 C   0  0  0  0  0  0  0  0  0  0  0  0
    4.8500   -4.2080   28.7700 C   0  0  2  0  0  0  0  0  0  0  0  0
    3.4820   -4.4420   28.5310 C   0  0  1  0  0  0  0  0  0  0  0  0
    2.5970   -3.3720   28.6340 C   0  0  0  0  0  0  0  0  0  0  0  0
    2.0870   -2.5950   27.4180 C   0  0  0  0  0  0  0  0  0  0  0  0
    1.3380   -3.9040   27.6050 C   0  0  0  0  0  0  0  0  0  0  0  0
    1.9240   -4.9050   26.6940 N   0  0  0  0  0  0  0  0  0  0  0  0
    0.9880   -6.0290   26.5030 C   0  0  0  0  0  0  0  0  0  0  0  0
    0.0980   -6.2000   27.4450 O   0  0  0  0  0  0  0  0  0  0  0  0
    1.1310   -6.8010   25.3450 O   0  0  0  0  0  0  0  0  0  0  0  0
    2.2420   -7.6740   25.2500 C   0  0  0  0  0  0  0  0  0  0  0  0
    2.9360   -7.6440   24.0300 C   0  0  0  0  0  0  0  0  0  0  0  0
    3.6800   -7.3020   25.3010 C   0  0  0  0  0  0  0  0  0  0  0  0
    1.9200   -9.1580   25.5450 C   0  0  0  0  0  0  0  0  0  0  0  0
    3.2920   -4.9570   27.1070 C   0  0  0  0  0  0  0  0  0  0  0  0
    5.3970   -3.2380   27.7390 C   0  0  0  0  0  0  0  0  0  0  0  0
    7.3400   -3.0760   23.5740 C   0  0  0  0  0  0  0  0  0  0  0  0
    7.6870   -3.2880   22.2850 C   0  0  0  0  0  0  0  0  0  0  0  0
  1  2  1  0
  2  3  2  0
  2  4  1  0
  4  5  1  0
  5  6  1  0
  6  7  1  0
  7  8  1  0
  8  9  2  0
  8 10  1  0
 10 11  1  0
 11 12  1  0
 12 13  1  0
 14 13  1  6
 14 15  1  0
 15 16  1  6
 16 17  1  0
 17 18  1  0
 18 19  1  0
 19 20  1  0
 20 21  2  0
 20 22  1  0
 23 22  1  0
 23 24  1  0
 23 25  1  0
 23 26  1  0
 15 27  1  0
 19 27  1  0
 10 28  1  0
 14 28  1  0
  7 29  1  0
  4 30  1  0
 29 30  1  0
M  END
