piperidine-amides-34914-covalent
     RDKit          3D

 32 34  0  0  0  0  0  0  0  0999 V2000
    7.0410   -3.3340   19.3260 C   0  0  0  0  0  0  0  0  0  0  0  0
    6.3150   -4.1220   20.3560 C   0  0  0  0  0  0  0  0  0  0  0  0
    5.3590   -4.7900   19.9640 O   0  0  0  0  0  0  0  0  0  0  0  0
    6.7360   -4.1220   21.6890 N   0  0  0  0  0  0  0  0  0  0  0  0
    6.5660   -5.2790   22.5290 C   0  0  0  0  0  0  0  0  0  0  0  0
    5.9130   -4.8650   23.8220 C   0  0  0  0  0  0  0  0  0  0  0  0
    5.9760   -3.3370   23.9680 C   0  0  0  0  0  0  0  0  0  0  0  0
    5.3920   -2.9560   25.2940 C   0  0  0  0  0  0  0  0  0  0  0  0
    4.1590   -2.9130   25.3870 O   0  0  0  0  0  0  0  0  0  0  0  0
    6.1660   -2.6520   26.4450 N   0  0  0  0  0  0  0  0  0  0  0  0
    7.5360   -2.8590   26.3870 C   0  0  0  0  0  0  0  0  0  0  0  0
    7.8520   -4.2490   26.6880 C   0  0  0  0  0  0  0  0  0  0  0  0
    7.3500   -5.1820   27.5080 C   0  0  0  0  0  0  0  0  0  0  0  0
    6.3620   -4.9550   28.2660 O   0  0  0  0  0  0  0  0  0  0  0  0
    5.8370   -6.1290   28.8160 C   0  0  0  0  0  0  0  0  0  0  0  0
    7.9040   -6.4510   27.5600 N   0  0  0  0  0  0  0  0  0  0  0  0
    9.0370   -6.7900   26.7190 C   0  0  0  0  0  0  0  0  0  0  0  0
    9.5720   -6.0010   25.9410 N   0  0  0  0  0  0  0  0  0  0  0  0
    8.9780   -4.7620   25.9410 C   0  0  0  0  0  0  0  0  0  0  0  0
    9.6170   -4.0140   25.1250 O   0  0  0  0  0  0  0  0  0  0  0  0
   10.9170   -4.4720   25.3330 C   0  0  0  0  0  0  0  0  0  0  0  0
    6.1330   -1.3760   27.0780 C   0  0  0  0  0  0  0  0  0  0  0  0
    6.8690   -1.3860   28.3680 C   0  0  0  0  0  0  0  0  0  0  0  0
    6.9460   -0.1550   29.1310 C   0  0  0  0  0  0  0  0  0  0  0  0
    6.2890    1.0820   28.6030 C   0  0  0  0  0  0  0  0  0  0  0  0
    6.2560    2.3350   29.1680 O   0  0  0  0  0  0  0  0  0  0  0  0
    7.0210    3.4170   28.6500 C   0  0  0  0  0  0  0  0  0  0  0  0
    5.6020    1.0360   27.3790 C   0  0  0  0  0  0  0  0  0  0  0  0
    4.9830    2.2780   26.9230 O   0  0  0  0  0  0  0  0  0  0  0  0
    5.5500   -0.1780   26.6700 C   0  0  0  0  0  0  0  0  0  0  0  0
    7.3710   -2.8700   23.6720 C   0  0  0  0  0  0  0  0  0  0  0  0
    7.6540   -3.0720   22.1770 C   0  0  0  0  0  0  0  0  0  0  0  0
  1  2  1  0
  2  3  2  0
  2  4  1  0
  4  5  1  0
  5  6  1  0
  6  7  1  0
  7  8  1  0
  8  9  2  0
  8 10  1  0
 10 11  1  0
 11 12  1  0
 12 13  2  0
 13 14  1  0
 14 15  1  0
 13 16  1  0
 16 17  2  0
 17 18  1  0
 12 19  1  0
 18 19  2  0
 19 20  1  0
 20 21  1  0
 10 22  1  0
 22 23  2  0
 23 24  1  0
 24 25  2  0
 25 26  1  0
 26 27  1  0
 25 28  1  0
 28 29  1  0
 22 30  1  0
 28 30  2  0
  7 31  1  0
  4 32  1  0
 31 32  1  0
M  END
