piperidine-amides-16999-covalent
     RDKit          3D

 19 20  0  0  0  0  0  0  0  0999 V2000
    7.1050   -3.3550   19.2840 C   0  0  0  0  0  0  0  0  0  0  0  0
    6.3620   -4.1170   20.2950 C   0  0  0  0  0  0  0  0  0  0  0  0
    5.2920   -4.6480   19.9240 O   0  0  0  0  0  0  0  0  0  0  0  0
    6.8810   -4.2920   21.6020 N   0  0  0  0  0  0  0  0  0  0  0  0
    7.4630   -3.1570   22.2140 C   0  0  0  0  0  0  0  0  0  0  0  0
    6.8120   -2.8110   23.4640 C   0  0  0  0  0  0  0  0  0  0  0  0
    6.4990   -3.9810   24.3030 C   0  0  0  0  0  0  0  0  0  0  0  0
    5.7390   -3.5820   25.5310 C   0  0  0  0  0  0  0  0  0  0  0  0
    4.5290   -3.2660   25.4740 O   0  0  0  0  0  0  0  0  0  0  0  0
    6.3700   -3.5730   26.7850 N   0  0  0  0  0  0  0  0  0  0  0  0
    6.7640   -4.7070   27.5490 C   0  0  0  0  0  0  0  0  0  0  0  0
    6.4240   -2.3050   27.4950 C   0  0  0  0  0  0  0  0  0  0  0  0
    6.9030   -2.2800   28.7450 N   0  0  0  0  0  0  0  0  0  0  0  0
    6.8760   -0.9900   29.2490 C   0  0  0  0  0  0  0  0  0  0  0  0
    7.2030   -0.2950   30.3920 C   0  0  0  0  0  0  0  0  0  0  0  0
    6.3960    0.2550   28.5760 C   0  0  0  0  0  0  0  0  0  0  0  0
    5.9660   -0.5610   27.1040 S   0  0  0  0  0  0  0  0  0  0  0  0
    5.7710   -5.0790   23.5990 C   0  0  0  0  0  0  0  0  0  0  0  0
    6.5400   -5.4950   22.3320 C   0  0  0  0  0  0  0  0  0  0  0  0
  1  2  1  0
  2  3  2  0
  2  4  1  0
  4  5  1  0
  5  6  1  0
  6  7  1  0
  7  8  1  0
  8  9  2  0
  8 10  1  0
 10 11  1  0
 10 12  1  0
 12 13  2  0
 13 14  1  0
 14 15  1  0
 14 16  2  0
 12 17  1  0
 16 17  1  0
  7 18  1  0
  4 19  1  0
 18 19  1  0
M  END
