piperidine-amides-30871-covalent
     RDKit          3D

 28 31  0  0  0  0  0  0  0  0999 V2000
    6.9960   -3.3820   19.4060 C   0  0  0  0  0  0  0  0  0  0  0  0
    6.3570   -4.2600   20.3970 C   0  0  0  0  0  0  0  0  0  0  0  0
    5.4120   -4.9730   20.0120 O   0  0  0  0  0  0  0  0  0  0  0  0
    6.8000   -4.3510   21.7420 N   0  0  0  0  0  0  0  0  0  0  0  0
    6.6440   -5.5730   22.5210 C   0  0  0  0  0  0  0  0  0  0  0  0
    6.0850   -5.1940   23.8840 C   0  0  0  0  0  0  0  0  0  0  0  0
    6.0800   -3.7120   24.0760 C   0  0  0  0  0  0  0  0  0  0  0  0
    5.3650   -3.1650   25.2890 C   0  0  0  0  0  0  0  0  0  0  0  0
    4.6320   -2.1600   25.1090 O   0  0  0  0  0  0  0  0  0  0  0  0
    5.3600   -3.6240   26.6440 N   0  0  0  0  0  0  0  0  0  0  0  0
    4.0650   -3.5500   27.3640 C   0  0  0  0  0  0  0  0  0  0  0  0
    4.2320   -3.7580   28.8310 C   0  0  0  0  0  0  0  0  0  0  0  0
    5.1580   -4.6780   28.9960 N   0  0  0  0  0  0  0  0  0  0  0  0
    5.0870   -5.7970   29.7830 C   0  0  0  0  0  0  0  0  0  0  0  0
    3.9220   -6.2230   30.6390 C   0  0  0  0  0  0  0  0  0  0  0  0
    4.0130   -7.7310   30.6220 C   0  0  0  0  0  0  0  0  0  0  0  0
    2.9590   -8.2200   31.5490 C   0  0  0  0  0  0  0  0  0  0  0  0
    3.2590   -8.4040   32.8840 C   0  0  0  0  0  0  0  0  0  0  0  0
    2.4120   -8.8550   33.8760 C   0  0  0  0  0  0  0  0  0  0  0  0
    1.0220   -9.1870   33.5030 C   0  0  0  0  0  0  0  0  0  0  0  0
    0.6370   -9.0010   32.0470 C   0  0  0  0  0  0  0  0  0  0  0  0
    1.5850   -8.5000   30.9550 C   0  0  0  0  0  0  0  0  0  0  0  0
    6.2170   -6.4690   29.6790 N   0  0  0  0  0  0  0  0  0  0  0  0
    7.0120   -5.7870   28.8290 N   0  0  0  0  0  0  0  0  0  0  0  0
    6.3560   -4.6750   28.4010 C   0  0  0  0  0  0  0  0  0  0  0  0
    6.3860   -3.4470   27.5510 C   0  0  0  0  0  0  0  0  0  0  0  0
    7.4370   -3.1190   23.7840 C   0  0  0  0  0  0  0  0  0  0  0  0
    7.6140   -3.2740   22.2700 C   0  0  0  0  0  0  0  0  0  0  0  0
  1  2  1  0
  2  3  2  0
  2  4  1  0
  4  5  1  0
  5  6  1  0
  6  7  1  0
  7  8  1  0
  8  9  2  0
  8 10  1  0
 10 11  1  0
 11 12  1  0
 12 13  1  0
 13 14  1  0
 14 15  1  0
 15 16  1  0
 16 17  1  0
 17 18  2  0
 18 19  1  0
 19 20  2  0
 20 21  1  0
 17 22  1  0
 21 22  2  0
 14 23  2  0
 23 24  1  0
 13 25  1  0
 24 25  2  0
 10 26  1  0
 25 26  1  0
  7 27  1  0
  4 28  1  0
 27 28  1  0
M  END
