piperidine-amides-28014-covalent
     RDKit          3D

 25 27  0  0  0  0  0  0  0  0999 V2000
    7.0800   -3.3880   19.3130 C   0  0  0  0  0  0  0  0  0  0  0  0
    6.4070   -4.1920   20.3520 C   0  0  0  0  0  0  0  0  0  0  0  0
    5.3830   -4.8080   19.9820 O   0  0  0  0  0  0  0  0  0  0  0  0
    6.9420   -4.2840   21.6520 N   0  0  0  0  0  0  0  0  0  0  0  0
    6.6250   -5.3980   22.4910 C   0  0  0  0  0  0  0  0  0  0  0  0
    6.0530   -4.9790   23.7690 C   0  0  0  0  0  0  0  0  0  0  0  0
    6.0970   -3.5130   23.9250 C   0  0  0  0  0  0  0  0  0  0  0  0
    5.5370   -3.0320   25.2160 C   0  0  0  0  0  0  0  0  0  0  0  0
    4.3920   -2.5450   25.1670 O   0  0  0  0  0  0  0  0  0  0  0  0
    6.1790   -3.0950   26.4650 N   0  0  0  0  0  0  0  0  0  0  0  0
    6.3360   -1.8040   27.2070 C   0  0  0  0  0  0  0  0  0  0  0  0
    5.7980   -0.5690   26.5800 C   0  0  0  0  0  0  0  0  0  0  0  0
    5.9640    0.6520   27.3520 C   0  0  0  0  0  0  0  0  0  0  0  0
    6.5890    0.6090   28.5760 C   0  0  0  0  0  0  0  0  0  0  0  0
    7.0890   -0.5610   29.1400 C   0  0  0  0  0  0  0  0  0  0  0  0
    6.9840   -1.7670   28.4980 C   0  0  0  0  0  0  0  0  0  0  0  0
    5.8320   -4.2640   27.2640 C   0  0  0  0  0  0  0  0  0  0  0  0
    4.8960   -5.0360   26.6230 C   0  0  0  0  0  0  0  0  0  0  0  0
    4.4500   -6.1920   27.2540 C   0  0  0  0  0  0  0  0  0  0  0  0
    3.2460   -7.2190   26.4760 Cl  0  0  0  0  0  0  0  0  0  0  0  0
    4.9790   -6.5020   28.5000 N   0  0  0  0  0  0  0  0  0  0  0  0
    5.9770   -5.6020   29.0810 C   0  0  0  0  0  0  0  0  0  0  0  0
    6.3910   -4.4970   28.4670 N   0  0  0  0  0  0  0  0  0  0  0  0
    7.4350   -2.9460   23.6390 C   0  0  0  0  0  0  0  0  0  0  0  0
    7.7760   -3.2130   22.1980 C   0  0  0  0  0  0  0  0  0  0  0  0
  1  2  1  0
  2  3  2  0
  2  4  1  0
  4  5  1  0
  5  6  1  0
  6  7  1  0
  7  8  1  0
  8  9  2  0
  8 10  1  0
 10 11  1  0
 11 12  2  0
 12 13  1  0
 13 14  2  0
 14 15  1  0
 11 16  1  0
 15 16  2  0
 10 17  1  0
 17 18  2  0
 18 19  1  0
 19 20  1  0
 19 21  2  0
 21 22  1  0
 17 23  1  0
 22 23  2  0
  7 24  1  0
  4 25  1  0
 24 25  1  0
M  END
