piperidine-amides-10262-covalent
     RDKit          3D

 25 27  0  0  0  0  0  0  0  0999 V2000
    7.0390   -3.3690   19.3960 C   0  0  0  0  0  0  0  0  0  0  0  0
    6.3500   -4.1790   20.4030 C   0  0  0  0  0  0  0  0  0  0  0  0
    5.3710   -4.8530   19.9870 O   0  0  0  0  0  0  0  0  0  0  0  0
    6.8050   -4.2200   21.7330 N   0  0  0  0  0  0  0  0  0  0  0  0
    6.6600   -5.4260   22.5160 C   0  0  0  0  0  0  0  0  0  0  0  0
    6.0580   -5.0400   23.8380 C   0  0  0  0  0  0  0  0  0  0  0  0
    6.1050   -3.5450   24.0210 C   0  0  0  0  0  0  0  0  0  0  0  0
    5.7340   -3.1550   25.4140 C   0  0  0  0  0  0  0  0  0  0  0  0
    4.5320   -3.3070   25.7260 O   0  0  0  0  0  0  0  0  0  0  0  0
    6.6080   -2.6180   26.4000 N   0  0  0  0  0  0  0  0  0  0  0  0
    6.4190   -1.2820   26.9450 C   0  0  0  0  0  0  0  0  0  0  0  0
    5.6440   -0.3180   26.0690 C   0  0  0  0  0  0  0  0  0  0  0  0
    5.4020    0.9640   26.4830 C   0  0  0  0  0  0  0  0  0  0  0  0
    5.8720    1.3670   27.7040 C   0  0  0  0  0  0  0  0  0  0  0  0
    6.5760    0.5660   28.5510 C   0  0  0  0  0  0  0  0  0  0  0  0
    6.8430   -0.7270   28.1800 C   0  0  0  0  0  0  0  0  0  0  0  0
    7.7490   -1.5600   29.4080 S   0  0  0  0  0  0  0  0  0  0  0  0
    7.6700   -0.3980   30.8270 C   0  0  0  0  0  0  0  0  0  0  0  0
    8.7700    0.3430   31.2220 N   0  0  0  0  0  0  0  0  0  0  0  0
    8.6650    1.1760   32.2620 C   0  0  0  0  0  0  0  0  0  0  0  0
    7.3740    1.3080   32.9900 C   0  0  0  0  0  0  0  0  0  0  0  0
    6.2120    0.5150   32.5540 C   0  0  0  0  0  0  0  0  0  0  0  0
    6.4660   -0.2730   31.5020 N   0  0  0  0  0  0  0  0  0  0  0  0
    7.4610   -3.0080   23.6570 C   0  0  0  0  0  0  0  0  0  0  0  0
    7.6730   -3.1650   22.2940 C   0  0  0  0  0  0  0  0  0  0  0  0
  1  2  1  0
  2  3  2  0
  2  4  1  0
  4  5  1  0
  5  6  1  0
  6  7  1  0
  7  8  1  0
  8  9  2  0
  8 10  1  0
 10 11  1  0
 11 12  2  0
 12 13  1  0
 13 14  2  0
 14 15  1  0
 11 16  1  0
 15 16  2  0
 16 17  1  0
 17 18  1  0
 18 19  2  0
 19 20  1  0
 20 21  2  0
 21 22  1  0
 18 23  1  0
 22 23  2  0
  7 24  1  0
  4 25  1  0
 24 25  1  0
M  END
