piperidine-amides-346-covalent
     RDKit          3D

 28 30  0  0  0  0  0  0  0  0999 V2000
    7.1900   -3.3230   19.3920 C   0  0  0  0  0  0  0  0  0  0  0  0
    6.4090   -4.0810   20.3360 C   0  0  0  0  0  0  0  0  0  0  0  0
    5.3530   -4.6640   19.9340 O   0  0  0  0  0  0  0  0  0  0  0  0
    6.8220   -4.2230   21.6710 N   0  0  0  0  0  0  0  0  0  0  0  0
    7.6680   -3.1510   22.2470 C   0  0  0  0  0  0  0  0  0  0  0  0
    6.7460   -2.6650   23.4320 C   0  0  0  0  0  0  0  0  0  0  0  0
    6.5480   -3.9120   24.2510 C   0  0  0  0  0  0  0  0  0  0  0  0
    5.8670   -3.6750   25.6740 C   0  0  0  0  0  0  0  0  0  0  0  0
    5.1940   -4.6480   25.9560 O   0  0  0  0  0  0  0  0  0  0  0  0
    6.1370   -2.5450   26.1810 N   0  0  0  0  0  0  0  0  0  0  0  0
    6.1920   -1.3210   26.7780 C   0  0  0  0  0  0  0  0  0  0  0  0
    5.7940   -0.0560   26.4070 C   0  0  0  0  0  0  0  0  0  0  0  0
    5.9530    1.0650   27.2450 C   0  0  0  0  0  0  0  0  0  0  0  0
    6.5550    0.9450   28.5610 C   0  0  0  0  0  0  0  0  0  0  0  0
    6.6550    2.1350   29.2800 O   0  0  0  0  0  0  0  0  0  0  0  0
    5.4060    2.7260   29.3050 C   0  0  0  0  0  0  0  0  0  0  0  0
    5.4670    3.9850   28.6670 C   0  0  0  0  0  0  0  0  0  0  0  0
    4.5390    5.0540   28.3750 C   0  0  0  0  0  0  0  0  0  0  0  0
    3.3010    4.3690   29.0300 C   0  0  0  0  0  0  0  0  0  0  0  0
    3.1020    3.0080   29.7540 C   0  0  0  0  0  0  0  0  0  0  0  0
    1.9910    2.6500   30.2160 O   0  0  0  0  0  0  0  0  0  0  0  0
    0.7710    2.6970   29.4860 C   0  0  0  0  0  0  0  0  0  0  0  0
    4.2850    2.2190   29.8420 C   0  0  0  0  0  0  0  0  0  0  0  0
    7.0040   -0.3800   29.0200 C   0  0  0  0  0  0  0  0  0  0  0  0
    7.7360   -0.5590   30.6040 Cl  0  0  0  0  0  0  0  0  0  0  0  0
    6.8310   -1.4680   28.1680 C   0  0  0  0  0  0  0  0  0  0  0  0
    5.8800   -5.0880   23.6180 C   0  0  0  0  0  0  0  0  0  0  0  0
    6.6110   -5.4570   22.3720 C   0  0  0  0  0  0  0  0  0  0  0  0
  1  2  1  0
  2  3  2  0
  2  4  1  0
  4  5  1  0
  5  6  1  0
  6  7  1  0
  7  8  1  0
  8  9  2  0
  8 10  1  0
 10 11  1  0
 11 12  2  0
 12 13  1  0
 13 14  2  0
 14 15  1  0
 15 16  1  0
 16 17  2  0
 17 18  1  0
 18 19  2  0
 19 20  1  0
 20 21  1  0
 21 22  1  0
 16 23  1  0
 20 23  2  0
 14 24  1  0
 24 25  1  0
 11 26  1  0
 24 26  2  0
  7 27  1  0
  4 28  1  0
 27 28  1  0
M  END
