piperidine-amides-33292-covalent
     RDKit          3D

 29 31  0  0  0  0  0  0  0  0999 V2000
    7.0650   -3.3670   19.3240 C   0  0  0  0  0  0  0  0  0  0  0  0
    6.4250   -4.2170   20.3390 C   0  0  0  0  0  0  0  0  0  0  0  0
    5.3880   -4.8280   19.9820 O   0  0  0  0  0  0  0  0  0  0  0  0
    6.9900   -4.3800   21.6320 N   0  0  0  0  0  0  0  0  0  0  0  0
    6.5930   -5.5170   22.3930 C   0  0  0  0  0  0  0  0  0  0  0  0
    6.2750   -5.2030   23.7890 C   0  0  0  0  0  0  0  0  0  0  0  0
    6.2260   -3.7530   24.0710 C   0  0  0  0  0  0  0  0  0  0  0  0
    5.6430   -3.3750   25.4050 C   0  0  0  0  0  0  0  0  0  0  0  0
    4.8040   -2.4610   25.4100 O   0  0  0  0  0  0  0  0  0  0  0  0
    5.9350   -3.9930   26.6410 N   0  0  0  0  0  0  0  0  0  0  0  0
    6.7430   -5.1390   26.7780 C   0  0  0  0  0  0  0  0  0  0  0  0
    6.9580   -5.7090   28.0870 C   0  0  0  0  0  0  0  0  0  0  0  0
    6.1170   -4.8850   29.0820 C   0  0  0  0  0  0  0  0  0  0  0  0
    4.7670   -4.8260   28.8430 C   0  0  0  0  0  0  0  0  0  0  0  0
    4.7570   -3.9600   27.5440 C   0  0  1  0  0  0  0  0  0  0  0  0
    4.4930   -2.5820   28.1550 C   0  0  1  0  0  0  0  0  0  0  0  0
    5.0570   -2.9030   29.5280 C   0  0  0  0  0  0  0  0  0  0  0  0
    5.8330   -1.6940   29.8890 C   0  0  0  0  0  0  0  0  0  0  0  0
    5.9740   -0.9130   28.7320 N   0  0  0  0  0  0  0  0  0  0  0  0
    6.0550    0.4120   28.8470 C   0  0  0  0  0  0  0  0  0  0  0  0
    5.0590    1.0850   28.4830 O   0  0  0  0  0  0  0  0  0  0  0  0
    7.1470    1.0840   29.3410 O   0  0  0  0  0  0  0  0  0  0  0  0
    7.0810    2.3120   30.0460 C   0  0  0  0  0  0  0  0  0  0  0  0
    5.8260    2.2160   30.8430 C   0  0  0  0  0  0  0  0  0  0  0  0
    8.1750    2.7030   30.8060 C   0  0  0  0  0  0  0  0  0  0  0  0
    6.5470    3.5440   29.3430 C   0  0  0  0  0  0  0  0  0  0  0  0
    5.1200   -1.3760   27.6580 C   0  0  0  0  0  0  0  0  0  0  0  0
    7.5350   -3.1320   23.7160 C   0  0  0  0  0  0  0  0  0  0  0  0
    7.7180   -3.2790   22.2150 C   0  0  0  0  0  0  0  0  0  0  0  0
  1  2  1  0
  2  3  2  0
  2  4  1  0
  4  5  1  0
  5  6  1  0
  6  7  1  0
  7  8  1  0
  8  9  2  0
  8 10  1  0
 10 11  1  0
 11 12  1  0
 12 13  1  0
 13 14  1  0
 10 15  1  0
 15 14  1  1
 15 16  1  0
 16 17  1  1
 17 18  1  0
 18 19  1  0
 19 20  1  0
 20 21  2  0
 20 22  1  0
 23 22  1  0
 23 24  1  0
 23 25  1  0
 23 26  1  0
 16 27  1  0
 19 27  1  0
  7 28  1  0
  4 29  1  0
 28 29  1  0
M  END
