piperidine-amides-33621-covalent
     RDKit          3D

 30 33  0  0  0  0  0  0  0  0999 V2000
    7.0240   -3.3800   19.3850 C   0  0  0  0  0  0  0  0  0  0  0  0
    6.3800   -4.2800   20.3580 C   0  0  0  0  0  0  0  0  0  0  0  0
    5.3490   -4.8780   19.9780 O   0  0  0  0  0  0  0  0  0  0  0  0
    6.9290   -4.4980   21.6470 N   0  0  0  0  0  0  0  0  0  0  0  0
    6.4590   -5.6270   22.3850 C   0  0  0  0  0  0  0  0  0  0  0  0
    5.8780   -5.2900   23.6940 C   0  0  0  0  0  0  0  0  0  0  0  0
    5.8770   -3.8500   23.9990 C   0  0  0  0  0  0  0  0  0  0  0  0
    5.2460   -3.4620   25.3230 C   0  0  0  0  0  0  0  0  0  0  0  0
    4.3770   -2.5830   25.2990 O   0  0  0  0  0  0  0  0  0  0  0  0
    5.5610   -4.0140   26.5880 N   0  0  0  0  0  0  0  0  0  0  0  0
    6.8290   -4.3050   26.9870 C   0  0  0  0  0  0  0  0  0  0  0  0
    7.1240   -5.4280   27.8480 C   0  0  0  0  0  0  0  0  0  0  0  0
    5.9860   -5.4640   28.8630 C   0  0  0  0  0  0  0  0  0  0  0  0
    5.9840   -6.4050   29.9860 N   0  0  0  0  0  0  0  0  0  0  0  0
    4.6960   -6.0780   30.6940 C   0  0  0  0  0  0  0  0  0  0  0  0
    4.0020   -5.0600   30.0600 N   0  0  0  0  0  0  0  0  0  0  0  0
    4.7560   -4.6620   28.9350 C   0  0  0  0  0  0  0  0  0  0  0  0
    4.7540   -3.7070   27.7630 C   0  0  1  0  0  0  0  0  0  0  0  0
    5.2630   -2.5800   28.6880 C   0  0  0  0  0  0  0  0  0  0  0  0
    6.7060   -2.4150   29.0180 C   0  0  0  0  0  0  0  0  0  0  0  0
    7.0320   -1.2720   29.9210 C   0  0  0  0  0  0  0  0  0  0  0  0
    5.9270   -0.3760   30.4440 C   0  0  0  0  0  0  0  0  0  0  0  0
    6.2970    0.5790   31.2140 O   0  0  0  0  0  0  0  0  0  0  0  0
    7.2890    0.3550   32.1880 C   0  0  0  0  0  0  0  0  0  0  0  0
    4.6000   -0.6150   30.0820 C   0  0  0  0  0  0  0  0  0  0  0  0
    3.6610    0.0580   30.4640 O   0  0  0  0  0  0  0  0  0  0  0  0
    3.1670   -0.4170   31.6610 C   0  0  0  0  0  0  0  0  0  0  0  0
    4.3280   -1.6960   29.2260 C   0  0  0  0  0  0  0  0  0  0  0  0
    7.2470   -3.3300   23.7700 C   0  0  0  0  0  0  0  0  0  0  0  0
    7.5770   -3.3990   22.2950 C   0  0  0  0  0  0  0  0  0  0  0  0
  1  2  1  0
  2  3  2  0
  2  4  1  0
  4  5  1  0
  5  6  1  0
  6  7  1  0
  7  8  1  0
  8  9  2  0
  8 10  1  0
 10 11  1  0
 11 12  1  0
 12 13  1  0
 13 14  1  0
 14 15  2  0
 15 16  1  0
 13 17  2  0
 16 17  1  0
 10 18  1  0
 17 18  1  0
 18 19  1  1
 19 20  2  0
 20 21  1  0
 21 22  2  0
 22 23  1  0
 23 24  1  0
 22 25  1  0
 25 26  1  0
 26 27  1  0
 19 28  1  0
 25 28  2  0
  7 29  1  0
  4 30  1  0
 29 30  1  0
M  END
