piperidine-amides-29397-covalent
     RDKit          3D

 27 30  0  0  0  0  0  0  0  0999 V2000
    7.0130   -3.3440   19.3900 C   0  0  0  0  0  0  0  0  0  0  0  0
    6.3790   -4.2000   20.3970 C   0  0  0  0  0  0  0  0  0  0  0  0
    5.4390   -4.9220   20.0070 O   0  0  0  0  0  0  0  0  0  0  0  0
    6.8370   -4.2300   21.7530 N   0  0  0  0  0  0  0  0  0  0  0  0
    7.6970   -3.1640   22.2390 C   0  0  0  0  0  0  0  0  0  0  0  0
    7.5230   -2.9470   23.7210 C   0  0  0  0  0  0  0  0  0  0  0  0
    6.1690   -3.5140   24.0510 C   0  0  0  0  0  0  0  0  0  0  0  0
    5.5970   -3.0600   25.3850 C   0  0  0  0  0  0  0  0  0  0  0  0
    4.3710   -3.0180   25.3970 O   0  0  0  0  0  0  0  0  0  0  0  0
    6.3970   -2.7090   26.4940 N   0  0  0  0  0  0  0  0  0  0  0  0
    6.3280   -3.4280   27.7220 C   0  0  0  0  0  0  0  0  0  0  0  0
    5.8710   -4.7340   27.8020 C   0  0  0  0  0  0  0  0  0  0  0  0
    4.9720   -5.3160   26.9300 C   0  0  0  0  0  0  0  0  0  0  0  0
    4.4840   -6.6280   27.0090 C   0  0  0  0  0  0  0  0  0  0  0  0
    5.0120   -7.4340   28.1650 C   0  0  0  0  0  0  0  0  0  0  0  0
    6.0100   -6.7970   29.1230 C   0  0  0  0  0  0  0  0  0  0  0  0
    6.3770   -5.4260   28.8470 C   0  0  0  0  0  0  0  0  0  0  0  0
    6.6230   -1.2880   26.7750 C   0  0  1  0  0  0  0  0  0  0  0  0
    5.8360   -0.3960   25.8130 C   0  0  0  0  0  0  0  0  0  0  0  0
    5.6520    0.7620   26.4820 C   0  0  0  0  0  0  0  0  0  0  0  0
    6.1840    0.6840   27.7330 C   0  0  0  0  0  0  0  0  0  0  0  0
    6.3570   -0.7870   28.0880 C   0  0  0  0  0  0  0  0  0  0  0  0
    5.2500   -1.3750   28.9090 C   0  0  0  0  0  0  0  0  0  0  0  0
    6.1690   -1.7240   29.9240 C   0  0  0  0  0  0  0  0  0  0  0  0
    7.3520   -1.0390   29.2590 C   0  0  0  0  0  0  0  0  0  0  0  0
    6.0510   -4.9960   23.8770 C   0  0  0  0  0  0  0  0  0  0  0  0
    6.6180   -5.4240   22.5360 C   0  0  0  0  0  0  0  0  0  0  0  0
  1  2  1  0
  2  3  2  0
  2  4  1  0
  4  5  1  0
  5  6  1  0
  6  7  1  0
  7  8  1  0
  8  9  2  0
  8 10  1  0
 10 11  1  0
 11 12  1  0
 12 13  2  0
 13 14  1  0
 14 15  2  0
 15 16  1  0
 12 17  1  0
 16 17  2  0
 18 10  1  1
 18 19  1  0
 19 20  1  0
 20 21  1  0
 18 22  1  0
 22 21  1  0
 22 23  1  0
 23 24  1  0
 22 25  1  0
 24 25  1  0
  7 26  1  0
  4 27  1  0
 26 27  1  0
M  END
