piperidine-amides-27685-covalent
     RDKit          3D

 26 29  0  0  0  0  0  0  0  0999 V2000
    7.0830   -3.3080   19.2690 C   0  0  0  0  0  0  0  0  0  0  0  0
    6.4120   -4.1160   20.2940 C   0  0  0  0  0  0  0  0  0  0  0  0
    5.3490   -4.6940   19.9390 O   0  0  0  0  0  0  0  0  0  0  0  0
    6.9650   -4.2640   21.5720 N   0  0  0  0  0  0  0  0  0  0  0  0
    6.6250   -5.3840   22.4220 C   0  0  0  0  0  0  0  0  0  0  0  0
    5.8960   -4.8620   23.6370 C   0  0  0  0  0  0  0  0  0  0  0  0
    5.8910   -3.3530   23.6860 C   0  0  0  0  0  0  0  0  0  0  0  0
    5.3230   -2.8680   24.9630 C   0  0  0  0  0  0  0  0  0  0  0  0
    4.4510   -3.5700   25.5180 O   0  0  0  0  0  0  0  0  0  0  0  0
    5.7070   -1.6550   25.5760 N   0  0  0  0  0  0  0  0  0  0  0  0
    5.0950   -1.3130   26.8100 C   0  0  0  0  0  0  0  0  0  0  0  0
    6.5030   -1.3350   27.2300 C   0  0  0  0  0  0  0  0  0  0  0  0
    7.0860   -1.3800   25.9610 C   0  0  0  0  0  0  0  0  0  0  0  0
    6.8130   -2.3970   27.8320 O   0  0  0  0  0  0  0  0  0  0  0  0
    6.3150   -2.4370   29.0860 C   0  0  0  0  0  0  0  0  0  0  0  0
    5.6120   -3.5520   29.4940 O   0  0  0  0  0  0  0  0  0  0  0  0
    6.5060   -1.4060   29.9200 N   0  0  0  0  0  0  0  0  0  0  0  0
    6.8910   -0.2640   29.3910 C   0  0  0  0  0  0  0  0  0  0  0  0
    7.2740    0.8300   30.1720 C   0  0  0  0  0  0  0  0  0  0  0  0
    7.6710    2.0160   29.5980 C   0  0  0  0  0  0  0  0  0  0  0  0
    7.7050    2.1700   28.1140 C   0  0  0  0  0  0  0  0  0  0  0  0
    8.1770    3.5790   27.7440 C   0  0  0  0  0  0  0  0  0  0  0  0
    7.3300    1.0920   27.3640 C   0  0  0  0  0  0  0  0  0  0  0  0
    6.8920   -0.2150   28.0100 C   0  0  0  0  0  0  0  0  0  0  0  0
    7.2390   -2.7820   23.4640 C   0  0  0  0  0  0  0  0  0  0  0  0
    7.7660   -3.1960   22.1190 C   0  0  0  0  0  0  0  0  0  0  0  0
  1  2  1  0
  2  3  2  0
  2  4  1  0
  4  5  1  0
  5  6  1  0
  6  7  1  0
  7  8  1  0
  8  9  2  0
  8 10  1  0
 10 11  1  0
 11 12  1  0
 10 13  1  0
 12 13  1  0
 12 14  1  0
 14 15  1  0
 15 16  2  0
 15 17  1  0
 17 18  1  0
 18 19  2  0
 19 20  1  0
 20 21  2  0
 21 22  1  0
 21 23  1  0
 12 24  1  0
 18 24  1  0
 23 24  2  0
  7 25  1  0
  4 26  1  0
 25 26  1  0
M  END
