piperidine-amides-13901-covalent
     RDKit          3D

 26 27  0  0  0  0  0  0  0  0999 V2000
    7.1370   -3.2200   19.1710 C   0  0  0  0  0  0  0  0  0  0  0  0
    6.3110   -3.9710   20.1600 C   0  0  0  0  0  0  0  0  0  0  0  0
    5.2150   -4.4360   19.8210 O   0  0  0  0  0  0  0  0  0  0  0  0
    6.8050   -4.1960   21.4480 N   0  0  0  0  0  0  0  0  0  0  0  0
    7.6990   -3.2770   22.1040 C   0  0  0  0  0  0  0  0  0  0  0  0
    7.0030   -2.7480   23.3550 C   0  0  0  0  0  0  0  0  0  0  0  0
    6.1560   -3.8240   23.9740 C   0  0  0  0  0  0  0  0  0  0  0  0
    6.0560   -3.5960   25.4150 C   0  0  0  0  0  0  0  0  0  0  0  0
    4.9640   -3.2100   25.8500 O   0  0  0  0  0  0  0  0  0  0  0  0
    7.2120   -3.8440   26.1770 N   0  0  0  0  0  0  0  0  0  0  0  0
    7.4130   -3.6250   27.5560 C   0  0  0  0  0  0  0  0  0  0  0  0
    7.7730   -2.4020   28.0770 C   0  0  0  0  0  0  0  0  0  0  0  0
    6.8060   -1.4020   28.3550 C   0  0  2  0  0  0  0  0  0  0  0  0
    6.5200   -0.6980   27.1920 O   0  0  0  0  0  0  0  0  0  0  0  0
    7.1500   -0.4950   29.3440 C   0  0  0  0  0  0  0  0  0  0  0  0
    6.3510    0.7440   29.5210 C   0  0  0  0  0  0  0  0  0  0  0  0
    6.6360    1.8120   30.5730 C   0  0  0  0  0  0  0  0  0  0  0  0
    7.8400    1.5020   31.4550 C   0  0  0  0  0  0  0  0  0  0  0  0
    8.5550    0.3360   31.2510 C   0  0  0  0  0  0  0  0  0  0  0  0
    8.2170   -0.6690   30.1990 C   0  0  0  0  0  0  0  0  0  0  0  0
    5.5280   -1.9090   28.6850 C   0  0  0  0  0  0  0  0  0  0  0  0
    4.7200   -1.9010   27.5820 F   0  0  0  0  0  0  0  0  0  0  0  0
    4.9230   -1.0650   29.5830 F   0  0  0  0  0  0  0  0  0  0  0  0
    5.5540   -3.1680   29.2390 F   0  0  0  0  0  0  0  0  0  0  0  0
    6.6770   -5.1470   23.6250 C   0  0  0  0  0  0  0  0  0  0  0  0
    6.4270   -5.3860   22.1350 C   0  0  0  0  0  0  0  0  0  0  0  0
  1  2  1  0
  2  3  2  0
  2  4  1  0
  4  5  1  0
  5  6  1  0
  6  7  1  0
  7  8  1  0
  8  9  2  0
  8 10  1  0
 10 11  1  0
 11 12  1  0
 12 13  1  0
 13 14  1  6
 13 15  1  0
 15 16  2  0
 16 17  1  0
 17 18  2  0
 18 19  1  0
 15 20  1  0
 19 20  2  0
 13 21  1  0
 21 22  1  0
 21 23  1  0
 21 24  1  0
  7 25  1  0
  4 26  1  0
 25 26  1  0
M  END
