piperidine-amides-32893-covalent
     RDKit          3D

 29 31  0  0  0  0  0  0  0  0999 V2000
    7.0330   -3.3380   19.3480 C   0  0  0  0  0  0  0  0  0  0  0  0
    6.3380   -4.2030   20.3420 C   0  0  0  0  0  0  0  0  0  0  0  0
    5.3470   -4.8530   19.9760 O   0  0  0  0  0  0  0  0  0  0  0  0
    6.8480   -4.3030   21.6610 N   0  0  0  0  0  0  0  0  0  0  0  0
    6.7060   -5.5510   22.3920 C   0  0  0  0  0  0  0  0  0  0  0  0
    6.2300   -5.2630   23.8270 C   0  0  0  0  0  0  0  0  0  0  0  0
    6.1780   -3.7860   24.0030 C   0  0  0  0  0  0  0  0  0  0  0  0
    5.5530   -3.3510   25.2790 C   0  0  0  0  0  0  0  0  0  0  0  0
    4.5220   -2.6800   25.1660 O   0  0  0  0  0  0  0  0  0  0  0  0
    6.0790   -3.6820   26.5260 N   0  0  0  0  0  0  0  0  0  0  0  0
    6.3890   -2.7830   27.5480 C   0  0  0  0  0  0  0  0  0  0  0  0
    6.5180   -3.4270   28.7340 C   0  0  0  0  0  0  0  0  0  0  0  0
    5.7650   -4.5850   28.6770 C   0  0  1  0  0  0  0  0  0  0  0  0
    4.5020   -4.3110   29.3510 N   0  0  0  0  0  0  0  0  0  0  0  0
    3.7810   -5.1860   30.0960 C   0  0  0  0  0  0  0  0  0  0  0  0
    4.0890   -5.4500   31.3530 O   0  0  0  0  0  0  0  0  0  0  0  0
    2.6000   -5.8850   29.5330 C   0  0  0  0  0  0  0  0  0  0  0  0
    1.3040   -5.2310   29.0870 C   0  0  0  0  0  0  0  0  0  0  0  0
    0.3040   -6.2440   28.5630 C   0  0  0  0  0  0  0  0  0  0  0  0
    0.4140   -7.6140   28.4490 C   0  0  0  0  0  0  0  0  0  0  0  0
   -0.6290   -8.2950   27.9500 N   0  0  0  0  0  0  0  0  0  0  0  0
   -0.9370   -8.0410   26.7050 O   0  0  0  0  0  0  0  0  0  0  0  0
   -1.3640   -9.0650   28.7220 O   0  0  0  0  0  0  0  0  0  0  0  0
    1.6670   -8.3150   28.8740 C   0  0  0  0  0  0  0  0  0  0  0  0
    2.7420   -7.3630   29.4170 C   0  0  0  0  0  0  0  0  0  0  0  0
    3.9640   -7.8130   29.8540 C   0  0  0  0  0  0  0  0  0  0  0  0
    5.5520   -4.8280   27.2780 C   0  0  0  0  0  0  0  0  0  0  0  0
    7.4760   -3.1200   23.7230 C   0  0  0  0  0  0  0  0  0  0  0  0
    7.6770   -3.2360   22.2160 C   0  0  0  0  0  0  0  0  0  0  0  0
  1  2  1  0
  2  3  2  0
  2  4  1  0
  4  5  1  0
  5  6  1  0
  6  7  1  0
  7  8  1  0
  8  9  2  0
  8 10  1  0
 10 11  1  0
 11 12  1  0
 12 13  1  0
 13 14  1  1
 14 15  1  0
 15 16  2  0
 15 17  1  0
 17 18  2  0
 18 19  1  0
 19 20  2  0
 20 21  1  0
 21 22  2  0
 21 23  1  0
 20 24  1  0
 17 25  1  0
 24 25  2  0
 25 26  1  0
 10 27  1  0
 13 27  1  0
  7 28  1  0
  4 29  1  0
 28 29  1  0
M  CHG  2  21   1  23  -1
M  END
