piperidine-amides-24813-covalent
     RDKit          3D

 24 26  0  0  0  0  0  0  0  0999 V2000
    7.0910   -3.3670   19.4040 C   0  0  0  0  0  0  0  0  0  0  0  0
    6.4080   -4.2410   20.3650 C   0  0  0  0  0  0  0  0  0  0  0  0
    5.3990   -4.8900   19.9970 O   0  0  0  0  0  0  0  0  0  0  0  0
    6.9060   -4.3910   21.6700 N   0  0  0  0  0  0  0  0  0  0  0  0
    6.6400   -5.6360   22.3770 C   0  0  0  0  0  0  0  0  0  0  0  0
    6.3090   -5.3080   23.8460 C   0  0  0  0  0  0  0  0  0  0  0  0
    6.1090   -3.8150   23.8920 C   0  0  0  0  0  0  0  0  0  0  0  0
    5.5190   -3.3000   25.1460 C   0  0  0  0  0  0  0  0  0  0  0  0
    4.6540   -2.4180   25.0130 O   0  0  0  0  0  0  0  0  0  0  0  0
    5.8440   -3.7310   26.4480 N   0  0  0  0  0  0  0  0  0  0  0  0
    4.7480   -4.4150   27.0910 C   0  0  0  0  0  0  0  0  0  0  0  0
    5.0980   -4.9550   28.4670 C   0  0  0  0  0  0  0  0  0  0  0  0
    5.8260   -4.1810   29.2900 C   0  0  0  0  0  0  0  0  0  0  0  0
    5.2550   -3.2880   29.9930 O   0  0  0  0  0  0  0  0  0  0  0  0
    3.9020   -3.1160   29.9010 C   0  0  0  0  0  0  0  0  0  0  0  0
    3.1960   -3.6260   30.9960 C   0  0  1  0  0  0  0  0  0  0  0  0
    3.2190   -2.8160   32.0880 C   0  0  0  0  0  0  0  0  0  0  0  0
    2.0370   -1.8640   32.3490 C   0  0  0  0  0  0  0  0  0  0  0  0
    1.4360   -3.1680   31.7950 C   0  0  0  0  0  0  0  0  0  0  0  0
    1.8860   -3.7810   30.7720 O   0  0  0  0  0  0  0  0  0  0  0  0
    6.8050   -3.7170   28.5540 C   0  0  0  0  0  0  0  0  0  0  0  0
    6.3630   -2.8720   27.4630 C   0  0  0  0  0  0  0  0  0  0  0  0
    7.4000   -3.1520   23.5800 C   0  0  0  0  0  0  0  0  0  0  0  0
    7.6580   -3.3120   22.2610 C   0  0  0  0  0  0  0  0  0  0  0  0
  1  2  1  0
  2  3  2  0
  2  4  1  0
  4  5  1  0
  5  6  1  0
  6  7  1  0
  7  8  1  0
  8  9  2  0
  8 10  1  0
 10 11  1  0
 11 12  1  0
 12 13  1  0
 13 14  1  0
 14 15  1  0
 16 15  1  6
 16 17  1  0
 17 18  1  0
 18 19  1  0
 16 20  1  0
 19 20  1  0
 13 21  1  0
 10 22  1  0
 21 22  1  0
  7 23  1  0
  4 24  1  0
 23 24  1  0
M  END
