piperidine-amides-25571-covalent
     RDKit          3D

 25 27  0  0  0  0  0  0  0  0999 V2000
    7.0320   -3.3440   19.3020 C   0  0  0  0  0  0  0  0  0  0  0  0
    6.3730   -4.1950   20.3290 C   0  0  0  0  0  0  0  0  0  0  0  0
    5.3810   -4.8280   19.9740 O   0  0  0  0  0  0  0  0  0  0  0  0
    6.9000   -4.2880   21.6200 N   0  0  0  0  0  0  0  0  0  0  0  0
    6.7110   -5.4770   22.4210 C   0  0  0  0  0  0  0  0  0  0  0  0
    6.0250   -5.0970   23.7020 C   0  0  0  0  0  0  0  0  0  0  0  0
    6.1110   -3.5770   23.8390 C   0  0  0  0  0  0  0  0  0  0  0  0
    5.7250   -3.1320   25.1940 C   0  0  0  0  0  0  0  0  0  0  0  0
    5.2390   -2.0110   25.3470 O   0  0  0  0  0  0  0  0  0  0  0  0
    5.8520   -3.9630   26.3110 N   0  0  0  0  0  0  0  0  0  0  0  0
    4.7870   -4.1650   27.2030 C   0  0  0  0  0  0  0  0  0  0  0  0
    3.3450   -3.9750   26.7870 C   0  0  0  0  0  0  0  0  0  0  0  0
    2.2890   -4.1860   27.6730 C   0  0  0  0  0  0  0  0  0  0  0  0
    2.5670   -4.5810   28.9710 C   0  0  0  0  0  0  0  0  0  0  0  0
    3.8580   -4.7640   29.3900 C   0  0  0  0  0  0  0  0  0  0  0  0
    4.9880   -4.5390   28.4480 C   0  0  0  0  0  0  0  0  0  0  0  0
    6.2930   -4.7920   29.1070 C   0  0  0  0  0  0  0  0  0  0  0  0
    7.0760   -5.2760   27.9260 C   0  0  0  0  0  0  0  0  0  0  0  0
    7.0960   -4.0960   26.9920 C   0  0  1  0  0  0  0  0  0  0  0  0
    8.2020   -4.2560   26.0720 C   0  0  0  0  0  0  0  0  0  0  0  0
    9.1150   -5.1000   26.6540 N   0  0  0  0  0  0  0  0  0  0  0  0
    9.6540   -6.1190   25.9580 C   0  0  0  0  0  0  0  0  0  0  0  0
    8.9000   -5.4520   28.0220 C   0  0  0  0  0  0  0  0  0  0  0  0
    7.5070   -3.0780   23.5070 C   0  0  0  0  0  0  0  0  0  0  0  0
    7.7320   -3.2080   22.1590 C   0  0  0  0  0  0  0  0  0  0  0  0
  1  2  1  0
  2  3  2  0
  2  4  1  0
  4  5  1  0
  5  6  1  0
  6  7  1  0
  7  8  1  0
  8  9  2  0
  8 10  1  0
 10 11  1  0
 11 12  2  0
 12 13  1  0
 13 14  2  0
 14 15  1  0
 11 16  1  0
 15 16  2  0
 16 17  1  0
 17 18  1  0
 10 19  1  0
 18 19  1  0
 19 20  1  6
 20 21  1  0
 21 22  1  0
 21 23  1  0
  7 24  1  0
  4 25  1  0
 24 25  1  0
M  END
