piperidine-amides-3264-covalent
     RDKit          3D

 22 23  0  0  0  0  0  0  0  0999 V2000
    7.1670   -3.2490   19.1320 C   0  0  0  0  0  0  0  0  0  0  0  0
    6.3640   -3.9690   20.1130 C   0  0  0  0  0  0  0  0  0  0  0  0
    5.2700   -4.4560   19.8350 O   0  0  0  0  0  0  0  0  0  0  0  0
    6.9050   -4.1570   21.4090 N   0  0  0  0  0  0  0  0  0  0  0  0
    6.5230   -5.3180   22.1640 C   0  0  0  0  0  0  0  0  0  0  0  0
    5.9170   -4.8870   23.4660 C   0  0  0  0  0  0  0  0  0  0  0  0
    6.8100   -3.8070   24.0610 C   0  0  0  0  0  0  0  0  0  0  0  0
    6.1070   -3.2380   25.2120 C   0  0  0  0  0  0  0  0  0  0  0  0
    5.1400   -2.4590   25.0840 O   0  0  0  0  0  0  0  0  0  0  0  0
    6.5810   -3.6040   26.4720 N   0  0  0  0  0  0  0  0  0  0  0  0
    6.1630   -4.8830   26.9700 C   0  0  0  0  0  0  0  0  0  0  0  0
    4.9970   -4.5520   27.8580 C   0  0  2  0  0  0  0  0  0  0  0  0
    4.0540   -3.6650   27.3780 C   0  0  0  0  0  0  0  0  0  0  0  0
    4.3230   -2.4030   27.8910 C   0  0  0  0  0  0  0  0  0  0  0  0
    5.3750   -2.6320   28.7930 N   0  0  0  0  0  0  0  0  0  0  0  0
    6.5530   -1.8410   28.7990 C   0  0  0  0  0  0  0  0  0  0  0  0
    7.7630   -2.6050   28.4550 C   0  0  0  0  0  0  0  0  0  0  0  0
    6.6930   -0.9490   27.7680 C   0  0  0  0  0  0  0  0  0  0  0  0
    6.6150   -1.0930   29.9560 C   0  0  0  0  0  0  0  0  0  0  0  0
    5.4160   -3.9820   29.0290 C   0  0  0  0  0  0  0  0  0  0  0  0
    7.2390   -2.7280   23.1970 C   0  0  0  0  0  0  0  0  0  0  0  0
    7.7450   -3.1520   22.0030 C   0  0  0  0  0  0  0  0  0  0  0  0
  1  2  1  0
  2  3  2  0
  2  4  1  0
  4  5  1  0
  5  6  1  0
  6  7  1  0
  7  8  1  0
  8  9  2  0
  8 10  1  0
 10 11  1  0
 12 11  1  6
 12 13  1  0
 13 14  1  0
 14 15  1  0
 15 16  1  0
 16 17  1  0
 16 18  1  0
 16 19  1  0
 12 20  1  0
 15 20  1  0
  7 21  1  0
  4 22  1  0
 21 22  1  0
M  END
