piperidine-amides-10057-covalent
     RDKit          3D

 26 28  0  0  0  0  0  0  0  0999 V2000
    7.1020   -3.2700   19.2360 C   0  0  0  0  0  0  0  0  0  0  0  0
    6.3590   -4.0410   20.2410 C   0  0  0  0  0  0  0  0  0  0  0  0
    5.2620   -4.5290   19.8720 O   0  0  0  0  0  0  0  0  0  0  0  0
    6.8850   -4.2590   21.5130 N   0  0  0  0  0  0  0  0  0  0  0  0
    6.6500   -5.5010   22.2200 C   0  0  0  0  0  0  0  0  0  0  0  0
    5.8910   -5.2080   23.4880 C   0  0  0  0  0  0  0  0  0  0  0  0
    5.8660   -3.7400   23.8140 C   0  0  0  0  0  0  0  0  0  0  0  0
    5.4050   -3.5460   25.2060 C   0  0  0  0  0  0  0  0  0  0  0  0
    4.2090   -3.2170   25.3640 O   0  0  0  0  0  0  0  0  0  0  0  0
    6.2100   -3.7210   26.3520 N   0  0  0  0  0  0  0  0  0  0  0  0
    5.6280   -3.6230   27.6720 C   0  0  0  0  0  0  0  0  0  0  0  0
    5.3930   -2.1650   28.0740 C   0  0  2  0  0  0  0  0  0  0  0  0
    5.1420   -1.2010   27.1360 C   0  0  0  0  0  0  0  0  0  0  0  0
    6.3270   -0.6280   26.7680 C   0  0  0  0  0  0  0  0  0  0  0  0
    7.2320   -1.2230   27.5660 N   0  0  0  0  0  0  0  0  0  0  0  0
    8.0090   -2.1580   27.0160 C   0  0  0  0  0  0  0  0  0  0  0  0
    8.5510   -2.2330   25.7540 C   0  0  0  0  0  0  0  0  0  0  0  0
    9.3360   -3.2670   25.3120 C   0  0  0  0  0  0  0  0  0  0  0  0
    9.7320   -4.4850   26.1250 C   0  0  0  0  0  0  0  0  0  0  0  0
   10.4960   -5.4940   25.7180 F   0  0  0  0  0  0  0  0  0  0  0  0
    9.0990   -4.3420   27.4960 C   0  0  0  0  0  0  0  0  0  0  0  0
    9.4210   -5.4330   28.2820 F   0  0  0  0  0  0  0  0  0  0  0  0
    8.2570   -3.1710   27.8900 C   0  0  0  0  0  0  0  0  0  0  0  0
    6.5150   -1.6780   28.7680 C   0  0  0  0  0  0  0  0  0  0  0  0
    7.1690   -3.0710   23.5720 C   0  0  0  0  0  0  0  0  0  0  0  0
    7.6440   -3.2220   22.1530 C   0  0  0  0  0  0  0  0  0  0  0  0
  1  2  1  0
  2  3  2  0
  2  4  1  0
  4  5  1  0
  5  6  1  0
  6  7  1  0
  7  8  1  0
  8  9  2  0
  8 10  1  0
 10 11  1  0
 12 11  1  6
 12 13  1  0
 13 14  1  0
 14 15  1  0
 15 16  1  0
 16 17  2  0
 17 18  1  0
 18 19  2  0
 19 20  1  0
 19 21  1  0
 21 22  1  0
 16 23  1  0
 21 23  2  0
 12 24  1  0
 15 24  1  0
  7 25  1  0
  4 26  1  0
 25 26  1  0
M  END
