piperidine-amides-10446-covalent
     RDKit          3D

 24 26  0  0  0  0  0  0  0  0999 V2000
    7.1000   -3.2560   19.2080 C   0  0  0  0  0  0  0  0  0  0  0  0
    6.3440   -4.0060   20.2190 C   0  0  0  0  0  0  0  0  0  0  0  0
    5.2470   -4.4930   19.8550 O   0  0  0  0  0  0  0  0  0  0  0  0
    6.8570   -4.2050   21.4990 N   0  0  0  0  0  0  0  0  0  0  0  0
    7.6590   -3.1970   22.1540 C   0  0  0  0  0  0  0  0  0  0  0  0
    6.9200   -2.7250   23.3700 C   0  0  0  0  0  0  0  0  0  0  0  0
    6.5450   -3.8770   24.2550 C   0  0  0  0  0  0  0  0  0  0  0  0
    5.8130   -3.4120   25.4560 C   0  0  0  0  0  0  0  0  0  0  0  0
    4.5690   -3.2910   25.3810 O   0  0  0  0  0  0  0  0  0  0  0  0
    6.4560   -3.0840   26.6660 N   0  0  0  0  0  0  0  0  0  0  0  0
    6.1820   -3.7650   27.9170 C   0  0  0  0  0  0  0  0  0  0  0  0
    6.1360   -5.2930   27.8430 C   0  0  0  0  0  0  0  0  0  0  0  0
    5.3150   -6.0720   28.6090 C   0  0  0  0  0  0  0  0  0  0  0  0
    5.6010   -6.6470   29.8330 C   0  0  0  0  0  0  0  0  0  0  0  0
    4.6430   -7.4100   30.4910 C   0  0  0  0  0  0  0  0  0  0  0  0
    3.4000   -7.5950   29.9140 C   0  0  0  0  0  0  0  0  0  0  0  0
    2.3890   -8.3470   30.5250 C   0  0  0  0  0  0  0  0  0  0  0  0
    0.9830   -8.6490   30.0300 C   0  0  0  0  0  0  0  0  0  0  0  0
    0.7200   -8.0110   28.6880 C   0  0  0  0  0  0  0  0  0  0  0  0
    1.7550   -7.1980   27.9920 C   0  0  0  0  0  0  0  0  0  0  0  0
    3.1300   -6.9510   28.5650 C   0  0  0  0  0  0  0  0  0  0  0  0
    4.1210   -6.2100   27.9730 C   0  0  0  0  0  0  0  0  0  0  0  0
    5.6930   -4.8530   23.4610 C   0  0  0  0  0  0  0  0  0  0  0  0
    6.5040   -5.3690   22.2830 C   0  0  0  0  0  0  0  0  0  0  0  0
  1  2  1  0
  2  3  2  0
  2  4  1  0
  4  5  1  0
  5  6  1  0
  6  7  1  0
  7  8  1  0
  8  9  2  0
  8 10  1  0
 10 11  1  0
 11 12  1  0
 12 13  1  0
 13 14  2  0
 14 15  1  0
 15 16  2  0
 16 17  1  0
 17 18  2  0
 18 19  1  0
 19 20  2  0
 16 21  1  0
 20 21  1  0
 13 22  1  0
 21 22  2  0
  7 23  1  0
  4 24  1  0
 23 24  1  0
M  END
