piperidine-amides-27487-covalent
     RDKit          3D

 26 28  0  0  0  0  0  0  0  0999 V2000
    7.0270   -3.3600   19.3730 C   0  0  0  0  0  0  0  0  0  0  0  0
    6.3880   -4.2150   20.3740 C   0  0  0  0  0  0  0  0  0  0  0  0
    5.3860   -4.8730   19.9870 O   0  0  0  0  0  0  0  0  0  0  0  0
    6.9100   -4.3120   21.6730 N   0  0  0  0  0  0  0  0  0  0  0  0
    6.7540   -5.5260   22.4480 C   0  0  0  0  0  0  0  0  0  0  0  0
    6.1820   -5.1720   23.7970 C   0  0  0  0  0  0  0  0  0  0  0  0
    6.0910   -3.6790   23.9580 C   0  0  0  0  0  0  0  0  0  0  0  0
    5.5520   -3.2360   25.2660 C   0  0  0  0  0  0  0  0  0  0  0  0
    4.8450   -2.2110   25.2610 O   0  0  0  0  0  0  0  0  0  0  0  0
    5.7350   -3.8680   26.5060 N   0  0  0  0  0  0  0  0  0  0  0  0
    4.7010   -4.6970   27.0180 C   0  0  0  0  0  0  0  0  0  0  0  0
    4.9830   -5.1220   28.4630 C   0  0  0  0  0  0  0  0  0  0  0  0
    5.6720   -4.4070   29.4070 C   0  0  0  0  0  0  0  0  0  0  0  0
    5.1350   -3.2300   29.9930 O   0  0  0  0  0  0  0  0  0  0  0  0
    3.9100   -3.1030   30.5360 C   0  0  0  0  0  0  0  0  0  0  0  0
    3.2160   -4.2550   30.9340 C   0  0  0  0  0  0  0  0  0  0  0  0
    1.9520   -4.2020   31.5030 C   0  0  0  0  0  0  0  0  0  0  0  0
    1.3350   -2.9990   31.6980 C   0  0  0  0  0  0  0  0  0  0  0  0
    2.0610   -1.7610   31.2790 C   0  0  0  0  0  0  0  0  0  0  0  0
    1.1900   -0.5400   31.5880 C   0  0  0  0  0  0  0  0  0  0  0  0
    1.5740    0.2220   32.7060 N   0  0  0  0  0  0  0  0  0  0  0  0
    3.3110   -1.8600   30.7190 C   0  0  0  0  0  0  0  0  0  0  0  0
    6.7490   -4.1220   28.4410 C   0  0  0  0  0  0  0  0  0  0  0  0
    6.3340   -3.1700   27.5360 C   0  0  0  0  0  0  0  0  0  0  0  0
    7.4690   -3.1100   23.7000 C   0  0  0  0  0  0  0  0  0  0  0  0
    7.7840   -3.2750   22.2230 C   0  0  0  0  0  0  0  0  0  0  0  0
  1  2  1  0
  2  3  2  0
  2  4  1  0
  4  5  1  0
  5  6  1  0
  6  7  1  0
  7  8  1  0
  8  9  2  0
  8 10  1  0
 10 11  1  0
 11 12  1  0
 12 13  1  0
 13 14  1  0
 14 15  1  0
 15 16  2  0
 16 17  1  0
 17 18  2  0
 18 19  1  0
 19 20  1  0
 20 21  3  0
 15 22  1  0
 19 22  2  0
 13 23  1  0
 10 24  1  0
 23 24  1  0
  7 25  1  0
  4 26  1  0
 25 26  1  0
M  END
