piperidine-amides-35331-covalent
     RDKit          3D

 30 32  0  0  0  0  0  0  0  0999 V2000
    7.0950   -3.2500   19.2170 C   0  0  0  0  0  0  0  0  0  0  0  0
    6.3460   -4.0480   20.2250 C   0  0  0  0  0  0  0  0  0  0  0  0
    5.2760   -4.5360   19.8730 O   0  0  0  0  0  0  0  0  0  0  0  0
    6.8850   -4.2650   21.4920 N   0  0  0  0  0  0  0  0  0  0  0  0
    7.6320   -3.2570   22.2060 C   0  0  0  0  0  0  0  0  0  0  0  0
    6.8410   -2.8100   23.4000 C   0  0  0  0  0  0  0  0  0  0  0  0
    6.4760   -4.0200   24.2640 C   0  0  0  0  0  0  0  0  0  0  0  0
    5.6940   -3.5260   25.4180 C   0  0  0  0  0  0  0  0  0  0  0  0
    4.4590   -3.6020   25.3870 O   0  0  0  0  0  0  0  0  0  0  0  0
    6.3150   -2.9490   26.5410 N   0  0  0  0  0  0  0  0  0  0  0  0
    6.5560   -1.5440   26.3980 C   0  0  0  0  0  0  0  0  0  0  0  0
    6.1010   -3.5140   27.8470 C   0  0  0  0  0  0  0  0  0  0  0  0
    6.0190   -2.5310   28.8090 C   0  0  0  0  0  0  0  0  0  0  0  0
    6.9950   -1.5960   28.9130 C   0  0  0  0  0  0  0  0  0  0  0  0
    6.9390   -0.6190   29.8460 C   0  0  0  0  0  0  0  0  0  0  0  0
    5.8120   -0.4840   30.8280 C   0  0  0  0  0  0  0  0  0  0  0  0
    5.8600    0.5460   31.7250 O   0  0  0  0  0  0  0  0  0  0  0  0
    6.9250    1.4150   31.4900 C   0  0  0  0  0  0  0  0  0  0  0  0
    8.2020    0.8410   32.0910 C   0  0  0  0  0  0  0  0  0  0  0  0
    9.4260    1.6800   31.8900 C   0  0  0  0  0  0  0  0  0  0  0  0
    9.3760    2.9710   31.1580 C   0  0  0  0  0  0  0  0  0  0  0  0
   10.8120    3.9450   30.9270 Cl  0  0  0  0  0  0  0  0  0  0  0  0
    8.0490    3.4300   30.6130 C   0  0  0  0  0  0  0  0  0  0  0  0
    6.8300    2.6150   30.8010 C   0  0  0  0  0  0  0  0  0  0  0  0
    5.3160    3.1990   30.1420 Cl  0  0  0  0  0  0  0  0  0  0  0  0
    4.7720   -1.5600   30.6440 C   0  0  0  0  0  0  0  0  0  0  0  0
    4.9220   -2.5190   29.6600 C   0  0  0  0  0  0  0  0  0  0  0  0
    3.6210   -3.7010   29.5820 Cl  0  0  0  0  0  0  0  0  0  0  0  0
    5.7520   -5.0410   23.4420 C   0  0  0  0  0  0  0  0  0  0  0  0
    6.5630   -5.4870   22.2280 C   0  0  0  0  0  0  0  0  0  0  0  0
  1  2  1  0
  2  3  2  0
  2  4  1  0
  4  5  1  0
  5  6  1  0
  6  7  1  0
  7  8  1  0
  8  9  2  0
  8 10  1  0
 10 11  1  0
 10 12  1  0
 12 13  1  0
 13 14  2  0
 14 15  1  0
 15 16  2  0
 16 17  1  0
 17 18  1  0
 18 19  2  0
 19 20  1  0
 20 21  2  0
 21 22  1  0
 21 23  1  0
 18 24  1  0
 23 24  2  0
 24 25  1  0
 16 26  1  0
 13 27  1  0
 26 27  2  0
 27 28  1  0
  7 29  1  0
  4 30  1  0
 29 30  1  0
M  END
