piperidine-amides-8559-covalent
     RDKit          3D

 23 24  0  0  0  0  0  0  0  0999 V2000
    7.0920   -3.2630   19.2070 C   0  0  0  0  0  0  0  0  0  0  0  0
    6.3490   -4.0090   20.2280 C   0  0  0  0  0  0  0  0  0  0  0  0
    5.2990   -4.5850   19.8930 O   0  0  0  0  0  0  0  0  0  0  0  0
    6.8390   -4.1000   21.5520 N   0  0  0  0  0  0  0  0  0  0  0  0
    7.7420   -3.0890   22.0450 C   0  0  0  0  0  0  0  0  0  0  0  0
    7.4510   -2.7850   23.4720 C   0  0  0  0  0  0  0  0  0  0  0  0
    6.1000   -3.3830   23.7530 C   0  0  0  0  0  0  0  0  0  0  0  0
    5.7580   -3.1000   25.1760 C   0  0  0  0  0  0  0  0  0  0  0  0
    4.5590   -3.0110   25.4550 O   0  0  0  0  0  0  0  0  0  0  0  0
    6.8280   -2.9580   26.0510 N   0  0  0  0  0  0  0  0  0  0  0  0
    7.0770   -1.7780   26.8160 C   0  0  0  0  0  0  0  0  0  0  0  0
    6.6900   -1.8700   28.1560 C   0  0  1  0  0  0  0  0  0  0  0  0
    5.6010   -1.3690   28.5030 O   0  0  0  0  0  0  0  0  0  0  0  0
    6.5550   -3.1500   28.4960 C   0  0  0  0  0  0  0  0  0  0  0  0
    5.5870   -3.6200   29.3630 C   0  0  0  0  0  0  0  0  0  0  0  0
    5.5850   -5.0830   29.6130 C   0  0  0  0  0  0  0  0  0  0  0  0
    6.5850   -6.0310   28.9560 C   0  0  0  0  0  0  0  0  0  0  0  0
    6.4370   -7.3460   29.3050 F   0  0  0  0  0  0  0  0  0  0  0  0
    7.5850   -5.4140   28.0270 C   0  0  0  0  0  0  0  0  0  0  0  0
    8.9850   -6.1120   26.9670 Br  0  0  0  0  0  0  0  0  0  0  0  0
    7.4510   -3.9680   27.9030 C   0  0  0  0  0  0  0  0  0  0  0  0
    5.9630   -4.8310   23.5240 C   0  0  0  0  0  0  0  0  0  0  0  0
    6.5960   -5.2620   22.3800 C   0  0  0  0  0  0  0  0  0  0  0  0
  1  2  1  0
  2  3  2  0
  2  4  1  0
  4  5  1  0
  5  6  1  0
  6  7  1  0
  7  8  1  0
  8  9  2  0
  8 10  1  0
 10 11  1  0
 11 12  1  0
 12 13  1  6
 12 14  1  0
 14 15  2  0
 15 16  1  0
 16 17  2  0
 17 18  1  0
 17 19  1  0
 19 20  1  0
 14 21  1  0
 19 21  2  0
  7 22  1  0
  4 23  1  0
 22 23  1  0
M  END
