piperidine-amides-14116-covalent
     RDKit          3D

 25 26  0  0  0  0  0  0  0  0999 V2000
    7.1790   -3.2970   19.2230 C   0  0  0  0  0  0  0  0  0  0  0  0
    6.4060   -4.0650   20.2290 C   0  0  0  0  0  0  0  0  0  0  0  0
    5.3140   -4.5540   19.8980 O   0  0  0  0  0  0  0  0  0  0  0  0
    6.9630   -4.2690   21.5070 N   0  0  0  0  0  0  0  0  0  0  0  0
    6.5010   -5.3330   22.3410 C   0  0  0  0  0  0  0  0  0  0  0  0
    5.6560   -4.6370   23.4130 C   0  0  0  0  0  0  0  0  0  0  0  0
    6.5380   -3.7200   24.2130 C   0  0  0  0  0  0  0  0  0  0  0  0
    5.8350   -3.2670   25.4400 C   0  0  0  0  0  0  0  0  0  0  0  0
    4.6740   -2.8820   25.2840 O   0  0  0  0  0  0  0  0  0  0  0  0
    6.4630   -3.2670   26.6900 N   0  0  0  0  0  0  0  0  0  0  0  0
    6.1950   -4.1100   27.8130 C   0  0  0  0  0  0  0  0  0  0  0  0
    5.8610   -5.4560   27.7630 C   0  0  0  0  0  0  0  0  0  0  0  0
    4.8330   -5.9140   26.9260 C   0  0  0  0  0  0  0  0  0  0  0  0
    5.0170   -6.4570   25.6750 O   0  0  0  0  0  0  0  0  0  0  0  0
    3.4830   -5.7770   27.4620 N   0  0  0  0  0  0  0  0  0  0  0  0
    3.1990   -5.0510   28.5730 C   0  0  0  0  0  0  0  0  0  0  0  0
    2.4540   -6.4300   26.8510 C   0  0  0  0  0  0  0  0  0  0  0  0
    1.5170   -5.6210   25.9420 C   0  0  0  0  0  0  0  0  0  0  0  0
    1.6020   -6.2260   24.5340 C   0  0  0  0  0  0  0  0  0  0  0  0
    1.3850   -7.5230   24.2410 N   0  0  0  0  0  0  0  0  0  0  0  0
    2.0910   -7.8920   23.1720 C   0  0  0  0  0  0  0  0  0  0  0  0
    1.7510   -8.3250   25.3990 C   0  0  0  0  0  0  0  0  0  0  0  0
    2.9130   -7.5900   26.0440 C   0  0  0  0  0  0  0  0  0  0  0  0
    6.9990   -2.6330   23.3330 C   0  0  0  0  0  0  0  0  0  0  0  0
    7.7440   -3.2440   22.1380 C   0  0  0  0  0  0  0  0  0  0  0  0
  1  2  1  0
  2  3  2  0
  2  4  1  0
  4  5  1  0
  5  6  1  0
  6  7  1  0
  7  8  1  0
  8  9  2  0
  8 10  1  0
 10 11  1  0
 11 12  1  0
 12 13  1  0
 13 14  2  0
 13 15  1  0
 15 16  1  0
 15 17  1  0
 17 18  1  0
 18 19  1  0
 19 20  1  0
 20 21  1  0
 20 22  1  0
 17 23  1  0
 22 23  1  0
  7 24  1  0
  4 25  1  0
 24 25  1  0
M  END
