piperidine-amides-30280-covalent
     RDKit          3D

 27 29  0  0  0  0  0  0  0  0999 V2000
    7.0190   -3.3700   19.4370 C   0  0  0  0  0  0  0  0  0  0  0  0
    6.3680   -4.2440   20.4080 C   0  0  0  0  0  0  0  0  0  0  0  0
    5.4280   -4.9430   20.0170 O   0  0  0  0  0  0  0  0  0  0  0  0
    6.8280   -4.3400   21.7860 N   0  0  0  0  0  0  0  0  0  0  0  0
    7.6320   -3.2810   22.3900 C   0  0  0  0  0  0  0  0  0  0  0  0
    7.1530   -2.9620   23.7940 C   0  0  0  0  0  0  0  0  0  0  0  0
    5.8180   -3.6610   23.9290 C   0  0  0  0  0  0  0  0  0  0  0  0
    4.9160   -3.2150   25.0700 C   0  0  0  0  0  0  0  0  0  0  0  0
    3.7480   -2.9000   24.8170 O   0  0  0  0  0  0  0  0  0  0  0  0
    5.2710   -3.1120   26.4430 N   0  0  0  0  0  0  0  0  0  0  0  0
    4.2810   -3.4620   27.4530 C   0  0  0  0  0  0  0  0  0  0  0  0
    5.0420   -3.9580   28.6890 C   0  0  1  0  0  0  0  0  0  0  0  0
    5.2020   -5.2890   29.0050 C   0  0  0  0  0  0  0  0  0  0  0  0
    6.3370   -5.7100   29.3360 O   0  0  0  0  0  0  0  0  0  0  0  0
    4.2040   -6.2330   28.9880 O   0  0  0  0  0  0  0  0  0  0  0  0
    4.3910   -7.5960   28.8060 C   0  0  0  0  0  0  0  0  0  0  0  0
    6.4660   -3.4660   28.3200 C   0  0  2  0  0  0  0  0  0  0  0  0
    6.2840   -2.1650   28.9810 C   0  0  0  0  0  0  0  0  0  0  0  0
    5.1140   -1.4580   29.2030 C   0  0  0  0  0  0  0  0  0  0  0  0
    4.9880   -0.2420   29.8320 C   0  0  0  0  0  0  0  0  0  0  0  0
    6.0760    0.4380   30.3390 C   0  0  0  0  0  0  0  0  0  0  0  0
    6.0140    1.6350   30.9720 F   0  0  0  0  0  0  0  0  0  0  0  0
    7.3190   -0.2900   30.1120 C   0  0  0  0  0  0  0  0  0  0  0  0
    7.4130   -1.5160   29.4690 C   0  0  0  0  0  0  0  0  0  0  0  0
    6.4870   -3.4400   26.9780 C   0  0  0  0  0  0  0  0  0  0  0  0
    6.0150   -5.1560   23.9080 C   0  0  0  0  0  0  0  0  0  0  0  0
    6.6280   -5.5540   22.5460 C   0  0  0  0  0  0  0  0  0  0  0  0
  1  2  1  0
  2  3  2  0
  2  4  1  0
  4  5  1  0
  5  6  1  0
  6  7  1  0
  7  8  1  0
  8  9  2  0
  8 10  1  0
 10 11  1  0
 11 12  1  0
 12 13  1  6
 13 14  2  0
 13 15  1  0
 15 16  1  0
 12 17  1  0
 17 18  1  1
 18 19  2  0
 19 20  1  0
 20 21  2  0
 21 22  1  0
 21 23  1  0
 18 24  1  0
 23 24  2  0
 10 25  1  0
 17 25  1  0
  7 26  1  0
  4 27  1  0
 26 27  1  0
M  END
