piperidine-amides-33820-covalent
     RDKit          3D

 30 32  0  0  0  0  0  0  0  0999 V2000
    7.2100   -3.2920   19.1450 C   0  0  0  0  0  0  0  0  0  0  0  0
    6.4940   -4.0510   20.1790 C   0  0  0  0  0  0  0  0  0  0  0  0
    5.3710   -4.5410   19.8920 O   0  0  0  0  0  0  0  0  0  0  0  0
    7.1080   -4.2650   21.4250 N   0  0  0  0  0  0  0  0  0  0  0  0
    6.6520   -5.2970   22.2590 C   0  0  0  0  0  0  0  0  0  0  0  0
    6.8780   -5.0240   23.6710 C   0  0  0  0  0  0  0  0  0  0  0  0
    6.9560   -3.6000   24.1210 C   0  0  0  0  0  0  0  0  0  0  0  0
    5.6810   -3.2400   24.7290 C   0  0  0  0  0  0  0  0  0  0  0  0
    5.0000   -2.2760   24.3540 O   0  0  0  0  0  0  0  0  0  0  0  0
    5.2500   -4.0030   25.7470 N   0  0  0  0  0  0  0  0  0  0  0  0
    3.9170   -4.2610   26.1100 C   0  0  0  0  0  0  0  0  0  0  0  0
    3.5980   -4.7050   27.4740 C   0  0  0  0  0  0  0  0  0  0  0  0
    4.1870   -5.7400   28.0810 N   0  0  0  0  0  0  0  0  0  0  0  0
    3.5310   -6.4340   29.1630 C   0  0  0  0  0  0  0  0  0  0  0  0
    2.7020   -7.4740   28.8020 O   0  0  0  0  0  0  0  0  0  0  0  0
    3.7760   -6.0080   30.3120 O   0  0  0  0  0  0  0  0  0  0  0  0
    3.2080   -4.9690   30.9230 C   0  0  0  0  0  0  0  0  0  0  0  0
    3.3380   -5.0560   32.4430 C   0  0  0  0  0  0  0  0  0  0  0  0
    3.6340   -3.5730   30.4330 C   0  0  0  0  0  0  0  0  0  0  0  0
    1.7340   -5.0570   31.0200 C   0  0  0  0  0  0  0  0  0  0  0  0
    5.5950   -5.6690   28.0400 C   0  0  0  0  0  0  0  0  0  0  0  0
    6.0010   -4.2090   27.9800 C   0  0  0  0  0  0  0  0  0  0  0  0
    6.4970   -3.7520   29.1470 C   0  0  0  0  0  0  0  0  0  0  0  0
    6.9130   -2.3190   29.3750 C   0  0  0  0  0  0  0  0  0  0  0  0
    6.3220   -5.0060   29.5730 C   0  0  0  0  0  0  0  0  0  0  0  0
    5.7920   -5.7900   28.5190 C   0  0  0  0  0  0  0  0  0  0  0  0
    5.5120   -5.0380   27.1310 C   0  0  0  0  0  0  0  0  0  0  0  0
    5.7920   -3.6540   26.9270 C   0  0  0  0  0  0  0  0  0  0  0  0
    7.2110   -2.5960   23.0450 C   0  0  0  0  0  0  0  0  0  0  0  0
    7.9760   -3.2510   21.9570 C   0  0  0  0  0  0  0  0  0  0  0  0
  1  2  1  0
  2  3  2  0
  2  4  1  0
  4  5  1  0
  5  6  1  0
  6  7  1  0
  7  8  1  0
  8  9  2  0
  8 10  1  0
 10 11  1  0
 11 12  1  0
 12 13  1  0
 13 14  1  0
 14 15  2  0
 14 16  1  0
 17 16  1  0
 17 18  1  0
 17 19  1  0
 17 20  1  0
 13 21  1  0
 21 22  1  0
 22 23  1  0
 23 24  1  0
 23 25  2  0
 25 26  1  0
 26 27  2  0
 10 28  1  0
 22 28  2  0
 27 28  1  0
  7 29  1  0
  4 30  1  0
 29 30  1  0
M  END
