piperidine-amides-30936-covalent
     RDKit          3D

 27 28  0  0  0  0  0  0  0  0999 V2000
    7.0750   -3.3280   19.2800 C   0  0  0  0  0  0  0  0  0  0  0  0
    6.3740   -4.1420   20.2740 C   0  0  0  0  0  0  0  0  0  0  0  0
    5.3390   -4.7460   19.9480 O   0  0  0  0  0  0  0  0  0  0  0  0
    6.8850   -4.2960   21.5680 N   0  0  0  0  0  0  0  0  0  0  0  0
    7.6740   -3.2510   22.1910 C   0  0  0  0  0  0  0  0  0  0  0  0
    6.8390   -2.7520   23.3360 C   0  0  0  0  0  0  0  0  0  0  0  0
    6.4710   -3.8950   24.2190 C   0  0  0  0  0  0  0  0  0  0  0  0
    5.5710   -3.5180   25.3490 C   0  0  0  0  0  0  0  0  0  0  0  0
    4.5020   -2.8990   25.0910 O   0  0  0  0  0  0  0  0  0  0  0  0
    5.8070   -3.7970   26.7230 N   0  0  0  0  0  0  0  0  0  0  0  0
    6.0010   -2.6740   27.6500 C   0  0  0  0  0  0  0  0  0  0  0  0
    6.2310   -3.2700   28.9730 C   0  0  0  0  0  0  0  0  0  0  0  0
    5.1720   -4.1670   29.4030 C   0  0  0  0  0  0  0  0  0  0  0  0
    5.5100   -5.6120   29.2760 C   0  0  0  0  0  0  0  0  0  0  0  0
    5.4930   -5.9540   27.8160 C   0  0  1  0  0  0  0  0  0  0  0  0
    4.0610   -6.2290   27.4850 C   0  0  0  0  0  0  0  0  0  0  0  0
    3.1580   -5.8440   28.5240 N   0  0  0  0  0  0  0  0  0  0  0  0
    1.9910   -6.5220   28.5120 C   0  0  0  0  0  0  0  0  0  0  0  0
    0.9290   -6.0490   27.9820 O   0  0  0  0  0  0  0  0  0  0  0  0
    2.0330   -7.6340   29.0630 O   0  0  0  0  0  0  0  0  0  0  0  0
    2.2940   -7.6500   30.4210 C   0  0  0  0  0  0  0  0  0  0  0  0
    3.7220   -7.7480   30.9040 C   0  0  0  0  0  0  0  0  0  0  0  0
    1.7490   -6.3660   30.9620 C   0  0  0  0  0  0  0  0  0  0  0  0
    1.4630   -8.7090   31.0870 C   0  0  0  0  0  0  0  0  0  0  0  0
    6.2570   -5.1220   27.0810 C   0  0  0  0  0  0  0  0  0  0  0  0
    5.8880   -5.0700   23.5370 C   0  0  0  0  0  0  0  0  0  0  0  0
    6.5330   -5.4190   22.3750 C   0  0  0  0  0  0  0  0  0  0  0  0
  1  2  1  0
  2  3  2  0
  2  4  1  0
  4  5  1  0
  5  6  1  0
  6  7  1  0
  7  8  1  0
  8  9  2  0
  8 10  1  0
 10 11  1  0
 11 12  1  0
 12 13  1  0
 13 14  1  0
 14 15  1  0
 15 16  1  6
 16 17  1  0
 17 18  1  0
 18 19  2  0
 18 20  1  0
 21 20  1  0
 21 22  1  0
 21 23  1  0
 21 24  1  0
 10 25  1  0
 15 25  1  0
  7 26  1  0
  4 27  1  0
 26 27  1  0
M  END
