piperidine-amides-13879-covalent
     RDKit          3D

 26 27  0  0  0  0  0  0  0  0999 V2000
    7.1350   -3.2500   19.1770 C   0  0  0  0  0  0  0  0  0  0  0  0
    6.3520   -3.9880   20.2070 C   0  0  0  0  0  0  0  0  0  0  0  0
    5.2950   -4.5610   19.8860 O   0  0  0  0  0  0  0  0  0  0  0  0
    6.8590   -4.0560   21.5140 N   0  0  0  0  0  0  0  0  0  0  0  0
    7.7320   -3.0090   22.0040 C   0  0  0  0  0  0  0  0  0  0  0  0
    7.5390   -2.8710   23.5110 C   0  0  0  0  0  0  0  0  0  0  0  0
    6.1600   -3.3240   23.8370 C   0  0  0  0  0  0  0  0  0  0  0  0
    5.7350   -2.8650   25.1730 C   0  0  0  0  0  0  0  0  0  0  0  0
    4.5270   -2.6540   25.3260 O   0  0  0  0  0  0  0  0  0  0  0  0
    6.6830   -2.6830   26.1880 N   0  0  0  0  0  0  0  0  0  0  0  0
    6.8610   -3.5070   27.3160 C   0  0  0  0  0  0  0  0  0  0  0  0
    6.8260   -4.8730   27.2460 C   0  0  0  0  0  0  0  0  0  0  0  0
    7.6370   -5.3980   26.2370 C   0  0  0  0  0  0  0  0  0  0  0  0
    8.5430   -4.5920   25.5830 C   0  0  0  0  0  0  0  0  0  0  0  0
    7.5290   -5.3650   28.3830 C   0  0  0  0  0  0  0  0  0  0  0  0
    9.0040   -5.1630   28.2590 C   0  0  0  0  0  0  0  0  0  0  0  0
    5.6390   -5.5500   27.3660 C   0  0  0  0  0  0  0  0  0  0  0  0
    5.5020   -6.5790   28.1990 C   0  0  0  0  0  0  0  0  0  0  0  0
    4.3090   -7.3530   28.4120 C   0  0  0  0  0  0  0  0  0  0  0  0
    3.1600   -6.8460   27.5380 C   0  0  0  0  0  0  0  0  0  0  0  0
    1.6730   -7.7510   27.7650 Cl  0  0  0  0  0  0  0  0  0  0  0  0
    3.0350   -5.8040   26.5900 C   0  0  0  0  0  0  0  0  0  0  0  0
    1.6320   -5.3390   25.6550 Cl  0  0  0  0  0  0  0  0  0  0  0  0
    4.5090   -5.2280   26.6560 C   0  0  0  0  0  0  0  0  0  0  0  0
    5.9160   -4.7890   23.6250 C   0  0  0  0  0  0  0  0  0  0  0  0
    6.6250   -5.2190   22.3420 C   0  0  0  0  0  0  0  0  0  0  0  0
  1  2  1  0
  2  3  2  0
  2  4  1  0
  4  5  1  0
  5  6  1  0
  6  7  1  0
  7  8  1  0
  8  9  2  0
  8 10  1  0
 10 11  1  0
 12 11  1  0
 12 13  1  0
 13 14  1  0
 12 15  1  0
 15 16  1  0
 12 17  1  0
 17 18  2  0
 18 19  1  0
 19 20  2  0
 20 21  1  0
 20 22  1  0
 22 23  1  0
 17 24  1  0
 22 24  2  0
  7 25  1  0
  4 26  1  0
 25 26  1  0
M  END
