piperidine-amides-2921-covalent
     RDKit          3D

 24 26  0  0  0  0  0  0  0  0999 V2000
    7.1080   -3.3160   19.2440 C   0  0  0  0  0  0  0  0  0  0  0  0
    6.3230   -4.0380   20.2340 C   0  0  0  0  0  0  0  0  0  0  0  0
    5.2730   -4.5850   19.9010 O   0  0  0  0  0  0  0  0  0  0  0  0
    6.8040   -4.1540   21.5800 N   0  0  0  0  0  0  0  0  0  0  0  0
    6.5960   -5.3900   22.2910 C   0  0  0  0  0  0  0  0  0  0  0  0
    6.0010   -5.0970   23.6380 C   0  0  0  0  0  0  0  0  0  0  0  0
    6.0600   -3.5910   23.8250 C   0  0  0  0  0  0  0  0  0  0  0  0
    5.6110   -3.2310   25.1900 C   0  0  0  0  0  0  0  0  0  0  0  0
    4.4110   -3.1350   25.4950 O   0  0  0  0  0  0  0  0  0  0  0  0
    6.5920   -2.9810   26.1640 N   0  0  0  0  0  0  0  0  0  0  0  0
    6.1810   -2.7360   27.5210 C   0  0  0  0  0  0  0  0  0  0  0  0
    5.5830   -3.9920   28.1060 C   0  0  0  0  0  0  0  0  0  0  0  0
    5.4310   -4.4210   29.3540 N   0  0  0  0  0  0  0  0  0  0  0  0
    4.8230   -5.6260   29.3280 C   0  0  0  0  0  0  0  0  0  0  0  0
    4.5140   -6.3620   30.4790 C   0  0  0  0  0  0  0  0  0  0  0  0
    5.4980   -7.0900   31.1290 C   0  0  0  0  0  0  0  0  0  0  0  0
    5.1700   -7.8380   32.3230 C   0  0  0  0  0  0  0  0  0  0  0  0
    3.9110   -7.8520   32.8270 C   0  0  0  0  0  0  0  0  0  0  0  0
    2.9560   -7.1310   32.1680 C   0  0  0  0  0  0  0  0  0  0  0  0
    3.2220   -6.3860   31.0080 C   0  0  0  0  0  0  0  0  0  0  0  0
    4.6020   -5.9250   28.0310 N   0  0  0  0  0  0  0  0  0  0  0  0
    5.0620   -4.9410   27.2720 O   0  0  0  0  0  0  0  0  0  0  0  0
    7.3350   -2.9940   23.4920 C   0  0  0  0  0  0  0  0  0  0  0  0
    7.6710   -3.1530   22.1620 C   0  0  0  0  0  0  0  0  0  0  0  0
  1  2  1  0
  2  3  2  0
  2  4  1  0
  4  5  1  0
  5  6  1  0
  6  7  1  0
  7  8  1  0
  8  9  2  0
  8 10  1  0
 10 11  1  0
 11 12  1  0
 12 13  2  0
 13 14  1  0
 14 15  1  0
 15 16  2  0
 16 17  1  0
 17 18  2  0
 18 19  1  0
 15 20  1  0
 19 20  2  0
 14 21  2  0
 12 22  1  0
 21 22  1  0
  7 23  1  0
  4 24  1  0
 23 24  1  0
M  END
