piperidine-amides-18920-covalent
     RDKit          3D

 21 22  0  0  0  0  0  0  0  0999 V2000
    7.1630   -3.4030   19.4640 C   0  0  0  0  0  0  0  0  0  0  0  0
    6.4480   -4.2380   20.3940 C   0  0  0  0  0  0  0  0  0  0  0  0
    5.4150   -4.8650   19.9950 O   0  0  0  0  0  0  0  0  0  0  0  0
    6.9260   -4.3880   21.7100 N   0  0  0  0  0  0  0  0  0  0  0  0
    6.5450   -5.5930   22.4650 C   0  0  0  0  0  0  0  0  0  0  0  0
    5.6590   -4.9370   23.6050 C   0  0  0  0  0  0  0  0  0  0  0  0
    6.4480   -3.8070   24.2640 C   0  0  0  0  0  0  0  0  0  0  0  0
    5.5430   -3.2420   25.4520 C   0  0  0  0  0  0  0  0  0  0  0  0
    4.6890   -2.5120   24.9730 O   0  0  0  0  0  0  0  0  0  0  0  0
    5.8820   -3.6710   26.6070 N   0  0  0  0  0  0  0  0  0  0  0  0
    5.7310   -4.1020   27.8510 C   0  0  0  0  0  0  0  0  0  0  0  0
    6.4700   -4.9530   28.5350 C   0  0  1  0  0  0  0  0  0  0  0  0
    5.9870   -6.2600   28.4230 O   0  0  0  0  0  0  0  0  0  0  0  0
    5.6570   -6.9060   29.5910 C   0  0  0  0  0  0  0  0  0  0  0  0
    7.8370   -4.8470   27.8370 C   0  0  0  0  0  0  0  0  0  0  0  0
    7.3310   -3.7510   26.8180 C   0  0  1  0  0  0  0  0  0  0  0  0
    7.8040   -2.7170   27.6440 C   0  0  0  0  0  0  0  0  0  0  0  0
    8.1280   -2.6800   26.1000 C   0  0  0  0  0  0  0  0  0  0  0  0
    8.9230   -3.2050   25.0980 O   0  0  0  0  0  0  0  0  0  0  0  0
    7.0320   -2.7930   23.4150 C   0  0  0  0  0  0  0  0  0  0  0  0
    7.8390   -3.5300   22.3280 C   0  0  0  0  0  0  0  0  0  0  0  0
  1  2  1  0
  2  3  2  0
  2  4  1  0
  4  5  1  0
  5  6  1  0
  6  7  1  0
  7  8  1  0
  8  9  2  0
  8 10  1  0
 10 11  1  0
 11 12  1  0
 12 13  1  6
 13 14  1  0
 12 15  1  0
 10 16  1  0
 15 16  1  0
 16 17  1  1
 16 18  1  0
 18 19  1  0
  7 20  1  0
  4 21  1  0
 20 21  1  0
M  END
