piperidine-amides-10610-covalent
     RDKit          3D

 23 24  0  0  0  0  0  0  0  0999 V2000
    7.0660   -3.2830   19.2750 C   0  0  0  0  0  0  0  0  0  0  0  0
    6.3440   -4.0580   20.2940 C   0  0  0  0  0  0  0  0  0  0  0  0
    5.2900   -4.6230   19.9080 O   0  0  0  0  0  0  0  0  0  0  0  0
    6.8330   -4.1870   21.5990 N   0  0  0  0  0  0  0  0  0  0  0  0
    6.7110   -5.4310   22.3310 C   0  0  0  0  0  0  0  0  0  0  0  0
    6.0830   -5.1170   23.6540 C   0  0  0  0  0  0  0  0  0  0  0  0
    6.1010   -3.6390   23.9030 C   0  0  0  0  0  0  0  0  0  0  0  0
    5.5720   -3.3210   25.2430 C   0  0  0  0  0  0  0  0  0  0  0  0
    4.3710   -2.9870   25.3230 O   0  0  0  0  0  0  0  0  0  0  0  0
    6.3330   -3.3770   26.4240 N   0  0  0  0  0  0  0  0  0  0  0  0
    5.9350   -4.1870   27.5540 C   0  0  0  0  0  0  0  0  0  0  0  0
    5.9730   -5.6830   27.2400 C   0  0  0  0  0  0  0  0  0  0  0  0
    6.7360   -3.8970   28.7420 C   0  0  0  0  0  0  0  0  0  0  0  0
    4.5250   -3.7910   27.9480 C   0  0  0  0  0  0  0  0  0  0  0  0
    4.2120   -2.4660   27.8030 C   0  0  0  0  0  0  0  0  0  0  0  0
    2.9870   -1.9630   28.1190 C   0  0  0  0  0  0  0  0  0  0  0  0
    1.9570   -2.7250   28.6100 C   0  0  0  0  0  0  0  0  0  0  0  0
    0.7620   -2.2040   28.9150 F   0  0  0  0  0  0  0  0  0  0  0  0
    2.1540   -4.2200   28.8260 C   0  0  0  0  0  0  0  0  0  0  0  0
    1.0760   -4.9140   29.3220 F   0  0  0  0  0  0  0  0  0  0  0  0
    3.5770   -4.6810   28.4360 C   0  0  0  0  0  0  0  0  0  0  0  0
    7.5070   -3.0800   23.6640 C   0  0  0  0  0  0  0  0  0  0  0  0
    7.6920   -3.1340   22.1570 C   0  0  0  0  0  0  0  0  0  0  0  0
  1  2  1  0
  2  3  2  0
  2  4  1  0
  4  5  1  0
  5  6  1  0
  6  7  1  0
  7  8  1  0
  8  9  2  0
  8 10  1  0
 11 10  1  0
 11 12  1  0
 11 13  1  0
 11 14  1  0
 14 15  2  0
 15 16  1  0
 16 17  2  0
 17 18  1  0
 17 19  1  0
 19 20  1  0
 14 21  1  0
 19 21  2  0
  7 22  1  0
  4 23  1  0
 22 23  1  0
M  END
