piperidine-amides-14728-covalent
     RDKit          3D

 22 23  0  0  0  0  0  0  0  0999 V2000
    7.1090   -3.2580   19.2420 C   0  0  0  0  0  0  0  0  0  0  0  0
    6.3160   -3.9740   20.2360 C   0  0  0  0  0  0  0  0  0  0  0  0
    5.2520   -4.5030   19.8670 O   0  0  0  0  0  0  0  0  0  0  0  0
    6.7810   -4.0950   21.5630 N   0  0  0  0  0  0  0  0  0  0  0  0
    6.5160   -5.2940   22.2910 C   0  0  0  0  0  0  0  0  0  0  0  0
    5.6640   -4.9500   23.4730 C   0  0  0  0  0  0  0  0  0  0  0  0
    5.8970   -3.4760   23.7820 C   0  0  0  0  0  0  0  0  0  0  0  0
    5.5470   -3.1580   25.2160 C   0  0  0  0  0  0  0  0  0  0  0  0
    4.3550   -2.9460   25.4330 O   0  0  0  0  0  0  0  0  0  0  0  0
    6.5440   -3.1180   26.1940 N   0  0  0  0  0  0  0  0  0  0  0  0
    6.3370   -3.6690   27.5040 C   0  0  0  0  0  0  0  0  0  0  0  0
    6.5660   -5.0430   27.6070 C   0  0  1  0  0  0  0  0  0  0  0  0
    5.5210   -5.7850   28.0980 C   0  0  0  0  0  0  0  0  0  0  0  0
    6.6890   -5.6540   26.3080 C   0  0  0  0  0  0  0  0  0  0  0  0
    7.8800   -5.3260   25.4880 C   0  0  0  0  0  0  0  0  0  0  0  0
    8.7590   -4.3750   26.2970 C   0  0  2  0  0  0  0  0  0  0  0  0
    9.7660   -4.0640   25.6350 O   0  0  0  0  0  0  0  0  0  0  0  0
   10.8550   -4.7170   26.0640 C   0  0  0  0  0  0  0  0  0  0  0  0
    9.0960   -4.9550   27.6500 C   0  0  0  0  0  0  0  0  0  0  0  0
    7.7280   -5.2650   28.3190 C   0  0  0  0  0  0  0  0  0  0  0  0
    7.3430   -3.0800   23.5400 C   0  0  0  0  0  0  0  0  0  0  0  0
    7.5710   -3.0540   22.1790 C   0  0  0  0  0  0  0  0  0  0  0  0
  1  2  1  0
  2  3  2  0
  2  4  1  0
  4  5  1  0
  5  6  1  0
  6  7  1  0
  7  8  1  0
  8  9  2  0
  8 10  1  0
 10 11  1  0
 12 11  1  0
 12 13  1  1
 12 14  1  0
 14 15  1  0
 15 16  1  0
 16 17  1  6
 17 18  1  0
 16 19  1  0
 12 20  1  0
 19 20  1  0
  7 21  1  0
  4 22  1  0
 21 22  1  0
M  END
