piperidine-amides-12780-covalent
     RDKit          3D

 22 22  0  0  0  0  0  0  0  0999 V2000
    7.1270   -3.2680   19.1510 C   0  0  0  0  0  0  0  0  0  0  0  0
    6.3640   -3.9910   20.1930 C   0  0  0  0  0  0  0  0  0  0  0  0
    5.2670   -4.4740   19.8520 O   0  0  0  0  0  0  0  0  0  0  0  0
    6.8900   -4.1690   21.4750 N   0  0  0  0  0  0  0  0  0  0  0  0
    7.6370   -3.1240   22.0890 C   0  0  0  0  0  0  0  0  0  0  0  0
    7.2020   -2.7670   23.4390 C   0  0  0  0  0  0  0  0  0  0  0  0
    6.4990   -3.8220   24.2090 C   0  0  0  0  0  0  0  0  0  0  0  0
    5.6620   -3.1580   25.2390 C   0  0  0  0  0  0  0  0  0  0  0  0
    4.4240   -3.1440   25.0850 O   0  0  0  0  0  0  0  0  0  0  0  0
    6.2420   -2.5490   26.3680 N   0  0  0  0  0  0  0  0  0  0  0  0
    6.3110   -3.2030   27.6910 C   0  0  2  0  0  0  0  0  0  0  0  0
    7.7320   -3.2770   28.0760 C   0  0  0  0  0  0  0  0  0  0  0  0
    8.2950   -4.5470   28.4750 C   0  0  0  0  0  0  0  0  0  0  0  0
    5.7030   -4.5050   27.5080 C   0  0  0  0  0  0  0  0  0  0  0  0
    6.4200   -5.6560   27.6430 C   0  0  0  0  0  0  0  0  0  0  0  0
    7.3270   -5.8570   26.6590 C   0  0  0  0  0  0  0  0  0  0  0  0
    8.5210   -5.2520   26.6500 C   0  0  0  0  0  0  0  0  0  0  0  0
    9.2280   -5.3110   27.8510 F   0  0  0  0  0  0  0  0  0  0  0  0
    9.2940   -5.9230   25.7630 F   0  0  0  0  0  0  0  0  0  0  0  0
    8.3430   -3.9350   26.3030 F   0  0  0  0  0  0  0  0  0  0  0  0
    5.7560   -4.8430   23.4180 C   0  0  0  0  0  0  0  0  0  0  0  0
    6.4500   -5.2670   22.2860 C   0  0  0  0  0  0  0  0  0  0  0  0
  1  2  1  0
  2  3  2  0
  2  4  1  0
  4  5  1  0
  5  6  1  0
  6  7  1  0
  7  8  1  0
  8  9  2  0
  8 10  1  0
 10 11  1  0
 11 12  1  6
 12 13  1  0
 11 14  1  0
 14 15  1  0
 15 16  1  0
 16 17  1  0
 17 18  1  0
 17 19  1  0
 17 20  1  0
  7 21  1  0
  4 22  1  0
 21 22  1  0
M  END
