piperidine-amides-6724-covalent
     RDKit          3D

 23 24  0  0  0  0  0  0  0  0999 V2000
    7.0360   -3.3130   19.2950 C   0  0  0  0  0  0  0  0  0  0  0  0
    6.3430   -4.1480   20.2910 C   0  0  0  0  0  0  0  0  0  0  0  0
    5.3230   -4.7840   19.9560 O   0  0  0  0  0  0  0  0  0  0  0  0
    6.8190   -4.2900   21.6060 N   0  0  0  0  0  0  0  0  0  0  0  0
    7.5070   -3.1890   22.2350 C   0  0  0  0  0  0  0  0  0  0  0  0
    6.5760   -2.6820   23.3470 C   0  0  0  0  0  0  0  0  0  0  0  0
    6.2390   -3.8640   24.2490 C   0  0  0  0  0  0  0  0  0  0  0  0
    5.3420   -3.4080   25.3550 C   0  0  0  0  0  0  0  0  0  0  0  0
    4.1120   -3.4270   25.1470 O   0  0  0  0  0  0  0  0  0  0  0  0
    5.8690   -2.9570   26.6130 N   0  0  0  0  0  0  0  0  0  0  0  0
    5.5620   -3.6330   27.8640 C   0  0  0  0  0  0  0  0  0  0  0  0
    6.3700   -4.9000   27.9020 C   0  0  0  0  0  0  0  0  0  0  0  0
    6.8620   -5.4680   29.0220 C   0  0  0  0  0  0  0  0  0  0  0  0
    5.4870   -5.9600   27.2690 C   0  0  0  0  0  0  0  0  0  0  0  0
    7.4180   -4.7480   27.0040 C   0  0  0  0  0  0  0  0  0  0  0  0
    7.5200   -3.5780   26.3990 C   0  0  0  0  0  0  0  0  0  0  0  0
    8.4360   -3.0570   25.3950 C   0  0  0  0  0  0  0  0  0  0  0  0
    9.1860   -4.3870   25.3630 C   0  0  0  0  0  0  0  0  0  0  0  0
   10.0530   -4.2540   24.5420 O   0  0  0  0  0  0  0  0  0  0  0  0
    9.3240   -5.8120   25.9100 C   0  0  0  0  0  0  0  0  0  0  0  0
    8.2240   -5.7670   26.8050 C   0  0  0  0  0  0  0  0  0  0  0  0
    5.5260   -4.9110   23.4380 C   0  0  0  0  0  0  0  0  0  0  0  0
    6.2930   -5.3530   22.3890 C   0  0  0  0  0  0  0  0  0  0  0  0
  1  2  1  0
  2  3  2  0
  2  4  1  0
  4  5  1  0
  5  6  1  0
  6  7  1  0
  7  8  1  0
  8  9  2  0
  8 10  1  0
 10 11  1  0
 12 11  1  0
 12 13  1  0
 12 14  1  0
 12 15  1  0
 15 16  2  0
 16 17  1  0
 17 18  2  0
 18 19  1  0
 18 20  1  0
 15 21  1  0
 20 21  2  0
  7 22  1  0
  4 23  1  0
 22 23  1  0
M  END
