piperidine-amides-8845-covalent
     RDKit          3D

 22 24  0  0  0  0  0  0  0  0999 V2000
    7.0920   -3.2670   19.2450 C   0  0  0  0  0  0  0  0  0  0  0  0
    6.3490   -4.0380   20.2460 C   0  0  0  0  0  0  0  0  0  0  0  0
    5.2860   -4.5770   19.8940 O   0  0  0  0  0  0  0  0  0  0  0  0
    6.8580   -4.2040   21.5580 N   0  0  0  0  0  0  0  0  0  0  0  0
    7.6630   -3.1710   22.1580 C   0  0  0  0  0  0  0  0  0  0  0  0
    6.9800   -2.6460   23.3840 C   0  0  0  0  0  0  0  0  0  0  0  0
    6.5930   -3.8560   24.1940 C   0  0  0  0  0  0  0  0  0  0  0  0
    5.7440   -3.4210   25.3540 C   0  0  0  0  0  0  0  0  0  0  0  0
    4.5510   -3.2390   25.1230 O   0  0  0  0  0  0  0  0  0  0  0  0
    6.3550   -3.2440   26.5890 N   0  0  0  0  0  0  0  0  0  0  0  0
    6.1010   -4.0830   27.7210 C   0  0  0  0  0  0  0  0  0  0  0  0
    5.6610   -5.4020   27.4550 C   0  0  0  0  0  0  0  0  0  0  0  0
    5.3590   -6.2020   28.5260 C   0  0  0  0  0  0  0  0  0  0  0  0
    5.7580   -6.0180   29.7930 C   0  0  0  0  0  0  0  0  0  0  0  0
    5.1600   -7.1360   30.5340 C   0  0  0  0  0  0  0  0  0  0  0  0
    5.2390   -7.4850   32.0380 C   0  0  0  0  0  0  0  0  0  0  0  0
    4.0700   -7.9950   32.5100 C   0  0  0  0  0  0  0  0  0  0  0  0
    4.4090   -6.5350   32.9490 C   0  0  0  0  0  0  0  0  0  0  0  0
    4.4470   -7.9230   29.6550 O   0  0  0  0  0  0  0  0  0  0  0  0
    4.5390   -7.3760   28.4220 N   0  0  0  0  0  0  0  0  0  0  0  0
    5.8510   -4.9190   23.4950 C   0  0  0  0  0  0  0  0  0  0  0  0
    6.5210   -5.3470   22.3690 C   0  0  0  0  0  0  0  0  0  0  0  0
  1  2  1  0
  2  3  2  0
  2  4  1  0
  4  5  1  0
  5  6  1  0
  6  7  1  0
  7  8  1  0
  8  9  2  0
  8 10  1  0
 10 11  1  0
 11 12  1  0
 12 13  1  0
 13 14  1  0
 14 15  2  0
 15 16  1  0
 16 17  1  0
 16 18  1  0
 17 18  1  0
 15 19  1  0
 13 20  2  0
 19 20  1  0
  7 21  1  0
  4 22  1  0
 21 22  1  0
M  END
