piperidine-amides-31527-covalent
     RDKit          3D

 28 31  0  0  0  0  0  0  0  0999 V2000
    7.1730   -3.2480   19.2600 C   0  0  0  0  0  0  0  0  0  0  0  0
    6.4090   -3.9580   20.2600 C   0  0  0  0  0  0  0  0  0  0  0  0
    5.3830   -4.6270   19.9120 O   0  0  0  0  0  0  0  0  0  0  0  0
    6.8060   -3.9340   21.6000 N   0  0  0  0  0  0  0  0  0  0  0  0
    6.3640   -5.0280   22.4780 C   0  0  0  0  0  0  0  0  0  0  0  0
    5.3520   -4.2300   23.3970 C   0  0  0  0  0  0  0  0  0  0  0  0
    6.2130   -3.2570   24.1850 C   0  0  0  0  0  0  0  0  0  0  0  0
    5.4260   -2.5970   25.4240 C   0  0  0  0  0  0  0  0  0  0  0  0
    4.3930   -2.0440   25.0800 O   0  0  0  0  0  0  0  0  0  0  0  0
    6.1390   -2.8710   26.4360 N   0  0  0  0  0  0  0  0  0  0  0  0
    6.8460   -3.7670   27.1440 C   0  0  0  0  0  0  0  0  0  0  0  0
    7.3100   -4.7990   26.4490 C   0  0  0  0  0  0  0  0  0  0  0  0
    8.5950   -5.2280   26.6680 C   0  0  0  0  0  0  0  0  0  0  0  0
    9.2670   -6.2960   25.9150 C   0  0  0  0  0  0  0  0  0  0  0  0
    8.2930   -6.8790   24.8310 C   0  0  0  0  0  0  0  0  0  0  0  0
    7.0290   -6.3500   24.7850 C   0  0  0  0  0  0  0  0  0  0  0  0
    6.5480   -5.3490   25.5560 C   0  0  0  0  0  0  0  0  0  0  0  0
    6.2620   -6.8390   23.9450 O   0  0  0  0  0  0  0  0  0  0  0  0
    7.1270   -7.6430   23.2400 C   0  0  0  0  0  0  0  0  0  0  0  0
    8.3250   -7.7490   23.9230 O   0  0  0  0  0  0  0  0  0  0  0  0
    6.7280   -1.6940   27.0570 C   0  0  0  0  0  0  0  0  0  0  0  0
    5.8940   -0.6370   26.7420 C   0  0  0  0  0  0  0  0  0  0  0  0
    5.9860    0.5170   27.4820 C   0  0  0  0  0  0  0  0  0  0  0  0
    6.3960    0.4310   28.7700 C   0  0  0  0  0  0  0  0  0  0  0  0
    6.9540   -0.7450   29.2260 C   0  0  0  0  0  0  0  0  0  0  0  0
    6.9310   -1.8780   28.4100 C   0  0  0  0  0  0  0  0  0  0  0  0
    7.0810   -2.3360   23.4000 C   0  0  0  0  0  0  0  0  0  0  0  0
    7.6840   -2.9590   22.1770 C   0  0  0  0  0  0  0  0  0  0  0  0
  1  2  1  0
  2  3  2  0
  2  4  1  0
  4  5  1  0
  5  6  1  0
  6  7  1  0
  7  8  1  0
  8  9  2  0
  8 10  1  0
 10 11  1  0
 11 12  1  0
 12 13  2  0
 13 14  1  0
 14 15  2  0
 15 16  1  0
 12 17  1  0
 16 17  2  0
 16 18  1  0
 18 19  1  0
 15 20  1  0
 19 20  1  0
 10 21  1  0
 21 22  1  0
 22 23  1  0
 23 24  1  0
 24 25  1  0
 21 26  1  0
 25 26  1  0
  7 27  1  0
  4 28  1  0
 27 28  1  0
M  END
