piperidine-amides-25739-covalent
     RDKit          3D

 25 27  0  0  0  0  0  0  0  0999 V2000
    7.0650   -3.3100   19.3140 C   0  0  0  0  0  0  0  0  0  0  0  0
    6.3130   -4.0910   20.3280 C   0  0  0  0  0  0  0  0  0  0  0  0
    5.2940   -4.6510   19.9280 O   0  0  0  0  0  0  0  0  0  0  0  0
    6.7850   -4.2160   21.6480 N   0  0  0  0  0  0  0  0  0  0  0  0
    6.6700   -5.4650   22.3580 C   0  0  0  0  0  0  0  0  0  0  0  0
    6.1020   -5.1960   23.7230 C   0  0  0  0  0  0  0  0  0  0  0  0
    5.9860   -3.6870   23.8980 C   0  0  0  0  0  0  0  0  0  0  0  0
    5.4750   -3.3740   25.2630 C   0  0  0  0  0  0  0  0  0  0  0  0
    4.2510   -3.2530   25.3920 O   0  0  0  0  0  0  0  0  0  0  0  0
    6.2810   -3.2130   26.4120 N   0  0  0  0  0  0  0  0  0  0  0  0
    6.2850   -4.2900   27.4030 C   0  0  0  0  0  0  0  0  0  0  0  0
    4.9180   -4.4830   27.9650 C   0  0  0  0  0  0  0  0  0  0  0  0
    4.3690   -3.5960   28.8440 C   0  0  0  0  0  0  0  0  0  0  0  0
    6.5950   -1.9030   26.8880 C   0  0  0  0  0  0  0  0  0  0  0  0
    5.5950   -0.9750   26.7500 C   0  0  2  0  0  0  0  0  0  0  0  0
    5.8850    0.5650   26.8130 C   0  0  0  0  0  0  0  0  0  0  0  0
    4.6940    0.8560   27.6320 C   0  0  0  0  0  0  0  0  0  0  0  0
    4.5120    2.3220   27.9800 C   0  0  0  0  0  0  0  0  0  0  0  0
    3.2840    2.5910   28.8180 C   0  0  0  0  0  0  0  0  0  0  0  0
    2.3860    1.4610   29.2240 C   0  0  0  0  0  0  0  0  0  0  0  0
    2.7000    0.0490   28.8020 C   0  0  0  0  0  0  0  0  0  0  0  0
    3.9090   -0.1440   27.9870 C   0  0  0  0  0  0  0  0  0  0  0  0
    4.4380   -1.3050   27.4640 O   0  0  0  0  0  0  0  0  0  0  0  0
    7.3160   -3.0080   23.5960 C   0  0  0  0  0  0  0  0  0  0  0  0
    7.6290   -3.1840   22.2520 C   0  0  0  0  0  0  0  0  0  0  0  0
  1  2  1  0
  2  3  2  0
  2  4  1  0
  4  5  1  0
  5  6  1  0
  6  7  1  0
  7  8  1  0
  8  9  2  0
  8 10  1  0
 10 11  1  0
 11 12  1  0
 12 13  1  0
 10 14  1  0
 15 14  1  1
 15 16  1  0
 16 17  1  0
 17 18  1  0
 18 19  2  0
 19 20  1  0
 20 21  2  0
 17 22  2  0
 21 22  1  0
 15 23  1  0
 22 23  1  0
  7 24  1  0
  4 25  1  0
 24 25  1  0
M  END
