piperidine-amides-10288-covalent
     RDKit          3D

 24 26  0  0  0  0  0  0  0  0999 V2000
    7.0810   -3.2650   19.2380 C   0  0  0  0  0  0  0  0  0  0  0  0
    6.3300   -4.0340   20.2390 C   0  0  0  0  0  0  0  0  0  0  0  0
    5.2370   -4.5210   19.8630 O   0  0  0  0  0  0  0  0  0  0  0  0
    6.8380   -4.2610   21.5180 N   0  0  0  0  0  0  0  0  0  0  0  0
    6.5890   -5.5120   22.1830 C   0  0  0  0  0  0  0  0  0  0  0  0
    5.8240   -5.2030   23.4330 C   0  0  0  0  0  0  0  0  0  0  0  0
    6.4710   -4.0880   24.2150 C   0  0  0  0  0  0  0  0  0  0  0  0
    5.5160   -3.6300   25.2510 C   0  0  0  0  0  0  0  0  0  0  0  0
    4.8410   -2.6000   25.0320 O   0  0  0  0  0  0  0  0  0  0  0  0
    5.3170   -4.3250   26.4640 N   0  0  0  0  0  0  0  0  0  0  0  0
    5.7220   -3.7800   27.7290 C   0  0  0  0  0  0  0  0  0  0  0  0
    6.9480   -2.9400   27.5540 C   0  0  0  0  0  0  0  0  0  0  0  0
    8.0510   -3.5670   27.0490 C   0  0  0  0  0  0  0  0  0  0  0  0
    8.7200   -3.0800   25.9680 N   0  0  0  0  0  0  0  0  0  0  0  0
    9.7710   -3.7140   25.4730 C   0  0  0  0  0  0  0  0  0  0  0  0
   10.2160   -4.8670   26.0350 C   0  0  0  0  0  0  0  0  0  0  0  0
    9.5310   -5.3350   27.1200 C   0  0  0  0  0  0  0  0  0  0  0  0
    8.4320   -4.7480   27.6970 C   0  0  0  0  0  0  0  0  0  0  0  0
    7.7630   -5.2170   28.7530 F   0  0  0  0  0  0  0  0  0  0  0  0
    7.2310   -2.0420   28.8800 C   0  0  0  0  0  0  0  0  0  0  0  0
    6.7690   -0.9170   28.0170 C   0  0  0  0  0  0  0  0  0  0  0  0
    6.8260   -1.7370   26.8450 C   0  0  0  0  0  0  0  0  0  0  0  0
    6.8160   -2.9120   23.3310 C   0  0  0  0  0  0  0  0  0  0  0  0
    7.6120   -3.2630   22.2610 C   0  0  0  0  0  0  0  0  0  0  0  0
  1  2  1  0
  2  3  2  0
  2  4  1  0
  4  5  1  0
  5  6  1  0
  6  7  1  0
  7  8  1  0
  8  9  2  0
  8 10  1  0
 10 11  1  0
 12 11  1  0
 12 13  1  0
 13 14  2  0
 14 15  1  0
 15 16  2  0
 16 17  1  0
 13 18  1  0
 17 18  2  0
 18 19  1  0
 12 20  1  0
 20 21  1  0
 12 22  1  0
 21 22  1  0
  7 23  1  0
  4 24  1  0
 23 24  1  0
M  END
