piperidine-amides-25098-covalent
     RDKit          3D

 25 27  0  0  0  0  0  0  0  0999 V2000
    7.0870   -3.2790   19.2360 C   0  0  0  0  0  0  0  0  0  0  0  0
    6.3500   -4.0640   20.2610 C   0  0  0  0  0  0  0  0  0  0  0  0
    5.2970   -4.5850   19.9020 O   0  0  0  0  0  0  0  0  0  0  0  0
    6.8750   -4.2310   21.5460 N   0  0  0  0  0  0  0  0  0  0  0  0
    6.5370   -5.3640   22.3630 C   0  0  0  0  0  0  0  0  0  0  0  0
    5.7440   -4.8800   23.5470 C   0  0  0  0  0  0  0  0  0  0  0  0
    6.5170   -3.7840   24.3020 C   0  0  0  0  0  0  0  0  0  0  0  0
    5.6870   -3.3640   25.4600 C   0  0  0  0  0  0  0  0  0  0  0  0
    4.4550   -3.4000   25.3480 O   0  0  0  0  0  0  0  0  0  0  0  0
    6.2550   -2.9070   26.6760 N   0  0  0  0  0  0  0  0  0  0  0  0
    6.7680   -1.5590   26.6940 C   0  0  0  0  0  0  0  0  0  0  0  0
    6.2880   -3.7130   27.8670 C   0  0  0  0  0  0  0  0  0  0  0  0
    5.0780   -4.1470   28.3210 C   0  0  0  0  0  0  0  0  0  0  0  0
    4.0080   -3.3530   28.5080 C   0  0  0  0  0  0  0  0  0  0  0  0
    2.9360   -4.0460   28.9750 C   0  0  0  0  0  0  0  0  0  0  0  0
    3.4390   -5.2650   29.0450 N   0  0  0  0  0  0  0  0  0  0  0  0
    2.7170   -6.4720   29.5010 C   0  0  0  0  0  0  0  0  0  0  0  0
    1.7350   -7.0540   28.4930 C   0  0  0  0  0  0  0  0  0  0  0  0
    0.9160   -8.3060   28.8210 C   0  0  0  0  0  0  0  0  0  0  0  0
    1.1640   -8.8800   30.1710 C   0  0  0  0  0  0  0  0  0  0  0  0
    2.1130   -8.3070   31.1290 C   0  0  0  0  0  0  0  0  0  0  0  0
    2.9380   -7.0880   30.8610 C   0  0  0  0  0  0  0  0  0  0  0  0
    4.7000   -5.3820   28.6690 N   0  0  0  0  0  0  0  0  0  0  0  0
    6.7990   -2.6250   23.3740 C   0  0  0  0  0  0  0  0  0  0  0  0
    7.5920   -3.1630   22.2160 C   0  0  0  0  0  0  0  0  0  0  0  0
  1  2  1  0
  2  3  2  0
  2  4  1  0
  4  5  1  0
  5  6  1  0
  6  7  1  0
  7  8  1  0
  8  9  2  0
  8 10  1  0
 10 11  1  0
 10 12  1  0
 12 13  1  0
 13 14  1  0
 14 15  2  0
 15 16  1  0
 16 17  1  0
 17 18  2  0
 18 19  1  0
 19 20  2  0
 20 21  1  0
 17 22  1  0
 21 22  2  0
 13 23  2  0
 16 23  1  0
  7 24  1  0
  4 25  1  0
 24 25  1  0
M  END
