piperidine-amides-25092-covalent
     RDKit          3D

 25 27  0  0  0  0  0  0  0  0999 V2000
    7.0880   -3.2880   19.3130 C   0  0  0  0  0  0  0  0  0  0  0  0
    6.3110   -4.0650   20.3150 C   0  0  0  0  0  0  0  0  0  0  0  0
    5.2910   -4.6170   19.9110 O   0  0  0  0  0  0  0  0  0  0  0  0
    6.7650   -4.1820   21.6390 N   0  0  0  0  0  0  0  0  0  0  0  0
    6.6410   -5.4290   22.3540 C   0  0  0  0  0  0  0  0  0  0  0  0
    6.1810   -5.1750   23.7670 C   0  0  0  0  0  0  0  0  0  0  0  0
    6.0480   -3.6720   24.0200 C   0  0  0  0  0  0  0  0  0  0  0  0
    5.5410   -3.4410   25.4010 C   0  0  0  0  0  0  0  0  0  0  0  0
    4.3220   -3.5080   25.5880 O   0  0  0  0  0  0  0  0  0  0  0  0
    6.3760   -3.1150   26.4950 N   0  0  0  0  0  0  0  0  0  0  0  0
    6.8400   -1.7430   26.4900 C   0  0  0  0  0  0  0  0  0  0  0  0
    6.1880   -3.7600   27.7830 C   0  0  0  0  0  0  0  0  0  0  0  0
    5.3470   -4.8510   27.8150 C   0  0  0  0  0  0  0  0  0  0  0  0
    3.8700   -5.0290   27.9550 N   0  0  0  0  0  0  0  0  0  0  0  0
    3.3570   -6.3290   27.9600 C   0  0  0  0  0  0  0  0  0  0  0  0
    2.0380   -6.6790   28.0850 C   0  0  0  0  0  0  0  0  0  0  0  0
    0.7460   -6.0880   27.5690 C   0  0  0  0  0  0  0  0  0  0  0  0
   -0.4850   -6.8370   27.9770 C   0  0  0  0  0  0  0  0  0  0  0  0
   -0.3580   -8.0730   28.8350 C   0  0  0  0  0  0  0  0  0  0  0  0
    1.0070   -8.5190   29.2560 C   0  0  0  0  0  0  0  0  0  0  0  0
    2.3180   -7.8840   28.9340 C   0  0  0  0  0  0  0  0  0  0  0  0
    4.3890   -7.0050   27.8310 C   0  0  0  0  0  0  0  0  0  0  0  0
    5.4610   -6.2970   27.7490 N   0  0  0  0  0  0  0  0  0  0  0  0
    7.3690   -3.0030   23.7190 C   0  0  0  0  0  0  0  0  0  0  0  0
    7.6190   -3.1660   22.2380 C   0  0  0  0  0  0  0  0  0  0  0  0
  1  2  1  0
  2  3  2  0
  2  4  1  0
  4  5  1  0
  5  6  1  0
  6  7  1  0
  7  8  1  0
  8  9  2  0
  8 10  1  0
 10 11  1  0
 10 12  1  0
 12 13  1  0
 13 14  2  0
 14 15  1  0
 15 16  1  0
 16 17  2  0
 17 18  1  0
 18 19  2  0
 19 20  1  0
 16 21  1  0
 20 21  2  0
 15 22  2  0
 13 23  1  0
 22 23  1  0
  7 24  1  0
  4 25  1  0
 24 25  1  0
M  END
