piperidine-amides-31608-covalent
     RDKit          3D

 28 30  0  0  0  0  0  0  0  0999 V2000
    7.0000   -3.4130   19.4190 C   0  0  0  0  0  0  0  0  0  0  0  0
    6.3620   -4.2280   20.4270 C   0  0  0  0  0  0  0  0  0  0  0  0
    5.4230   -4.9810   20.0190 O   0  0  0  0  0  0  0  0  0  0  0  0
    6.7520   -4.2550   21.7970 N   0  0  0  0  0  0  0  0  0  0  0  0
    6.5450   -5.5090   22.5360 C   0  0  0  0  0  0  0  0  0  0  0  0
    5.4380   -4.9980   23.5350 C   0  0  0  0  0  0  0  0  0  0  0  0
    6.0970   -3.9730   24.4410 C   0  0  0  0  0  0  0  0  0  0  0  0
    4.9730   -3.2130   25.3410 C   0  0  0  0  0  0  0  0  0  0  0  0
    4.1450   -2.7390   24.5900 O   0  0  0  0  0  0  0  0  0  0  0  0
    5.1680   -3.2510   26.6300 N   0  0  0  0  0  0  0  0  0  0  0  0
    5.0060   -2.9480   27.9450 C   0  0  0  0  0  0  0  0  0  0  0  0
    4.8070   -3.6630   29.0750 C   0  0  0  0  0  0  0  0  0  0  0  0
    5.2570   -4.9710   28.6790 N   0  0  0  0  0  0  0  0  0  0  0  0
    4.5050   -5.8670   28.0060 C   0  0  0  0  0  0  0  0  0  0  0  0
    4.8690   -6.9760   27.2250 O   0  0  0  0  0  0  0  0  0  0  0  0
    3.0420   -5.6410   28.0950 C   0  0  0  0  0  0  0  0  0  0  0  0
    2.8010   -7.1120   28.4820 C   0  0  0  0  0  0  0  0  0  0  0  0
    1.6220   -7.4850   28.7510 O   0  0  0  0  0  0  0  0  0  0  0  0
    1.2570   -8.7310   28.2690 C   0  0  0  0  0  0  0  0  0  0  0  0
    1.3770   -8.6660   26.8170 C   0  0  0  0  0  0  0  0  0  0  0  0
    0.9270  -10.1410   26.5090 C   0  0  0  0  0  0  0  0  0  0  0  0
    0.5210  -11.1850   27.5800 C   0  0  0  0  0  0  0  0  0  0  0  0
    0.5210  -10.9080   28.8630 C   0  0  0  0  0  0  0  0  0  0  0  0
    0.8880   -9.6830   29.2190 C   0  0  0  0  0  0  0  0  0  0  0  0
    6.4260   -4.8330   27.9170 C   0  0  0  0  0  0  0  0  0  0  0  0
    6.3210   -4.0390   26.7490 C   0  0  0  0  0  0  0  0  0  0  0  0
    7.1270   -3.0230   23.8650 C   0  0  0  0  0  0  0  0  0  0  0  0
    7.5060   -3.1820   22.3990 C   0  0  0  0  0  0  0  0  0  0  0  0
  1  2  1  0
  2  3  2  0
  2  4  1  0
  4  5  1  0
  5  6  1  0
  6  7  1  0
  7  8  1  0
  8  9  2  0
  8 10  1  0
 10 11  1  0
 11 12  1  0
 12 13  1  0
 13 14  1  0
 14 15  2  0
 14 16  1  0
 16 17  1  0
 17 18  1  0
 18 19  1  0
 19 20  2  0
 20 21  1  0
 21 22  2  0
 22 23  1  0
 19 24  1  0
 23 24  2  0
 13 25  1  0
 10 26  1  0
 25 26  1  0
  7 27  1  0
  4 28  1  0
 27 28  1  0
M  END
