piperidine-amides-13483-covalent
     RDKit          3D

 21 23  0  0  0  0  0  0  0  0999 V2000
    7.0900   -3.3380   19.3340 C   0  0  0  0  0  0  0  0  0  0  0  0
    6.3980   -4.2080   20.3220 C   0  0  0  0  0  0  0  0  0  0  0  0
    5.3630   -4.8030   19.9710 O   0  0  0  0  0  0  0  0  0  0  0  0
    6.9560   -4.3900   21.6090 N   0  0  0  0  0  0  0  0  0  0  0  0
    6.5790   -5.5170   22.4110 C   0  0  0  0  0  0  0  0  0  0  0  0
    5.7510   -4.9430   23.5650 C   0  0  0  0  0  0  0  0  0  0  0  0
    6.5290   -3.8200   24.1880 C   0  0  0  0  0  0  0  0  0  0  0  0
    5.8490   -3.2770   25.3880 C   0  0  0  0  0  0  0  0  0  0  0  0
    4.6170   -3.3970   25.4150 O   0  0  0  0  0  0  0  0  0  0  0  0
    6.5700   -2.6520   26.4100 N   0  0  0  0  0  0  0  0  0  0  0  0
    6.1530   -1.5060   27.1410 C   0  0  2  0  0  0  0  0  0  0  0  0
    5.8420   -0.3110   26.5420 C   0  0  0  0  0  0  0  0  0  0  0  0
    6.0060    0.7310   27.4460 C   0  0  0  0  0  0  0  0  0  0  0  0
    5.6750    2.0710   27.3180 O   0  0  0  0  0  0  0  0  0  0  0  0
    6.6180    0.1810   28.6370 N   0  0  0  0  0  0  0  0  0  0  0  0
    6.3780    0.4930   29.9410 C   0  0  0  0  0  0  0  0  0  0  0  0
    5.7800   -0.4280   30.7220 C   0  0  0  0  0  0  0  0  0  0  0  0
    7.2690   -0.1310   30.9830 C   0  0  0  0  0  0  0  0  0  0  0  0
    6.8190   -1.2080   28.3550 C   0  0  0  0  0  0  0  0  0  0  0  0
    6.7660   -2.6850   23.1930 C   0  0  0  0  0  0  0  0  0  0  0  0
    7.6650   -3.2700   22.1770 C   0  0  0  0  0  0  0  0  0  0  0  0
  1  2  1  0
  2  3  2  0
  2  4  1  0
  4  5  1  0
  5  6  1  0
  6  7  1  0
  7  8  1  0
  8  9  2  0
  8 10  1  0
 11 10  1  6
 11 12  1  0
 12 13  1  0
 13 14  2  0
 13 15  1  0
 15 16  1  0
 16 17  1  0
 16 18  1  0
 17 18  1  0
 11 19  1  0
 15 19  1  0
  7 20  1  0
  4 21  1  0
 20 21  1  0
M  END
