piperidine-amides-8389-covalent
     RDKit          3D

 24 25  0  0  0  0  0  0  0  0999 V2000
    7.0540   -3.3340   19.3230 C   0  0  0  0  0  0  0  0  0  0  0  0
    6.3930   -4.1740   20.3220 C   0  0  0  0  0  0  0  0  0  0  0  0
    5.3820   -4.8130   19.9730 O   0  0  0  0  0  0  0  0  0  0  0  0
    6.9330   -4.2790   21.6280 N   0  0  0  0  0  0  0  0  0  0  0  0
    7.7060   -3.1810   22.1490 C   0  0  0  0  0  0  0  0  0  0  0  0
    7.5890   -3.1490   23.6380 C   0  0  0  0  0  0  0  0  0  0  0  0
    6.1810   -3.5880   23.9440 C   0  0  0  0  0  0  0  0  0  0  0  0
    5.7950   -3.1800   25.3260 C   0  0  0  0  0  0  0  0  0  0  0  0
    4.6730   -3.5160   25.7000 O   0  0  0  0  0  0  0  0  0  0  0  0
    6.7200   -2.4480   26.0660 N   0  0  0  0  0  0  0  0  0  0  0  0
    6.3520   -1.2100   26.6700 C   0  0  0  0  0  0  0  0  0  0  0  0
    5.7890   -0.0650   26.0920 C   0  0  0  0  0  0  0  0  0  0  0  0
    5.4800    1.0800   26.8170 C   0  0  0  0  0  0  0  0  0  0  0  0
    5.6930    1.2010   28.1820 C   0  0  0  0  0  0  0  0  0  0  0  0
    5.2420    2.5550   28.6270 C   0  0  0  0  0  0  0  0  0  0  0  0
    6.2250    0.1850   28.8840 C   0  0  0  0  0  0  0  0  0  0  0  0
    6.4850    0.1880   30.3440 C   0  0  0  0  0  0  0  0  0  0  0  0
    6.5790   -1.0480   28.1440 C   0  0  0  0  0  0  0  0  0  0  0  0
    7.1900   -2.0980   29.0190 C   0  0  0  0  0  0  0  0  0  0  0  0
    6.5990   -3.2110   29.0730 O   0  0  0  0  0  0  0  0  0  0  0  0
    8.3300   -1.7250   29.6540 O   0  0  0  0  0  0  0  0  0  0  0  0
    8.5060   -0.6190   30.4720 C   0  0  0  0  0  0  0  0  0  0  0  0
    6.1540   -5.0760   23.8040 C   0  0  0  0  0  0  0  0  0  0  0  0
    6.5660   -5.4460   22.4030 C   0  0  0  0  0  0  0  0  0  0  0  0
  1  2  1  0
  2  3  2  0
  2  4  1  0
  4  5  1  0
  5  6  1  0
  6  7  1  0
  7  8  1  0
  8  9  2  0
  8 10  1  0
 10 11  1  0
 11 12  2  0
 12 13  1  0
 13 14  2  0
 14 15  1  0
 14 16  1  0
 16 17  1  0
 11 18  1  0
 16 18  2  0
 18 19  1  0
 19 20  2  0
 19 21  1  0
 21 22  1  0
  7 23  1  0
  4 24  1  0
 23 24  1  0
M  END
