piperidine-amides-18780-covalent
     RDKit          3D

 21 23  0  0  0  0  0  0  0  0999 V2000
    7.1090   -3.3440   19.4180 C   0  0  0  0  0  0  0  0  0  0  0  0
    6.4180   -4.1680   20.3820 C   0  0  0  0  0  0  0  0  0  0  0  0
    5.4380   -4.8830   19.9910 O   0  0  0  0  0  0  0  0  0  0  0  0
    6.8300   -4.2080   21.7240 N   0  0  0  0  0  0  0  0  0  0  0  0
    6.6290   -5.4720   22.4610 C   0  0  0  0  0  0  0  0  0  0  0  0
    5.5420   -4.9720   23.4770 C   0  0  0  0  0  0  0  0  0  0  0  0
    6.2830   -4.0330   24.4020 C   0  0  0  0  0  0  0  0  0  0  0  0
    5.2220   -3.1100   25.1890 C   0  0  0  0  0  0  0  0  0  0  0  0
    4.4510   -2.6110   24.3960 O   0  0  0  0  0  0  0  0  0  0  0  0
    5.4070   -3.1020   26.4660 N   0  0  0  0  0  0  0  0  0  0  0  0
    5.3990   -2.7180   27.7630 C   0  0  0  0  0  0  0  0  0  0  0  0
    5.2050   -3.3580   28.9420 C   0  0  0  0  0  0  0  0  0  0  0  0
    4.5510   -4.6050   28.5770 N   0  0  0  0  0  0  0  0  0  0  0  0
    4.1940   -5.5260   29.4790 C   0  0  0  0  0  0  0  0  0  0  0  0
    5.1400   -6.6520   29.1820 C   0  0  1  0  0  0  0  0  0  0  0  0
    4.4940   -7.4310   28.2260 F   0  0  0  0  0  0  0  0  0  0  0  0
    6.3400   -5.7670   28.7240 C   0  0  0  0  0  0  0  0  0  0  0  0
    5.5390   -5.1520   27.7790 C   0  0  2  0  0  0  0  0  0  0  0  0
    6.1280   -4.2100   26.9320 C   0  0  0  0  0  0  0  0  0  0  0  0
    7.5480   -3.5160   23.9170 C   0  0  0  0  0  0  0  0  0  0  0  0
    7.3000   -3.0770   22.4340 C   0  0  0  0  0  0  0  0  0  0  0  0
  1  2  1  0
  2  3  2  0
  2  4  1  0
  4  5  1  0
  5  6  1  0
  6  7  1  0
  7  8  1  0
  8  9  2  0
  8 10  1  0
 10 11  1  0
 11 12  1  0
 12 13  1  0
 13 14  1  0
 14 15  1  0
 15 16  1  6
 15 17  1  0
 13 18  1  0
 18 17  1  1
 10 19  1  0
 18 19  1  0
  7 20  1  0
  4 21  1  0
 20 21  1  0
M  END
