piperidine-amides-10642-covalent
     RDKit          3D

 23 24  0  0  0  0  0  0  0  0999 V2000
    7.0550   -3.2600   19.2100 C   0  0  0  0  0  0  0  0  0  0  0  0
    6.2870   -3.9960   20.2200 C   0  0  0  0  0  0  0  0  0  0  0  0
    5.2130   -4.5260   19.8510 O   0  0  0  0  0  0  0  0  0  0  0  0
    6.7680   -4.1210   21.5130 N   0  0  0  0  0  0  0  0  0  0  0  0
    6.5810   -5.3270   22.2760 C   0  0  0  0  0  0  0  0  0  0  0  0
    5.8270   -5.0150   23.5440 C   0  0  0  0  0  0  0  0  0  0  0  0
    5.5590   -3.5440   23.8110 C   0  0  0  0  0  0  0  0  0  0  0  0
    5.3530   -3.3650   25.2680 C   0  0  0  0  0  0  0  0  0  0  0  0
    4.3490   -2.7210   25.6450 O   0  0  0  0  0  0  0  0  0  0  0  0
    6.2310   -3.8860   26.2420 N   0  0  0  0  0  0  0  0  0  0  0  0
    5.7730   -4.3340   27.5400 C   0  0  1  0  0  0  0  0  0  0  0  0
    5.8310   -5.8470   27.6650 C   0  0  0  0  0  0  0  0  0  0  0  0
    6.3750   -6.4870   28.7550 C   0  0  0  0  0  0  0  0  0  0  0  0
    6.6290   -3.7470   28.6330 C   0  0  0  0  0  0  0  0  0  0  0  0
    7.9340   -3.8980   28.2880 C   0  0  0  0  0  0  0  0  0  0  0  0
    8.0890   -4.0390   26.9480 C   0  0  0  0  0  0  0  0  0  0  0  0
    8.2480   -2.9290   26.1270 C   0  0  0  0  0  0  0  0  0  0  0  0
    8.4250   -2.8170   24.6350 C   0  0  0  0  0  0  0  0  0  0  0  0
    8.4020   -4.1930   24.0310 C   0  0  0  0  0  0  0  0  0  0  0  0
    8.2370   -5.4500   24.8030 C   0  0  0  0  0  0  0  0  0  0  0  0
    8.0850   -5.3960   26.2880 C   0  0  0  0  0  0  0  0  0  0  0  0
    6.5910   -2.5650   23.3450 C   0  0  0  0  0  0  0  0  0  0  0  0
    7.3690   -2.9820   22.1220 C   0  0  0  0  0  0  0  0  0  0  0  0
  1  2  1  0
  2  3  2  0
  2  4  1  0
  4  5  1  0
  5  6  1  0
  6  7  1  0
  7  8  1  0
  8  9  2  0
  8 10  1  0
 10 11  1  0
 11 12  1  6
 12 13  1  0
 11 14  1  0
 14 15  1  0
 15 16  1  0
 16 17  2  0
 17 18  1  0
 18 19  2  0
 19 20  1  0
 16 21  1  0
 20 21  2  0
  7 22  1  0
  4 23  1  0
 22 23  1  0
M  END
