piperidine-amides-28971-covalent
     RDKit          3D

 26 28  0  0  0  0  0  0  0  0999 V2000
    7.1740   -3.3290   19.2240 C   0  0  0  0  0  0  0  0  0  0  0  0
    6.4250   -4.0830   20.2150 C   0  0  0  0  0  0  0  0  0  0  0  0
    5.3260   -4.5750   19.9010 O   0  0  0  0  0  0  0  0  0  0  0  0
    7.0130   -4.2810   21.4720 N   0  0  0  0  0  0  0  0  0  0  0  0
    6.5140   -5.3610   22.2690 C   0  0  0  0  0  0  0  0  0  0  0  0
    5.6660   -4.7710   23.3490 C   0  0  0  0  0  0  0  0  0  0  0  0
    6.5540   -3.7690   24.0490 C   0  0  0  0  0  0  0  0  0  0  0  0
    5.9090   -3.2200   25.2650 C   0  0  0  0  0  0  0  0  0  0  0  0
    5.0940   -2.3160   25.1460 O   0  0  0  0  0  0  0  0  0  0  0  0
    6.2850   -3.8340   26.4220 N   0  0  0  0  0  0  0  0  0  0  0  0
    6.0770   -3.2780   27.6940 C   0  0  0  0  0  0  0  0  0  0  0  0
    5.7730   -4.3790   28.4650 C   0  0  2  0  0  0  0  0  0  0  0  0
    6.8000   -4.9530   29.1390 C   0  0  0  0  0  0  0  0  0  0  0  0
    6.7500   -6.2960   29.0060 C   0  0  0  0  0  0  0  0  0  0  0  0
    5.6530   -6.6010   28.2670 N   0  0  0  0  0  0  0  0  0  0  0  0
    4.6440   -7.3830   28.9600 C   0  0  0  0  0  0  0  0  0  0  0  0
    3.3600   -7.5400   28.5000 O   0  0  0  0  0  0  0  0  0  0  0  0
    4.9690   -8.0010   30.1760 O   0  0  0  0  0  0  0  0  0  0  0  0
    4.4230   -7.5530   31.4080 C   0  0  0  0  0  0  0  0  0  0  0  0
    5.4200   -7.7390   32.4900 C   0  0  0  0  0  0  0  0  0  0  0  0
    4.1720   -6.0830   31.1990 C   0  0  0  0  0  0  0  0  0  0  0  0
    3.1670   -8.1100   31.6420 C   0  0  0  0  0  0  0  0  0  0  0  0
    5.3130   -5.3860   27.6040 C   0  0  2  0  0  0  0  0  0  0  0  0
    5.9570   -5.2180   26.4230 C   0  0  0  0  0  0  0  0  0  0  0  0
    6.9970   -2.6520   23.1890 C   0  0  0  0  0  0  0  0  0  0  0  0
    7.7860   -3.2230   22.0730 C   0  0  0  0  0  0  0  0  0  0  0  0
  1  2  1  0
  2  3  2  0
  2  4  1  0
  4  5  1  0
  5  6  1  0
  6  7  1  0
  7  8  1  0
  8  9  2  0
  8 10  1  0
 10 11  1  0
 12 11  1  6
 12 13  1  0
 13 14  1  0
 14 15  1  0
 15 16  1  0
 16 17  2  0
 16 18  1  0
 19 18  1  0
 19 20  1  0
 19 21  1  0
 19 22  1  0
 12 23  1  0
 15 23  1  0
 10 24  1  0
 23 24  1  6
  7 25  1  0
  4 26  1  0
 25 26  1  0
M  END
