piperidine-amides-11880-covalent
     RDKit          3D

 26 28  0  0  0  0  0  0  0  0999 V2000
    7.2090   -3.9970   19.7230 C   0  0  0  0  0  0  0  0  0  0  0  0
    5.9710   -3.8910   20.3320 C   0  0  0  0  0  0  0  0  0  0  0  0
    4.9870   -3.9760   19.6050 O   0  0  0  0  0  0  0  0  0  0  0  0
    5.9860   -3.8100   21.7410 N   0  0  0  0  0  0  0  0  0  0  0  0
    7.1370   -3.1070   22.2660 C   0  0  0  0  0  0  0  0  0  0  0  0
    6.8650   -2.5980   23.6490 C   0  0  0  0  0  0  0  0  0  0  0  0
    5.5280   -3.1790   24.0760 C   0  0  0  0  0  0  0  0  0  0  0  0
    5.2190   -2.8580   25.4920 C   0  0  0  0  0  0  0  0  0  0  0  0
    4.2510   -2.1440   25.7920 O   0  0  0  0  0  0  0  0  0  0  0  0
    6.0100   -3.3690   26.5380 N   0  0  0  0  0  0  0  0  0  0  0  0
    5.4860   -4.4960   27.2750 C   0  0  0  0  0  0  0  0  0  0  0  0
    6.3660   -5.6220   26.8770 C   0  0  0  0  0  0  0  0  0  0  0  0
    7.6200   -5.1930   26.7140 C   0  0  0  0  0  0  0  0  0  0  0  0
    8.5050   -5.2740   27.7680 C   0  0  0  0  0  0  0  0  0  0  0  0
    9.7660   -4.8070   27.6010 C   0  0  0  0  0  0  0  0  0  0  0  0
   10.1590   -4.2360   26.3190 C   0  0  0  0  0  0  0  0  0  0  0  0
   11.3060   -3.7500   25.9940 O   0  0  0  0  0  0  0  0  0  0  0  0
   11.1030   -3.3350   24.6770 C   0  0  0  0  0  0  0  0  0  0  0  0
   12.1790   -2.7570   24.0510 C   0  0  0  0  0  0  0  0  0  0  0  0
   12.6430   -1.4720   24.3080 C   0  0  0  0  0  0  0  0  0  0  0  0
   13.4380   -2.5530   24.7520 C   0  0  0  0  0  0  0  0  0  0  0  0
    9.8800   -3.5710   24.2230 N   0  0  0  0  0  0  0  0  0  0  0  0
    9.2630   -4.1750   25.3230 C   0  0  0  0  0  0  0  0  0  0  0  0
    7.9980   -4.6440   25.4790 C   0  0  0  0  0  0  0  0  0  0  0  0
    5.4680   -4.6770   23.8920 C   0  0  0  0  0  0  0  0  0  0  0  0
    5.7010   -5.0430   22.4330 C   0  0  0  0  0  0  0  0  0  0  0  0
  1  2  1  0
  2  3  2  0
  2  4  1  0
  4  5  1  0
  5  6  1  0
  6  7  1  0
  7  8  1  0
  8  9  2  0
  8 10  1  0
 10 11  1  0
 11 12  1  0
 12 13  1  0
 13 14  2  0
 14 15  1  0
 15 16  2  0
 16 17  1  0
 17 18  1  0
 18 19  1  0
 19 20  1  0
 19 21  1  0
 18 22  2  0
 16 23  1  0
 22 23  1  0
 13 24  1  0
 23 24  2  0
  7 25  1  0
  4 26  1  0
 25 26  1  0
M  END
