piperidine-amides-24883-covalent
     RDKit          3D

 24 25  0  0  0  0  0  0  0  0999 V2000
    7.0540   -3.3530   19.3480 C   0  0  0  0  0  0  0  0  0  0  0  0
    6.3960   -4.2300   20.3290 C   0  0  0  0  0  0  0  0  0  0  0  0
    5.3850   -4.8820   19.9920 O   0  0  0  0  0  0  0  0  0  0  0  0
    6.9200   -4.3880   21.6230 N   0  0  0  0  0  0  0  0  0  0  0  0
    6.6030   -5.5720   22.3890 C   0  0  0  0  0  0  0  0  0  0  0  0
    5.8040   -5.0830   23.6050 C   0  0  0  0  0  0  0  0  0  0  0  0
    6.6130   -3.9840   24.2770 C   0  0  0  0  0  0  0  0  0  0  0  0
    5.8430   -3.3680   25.3830 C   0  0  0  0  0  0  0  0  0  0  0  0
    5.1570   -2.3740   25.0740 O   0  0  0  0  0  0  0  0  0  0  0  0
    5.7870   -3.8260   26.7330 N   0  0  0  0  0  0  0  0  0  0  0  0
    4.8220   -3.0760   27.4830 C   0  0  0  0  0  0  0  0  0  0  0  0
    4.2190   -3.9200   28.5810 C   0  0  0  0  0  0  0  0  0  0  0  0
    4.9210   -4.1350   29.7130 C   0  0  0  0  0  0  0  0  0  0  0  0
    5.7550   -5.2080   29.5750 N   0  0  0  0  0  0  0  0  0  0  0  0
    5.3550   -6.4010   30.1920 C   0  0  0  0  0  0  0  0  0  0  0  0
    5.5050   -7.4750   29.3350 C   0  0  0  0  0  0  0  0  0  0  0  0
    6.3050   -8.5080   29.6930 O   0  0  0  0  0  0  0  0  0  0  0  0
    4.8070   -7.5180   28.0800 N   0  0  0  0  0  0  0  0  0  0  0  0
    5.1510   -6.6450   26.9710 C   0  0  0  0  0  0  0  0  0  0  0  0
    3.4680   -7.5390   28.1440 C   0  0  0  0  0  0  0  0  0  0  0  0
    6.7830   -5.0420   28.6430 C   0  0  0  0  0  0  0  0  0  0  0  0
    6.4670   -3.7110   27.9960 C   0  0  0  0  0  0  0  0  0  0  0  0
    6.9260   -2.8720   23.3030 C   0  0  0  0  0  0  0  0  0  0  0  0
    7.7110   -3.3680   22.2680 C   0  0  0  0  0  0  0  0  0  0  0  0
  1  2  1  0
  2  3  2  0
  2  4  1  0
  4  5  1  0
  5  6  1  0
  6  7  1  0
  7  8  1  0
  8  9  2  0
  8 10  1  0
 10 11  1  0
 11 12  1  0
 12 13  1  0
 13 14  1  0
 14 15  1  0
 15 16  1  0
 16 17  2  0
 16 18  1  0
 18 19  1  0
 18 20  1  0
 14 21  1  0
 10 22  1  0
 21 22  1  0
  7 23  1  0
  4 24  1  0
 23 24  1  0
M  END
