piperidine-amides-25082-covalent
     RDKit          3D

 25 28  0  0  0  0  0  0  0  0999 V2000
    7.0260   -3.3570   19.3670 C   0  0  0  0  0  0  0  0  0  0  0  0
    6.3570   -4.2660   20.3370 C   0  0  0  0  0  0  0  0  0  0  0  0
    5.3380   -4.8360   19.9620 O   0  0  0  0  0  0  0  0  0  0  0  0
    6.9020   -4.4810   21.6000 N   0  0  0  0  0  0  0  0  0  0  0  0
    6.3690   -5.5210   22.4420 C   0  0  0  0  0  0  0  0  0  0  0  0
    5.3150   -4.9320   23.3550 C   0  0  0  0  0  0  0  0  0  0  0  0
    5.8860   -3.7370   24.1340 C   0  0  0  0  0  0  0  0  0  0  0  0
    4.8560   -3.1520   25.0710 C   0  0  0  0  0  0  0  0  0  0  0  0
    3.6710   -3.0560   24.7570 O   0  0  0  0  0  0  0  0  0  0  0  0
    5.3200   -2.7380   26.3240 N   0  0  0  0  0  0  0  0  0  0  0  0
    4.4200   -2.5590   27.4490 C   0  0  0  0  0  0  0  0  0  0  0  0
    4.6570   -3.6490   28.4630 C   0  0  0  0  0  0  0  0  0  0  0  0
    5.8890   -4.1210   28.6660 C   0  0  0  0  0  0  0  0  0  0  0  0
    6.7530   -3.9140   27.6620 C   0  0  0  0  0  0  0  0  0  0  0  0
    6.5400   -3.2390   26.5300 C   0  0  0  0  0  0  0  0  0  0  0  0
    7.3940   -2.9150   25.3310 C   0  0  0  0  0  0  0  0  0  0  0  0
    8.7190   -3.5020   25.4440 C   0  0  0  0  0  0  0  0  0  0  0  0
    8.9200   -4.2600   26.6960 C   0  0  0  0  0  0  0  0  0  0  0  0
    7.9050   -4.3930   27.7220 C   0  0  0  0  0  0  0  0  0  0  0  0
    8.5620   -5.1300   28.6360 N   0  0  0  0  0  0  0  0  0  0  0  0
    9.8090   -5.3540   28.1080 C   0  0  0  0  0  0  0  0  0  0  0  0
   10.0170   -4.7870   26.8170 N   0  0  0  0  0  0  0  0  0  0  0  0
   11.0310   -4.7890   25.9490 C   0  0  0  0  0  0  0  0  0  0  0  0
    6.3960   -2.7110   23.1350 C   0  0  0  0  0  0  0  0  0  0  0  0
    7.4740   -3.3740   22.3240 C   0  0  0  0  0  0  0  0  0  0  0  0
  1  2  1  0
  2  3  2  0
  2  4  1  0
  4  5  1  0
  5  6  1  0
  6  7  1  0
  7  8  1  0
  8  9  2  0
  8 10  1  0
 10 11  1  0
 11 12  1  0
 12 13  1  0
 13 14  1  0
 10 15  1  0
 14 15  2  0
 15 16  1  0
 16 17  2  0
 17 18  1  0
 14 19  1  0
 18 19  2  0
 19 20  1  0
 20 21  2  0
 18 22  1  0
 21 22  1  0
 22 23  1  0
  7 24  1  0
  4 25  1  0
 24 25  1  0
M  END
