piperidine-amides-12150-covalent
     RDKit          3D

 25 26  0  0  0  0  0  0  0  0999 V2000
    7.0340   -3.3280   19.3500 C   0  0  0  0  0  0  0  0  0  0  0  0
    6.3510   -4.1670   20.3340 C   0  0  0  0  0  0  0  0  0  0  0  0
    5.3880   -4.8490   19.9840 O   0  0  0  0  0  0  0  0  0  0  0  0
    6.8210   -4.2350   21.6970 N   0  0  0  0  0  0  0  0  0  0  0  0
    6.6410   -5.4590   22.4370 C   0  0  0  0  0  0  0  0  0  0  0  0
    6.0070   -5.1540   23.7640 C   0  0  0  0  0  0  0  0  0  0  0  0
    6.1100   -3.6550   23.9580 C   0  0  0  0  0  0  0  0  0  0  0  0
    5.6400   -3.2610   25.3240 C   0  0  0  0  0  0  0  0  0  0  0  0
    4.4260   -3.2430   25.6250 O   0  0  0  0  0  0  0  0  0  0  0  0
    6.5840   -2.8930   26.3080 N   0  0  0  0  0  0  0  0  0  0  0  0
    6.4550   -1.6240   27.0000 C   0  0  0  0  0  0  0  0  0  0  0  0
    6.9940   -1.6440   28.3930 C   0  0  0  0  0  0  0  0  0  0  0  0
    6.9410   -0.5170   29.1600 C   0  0  0  0  0  0  0  0  0  0  0  0
    6.3730    0.6480   28.6250 C   0  0  0  0  0  0  0  0  0  0  0  0
    5.8560    0.7050   27.3300 C   0  0  0  0  0  0  0  0  0  0  0  0
    5.2810    1.9530   26.8520 C   0  0  0  0  0  0  0  0  0  0  0  0
    3.6790    2.4800   27.0860 S   0  0  0  0  0  0  0  0  0  0  0  0
    3.8180    4.0880   26.5400 C   0  0  0  0  0  0  0  0  0  0  0  0
    2.7850    4.7420   27.1800 C   0  0  0  0  0  0  0  0  0  0  0  0
    2.4310    5.8900   26.4950 O   0  0  0  0  0  0  0  0  0  0  0  0
    2.2250    4.3610   28.2370 O   0  0  0  0  0  0  0  0  0  0  0  0
    2.1590    5.4020   29.1320 C   0  0  0  0  0  0  0  0  0  0  0  0
    5.9000   -0.4310   26.5210 C   0  0  0  0  0  0  0  0  0  0  0  0
    7.4930   -3.1380   23.6260 C   0  0  0  0  0  0  0  0  0  0  0  0
    7.6500   -3.1750   22.2360 C   0  0  0  0  0  0  0  0  0  0  0  0
  1  2  1  0
  2  3  2  0
  2  4  1  0
  4  5  1  0
  5  6  1  0
  6  7  1  0
  7  8  1  0
  8  9  2  0
  8 10  1  0
 10 11  1  0
 11 12  2  0
 12 13  1  0
 13 14  2  0
 14 15  1  0
 15 16  1  0
 16 17  1  0
 17 18  1  0
 18 19  1  0
 19 20  2  0
 19 21  1  0
 21 22  1  0
 11 23  1  0
 15 23  2  0
  7 24  1  0
  4 25  1  0
 24 25  1  0
M  END
