piperidine-amides-1485-covalent
     RDKit          3D

 26 27  0  0  0  0  0  0  0  0999 V2000
    7.0400   -3.3280   19.3330 C   0  0  0  0  0  0  0  0  0  0  0  0
    6.3470   -4.1780   20.3400 C   0  0  0  0  0  0  0  0  0  0  0  0
    5.3750   -4.8650   19.9820 O   0  0  0  0  0  0  0  0  0  0  0  0
    6.8350   -4.2120   21.6640 N   0  0  0  0  0  0  0  0  0  0  0  0
    7.7250   -3.1740   22.1510 C   0  0  0  0  0  0  0  0  0  0  0  0
    7.5250   -3.0620   23.6550 C   0  0  0  0  0  0  0  0  0  0  0  0
    6.1550   -3.5710   23.9060 C   0  0  0  0  0  0  0  0  0  0  0  0
    5.6670   -3.2270   25.2580 C   0  0  0  0  0  0  0  0  0  0  0  0
    4.4580   -3.3570   25.4700 O   0  0  0  0  0  0  0  0  0  0  0  0
    6.5780   -2.7730   26.2120 N   0  0  0  0  0  0  0  0  0  0  0  0
    6.4840   -1.6070   27.0120 C   0  0  0  0  0  0  0  0  0  0  0  0
    5.9340   -0.4060   26.6240 C   0  0  0  0  0  0  0  0  0  0  0  0
    5.8730    0.7120   27.4800 C   0  0  0  0  0  0  0  0  0  0  0  0
    6.3660    0.6710   28.7740 C   0  0  0  0  0  0  0  0  0  0  0  0
    6.3490    1.6880   29.6730 N   0  0  0  0  0  0  0  0  0  0  0  0
    5.7900    1.4510   30.8790 C   0  0  0  0  0  0  0  0  0  0  0  0
    6.0010    0.3280   31.5680 O   0  0  0  0  0  0  0  0  0  0  0  0
    4.8560    2.4460   31.5890 C   0  0  0  0  0  0  0  0  0  0  0  0
    4.3320    1.7370   32.8440 C   0  0  0  0  0  0  0  0  0  0  0  0
    3.4890    2.4350   33.6430 F   0  0  0  0  0  0  0  0  0  0  0  0
    3.7180    0.5380   32.5150 F   0  0  0  0  0  0  0  0  0  0  0  0
    5.3980    1.3810   33.6410 F   0  0  0  0  0  0  0  0  0  0  0  0
    6.9350   -0.4510   29.2760 C   0  0  0  0  0  0  0  0  0  0  0  0
    6.9940   -1.6110   28.3790 C   0  0  0  0  0  0  0  0  0  0  0  0
    5.9820   -5.0370   23.6460 C   0  0  0  0  0  0  0  0  0  0  0  0
    6.6520   -5.3780   22.4920 C   0  0  0  0  0  0  0  0  0  0  0  0
  1  2  1  0
  2  3  2  0
  2  4  1  0
  4  5  1  0
  5  6  1  0
  6  7  1  0
  7  8  1  0
  8  9  2  0
  8 10  1  0
 10 11  1  0
 11 12  2  0
 12 13  1  0
 13 14  2  0
 14 15  1  0
 15 16  1  0
 16 17  2  0
 16 18  1  0
 18 19  1  0
 19 20  1  0
 19 21  1  0
 19 22  1  0
 14 23  1  0
 11 24  1  0
 23 24  2  0
  7 25  1  0
  4 26  1  0
 25 26  1  0
M  END
