piperidine-amides-19465-covalent
     RDKit          3D

 22 24  0  0  0  0  0  0  0  0999 V2000
    7.0530   -3.4170   19.3920 C   0  0  0  0  0  0  0  0  0  0  0  0
    6.4270   -4.2320   20.4050 C   0  0  0  0  0  0  0  0  0  0  0  0
    5.4260   -4.9230   20.0190 O   0  0  0  0  0  0  0  0  0  0  0  0
    6.9010   -4.3400   21.7470 N   0  0  0  0  0  0  0  0  0  0  0  0
    6.6030   -5.5570   22.5050 C   0  0  0  0  0  0  0  0  0  0  0  0
    5.5490   -4.9480   23.5050 C   0  0  0  0  0  0  0  0  0  0  0  0
    6.1380   -3.7450   24.2470 C   0  0  0  0  0  0  0  0  0  0  0  0
    4.9630   -3.1440   25.1860 C   0  0  0  0  0  0  0  0  0  0  0  0
    3.9900   -2.9590   24.4840 O   0  0  0  0  0  0  0  0  0  0  0  0
    5.2570   -2.9850   26.4310 N   0  0  0  0  0  0  0  0  0  0  0  0
    5.2050   -2.4870   27.6960 C   0  0  0  0  0  0  0  0  0  0  0  0
    5.6250   -3.0020   28.8450 C   0  0  0  0  0  0  0  0  0  0  0  0
    6.4150   -3.9790   28.3260 C   0  0  1  0  0  0  0  0  0  0  0  0
    5.9690   -5.3750   28.5150 C   0  0  0  0  0  0  0  0  0  0  0  0
    6.5710   -6.2900   29.3530 N   0  0  0  0  0  0  0  0  0  0  0  0
    5.7790   -7.4800   29.2130 C   0  0  0  0  0  0  0  0  0  0  0  0
    4.8000   -7.0860   28.2880 C   0  0  0  0  0  0  0  0  0  0  0  0
    4.8860   -5.8090   27.8440 N   0  0  0  0  0  0  0  0  0  0  0  0
    3.9780   -5.1880   26.8950 C   0  0  0  0  0  0  0  0  0  0  0  0
    6.2730   -3.9110   26.8080 C   0  0  0  0  0  0  0  0  0  0  0  0
    6.8830   -2.7490   23.3800 C   0  0  0  0  0  0  0  0  0  0  0  0
    7.6690   -3.3340   22.4090 C   0  0  0  0  0  0  0  0  0  0  0  0
  1  2  1  0
  2  3  2  0
  2  4  1  0
  4  5  1  0
  5  6  1  0
  6  7  1  0
  7  8  1  0
  8  9  2  0
  8 10  1  0
 10 11  1  0
 11 12  1  0
 12 13  1  0
 13 14  1  1
 14 15  2  0
 15 16  1  0
 16 17  2  0
 14 18  1  0
 17 18  1  0
 18 19  1  0
 10 20  1  0
 13 20  1  0
  7 21  1  0
  4 22  1  0
 21 22  1  0
M  END
