piperidine-amides-13679-covalent
     RDKit          3D

 30 32  0  0  0  0  0  0  0  0999 V2000
    7.0930   -3.2710   19.2390 C   0  0  0  0  0  0  0  0  0  0  0  0
    6.3520   -4.0480   20.2740 C   0  0  0  0  0  0  0  0  0  0  0  0
    5.3400   -4.6840   19.9350 O   0  0  0  0  0  0  0  0  0  0  0  0
    6.8390   -4.0790   21.6020 N   0  0  0  0  0  0  0  0  0  0  0  0
    7.7310   -3.0620   22.1230 C   0  0  0  0  0  0  0  0  0  0  0  0
    7.6060   -3.0460   23.6490 C   0  0  0  0  0  0  0  0  0  0  0  0
    6.2200   -3.4830   23.9620 C   0  0  0  0  0  0  0  0  0  0  0  0
    5.7080   -3.0750   25.2970 C   0  0  0  0  0  0  0  0  0  0  0  0
    4.5620   -2.6180   25.3160 O   0  0  0  0  0  0  0  0  0  0  0  0
    6.4850   -3.2030   26.4580 N   0  0  0  0  0  0  0  0  0  0  0  0
    6.1990   -4.0190   27.5900 C   0  0  0  0  0  0  0  0  0  0  0  0
    5.7820   -5.3250   27.4990 C   0  0  0  0  0  0  0  0  0  0  0  0
    4.8990   -5.6750   26.4640 C   0  0  0  0  0  0  0  0  0  0  0  0
    3.8040   -6.4970   26.9510 N   0  0  0  0  0  0  0  0  0  0  0  0
    3.2870   -6.4110   28.2010 C   0  0  0  0  0  0  0  0  0  0  0  0
    2.0370   -7.1400   28.5270 C   0  0  0  0  0  0  0  0  0  0  0  0
    1.9110   -8.3270   29.4830 C   0  0  0  0  0  0  0  0  0  0  0  0
    0.5240   -8.9190   29.6590 C   0  0  0  0  0  0  0  0  0  0  0  0
   -0.5460   -8.3910   28.9790 C   0  0  0  0  0  0  0  0  0  0  0  0
   -0.6120   -7.2580   28.0270 C   0  0  0  0  0  0  0  0  0  0  0  0
    0.7830   -6.6660   27.8530 C   0  0  0  0  0  0  0  0  0  0  0  0
    3.2730   -7.4110   26.1300 C   0  0  0  0  0  0  0  0  0  0  0  0
    2.3210   -6.9770   24.9930 C   0  0  0  0  0  0  0  0  0  0  0  0
    2.1970   -7.8150   23.7430 C   0  0  0  0  0  0  0  0  0  0  0  0
    1.2740   -7.4200   22.6090 C   0  0  0  0  0  0  0  0  0  0  0  0
    0.5110   -6.1740   22.8080 C   0  0  0  0  0  0  0  0  0  0  0  0
    0.6610   -5.4400   23.9770 C   0  0  0  0  0  0  0  0  0  0  0  0
    1.5150   -5.8260   24.9960 C   0  0  0  0  0  0  0  0  0  0  0  0
    6.1580   -5.0030   23.7510 C   0  0  0  0  0  0  0  0  0  0  0  0
    6.6860   -5.3290   22.3570 C   0  0  0  0  0  0  0  0  0  0  0  0
  1  2  1  0
  2  3  2  0
  2  4  1  0
  4  5  1  0
  5  6  1  0
  6  7  1  0
  7  8  1  0
  8  9  2  0
  8 10  1  0
 10 11  1  0
 11 12  1  0
 12 13  1  0
 13 14  1  0
 14 15  1  0
 15 16  1  0
 16 17  2  0
 17 18  1  0
 18 19  2  0
 19 20  1  0
 16 21  1  0
 20 21  2  0
 14 22  1  0
 22 23  1  0
 23 24  2  0
 24 25  1  0
 25 26  2  0
 26 27  1  0
 23 28  1  0
 27 28  2  0
  7 29  1  0
  4 30  1  0
 29 30  1  0
M  END
