piperidine-amides-29068-covalent
     RDKit          3D

 26 28  0  0  0  0  0  0  0  0999 V2000
    7.0660   -3.3310   19.3380 C   0  0  0  0  0  0  0  0  0  0  0  0
    6.4050   -4.1690   20.3350 C   0  0  0  0  0  0  0  0  0  0  0  0
    5.4010   -4.8160   19.9790 O   0  0  0  0  0  0  0  0  0  0  0  0
    6.9300   -4.2720   21.6530 N   0  0  0  0  0  0  0  0  0  0  0  0
    6.6970   -5.4940   22.3750 C   0  0  0  0  0  0  0  0  0  0  0  0
    6.1850   -5.1990   23.7610 C   0  0  0  0  0  0  0  0  0  0  0  0
    6.2110   -3.6970   23.9370 C   0  0  0  0  0  0  0  0  0  0  0  0
    5.6540   -3.2670   25.2660 C   0  0  0  0  0  0  0  0  0  0  0  0
    4.4450   -3.0480   25.2520 O   0  0  0  0  0  0  0  0  0  0  0  0
    6.4490   -3.1330   26.4110 N   0  0  0  0  0  0  0  0  0  0  0  0
    7.3320   -4.1860   26.7830 C   0  0  0  0  0  0  0  0  0  0  0  0
    6.7780   -5.0170   27.7430 C   0  0  0  0  0  0  0  0  0  0  0  0
    5.4730   -5.3800   27.4370 C   0  0  0  0  0  0  0  0  0  0  0  0
    4.6200   -5.3970   28.5340 C   0  0  0  0  0  0  0  0  0  0  0  0
    5.2370   -6.1090   29.5270 O   0  0  0  0  0  0  0  0  0  0  0  0
    6.2170   -6.8400   28.9280 C   0  0  0  0  0  0  0  0  0  0  0  0
    7.3290   -6.2440   28.0040 C   0  0  0  0  0  0  0  0  0  0  0  0
    6.8940   -4.3160   28.8670 C   0  0  0  0  0  0  0  0  0  0  0  0
    6.1660   -3.0320   28.9580 C   0  0  0  0  0  0  0  0  0  0  0  0
    5.6860   -2.5640   27.5540 C   0  0  1  0  0  0  0  0  0  0  0  0
    5.4360   -1.2030   27.5210 C   0  0  0  0  0  0  0  0  0  0  0  0
    6.4520   -0.2570   27.2860 O   0  0  0  0  0  0  0  0  0  0  0  0
    4.1790   -0.6910   27.7320 O   0  0  0  0  0  0  0  0  0  0  0  0
    3.7450   -0.0580   28.8970 C   0  0  0  0  0  0  0  0  0  0  0  0
    7.5530   -3.1310   23.6710 C   0  0  0  0  0  0  0  0  0  0  0  0
    7.7940   -3.2390   22.1970 C   0  0  0  0  0  0  0  0  0  0  0  0
  1  2  1  0
  2  3  2  0
  2  4  1  0
  4  5  1  0
  5  6  1  0
  6  7  1  0
  7  8  1  0
  8  9  2  0
  8 10  1  0
 10 11  1  0
 12 11  1  0
 12 13  1  0
 13 14  1  0
 14 15  1  0
 15 16  1  0
 12 17  1  0
 16 17  1  0
 12 18  1  0
 18 19  1  0
 10 20  1  0
 19 20  1  0
 20 21  1  1
 21 22  2  0
 21 23  1  0
 23 24  1  0
  7 25  1  0
  4 26  1  0
 25 26  1  0
M  END
