piperidine-amides-27542-covalent
     RDKit          3D

 26 29  0  0  0  0  0  0  0  0999 V2000
    7.0140   -3.3720   19.3990 C   0  0  0  0  0  0  0  0  0  0  0  0
    6.3910   -4.2460   20.4010 C   0  0  0  0  0  0  0  0  0  0  0  0
    5.4030   -4.9150   19.9990 O   0  0  0  0  0  0  0  0  0  0  0  0
    6.9040   -4.3460   21.7080 N   0  0  0  0  0  0  0  0  0  0  0  0
    6.6200   -5.5080   22.5270 C   0  0  0  0  0  0  0  0  0  0  0  0
    5.9530   -5.0460   23.8060 C   0  0  0  0  0  0  0  0  0  0  0  0
    5.9200   -3.5410   23.8850 C   0  0  0  0  0  0  0  0  0  0  0  0
    5.2470   -2.9790   25.1120 C   0  0  0  0  0  0  0  0  0  0  0  0
    4.8070   -1.8250   25.0230 O   0  0  0  0  0  0  0  0  0  0  0  0
    5.0530   -3.6290   26.3520 N   0  0  0  0  0  0  0  0  0  0  0  0
    4.3860   -2.9930   27.4770 C   0  0  0  0  0  0  0  0  0  0  0  0
    4.4430   -3.9340   28.6890 C   0  0  2  0  0  0  0  0  0  0  0  0
    5.5300   -4.0330   29.4800 C   0  0  0  0  0  0  0  0  0  0  0  0
    6.3970   -4.9250   28.9250 C   0  0  0  0  0  0  0  0  0  0  0  0
    5.7940   -5.3370   27.7380 C   0  0  2  0  0  0  0  0  0  0  0  0
    6.0510   -4.4750   26.7200 C   0  0  0  0  0  0  0  0  0  0  0  0
    4.5200   -5.2230   28.0460 N   0  0  0  0  0  0  0  0  0  0  0  0
    3.7790   -6.2820   28.4620 C   0  0  0  0  0  0  0  0  0  0  0  0
    4.2850   -6.6230   29.8440 C   0  0  0  0  0  0  0  0  0  0  0  0
    3.4880   -5.8450   30.8820 C   0  0  0  0  0  0  0  0  0  0  0  0
    3.8200   -6.0300   32.3290 C   0  0  0  0  0  0  0  0  0  0  0  0
    4.9330   -6.9800   32.7060 C   0  0  0  0  0  0  0  0  0  0  0  0
    5.6430   -7.6780   31.7410 C   0  0  0  0  0  0  0  0  0  0  0  0
    5.3080   -7.4920   30.2550 C   0  0  0  0  0  0  0  0  0  0  0  0
    7.3070   -3.0080   23.7130 C   0  0  0  0  0  0  0  0  0  0  0  0
    7.7050   -3.2520   22.2500 C   0  0  0  0  0  0  0  0  0  0  0  0
  1  2  1  0
  2  3  2  0
  2  4  1  0
  4  5  1  0
  5  6  1  0
  6  7  1  0
  7  8  1  0
  8  9  2  0
  8 10  1  0
 10 11  1  0
 12 11  1  6
 12 13  1  0
 13 14  1  0
 15 14  1  1
 10 16  1  0
 15 16  1  0
 12 17  1  0
 15 17  1  0
 17 18  1  0
 18 19  1  0
 19 20  2  0
 20 21  1  0
 21 22  2  0
 22 23  1  0
 19 24  1  0
 23 24  2  0
  7 25  1  0
  4 26  1  0
 25 26  1  0
M  END
