piperidine-amides-24655-covalent
     RDKit          3D

 23 25  0  0  0  0  0  0  0  0999 V2000
    7.0620   -3.3390   19.3750 C   0  0  0  0  0  0  0  0  0  0  0  0
    6.3950   -4.2280   20.3400 C   0  0  0  0  0  0  0  0  0  0  0  0
    5.3880   -4.8800   19.9900 O   0  0  0  0  0  0  0  0  0  0  0  0
    6.9120   -4.3900   21.6370 N   0  0  0  0  0  0  0  0  0  0  0  0
    6.5360   -5.5430   22.4130 C   0  0  0  0  0  0  0  0  0  0  0  0
    5.5590   -5.0210   23.4750 C   0  0  0  0  0  0  0  0  0  0  0  0
    6.2920   -3.9750   24.2950 C   0  0  0  0  0  0  0  0  0  0  0  0
    5.3450   -3.3930   25.2910 C   0  0  0  0  0  0  0  0  0  0  0  0
    4.5220   -2.5690   24.8610 O   0  0  0  0  0  0  0  0  0  0  0  0
    5.3450   -3.7380   26.6790 N   0  0  0  0  0  0  0  0  0  0  0  0
    6.4490   -3.4120   27.4460 C   0  0  0  0  0  0  0  0  0  0  0  0
    6.6760   -4.5970   28.3750 C   0  0  0  0  0  0  0  0  0  0  0  0
    5.4870   -4.6250   29.1700 N   0  0  0  0  0  0  0  0  0  0  0  0
    4.9300   -5.7990   29.8170 C   0  0  0  0  0  0  0  0  0  0  0  0
    3.6540   -6.0030   30.1250 N   0  0  0  0  0  0  0  0  0  0  0  0
    3.4840   -7.2010   30.7250 C   0  0  0  0  0  0  0  0  0  0  0  0
    2.2900   -7.7490   31.1790 C   0  0  0  0  0  0  0  0  0  0  0  0
    4.5660   -8.0030   30.9320 N   0  0  0  0  0  0  0  0  0  0  0  0
    5.8930   -7.1530   30.3000 S   0  0  0  0  0  0  0  0  0  0  0  0
    4.4110   -3.7580   28.8940 C   0  0  0  0  0  0  0  0  0  0  0  0
    4.0940   -3.5620   27.4130 C   0  0  0  0  0  0  0  0  0  0  0  0
    6.9200   -2.8850   23.4740 C   0  0  0  0  0  0  0  0  0  0  0  0
    7.7120   -3.3860   22.3080 C   0  0  0  0  0  0  0  0  0  0  0  0
  1  2  1  0
  2  3  2  0
  2  4  1  0
  4  5  1  0
  5  6  1  0
  6  7  1  0
  7  8  1  0
  8  9  2  0
  8 10  1  0
 10 11  1  0
 11 12  1  0
 12 13  1  0
 13 14  1  0
 14 15  2  0
 15 16  1  0
 16 17  1  0
 16 18  2  0
 14 19  1  0
 18 19  1  0
 13 20  1  0
 10 21  1  0
 20 21  1  0
  7 22  1  0
  4 23  1  0
 22 23  1  0
M  END
