piperidine-amides-369-covalent
     RDKit          3D

 28 31  0  0  0  0  0  0  0  0999 V2000
    7.1290   -3.2710   19.3630 C   0  0  0  0  0  0  0  0  0  0  0  0
    6.3660   -4.0540   20.3140 C   0  0  0  0  0  0  0  0  0  0  0  0
    5.3070   -4.6270   19.9080 O   0  0  0  0  0  0  0  0  0  0  0  0
    6.7510   -4.2430   21.6540 N   0  0  0  0  0  0  0  0  0  0  0  0
    7.7550   -3.2940   22.2340 C   0  0  0  0  0  0  0  0  0  0  0  0
    7.1380   -2.8160   23.6160 C   0  0  0  0  0  0  0  0  0  0  0  0
    6.1880   -3.8940   24.0770 C   0  0  0  0  0  0  0  0  0  0  0  0
    5.6710   -3.7030   25.5580 C   0  0  0  0  0  0  0  0  0  0  0  0
    5.1310   -4.7200   25.9440 O   0  0  0  0  0  0  0  0  0  0  0  0
    5.9140   -2.5380   25.9720 N   0  0  0  0  0  0  0  0  0  0  0  0
    5.9960   -1.2810   26.4730 C   0  0  0  0  0  0  0  0  0  0  0  0
    6.2010    0.0130   26.1010 C   0  0  0  0  0  0  0  0  0  0  0  0
    6.2070    1.1510   26.9810 C   0  0  0  0  0  0  0  0  0  0  0  0
    6.0000    1.2370   28.4540 C   0  0  0  0  0  0  0  0  0  0  0  0
    6.0200    2.3870   29.2730 N   0  0  0  0  0  0  0  0  0  0  0  0
    6.3490    2.5230   30.6720 C   0  0  0  0  0  0  0  0  0  0  0  0
    5.9570    3.8630   30.7320 C   0  0  0  0  0  0  0  0  0  0  0  0
    4.9110    4.1180   31.6160 C   0  0  0  0  0  0  0  0  0  0  0  0
    4.3260    3.4590   30.3260 C   0  0  0  0  0  0  0  0  0  0  0  0
    5.2160    3.4330   29.0180 C   0  0  0  0  0  0  0  0  0  0  0  0
    5.7470   -0.2190   28.8480 C   0  0  0  0  0  0  0  0  0  0  0  0
    5.4830   -0.3810   30.2150 N   0  0  0  0  0  0  0  0  0  0  0  0
    5.2230   -1.6240   30.6600 C   0  0  0  0  0  0  0  0  0  0  0  0
    5.2250   -2.7050   29.8500 C   0  0  0  0  0  0  0  0  0  0  0  0
    5.4860   -2.5720   28.5320 C   0  0  0  0  0  0  0  0  0  0  0  0
    5.7530   -1.3690   27.9150 C   0  0  0  0  0  0  0  0  0  0  0  0
    6.5030   -5.3000   23.7400 C   0  0  0  0  0  0  0  0  0  0  0  0
    6.6570   -5.5220   22.2860 C   0  0  0  0  0  0  0  0  0  0  0  0
  1  2  1  0
  2  3  2  0
  2  4  1  0
  4  5  1  0
  5  6  1  0
  6  7  1  0
  7  8  1  0
  8  9  2  0
  8 10  1  0
 10 11  1  0
 11 12  2  0
 12 13  1  0
 13 14  2  0
 14 15  1  0
 15 16  1  0
 16 17  1  0
 17 18  1  0
 18 19  1  0
 15 20  1  0
 19 20  1  0
 14 21  1  0
 21 22  1  0
 22 23  2  0
 23 24  1  0
 24 25  2  0
 11 26  1  0
 21 26  2  0
 25 26  1  0
  7 27  1  0
  4 28  1  0
 27 28  1  0
M  END
