piperidine-amides-5164-covalent
     RDKit          3D

 22 23  0  0  0  0  0  0  0  0999 V2000
    7.0870   -3.2690   19.2230 C   0  0  0  0  0  0  0  0  0  0  0  0
    6.3560   -4.0410   20.2530 C   0  0  0  0  0  0  0  0  0  0  0  0
    5.2910   -4.5770   19.8930 O   0  0  0  0  0  0  0  0  0  0  0  0
    6.8680   -4.1940   21.5550 N   0  0  0  0  0  0  0  0  0  0  0  0
    6.4920   -5.3160   22.3430 C   0  0  0  0  0  0  0  0  0  0  0  0
    6.0290   -4.9810   23.7010 C   0  0  0  0  0  0  0  0  0  0  0  0
    6.5650   -3.7270   24.3030 C   0  0  0  0  0  0  0  0  0  0  0  0
    5.7030   -3.3130   25.4580 C   0  0  0  0  0  0  0  0  0  0  0  0
    4.5090   -3.0610   25.2110 O   0  0  0  0  0  0  0  0  0  0  0  0
    6.1800   -3.1930   26.7960 N   0  0  0  0  0  0  0  0  0  0  0  0
    6.2220   -4.3330   27.7660 C   0  0  2  0  0  0  0  0  0  0  0  0
    5.9930   -5.6600   27.1200 C   0  0  0  0  0  0  0  0  0  0  0  0
    5.3360   -4.2220   28.9160 C   0  0  0  0  0  0  0  0  0  0  0  0
    5.0010   -3.0400   29.2580 O   0  0  0  0  0  0  0  0  0  0  0  0
    4.8690   -5.3850   29.6440 N   0  0  0  0  0  0  0  0  0  0  0  0
    3.5280   -5.7550   29.9130 C   0  0  0  0  0  0  0  0  0  0  0  0
    3.3410   -7.0970   30.1820 C   0  0  0  0  0  0  0  0  0  0  0  0
    4.3680   -7.7840   30.8440 O   0  0  0  0  0  0  0  0  0  0  0  0
    5.6680   -7.2560   30.6780 C   0  0  0  0  0  0  0  0  0  0  0  0
    5.7770   -6.4830   29.5610 C   0  0  0  0  0  0  0  0  0  0  0  0
    6.8510   -2.6420   23.3370 C   0  0  0  0  0  0  0  0  0  0  0  0
    7.5340   -3.0990   22.2090 C   0  0  0  0  0  0  0  0  0  0  0  0
  1  2  1  0
  2  3  2  0
  2  4  1  0
  4  5  1  0
  5  6  1  0
  6  7  1  0
  7  8  1  0
  8  9  2  0
  8 10  1  0
 10 11  1  0
 11 12  1  6
 11 13  1  0
 13 14  2  0
 13 15  1  0
 15 16  1  0
 16 17  1  0
 17 18  1  0
 18 19  1  0
 15 20  1  0
 19 20  1  0
  7 21  1  0
  4 22  1  0
 21 22  1  0
M  END
