piperidine-amides-31324-covalent
     RDKit          3D

 28 30  0  0  0  0  0  0  0  0999 V2000
    7.1100   -3.3540   19.2320 C   0  0  0  0  0  0  0  0  0  0  0  0
    6.3450   -4.0060   20.2690 C   0  0  0  0  0  0  0  0  0  0  0  0
    5.2920   -4.6200   19.9170 O   0  0  0  0  0  0  0  0  0  0  0  0
    6.7520   -4.0390   21.6160 N   0  0  0  0  0  0  0  0  0  0  0  0
    6.6350   -5.3600   22.2900 C   0  0  0  0  0  0  0  0  0  0  0  0
    5.9240   -4.9900   23.6580 C   0  0  0  0  0  0  0  0  0  0  0  0
    6.2820   -3.5490   23.9540 C   0  0  0  0  0  0  0  0  0  0  0  0
    5.8120   -3.0670   25.3930 C   0  0  0  0  0  0  0  0  0  0  0  0
    4.6790   -2.6010   25.3320 O   0  0  0  0  0  0  0  0  0  0  0  0
    6.7340   -3.3040   26.2480 N   0  0  0  0  0  0  0  0  0  0  0  0
    7.7870   -3.9090   26.8730 C   0  0  0  0  0  0  0  0  0  0  0  0
    7.9130   -4.8920   27.8200 C   0  0  0  0  0  0  0  0  0  0  0  0
    6.6670   -5.1280   28.4580 C   0  0  0  0  0  0  0  0  0  0  0  0
    6.5320   -6.4830   28.9990 C   0  0  0  0  0  0  0  0  0  0  0  0
    6.4640   -2.5400   27.4530 C   0  0  0  0  0  0  0  0  0  0  0  0
    6.9950   -1.2400   27.5240 C   0  0  0  0  0  0  0  0  0  0  0  0
    6.3660   -0.1010   26.9730 N   0  0  0  0  0  0  0  0  0  0  0  0
    6.9120    1.2360   27.1070 C   0  0  0  0  0  0  0  0  0  0  0  0
    6.4290    2.4350   26.3310 C   0  0  0  0  0  0  0  0  0  0  0  0
    7.1530    3.7590   26.6500 C   0  0  0  0  0  0  0  0  0  0  0  0
    8.1520    3.7290   27.5940 C   0  0  0  0  0  0  0  0  0  0  0  0
    8.5170    2.5530   28.2510 C   0  0  0  0  0  0  0  0  0  0  0  0
    7.9090    1.3380   28.0090 C   0  0  0  0  0  0  0  0  0  0  0  0
    8.3600    0.2500   28.7170 C   0  0  0  0  0  0  0  0  0  0  0  0
    8.9480    0.4370   29.8300 O   0  0  0  0  0  0  0  0  0  0  0  0
    8.1500   -0.9790   28.1700 N   0  0  0  0  0  0  0  0  0  0  0  0
    7.6210   -3.0520   23.5590 C   0  0  0  0  0  0  0  0  0  0  0  0
    7.7280   -3.0720   22.0790 C   0  0  0  0  0  0  0  0  0  0  0  0
  1  2  1  0
  2  3  2  0
  2  4  1  0
  4  5  1  0
  5  6  1  0
  6  7  1  0
  7  8  1  0
  8  9  2  0
  8 10  1  0
 10 11  1  0
 11 12  1  0
 12 13  1  0
 13 14  1  0
 10 15  1  0
 15 16  1  0
 16 17  2  0
 17 18  1  0
 18 19  2  0
 19 20  1  0
 20 21  2  0
 21 22  1  0
 18 23  1  0
 22 23  2  0
 23 24  1  0
 24 25  2  0
 16 26  1  0
 24 26  1  0
  7 27  1  0
  4 28  1  0
 27 28  1  0
M  END
