piperidine-amides-16164-covalent
     RDKit          3D

 19 20  0  0  0  0  0  0  0  0999 V2000
    7.0210   -3.3940   19.4770 C   0  0  0  0  0  0  0  0  0  0  0  0
    6.3590   -4.3010   20.4470 C   0  0  0  0  0  0  0  0  0  0  0  0
    5.4250   -4.9780   20.0140 O   0  0  0  0  0  0  0  0  0  0  0  0
    6.8220   -4.3910   21.7760 N   0  0  0  0  0  0  0  0  0  0  0  0
    6.6270   -5.5780   22.5850 C   0  0  0  0  0  0  0  0  0  0  0  0
    6.1030   -5.2290   23.9720 C   0  0  0  0  0  0  0  0  0  0  0  0
    6.0660   -3.7100   24.1270 C   0  0  0  0  0  0  0  0  0  0  0  0
    5.4630   -3.2270   25.4130 C   0  0  0  0  0  0  0  0  0  0  0  0
    4.9680   -2.1000   25.3720 O   0  0  0  0  0  0  0  0  0  0  0  0
    5.3430   -3.8960   26.6680 N   0  0  0  0  0  0  0  0  0  0  0  0
    6.3670   -3.6770   27.6170 C   0  0  0  0  0  0  0  0  0  0  0  0
    6.6110   -5.0430   28.2260 C   0  0  0  0  0  0  0  0  0  0  0  0
    5.5800   -5.6400   28.7760 C   0  0  1  0  0  0  0  0  0  0  0  0
    5.7970   -6.3660   29.8930 C   0  0  0  0  0  0  0  0  0  0  0  0
    4.7310   -4.4180   29.0420 C   0  0  2  0  0  0  0  0  0  0  0  0
    3.6030   -4.7900   29.7060 O   0  0  0  0  0  0  0  0  0  0  0  0
    4.4130   -3.6150   27.7670 C   0  0  0  0  0  0  0  0  0  0  0  0
    7.3760   -3.0980   23.7680 C   0  0  0  0  0  0  0  0  0  0  0  0
    7.6450   -3.3130   22.3110 C   0  0  0  0  0  0  0  0  0  0  0  0
  1  2  1  0
  2  3  2  0
  2  4  1  0
  4  5  1  0
  5  6  1  0
  6  7  1  0
  7  8  1  0
  8  9  2  0
  8 10  1  0
 10 11  1  0
 11 12  1  0
 12 13  1  0
 13 14  1  1
 13 15  1  0
 15 16  1  6
 10 17  1  0
 15 17  1  0
  7 18  1  0
  4 19  1  0
 18 19  1  0
M  END
