piperidine-amides-13712-covalent
     RDKit          3D

 28 30  0  0  0  0  0  0  0  0999 V2000
    7.0550   -3.3340   19.3230 C   0  0  0  0  0  0  0  0  0  0  0  0
    6.3650   -4.1830   20.3320 C   0  0  0  0  0  0  0  0  0  0  0  0
    5.3770   -4.8490   19.9800 O   0  0  0  0  0  0  0  0  0  0  0  0
    6.8790   -4.2380   21.6470 N   0  0  0  0  0  0  0  0  0  0  0  0
    7.7140   -3.1770   22.1720 C   0  0  0  0  0  0  0  0  0  0  0  0
    7.5250   -3.1080   23.6890 C   0  0  0  0  0  0  0  0  0  0  0  0
    6.1340   -3.5530   23.9720 C   0  0  0  0  0  0  0  0  0  0  0  0
    5.6370   -3.1910   25.3190 C   0  0  0  0  0  0  0  0  0  0  0  0
    4.4130   -3.2170   25.4820 O   0  0  0  0  0  0  0  0  0  0  0  0
    6.5400   -2.8420   26.3230 N   0  0  0  0  0  0  0  0  0  0  0  0
    6.5190   -1.7120   27.1820 C   0  0  0  0  0  0  0  0  0  0  0  0
    7.0260   -1.5350   28.4520 C   0  0  0  0  0  0  0  0  0  0  0  0
    6.9210   -0.3380   29.1790 C   0  0  0  0  0  0  0  0  0  0  0  0
    6.2880    0.7850   28.6770 C   0  0  0  0  0  0  0  0  0  0  0  0
    6.1690    2.0500   29.4500 C   0  0  0  0  0  0  0  0  0  0  0  0
    7.2580    2.8070   29.5980 O   0  0  0  0  0  0  0  0  0  0  0  0
    4.8530    2.2300   29.9190 N   0  0  0  0  0  0  0  0  0  0  0  0
    3.7760    2.4530   28.9920 C   0  0  0  0  0  0  0  0  0  0  0  0
    2.5110    2.9550   29.6860 C   0  0  0  0  0  0  0  0  0  0  0  0
    2.3400    2.7740   31.0080 N   0  0  0  0  0  0  0  0  0  0  0  0
    1.0770    2.4640   31.2970 C   0  0  0  0  0  0  0  0  0  0  0  0
   -0.1910    3.1100   30.8860 C   0  0  0  0  0  0  0  0  0  0  0  0
    3.4330    1.9620   31.4870 C   0  0  0  0  0  0  0  0  0  0  0  0
    4.5550    2.6730   31.1460 C   0  0  0  0  0  0  0  0  0  0  0  0
    5.7570    0.7130   27.4320 C   0  0  0  0  0  0  0  0  0  0  0  0
    5.8240   -0.5270   26.5850 C   0  0  0  0  0  0  0  0  0  0  0  0
    6.0190   -5.0480   23.7770 C   0  0  0  0  0  0  0  0  0  0  0  0
    6.6060   -5.4250   22.4640 C   0  0  0  0  0  0  0  0  0  0  0  0
  1  2  1  0
  2  3  2  0
  2  4  1  0
  4  5  1  0
  5  6  1  0
  6  7  1  0
  7  8  1  0
  8  9  2  0
  8 10  1  0
 10 11  1  0
 11 12  2  0
 12 13  1  0
 13 14  2  0
 14 15  1  0
 15 16  2  0
 15 17  1  0
 17 18  1  0
 18 19  1  0
 19 20  1  0
 20 21  1  0
 21 22  1  0
 20 23  1  0
 17 24  1  0
 23 24  1  0
 14 25  1  0
 11 26  1  0
 25 26  2  0
  7 27  1  0
  4 28  1  0
 27 28  1  0
M  END
