piperidine-amides-29657-covalent
     RDKit          3D

 22 23  0  0  0  0  0  0  0  0999 V2000
    7.0220   -3.3860   19.3460 C   0  0  0  0  0  0  0  0  0  0  0  0
    6.3110   -4.2090   20.3150 C   0  0  0  0  0  0  0  0  0  0  0  0
    5.3120   -4.8300   19.9680 O   0  0  0  0  0  0  0  0  0  0  0  0
    6.8000   -4.3440   21.6580 N   0  0  0  0  0  0  0  0  0  0  0  0
    6.5400   -5.5480   22.4200 C   0  0  0  0  0  0  0  0  0  0  0  0
    5.7880   -5.2220   23.6880 C   0  0  0  0  0  0  0  0  0  0  0  0
    5.9190   -3.7180   23.8960 C   0  0  0  0  0  0  0  0  0  0  0  0
    5.3070   -3.1810   25.2050 C   0  0  0  0  0  0  0  0  0  0  0  0
    4.0940   -2.8370   25.1980 O   0  0  0  0  0  0  0  0  0  0  0  0
    6.0360   -3.0320   26.4800 N   0  0  0  0  0  0  0  0  0  0  0  0
    6.6450   -4.2700   27.0160 C   0  0  0  0  0  0  0  0  0  0  0  0
    6.5690   -1.6740   26.7000 C   0  0  0  0  0  0  0  0  0  0  0  0
    6.6960   -2.1460   27.9460 C   0  0  0  0  0  0  0  0  0  0  0  0
    5.7300   -3.1860   28.1690 N   0  0  0  0  0  0  0  0  0  0  0  0
    4.9350   -3.4400   27.0840 N   0  0  0  0  0  0  0  0  0  0  0  0
    3.6580   -4.1150   27.1700 C   0  0  0  0  0  0  0  0  0  0  0  0
    5.5980   -3.1940   25.8850 C   0  0  0  0  0  0  0  0  0  0  0  0
    5.7850   -4.1080   25.0520 O   0  0  0  0  0  0  0  0  0  0  0  0
    6.1370   -1.8690   25.4760 C   0  0  0  0  0  0  0  0  0  0  0  0
    6.1360   -0.7700   23.9140 Br  0  0  0  0  0  0  0  0  0  0  0  0
    7.3190   -3.2450   23.6430 C   0  0  0  0  0  0  0  0  0  0  0  0
    7.5980   -3.2910   22.2960 C   0  0  0  0  0  0  0  0  0  0  0  0
  1  2  1  0
  2  3  2  0
  2  4  1  0
  4  5  1  0
  5  6  1  0
  6  7  1  0
  7  8  1  0
  8  9  2  0
  8 10  1  0
 10 11  1  0
 10 12  1  0
 12 13  1  0
 13 14  2  0
 14 15  1  0
 15 16  1  0
 15 17  1  0
 17 18  2  0
 12 19  2  0
 17 19  1  0
 19 20  1  0
  7 21  1  0
  4 22  1  0
 21 22  1  0
M  END
