piperidine-amides-13396-covalent
     RDKit          3D

 27 29  0  0  0  0  0  0  0  0999 V2000
    7.0560   -3.3450   19.3580 C   0  0  0  0  0  0  0  0  0  0  0  0
    6.3730   -4.2290   20.3440 C   0  0  0  0  0  0  0  0  0  0  0  0
    5.3580   -4.8460   19.9800 O   0  0  0  0  0  0  0  0  0  0  0  0
    6.9030   -4.3940   21.6460 N   0  0  0  0  0  0  0  0  0  0  0  0
    7.8370   -3.4870   22.2730 C   0  0  0  0  0  0  0  0  0  0  0  0
    7.1310   -2.7750   23.4180 C   0  0  0  0  0  0  0  0  0  0  0  0
    6.0090   -3.6220   23.9160 C   0  0  0  0  0  0  0  0  0  0  0  0
    5.6440   -3.2750   25.3020 C   0  0  0  0  0  0  0  0  0  0  0  0
    4.5560   -3.6960   25.7120 O   0  0  0  0  0  0  0  0  0  0  0  0
    6.5080   -2.4890   26.0690 N   0  0  0  0  0  0  0  0  0  0  0  0
    6.2030   -1.7830   27.2540 C   0  0  1  0  0  0  0  0  0  0  0  0
    7.0950   -1.4060   28.2060 C   0  0  0  0  0  0  0  0  0  0  0  0
    6.7530   -0.3670   29.1070 C   0  0  0  0  0  0  0  0  0  0  0  0
    6.2540    0.8580   29.5180 O   0  0  0  0  0  0  0  0  0  0  0  0
    6.2690    0.2920   27.8530 N   0  0  0  0  0  0  0  0  0  0  0  0
    6.3710    1.6200   27.5910 C   0  0  0  0  0  0  0  0  0  0  0  0
    5.6420   -0.4860   26.9480 C   0  0  1  0  0  0  0  0  0  0  0  0
    5.7370    0.0680   25.5080 C   0  0  0  0  0  0  0  0  0  0  0  0
    6.8790   -0.4610   24.6970 C   0  0  0  0  0  0  0  0  0  0  0  0
    7.0130    0.0120   23.4130 C   0  0  0  0  0  0  0  0  0  0  0  0
    6.1260    1.0160   22.7220 C   0  0  0  0  0  0  0  0  0  0  0  0
    6.2870    1.4630   21.4530 F   0  0  0  0  0  0  0  0  0  0  0  0
    4.9960    1.4640   23.6850 C   0  0  0  0  0  0  0  0  0  0  0  0
    4.1090    2.3840   23.1850 F   0  0  0  0  0  0  0  0  0  0  0  0
    4.7970    1.0370   24.9780 C   0  0  0  0  0  0  0  0  0  0  0  0
    6.2090   -5.1070   23.8330 C   0  0  0  0  0  0  0  0  0  0  0  0
    6.5430   -5.5570   22.4320 C   0  0  0  0  0  0  0  0  0  0  0  0
  1  2  1  0
  2  3  2  0
  2  4  1  0
  4  5  1  0
  5  6  1  0
  6  7  1  0
  7  8  1  0
  8  9  2  0
  8 10  1  0
 11 10  1  6
 11 12  1  0
 12 13  1  0
 13 14  2  0
 13 15  1  0
 15 16  1  0
 11 17  1  0
 15 17  1  0
 17 18  1  6
 18 19  2  0
 19 20  1  0
 20 21  2  0
 21 22  1  0
 21 23  1  0
 23 24  1  0
 18 25  1  0
 23 25  2  0
  7 26  1  0
  4 27  1  0
 26 27  1  0
M  END
