piperidine-amides-873-covalent
     RDKit          3D

 25 26  0  0  0  0  0  0  0  0999 V2000
    7.1050   -3.2630   19.3410 C   0  0  0  0  0  0  0  0  0  0  0  0
    6.3310   -4.0240   20.3090 C   0  0  0  0  0  0  0  0  0  0  0  0
    5.3040   -4.6510   19.9070 O   0  0  0  0  0  0  0  0  0  0  0  0
    6.6750   -4.1240   21.6740 N   0  0  0  0  0  0  0  0  0  0  0  0
    6.4380   -5.4450   22.3060 C   0  0  0  0  0  0  0  0  0  0  0  0
    6.2390   -5.0540   23.8260 C   0  0  0  0  0  0  0  0  0  0  0  0
    6.0010   -3.5600   23.8440 C   0  0  0  0  0  0  0  0  0  0  0  0
    5.2540   -3.0040   25.1520 C   0  0  0  0  0  0  0  0  0  0  0  0
    4.4640   -2.1300   24.8370 O   0  0  0  0  0  0  0  0  0  0  0  0
    5.6610   -3.6040   26.2060 N   0  0  0  0  0  0  0  0  0  0  0  0
    6.0650   -4.2550   27.3330 C   0  0  1  0  0  0  0  0  0  0  0  0
    5.6490   -5.2720   28.1520 C   0  0  0  0  0  0  0  0  0  0  0  0
    4.2490   -5.2350   28.3840 C   0  0  0  0  0  0  0  0  0  0  0  0
    3.7210   -4.0340   28.8890 O   0  0  0  0  0  0  0  0  0  0  0  0
    3.4630   -6.3550   28.1180 O   0  0  0  0  0  0  0  0  0  0  0  0
    3.3500   -7.4260   28.9950 C   0  0  0  0  0  0  0  0  0  0  0  0
    2.0210   -8.1900   28.9150 C   0  0  0  0  0  0  0  0  0  0  0  0
    7.3940   -4.8210   26.9910 C   0  0  0  0  0  0  0  0  0  0  0  0
    7.8800   -5.8860   27.7650 C   0  0  0  0  0  0  0  0  0  0  0  0
    9.1680   -6.0160   26.9540 C   0  0  0  0  0  0  0  0  0  0  0  0
    9.7810   -5.2950   25.7420 C   0  0  0  0  0  0  0  0  0  0  0  0
    9.0840   -4.2340   25.1370 N   0  0  0  0  0  0  0  0  0  0  0  0
    7.9050   -4.0540   25.8140 C   0  0  0  0  0  0  0  0  0  0  0  0
    7.1770   -2.6990   23.4000 C   0  0  0  0  0  0  0  0  0  0  0  0
    7.6480   -3.2150   22.2380 C   0  0  0  0  0  0  0  0  0  0  0  0
  1  2  1  0
  2  3  2  0
  2  4  1  0
  4  5  1  0
  5  6  1  0
  6  7  1  0
  7  8  1  0
  8  9  2  0
  8 10  1  0
 10 11  1  0
 11 12  1  6
 12 13  1  0
 13 14  2  0
 13 15  1  0
 15 16  1  0
 16 17  1  0
 11 18  1  0
 18 19  2  0
 19 20  1  0
 20 21  2  0
 21 22  1  0
 18 23  1  0
 22 23  2  0
  7 24  1  0
  4 25  1  0
 24 25  1  0
M  END
