piperidine-amides-30911-covalent
     RDKit          3D

 27 28  0  0  0  0  0  0  0  0999 V2000
    7.0420   -3.3370   19.2980 C   0  0  0  0  0  0  0  0  0  0  0  0
    6.3500   -4.1660   20.2920 C   0  0  0  0  0  0  0  0  0  0  0  0
    5.3400   -4.7970   19.9580 O   0  0  0  0  0  0  0  0  0  0  0  0
    6.8280   -4.2990   21.6030 N   0  0  0  0  0  0  0  0  0  0  0  0
    7.6080   -3.2510   22.2380 C   0  0  0  0  0  0  0  0  0  0  0  0
    6.8060   -2.7800   23.4240 C   0  0  0  0  0  0  0  0  0  0  0  0
    6.4510   -3.9460   24.2840 C   0  0  0  0  0  0  0  0  0  0  0  0
    5.6480   -3.5790   25.5020 C   0  0  0  0  0  0  0  0  0  0  0  0
    4.5100   -3.0560   25.3320 O   0  0  0  0  0  0  0  0  0  0  0  0
    6.0430   -3.7640   26.8760 N   0  0  0  0  0  0  0  0  0  0  0  0
    6.4570   -5.0780   27.4210 C   0  0  0  0  0  0  0  0  0  0  0  0
    5.4580   -5.6990   28.2470 C   0  0  0  0  0  0  0  0  0  0  0  0
    5.9540   -6.4660   29.3970 C   0  0  0  0  0  0  0  0  0  0  0  0
    4.5800   -6.6330   27.4500 C   0  0  0  0  0  0  0  0  0  0  0  0
    4.7350   -4.6630   28.6820 N   0  0  0  0  0  0  0  0  0  0  0  0
    3.5990   -5.0080   29.5320 C   0  0  0  0  0  0  0  0  0  0  0  0
    3.7420   -4.5450   30.8590 O   0  0  0  0  0  0  0  0  0  0  0  0
    2.5730   -5.6560   29.1300 O   0  0  0  0  0  0  0  0  0  0  0  0
    2.5180   -7.0220   29.3860 C   0  0  0  0  0  0  0  0  0  0  0  0
    1.9460   -7.8300   30.3340 C   0  0  0  0  0  0  0  0  0  0  0  0
    3.5030   -7.7970   30.2390 C   0  0  0  0  0  0  0  0  0  0  0  0
    2.0270   -7.9330   28.2680 C   0  0  0  0  0  0  0  0  0  0  0  0
    5.2610   -3.3330   28.7960 C   0  0  0  0  0  0  0  0  0  0  0  0
    6.0630   -2.5940   27.7500 C   0  0  2  0  0  0  0  0  0  0  0  0
    6.4300   -1.7130   27.0190 C   0  0  0  0  0  0  0  0  0  0  0  0
    5.8040   -5.0660   23.5770 C   0  0  0  0  0  0  0  0  0  0  0  0
    6.4480   -5.4180   22.4090 C   0  0  0  0  0  0  0  0  0  0  0  0
  1  2  1  0
  2  3  2  0
  2  4  1  0
  4  5  1  0
  5  6  1  0
  6  7  1  0
  7  8  1  0
  8  9  2  0
  8 10  1  0
 10 11  1  0
 11 12  1  0
 12 13  1  0
 12 14  1  0
 12 15  1  0
 15 16  1  0
 16 17  2  0
 16 18  1  0
 19 18  1  0
 19 20  1  0
 19 21  1  0
 19 22  1  0
 15 23  1  0
 10 24  1  0
 23 24  1  0
 24 25  1  6
  7 26  1  0
  4 27  1  0
 26 27  1  0
M  END
