piperidine-amides-1165-covalent
     RDKit          3D

 23 23  0  0  0  0  0  0  0  0999 V2000
    7.1260   -3.2620   19.1810 C   0  0  0  0  0  0  0  0  0  0  0  0
    6.3470   -4.0190   20.2030 C   0  0  0  0  0  0  0  0  0  0  0  0
    5.2800   -4.5610   19.8810 O   0  0  0  0  0  0  0  0  0  0  0  0
    6.8650   -4.1430   21.4980 N   0  0  0  0  0  0  0  0  0  0  0  0
    7.7370   -3.1370   22.0540 C   0  0  0  0  0  0  0  0  0  0  0  0
    6.9580   -2.4660   23.1750 C   0  0  0  0  0  0  0  0  0  0  0  0
    6.5220   -3.5650   24.0800 C   0  0  0  0  0  0  0  0  0  0  0  0
    5.7970   -3.0270   25.2500 C   0  0  0  0  0  0  0  0  0  0  0  0
    4.5830   -2.8170   25.1180 O   0  0  0  0  0  0  0  0  0  0  0  0
    6.5000   -2.7950   26.4340 N   0  0  0  0  0  0  0  0  0  0  0  0
    6.8490   -3.8300   27.3150 C   0  0  0  0  0  0  0  0  0  0  0  0
    7.6850   -4.8490   26.9790 C   0  0  1  0  0  0  0  0  0  0  0  0
    9.0940   -4.7650   27.0740 C   0  0  0  0  0  0  0  0  0  0  0  0
    9.7500   -4.0580   26.0810 C   0  0  0  0  0  0  0  0  0  0  0  0
    9.2560   -3.2380   25.1700 O   0  0  0  0  0  0  0  0  0  0  0  0
   11.1120   -4.1700   25.9590 O   0  0  0  0  0  0  0  0  0  0  0  0
   11.8690   -3.1910   25.2360 C   0  0  0  0  0  0  0  0  0  0  0  0
    7.2720   -6.0400   27.4550 C   0  0  0  0  0  0  0  0  0  0  0  0
    5.8630   -6.0630   28.0750 C   0  0  0  0  0  0  0  0  0  0  0  0
    4.8960   -6.7430   27.3620 C   0  0  0  0  0  0  0  0  0  0  0  0
    5.9920   -6.7760   29.3700 C   0  0  0  0  0  0  0  0  0  0  0  0
    5.7030   -4.6500   23.4300 C   0  0  0  0  0  0  0  0  0  0  0  0
    6.4170   -5.1780   22.3790 C   0  0  0  0  0  0  0  0  0  0  0  0
  1  2  1  0
  2  3  2  0
  2  4  1  0
  4  5  1  0
  5  6  1  0
  6  7  1  0
  7  8  1  0
  8  9  2  0
  8 10  1  0
 10 11  1  0
 12 11  1  1
 12 13  1  0
 13 14  1  0
 14 15  2  0
 14 16  1  0
 16 17  1  0
 12 18  1  0
 18 19  1  0
 19 20  1  0
 19 21  1  0
  7 22  1  0
  4 23  1  0
 22 23  1  0
M  END
