piperidine-amides-24815-covalent
     RDKit          3D

 24 26  0  0  0  0  0  0  0  0999 V2000
    7.0900   -3.3330   19.3530 C   0  0  0  0  0  0  0  0  0  0  0  0
    6.4060   -4.2100   20.3170 C   0  0  0  0  0  0  0  0  0  0  0  0
    5.3720   -4.8260   19.9770 O   0  0  0  0  0  0  0  0  0  0  0  0
    6.9370   -4.4050   21.6000 N   0  0  0  0  0  0  0  0  0  0  0  0
    6.4690   -5.5360   22.3540 C   0  0  0  0  0  0  0  0  0  0  0  0
    5.6040   -4.9240   23.4590 C   0  0  0  0  0  0  0  0  0  0  0  0
    6.5100   -4.0160   24.2650 C   0  0  0  0  0  0  0  0  0  0  0  0
    5.7290   -3.3700   25.3550 C   0  0  0  0  0  0  0  0  0  0  0  0
    5.0030   -2.4080   25.0350 O   0  0  0  0  0  0  0  0  0  0  0  0
    5.7510   -3.8150   26.7050 N   0  0  0  0  0  0  0  0  0  0  0  0
    4.4840   -4.0400   27.3210 C   0  0  0  0  0  0  0  0  0  0  0  0
    4.6300   -4.9970   28.5060 C   0  0  0  0  0  0  0  0  0  0  0  0
    5.7150   -4.9520   29.3250 C   0  0  0  0  0  0  0  0  0  0  0  0
    5.8960   -5.9450   30.1150 O   0  0  0  0  0  0  0  0  0  0  0  0
    4.7860   -6.4310   30.7690 C   0  0  0  0  0  0  0  0  0  0  0  0
    4.0120   -7.2830   29.9800 C   0  0  0  0  0  0  0  0  0  0  0  0
    2.8800   -7.6940   30.6530 C   0  0  0  0  0  0  0  0  0  0  0  0
    2.9440   -7.7080   32.0360 O   0  0  0  0  0  0  0  0  0  0  0  0
    4.1930   -7.8220   32.7040 C   0  0  0  0  0  0  0  0  0  0  0  0
    5.2160   -7.0650   31.9000 C   0  0  0  0  0  0  0  0  0  0  0  0
    6.7520   -4.6020   28.5800 C   0  0  0  0  0  0  0  0  0  0  0  0
    6.4730   -3.3720   27.8440 C   0  0  0  0  0  0  0  0  0  0  0  0
    7.0700   -2.9110   23.4080 C   0  0  0  0  0  0  0  0  0  0  0  0
    7.6290   -3.3380   22.2400 C   0  0  0  0  0  0  0  0  0  0  0  0
  1  2  1  0
  2  3  2  0
  2  4  1  0
  4  5  1  0
  5  6  1  0
  6  7  1  0
  7  8  1  0
  8  9  2  0
  8 10  1  0
 10 11  1  0
 11 12  1  0
 12 13  1  0
 13 14  1  0
 14 15  1  0
 15 16  1  0
 16 17  1  0
 17 18  1  0
 18 19  1  0
 15 20  1  0
 19 20  1  0
 13 21  1  0
 10 22  1  0
 21 22  1  0
  7 23  1  0
  4 24  1  0
 23 24  1  0
M  END
