piperidine-amides-1117-covalent
     RDKit          3D

 23 25  0  0  0  0  0  0  0  0999 V2000
    7.1290   -3.2730   19.2460 C   0  0  0  0  0  0  0  0  0  0  0  0
    6.3890   -4.0930   20.2420 C   0  0  0  0  0  0  0  0  0  0  0  0
    5.3180   -4.6240   19.9120 O   0  0  0  0  0  0  0  0  0  0  0  0
    6.9540   -4.2960   21.5130 N   0  0  0  0  0  0  0  0  0  0  0  0
    7.7570   -3.3150   22.1990 C   0  0  0  0  0  0  0  0  0  0  0  0
    6.8150   -2.5710   23.1410 C   0  0  0  0  0  0  0  0  0  0  0  0
    5.9080   -3.5780   23.7760 C   0  0  0  0  0  0  0  0  0  0  0  0
    5.6270   -3.2800   25.1890 C   0  0  0  0  0  0  0  0  0  0  0  0
    4.4830   -2.8960   25.4580 O   0  0  0  0  0  0  0  0  0  0  0  0
    6.6250   -3.4400   26.1440 N   0  0  0  0  0  0  0  0  0  0  0  0
    6.4340   -3.7990   27.4960 C   0  0  0  0  0  0  0  0  0  0  0  0
    6.7080   -5.0350   28.0120 C   0  0  0  0  0  0  0  0  0  0  0  0
    5.9270   -5.5140   29.0710 C   0  0  0  0  0  0  0  0  0  0  0  0
    6.2320   -6.7110   29.6610 C   0  0  0  0  0  0  0  0  0  0  0  0
    5.4600   -7.2550   30.7820 C   0  0  0  0  0  0  0  0  0  0  0  0
    4.2850   -6.4550   31.2830 C   0  0  0  0  0  0  0  0  0  0  0  0
    3.5650   -7.1220   32.4540 C   0  0  0  0  0  0  0  0  0  0  0  0
    2.3420   -7.0200   32.6920 C   0  0  0  0  0  0  0  0  0  0  0  0
    2.6400   -8.2690   31.9070 C   0  0  0  0  0  0  0  0  0  0  0  0
    4.0070   -5.2650   30.6580 C   0  0  0  0  0  0  0  0  0  0  0  0
    4.8010   -4.8280   29.6060 C   0  0  0  0  0  0  0  0  0  0  0  0
    6.3480   -5.0120   23.7180 C   0  0  0  0  0  0  0  0  0  0  0  0
    6.5730   -5.4470   22.2930 C   0  0  0  0  0  0  0  0  0  0  0  0
  1  2  1  0
  2  3  2  0
  2  4  1  0
  4  5  1  0
  5  6  1  0
  6  7  1  0
  7  8  1  0
  8  9  2  0
  8 10  1  0
 10 11  1  0
 11 12  1  0
 12 13  1  0
 13 14  2  0
 14 15  1  0
 15 16  2  0
 16 17  1  0
 17 18  1  0
 17 19  1  0
 18 19  1  0
 16 20  1  0
 13 21  1  0
 20 21  2  0
  7 22  1  0
  4 23  1  0
 22 23  1  0
M  END
