piperidine-amides-14461-covalent
     RDKit          3D

 23 25  0  0  0  0  0  0  0  0999 V2000
    7.0220   -3.3380   19.3530 C   0  0  0  0  0  0  0  0  0  0  0  0
    6.3760   -4.1880   20.3540 C   0  0  0  0  0  0  0  0  0  0  0  0
    5.3970   -4.8630   19.9870 O   0  0  0  0  0  0  0  0  0  0  0  0
    6.8760   -4.2570   21.6870 N   0  0  0  0  0  0  0  0  0  0  0  0
    7.7160   -3.1900   22.1880 C   0  0  0  0  0  0  0  0  0  0  0  0
    7.4070   -2.9040   23.6260 C   0  0  0  0  0  0  0  0  0  0  0  0
    6.0770   -3.5560   23.8700 C   0  0  0  0  0  0  0  0  0  0  0  0
    5.5780   -3.2370   25.2470 C   0  0  0  0  0  0  0  0  0  0  0  0
    4.3900   -3.4620   25.4570 O   0  0  0  0  0  0  0  0  0  0  0  0
    6.4660   -2.7040   26.1760 N   0  0  0  0  0  0  0  0  0  0  0  0
    6.3510   -1.3580   26.6470 C   0  0  0  0  0  0  0  0  0  0  0  0
    6.0740   -0.2280   25.8940 C   0  0  0  0  0  0  0  0  0  0  0  0
    5.9850    1.0510   26.4590 C   0  0  0  0  0  0  0  0  0  0  0  0
    6.1560    1.4010   27.8160 C   0  0  0  0  0  0  0  0  0  0  0  0
    6.0040    3.2020   28.4370 Br  0  0  0  0  0  0  0  0  0  0  0  0
    6.4510    0.1880   28.6180 C   0  0  0  0  0  0  0  0  0  0  0  0
    6.5420   -1.1820   28.0330 C   0  0  0  0  0  0  0  0  0  0  0  0
    6.8150   -2.0410   29.1220 C   0  0  0  0  0  0  0  0  0  0  0  0
    6.8290   -3.3000   29.0840 O   0  0  0  0  0  0  0  0  0  0  0  0
    7.0180   -1.2880   30.3200 N   0  0  0  0  0  0  0  0  0  0  0  0
    6.6930    0.1140   30.0760 C   0  0  0  0  0  0  0  0  0  0  0  0
    6.0460   -5.0120   23.6760 C   0  0  0  0  0  0  0  0  0  0  0  0
    6.6760   -5.4300   22.5200 C   0  0  0  0  0  0  0  0  0  0  0  0
  1  2  1  0
  2  3  2  0
  2  4  1  0
  4  5  1  0
  5  6  1  0
  6  7  1  0
  7  8  1  0
  8  9  2  0
  8 10  1  0
 10 11  1  0
 11 12  2  0
 12 13  1  0
 13 14  2  0
 14 15  1  0
 14 16  1  0
 11 17  1  0
 16 17  2  0
 17 18  1  0
 18 19  2  0
 18 20  1  0
 16 21  1  0
 20 21  1  0
  7 22  1  0
  4 23  1  0
 22 23  1  0
M  END
