piperidine-amides-1356-covalent
     RDKit          3D

 22 22  0  0  0  0  0  0  0  0999 V2000
    7.1570   -3.2660   19.1880 C   0  0  0  0  0  0  0  0  0  0  0  0
    6.3800   -4.0410   20.1910 C   0  0  0  0  0  0  0  0  0  0  0  0
    5.2830   -4.5270   19.8740 O   0  0  0  0  0  0  0  0  0  0  0  0
    6.9520   -4.2500   21.4570 N   0  0  0  0  0  0  0  0  0  0  0  0
    7.7520   -3.2510   22.1240 C   0  0  0  0  0  0  0  0  0  0  0  0
    6.8740   -2.6650   23.2210 C   0  0  0  0  0  0  0  0  0  0  0  0
    6.4600   -3.8150   24.0700 C   0  0  0  0  0  0  0  0  0  0  0  0
    5.7030   -3.3890   25.2560 C   0  0  0  0  0  0  0  0  0  0  0  0
    4.5000   -3.1470   25.1050 O   0  0  0  0  0  0  0  0  0  0  0  0
    6.3670   -3.2730   26.4660 N   0  0  0  0  0  0  0  0  0  0  0  0
    6.0390   -3.8780   27.6960 C   0  0  2  0  0  0  0  0  0  0  0  0
    6.5110   -3.3170   28.8350 C   0  0  0  0  0  0  0  0  0  0  0  0
    6.4560   -1.9170   28.9690 C   0  0  2  0  0  0  0  0  0  0  0  0
    7.4810   -1.2260   29.5670 C   0  0  0  0  0  0  0  0  0  0  0  0
    5.2340   -1.6010   29.7550 C   0  0  0  0  0  0  0  0  0  0  0  0
    5.2990   -0.3320   30.6210 C   0  0  0  0  0  0  0  0  0  0  0  0
    6.0730   -5.2820   27.7440 C   0  0  0  0  0  0  0  0  0  0  0  0
    5.7260   -5.9870   26.6060 O   0  0  0  0  0  0  0  0  0  0  0  0
    6.4290   -5.9890   28.8790 O   0  0  0  0  0  0  0  0  0  0  0  0
    5.7440   -7.1750   29.1960 C   0  0  0  0  0  0  0  0  0  0  0  0
    5.6760   -4.8670   23.3650 C   0  0  0  0  0  0  0  0  0  0  0  0
    6.5090   -5.3910   22.2190 C   0  0  0  0  0  0  0  0  0  0  0  0
  1  2  1  0
  2  3  2  0
  2  4  1  0
  4  5  1  0
  5  6  1  0
  6  7  1  0
  7  8  1  0
  8  9  2  0
  8 10  1  0
 10 11  1  0
 11 12  1  1
 12 13  1  0
 13 14  1  1
 13 15  1  0
 15 16  1  0
 11 17  1  0
 17 18  2  0
 17 19  1  0
 19 20  1  0
  7 21  1  0
  4 22  1  0
 21 22  1  0
M  END
