piperidine-amides-31461-covalent
     RDKit          3D

 27 29  0  0  0  0  0  0  0  0999 V2000
    7.0450   -3.3340   19.2640 C   0  0  0  0  0  0  0  0  0  0  0  0
    6.3300   -4.0510   20.3030 C   0  0  0  0  0  0  0  0  0  0  0  0
    5.3030   -4.6960   19.9400 O   0  0  0  0  0  0  0  0  0  0  0  0
    6.7310   -4.1180   21.6630 N   0  0  0  0  0  0  0  0  0  0  0  0
    6.5920   -5.4690   22.2740 C   0  0  0  0  0  0  0  0  0  0  0  0
    6.2970   -5.1810   23.8060 C   0  0  0  0  0  0  0  0  0  0  0  0
    6.1500   -3.6900   23.9470 C   0  0  0  0  0  0  0  0  0  0  0  0
    5.3800   -3.2650   25.2850 C   0  0  0  0  0  0  0  0  0  0  0  0
    4.2320   -3.6710   25.2520 O   0  0  0  0  0  0  0  0  0  0  0  0
    6.1540   -2.5850   26.0280 N   0  0  0  0  0  0  0  0  0  0  0  0
    6.9690   -1.5510   26.3370 C   0  0  0  0  0  0  0  0  0  0  0  0
    6.1270   -3.1410   27.3350 C   0  0  2  0  0  0  0  0  0  0  0  0
    5.7760   -4.4900   27.6280 C   0  0  0  0  0  0  0  0  0  0  0  0
    6.3470   -5.2240   28.7620 C   0  0  0  0  0  0  0  0  0  0  0  0
    5.8620   -6.6590   28.9390 C   0  0  0  0  0  0  0  0  0  0  0  0
    4.9280   -7.1580   28.0260 C   0  0  0  0  0  0  0  0  0  0  0  0
    4.2200   -6.7300   26.8850 C   0  0  0  0  0  0  0  0  0  0  0  0
    3.0610   -7.5810   25.8840 Cl  0  0  0  0  0  0  0  0  0  0  0  0
    4.8000   -5.3130   26.8370 C   0  0  0  0  0  0  0  0  0  0  0  0
    5.0950   -2.7240   28.3560 C   0  0  0  0  0  0  0  0  0  0  0  0
    3.8200   -3.1950   28.0070 C   0  0  0  0  0  0  0  0  0  0  0  0
    2.7220   -2.9370   28.7990 C   0  0  0  0  0  0  0  0  0  0  0  0
    2.8960   -2.2220   29.9170 C   0  0  0  0  0  0  0  0  0  0  0  0
    4.2050   -1.9010   30.0030 C   0  0  0  0  0  0  0  0  0  0  0  0
    5.2580   -1.9440   29.5780 N   0  0  0  0  0  0  0  0  0  0  0  0
    7.3260   -2.8540   23.6120 C   0  0  0  0  0  0  0  0  0  0  0  0
    7.6700   -3.1360   22.1840 C   0  0  0  0  0  0  0  0  0  0  0  0
  1  2  1  0
  2  3  2  0
  2  4  1  0
  4  5  1  0
  5  6  1  0
  6  7  1  0
  7  8  1  0
  8  9  2  0
  8 10  1  0
 10 11  1  0
 12 10  1  6
 12 13  1  0
 13 14  2  0
 14 15  1  0
 15 16  2  0
 16 17  1  0
 17 18  1  0
 13 19  1  0
 17 19  2  0
 12 20  1  0
 20 21  2  0
 21 22  1  0
 22 23  2  0
 23 24  1  0
 20 25  1  0
 24 25  2  0
  7 26  1  0
  4 27  1  0
 26 27  1  0
M  END
