piperidine-amides-24664-covalent
     RDKit          3D

 24 25  0  0  0  0  0  0  0  0999 V2000
    7.0350   -3.3640   19.3930 C   0  0  0  0  0  0  0  0  0  0  0  0
    6.3970   -4.2620   20.3680 C   0  0  0  0  0  0  0  0  0  0  0  0
    5.4040   -4.9340   20.0080 O   0  0  0  0  0  0  0  0  0  0  0  0
    6.9130   -4.4160   21.6730 N   0  0  0  0  0  0  0  0  0  0  0  0
    6.6010   -5.6390   22.3980 C   0  0  0  0  0  0  0  0  0  0  0  0
    6.1710   -5.2530   23.8300 C   0  0  0  0  0  0  0  0  0  0  0  0
    5.9470   -3.7650   23.7840 C   0  0  0  0  0  0  0  0  0  0  0  0
    5.2420   -3.1920   24.9630 C   0  0  0  0  0  0  0  0  0  0  0  0
    4.5440   -2.1900   24.7490 O   0  0  0  0  0  0  0  0  0  0  0  0
    5.3130   -3.6990   26.2720 N   0  0  0  0  0  0  0  0  0  0  0  0
    4.0930   -3.6500   27.0320 C   0  0  0  0  0  0  0  0  0  0  0  0
    4.3400   -3.4900   28.5270 C   0  0  0  0  0  0  0  0  0  0  0  0
    5.4710   -3.9840   29.0610 C   0  0  0  0  0  0  0  0  0  0  0  0
    6.3180   -4.3830   28.1640 C   0  0  1  0  0  0  0  0  0  0  0  0
    6.0980   -5.6990   27.7210 C   0  0  0  0  0  0  0  0  0  0  0  0
    5.3590   -6.4920   28.5510 C   0  0  0  0  0  0  0  0  0  0  0  0
    4.3720   -7.4920   28.0260 C   0  0  0  0  0  0  0  0  0  0  0  0
    3.9060   -6.3190   28.8050 C   0  0  0  0  0  0  0  0  0  0  0  0
    5.9660   -7.0520   29.6240 C   0  0  0  0  0  0  0  0  0  0  0  0
    6.4470   -8.2780   29.5540 N   0  0  0  0  0  0  0  0  0  0  0  0
    6.0890   -6.3880   30.7420 O   0  0  0  0  0  0  0  0  0  0  0  0
    6.2950   -3.3950   27.2040 C   0  0  0  0  0  0  0  0  0  0  0  0
    7.2610   -3.0980   23.5580 C   0  0  0  0  0  0  0  0  0  0  0  0
    7.6470   -3.3350   22.2750 C   0  0  0  0  0  0  0  0  0  0  0  0
  1  2  1  0
  2  3  2  0
  2  4  1  0
  4  5  1  0
  5  6  1  0
  6  7  1  0
  7  8  1  0
  8  9  2  0
  8 10  1  0
 10 11  1  0
 11 12  1  0
 12 13  1  0
 13 14  1  0
 14 15  1  6
 15 16  1  0
 16 17  1  0
 16 18  1  0
 16 19  1  0
 19 20  1  0
 19 21  2  0
 10 22  1  0
 14 22  1  0
  7 23  1  0
  4 24  1  0
 23 24  1  0
M  END
