piperidine-amides-29583-covalent
     RDKit          3D

 26 27  0  0  0  0  0  0  0  0999 V2000
    7.0840   -3.2810   19.1740 C   0  0  0  0  0  0  0  0  0  0  0  0
    6.3280   -4.0140   20.1850 C   0  0  0  0  0  0  0  0  0  0  0  0
    5.2620   -4.5480   19.8800 O   0  0  0  0  0  0  0  0  0  0  0  0
    6.8400   -4.1680   21.5170 N   0  0  0  0  0  0  0  0  0  0  0  0
    6.4950   -5.3250   22.2940 C   0  0  0  0  0  0  0  0  0  0  0  0
    5.7150   -4.9230   23.5210 C   0  0  0  0  0  0  0  0  0  0  0  0
    6.1320   -3.5210   23.9810 C   0  0  0  0  0  0  0  0  0  0  0  0
    5.9850   -3.3760   25.4610 C   0  0  0  0  0  0  0  0  0  0  0  0
    4.8540   -3.3110   25.9890 O   0  0  0  0  0  0  0  0  0  0  0  0
    7.1470   -3.2830   26.2830 N   0  0  0  0  0  0  0  0  0  0  0  0
    7.6310   -1.9720   26.6110 C   0  0  0  0  0  0  0  0  0  0  0  0
    7.6080   -4.4400   27.0250 C   0  0  1  0  0  0  0  0  0  0  0  0
    6.6560   -5.2310   27.6290 C   0  0  0  0  0  0  0  0  0  0  0  0
    5.8790   -4.6840   28.6530 C   0  0  0  0  0  0  0  0  0  0  0  0
    4.9790   -5.4760   29.3220 C   0  0  0  0  0  0  0  0  0  0  0  0
    4.8730   -6.9190   29.1230 C   0  0  0  0  0  0  0  0  0  0  0  0
    3.9610   -7.7030   29.8030 C   0  0  0  0  0  0  0  0  0  0  0  0
    3.1190   -7.0920   30.7080 C   0  0  0  0  0  0  0  0  0  0  0  0
    3.1540   -5.7300   30.9560 C   0  0  0  0  0  0  0  0  0  0  0  0
    4.1150   -4.9020   30.2380 C   0  0  0  0  0  0  0  0  0  0  0  0
    8.4100   -5.0450   26.0930 C   0  0  0  0  0  0  0  0  0  0  0  0
    9.1220   -5.9230   26.7830 F   0  0  0  0  0  0  0  0  0  0  0  0
    9.3280   -4.2380   25.4230 F   0  0  0  0  0  0  0  0  0  0  0  0
    7.6620   -5.7220   25.1040 F   0  0  0  0  0  0  0  0  0  0  0  0
    7.5300   -3.1730   23.5580 C   0  0  0  0  0  0  0  0  0  0  0  0
    7.5980   -3.1030   22.0750 C   0  0  0  0  0  0  0  0  0  0  0  0
  1  2  1  0
  2  3  2  0
  2  4  1  0
  4  5  1  0
  5  6  1  0
  6  7  1  0
  7  8  1  0
  8  9  2  0
  8 10  1  0
 10 11  1  0
 10 12  1  0
 12 13  1  6
 13 14  1  0
 14 15  1  0
 15 16  2  0
 16 17  1  0
 17 18  2  0
 18 19  1  0
 15 20  1  0
 19 20  2  0
 12 21  1  0
 21 22  1  0
 21 23  1  0
 21 24  1  0
  7 25  1  0
  4 26  1  0
 25 26  1  0
M  END
