piperidine-amides-7050-covalent
     RDKit          3D

 22 23  0  0  0  0  0  0  0  0999 V2000
    7.0970   -3.3140   19.2740 C   0  0  0  0  0  0  0  0  0  0  0  0
    6.3320   -4.0730   20.2720 C   0  0  0  0  0  0  0  0  0  0  0  0
    5.2960   -4.6820   19.9310 O   0  0  0  0  0  0  0  0  0  0  0  0
    6.7850   -4.1620   21.5930 N   0  0  0  0  0  0  0  0  0  0  0  0
    7.6520   -3.1220   22.1260 C   0  0  0  0  0  0  0  0  0  0  0  0
    7.3720   -2.9400   23.6290 C   0  0  0  0  0  0  0  0  0  0  0  0
    6.0380   -3.5940   23.9110 C   0  0  0  0  0  0  0  0  0  0  0  0
    5.5760   -3.3190   25.2920 C   0  0  0  0  0  0  0  0  0  0  0  0
    4.3700   -3.0600   25.4580 O   0  0  0  0  0  0  0  0  0  0  0  0
    6.4820   -3.3440   26.3750 N   0  0  0  0  0  0  0  0  0  0  0  0
    6.1320   -3.9570   27.6390 C   0  0  0  0  0  0  0  0  0  0  0  0
    6.0860   -5.4750   27.5000 C   0  0  0  0  0  0  0  0  0  0  0  0
    5.0540   -6.2130   28.0240 C   0  0  0  0  0  0  0  0  0  0  0  0
    4.0080   -5.4910   28.6390 N   0  0  0  0  0  0  0  0  0  0  0  0
    2.7120   -6.0350   28.5810 C   0  0  0  0  0  0  0  0  0  0  0  0
    2.3020   -7.0840   27.7730 O   0  0  0  0  0  0  0  0  0  0  0  0
    1.7910   -5.4200   29.4330 C   0  0  0  0  0  0  0  0  0  0  0  0
    1.7030   -4.1020   29.5920 C   0  0  0  0  0  0  0  0  0  0  0  0
    2.1500   -3.7580   31.0510 C   0  0  0  0  0  0  0  0  0  0  0  0
    2.2410   -5.2870   30.7940 C   0  0  0  0  0  0  0  0  0  0  0  0
    6.0520   -5.0450   23.6750 C   0  0  0  0  0  0  0  0  0  0  0  0
    6.5590   -5.3480   22.3490 C   0  0  0  0  0  0  0  0  0  0  0  0
  1  2  1  0
  2  3  2  0
  2  4  1  0
  4  5  1  0
  5  6  1  0
  6  7  1  0
  7  8  1  0
  8  9  2  0
  8 10  1  0
 10 11  1  0
 11 12  1  0
 12 13  1  0
 13 14  1  0
 14 15  1  0
 15 16  2  0
 15 17  1  0
 17 18  1  0
 18 19  1  0
 17 20  1  0
 19 20  1  0
  7 21  1  0
  4 22  1  0
 21 22  1  0
M  END
