piperidine-amides-23978-covalent
     RDKit          3D

 24 26  0  0  0  0  0  0  0  0999 V2000
    7.0390   -3.3740   19.3490 C   0  0  0  0  0  0  0  0  0  0  0  0
    6.4120   -4.2310   20.3670 C   0  0  0  0  0  0  0  0  0  0  0  0
    5.4010   -4.8780   19.9970 O   0  0  0  0  0  0  0  0  0  0  0  0
    6.9530   -4.3610   21.6770 N   0  0  0  0  0  0  0  0  0  0  0  0
    6.5920   -5.5080   22.4460 C   0  0  0  0  0  0  0  0  0  0  0  0
    6.2370   -5.1950   23.8310 C   0  0  0  0  0  0  0  0  0  0  0  0
    6.2580   -3.7490   24.1230 C   0  0  0  0  0  0  0  0  0  0  0  0
    5.6590   -3.3490   25.4540 C   0  0  0  0  0  0  0  0  0  0  0  0
    4.6800   -2.5840   25.4220 O   0  0  0  0  0  0  0  0  0  0  0  0
    6.0940   -3.7690   26.7370 N   0  0  0  0  0  0  0  0  0  0  0  0
    5.8710   -3.0360   27.9090 C   0  0  0  0  0  0  0  0  0  0  0  0
    5.4830   -3.8470   29.0500 C   0  0  0  0  0  0  0  0  0  0  0  0
    5.1580   -5.1460   28.9160 N   0  0  0  0  0  0  0  0  0  0  0  0
    4.8500   -6.1480   29.9060 C   0  0  0  0  0  0  0  0  0  0  0  0
    5.6670   -7.0680   30.5670 C   0  0  0  0  0  0  0  0  0  0  0  0
    5.0240   -7.8890   31.4600 N   0  0  0  0  0  0  0  0  0  0  0  0
    3.7720   -7.4890   31.3640 N   0  0  0  0  0  0  0  0  0  0  0  0
    2.8480   -8.2170   32.2200 C   0  0  0  0  0  0  0  0  0  0  0  0
    3.5300   -6.4290   30.4500 C   0  0  0  0  0  0  0  0  0  0  0  0
    4.7400   -5.3780   27.6610 C   0  0  0  0  0  0  0  0  0  0  0  0
    3.4980   -5.6050   28.2590 O   0  0  0  0  0  0  0  0  0  0  0  0
    6.1350   -5.0930   27.2560 C   0  0  0  0  0  0  0  0  0  0  0  0
    7.6100   -3.1850   23.7760 C   0  0  0  0  0  0  0  0  0  0  0  0
    7.6720   -3.2380   22.2400 C   0  0  0  0  0  0  0  0  0  0  0  0
  1  2  1  0
  2  3  2  0
  2  4  1  0
  4  5  1  0
  5  6  1  0
  6  7  1  0
  7  8  1  0
  8  9  2  0
  8 10  1  0
 10 11  1  0
 11 12  1  0
 12 13  1  0
 13 14  1  0
 14 15  1  0
 15 16  2  0
 16 17  1  0
 17 18  1  0
 14 19  2  0
 17 19  1  0
 13 20  1  0
 20 21  2  0
 10 22  1  0
 20 22  1  0
  7 23  1  0
  4 24  1  0
 23 24  1  0
M  END
