piperidine-amides-19503-covalent
     RDKit          3D

 22 23  0  0  0  0  0  0  0  0999 V2000
    7.1200   -3.2860   19.3930 C   0  0  0  0  0  0  0  0  0  0  0  0
    6.3770   -4.0700   20.3620 C   0  0  0  0  0  0  0  0  0  0  0  0
    5.3800   -4.7450   19.9540 O   0  0  0  0  0  0  0  0  0  0  0  0
    6.7330   -4.1380   21.7290 N   0  0  0  0  0  0  0  0  0  0  0  0
    7.6770   -3.0980   22.2270 C   0  0  0  0  0  0  0  0  0  0  0  0
    7.5220   -3.2530   23.7900 C   0  0  0  0  0  0  0  0  0  0  0  0
    6.1040   -3.7290   23.9700 C   0  0  0  0  0  0  0  0  0  0  0  0
    5.4350   -3.4970   25.4020 C   0  0  0  0  0  0  0  0  0  0  0  0
    4.3550   -4.0660   25.4440 O   0  0  0  0  0  0  0  0  0  0  0  0
    6.1720   -2.7730   26.1380 N   0  0  0  0  0  0  0  0  0  0  0  0
    6.9250   -1.6860   26.4680 C   0  0  0  0  0  0  0  0  0  0  0  0
    6.1360   -3.4010   27.4180 C   0  0  2  0  0  0  0  0  0  0  0  0
    5.8380   -4.7970   27.4610 C   0  0  0  0  0  0  0  0  0  0  0  0
    5.0330   -2.7320   28.2500 C   0  0  0  0  0  0  0  0  0  0  0  0
    5.9220   -1.9890   29.1890 C   0  0  0  0  0  0  0  0  0  0  0  0
    5.0770   -1.2590   30.0920 C   0  0  0  0  0  0  0  0  0  0  0  0
    3.6510   -1.0270   30.3700 C   0  0  0  0  0  0  0  0  0  0  0  0
    2.9550   -1.9010   29.2740 C   0  0  0  0  0  0  0  0  0  0  0  0
    1.7110   -1.8640   29.3110 O   0  0  0  0  0  0  0  0  0  0  0  0
    3.6210   -2.7690   28.1940 C   0  0  0  0  0  0  0  0  0  0  0  0
    5.9620   -5.2020   23.5640 C   0  0  0  0  0  0  0  0  0  0  0  0
    6.6980   -5.4130   22.4270 C   0  0  0  0  0  0  0  0  0  0  0  0
  1  2  1  0
  2  3  2  0
  2  4  1  0
  4  5  1  0
  5  6  1  0
  6  7  1  0
  7  8  1  0
  8  9  2  0
  8 10  1  0
 10 11  1  0
 10 12  1  0
 12 13  1  6
 12 14  1  0
 14 15  2  0
 15 16  1  0
 16 17  2  0
 17 18  1  0
 18 19  1  0
 14 20  1  0
 18 20  2  0
  7 21  1  0
  4 22  1  0
 21 22  1  0
M  END
