piperidine-amides-10937-covalent
     RDKit          3D

 21 22  0  0  0  0  0  0  0  0999 V2000
    7.0890   -3.2770   19.2170 C   0  0  0  0  0  0  0  0  0  0  0  0
    6.3350   -4.0040   20.2440 C   0  0  0  0  0  0  0  0  0  0  0  0
    5.3040   -4.6090   19.9140 O   0  0  0  0  0  0  0  0  0  0  0  0
    6.7720   -4.0720   21.5770 N   0  0  0  0  0  0  0  0  0  0  0  0
    7.7180   -3.1130   22.1210 C   0  0  0  0  0  0  0  0  0  0  0  0
    7.4390   -3.0290   23.5940 C   0  0  0  0  0  0  0  0  0  0  0  0
    6.0890   -3.5860   23.9060 C   0  0  0  0  0  0  0  0  0  0  0  0
    5.6440   -3.3510   25.2970 C   0  0  0  0  0  0  0  0  0  0  0  0
    4.4460   -3.6210   25.6170 O   0  0  0  0  0  0  0  0  0  0  0  0
    6.4780   -2.8330   26.3110 N   0  0  0  0  0  0  0  0  0  0  0  0
    6.3970   -1.4090   26.7030 C   0  0  0  0  0  0  0  0  0  0  0  0
    5.2880   -1.2900   27.6860 C   0  0  0  0  0  0  0  0  0  0  0  0
    4.2730   -2.0240   27.4960 O   0  0  0  0  0  0  0  0  0  0  0  0
    3.3280   -1.6030   26.6270 C   0  0  0  0  0  0  0  0  0  0  0  0
    5.8220   -1.7060   29.0440 C   0  0  0  0  0  0  0  0  0  0  0  0
    7.0850   -0.9690   29.4510 C   0  0  0  0  0  0  0  0  0  0  0  0
    6.5780    0.7520   29.7050 S   0  0  0  0  0  0  0  0  0  0  0  0
    5.8280    0.9530   28.0540 C   0  0  0  0  0  0  0  0  0  0  0  0
    4.8540    0.0080   27.8530 C   0  0  0  0  0  0  0  0  0  0  0  0
    6.0200   -5.0640   23.6190 C   0  0  0  0  0  0  0  0  0  0  0  0
    6.6630   -5.3390   22.2790 C   0  0  0  0  0  0  0  0  0  0  0  0
  1  2  1  0
  2  3  2  0
  2  4  1  0
  4  5  1  0
  5  6  1  0
  6  7  1  0
  7  8  1  0
  8  9  2  0
  8 10  1  0
 10 11  1  0
 11 12  1  0
 12 13  1  0
 13 14  1  0
 12 15  1  0
 15 16  1  0
 16 17  1  0
 17 18  1  0
 12 19  1  0
 18 19  1  0
  7 20  1  0
  4 21  1  0
 20 21  1  0
M  END
