piperidine-amides-10680-covalent
     RDKit          3D

 23 24  0  0  0  0  0  0  0  0999 V2000
    7.0830   -3.3380   19.3040 C   0  0  0  0  0  0  0  0  0  0  0  0
    6.3390   -4.1080   20.3050 C   0  0  0  0  0  0  0  0  0  0  0  0
    5.2780   -4.6600   19.9180 O   0  0  0  0  0  0  0  0  0  0  0  0
    6.8370   -4.2460   21.6000 N   0  0  0  0  0  0  0  0  0  0  0  0
    7.7590   -3.2690   22.1350 C   0  0  0  0  0  0  0  0  0  0  0  0
    7.2850   -2.8430   23.4840 C   0  0  0  0  0  0  0  0  0  0  0  0
    6.8070   -3.9940   24.3150 C   0  0  0  0  0  0  0  0  0  0  0  0
    6.0730   -3.4180   25.4570 C   0  0  0  0  0  0  0  0  0  0  0  0
    4.8190   -3.3760   25.4290 O   0  0  0  0  0  0  0  0  0  0  0  0
    6.7740   -2.9220   26.5670 N   0  0  0  0  0  0  0  0  0  0  0  0
    6.5780   -1.5920   27.1000 C   0  0  0  0  0  0  0  0  0  0  0  0
    7.1130   -1.5500   28.5220 C   0  0  0  0  0  0  0  0  0  0  0  0
    7.0660   -0.4310   29.2950 C   0  0  0  0  0  0  0  0  0  0  0  0
    6.5140    0.7100   28.7720 C   0  0  0  0  0  0  0  0  0  0  0  0
    6.3930    1.9230   29.4320 C   0  0  0  0  0  0  0  0  0  0  0  0
    5.9790    0.7040   27.3620 C   0  0  0  0  0  0  0  0  0  0  0  0
    6.0250   -0.4310   26.5710 C   0  0  0  0  0  0  0  0  0  0  0  0
    5.5130   -0.3630   25.2660 O   0  0  0  0  0  0  0  0  0  0  0  0
    5.2670    0.4170   24.2030 C   0  0  0  0  0  0  0  0  0  0  0  0
    5.5030   -0.1300   22.7890 C   0  0  0  0  0  0  0  0  0  0  0  0
    6.9050   -0.1090   22.2200 C   0  0  0  0  0  0  0  0  0  0  0  0
    5.8930   -4.9300   23.5640 C   0  0  0  0  0  0  0  0  0  0  0  0
    6.5370   -5.4040   22.4380 C   0  0  0  0  0  0  0  0  0  0  0  0
  1  2  1  0
  2  3  2  0
  2  4  1  0
  4  5  1  0
  5  6  1  0
  6  7  1  0
  7  8  1  0
  8  9  2  0
  8 10  1  0
 10 11  1  0
 11 12  2  0
 12 13  1  0
 13 14  2  0
 14 15  1  0
 14 16  1  0
 11 17  1  0
 16 17  2  0
 17 18  1  0
 18 19  1  0
 19 20  1  0
 20 21  1  0
  7 22  1  0
  4 23  1  0
 22 23  1  0
M  END
