piperidine-amides-10755-covalent
     RDKit          3D

 22 23  0  0  0  0  0  0  0  0999 V2000
    7.1350   -3.2280   19.1560 C   0  0  0  0  0  0  0  0  0  0  0  0
    6.3550   -3.9200   20.1790 C   0  0  0  0  0  0  0  0  0  0  0  0
    5.2860   -4.4680   19.8570 O   0  0  0  0  0  0  0  0  0  0  0  0
    6.8080   -4.0310   21.5050 N   0  0  0  0  0  0  0  0  0  0  0  0
    7.6170   -3.0310   22.1770 C   0  0  0  0  0  0  0  0  0  0  0  0
    7.0760   -2.9270   23.5850 C   0  0  0  0  0  0  0  0  0  0  0  0
    5.6290   -3.3100   23.6560 C   0  0  0  0  0  0  0  0  0  0  0  0
    4.9520   -3.1020   24.9690 C   0  0  0  0  0  0  0  0  0  0  0  0
    3.7130   -3.3230   25.0680 O   0  0  0  0  0  0  0  0  0  0  0  0
    5.5590   -2.6610   26.1580 N   0  0  0  0  0  0  0  0  0  0  0  0
    6.6360   -3.4360   26.7640 C   0  0  0  0  0  0  0  0  0  0  0  0
    6.2110   -4.7930   27.1480 C   0  0  0  0  0  0  0  0  0  0  0  0
    4.8650   -4.9490   27.7290 C   0  0  0  0  0  0  0  0  0  0  0  0
    7.1330   -5.3260   28.2250 C   0  0  0  0  0  0  0  0  0  0  0  0
    6.2130   -5.7070   25.9820 C   0  0  0  0  0  0  0  0  0  0  0  0
    7.4500   -5.9400   25.2020 C   0  0  0  0  0  0  0  0  0  0  0  0
    7.3690   -6.7980   24.1500 C   0  0  0  0  0  0  0  0  0  0  0  0
    6.1670   -7.4220   23.8330 C   0  0  0  0  0  0  0  0  0  0  0  0
    5.0500   -7.2010   24.5460 N   0  0  0  0  0  0  0  0  0  0  0  0
    5.0550   -6.3570   25.6120 C   0  0  0  0  0  0  0  0  0  0  0  0
    5.3570   -4.7270   23.2400 C   0  0  0  0  0  0  0  0  0  0  0  0
    6.4280   -5.1750   22.2810 C   0  0  0  0  0  0  0  0  0  0  0  0
  1  2  1  0
  2  3  2  0
  2  4  1  0
  4  5  1  0
  5  6  1  0
  6  7  1  0
  7  8  1  0
  8  9  2  0
  8 10  1  0
 10 11  1  0
 12 11  1  0
 12 13  1  0
 12 14  1  0
 12 15  1  0
 15 16  2  0
 16 17  1  0
 17 18  2  0
 18 19  1  0
 15 20  1  0
 19 20  2  0
  7 21  1  0
  4 22  1  0
 21 22  1  0
M  END
