piperidine-amides-13446-covalent
     RDKit          3D

 21 22  0  0  0  0  0  0  0  0999 V2000
    7.1120   -3.2700   19.2450 C   0  0  0  0  0  0  0  0  0  0  0  0
    6.3640   -4.0680   20.2580 C   0  0  0  0  0  0  0  0  0  0  0  0
    5.3160   -4.6450   19.9190 O   0  0  0  0  0  0  0  0  0  0  0  0
    6.8860   -4.1850   21.5660 N   0  0  0  0  0  0  0  0  0  0  0  0
    7.7150   -3.1590   22.1510 C   0  0  0  0  0  0  0  0  0  0  0  0
    6.9300   -2.5810   23.3260 C   0  0  0  0  0  0  0  0  0  0  0  0
    6.5240   -3.7360   24.1740 C   0  0  0  0  0  0  0  0  0  0  0  0
    5.7150   -3.3140   25.3400 C   0  0  0  0  0  0  0  0  0  0  0  0
    4.4870   -3.3640   25.2050 O   0  0  0  0  0  0  0  0  0  0  0  0
    6.3430   -2.8870   26.5210 N   0  0  0  0  0  0  0  0  0  0  0  0
    6.4750   -1.5440   26.9630 C   0  0  0  0  0  0  0  0  0  0  0  0
    6.1020   -1.0890   28.2130 C   0  0  1  0  0  0  0  0  0  0  0  0
    4.7320   -1.1430   28.5010 C   0  0  0  0  0  0  0  0  0  0  0  0
    4.0150    0.0300   28.4220 C   0  0  0  0  0  0  0  0  0  0  0  0
    4.1480    1.1140   29.4330 C   0  0  0  0  0  0  0  0  0  0  0  0
    4.9630    1.0070   30.7360 C   0  0  0  0  0  0  0  0  0  0  0  0
    5.6930   -0.3080   31.0190 C   0  0  0  0  0  0  0  0  0  0  0  0
    6.8560   -0.4820   30.2970 C   0  0  0  0  0  0  0  0  0  0  0  0
    6.9090   -1.5070   29.2210 C   0  0  0  0  0  0  0  0  0  0  0  0
    5.7920   -4.8320   23.4550 C   0  0  0  0  0  0  0  0  0  0  0  0
    6.5370   -5.2980   22.4000 C   0  0  0  0  0  0  0  0  0  0  0  0
  1  2  1  0
  2  3  2  0
  2  4  1  0
  4  5  1  0
  5  6  1  0
  6  7  1  0
  7  8  1  0
  8  9  2  0
  8 10  1  0
 10 11  1  0
 12 11  1  6
 12 13  1  0
 13 14  1  0
 14 15  1  0
 15 16  2  0
 16 17  1  0
 17 18  1  0
 12 19  1  0
 18 19  1  0
  7 20  1  0
  4 21  1  0
 20 21  1  0
M  END
