piperidine-amides-21488-covalent
     RDKit          3D

 23 25  0  0  0  0  0  0  0  0999 V2000
    7.0130   -3.4070   19.4320 C   0  0  0  0  0  0  0  0  0  0  0  0
    6.3600   -4.2730   20.4230 C   0  0  0  0  0  0  0  0  0  0  0  0
    5.3860   -4.9440   19.9960 O   0  0  0  0  0  0  0  0  0  0  0  0
    6.8440   -4.3600   21.7400 N   0  0  0  0  0  0  0  0  0  0  0  0
    6.6700   -5.5670   22.5290 C   0  0  0  0  0  0  0  0  0  0  0  0
    6.1010   -5.1970   23.8830 C   0  0  0  0  0  0  0  0  0  0  0  0
    5.9750   -3.7050   24.0160 C   0  0  0  0  0  0  0  0  0  0  0  0
    5.4050   -3.1830   25.3000 C   0  0  0  0  0  0  0  0  0  0  0  0
    4.8820   -2.0620   25.2300 O   0  0  0  0  0  0  0  0  0  0  0  0
    5.3470   -3.7940   26.5780 N   0  0  0  0  0  0  0  0  0  0  0  0
    6.4510   -3.6410   27.4250 C   0  0  0  0  0  0  0  0  0  0  0  0
    6.6240   -4.9240   28.2430 C   0  0  0  0  0  0  0  0  0  0  0  0
    5.2640   -5.1090   28.7510 N   0  0  0  0  0  0  0  0  0  0  0  0
    4.9920   -5.9430   29.7470 C   0  0  0  0  0  0  0  0  0  0  0  0
    5.9120   -6.8110   30.2030 N   0  0  0  0  0  0  0  0  0  0  0  0
    5.6980   -7.6680   31.2060 C   0  0  0  0  0  0  0  0  0  0  0  0
    4.4270   -7.5320   31.6850 C   0  0  0  0  0  0  0  0  0  0  0  0
    3.4980   -6.6670   31.2340 N   0  0  0  0  0  0  0  0  0  0  0  0
    3.7250   -5.8200   30.2370 N   0  0  0  0  0  0  0  0  0  0  0  0
    4.3770   -4.1330   28.6160 C   0  0  0  0  0  0  0  0  0  0  0  0
    4.1390   -3.7380   27.3140 C   0  0  0  0  0  0  0  0  0  0  0  0
    7.3150   -3.0310   23.7210 C   0  0  0  0  0  0  0  0  0  0  0  0
    7.6710   -3.2870   22.2630 C   0  0  0  0  0  0  0  0  0  0  0  0
  1  2  1  0
  2  3  2  0
  2  4  1  0
  4  5  1  0
  5  6  1  0
  6  7  1  0
  7  8  1  0
  8  9  2  0
  8 10  1  0
 10 11  1  0
 11 12  1  0
 12 13  1  0
 13 14  1  0
 14 15  2  0
 15 16  1  0
 16 17  2  0
 17 18  1  0
 14 19  1  0
 18 19  2  0
 13 20  1  0
 10 21  1  0
 20 21  1  0
  7 22  1  0
  4 23  1  0
 22 23  1  0
M  END
