piperidine-amides-213-covalent
     RDKit          3D

 21 22  0  0  0  0  0  0  0  0999 V2000
    7.1590   -3.3430   19.4260 C   0  0  0  0  0  0  0  0  0  0  0  0
    6.4860   -4.1830   20.3880 C   0  0  0  0  0  0  0  0  0  0  0  0
    5.4560   -4.8360   19.9970 O   0  0  0  0  0  0  0  0  0  0  0  0
    6.9690   -4.3360   21.7120 N   0  0  0  0  0  0  0  0  0  0  0  0
    6.4130   -5.4230   22.5150 C   0  0  0  0  0  0  0  0  0  0  0  0
    5.2980   -4.5690   23.2080 C   0  0  0  0  0  0  0  0  0  0  0  0
    5.9760   -3.4480   23.9880 C   0  0  0  0  0  0  0  0  0  0  0  0
    5.9020   -3.7940   25.5310 C   0  0  0  0  0  0  0  0  0  0  0  0
    5.5870   -4.9530   25.6850 O   0  0  0  0  0  0  0  0  0  0  0  0
    6.1710   -2.7680   26.2320 N   0  0  0  0  0  0  0  0  0  0  0  0
    6.3480   -1.7250   27.0820 C   0  0  0  0  0  0  0  0  0  0  0  0
    6.9080   -1.5420   28.3010 C   0  0  0  0  0  0  0  0  0  0  0  0
    6.9270   -0.3020   28.9760 C   0  0  0  0  0  0  0  0  0  0  0  0
    7.5620   -0.3660   30.2310 F   0  0  0  0  0  0  0  0  0  0  0  0
    6.4350    1.0750   28.6900 C   0  0  0  0  0  0  0  0  0  0  0  0
    5.8990    0.7300   27.4230 N   0  0  0  0  0  0  0  0  0  0  0  0
    5.7700   -0.4400   26.5620 C   0  0  0  0  0  0  0  0  0  0  0  0
    5.1080   -0.2050   25.3460 C   0  0  0  0  0  0  0  0  0  0  0  0
    3.9500   -0.9490   25.0640 C   0  0  0  0  0  0  0  0  0  0  0  0
    7.0520   -2.6490   23.4370 C   0  0  0  0  0  0  0  0  0  0  0  0
    7.8620   -3.4840   22.3890 C   0  0  0  0  0  0  0  0  0  0  0  0
  1  2  1  0
  2  3  2  0
  2  4  1  0
  4  5  1  0
  5  6  1  0
  6  7  1  0
  7  8  1  0
  8  9  2  0
  8 10  1  0
 10 11  1  0
 11 12  2  0
 12 13  1  0
 13 14  1  0
 13 15  2  0
 15 16  1  0
 11 17  1  0
 16 17  2  0
 17 18  1  0
 18 19  1  0
  7 20  1  0
  4 21  1  0
 20 21  1  0
M  END
