piperidine-amides-10738-covalent
     RDKit          3D

 22 23  0  0  0  0  0  0  0  0999 V2000
    7.1330   -3.2830   19.2180 C   0  0  0  0  0  0  0  0  0  0  0  0
    6.3230   -3.9870   20.2100 C   0  0  0  0  0  0  0  0  0  0  0  0
    5.2510   -4.5120   19.8670 O   0  0  0  0  0  0  0  0  0  0  0  0
    6.7590   -4.1320   21.5280 N   0  0  0  0  0  0  0  0  0  0  0  0
    6.5190   -5.3270   22.2970 C   0  0  0  0  0  0  0  0  0  0  0  0
    5.8240   -4.8720   23.5550 C   0  0  0  0  0  0  0  0  0  0  0  0
    6.5650   -3.7450   24.2250 C   0  0  0  0  0  0  0  0  0  0  0  0
    5.8320   -3.1910   25.3890 C   0  0  0  0  0  0  0  0  0  0  0  0
    4.5690   -3.0970   25.3570 O   0  0  0  0  0  0  0  0  0  0  0  0
    6.4750   -2.7480   26.5700 N   0  0  0  0  0  0  0  0  0  0  0  0
    6.1820   -3.4000   27.8650 C   0  0  0  0  0  0  0  0  0  0  0  0
    6.0310   -2.3540   28.9120 C   0  0  0  0  0  0  0  0  0  0  0  0
    7.2570   -1.5490   29.3100 C   0  0  0  0  0  0  0  0  0  0  0  0
    7.2200   -0.4560   30.3880 C   0  0  0  0  0  0  0  0  0  0  0  0
    5.9080   -0.1980   31.0510 C   0  0  0  0  0  0  0  0  0  0  0  0
    5.7460    0.8260   32.1110 C   0  0  0  0  0  0  0  0  0  0  0  0
    4.7690   -1.0380   30.5850 C   0  0  0  0  0  0  0  0  0  0  0  0
    3.4090   -1.3350   30.7180 C   0  0  0  0  0  0  0  0  0  0  0  0
    2.5740   -0.3930   31.1570 N   0  0  0  0  0  0  0  0  0  0  0  0
    4.8040   -2.1120   29.5280 C   0  0  0  0  0  0  0  0  0  0  0  0
    6.9280   -2.6020   23.3280 C   0  0  0  0  0  0  0  0  0  0  0  0
    7.6340   -3.1370   22.1180 C   0  0  0  0  0  0  0  0  0  0  0  0
  1  2  1  0
  2  3  2  0
  2  4  1  0
  4  5  1  0
  5  6  1  0
  6  7  1  0
  7  8  1  0
  8  9  2  0
  8 10  1  0
 10 11  1  0
 11 12  1  0
 12 13  2  0
 13 14  1  0
 14 15  2  0
 15 16  1  0
 15 17  1  0
 17 18  1  0
 18 19  3  0
 12 20  1  0
 17 20  2  0
  7 21  1  0
  4 22  1  0
 21 22  1  0
M  END
