piperidine-amides-30974-covalent
     RDKit          3D

 27 28  0  0  0  0  0  0  0  0999 V2000
    7.0790   -3.3170   19.3120 C   0  0  0  0  0  0  0  0  0  0  0  0
    6.3750   -4.1180   20.3140 C   0  0  0  0  0  0  0  0  0  0  0  0
    5.3810   -4.7820   19.9680 O   0  0  0  0  0  0  0  0  0  0  0  0
    6.8300   -4.1850   21.6410 N   0  0  0  0  0  0  0  0  0  0  0  0
    7.7240   -3.1750   22.1830 C   0  0  0  0  0  0  0  0  0  0  0  0
    7.5520   -3.2120   23.6740 C   0  0  0  0  0  0  0  0  0  0  0  0
    6.1670   -3.6520   24.0180 C   0  0  0  0  0  0  0  0  0  0  0  0
    5.7460   -3.3120   25.3980 C   0  0  0  0  0  0  0  0  0  0  0  0
    4.5180   -3.4160   25.6990 O   0  0  0  0  0  0  0  0  0  0  0  0
    6.6060   -2.8350   26.4260 N   0  0  0  0  0  0  0  0  0  0  0  0
    7.8990   -3.4860   26.7370 C   0  0  0  0  0  0  0  0  0  0  0  0
    7.8380   -4.9630   26.7010 C   0  0  1  0  0  0  0  0  0  0  0  0
    8.8460   -5.5630   26.2400 O   0  0  0  0  0  0  0  0  0  0  0  0
    7.6590   -5.5800   28.0270 C   0  0  0  0  0  0  0  0  0  0  0  0
    6.2130   -5.8350   28.3890 C   0  0  0  0  0  0  0  0  0  0  0  0
    5.9530   -6.7290   29.5820 C   0  0  0  0  0  0  0  0  0  0  0  0
    5.4000   -6.2530   27.1550 C   0  0  0  0  0  0  0  0  0  0  0  0
    5.5610   -4.6490   29.0800 C   0  0  0  0  0  0  0  0  0  0  0  0
    6.2490   -1.7150   27.2420 C   0  0  0  0  0  0  0  0  0  0  0  0
    7.2040   -1.5500   28.3920 C   0  0  0  0  0  0  0  0  0  0  0  0
    6.8740   -0.3170   29.2220 C   0  0  0  0  0  0  0  0  0  0  0  0
    6.5710    0.8300   28.3960 N   0  0  0  0  0  0  0  0  0  0  0  0
    6.3960    2.0560   29.0910 C   0  0  0  0  0  0  0  0  0  0  0  0
    5.5590    0.6570   27.4530 C   0  0  0  0  0  0  0  0  0  0  0  0
    5.8810   -0.5420   26.6190 C   0  0  0  0  0  0  0  0  0  0  0  0
    5.8990   -5.0970   23.6400 C   0  0  0  0  0  0  0  0  0  0  0  0
    6.6590   -5.4220   22.3530 C   0  0  0  0  0  0  0  0  0  0  0  0
  1  2  1  0
  2  3  2  0
  2  4  1  0
  4  5  1  0
  5  6  1  0
  6  7  1  0
  7  8  1  0
  8  9  2  0
  8 10  1  0
 10 11  1  0
 11 12  1  0
 12 13  1  1
 12 14  1  0
 15 14  1  0
 15 16  1  0
 15 17  1  0
 15 18  1  0
 10 19  1  0
 19 20  1  0
 20 21  1  0
 21 22  1  0
 22 23  1  0
 22 24  1  0
 19 25  1  0
 24 25  1  0
  7 26  1  0
  4 27  1  0
 26 27  1  0
M  END
