piperidine-amides-29969-covalent
     RDKit          3D

 27 29  0  0  0  0  0  0  0  0999 V2000
    7.0630   -3.3510   19.3790 C   0  0  0  0  0  0  0  0  0  0  0  0
    6.3760   -4.2060   20.3400 C   0  0  0  0  0  0  0  0  0  0  0  0
    5.3920   -4.8580   19.9880 O   0  0  0  0  0  0  0  0  0  0  0  0
    6.8790   -4.3240   21.6850 N   0  0  0  0  0  0  0  0  0  0  0  0
    7.7650   -3.2960   22.2060 C   0  0  0  0  0  0  0  0  0  0  0  0
    7.5700   -3.1210   23.6820 C   0  0  0  0  0  0  0  0  0  0  0  0
    6.1940   -3.6610   23.9760 C   0  0  0  0  0  0  0  0  0  0  0  0
    5.6860   -3.2110   25.3070 C   0  0  0  0  0  0  0  0  0  0  0  0
    4.9570   -2.2100   25.3960 O   0  0  0  0  0  0  0  0  0  0  0  0
    5.9640   -3.8950   26.5090 N   0  0  0  0  0  0  0  0  0  0  0  0
    6.3310   -3.0240   27.5960 C   0  0  0  0  0  0  0  0  0  0  0  0
    6.6890   -3.8470   28.8110 C   0  0  0  0  0  0  0  0  0  0  0  0
    6.0990   -5.0640   28.9930 C   0  0  0  0  0  0  0  0  0  0  0  0
    4.8510   -5.0700   29.6410 C   0  0  0  0  0  0  0  0  0  0  0  0
    4.7020   -5.8880   30.7450 C   0  0  0  0  0  0  0  0  0  0  0  0
    5.5730   -7.0130   31.0730 C   0  0  0  0  0  0  0  0  0  0  0  0
    5.3990   -7.8050   32.1940 C   0  0  0  0  0  0  0  0  0  0  0  0
    4.3530   -7.5450   33.0610 C   0  0  0  0  0  0  0  0  0  0  0  0
    4.0890   -8.2930   34.2270 N   0  0  0  0  0  0  0  0  0  0  0  0
    4.9940   -8.3570   35.1270 O   0  0  0  0  0  0  0  0  0  0  0  0
    2.8410   -8.6730   34.6430 O   0  0  0  0  0  0  0  0  0  0  0  0
    3.4880   -6.4860   32.7960 C   0  0  0  0  0  0  0  0  0  0  0  0
    3.6610   -5.6380   31.6160 C   0  0  0  0  0  0  0  0  0  0  0  0
    5.7600   -5.7070   27.8690 C   0  0  0  0  0  0  0  0  0  0  0  0
    5.0620   -4.9230   26.9680 C   0  0  0  0  0  0  0  0  0  0  0  0
    6.1780   -5.1590   23.8320 C   0  0  0  0  0  0  0  0  0  0  0  0
    6.7020   -5.5470   22.4370 C   0  0  0  0  0  0  0  0  0  0  0  0
  1  2  1  0
  2  3  2  0
  2  4  1  0
  4  5  1  0
  5  6  1  0
  6  7  1  0
  7  8  1  0
  8  9  2  0
  8 10  1  0
 10 11  1  0
 11 12  1  0
 12 13  1  0
 13 14  1  0
 14 15  1  0
 15 16  2  0
 16 17  1  0
 17 18  2  0
 18 19  1  0
 19 20  2  0
 19 21  1  0
 18 22  1  0
 15 23  1  0
 22 23  2  0
 13 24  1  0
 10 25  1  0
 24 25  1  0
  7 26  1  0
  4 27  1  0
 26 27  1  0
M  CHG  2  19   1  21  -1
M  END
