piperidine-amides-8580-covalent
     RDKit          3D

 24 25  0  0  0  0  0  0  0  0999 V2000
    7.1180   -3.2730   19.2030 C   0  0  0  0  0  0  0  0  0  0  0  0
    6.3890   -4.0320   20.2250 C   0  0  0  0  0  0  0  0  0  0  0  0
    5.3180   -4.5730   19.8940 O   0  0  0  0  0  0  0  0  0  0  0  0
    6.9170   -4.1800   21.5300 N   0  0  0  0  0  0  0  0  0  0  0  0
    6.5620   -5.3510   22.2870 C   0  0  0  0  0  0  0  0  0  0  0  0
    6.1630   -4.9770   23.6940 C   0  0  0  0  0  0  0  0  0  0  0  0
    6.1330   -3.4660   23.7790 C   0  0  0  0  0  0  0  0  0  0  0  0
    5.7320   -2.9900   25.1350 C   0  0  0  0  0  0  0  0  0  0  0  0
    4.6400   -3.3770   25.5510 O   0  0  0  0  0  0  0  0  0  0  0  0
    6.6150   -2.1400   25.7980 N   0  0  0  0  0  0  0  0  0  0  0  0
    7.8170   -2.6040   26.3930 C   0  0  0  0  0  0  0  0  0  0  0  0
    7.6460   -3.7830   27.0750 C   0  0  0  0  0  0  0  0  0  0  0  0
    8.4160   -4.8770   26.7830 C   0  0  0  0  0  0  0  0  0  0  0  0
    8.3060   -6.0850   27.4180 C   0  0  0  0  0  0  0  0  0  0  0  0
    7.2630   -6.1910   28.4930 C   0  0  0  0  0  0  0  0  0  0  0  0
    6.3910   -4.9770   28.8300 C   0  0  0  0  0  0  0  0  0  0  0  0
    6.6730   -3.7760   28.0360 C   0  0  0  0  0  0  0  0  0  0  0  0
    6.0200   -2.7090   28.2240 O   0  0  0  0  0  0  0  0  0  0  0  0
    6.6200   -1.9020   29.1860 C   0  0  0  0  0  0  0  0  0  0  0  0
    6.5090   -0.4000   28.8370 C   0  0  0  0  0  0  0  0  0  0  0  0
    7.3710    0.3330   29.6040 O   0  0  0  0  0  0  0  0  0  0  0  0
    8.0850   -0.1500   30.6970 C   0  0  0  0  0  0  0  0  0  0  0  0
    7.5130   -2.9850   23.4960 C   0  0  0  0  0  0  0  0  0  0  0  0
    7.7560   -3.1090   22.0340 C   0  0  0  0  0  0  0  0  0  0  0  0
  1  2  1  0
  2  3  2  0
  2  4  1  0
  4  5  1  0
  5  6  1  0
  6  7  1  0
  7  8  1  0
  8  9  2  0
  8 10  1  0
 10 11  1  0
 11 12  1  0
 12 13  2  0
 13 14  1  0
 14 15  2  0
 15 16  1  0
 12 17  1  0
 16 17  2  0
 17 18  1  0
 18 19  1  0
 19 20  1  0
 20 21  1  0
 21 22  1  0
  7 23  1  0
  4 24  1  0
 23 24  1  0
M  END
