piperidine-amides-387-covalent
     RDKit          3D

 28 30  0  0  0  0  0  0  0  0999 V2000
    7.0500   -3.3320   19.2950 C   0  0  0  0  0  0  0  0  0  0  0  0
    6.3240   -4.0660   20.3150 C   0  0  0  0  0  0  0  0  0  0  0  0
    5.2780   -4.6760   19.9310 O   0  0  0  0  0  0  0  0  0  0  0  0
    6.7290   -4.1880   21.6620 N   0  0  0  0  0  0  0  0  0  0  0  0
    7.7170   -3.1780   22.1790 C   0  0  0  0  0  0  0  0  0  0  0  0
    7.3360   -2.8900   23.7040 C   0  0  0  0  0  0  0  0  0  0  0  0
    6.2080   -3.8160   24.0520 C   0  0  0  0  0  0  0  0  0  0  0  0
    5.4280   -3.5100   25.4030 C   0  0  0  0  0  0  0  0  0  0  0  0
    4.3910   -4.1450   25.3890 O   0  0  0  0  0  0  0  0  0  0  0  0
    6.0080   -2.6840   26.1760 N   0  0  0  0  0  0  0  0  0  0  0  0
    6.3580   -1.7740   27.1240 C   0  0  0  0  0  0  0  0  0  0  0  0
    7.0290   -1.6490   28.3210 C   0  0  0  0  0  0  0  0  0  0  0  0
    7.1650   -0.4380   29.0680 C   0  0  0  0  0  0  0  0  0  0  0  0
    6.6280    0.9170   28.7350 C   0  0  0  0  0  0  0  0  0  0  0  0
    5.9090    0.6850   27.4080 C   0  0  0  0  0  0  0  0  0  0  0  0
    5.4840    2.0090   27.2450 C   0  0  0  0  0  0  0  0  0  0  0  0
    6.0430    2.9380   27.8680 O   0  0  0  0  0  0  0  0  0  0  0  0
    4.4230    2.2830   26.3670 N   0  0  0  0  0  0  0  0  0  0  0  0
    4.5000    1.8890   24.9700 C   0  0  0  0  0  0  0  0  0  0  0  0
    3.1480    2.4790   27.0090 C   0  0  0  0  0  0  0  0  0  0  0  0
    2.4070    1.1820   27.4610 C   0  0  0  0  0  0  0  0  0  0  0  0
    1.1980    1.3590   28.0660 C   0  0  0  0  0  0  0  0  0  0  0  0
    0.6830    2.6130   28.2560 C   0  0  0  0  0  0  0  0  0  0  0  0
    1.3020    3.7670   27.8750 C   0  0  0  0  0  0  0  0  0  0  0  0
    2.5340    3.6920   27.2530 C   0  0  0  0  0  0  0  0  0  0  0  0
    5.7880   -0.4750   26.7030 C   0  0  0  0  0  0  0  0  0  0  0  0
    6.3880   -5.2590   23.7730 C   0  0  0  0  0  0  0  0  0  0  0  0
    6.6720   -5.4550   22.3330 C   0  0  0  0  0  0  0  0  0  0  0  0
  1  2  1  0
  2  3  2  0
  2  4  1  0
  4  5  1  0
  5  6  1  0
  6  7  1  0
  7  8  1  0
  8  9  2  0
  8 10  1  0
 10 11  1  0
 11 12  2  0
 12 13  1  0
 13 14  2  0
 14 15  1  0
 15 16  1  0
 16 17  2  0
 16 18  1  0
 18 19  1  0
 18 20  1  0
 20 21  2  0
 21 22  1  0
 22 23  2  0
 23 24  1  0
 20 25  1  0
 24 25  2  0
 11 26  1  0
 15 26  2  0
  7 27  1  0
  4 28  1  0
 27 28  1  0
M  END
