piperidine-amides-19496-covalent
     RDKit          3D

 22 23  0  0  0  0  0  0  0  0999 V2000
    7.1140   -3.3650   19.2680 C   0  0  0  0  0  0  0  0  0  0  0  0
    6.3980   -4.0870   20.2930 C   0  0  0  0  0  0  0  0  0  0  0  0
    5.3200   -4.6610   19.9390 O   0  0  0  0  0  0  0  0  0  0  0  0
    6.8700   -4.2320   21.6200 N   0  0  0  0  0  0  0  0  0  0  0  0
    7.7670   -3.2050   22.1920 C   0  0  0  0  0  0  0  0  0  0  0  0
    6.7730   -2.5580   23.2180 C   0  0  0  0  0  0  0  0  0  0  0  0
    6.3630   -3.6830   24.1440 C   0  0  0  0  0  0  0  0  0  0  0  0
    5.3950   -3.1340   25.2850 C   0  0  0  0  0  0  0  0  0  0  0  0
    4.3730   -2.7070   24.7750 O   0  0  0  0  0  0  0  0  0  0  0  0
    5.9190   -3.2800   26.4370 N   0  0  0  0  0  0  0  0  0  0  0  0
    6.1850   -3.8860   27.6330 C   0  0  0  0  0  0  0  0  0  0  0  0
    6.2180   -5.1820   28.0950 C   0  0  0  0  0  0  0  0  0  0  0  0
    4.9930   -5.5620   28.6560 O   0  0  0  0  0  0  0  0  0  0  0  0
    6.4980   -1.9290   26.5310 C   0  0  0  0  0  0  0  0  0  0  0  0
    6.4450   -1.1360   27.7850 C   0  0  0  0  0  0  0  0  0  0  0  0
    7.0860   -1.8030   28.9350 C   0  0  0  0  0  0  0  0  0  0  0  0
    6.9300   -0.8640   30.0190 C   0  0  0  0  0  0  0  0  0  0  0  0
    6.3530    0.4720   30.2880 C   0  0  0  0  0  0  0  0  0  0  0  0
    5.7630    0.8890   28.8890 C   0  0  0  0  0  0  0  0  0  0  0  0
    5.7940    0.0860   27.5830 C   0  0  0  0  0  0  0  0  0  0  0  0
    5.6610   -4.8370   23.3860 C   0  0  0  0  0  0  0  0  0  0  0  0
    6.5230   -5.3590   22.4550 C   0  0  0  0  0  0  0  0  0  0  0  0
  1  2  1  0
  2  3  2  0
  2  4  1  0
  4  5  1  0
  5  6  1  0
  6  7  1  0
  7  8  1  0
  8  9  2  0
  8 10  1  0
 10 11  1  0
 11 12  1  0
 12 13  1  0
 10 14  1  0
 14 15  1  0
 15 16  2  0
 16 17  1  0
 17 18  2  0
 18 19  1  0
 15 20  1  0
 19 20  2  0
  7 21  1  0
  4 22  1  0
 21 22  1  0
M  END
