piperidine-amides-35605-covalent
     RDKit          3D

 30 32  0  0  0  0  0  0  0  0999 V2000
    7.1040   -3.3440   19.3760 C   0  0  0  0  0  0  0  0  0  0  0  0
    6.3970   -4.1710   20.3820 C   0  0  0  0  0  0  0  0  0  0  0  0
    5.4120   -4.7990   19.9820 O   0  0  0  0  0  0  0  0  0  0  0  0
    6.8830   -4.2520   21.7020 N   0  0  0  0  0  0  0  0  0  0  0  0
    6.5840   -5.3830   22.5390 C   0  0  0  0  0  0  0  0  0  0  0  0
    5.8160   -4.8660   23.7190 C   0  0  0  0  0  0  0  0  0  0  0  0
    5.7590   -3.3440   23.5720 C   0  0  0  0  0  0  0  0  0  0  0  0
    4.9340   -2.7120   24.6440 C   0  0  0  0  0  0  0  0  0  0  0  0
    3.8340   -2.2450   24.3610 O   0  0  0  0  0  0  0  0  0  0  0  0
    5.3440   -2.6330   25.9710 N   0  0  0  0  0  0  0  0  0  0  0  0
    6.3940   -3.4770   26.2900 C   0  0  0  0  0  0  0  0  0  0  0  0
    5.8320   -4.7480   26.8600 C   0  0  0  0  0  0  0  0  0  0  0  0
    5.0060   -5.7380   26.3550 C   0  0  0  0  0  0  0  0  0  0  0  0
    4.5960   -6.8380   27.0220 C   0  0  0  0  0  0  0  0  0  0  0  0
    3.7710   -7.6940   26.3290 O   0  0  0  0  0  0  0  0  0  0  0  0
    2.6110   -7.9780   27.0070 C   0  0  0  0  0  0  0  0  0  0  0  0
    4.9670   -7.1380   28.3620 C   0  0  0  0  0  0  0  0  0  0  0  0
    5.8370   -6.2560   29.1390 C   0  0  0  0  0  0  0  0  0  0  0  0
    6.2360   -5.0640   28.3200 C   0  0  0  0  0  0  0  0  0  0  0  0
    7.0530   -4.2110   29.0370 O   0  0  0  0  0  0  0  0  0  0  0  0
    6.9870   -2.7990   28.9550 C   0  0  0  0  0  0  0  0  0  0  0  0
    5.6210   -1.4440   26.7920 C   0  0  0  0  0  0  0  0  0  0  0  0
    6.2420   -0.1730   26.2630 C   0  0  0  0  0  0  0  0  0  0  0  0
    6.4820    0.9510   27.1980 C   0  0  0  0  0  0  0  0  0  0  0  0
    6.1350    0.8320   28.6360 C   0  0  0  0  0  0  0  0  0  0  0  0
    5.5700   -0.3330   29.0610 C   0  0  0  0  0  0  0  0  0  0  0  0
    5.2860   -1.5060   28.1320 C   0  0  0  0  0  0  0  0  0  0  0  0
    4.3450   -3.1890   28.9870 I   0  0  0  0  0  0  0  0  0  0  0  0
    7.1460   -2.6960   23.5260 C   0  0  0  0  0  0  0  0  0  0  0  0
    7.7430   -3.1800   22.2010 C   0  0  0  0  0  0  0  0  0  0  0  0
  1  2  1  0
  2  3  2  0
  2  4  1  0
  4  5  1  0
  5  6  1  0
  6  7  1  0
  7  8  1  0
  8  9  2  0
  8 10  1  0
 10 11  1  0
 11 12  1  0
 12 13  2  0
 13 14  1  0
 14 15  1  0
 15 16  1  0
 14 17  2  0
 17 18  1  0
 12 19  1  0
 18 19  2  0
 19 20  1  0
 20 21  1  0
 10 22  1  0
 22 23  2  0
 23 24  1  0
 24 25  2  0
 25 26  1  0
 22 27  1  0
 26 27  2  0
 27 28  1  0
  7 29  1  0
  4 30  1  0
 29 30  1  0
M  END
