piperidine-amides-6344-covalent
     RDKit          3D

 25 27  0  0  0  0  0  0  0  0999 V2000
    7.0600   -3.3440   19.3380 C   0  0  0  0  0  0  0  0  0  0  0  0
    6.3860   -4.2150   20.3090 C   0  0  0  0  0  0  0  0  0  0  0  0
    5.3580   -4.8410   19.9790 O   0  0  0  0  0  0  0  0  0  0  0  0
    6.9220   -4.4010   21.5900 N   0  0  0  0  0  0  0  0  0  0  0  0
    6.4850   -5.5200   22.3800 C   0  0  0  0  0  0  0  0  0  0  0  0
    5.5440   -4.9330   23.4390 C   0  0  0  0  0  0  0  0  0  0  0  0
    6.3630   -3.9600   24.2630 C   0  0  0  0  0  0  0  0  0  0  0  0
    5.5210   -3.3590   25.3320 C   0  0  0  0  0  0  0  0  0  0  0  0
    4.3020   -3.2330   25.0990 O   0  0  0  0  0  0  0  0  0  0  0  0
    6.0680   -2.9530   26.5810 N   0  0  0  0  0  0  0  0  0  0  0  0
    6.3450   -1.5560   26.8380 C   0  0  1  0  0  0  0  0  0  0  0  0
    6.6620   -1.0520   25.4310 C   0  0  0  0  0  0  0  0  0  0  0  0
    6.2280    0.1930   25.0170 C   0  0  0  0  0  0  0  0  0  0  0  0
    6.3430    1.3470   25.6820 C   0  0  0  0  0  0  0  0  0  0  0  0
    5.8520    2.4500   25.0890 C   0  0  0  0  0  0  0  0  0  0  0  0
    5.2490    2.4580   23.8640 C   0  0  0  0  0  0  0  0  0  0  0  0
    4.6880    4.0210   23.3020 Cl  0  0  0  0  0  0  0  0  0  0  0  0
    5.0040    1.2600   22.9200 C   0  0  0  0  0  0  0  0  0  0  0  0
    5.6310    0.1330   23.7770 C   0  0  0  0  0  0  0  0  0  0  0  0
    5.1650   -0.6680   27.0870 C   0  0  0  0  0  0  0  0  0  0  0  0
    5.6870    0.3470   27.9770 C   0  0  0  0  0  0  0  0  0  0  0  0
    6.7780    0.0210   28.5040 O   0  0  0  0  0  0  0  0  0  0  0  0
    7.1680   -1.2070   27.9260 C   0  0  0  0  0  0  0  0  0  0  0  0
    6.8350   -2.8240   23.3530 C   0  0  0  0  0  0  0  0  0  0  0  0
    7.6800   -3.3660   22.2400 C   0  0  0  0  0  0  0  0  0  0  0  0
  1  2  1  0
  2  3  2  0
  2  4  1  0
  4  5  1  0
  5  6  1  0
  6  7  1  0
  7  8  1  0
  8  9  2  0
  8 10  1  0
 11 10  1  0
 11 12  1  6
 12 13  1  0
 13 14  2  0
 14 15  1  0
 15 16  2  0
 16 17  1  0
 16 18  1  0
 13 19  1  0
 18 19  2  0
 11 20  1  0
 20 21  1  0
 21 22  1  0
 11 23  1  0
 22 23  1  0
  7 24  1  0
  4 25  1  0
 24 25  1  0
M  END
