piperidine-amides-14725-covalent
     RDKit          3D

 22 24  0  0  0  0  0  0  0  0999 V2000
    7.0570   -3.3710   19.4090 C   0  0  0  0  0  0  0  0  0  0  0  0
    6.3690   -4.2040   20.3900 C   0  0  0  0  0  0  0  0  0  0  0  0
    5.3990   -4.8770   19.9930 O   0  0  0  0  0  0  0  0  0  0  0  0
    6.8300   -4.2640   21.7350 N   0  0  0  0  0  0  0  0  0  0  0  0
    7.6900   -3.2170   22.2500 C   0  0  0  0  0  0  0  0  0  0  0  0
    7.3990   -2.9350   23.7020 C   0  0  0  0  0  0  0  0  0  0  0  0
    6.0780   -3.6030   23.9770 C   0  0  0  0  0  0  0  0  0  0  0  0
    5.5210   -3.2990   25.3450 C   0  0  0  0  0  0  0  0  0  0  0  0
    4.3140   -3.4860   25.4590 O   0  0  0  0  0  0  0  0  0  0  0  0
    6.3370   -2.8390   26.3820 N   0  0  0  0  0  0  0  0  0  0  0  0
    6.6770   -1.4550   26.5550 C   0  0  1  0  0  0  0  0  0  0  0  0
    5.6950   -0.4790   26.2380 C   0  0  0  0  0  0  0  0  0  0  0  0
    4.6010   -0.2760   27.0620 C   0  0  0  0  0  0  0  0  0  0  0  0
    4.9760   -0.4900   28.3430 O   0  0  0  0  0  0  0  0  0  0  0  0
    6.1730   -0.5170   28.8480 C   0  0  2  0  0  0  0  0  0  0  0  0
    6.2250   -0.8350   30.2850 C   0  0  0  0  0  0  0  0  0  0  0  0
    7.1680    0.2380   30.8720 C   0  0  0  0  0  0  0  0  0  0  0  0
    7.4750    1.1210   29.9290 O   0  0  0  0  0  0  0  0  0  0  0  0
    6.6750    0.7630   28.8430 C   0  0  0  0  0  0  0  0  0  0  0  0
    7.0150   -1.3210   28.0510 C   0  0  0  0  0  0  0  0  0  0  0  0
    6.0630   -5.0560   23.7740 C   0  0  0  0  0  0  0  0  0  0  0  0
    6.6050   -5.4310   22.5650 C   0  0  0  0  0  0  0  0  0  0  0  0
  1  2  1  0
  2  3  2  0
  2  4  1  0
  4  5  1  0
  5  6  1  0
  6  7  1  0
  7  8  1  0
  8  9  2  0
  8 10  1  0
 11 10  1  1
 11 12  1  0
 12 13  1  0
 13 14  1  0
 15 14  1  0
 15 16  1  1
 16 17  1  0
 17 18  1  0
 15 19  1  0
 18 19  1  0
 11 20  1  0
 15 20  1  0
  7 21  1  0
  4 22  1  0
 21 22  1  0
M  END
