piperidine-amides-27376-covalent
     RDKit          3D

 25 26  0  0  0  0  0  0  0  0999 V2000
    7.0980   -3.3380   19.2790 C   0  0  0  0  0  0  0  0  0  0  0  0
    6.4250   -4.1760   20.2740 C   0  0  0  0  0  0  0  0  0  0  0  0
    5.3330   -4.7010   19.9360 O   0  0  0  0  0  0  0  0  0  0  0  0
    7.0290   -4.4080   21.5050 N   0  0  0  0  0  0  0  0  0  0  0  0
    6.7150   -5.5910   22.2600 C   0  0  0  0  0  0  0  0  0  0  0  0
    5.9410   -5.1480   23.4610 C   0  0  0  0  0  0  0  0  0  0  0  0
    6.5460   -3.9280   24.1060 C   0  0  0  0  0  0  0  0  0  0  0  0
    5.5520   -3.3330   24.9970 C   0  0  0  0  0  0  0  0  0  0  0  0
    4.7710   -2.4760   24.5410 O   0  0  0  0  0  0  0  0  0  0  0  0
    5.4090   -3.6740   26.3250 N   0  0  0  0  0  0  0  0  0  0  0  0
    6.3360   -3.1450   27.2630 C   0  0  0  0  0  0  0  0  0  0  0  0
    6.5720   -4.1640   28.3650 C   0  0  0  0  0  0  0  0  0  0  0  0
    5.5280   -4.3260   29.1830 C   0  0  0  0  0  0  0  0  0  0  0  0
    5.1870   -3.1560   29.8440 C   0  0  0  0  0  0  0  0  0  0  0  0
    6.3300   -2.5170   29.8350 O   0  0  0  0  0  0  0  0  0  0  0  0
    6.1970   -1.2360   30.0010 C   0  0  0  0  0  0  0  0  0  0  0  0
    5.5390   -5.5160   29.8640 C   0  0  0  0  0  0  0  0  0  0  0  0
    6.5650   -6.2260   29.9680 O   0  0  0  0  0  0  0  0  0  0  0  0
    4.2330   -5.6510   30.3180 O   0  0  0  0  0  0  0  0  0  0  0  0
    3.9430   -6.1030   31.6390 C   0  0  0  0  0  0  0  0  0  0  0  0
    3.1510   -5.1290   32.4820 C   0  0  0  0  0  0  0  0  0  0  0  0
    4.5220   -4.5580   28.3560 C   0  0  0  0  0  0  0  0  0  0  0  0
    4.3330   -3.5470   27.2680 C   0  0  0  0  0  0  0  0  0  0  0  0
    6.9500   -2.8490   23.1520 C   0  0  0  0  0  0  0  0  0  0  0  0
    7.7770   -3.3660   22.2040 C   0  0  0  0  0  0  0  0  0  0  0  0
  1  2  1  0
  2  3  2  0
  2  4  1  0
  4  5  1  0
  5  6  1  0
  6  7  1  0
  7  8  1  0
  8  9  2  0
  8 10  1  0
 10 11  1  0
 11 12  1  0
 12 13  1  0
 13 14  1  0
 14 15  1  0
 15 16  1  0
 13 17  1  0
 17 18  2  0
 17 19  1  0
 19 20  1  0
 20 21  1  0
 13 22  1  0
 10 23  1  0
 22 23  1  0
  7 24  1  0
  4 25  1  0
 24 25  1  0
M  END
