piperidine-amides-12933-covalent
     RDKit          3D

 21 22  0  0  0  0  0  0  0  0999 V2000
    7.1170   -3.2330   19.1730 C   0  0  0  0  0  0  0  0  0  0  0  0
    6.3190   -3.9680   20.1840 C   0  0  0  0  0  0  0  0  0  0  0  0
    5.2200   -4.4180   19.8160 O   0  0  0  0  0  0  0  0  0  0  0  0
    6.7960   -4.2040   21.4780 N   0  0  0  0  0  0  0  0  0  0  0  0
    7.5800   -3.2020   22.1420 C   0  0  0  0  0  0  0  0  0  0  0  0
    7.2650   -2.9810   23.5600 C   0  0  0  0  0  0  0  0  0  0  0  0
    6.4260   -4.0180   24.1900 C   0  0  0  0  0  0  0  0  0  0  0  0
    5.6840   -3.4610   25.3540 C   0  0  0  0  0  0  0  0  0  0  0  0
    4.4420   -3.3940   25.2750 O   0  0  0  0  0  0  0  0  0  0  0  0
    6.3490   -3.0240   26.5190 N   0  0  0  0  0  0  0  0  0  0  0  0
    6.6870   -1.5960   26.7560 C   0  0  0  0  0  0  0  0  0  0  0  0
    5.4950   -0.7030   26.6430 C   0  0  0  0  0  0  0  0  0  0  0  0
    4.5600   -0.6570   27.7180 N   0  0  0  0  0  0  0  0  0  0  0  0
    3.3860    0.1670   27.7020 C   0  0  0  0  0  0  0  0  0  0  0  0
    3.0950    0.9680   26.6270 C   0  0  0  0  0  0  0  0  0  0  0  0
    2.0740    1.6790   26.6120 O   0  0  0  0  0  0  0  0  0  0  0  0
    1.9980    2.4220   25.5430 C   0  0  0  0  0  0  0  0  0  0  0  0
    4.0290    0.9670   25.4690 C   0  0  0  0  0  0  0  0  0  0  0  0
    5.1520    0.1080   25.6160 N   0  0  0  0  0  0  0  0  0  0  0  0
    5.5620   -4.8040   23.2680 C   0  0  0  0  0  0  0  0  0  0  0  0
    6.3350   -5.3080   22.2640 C   0  0  0  0  0  0  0  0  0  0  0  0
  1  2  1  0
  2  3  2  0
  2  4  1  0
  4  5  1  0
  5  6  1  0
  6  7  1  0
  7  8  1  0
  8  9  2  0
  8 10  1  0
 10 11  1  0
 11 12  1  0
 12 13  2  0
 13 14  1  0
 14 15  2  0
 15 16  1  0
 16 17  1  0
 15 18  1  0
 12 19  1  0
 18 19  2  0
  7 20  1  0
  4 21  1  0
 20 21  1  0
M  END
