piperidine-amides-32595-covalent
     RDKit          3D

 29 31  0  0  0  0  0  0  0  0999 V2000
    7.0710   -3.3310   19.3030 C   0  0  0  0  0  0  0  0  0  0  0  0
    6.3760   -4.1820   20.3040 C   0  0  0  0  0  0  0  0  0  0  0  0
    5.3450   -4.7860   19.9650 O   0  0  0  0  0  0  0  0  0  0  0  0
    6.9300   -4.3310   21.5930 N   0  0  0  0  0  0  0  0  0  0  0  0
    6.5530   -5.4240   22.4430 C   0  0  0  0  0  0  0  0  0  0  0  0
    5.6330   -4.8170   23.5100 C   0  0  0  0  0  0  0  0  0  0  0  0
    6.4250   -3.8150   24.2930 C   0  0  0  0  0  0  0  0  0  0  0  0
    5.6390   -3.1880   25.3860 C   0  0  0  0  0  0  0  0  0  0  0  0
    4.5230   -2.7800   25.0560 O   0  0  0  0  0  0  0  0  0  0  0  0
    6.1270   -3.0780   26.7000 N   0  0  0  0  0  0  0  0  0  0  0  0
    6.1210   -4.1840   27.5920 C   0  0  0  0  0  0  0  0  0  0  0  0
    5.0740   -4.5330   28.4090 C   0  0  0  0  0  0  0  0  0  0  0  0
    3.9390   -3.6850   28.4810 C   0  0  0  0  0  0  0  0  0  0  0  0
    2.8270   -3.9390   29.2670 C   0  0  0  0  0  0  0  0  0  0  0  0
    2.7660   -5.1550   30.1020 C   0  0  0  0  0  0  0  0  0  0  0  0
    1.6520   -5.4010   30.8830 F   0  0  0  0  0  0  0  0  0  0  0  0
    3.9430   -6.1100   30.0770 C   0  0  0  0  0  0  0  0  0  0  0  0
    5.0790   -5.6730   29.1590 C   0  0  0  0  0  0  0  0  0  0  0  0
    6.1500   -6.5530   29.1450 F   0  0  0  0  0  0  0  0  0  0  0  0
    6.2160   -1.7350   27.2010 C   0  0  0  0  0  0  0  0  0  0  0  0
    5.7800   -0.6030   26.3540 C   0  0  0  0  0  0  0  0  0  0  0  0
    6.0250    0.5300   27.2490 C   0  0  0  0  0  0  0  0  0  0  0  0
    5.9130    1.8960   27.2940 C   0  0  0  0  0  0  0  0  0  0  0  0
    5.7970    3.3150   27.3170 N   0  0  0  0  0  0  0  0  0  0  0  0
    6.5400    0.6510   28.5800 C   0  0  0  0  0  0  0  0  0  0  0  0
    6.9930   -0.5230   29.4340 C   0  0  0  0  0  0  0  0  0  0  0  0
    6.6980   -1.4930   28.4760 N   0  0  0  0  0  0  0  0  0  0  0  0
    6.9670   -2.7020   23.4280 C   0  0  0  0  0  0  0  0  0  0  0  0
    7.6380   -3.2080   22.2060 C   0  0  0  0  0  0  0  0  0  0  0  0
  1  2  1  0
  2  3  2  0
  2  4  1  0
  4  5  1  0
  5  6  1  0
  6  7  1  0
  7  8  1  0
  8  9  2  0
  8 10  1  0
 10 11  1  0
 11 12  1  0
 12 13  2  0
 13 14  1  0
 14 15  2  0
 15 16  1  0
 15 17  1  0
 12 18  1  0
 17 18  2  0
 18 19  1  0
 10 20  1  0
 20 21  2  0
 21 22  1  0
 22 23  1  0
 23 24  3  0
 22 25  2  0
 25 26  1  0
 20 27  1  0
 26 27  2  0
  7 28  1  0
  4 29  1  0
 28 29  1  0
M  END
