piperidine-amides-13869-covalent
     RDKit          3D

 26 28  0  0  0  0  0  0  0  0999 V2000
    7.1250   -3.2520   19.2170 C   0  0  0  0  0  0  0  0  0  0  0  0
    6.3340   -4.0140   20.2240 C   0  0  0  0  0  0  0  0  0  0  0  0
    5.2700   -4.5540   19.8830 O   0  0  0  0  0  0  0  0  0  0  0  0
    6.8370   -4.1450   21.5260 N   0  0  0  0  0  0  0  0  0  0  0  0
    6.6580   -5.3640   22.2800 C   0  0  0  0  0  0  0  0  0  0  0  0
    5.8790   -5.0240   23.5560 C   0  0  0  0  0  0  0  0  0  0  0  0
    6.2550   -3.6450   24.0010 C   0  0  0  0  0  0  0  0  0  0  0  0
    6.0360   -3.4450   25.4440 C   0  0  0  0  0  0  0  0  0  0  0  0
    4.8940   -3.1000   25.7770 O   0  0  0  0  0  0  0  0  0  0  0  0
    7.1050   -3.6600   26.3330 N   0  0  0  0  0  0  0  0  0  0  0  0
    7.3080   -3.0580   27.6030 C   0  0  0  0  0  0  0  0  0  0  0  0
    6.3060   -2.9170   28.5430 C   0  0  0  0  0  0  0  0  0  0  0  0
    5.4560   -3.9860   28.8800 C   0  0  0  0  0  0  0  0  0  0  0  0
    4.4530   -3.8480   29.8170 C   0  0  0  0  0  0  0  0  0  0  0  0
    4.2480   -2.5440   30.5000 C   0  0  0  0  0  0  0  0  0  0  0  0
    3.1660   -2.2910   31.5550 C   0  0  0  0  0  0  0  0  0  0  0  0
    5.0880   -1.5470   30.1460 C   0  0  0  0  0  0  0  0  0  0  0  0
    6.0750   -1.7200   29.2080 C   0  0  0  0  0  0  0  0  0  0  0  0
    6.9610   -0.8020   28.7790 N   0  0  0  0  0  0  0  0  0  0  0  0
    8.0400   -0.7960   29.7120 C   0  0  0  0  0  0  0  0  0  0  0  0
    8.7710    0.5040   30.0360 C   0  0  0  0  0  0  0  0  0  0  0  0
    8.8560    1.3050   28.9040 O   0  0  0  0  0  0  0  0  0  0  0  0
    7.7230    1.3990   28.0840 C   0  0  0  0  0  0  0  0  0  0  0  0
    6.5290    0.5430   28.5420 C   0  0  0  0  0  0  0  0  0  0  0  0
    7.6230   -3.2070   23.6070 C   0  0  0  0  0  0  0  0  0  0  0  0
    7.6850   -3.1160   22.0960 C   0  0  0  0  0  0  0  0  0  0  0  0
  1  2  1  0
  2  3  2  0
  2  4  1  0
  4  5  1  0
  5  6  1  0
  6  7  1  0
  7  8  1  0
  8  9  2  0
  8 10  1  0
 10 11  1  0
 11 12  1  0
 12 13  2  0
 13 14  1  0
 14 15  2  0
 15 16  1  0
 15 17  1  0
 12 18  1  0
 17 18  2  0
 18 19  1  0
 19 20  1  0
 20 21  1  0
 21 22  1  0
 22 23  1  0
 19 24  1  0
 23 24  1  0
  7 25  1  0
  4 26  1  0
 25 26  1  0
M  END
