piperidine-amides-11007-covalent
     RDKit          3D

 21 22  0  0  0  0  0  0  0  0999 V2000
    7.0720   -3.2830   19.2380 C   0  0  0  0  0  0  0  0  0  0  0  0
    6.3350   -4.0410   20.2580 C   0  0  0  0  0  0  0  0  0  0  0  0
    5.3150   -4.6600   19.9240 O   0  0  0  0  0  0  0  0  0  0  0  0
    6.7760   -4.1180   21.5900 N   0  0  0  0  0  0  0  0  0  0  0  0
    7.7090   -3.1520   22.1460 C   0  0  0  0  0  0  0  0  0  0  0  0
    7.3650   -2.9820   23.5990 C   0  0  0  0  0  0  0  0  0  0  0  0
    6.0660   -3.6420   23.9380 C   0  0  0  0  0  0  0  0  0  0  0  0
    5.6280   -3.4030   25.3320 C   0  0  0  0  0  0  0  0  0  0  0  0
    4.4220   -3.6090   25.6510 O   0  0  0  0  0  0  0  0  0  0  0  0
    6.4810   -2.9420   26.3570 N   0  0  0  0  0  0  0  0  0  0  0  0
    6.7640   -1.4990   26.4800 C   0  0  0  0  0  0  0  0  0  0  0  0
    5.5030   -0.7790   26.1860 C   0  0  0  0  0  0  0  0  0  0  0  0
    4.2290   -1.0730   26.8690 C   0  0  0  0  0  0  0  0  0  0  0  0
    3.1510   -0.1980   26.3670 C   0  0  0  0  0  0  0  0  0  0  0  0
    1.6800   -0.0620   26.7000 C   0  0  0  0  0  0  0  0  0  0  0  0
    1.5510    0.2250   28.0810 O   0  0  0  0  0  0  0  0  0  0  0  0
    2.5400    1.1170   28.4410 C   0  0  0  0  0  0  0  0  0  0  0  0
    3.5030    0.7930   25.3030 C   0  0  0  0  0  0  0  0  0  0  0  0
    5.1760    0.4980   25.0600 S   0  0  0  0  0  0  0  0  0  0  0  0
    6.1050   -5.1250   23.6800 C   0  0  0  0  0  0  0  0  0  0  0  0
    6.6490   -5.3820   22.2920 C   0  0  0  0  0  0  0  0  0  0  0  0
  1  2  1  0
  2  3  2  0
  2  4  1  0
  4  5  1  0
  5  6  1  0
  6  7  1  0
  7  8  1  0
  8  9  2  0
  8 10  1  0
 10 11  1  0
 11 12  1  0
 12 13  2  0
 13 14  1  0
 14 15  1  0
 15 16  1  0
 16 17  1  0
 14 18  2  0
 12 19  1  0
 18 19  1  0
  7 20  1  0
  4 21  1  0
 20 21  1  0
M  END
