piperidine-amides-29696-covalent
     RDKit          3D

 27 30  0  0  0  0  0  0  0  0999 V2000
    6.9900   -3.3830   19.3950 C   0  0  0  0  0  0  0  0  0  0  0  0
    6.3420   -4.2450   20.3890 C   0  0  0  0  0  0  0  0  0  0  0  0
    5.4150   -4.9660   20.0140 O   0  0  0  0  0  0  0  0  0  0  0  0
    6.7920   -4.2870   21.7680 N   0  0  0  0  0  0  0  0  0  0  0  0
    7.6830   -3.2460   22.2450 C   0  0  0  0  0  0  0  0  0  0  0  0
    7.5550   -3.0950   23.7250 C   0  0  0  0  0  0  0  0  0  0  0  0
    6.2140   -3.6980   24.0740 C   0  0  0  0  0  0  0  0  0  0  0  0
    5.6890   -3.1910   25.3950 C   0  0  0  0  0  0  0  0  0  0  0  0
    5.2240   -2.0450   25.4640 O   0  0  0  0  0  0  0  0  0  0  0  0
    5.6260   -3.9430   26.6070 N   0  0  0  0  0  0  0  0  0  0  0  0
    4.2800   -4.0660   27.1170 C   0  0  0  0  0  0  0  0  0  0  0  0
    4.3030   -4.6890   28.4990 C   0  0  0  0  0  0  0  0  0  0  0  0
    5.3050   -5.4580   28.8990 N   0  0  0  0  0  0  0  0  0  0  0  0
    5.0500   -6.0190   30.0980 C   0  0  0  0  0  0  0  0  0  0  0  0
    5.6510   -7.1470   30.6750 C   0  0  0  0  0  0  0  0  0  0  0  0
    5.2010   -7.5200   31.9320 C   0  0  0  0  0  0  0  0  0  0  0  0
    4.1520   -6.7500   32.5780 C   0  0  0  0  0  0  0  0  0  0  0  0
    3.6510   -7.0420   33.8040 N   0  0  0  0  0  0  0  0  0  0  0  0
    2.7220   -6.0880   33.9970 N   0  0  0  0  0  0  0  0  0  0  0  0
    2.7620   -5.2750   32.7990 C   0  0  0  0  0  0  0  0  0  0  0  0
    1.8810   -4.2150   32.7660 C   0  0  0  0  0  0  0  0  0  0  0  0
    3.6740   -5.7200   31.9230 N   0  0  0  0  0  0  0  0  0  0  0  0
    4.0760   -5.3390   30.7320 N   0  0  0  0  0  0  0  0  0  0  0  0
    6.4660   -4.9510   28.4950 C   0  0  0  0  0  0  0  0  0  0  0  0
    6.3480   -3.6530   27.8110 C   0  0  0  0  0  0  0  0  0  0  0  0
    6.1810   -5.2000   23.8430 C   0  0  0  0  0  0  0  0  0  0  0  0
    6.6630   -5.5070   22.5500 C   0  0  0  0  0  0  0  0  0  0  0  0
  1  2  1  0
  2  3  2  0
  2  4  1  0
  4  5  1  0
  5  6  1  0
  6  7  1  0
  7  8  1  0
  8  9  2  0
  8 10  1  0
 10 11  1  0
 11 12  1  0
 12 13  1  0
 13 14  1  0
 14 15  1  0
 15 16  2  0
 16 17  1  0
 17 18  2  0
 18 19  1  0
 19 20  2  0
 20 21  1  0
 17 22  1  0
 20 22  1  0
 14 23  2  0
 22 23  1  0
 13 24  1  0
 10 25  1  0
 24 25  1  0
  7 26  1  0
  4 27  1  0
 26 27  1  0
M  END
