piperidine-amides-27243-covalent
     RDKit          3D

 25 26  0  0  0  0  0  0  0  0999 V2000
    7.0560   -3.3040   19.2520 C   0  0  0  0  0  0  0  0  0  0  0  0
    6.3350   -4.1080   20.2480 C   0  0  0  0  0  0  0  0  0  0  0  0
    5.2470   -4.6130   19.8880 O   0  0  0  0  0  0  0  0  0  0  0  0
    6.8750   -4.3360   21.5050 N   0  0  0  0  0  0  0  0  0  0  0  0
    6.5590   -5.5520   22.2140 C   0  0  0  0  0  0  0  0  0  0  0  0
    5.9090   -5.1540   23.5060 C   0  0  0  0  0  0  0  0  0  0  0  0
    6.7190   -4.0890   24.1860 C   0  0  0  0  0  0  0  0  0  0  0  0
    6.0120   -3.5820   25.3710 C   0  0  0  0  0  0  0  0  0  0  0  0
    4.8700   -3.0820   25.2230 O   0  0  0  0  0  0  0  0  0  0  0  0
    6.5580   -3.6550   26.6540 N   0  0  0  0  0  0  0  0  0  0  0  0
    5.6960   -3.2370   27.7360 C   0  0  0  0  0  0  0  0  0  0  0  0
    5.8140   -4.2030   28.8880 C   0  0  0  0  0  0  0  0  0  0  0  0
    6.6200   -5.2910   28.7850 C   0  0  0  0  0  0  0  0  0  0  0  0
    7.7710   -5.1950   28.0520 C   0  0  0  0  0  0  0  0  0  0  0  0
    7.6340   -4.6310   26.7930 C   0  0  2  0  0  0  0  0  0  0  0  0
    8.8060   -4.2340   26.1670 C   0  0  0  0  0  0  0  0  0  0  0  0
    8.8800   -2.9660   25.5520 O   0  0  0  0  0  0  0  0  0  0  0  0
   10.0650   -2.5380   24.8750 C   0  0  0  0  0  0  0  0  0  0  0  0
    9.9480   -1.4990   24.0200 O   0  0  0  0  0  0  0  0  0  0  0  0
   11.2950   -3.0550   24.9900 N   0  0  0  0  0  0  0  0  0  0  0  0
   11.1270   -4.1140   25.7770 C   0  0  0  0  0  0  0  0  0  0  0  0
   12.6500   -2.9010   24.5960 C   0  0  0  0  0  0  0  0  0  0  0  0
   12.9700   -1.4380   24.5320 C   0  0  0  0  0  0  0  0  0  0  0  0
    6.9540   -2.9150   23.2830 C   0  0  0  0  0  0  0  0  0  0  0  0
    7.6810   -3.3270   22.1960 C   0  0  0  0  0  0  0  0  0  0  0  0
  1  2  1  0
  2  3  2  0
  2  4  1  0
  4  5  1  0
  5  6  1  0
  6  7  1  0
  7  8  1  0
  8  9  2  0
  8 10  1  0
 10 11  1  0
 11 12  1  0
 12 13  1  0
 13 14  1  0
 10 15  1  0
 14 15  1  0
 15 16  1  1
 16 17  1  0
 17 18  1  0
 18 19  2  0
 18 20  1  0
 20 21  1  0
 20 22  1  0
 22 23  1  0
  7 24  1  0
  4 25  1  0
 24 25  1  0
M  END
