piperidine-amides-27510-covalent
     RDKit          3D

 26 28  0  0  0  0  0  0  0  0999 V2000
    7.0660   -3.2890   19.2410 C   0  0  0  0  0  0  0  0  0  0  0  0
    6.3380   -4.0760   20.2420 C   0  0  0  0  0  0  0  0  0  0  0  0
    5.2420   -4.5690   19.8760 O   0  0  0  0  0  0  0  0  0  0  0  0
    6.8670   -4.3040   21.5080 N   0  0  0  0  0  0  0  0  0  0  0  0
    7.5790   -3.2690   22.2180 C   0  0  0  0  0  0  0  0  0  0  0  0
    6.7440   -2.8730   23.3970 C   0  0  0  0  0  0  0  0  0  0  0  0
    6.4340   -4.0650   24.2780 C   0  0  0  0  0  0  0  0  0  0  0  0
    5.5530   -3.6540   25.3990 C   0  0  0  0  0  0  0  0  0  0  0  0
    4.3720   -3.3390   25.1260 O   0  0  0  0  0  0  0  0  0  0  0  0
    5.9550   -3.5840   26.7510 N   0  0  0  0  0  0  0  0  0  0  0  0
    5.7350   -2.3220   27.3940 C   0  0  0  0  0  0  0  0  0  0  0  0
    7.1340   -4.3280   27.1220 C   0  0  1  0  0  0  0  0  0  0  0  0
    7.0140   -5.6730   26.9160 C   0  0  0  0  0  0  0  0  0  0  0  0
    8.1760   -3.7190   26.2670 C   0  0  0  0  0  0  0  0  0  0  0  0
    9.2980   -4.5120   26.3770 C   0  0  0  0  0  0  0  0  0  0  0  0
   10.4350   -4.1610   25.6840 C   0  0  0  0  0  0  0  0  0  0  0  0
   10.4690   -3.0310   24.8790 C   0  0  0  0  0  0  0  0  0  0  0  0
   11.5810   -2.7450   24.2410 N   0  0  0  0  0  0  0  0  0  0  0  0
   12.7310   -2.9220   24.8360 C   0  0  0  0  0  0  0  0  0  0  0  0
   13.7770   -2.5660   23.9940 N   0  0  0  0  0  0  0  0  0  0  0  0
   13.1390   -2.1660   22.8750 C   0  0  0  0  0  0  0  0  0  0  0  0
   11.7770   -2.2670   23.0020 N   0  0  0  0  0  0  0  0  0  0  0  0
    9.3480   -2.2650   24.7840 C   0  0  0  0  0  0  0  0  0  0  0  0
    8.0790   -2.5820   25.5090 C   0  0  0  0  0  0  0  0  0  0  0  0
    5.7920   -5.1590   23.5050 C   0  0  0  0  0  0  0  0  0  0  0  0
    6.4980   -5.5010   22.2090 C   0  0  0  0  0  0  0  0  0  0  0  0
  1  2  1  0
  2  3  2  0
  2  4  1  0
  4  5  1  0
  5  6  1  0
  6  7  1  0
  7  8  1  0
  8  9  2  0
  8 10  1  0
 10 11  1  0
 10 12  1  0
 12 13  1  6
 12 14  1  0
 14 15  2  0
 15 16  1  0
 16 17  2  0
 17 18  1  0
 18 19  1  0
 19 20  2  0
 20 21  1  0
 18 22  1  0
 21 22  2  0
 17 23  1  0
 14 24  1  0
 23 24  2  0
  7 25  1  0
  4 26  1  0
 25 26  1  0
M  END
