piperidine-amides-25839-covalent
     RDKit          3D

 25 27  0  0  0  0  0  0  0  0999 V2000
    7.0990   -3.3330   19.2940 C   0  0  0  0  0  0  0  0  0  0  0  0
    6.4080   -4.1550   20.3220 C   0  0  0  0  0  0  0  0  0  0  0  0
    5.3810   -4.7370   19.9600 O   0  0  0  0  0  0  0  0  0  0  0  0
    6.9330   -4.2950   21.6180 N   0  0  0  0  0  0  0  0  0  0  0  0
    6.6270   -5.4550   22.4070 C   0  0  0  0  0  0  0  0  0  0  0  0
    5.8940   -5.0300   23.6500 C   0  0  0  0  0  0  0  0  0  0  0  0
    6.5800   -3.8170   24.2970 C   0  0  0  0  0  0  0  0  0  0  0  0
    5.7170   -3.3760   25.4020 C   0  0  0  0  0  0  0  0  0  0  0  0
    4.5130   -3.1770   25.1830 O   0  0  0  0  0  0  0  0  0  0  0  0
    6.2320   -3.1560   26.6900 N   0  0  0  0  0  0  0  0  0  0  0  0
    6.6720   -4.3200   27.4460 C   0  0  0  0  0  0  0  0  0  0  0  0
    5.5160   -5.2700   27.7040 C   0  0  0  0  0  0  0  0  0  0  0  0
    5.6180   -6.5080   28.3240 C   0  0  0  0  0  0  0  0  0  0  0  0
    4.4300   -7.0670   28.3860 C   0  0  0  0  0  0  0  0  0  0  0  0
    3.5160   -6.1890   27.7990 N   0  0  0  0  0  0  0  0  0  0  0  0
    4.1590   -5.1030   27.3850 N   0  0  0  0  0  0  0  0  0  0  0  0
    6.3530   -1.9010   27.3550 C   0  0  0  0  0  0  0  0  0  0  0  0
    6.9580   -1.9220   28.6870 N   0  0  0  0  0  0  0  0  0  0  0  0
    6.9510   -0.6260   29.1090 C   0  0  0  0  0  0  0  0  0  0  0  0
    6.5770    0.7100   28.7350 C   0  0  0  0  0  0  0  0  0  0  0  0
    5.9670    0.6830   27.3640 C   0  0  0  0  0  0  0  0  0  0  0  0
    5.8190   -0.6410   26.5880 C   0  0  0  0  0  0  0  0  0  0  0  0
    5.2760   -0.7600   25.3400 F   0  0  0  0  0  0  0  0  0  0  0  0
    6.8160   -2.6910   23.3290 C   0  0  0  0  0  0  0  0  0  0  0  0
    7.6970   -3.2160   22.2250 C   0  0  0  0  0  0  0  0  0  0  0  0
  1  2  1  0
  2  3  2  0
  2  4  1  0
  4  5  1  0
  5  6  1  0
  6  7  1  0
  7  8  1  0
  8  9  2  0
  8 10  1  0
 10 11  1  0
 11 12  1  0
 12 13  1  0
 13 14  2  0
 14 15  1  0
 12 16  2  0
 15 16  1  0
 10 17  1  0
 17 18  2  0
 18 19  1  0
 19 20  2  0
 20 21  1  0
 17 22  1  0
 21 22  2  0
 22 23  1  0
  7 24  1  0
  4 25  1  0
 24 25  1  0
M  END
