piperidine-amides-25170-covalent
     RDKit          3D

 24 25  0  0  0  0  0  0  0  0999 V2000
    7.1060   -3.2960   19.1940 C   0  0  0  0  0  0  0  0  0  0  0  0
    6.3550   -4.0470   20.2290 C   0  0  0  0  0  0  0  0  0  0  0  0
    5.2970   -4.5680   19.8920 O   0  0  0  0  0  0  0  0  0  0  0  0
    6.8990   -4.1720   21.5060 N   0  0  0  0  0  0  0  0  0  0  0  0
    7.6260   -3.0930   22.1150 C   0  0  0  0  0  0  0  0  0  0  0  0
    6.8170   -2.5870   23.2630 C   0  0  0  0  0  0  0  0  0  0  0  0
    6.5250   -3.7660   24.1870 C   0  0  0  0  0  0  0  0  0  0  0  0
    5.8230   -3.2360   25.3770 C   0  0  0  0  0  0  0  0  0  0  0  0
    4.5940   -3.0820   25.3370 O   0  0  0  0  0  0  0  0  0  0  0  0
    6.5250   -2.8810   26.5490 N   0  0  0  0  0  0  0  0  0  0  0  0
    6.9280   -1.5000   26.6170 C   0  0  0  0  0  0  0  0  0  0  0  0
    6.3480   -3.6230   27.7670 C   0  0  0  0  0  0  0  0  0  0  0  0
    5.8480   -4.8770   27.5630 C   0  0  2  0  0  0  0  0  0  0  0  0
    6.2150   -5.5340   26.5500 O   0  0  0  0  0  0  0  0  0  0  0  0
    4.4890   -4.8830   27.5670 C   0  0  0  0  0  0  0  0  0  0  0  0
    3.8110   -5.5640   28.6430 N   0  0  0  0  0  0  0  0  0  0  0  0
    3.6320   -4.9290   29.9280 C   0  0  0  0  0  0  0  0  0  0  0  0
    3.6730   -5.9000   31.0860 C   0  0  0  0  0  0  0  0  0  0  0  0
    4.2730   -7.1480   30.8350 N   0  0  0  0  0  0  0  0  0  0  0  0
    5.6940   -7.2660   30.9930 C   0  0  0  0  0  0  0  0  0  0  0  0
    3.7040   -7.8290   29.7340 C   0  0  0  0  0  0  0  0  0  0  0  0
    3.2230   -6.8980   28.6780 C   0  0  0  0  0  0  0  0  0  0  0  0
    5.8040   -4.9010   23.5090 C   0  0  0  0  0  0  0  0  0  0  0  0
    6.6080   -5.3410   22.2990 C   0  0  0  0  0  0  0  0  0  0  0  0
  1  2  1  0
  2  3  2  0
  2  4  1  0
  4  5  1  0
  5  6  1  0
  6  7  1  0
  7  8  1  0
  8  9  2  0
  8 10  1  0
 10 11  1  0
 10 12  1  0
 12 13  1  0
 13 14  1  6
 13 15  1  0
 15 16  1  0
 16 17  1  0
 17 18  1  0
 18 19  1  0
 19 20  1  0
 19 21  1  0
 16 22  1  0
 21 22  1  0
  7 23  1  0
  4 24  1  0
 23 24  1  0
M  END
