piperidine-amides-29595-covalent
     RDKit          3D

 27 29  0  0  0  0  0  0  0  0999 V2000
    7.1290   -3.2750   19.1160 C   0  0  0  0  0  0  0  0  0  0  0  0
    6.3520   -3.9920   20.1240 C   0  0  0  0  0  0  0  0  0  0  0  0
    5.2580   -4.4780   19.8490 O   0  0  0  0  0  0  0  0  0  0  0  0
    6.8990   -4.1890   21.4260 N   0  0  0  0  0  0  0  0  0  0  0  0
    6.4790   -5.3210   22.2100 C   0  0  0  0  0  0  0  0  0  0  0  0
    5.6480   -4.8550   23.3710 C   0  0  0  0  0  0  0  0  0  0  0  0
    6.4430   -3.7810   24.0940 C   0  0  0  0  0  0  0  0  0  0  0  0
    5.6470   -3.2150   25.2050 C   0  0  0  0  0  0  0  0  0  0  0  0
    4.3990   -3.1780   25.2050 O   0  0  0  0  0  0  0  0  0  0  0  0
    6.3600   -2.7020   26.3030 N   0  0  0  0  0  0  0  0  0  0  0  0
    7.1310   -1.5120   26.1420 C   0  0  0  0  0  0  0  0  0  0  0  0
    6.3010   -3.3620   27.5590 C   0  0  2  0  0  0  0  0  0  0  0  0
    6.3000   -2.4740   28.6180 C   0  0  0  0  0  0  0  0  0  0  0  0
    7.5000   -1.7910   28.9870 C   0  0  0  0  0  0  0  0  0  0  0  0
    7.5000   -0.8860   30.0370 C   0  0  0  0  0  0  0  0  0  0  0  0
    6.2810   -0.6430   30.7470 C   0  0  0  0  0  0  0  0  0  0  0  0
    6.3640    0.2650   31.7650 F   0  0  0  0  0  0  0  0  0  0  0  0
    5.1510   -1.2900   30.4020 C   0  0  0  0  0  0  0  0  0  0  0  0
    5.1510   -2.1880   29.3630 C   0  0  0  0  0  0  0  0  0  0  0  0
    7.3200   -4.2540   27.3810 C   0  0  0  0  0  0  0  0  0  0  0  0
    7.3150   -4.6510   26.1000 N   0  0  0  0  0  0  0  0  0  0  0  0
    8.2870   -5.5140   25.8620 C   0  0  0  0  0  0  0  0  0  0  0  0
    9.1770   -5.9670   26.7320 C   0  0  0  0  0  0  0  0  0  0  0  0
    9.0880   -5.4970   28.0110 C   0  0  0  0  0  0  0  0  0  0  0  0
    8.1370   -4.6100   28.3870 N   0  0  0  0  0  0  0  0  0  0  0  0
    6.7990   -2.6420   23.1770 C   0  0  0  0  0  0  0  0  0  0  0  0
    7.6780   -3.1550   22.0530 C   0  0  0  0  0  0  0  0  0  0  0  0
  1  2  1  0
  2  3  2  0
  2  4  1  0
  4  5  1  0
  5  6  1  0
  6  7  1  0
  7  8  1  0
  8  9  2  0
  8 10  1  0
 10 11  1  0
 12 10  1  6
 12 13  1  0
 13 14  2  0
 14 15  1  0
 15 16  2  0
 16 17  1  0
 16 18  1  0
 13 19  1  0
 18 19  2  0
 12 20  1  0
 20 21  2  0
 21 22  1  0
 22 23  2  0
 23 24  1  0
 20 25  1  0
 24 25  2  0
  7 26  1  0
  4 27  1  0
 26 27  1  0
M  END
