piperidine-amides-1986-covalent
     RDKit          3D

 24 25  0  0  0  0  0  0  0  0999 V2000
    7.2030   -3.9990   19.6510 C   0  0  0  0  0  0  0  0  0  0  0  0
    6.0160   -3.9650   20.4040 C   0  0  0  0  0  0  0  0  0  0  0  0
    5.0110   -4.1150   19.7150 O   0  0  0  0  0  0  0  0  0  0  0  0
    6.1550   -3.8860   21.7760 N   0  0  0  0  0  0  0  0  0  0  0  0
    5.9650   -5.1130   22.5300 C   0  0  0  0  0  0  0  0  0  0  0  0
    5.8400   -4.8100   23.9940 C   0  0  0  0  0  0  0  0  0  0  0  0
    5.9190   -3.2990   24.1730 C   0  0  0  0  0  0  0  0  0  0  0  0
    5.5870   -2.9540   25.5610 C   0  0  0  0  0  0  0  0  0  0  0  0
    4.6340   -2.1960   25.7600 O   0  0  0  0  0  0  0  0  0  0  0  0
    6.3070   -3.4500   26.6560 N   0  0  0  0  0  0  0  0  0  0  0  0
    5.9400   -4.7350   27.2060 C   0  0  0  0  0  0  0  0  0  0  0  0
    4.5550   -5.1860   27.6440 C   0  0  0  0  0  0  0  0  0  0  0  0
    4.2760   -6.0440   28.7090 C   0  0  0  0  0  0  0  0  0  0  0  0
    5.4630   -6.7880   29.7610 Cl  0  0  0  0  0  0  0  0  0  0  0  0
    2.9580   -6.2060   28.7980 C   0  0  0  0  0  0  0  0  0  0  0  0
    2.3620   -6.9870   29.7520 C   0  0  0  0  0  0  0  0  0  0  0  0
    1.8400   -6.1130   30.6980 F   0  0  0  0  0  0  0  0  0  0  0  0
    1.3200   -7.7100   29.1920 F   0  0  0  0  0  0  0  0  0  0  0  0
    3.2590   -7.8510   30.3120 F   0  0  0  0  0  0  0  0  0  0  0  0
    2.3890   -5.4460   27.7730 N   0  0  0  0  0  0  0  0  0  0  0  0
    3.3190   -4.8350   27.0790 N   0  0  0  0  0  0  0  0  0  0  0  0
    2.9470   -3.9760   25.9440 C   0  0  0  0  0  0  0  0  0  0  0  0
    7.2090   -2.7730   23.6600 C   0  0  0  0  0  0  0  0  0  0  0  0
    7.3100   -3.1020   22.2090 C   0  0  0  0  0  0  0  0  0  0  0  0
  1  2  1  0
  2  3  2  0
  2  4  1  0
  4  5  1  0
  5  6  1  0
  6  7  1  0
  7  8  1  0
  8  9  2  0
  8 10  1  0
 10 11  1  0
 11 12  1  0
 12 13  2  0
 13 14  1  0
 13 15  1  0
 15 16  1  0
 16 17  1  0
 16 18  1  0
 16 19  1  0
 15 20  2  0
 12 21  1  0
 20 21  1  0
 21 22  1  0
  7 23  1  0
  4 24  1  0
 23 24  1  0
M  END
