piperidine-amides-10666-covalent
     RDKit          3D

 23 24  0  0  0  0  0  0  0  0999 V2000
    7.0740   -3.3370   19.2950 C   0  0  0  0  0  0  0  0  0  0  0  0
    6.4020   -4.1570   20.3050 C   0  0  0  0  0  0  0  0  0  0  0  0
    5.3440   -4.7390   19.9500 O   0  0  0  0  0  0  0  0  0  0  0  0
    6.9640   -4.3110   21.5750 N   0  0  0  0  0  0  0  0  0  0  0  0
    7.7620   -3.2780   22.1950 C   0  0  0  0  0  0  0  0  0  0  0  0
    7.0040   -2.7470   23.3690 C   0  0  0  0  0  0  0  0  0  0  0  0
    6.4920   -3.8630   24.2350 C   0  0  0  0  0  0  0  0  0  0  0  0
    5.7640   -3.2940   25.3870 C   0  0  0  0  0  0  0  0  0  0  0  0
    4.5640   -2.9820   25.2310 O   0  0  0  0  0  0  0  0  0  0  0  0
    6.3570   -3.1060   26.6430 N   0  0  0  0  0  0  0  0  0  0  0  0
    6.4160   -1.8180   27.2880 C   0  0  0  0  0  0  0  0  0  0  0  0
    5.8170   -0.5440   26.6760 C   0  0  0  0  0  0  0  0  0  0  0  0
    5.8640    0.6840   27.2940 C   0  0  0  0  0  0  0  0  0  0  0  0
    6.4740    0.7960   28.5180 C   0  0  0  0  0  0  0  0  0  0  0  0
    6.5060    1.9790   29.0850 O   0  0  0  0  0  0  0  0  0  0  0  0
    5.3190    2.5030   29.2000 C   0  0  0  0  0  0  0  0  0  0  0  0
    4.2960    1.8910   29.9070 C   0  0  0  0  0  0  0  0  0  0  0  0
    4.0180    2.3400   31.0490 O   0  0  0  0  0  0  0  0  0  0  0  0
    7.0970   -0.4030   29.1990 C   0  0  0  0  0  0  0  0  0  0  0  0
    7.7770   -0.3010   30.5400 C   0  0  0  0  0  0  0  0  0  0  0  0
    7.0490   -1.6100   28.5930 C   0  0  0  0  0  0  0  0  0  0  0  0
    5.6240   -4.8540   23.4480 C   0  0  0  0  0  0  0  0  0  0  0  0
    6.5630   -5.4350   22.4060 C   0  0  0  0  0  0  0  0  0  0  0  0
  1  2  1  0
  2  3  2  0
  2  4  1  0
  4  5  1  0
  5  6  1  0
  6  7  1  0
  7  8  1  0
  8  9  2  0
  8 10  1  0
 10 11  1  0
 11 12  2  0
 12 13  1  0
 13 14  2  0
 14 15  1  0
 15 16  1  0
 16 17  1  0
 17 18  1  0
 14 19  1  0
 19 20  1  0
 11 21  1  0
 19 21  2  0
  7 22  1  0
  4 23  1  0
 22 23  1  0
M  END
