piperidine-amides-8440-covalent
     RDKit          3D

 24 25  0  0  0  0  0  0  0  0999 V2000
    7.1590   -3.3080   19.2590 C   0  0  0  0  0  0  0  0  0  0  0  0
    6.4020   -4.0680   20.2430 C   0  0  0  0  0  0  0  0  0  0  0  0
    5.3040   -4.5410   19.8940 O   0  0  0  0  0  0  0  0  0  0  0  0
    6.9540   -4.3130   21.5220 N   0  0  0  0  0  0  0  0  0  0  0  0
    7.6660   -3.2530   22.1780 C   0  0  0  0  0  0  0  0  0  0  0  0
    6.7560   -2.6050   23.1750 C   0  0  0  0  0  0  0  0  0  0  0  0
    6.2640   -3.6830   24.1240 C   0  0  0  0  0  0  0  0  0  0  0  0
    5.3920   -3.0790   25.1730 C   0  0  0  0  0  0  0  0  0  0  0  0
    4.5250   -2.3150   24.7740 O   0  0  0  0  0  0  0  0  0  0  0  0
    5.6000   -3.4070   26.5000 N   0  0  0  0  0  0  0  0  0  0  0  0
    5.2430   -4.6750   27.0240 C   0  0  0  0  0  0  0  0  0  0  0  0
    6.2730   -5.2680   27.7210 C   0  0  1  0  0  0  0  0  0  0  0  0
    5.9920   -6.2630   28.6170 C   0  0  0  0  0  0  0  0  0  0  0  0
    4.7410   -6.8240   28.7570 C   0  0  0  0  0  0  0  0  0  0  0  0
    4.5040   -7.1670   30.1730 C   0  0  0  0  0  0  0  0  0  0  0  0
    3.1820   -7.8130   30.6380 C   0  0  0  0  0  0  0  0  0  0  0  0
    2.1200   -8.0950   29.6150 C   0  0  0  0  0  0  0  0  0  0  0  0
    2.4410   -7.7130   28.1780 C   0  0  0  0  0  0  0  0  0  0  0  0
    3.7950   -7.0660   27.7880 C   0  0  0  0  0  0  0  0  0  0  0  0
    7.3770   -5.4980   26.9100 C   0  0  0  0  0  0  0  0  0  0  0  0
    8.3810   -6.2240   27.5020 C   0  0  0  0  0  0  0  0  0  0  0  0
    7.2540   -5.5220   25.4140 C   0  0  0  0  0  0  0  0  0  0  0  0
    5.4910   -4.7650   23.3390 C   0  0  0  0  0  0  0  0  0  0  0  0
    6.4500   -5.3620   22.3370 C   0  0  0  0  0  0  0  0  0  0  0  0
  1  2  1  0
  2  3  2  0
  2  4  1  0
  4  5  1  0
  5  6  1  0
  6  7  1  0
  7  8  1  0
  8  9  2  0
  8 10  1  0
 10 11  1  0
 12 11  1  6
 12 13  1  0
 13 14  1  0
 14 15  2  0
 15 16  1  0
 16 17  2  0
 17 18  1  0
 14 19  1  0
 18 19  2  0
 12 20  1  0
 20 21  1  0
 20 22  1  0
  7 23  1  0
  4 24  1  0
 23 24  1  0
M  END
