piperidine-amides-13197-covalent
     RDKit          3D

 19 20  0  0  0  0  0  0  0  0999 V2000
    7.1300   -3.2920   19.2710 C   0  0  0  0  0  0  0  0  0  0  0  0
    6.4010   -4.0710   20.2980 C   0  0  0  0  0  0  0  0  0  0  0  0
    5.3440   -4.6220   19.9200 O   0  0  0  0  0  0  0  0  0  0  0  0
    6.9110   -4.2110   21.6050 N   0  0  0  0  0  0  0  0  0  0  0  0
    7.6680   -3.1400   22.1850 C   0  0  0  0  0  0  0  0  0  0  0  0
    7.2650   -2.8670   23.5560 C   0  0  0  0  0  0  0  0  0  0  0  0
    6.0230   -3.5830   23.8990 C   0  0  0  0  0  0  0  0  0  0  0  0
    5.5720   -3.2700   25.2780 C   0  0  0  0  0  0  0  0  0  0  0  0
    4.3510   -3.0930   25.4410 O   0  0  0  0  0  0  0  0  0  0  0  0
    6.4430   -3.1670   26.3730 N   0  0  0  0  0  0  0  0  0  0  0  0
    6.2060   -3.8930   27.6470 C   0  0  0  0  0  0  0  0  0  0  0  0
    5.2660   -3.1620   28.5430 C   0  0  1  0  0  0  0  0  0  0  0  0
    5.7360   -1.9390   29.1450 C   0  0  0  0  0  0  0  0  0  0  0  0
    4.6910   -1.0970   29.3240 C   0  0  0  0  0  0  0  0  0  0  0  0
    4.7320    0.4510   30.1340 Cl  0  0  0  0  0  0  0  0  0  0  0  0
    3.6260   -1.7870   28.7070 N   0  0  0  0  0  0  0  0  0  0  0  0
    4.0520   -2.9390   28.2170 O   0  0  0  0  0  0  0  0  0  0  0  0
    6.0940   -5.0560   23.6300 C   0  0  0  0  0  0  0  0  0  0  0  0
    6.5230   -5.3670   22.3650 C   0  0  0  0  0  0  0  0  0  0  0  0
  1  2  1  0
  2  3  2  0
  2  4  1  0
  4  5  1  0
  5  6  1  0
  6  7  1  0
  7  8  1  0
  8  9  2  0
  8 10  1  0
 10 11  1  0
 12 11  1  6
 12 13  1  0
 13 14  1  0
 14 15  1  0
 14 16  2  0
 12 17  1  0
 16 17  1  0
  7 18  1  0
  4 19  1  0
 18 19  1  0
M  END
