piperidine-amides-2133-covalent
     RDKit          3D

 31 33  0  0  0  0  0  0  0  0999 V2000
    7.0220   -3.2510   19.2490 C   0  0  0  0  0  0  0  0  0  0  0  0
    6.2700   -4.0360   20.2660 C   0  0  0  0  0  0  0  0  0  0  0  0
    5.2650   -4.6260   19.8950 O   0  0  0  0  0  0  0  0  0  0  0  0
    6.7250   -4.1060   21.5830 N   0  0  0  0  0  0  0  0  0  0  0  0
    7.2580   -2.9690   22.2630 C   0  0  0  0  0  0  0  0  0  0  0  0
    6.7290   -2.9170   23.6770 C   0  0  0  0  0  0  0  0  0  0  0  0
    5.2730   -3.3800   23.7890 C   0  0  0  0  0  0  0  0  0  0  0  0
    4.7970   -3.3080   25.2120 C   0  0  0  0  0  0  0  0  0  0  0  0
    4.3170   -4.3350   25.6930 O   0  0  0  0  0  0  0  0  0  0  0  0
    4.8280   -2.1610   26.0590 N   0  0  0  0  0  0  0  0  0  0  0  0
    5.7620   -2.2820   27.1430 C   0  0  2  0  0  0  0  0  0  0  0  0
    5.9890   -1.0060   27.9150 C   0  0  0  0  0  0  0  0  0  0  0  0
    6.6330   -1.1890   29.1140 C   0  0  0  0  0  0  0  0  0  0  0  0
    6.9200   -0.2200   29.9360 C   0  0  0  0  0  0  0  0  0  0  0  0
    6.5530    0.9830   29.5580 C   0  0  0  0  0  0  0  0  0  0  0  0
    6.9060    2.3360   30.6210 Cl  0  0  0  0  0  0  0  0  0  0  0  0
    5.8460    1.4040   28.2970 C   0  0  0  0  0  0  0  0  0  0  0  0
    5.4890    0.2840   27.2970 C   0  0  0  0  0  0  0  0  0  0  0  0
    6.9500   -2.5090   26.3080 C   0  0  0  0  0  0  0  0  0  0  0  0
    7.3910   -1.4610   25.3480 C   0  0  0  0  0  0  0  0  0  0  0  0
    8.5590   -1.7410   24.4850 C   0  0  0  0  0  0  0  0  0  0  0  0
    9.2500   -3.0600   24.5970 C   0  0  0  0  0  0  0  0  0  0  0  0
   10.3050   -3.3580   23.8070 F   0  0  0  0  0  0  0  0  0  0  0  0
    8.7000   -3.9960   25.6080 C   0  0  0  0  0  0  0  0  0  0  0  0
    9.1840   -5.3400   25.9000 C   0  0  0  0  0  0  0  0  0  0  0  0
    8.4920   -6.1310   25.0890 F   0  0  0  0  0  0  0  0  0  0  0  0
   10.5180   -5.4710   25.6890 F   0  0  0  0  0  0  0  0  0  0  0  0
    8.9140   -5.6480   27.2220 F   0  0  0  0  0  0  0  0  0  0  0  0
    7.5630   -3.6910   26.4400 C   0  0  0  0  0  0  0  0  0  0  0  0
    5.1270   -4.7680   23.2130 C   0  0  0  0  0  0  0  0  0  0  0  0
    6.3650   -5.2390   22.4290 C   0  0  0  0  0  0  0  0  0  0  0  0
  1  2  1  0
  2  3  2  0
  2  4  1  0
  4  5  1  0
  5  6  1  0
  6  7  1  0
  7  8  1  0
  8  9  2  0
  8 10  1  0
 11 10  1  6
 11 12  1  0
 12 13  2  0
 13 14  1  0
 14 15  2  0
 15 16  1  0
 15 17  1  0
 12 18  1  0
 17 18  2  0
 11 19  1  0
 19 20  2  0
 20 21  1  0
 21 22  2  0
 22 23  1  0
 22 24  1  0
 24 25  1  0
 25 26  1  0
 25 27  1  0
 25 28  1  0
 19 29  1  0
 24 29  2  0
  7 30  1  0
  4 31  1  0
 30 31  1  0
M  END
