piperidine-amides-5229-covalent
     RDKit          3D

 21 22  0  0  0  0  0  0  0  0999 V2000
    7.0980   -3.2860   19.2460 C   0  0  0  0  0  0  0  0  0  0  0  0
    6.3730   -4.0690   20.2740 C   0  0  0  0  0  0  0  0  0  0  0  0
    5.3120   -4.6140   19.9090 O   0  0  0  0  0  0  0  0  0  0  0  0
    6.8960   -4.2190   21.5710 N   0  0  0  0  0  0  0  0  0  0  0  0
    7.7080   -3.2000   22.1450 C   0  0  0  0  0  0  0  0  0  0  0  0
    7.3610   -2.9340   23.5280 C   0  0  0  0  0  0  0  0  0  0  0  0
    6.0950   -3.5850   23.9170 C   0  0  0  0  0  0  0  0  0  0  0  0
    5.7650   -3.2360   25.3180 C   0  0  0  0  0  0  0  0  0  0  0  0
    4.6540   -3.5870   25.7610 O   0  0  0  0  0  0  0  0  0  0  0  0
    6.6660   -2.5200   26.1190 N   0  0  0  0  0  0  0  0  0  0  0  0
    6.2310   -1.4960   27.0930 C   0  0  0  0  0  0  0  0  0  0  0  0
    6.1210   -0.1260   26.5000 C   0  0  0  0  0  0  0  0  0  0  0  0
    6.1790    1.1180   27.2300 C   0  0  0  0  0  0  0  0  0  0  0  0
    5.6530    2.2790   26.7430 C   0  0  0  0  0  0  0  0  0  0  0  0
    5.6170    3.5480   27.2780 C   0  0  0  0  0  0  0  0  0  0  0  0
    5.0630    2.0650   25.4760 N   0  0  0  0  0  0  0  0  0  0  0  0
    5.8750    1.3500   24.6500 C   0  0  0  0  0  0  0  0  0  0  0  0
    6.5850    1.8830   23.5530 O   0  0  0  0  0  0  0  0  0  0  0  0
    5.9360    0.0180   25.0000 C   0  0  0  0  0  0  0  0  0  0  0  0
    5.9980   -5.0360   23.5960 C   0  0  0  0  0  0  0  0  0  0  0  0
    6.5930   -5.3870   22.3690 C   0  0  0  0  0  0  0  0  0  0  0  0
  1  2  1  0
  2  3  2  0
  2  4  1  0
  4  5  1  0
  5  6  1  0
  6  7  1  0
  7  8  1  0
  8  9  2  0
  8 10  1  0
 10 11  1  0
 11 12  1  0
 12 13  1  0
 13 14  2  0
 14 15  1  0
 14 16  1  0
 16 17  1  0
 17 18  2  0
 12 19  2  0
 17 19  1  0
  7 20  1  0
  4 21  1  0
 20 21  1  0
M  END
