piperidine-amides-11783-covalent
     RDKit          3D

 28 30  0  0  0  0  0  0  0  0999 V2000
    7.0890   -3.2880   19.2140 C   0  0  0  0  0  0  0  0  0  0  0  0
    6.3460   -4.0360   20.2260 C   0  0  0  0  0  0  0  0  0  0  0  0
    5.3040   -4.6110   19.9130 O   0  0  0  0  0  0  0  0  0  0  0  0
    6.8500   -4.1530   21.5700 N   0  0  0  0  0  0  0  0  0  0  0  0
    6.6380   -5.3770   22.3120 C   0  0  0  0  0  0  0  0  0  0  0  0
    6.0700   -5.0770   23.6730 C   0  0  0  0  0  0  0  0  0  0  0  0
    6.0640   -3.5680   23.8530 C   0  0  0  0  0  0  0  0  0  0  0  0
    5.5470   -3.1820   25.1830 C   0  0  0  0  0  0  0  0  0  0  0  0
    4.4000   -3.4860   25.5610 O   0  0  0  0  0  0  0  0  0  0  0  0
    6.3820   -2.4330   26.0320 N   0  0  0  0  0  0  0  0  0  0  0  0
    6.2830   -2.5710   27.4620 C   0  0  2  0  0  0  0  0  0  0  0  0
    5.9900   -3.9960   27.8260 C   0  0  0  0  0  0  0  0  0  0  0  0
    5.7110   -5.0840   26.9660 C   0  0  0  0  0  0  0  0  0  0  0  0
    5.4600   -6.3930   27.4440 C   0  0  0  0  0  0  0  0  0  0  0  0
    5.4860   -6.6270   28.7890 C   0  0  0  0  0  0  0  0  0  0  0  0
    5.2730   -7.8430   29.5340 C   0  0  0  0  0  0  0  0  0  0  0  0
    5.7340   -5.6460   29.6310 C   0  0  0  0  0  0  0  0  0  0  0  0
    5.9770   -4.3870   29.2230 C   0  0  0  0  0  0  0  0  0  0  0  0
    5.7420   -1.6570   28.3030 C   0  0  0  0  0  0  0  0  0  0  0  0
    6.4660   -1.1350   29.4910 C   0  0  0  0  0  0  0  0  0  0  0  0
    6.0610   -0.2130   30.4440 C   0  0  0  0  0  0  0  0  0  0  0  0
    4.8150    0.3720   30.3770 C   0  0  0  0  0  0  0  0  0  0  0  0
    4.4180    1.2920   31.3340 F   0  0  0  0  0  0  0  0  0  0  0  0
    3.9820   -0.0620   29.2330 C   0  0  0  0  0  0  0  0  0  0  0  0
    4.4510   -1.0820   28.1900 C   0  0  0  0  0  0  0  0  0  0  0  0
    3.4370   -1.5750   26.8430 Cl  0  0  0  0  0  0  0  0  0  0  0  0
    7.4030   -2.9900   23.5450 C   0  0  0  0  0  0  0  0  0  0  0  0
    7.7340   -3.1410   22.1080 C   0  0  0  0  0  0  0  0  0  0  0  0
  1  2  1  0
  2  3  2  0
  2  4  1  0
  4  5  1  0
  5  6  1  0
  6  7  1  0
  7  8  1  0
  8  9  2  0
  8 10  1  0
 11 10  1  6
 11 12  1  0
 12 13  2  0
 13 14  1  0
 14 15  2  0
 15 16  1  0
 15 17  1  0
 12 18  1  0
 17 18  2  0
 11 19  1  0
 19 20  2  0
 20 21  1  0
 21 22  2  0
 22 23  1  0
 22 24  1  0
 19 25  1  0
 24 25  2  0
 25 26  1  0
  7 27  1  0
  4 28  1  0
 27 28  1  0
M  END
