piperidine-amides-5282-covalent
     RDKit          3D

 21 22  0  0  0  0  0  0  0  0999 V2000
    7.0930   -3.2820   19.1940 C   0  0  0  0  0  0  0  0  0  0  0  0
    6.3650   -4.0420   20.2380 C   0  0  0  0  0  0  0  0  0  0  0  0
    5.2850   -4.5550   19.8890 O   0  0  0  0  0  0  0  0  0  0  0  0
    6.8950   -4.2200   21.5260 N   0  0  0  0  0  0  0  0  0  0  0  0
    6.4980   -5.3340   22.3160 C   0  0  0  0  0  0  0  0  0  0  0  0
    6.0480   -4.9790   23.6710 C   0  0  0  0  0  0  0  0  0  0  0  0
    6.6600   -3.7570   24.2590 C   0  0  0  0  0  0  0  0  0  0  0  0
    5.8160   -3.2670   25.3810 C   0  0  0  0  0  0  0  0  0  0  0  0
    4.6150   -3.0280   25.1520 O   0  0  0  0  0  0  0  0  0  0  0  0
    6.3400   -3.0670   26.6710 N   0  0  0  0  0  0  0  0  0  0  0  0
    5.9860   -3.9310   27.8260 C   0  0  0  0  0  0  0  0  0  0  0  0
    5.5790   -5.3190   27.4170 C   0  0  0  0  0  0  0  0  0  0  0  0
    5.1440   -6.2120   28.4770 C   0  0  0  0  0  0  0  0  0  0  0  0
    5.8000   -6.3050   29.7280 N   0  0  0  0  0  0  0  0  0  0  0  0
    5.1290   -7.2510   30.5240 C   0  0  0  0  0  0  0  0  0  0  0  0
    5.4910   -7.5990   31.8050 C   0  0  0  0  0  0  0  0  0  0  0  0
    4.1550   -7.7250   29.8850 O   0  0  0  0  0  0  0  0  0  0  0  0
    4.0400   -7.1780   28.6010 C   0  0  0  0  0  0  0  0  0  0  0  0
    3.0950   -7.4930   27.6790 C   0  0  0  0  0  0  0  0  0  0  0  0
    7.0180   -2.6840   23.3010 C   0  0  0  0  0  0  0  0  0  0  0  0
    7.6480   -3.1660   22.1590 C   0  0  0  0  0  0  0  0  0  0  0  0
  1  2  1  0
  2  3  2  0
  2  4  1  0
  4  5  1  0
  5  6  1  0
  6  7  1  0
  7  8  1  0
  8  9  2  0
  8 10  1  0
 10 11  1  0
 11 12  1  0
 12 13  1  0
 13 14  1  0
 14 15  2  0
 15 16  1  0
 15 17  1  0
 13 18  2  0
 17 18  1  0
 18 19  1  0
  7 20  1  0
  4 21  1  0
 20 21  1  0
M  END
