piperidine-amides-25694-covalent
     RDKit          3D

 25 27  0  0  0  0  0  0  0  0999 V2000
    6.9360   -3.3500   19.3700 C   0  0  0  0  0  0  0  0  0  0  0  0
    6.2910   -4.2240   20.3920 C   0  0  0  0  0  0  0  0  0  0  0  0
    5.3950   -4.9610   19.9920 O   0  0  0  0  0  0  0  0  0  0  0  0
    6.7020   -4.2170   21.7300 N   0  0  0  0  0  0  0  0  0  0  0  0
    6.4940   -5.3510   22.5910 C   0  0  0  0  0  0  0  0  0  0  0  0
    5.8770   -4.8870   23.8930 C   0  0  0  0  0  0  0  0  0  0  0  0
    5.5200   -3.3850   23.8280 C   0  0  0  0  0  0  0  0  0  0  0  0
    4.9780   -2.8660   25.1570 C   0  0  0  0  0  0  0  0  0  0  0  0
    3.7870   -2.5770   25.2450 O   0  0  0  0  0  0  0  0  0  0  0  0
    5.8040   -2.7420   26.2940 N   0  0  0  0  0  0  0  0  0  0  0  0
    5.2780   -3.2020   27.5470 C   0  0  0  0  0  0  0  0  0  0  0  0
    5.7550   -4.6320   27.6520 C   0  0  2  0  0  0  0  0  0  0  0  0
    4.9340   -5.6190   28.1230 C   0  0  0  0  0  0  0  0  0  0  0  0
    5.0480   -6.7240   27.3520 C   0  0  0  0  0  0  0  0  0  0  0  0
    6.8550   -4.7010   28.6540 C   0  0  0  0  0  0  0  0  0  0  0  0
    7.4570   -4.3970   27.2700 C   0  0  0  0  0  0  0  0  0  0  0  0
    8.6480   -5.1860   27.0760 C   0  0  0  0  0  0  0  0  0  0  0  0
    9.3220   -4.9440   25.7300 C   0  0  0  0  0  0  0  0  0  0  0  0
   10.2920   -5.7750   25.8090 O   0  0  0  0  0  0  0  0  0  0  0  0
    9.6780   -6.6450   26.6420 C   0  0  0  0  0  0  0  0  0  0  0  0
    8.9300   -4.0110   24.6490 C   0  0  0  0  0  0  0  0  0  0  0  0
    7.7060   -3.2880   24.9760 C   0  0  0  0  0  0  0  0  0  0  0  0
    6.9490   -3.4460   26.2090 C   0  0  0  0  0  0  0  0  0  0  0  0
    6.7000   -2.5170   23.3450 C   0  0  0  0  0  0  0  0  0  0  0  0
    7.4320   -3.1020   22.3110 C   0  0  0  0  0  0  0  0  0  0  0  0
  1  2  1  0
  2  3  2  0
  2  4  1  0
  4  5  1  0
  5  6  1  0
  6  7  1  0
  7  8  1  0
  8  9  2  0
  8 10  1  0
 10 11  1  0
 11 12  1  0
 12 13  1  1
 13 14  1  0
 12 15  1  0
 15 16  1  0
 16 17  2  0
 17 18  1  0
 18 19  1  0
 19 20  1  0
 18 21  2  0
 21 22  1  0
 10 23  1  0
 16 23  1  0
 22 23  2  0
  7 24  1  0
  4 25  1  0
 24 25  1  0
M  END
