piperidine-amides-5258-covalent
     RDKit          3D

 21 22  0  0  0  0  0  0  0  0999 V2000
    7.0750   -3.3520   19.3380 C   0  0  0  0  0  0  0  0  0  0  0  0
    6.3700   -4.1400   20.3710 C   0  0  0  0  0  0  0  0  0  0  0  0
    5.3610   -4.7610   19.9710 O   0  0  0  0  0  0  0  0  0  0  0  0
    6.8440   -4.2190   21.7030 N   0  0  0  0  0  0  0  0  0  0  0  0
    6.5520   -5.3780   22.4880 C   0  0  0  0  0  0  0  0  0  0  0  0
    5.9830   -5.0280   23.7910 C   0  0  0  0  0  0  0  0  0  0  0  0
    5.8710   -3.5650   23.9580 C   0  0  0  0  0  0  0  0  0  0  0  0
    5.1110   -3.1250   25.1810 C   0  0  0  0  0  0  0  0  0  0  0  0
    3.9780   -2.6740   24.9710 O   0  0  0  0  0  0  0  0  0  0  0  0
    5.5480   -3.1690   26.5260 N   0  0  0  0  0  0  0  0  0  0  0  0
    6.0830   -4.3810   27.1630 C   0  0  0  0  0  0  0  0  0  0  0  0
    5.2160   -5.2610   27.9730 C   0  0  0  0  0  0  0  0  0  0  0  0
    5.6850   -6.6370   28.0600 C   0  0  0  0  0  0  0  0  0  0  0  0
    5.7260   -5.8530   29.2120 C   0  0  0  0  0  0  0  0  0  0  0  0
    3.8310   -5.3580   27.8570 C   0  0  1  0  0  0  0  0  0  0  0  0
    3.4800   -6.6110   27.4920 C   0  0  0  0  0  0  0  0  0  0  0  0
    2.5700   -6.9820   28.4050 C   0  0  0  0  0  0  0  0  0  0  0  0
    2.3670   -5.9430   29.2730 C   0  0  0  0  0  0  0  0  0  0  0  0
    3.1940   -4.8910   28.9130 O   0  0  0  0  0  0  0  0  0  0  0  0
    7.2080   -2.9170   23.7290 C   0  0  0  0  0  0  0  0  0  0  0  0
    7.6670   -3.1800   22.3260 C   0  0  0  0  0  0  0  0  0  0  0  0
  1  2  1  0
  2  3  2  0
  2  4  1  0
  4  5  1  0
  5  6  1  0
  6  7  1  0
  7  8  1  0
  8  9  2  0
  8 10  1  0
 10 11  1  0
 12 11  1  0
 12 13  1  0
 12 14  1  0
 15 12  1  1
 15 16  1  0
 16 17  1  0
 17 18  1  0
 15 19  1  0
 18 19  1  0
  7 20  1  0
  4 21  1  0
 20 21  1  0
M  END
