piperidine-amides-4469-covalent
     RDKit          3D

 25 27  0  0  0  0  0  0  0  0999 V2000
    7.1060   -3.3130   19.2380 C   0  0  0  0  0  0  0  0  0  0  0  0
    6.3830   -4.1260   20.2410 C   0  0  0  0  0  0  0  0  0  0  0  0
    5.2890   -4.6080   19.8980 O   0  0  0  0  0  0  0  0  0  0  0  0
    6.9490   -4.3860   21.4950 N   0  0  0  0  0  0  0  0  0  0  0  0
    6.3950   -5.4240   22.2960 C   0  0  0  0  0  0  0  0  0  0  0  0
    5.8070   -4.9520   23.5570 C   0  0  0  0  0  0  0  0  0  0  0  0
    6.5650   -3.8460   24.1850 C   0  0  0  0  0  0  0  0  0  0  0  0
    5.8950   -3.2380   25.3520 C   0  0  0  0  0  0  0  0  0  0  0  0
    4.7270   -3.5760   25.6300 O   0  0  0  0  0  0  0  0  0  0  0  0
    6.5890   -2.2780   26.1130 N   0  0  0  0  0  0  0  0  0  0  0  0
    5.9890   -1.5190   27.2250 C   0  0  1  0  0  0  0  0  0  0  0  0
    7.0270   -1.3560   28.2580 C   0  0  0  0  0  0  0  0  0  0  0  0
    6.2970   -0.0370   29.1610 S   0  0  0  0  0  0  0  0  0  0  0  0
    5.3920   -0.5070   30.2350 O   0  0  0  0  0  0  0  0  0  0  0  0
    7.3790    0.8750   29.5900 O   0  0  0  0  0  0  0  0  0  0  0  0
    5.3850    0.6490   27.7460 C   0  0  0  0  0  0  0  0  0  0  0  0
    5.4970   -0.2460   26.6630 C   0  0  1  0  0  0  0  0  0  0  0  0
    6.2300    0.4950   25.7060 N   0  0  0  0  0  0  0  0  0  0  0  0
    5.9580    1.9240   25.5660 C   0  0  0  0  0  0  0  0  0  0  0  0
    6.6990    2.5130   24.5800 C   0  0  0  0  0  0  0  0  0  0  0  0
    6.4260    1.9120   23.3610 O   0  0  0  0  0  0  0  0  0  0  0  0
    6.7490    0.5480   23.4990 C   0  0  0  0  0  0  0  0  0  0  0  0
    5.8120    0.0220   24.3450 C   0  0  0  0  0  0  0  0  0  0  0  0
    6.9340   -2.7980   23.1930 C   0  0  0  0  0  0  0  0  0  0  0  0
    7.7760   -3.4010   22.1620 C   0  0  0  0  0  0  0  0  0  0  0  0
  1  2  1  0
  2  3  2  0
  2  4  1  0
  4  5  1  0
  5  6  1  0
  6  7  1  0
  7  8  1  0
  8  9  2  0
  8 10  1  0
 11 10  1  6
 11 12  1  0
 13 12  1  0
 13 14  2  0
 13 15  2  0
 13 16  1  0
 11 17  1  0
 16 17  1  0
 17 18  1  6
 18 19  1  0
 19 20  1  0
 20 21  1  0
 21 22  1  0
 18 23  1  0
 22 23  1  0
  7 24  1  0
  4 25  1  0
 24 25  1  0
M  END
