piperidine-amides-10574-covalent
     RDKit          3D

 23 25  0  0  0  0  0  0  0  0999 V2000
    7.0760   -3.3290   19.3000 C   0  0  0  0  0  0  0  0  0  0  0  0
    6.4070   -4.1590   20.3030 C   0  0  0  0  0  0  0  0  0  0  0  0
    5.3500   -4.7420   19.9490 O   0  0  0  0  0  0  0  0  0  0  0  0
    6.9710   -4.3240   21.5640 N   0  0  0  0  0  0  0  0  0  0  0  0
    7.7640   -3.2920   22.1970 C   0  0  0  0  0  0  0  0  0  0  0  0
    7.0090   -2.7910   23.3810 C   0  0  0  0  0  0  0  0  0  0  0  0
    6.5170   -3.9200   24.2420 C   0  0  0  0  0  0  0  0  0  0  0  0
    5.7670   -3.3620   25.3810 C   0  0  0  0  0  0  0  0  0  0  0  0
    4.5500   -3.1330   25.2230 O   0  0  0  0  0  0  0  0  0  0  0  0
    6.3570   -3.0730   26.6200 N   0  0  0  0  0  0  0  0  0  0  0  0
    5.8950   -1.9810   27.4340 C   0  0  0  0  0  0  0  0  0  0  0  0
    4.4860   -2.1530   27.9920 C   0  0  0  0  0  0  0  0  0  0  0  0
    4.2610   -2.9240   29.1070 C   0  0  0  0  0  0  0  0  0  0  0  0
    3.0060   -3.0820   29.6130 C   0  0  0  0  0  0  0  0  0  0  0  0
    1.8980   -2.5000   29.0640 C   0  0  0  0  0  0  0  0  0  0  0  0
    0.1650   -2.7500   29.8120 Br  0  0  0  0  0  0  0  0  0  0  0  0
    2.0910   -1.7220   27.9400 C   0  0  0  0  0  0  0  0  0  0  0  0
    0.7190   -0.9430   27.1810 Cl  0  0  0  0  0  0  0  0  0  0  0  0
    3.3740   -1.5490   27.4090 C   0  0  0  0  0  0  0  0  0  0  0  0
    6.9260   -0.9090   28.0700 C   0  0  0  0  0  0  0  0  0  0  0  0
    6.0590   -0.7260   26.9950 C   0  0  0  0  0  0  0  0  0  0  0  0
    5.6760   -4.9350   23.4490 C   0  0  0  0  0  0  0  0  0  0  0  0
    6.5920   -5.4730   22.3680 C   0  0  0  0  0  0  0  0  0  0  0  0
  1  2  1  0
  2  3  2  0
  2  4  1  0
  4  5  1  0
  5  6  1  0
  6  7  1  0
  7  8  1  0
  8  9  2  0
  8 10  1  0
 11 10  1  0
 11 12  1  0
 12 13  2  0
 13 14  1  0
 14 15  2  0
 15 16  1  0
 15 17  1  0
 17 18  1  0
 12 19  1  0
 17 19  2  0
 11 20  1  0
 11 21  1  0
 20 21  1  0
  7 22  1  0
  4 23  1  0
 22 23  1  0
M  END
