piperidine-amides-25154-covalent
     RDKit          3D

 25 28  0  0  0  0  0  0  0  0999 V2000
    7.1120   -3.3250   19.2570 C   0  0  0  0  0  0  0  0  0  0  0  0
    6.4130   -4.1650   20.2600 C   0  0  0  0  0  0  0  0  0  0  0  0
    5.3410   -4.6610   19.9280 O   0  0  0  0  0  0  0  0  0  0  0  0
    7.0090   -4.4120   21.4940 N   0  0  0  0  0  0  0  0  0  0  0  0
    6.6070   -5.5580   22.2510 C   0  0  0  0  0  0  0  0  0  0  0  0
    5.7690   -5.0570   23.3850 C   0  0  0  0  0  0  0  0  0  0  0  0
    6.5530   -4.0200   24.1910 C   0  0  0  0  0  0  0  0  0  0  0  0
    5.6380   -3.5310   25.2290 C   0  0  0  0  0  0  0  0  0  0  0  0
    4.5870   -2.9720   24.8930 O   0  0  0  0  0  0  0  0  0  0  0  0
    5.9210   -3.6740   26.5790 N   0  0  0  0  0  0  0  0  0  0  0  0
    6.4070   -2.5060   27.2310 C   0  0  0  0  0  0  0  0  0  0  0  0
    6.5310   -2.9110   28.6690 C   0  0  1  0  0  0  0  0  0  0  0  0
    6.3810   -1.9060   29.5860 C   0  0  0  0  0  0  0  0  0  0  0  0
    5.1230   -1.7820   30.0600 C   0  0  0  0  0  0  0  0  0  0  0  0
    4.8480   -0.8460   30.9530 C   0  0  0  0  0  0  0  0  0  0  0  0
    5.8410    0.1030   31.4880 C   0  0  0  0  0  0  0  0  0  0  0  0
    7.2170   -0.0920   30.9150 C   0  0  0  0  0  0  0  0  0  0  0  0
    7.6740   -1.1390   29.8710 C   0  0  0  0  0  0  0  0  0  0  0  0
    5.6620   -4.0430   28.9400 C   0  0  2  0  0  0  0  0  0  0  0  0
    6.4410   -5.2750   29.2520 C   0  0  0  0  0  0  0  0  0  0  0  0
    6.1420   -6.3700   28.2920 C   0  0  0  0  0  0  0  0  0  0  0  0
    5.1720   -5.8220   27.3570 C   0  0  0  0  0  0  0  0  0  0  0  0
    5.0370   -4.3250   27.5310 C   0  0  2  0  0  0  0  0  0  0  0  0
    6.9600   -2.8550   23.3290 C   0  0  0  0  0  0  0  0  0  0  0  0
    7.7050   -3.3290   22.1210 C   0  0  0  0  0  0  0  0  0  0  0  0
  1  2  1  0
  2  3  2  0
  2  4  1  0
  4  5  1  0
  5  6  1  0
  6  7  1  0
  7  8  1  0
  8  9  2  0
  8 10  1  0
 10 11  1  0
 11 12  1  0
 12 13  1  1
 13 14  2  0
 14 15  1  0
 15 16  2  0
 16 17  1  0
 13 18  1  0
 17 18  2  0
 12 19  1  0
 19 20  1  6
 20 21  1  0
 21 22  1  0
 10 23  1  0
 19 23  1  0
 23 22  1  6
  7 24  1  0
  4 25  1  0
 24 25  1  0
M  END
