piperidine-amides-30704-covalent
     RDKit          3D

 27 29  0  0  0  0  0  0  0  0999 V2000
    7.1460   -3.3250   19.2350 C   0  0  0  0  0  0  0  0  0  0  0  0
    6.3750   -4.0590   20.2370 C   0  0  0  0  0  0  0  0  0  0  0  0
    5.3110   -4.6090   19.9110 O   0  0  0  0  0  0  0  0  0  0  0  0
    6.8580   -4.1950   21.5430 N   0  0  0  0  0  0  0  0  0  0  0  0
    7.8360   -3.2740   22.0850 C   0  0  0  0  0  0  0  0  0  0  0  0
    7.2670   -2.7460   23.3640 C   0  0  0  0  0  0  0  0  0  0  0  0
    6.7880   -3.8590   24.2390 C   0  0  0  0  0  0  0  0  0  0  0  0
    5.9890   -3.3040   25.3480 C   0  0  0  0  0  0  0  0  0  0  0  0
    4.7650   -2.9980   25.1980 O   0  0  0  0  0  0  0  0  0  0  0  0
    6.5730   -3.0970   26.6090 N   0  0  0  0  0  0  0  0  0  0  0  0
    7.3090   -4.2110   27.1930 C   0  0  2  0  0  0  0  0  0  0  0  0
    7.2290   -5.5410   26.5560 C   0  0  0  0  0  0  0  0  0  0  0  0
    6.6950   -6.2880   27.6090 N   0  0  0  0  0  0  0  0  0  0  0  0
    5.3690   -6.7850   27.5890 C   0  0  0  0  0  0  0  0  0  0  0  0
    4.5780   -6.7650   28.5530 O   0  0  0  0  0  0  0  0  0  0  0  0
    4.9390   -7.3070   26.4740 O   0  0  0  0  0  0  0  0  0  0  0  0
    3.7790   -6.9510   25.7770 C   0  0  0  0  0  0  0  0  0  0  0  0
    2.6930   -7.9930   25.9450 C   0  0  0  0  0  0  0  0  0  0  0  0
    3.3030   -5.5190   26.0520 C   0  0  0  0  0  0  0  0  0  0  0  0
    3.8060   -7.2220   24.2790 C   0  0  0  0  0  0  0  0  0  0  0  0
    6.9280   -5.6180   28.8880 C   0  0  0  0  0  0  0  0  0  0  0  0
    6.5990   -4.3780   28.2580 C   0  0  1  0  0  0  0  0  0  0  0  0
    6.1150   -3.0900   28.7830 C   0  0  0  0  0  0  0  0  0  0  0  0
    5.8720   -2.1740   27.5740 C   0  0  1  0  0  0  0  0  0  0  0  0
    5.8290   -1.1520   26.9440 C   0  0  0  0  0  0  0  0  0  0  0  0
    6.0190   -4.9370   23.5750 C   0  0  0  0  0  0  0  0  0  0  0  0
    6.5020   -5.3160   22.3450 C   0  0  0  0  0  0  0  0  0  0  0  0
  1  2  1  0
  2  3  2  0
  2  4  1  0
  4  5  1  0
  5  6  1  0
  6  7  1  0
  7  8  1  0
  8  9  2  0
  8 10  1  0
 10 11  1  0
 11 12  1  6
 12 13  1  0
 13 14  1  0
 14 15  2  0
 14 16  1  0
 17 16  1  0
 17 18  1  0
 17 19  1  0
 17 20  1  0
 13 21  1  0
 11 22  1  0
 22 21  1  1
 22 23  1  0
 10 24  1  0
 23 24  1  0
 24 25  1  1
  7 26  1  0
  4 27  1  0
 26 27  1  0
M  END
