piperidine-amides-29218-covalent
     RDKit          3D

 26 27  0  0  0  0  0  0  0  0999 V2000
    7.0470   -3.3370   19.3740 C   0  0  0  0  0  0  0  0  0  0  0  0
    6.3900   -4.1900   20.3630 C   0  0  0  0  0  0  0  0  0  0  0  0
    5.4060   -4.8570   19.9900 O   0  0  0  0  0  0  0  0  0  0  0  0
    6.8920   -4.2760   21.6910 N   0  0  0  0  0  0  0  0  0  0  0  0
    6.6620   -5.4920   22.4280 C   0  0  0  0  0  0  0  0  0  0  0  0
    6.4030   -5.1940   23.8840 C   0  0  0  0  0  0  0  0  0  0  0  0
    6.0960   -3.7170   23.9860 C   0  0  0  0  0  0  0  0  0  0  0  0
    5.4850   -3.2900   25.3020 C   0  0  0  0  0  0  0  0  0  0  0  0
    4.3700   -2.7960   25.1800 O   0  0  0  0  0  0  0  0  0  0  0  0
    6.0990   -3.4340   26.5600 N   0  0  0  0  0  0  0  0  0  0  0  0
    5.2770   -3.1810   27.7080 C   0  0  0  0  0  0  0  0  0  0  0  0
    4.9550   -4.2860   28.5170 C   0  0  0  0  0  0  0  0  0  0  0  0
    5.9870   -4.8210   29.2060 C   0  0  1  0  0  0  0  0  0  0  0  0
    5.8410   -6.0790   29.7750 C   0  0  0  0  0  0  0  0  0  0  0  0
    7.0890   -4.7250   28.3830 N   0  0  0  0  0  0  0  0  0  0  0  0
    7.0580   -5.8060   27.4520 C   0  0  0  0  0  0  0  0  0  0  0  0
    6.2430   -6.8950   27.6060 O   0  0  0  0  0  0  0  0  0  0  0  0
    7.8790   -5.7260   26.3400 O   0  0  0  0  0  0  0  0  0  0  0  0
    9.1680   -5.1670   26.4930 C   0  0  0  0  0  0  0  0  0  0  0  0
    9.3800   -4.6260   27.8460 C   0  0  0  0  0  0  0  0  0  0  0  0
    9.3450   -4.1760   25.3720 C   0  0  0  0  0  0  0  0  0  0  0  0
   10.0950   -6.0670   26.2170 C   0  0  0  0  0  0  0  0  0  0  0  0
    7.8210   -3.5760   27.9710 C   0  0  0  0  0  0  0  0  0  0  0  0
    7.4970   -3.1600   26.6990 C   0  0  0  0  0  0  0  0  0  0  0  0
    7.2370   -2.8490   23.5940 C   0  0  0  0  0  0  0  0  0  0  0  0
    7.7450   -3.2400   22.2400 C   0  0  0  0  0  0  0  0  0  0  0  0
  1  2  1  0
  2  3  2  0
  2  4  1  0
  4  5  1  0
  5  6  1  0
  6  7  1  0
  7  8  1  0
  8  9  2  0
  8 10  1  0
 10 11  1  0
 11 12  1  0
 12 13  1  0
 13 14  1  6
 13 15  1  0
 15 16  1  0
 16 17  2  0
 16 18  1  0
 19 18  1  0
 19 20  1  0
 19 21  1  0
 19 22  1  0
 15 23  1  0
 10 24  1  0
 23 24  1  0
  7 25  1  0
  4 26  1  0
 25 26  1  0
M  END
