piperidine-amides-34008-covalent
     RDKit          3D

 28 31  0  0  0  0  0  0  0  0999 V2000
    7.1160   -3.3260   19.2820 C   0  0  0  0  0  0  0  0  0  0  0  0
    6.4440   -4.1810   20.2630 C   0  0  0  0  0  0  0  0  0  0  0  0
    5.3770   -4.7610   19.9650 O   0  0  0  0  0  0  0  0  0  0  0  0
    7.0330   -4.4140   21.5090 N   0  0  0  0  0  0  0  0  0  0  0  0
    6.7350   -5.6430   22.1810 C   0  0  0  0  0  0  0  0  0  0  0  0
    5.7070   -5.2590   23.2300 C   0  0  0  0  0  0  0  0  0  0  0  0
    6.3380   -4.1710   24.0650 C   0  0  0  0  0  0  0  0  0  0  0  0
    5.3300   -3.7720   25.0430 C   0  0  0  0  0  0  0  0  0  0  0  0
    4.1940   -4.2630   24.9540 O   0  0  0  0  0  0  0  0  0  0  0  0
    5.6030   -2.8470   26.0360 N   0  0  0  0  0  0  0  0  0  0  0  0
    4.4920   -2.1620   26.5430 C   0  0  0  0  0  0  0  0  0  0  0  0
    4.3780   -2.6070   27.9480 C   0  0  0  0  0  0  0  0  0  0  0  0
    5.3350   -1.8140   28.6650 N   0  0  0  0  0  0  0  0  0  0  0  0
    5.1470   -1.8500   30.0700 C   0  0  0  0  0  0  0  0  0  0  0  0
    5.0510   -3.1940   30.0350 C   0  0  0  0  0  0  0  0  0  0  0  0
    6.2150   -4.2380   29.2180 S   0  0  0  0  0  0  0  0  0  0  0  0
    5.3990   -5.6600   29.6090 C   0  0  0  0  0  0  0  0  0  0  0  0
    5.8410   -6.8210   29.2340 C   0  0  0  0  0  0  0  0  0  0  0  0
    5.2380   -8.1310   29.4980 C   0  0  0  0  0  0  0  0  0  0  0  0
    4.0070   -7.6470   30.3090 C   0  0  0  0  0  0  0  0  0  0  0  0
    3.3360   -6.3690   30.8400 C   0  0  0  0  0  0  0  0  0  0  0  0
    4.2990   -5.4160   30.3180 C   0  0  0  0  0  0  0  0  0  0  0  0
    4.0620   -4.0330   30.5820 C   0  0  0  0  0  0  0  0  0  0  0  0
    2.6880   -3.4140   31.4920 Cl  0  0  0  0  0  0  0  0  0  0  0  0
    6.6500   -2.1140   28.1510 C   0  0  0  0  0  0  0  0  0  0  0  0
    6.5960   -3.0450   26.9690 C   0  0  0  0  0  0  0  0  0  0  0  0
    6.7600   -2.9220   23.3230 C   0  0  0  0  0  0  0  0  0  0  0  0
    7.7080   -3.3530   22.2120 C   0  0  0  0  0  0  0  0  0  0  0  0
  1  2  1  0
  2  3  2  0
  2  4  1  0
  4  5  1  0
  5  6  1  0
  6  7  1  0
  7  8  1  0
  8  9  2  0
  8 10  1  0
 10 11  1  0
 11 12  1  0
 12 13  1  0
 13 14  1  0
 14 15  1  0
 15 16  1  0
 16 17  1  0
 17 18  2  0
 18 19  1  0
 19 20  2  0
 20 21  1  0
 17 22  1  0
 21 22  2  0
 15 23  2  0
 22 23  1  0
 23 24  1  0
 13 25  1  0
 10 26  1  0
 25 26  1  0
  7 27  1  0
  4 28  1  0
 27 28  1  0
M  END
