piperidine-amides-13503-covalent
     RDKit          3D

 26 28  0  0  0  0  0  0  0  0999 V2000
    7.0490   -3.3440   19.3670 C   0  0  0  0  0  0  0  0  0  0  0  0
    6.3750   -4.2240   20.3620 C   0  0  0  0  0  0  0  0  0  0  0  0
    5.3960   -4.8930   19.9950 O   0  0  0  0  0  0  0  0  0  0  0  0
    6.8940   -4.3080   21.6760 N   0  0  0  0  0  0  0  0  0  0  0  0
    7.6780   -3.2590   22.2870 C   0  0  0  0  0  0  0  0  0  0  0  0
    6.7930   -2.5800   23.3470 C   0  0  0  0  0  0  0  0  0  0  0  0
    5.9600   -3.6120   24.0470 C   0  0  0  0  0  0  0  0  0  0  0  0
    5.6230   -3.3130   25.4730 C   0  0  0  0  0  0  0  0  0  0  0  0
    4.4560   -3.5420   25.7850 O   0  0  0  0  0  0  0  0  0  0  0  0
    6.5670   -2.8240   26.3970 N   0  0  0  0  0  0  0  0  0  0  0  0
    6.6560   -1.5400   27.0390 C   0  0  2  0  0  0  0  0  0  0  0  0
    7.1260   -1.4660   28.3490 C   0  0  0  0  0  0  0  0  0  0  0  0
    6.5970   -0.5920   29.3010 C   0  0  0  0  0  0  0  0  0  0  0  0
    6.1960    0.6320   28.8530 C   0  0  0  0  0  0  0  0  0  0  0  0
    5.7260    0.7050   27.4590 C   0  0  0  0  0  0  0  0  0  0  0  0
    5.6140   -0.6400   26.7370 C   0  0  1  0  0  0  0  0  0  0  0  0
    5.4180   -0.4570   25.3900 O   0  0  0  0  0  0  0  0  0  0  0  0
    4.1900   -0.7240   24.7680 C   0  0  0  0  0  0  0  0  0  0  0  0
    3.1660   -1.1580   25.5950 C   0  0  0  0  0  0  0  0  0  0  0  0
    2.6400   -0.3690   26.7260 C   0  0  0  0  0  0  0  0  0  0  0  0
    1.4830   -1.0900   27.4780 C   0  0  0  0  0  0  0  0  0  0  0  0
    0.7660   -2.3040   27.4020 C   0  0  0  0  0  0  0  0  0  0  0  0
    1.4870   -2.9180   26.1850 C   0  0  0  0  0  0  0  0  0  0  0  0
    2.5920   -2.3470   25.3830 C   0  0  0  0  0  0  0  0  0  0  0  0
    6.5260   -5.0150   23.9390 C   0  0  0  0  0  0  0  0  0  0  0  0
    6.5490   -5.4450   22.5130 C   0  0  0  0  0  0  0  0  0  0  0  0
  1  2  1  0
  2  3  2  0
  2  4  1  0
  4  5  1  0
  5  6  1  0
  6  7  1  0
  7  8  1  0
  8  9  2  0
  8 10  1  0
 11 10  1  1
 11 12  1  0
 12 13  1  0
 13 14  1  0
 14 15  1  0
 11 16  1  0
 15 16  1  0
 16 17  1  6
 17 18  1  0
 18 19  1  0
 19 20  2  0
 20 21  1  0
 21 22  2  0
 22 23  1  0
 19 24  1  0
 23 24  2  0
  7 25  1  0
  4 26  1  0
 25 26  1  0
M  END
