piperidine-amides-34033-covalent
     RDKit          3D

 28 31  0  0  0  0  0  0  0  0999 V2000
    7.0280   -3.3800   19.4450 C   0  0  0  0  0  0  0  0  0  0  0  0
    6.3200   -4.2620   20.3860 C   0  0  0  0  0  0  0  0  0  0  0  0
    5.3530   -4.9440   19.9920 O   0  0  0  0  0  0  0  0  0  0  0  0
    6.7440   -4.3760   21.7180 N   0  0  0  0  0  0  0  0  0  0  0  0
    6.6080   -5.6590   22.3980 C   0  0  0  0  0  0  0  0  0  0  0  0
    6.0650   -5.4180   23.8270 C   0  0  0  0  0  0  0  0  0  0  0  0
    5.8450   -3.9370   23.9550 C   0  0  0  0  0  0  0  0  0  0  0  0
    5.2480   -3.4830   25.2520 C   0  0  0  0  0  0  0  0  0  0  0  0
    4.4700   -2.5170   25.1760 O   0  0  0  0  0  0  0  0  0  0  0  0
    5.5020   -4.0640   26.5350 N   0  0  0  0  0  0  0  0  0  0  0  0
    6.8510   -4.2510   26.8720 C   0  0  0  0  0  0  0  0  0  0  0  0
    7.1110   -5.5520   27.6010 C   0  0  0  0  0  0  0  0  0  0  0  0
    6.1560   -5.9480   28.8950 S   0  0  0  0  0  0  0  0  0  0  0  0
    4.9570   -4.6410   28.7430 C   0  0  0  0  0  0  0  0  0  0  0  0
    5.2220   -3.5680   27.9030 C   0  0  1  0  0  0  0  0  0  0  0  0
    6.2630   -2.6720   28.1910 C   0  0  0  0  0  0  0  0  0  0  0  0
    6.0230   -1.7910   29.2270 C   0  0  0  0  0  0  0  0  0  0  0  0
    4.9370   -1.7990   30.0160 N   0  0  0  0  0  0  0  0  0  0  0  0
    5.1540   -0.7750   30.8670 C   0  0  0  0  0  0  0  0  0  0  0  0
    4.0500   -0.5810   31.8790 C   0  0  0  0  0  0  0  0  0  0  0  0
    3.5880   -1.7380   32.7620 C   0  0  0  0  0  0  0  0  0  0  0  0
    2.5260   -1.0620   33.5560 C   0  0  0  0  0  0  0  0  0  0  0  0
    2.2780    0.5690   33.1920 S   0  0  0  0  0  0  0  0  0  0  0  0
    3.4330    0.7300   31.9980 C   0  0  0  0  0  0  0  0  0  0  0  0
    6.3380   -0.1790   30.5790 N   0  0  0  0  0  0  0  0  0  0  0  0
    6.8740   -0.8110   29.5670 O   0  0  0  0  0  0  0  0  0  0  0  0
    7.2020   -3.2980   23.7720 C   0  0  0  0  0  0  0  0  0  0  0  0
    7.5560   -3.3410   22.3140 C   0  0  0  0  0  0  0  0  0  0  0  0
  1  2  1  0
  2  3  2  0
  2  4  1  0
  4  5  1  0
  5  6  1  0
  6  7  1  0
  7  8  1  0
  8  9  2  0
  8 10  1  0
 10 11  1  0
 11 12  1  0
 12 13  1  0
 13 14  1  0
 10 15  1  0
 14 15  1  0
 15 16  1  1
 16 17  1  0
 17 18  2  0
 18 19  1  0
 19 20  1  0
 20 21  1  0
 21 22  2  0
 22 23  1  0
 20 24  2  0
 23 24  1  0
 19 25  2  0
 17 26  1  0
 25 26  1  0
  7 27  1  0
  4 28  1  0
 27 28  1  0
M  END
