piperidine-amides-1418-covalent
     RDKit          3D

 21 22  0  0  0  0  0  0  0  0999 V2000
    7.0450   -3.3300   19.3600 C   0  0  0  0  0  0  0  0  0  0  0  0
    6.3440   -4.2020   20.3470 C   0  0  0  0  0  0  0  0  0  0  0  0
    5.3500   -4.8470   19.9730 O   0  0  0  0  0  0  0  0  0  0  0  0
    6.8370   -4.3150   21.6650 N   0  0  0  0  0  0  0  0  0  0  0  0
    6.6340   -5.5370   22.4020 C   0  0  0  0  0  0  0  0  0  0  0  0
    6.0700   -5.1740   23.7830 C   0  0  0  0  0  0  0  0  0  0  0  0
    6.1340   -3.6890   23.9480 C   0  0  0  0  0  0  0  0  0  0  0  0
    5.6970   -3.2330   25.2930 C   0  0  0  0  0  0  0  0  0  0  0  0
    4.4870   -3.3210   25.5640 O   0  0  0  0  0  0  0  0  0  0  0  0
    6.6530   -2.7240   26.1770 N   0  0  0  0  0  0  0  0  0  0  0  0
    6.5630   -1.6020   27.0460 C   0  0  0  0  0  0  0  0  0  0  0  0
    7.0050   -1.6120   28.3520 C   0  0  0  0  0  0  0  0  0  0  0  0
    6.9160   -0.5040   29.1930 C   0  0  0  0  0  0  0  0  0  0  0  0
    6.3680    0.6680   28.7380 C   0  0  0  0  0  0  0  0  0  0  0  0
    6.2410    2.1720   29.8700 Br  0  0  0  0  0  0  0  0  0  0  0  0
    5.8780    0.7270   27.3370 C   0  0  0  0  0  0  0  0  0  0  0  0
    5.2500    1.9830   26.7180 C   0  0  0  0  0  0  0  0  0  0  0  0
    6.0000   -0.3950   26.5800 C   0  0  0  0  0  0  0  0  0  0  0  0
    5.5490   -0.3310   25.3040 F   0  0  0  0  0  0  0  0  0  0  0  0
    7.5500   -3.1950   23.6490 C   0  0  0  0  0  0  0  0  0  0  0  0
    7.6090   -3.2010   22.1710 C   0  0  0  0  0  0  0  0  0  0  0  0
  1  2  1  0
  2  3  2  0
  2  4  1  0
  4  5  1  0
  5  6  1  0
  6  7  1  0
  7  8  1  0
  8  9  2  0
  8 10  1  0
 10 11  1  0
 11 12  2  0
 12 13  1  0
 13 14  2  0
 14 15  1  0
 14 16  1  0
 16 17  1  0
 11 18  1  0
 16 18  2  0
 18 19  1  0
  7 20  1  0
  4 21  1  0
 20 21  1  0
M  END
