piperidine-amides-13430-covalent
     RDKit          3D

 21 22  0  0  0  0  0  0  0  0999 V2000
    7.0270   -3.3280   19.3520 C   0  0  0  0  0  0  0  0  0  0  0  0
    6.3380   -4.1980   20.3500 C   0  0  0  0  0  0  0  0  0  0  0  0
    5.3640   -4.8660   19.9800 O   0  0  0  0  0  0  0  0  0  0  0  0
    6.8240   -4.2820   21.6810 N   0  0  0  0  0  0  0  0  0  0  0  0
    6.7090   -5.4960   22.4590 C   0  0  0  0  0  0  0  0  0  0  0  0
    6.0780   -5.1560   23.8220 C   0  0  0  0  0  0  0  0  0  0  0  0
    6.0830   -3.6740   23.9870 C   0  0  0  0  0  0  0  0  0  0  0  0
    5.5490   -3.1980   25.2940 C   0  0  0  0  0  0  0  0  0  0  0  0
    4.3170   -3.1460   25.3720 O   0  0  0  0  0  0  0  0  0  0  0  0
    6.3790   -2.8360   26.3640 N   0  0  0  0  0  0  0  0  0  0  0  0
    6.6220   -1.5390   26.9110 C   0  0  2  0  0  0  0  0  0  0  0  0
    7.1410   -1.4520   28.1950 C   0  0  0  0  0  0  0  0  0  0  0  0
    6.5700   -0.6910   29.2220 C   0  0  0  0  0  0  0  0  0  0  0  0
    5.6070   -1.3400   29.9550 C   0  0  0  0  0  0  0  0  0  0  0  0
    7.6850   -0.5370   30.1930 C   0  0  0  0  0  0  0  0  0  0  0  0
    6.2120    0.5550   28.7800 C   0  0  0  0  0  0  0  0  0  0  0  0
    5.7470    0.6350   27.3410 C   0  0  0  0  0  0  0  0  0  0  0  0
    5.6590   -0.5570   26.6550 C   0  0  1  0  0  0  0  0  0  0  0  0
    5.3810   -0.1410   25.3700 O   0  0  0  0  0  0  0  0  0  0  0  0
    7.3970   -3.0480   23.6900 C   0  0  0  0  0  0  0  0  0  0  0  0
    7.6400   -3.2000   22.2040 C   0  0  0  0  0  0  0  0  0  0  0  0
  1  2  1  0
  2  3  2  0
  2  4  1  0
  4  5  1  0
  5  6  1  0
  6  7  1  0
  7  8  1  0
  8  9  2  0
  8 10  1  0
 11 10  1  1
 11 12  1  0
 12 13  1  0
 13 14  1  0
 13 15  1  0
 13 16  1  0
 16 17  1  0
 11 18  1  0
 17 18  1  0
 18 19  1  6
  7 20  1  0
  4 21  1  0
 20 21  1  0
M  END
