piperidine-amides-14121-covalent
     RDKit          3D

 25 27  0  0  0  0  0  0  0  0999 V2000
    7.0910   -3.3110   19.2830 C   0  0  0  0  0  0  0  0  0  0  0  0
    6.3670   -4.1490   20.2770 C   0  0  0  0  0  0  0  0  0  0  0  0
    5.3200   -4.7240   19.9400 O   0  0  0  0  0  0  0  0  0  0  0  0
    6.9160   -4.3200   21.5610 N   0  0  0  0  0  0  0  0  0  0  0  0
    6.5860   -5.4500   22.3900 C   0  0  0  0  0  0  0  0  0  0  0  0
    5.6830   -4.9180   23.5080 C   0  0  0  0  0  0  0  0  0  0  0  0
    6.4680   -3.8790   24.2320 C   0  0  0  0  0  0  0  0  0  0  0  0
    5.7510   -3.2790   25.3800 C   0  0  0  0  0  0  0  0  0  0  0  0
    4.5290   -3.1460   25.2540 O   0  0  0  0  0  0  0  0  0  0  0  0
    6.4490   -2.8900   26.5280 N   0  0  0  0  0  0  0  0  0  0  0  0
    6.3960   -1.6370   27.1880 C   0  0  0  0  0  0  0  0  0  0  0  0
    5.8190   -0.4740   26.6920 C   0  0  0  0  0  0  0  0  0  0  0  0
    5.7920    0.7520   27.3960 C   0  0  0  0  0  0  0  0  0  0  0  0
    6.3500    0.8840   28.6530 C   0  0  0  0  0  0  0  0  0  0  0  0
    6.9820   -0.3030   29.2470 C   0  0  0  0  0  0  0  0  0  0  0  0
    6.9870   -1.5960   28.4560 C   0  0  0  0  0  0  0  0  0  0  0  0
    7.5440   -0.2260   30.4800 C   0  0  0  0  0  0  0  0  0  0  0  0
    6.9170    0.6570   31.3370 C   0  0  0  0  0  0  0  0  0  0  0  0
    6.6120    1.9900   30.7640 C   0  0  0  0  0  0  0  0  0  0  0  0
    6.3400    2.0410   29.3530 N   0  0  0  0  0  0  0  0  0  0  0  0
    6.0420    3.2970   28.7820 C   0  0  0  0  0  0  0  0  0  0  0  0
    4.7150    3.4380   28.4760 C   0  0  0  0  0  0  0  0  0  0  0  0
    6.9040    4.3590   28.5090 O   0  0  0  0  0  0  0  0  0  0  0  0
    6.9520   -2.7470   23.3910 C   0  0  0  0  0  0  0  0  0  0  0  0
    7.6900   -3.2550   22.1850 C   0  0  0  0  0  0  0  0  0  0  0  0
  1  2  1  0
  2  3  2  0
  2  4  1  0
  4  5  1  0
  5  6  1  0
  6  7  1  0
  7  8  1  0
  8  9  2  0
  8 10  1  0
 10 11  1  0
 11 12  2  0
 12 13  1  0
 13 14  2  0
 14 15  1  0
 11 16  1  0
 15 16  2  0
 15 17  1  0
 17 18  1  0
 18 19  1  0
 14 20  1  0
 19 20  1  0
 20 21  1  0
 21 22  1  0
 21 23  2  0
  7 24  1  0
  4 25  1  0
 24 25  1  0
M  END
