piperidine-amides-31869-covalent
     RDKit          3D

 29 32  0  0  0  0  0  0  0  0999 V2000
    7.1140   -3.3530   19.4330 C   0  0  0  0  0  0  0  0  0  0  0  0
    6.4330   -4.2100   20.3740 C   0  0  0  0  0  0  0  0  0  0  0  0
    5.4070   -4.8550   19.9830 O   0  0  0  0  0  0  0  0  0  0  0  0
    6.8940   -4.3860   21.6950 N   0  0  0  0  0  0  0  0  0  0  0  0
    6.5760   -5.6680   22.3760 C   0  0  0  0  0  0  0  0  0  0  0  0
    6.5860   -5.2350   23.8990 C   0  0  0  0  0  0  0  0  0  0  0  0
    5.9560   -3.8750   23.9250 C   0  0  0  0  0  0  0  0  0  0  0  0
    5.2300   -3.4900   25.2890 C   0  0  0  0  0  0  0  0  0  0  0  0
    4.2010   -2.8750   25.0520 O   0  0  0  0  0  0  0  0  0  0  0  0
    5.8850   -3.9150   26.2840 N   0  0  0  0  0  0  0  0  0  0  0  0
    6.8930   -4.4110   26.9890 C   0  0  0  0  0  0  0  0  0  0  0  0
    7.1070   -5.3840   27.8640 C   0  0  0  0  0  0  0  0  0  0  0  0
    6.4180   -4.8920   28.9390 C   0  0  0  0  0  0  0  0  0  0  0  0
    4.9880   -4.7610   28.5960 C   0  0  0  0  0  0  0  0  0  0  0  0
    5.0410   -3.6400   27.4750 C   0  0  1  0  0  0  0  0  0  0  0  0
    5.4750   -2.6050   28.3200 C   0  0  0  0  0  0  0  0  0  0  0  0
    6.6140   -1.8540   27.8310 C   0  0  0  0  0  0  0  0  0  0  0  0
    6.7730   -0.8390   28.9950 C   0  0  0  0  0  0  0  0  0  0  0  0
    5.9580   -0.6690   30.2900 C   0  0  0  0  0  0  0  0  0  0  0  0
    6.1850    0.2680   31.2620 C   0  0  0  0  0  0  0  0  0  0  0  0
    7.3160    0.2680   32.0150 C   0  0  0  0  0  0  0  0  0  0  0  0
    7.5340    1.1850   32.9620 C   0  0  0  0  0  0  0  0  0  0  0  0
    6.6330    2.1790   33.2290 C   0  0  0  0  0  0  0  0  0  0  0  0
    5.4070    2.3620   32.5710 C   0  0  0  0  0  0  0  0  0  0  0  0
    5.2690    1.2700   31.5260 C   0  0  0  0  0  0  0  0  0  0  0  0
    4.9230   -1.4520   30.5860 C   0  0  0  0  0  0  0  0  0  0  0  0
    4.7250   -2.4570   29.4950 C   0  0  0  0  0  0  0  0  0  0  0  0
    6.8740   -2.7820   23.3970 C   0  0  0  0  0  0  0  0  0  0  0  0
    7.7410   -3.4070   22.3400 C   0  0  0  0  0  0  0  0  0  0  0  0
  1  2  1  0
  2  3  2  0
  2  4  1  0
  4  5  1  0
  5  6  1  0
  6  7  1  0
  7  8  1  0
  8  9  2  0
  8 10  1  0
 10 11  1  0
 11 12  1  0
 12 13  1  0
 13 14  1  0
 10 15  1  0
 14 15  1  0
 15 16  1  1
 16 17  2  0
 17 18  1  0
 18 19  2  0
 19 20  1  0
 20 21  2  0
 21 22  1  0
 22 23  2  0
 23 24  1  0
 20 25  1  0
 24 25  2  0
 19 26  1  0
 16 27  1  0
 26 27  2  0
  7 28  1  0
  4 29  1  0
 28 29  1  0
M  END
