piperidine-amides-3291-covalent
     RDKit          3D

 22 23  0  0  0  0  0  0  0  0999 V2000
    7.1590   -3.3100   19.2150 C   0  0  0  0  0  0  0  0  0  0  0  0
    6.3750   -4.0220   20.2070 C   0  0  0  0  0  0  0  0  0  0  0  0
    5.3000   -4.5300   19.8920 O   0  0  0  0  0  0  0  0  0  0  0  0
    6.9030   -4.1870   21.5290 N   0  0  0  0  0  0  0  0  0  0  0  0
    7.6730   -3.1310   22.1210 C   0  0  0  0  0  0  0  0  0  0  0  0
    6.9880   -2.6300   23.3610 C   0  0  0  0  0  0  0  0  0  0  0  0
    6.5140   -3.8230   24.1870 C   0  0  0  0  0  0  0  0  0  0  0  0
    5.7730   -3.3500   25.3930 C   0  0  0  0  0  0  0  0  0  0  0  0
    4.5520   -3.0970   25.3720 O   0  0  0  0  0  0  0  0  0  0  0  0
    6.4840   -3.1690   26.6010 N   0  0  0  0  0  0  0  0  0  0  0  0
    6.1660   -3.9620   27.7790 C   0  0  0  0  0  0  0  0  0  0  0  0
    5.8520   -5.4050   27.4050 C   0  0  0  0  0  0  0  0  0  0  0  0
    5.5510   -5.8370   26.1610 N   0  0  0  0  0  0  0  0  0  0  0  0
    4.4470   -6.6310   26.1520 C   0  0  0  0  0  0  0  0  0  0  0  0
    3.7060   -7.1410   27.2030 C   0  0  0  0  0  0  0  0  0  0  0  0
    2.6090   -7.9290   26.9820 C   0  0  0  0  0  0  0  0  0  0  0  0
    2.3300   -8.1570   25.5690 C   0  0  0  0  0  0  0  0  0  0  0  0
    1.2270   -8.9460   25.3890 F   0  0  0  0  0  0  0  0  0  0  0  0
    3.0420   -7.6730   24.4820 C   0  0  0  0  0  0  0  0  0  0  0  0
    4.1140   -6.8980   24.8840 N   0  0  0  0  0  0  0  0  0  0  0  0
    5.5750   -4.6670   23.3310 C   0  0  0  0  0  0  0  0  0  0  0  0
    6.3300   -5.2480   22.3190 C   0  0  0  0  0  0  0  0  0  0  0  0
  1  2  1  0
  2  3  2  0
  2  4  1  0
  4  5  1  0
  5  6  1  0
  6  7  1  0
  7  8  1  0
  8  9  2  0
  8 10  1  0
 10 11  1  0
 11 12  1  0
 12 13  1  0
 13 14  1  0
 14 15  2  0
 15 16  1  0
 16 17  2  0
 17 18  1  0
 17 19  1  0
 14 20  1  0
 19 20  2  0
  7 21  1  0
  4 22  1  0
 21 22  1  0
M  END
