piperidine-amides-7408-covalent
     RDKit          3D

 19 20  0  0  0  0  0  0  0  0999 V2000
    7.1170   -3.3090   19.2470 C   0  0  0  0  0  0  0  0  0  0  0  0
    6.3540   -4.0440   20.2560 C   0  0  0  0  0  0  0  0  0  0  0  0
    5.2710   -4.5630   19.8880 O   0  0  0  0  0  0  0  0  0  0  0  0
    6.8700   -4.1820   21.5420 N   0  0  0  0  0  0  0  0  0  0  0  0
    7.6520   -3.1340   22.1430 C   0  0  0  0  0  0  0  0  0  0  0  0
    6.8940   -2.6930   23.3520 C   0  0  0  0  0  0  0  0  0  0  0  0
    6.6190   -3.8610   24.2530 C   0  0  0  0  0  0  0  0  0  0  0  0
    5.8870   -3.3570   25.4370 C   0  0  0  0  0  0  0  0  0  0  0  0
    4.6510   -3.1910   25.3440 O   0  0  0  0  0  0  0  0  0  0  0  0
    6.5310   -3.0350   26.6470 N   0  0  0  0  0  0  0  0  0  0  0  0
    6.4490   -3.8850   27.8190 C   0  0  0  0  0  0  0  0  0  0  0  0
    7.0070   -5.2920   27.6160 C   0  0  0  0  0  0  0  0  0  0  0  0
    5.9150   -6.2190   27.9870 N   0  0  0  0  0  0  0  0  0  0  0  0
    5.7830   -6.8330   29.1140 C   0  0  0  0  0  0  0  0  0  0  0  0
    4.6640   -7.5690   29.0250 C   0  0  0  0  0  0  0  0  0  0  0  0
    4.1060   -7.3710   27.7680 C   0  0  0  0  0  0  0  0  0  0  0  0
    4.9760   -6.4320   27.0460 N   0  0  0  0  0  0  0  0  0  0  0  0
    5.8510   -4.8910   23.4670 C   0  0  0  0  0  0  0  0  0  0  0  0
    6.5450   -5.3140   22.3450 C   0  0  0  0  0  0  0  0  0  0  0  0
  1  2  1  0
  2  3  2  0
  2  4  1  0
  4  5  1  0
  5  6  1  0
  6  7  1  0
  7  8  1  0
  8  9  2  0
  8 10  1  0
 10 11  1  0
 11 12  1  0
 12 13  1  0
 13 14  1  0
 14 15  2  0
 15 16  1  0
 13 17  1  0
 16 17  2  0
  7 18  1  0
  4 19  1  0
 18 19  1  0
M  END
