piperidine-amides-10827-covalent
     RDKit          3D

 22 23  0  0  0  0  0  0  0  0999 V2000
    7.0930   -3.3210   19.2790 C   0  0  0  0  0  0  0  0  0  0  0  0
    6.3960   -4.1280   20.2770 C   0  0  0  0  0  0  0  0  0  0  0  0
    5.3650   -4.7440   19.9560 O   0  0  0  0  0  0  0  0  0  0  0  0
    6.9060   -4.2580   21.5760 N   0  0  0  0  0  0  0  0  0  0  0  0
    7.7590   -3.2580   22.1760 C   0  0  0  0  0  0  0  0  0  0  0  0
    6.9840   -2.7180   23.3360 C   0  0  0  0  0  0  0  0  0  0  0  0
    6.5200   -3.8240   24.2230 C   0  0  0  0  0  0  0  0  0  0  0  0
    5.7520   -3.3230   25.3800 C   0  0  0  0  0  0  0  0  0  0  0  0
    4.5090   -3.1010   25.2810 O   0  0  0  0  0  0  0  0  0  0  0  0
    6.3560   -3.0790   26.6260 N   0  0  0  0  0  0  0  0  0  0  0  0
    6.3640   -1.7310   27.2390 C   0  0  0  0  0  0  0  0  0  0  0  0
    7.0080   -1.6070   28.5810 C   0  0  0  0  0  0  0  0  0  0  0  0
    7.0890   -0.3190   29.3310 C   0  0  0  0  0  0  0  0  0  0  0  0
    6.5090    0.9550   28.7520 C   0  0  0  0  0  0  0  0  0  0  0  0
    6.5380    2.3120   29.4270 C   0  0  0  0  0  0  0  0  0  0  0  0
    5.8860    0.7140   27.3950 C   0  0  0  0  0  0  0  0  0  0  0  0
    5.2340    1.4390   26.4250 C   0  0  0  0  0  0  0  0  0  0  0  0
    3.8870    1.9450   26.7170 N   0  0  0  0  0  0  0  0  0  0  0  0
    5.8260    1.6550   25.3130 O   0  0  0  0  0  0  0  0  0  0  0  0
    5.7630   -0.5280   26.5800 C   0  0  0  0  0  0  0  0  0  0  0  0
    5.6790   -4.8860   23.4990 C   0  0  0  0  0  0  0  0  0  0  0  0
    6.5280   -5.4190   22.3430 C   0  0  0  0  0  0  0  0  0  0  0  0
  1  2  1  0
  2  3  2  0
  2  4  1  0
  4  5  1  0
  5  6  1  0
  6  7  1  0
  7  8  1  0
  8  9  2  0
  8 10  1  0
 10 11  1  0
 11 12  2  0
 12 13  1  0
 13 14  2  0
 14 15  1  0
 14 16  1  0
 16 17  1  0
 17 18  1  0
 17 19  2  0
 11 20  1  0
 16 20  2  0
  7 21  1  0
  4 22  1  0
 21 22  1  0
M  END
