piperidine-amides-25271-covalent
     RDKit          3D

 22 24  0  0  0  0  0  0  0  0999 V2000
    7.1640   -3.3240   19.2730 C   0  0  0  0  0  0  0  0  0  0  0  0
    6.4590   -4.1870   20.2550 C   0  0  0  0  0  0  0  0  0  0  0  0
    5.3530   -4.6430   19.9480 O   0  0  0  0  0  0  0  0  0  0  0  0
    7.0770   -4.4920   21.4620 N   0  0  0  0  0  0  0  0  0  0  0  0
    6.7970   -5.7200   22.1610 C   0  0  0  0  0  0  0  0  0  0  0  0
    6.1840   -5.4280   23.4980 C   0  0  0  0  0  0  0  0  0  0  0  0
    6.1110   -3.9220   23.7040 C   0  0  0  0  0  0  0  0  0  0  0  0
    5.6360   -3.7080   25.0720 C   0  0  0  0  0  0  0  0  0  0  0  0
    4.4860   -3.3050   25.2500 O   0  0  0  0  0  0  0  0  0  0  0  0
    6.4570   -3.9420   26.1780 N   0  0  0  0  0  0  0  0  0  0  0  0
    6.3060   -5.1470   26.8920 C   0  0  0  0  0  0  0  0  0  0  0  0
    6.6200   -4.5890   28.2670 C   0  0  0  0  0  0  0  0  0  0  0  0
    6.5120   -3.2110   28.4630 C   0  0  0  0  0  0  0  0  0  0  0  0
    6.5830   -3.3800   29.5490 C   0  0  0  0  0  0  0  0  0  0  0  0
    6.4200   -1.8700   28.7420 Cl  0  0  0  0  0  0  0  0  0  0  0  0
    6.5050   -2.1600   30.0250 C   0  0  0  0  0  0  0  0  0  0  0  0
    6.3570   -1.1490   28.7150 C   0  0  0  0  0  0  0  0  0  0  0  0
    6.2270    0.5860   29.0250 Cl  0  0  0  0  0  0  0  0  0  0  0  0
    6.3140   -1.6400   27.2570 N   0  0  0  0  0  0  0  0  0  0  0  0
    6.4280   -3.0110   27.1670 C   0  0  0  0  0  0  0  0  0  0  0  0
    7.3620   -3.1900   23.4390 C   0  0  0  0  0  0  0  0  0  0  0  0
    7.8730   -3.4530   22.0760 C   0  0  0  0  0  0  0  0  0  0  0  0
  1  2  1  0
  2  3  2  0
  2  4  1  0
  4  5  1  0
  5  6  1  0
  6  7  1  0
  7  8  1  0
  8  9  2  0
  8 10  1  0
 10 11  1  0
 11 12  1  0
 12 13  1  0
 13 14  1  0
 14 15  1  0
 14 16  2  0
 16 17  1  0
 17 18  1  0
 17 19  2  0
 10 20  1  0
 13 20  2  0
 19 20  1  0
  7 21  1  0
  4 22  1  0
 21 22  1  0
M  END
