piperidine-amides-27325-covalent
     RDKit          3D

 25 27  0  0  0  0  0  0  0  0999 V2000
    7.0260   -3.3670   19.3780 C   0  0  0  0  0  0  0  0  0  0  0  0
    6.3820   -4.2370   20.3670 C   0  0  0  0  0  0  0  0  0  0  0  0
    5.3620   -4.8610   19.9780 O   0  0  0  0  0  0  0  0  0  0  0  0
    6.9200   -4.3890   21.6490 N   0  0  0  0  0  0  0  0  0  0  0  0
    6.6390   -5.5590   22.4430 C   0  0  0  0  0  0  0  0  0  0  0  0
    5.8480   -5.1240   23.6490 C   0  0  0  0  0  0  0  0  0  0  0  0
    6.3870   -3.8680   24.2940 C   0  0  0  0  0  0  0  0  0  0  0  0
    5.3930   -3.3120   25.2560 C   0  0  0  0  0  0  0  0  0  0  0  0
    4.5800   -2.4810   24.8120 O   0  0  0  0  0  0  0  0  0  0  0  0
    5.2680   -3.6420   26.6370 N   0  0  0  0  0  0  0  0  0  0  0  0
    6.3380   -4.2990   27.3310 C   0  0  0  0  0  0  0  0  0  0  0  0
    5.9320   -4.6110   28.7010 C   0  0  0  0  0  0  0  0  0  0  0  0
    4.7980   -3.9770   28.8200 C   0  0  1  0  0  0  0  0  0  0  0  0
    4.3270   -3.3690   29.9660 C   0  0  0  0  0  0  0  0  0  0  0  0
    4.6510   -2.0940   30.3830 C   0  0  0  0  0  0  0  0  0  0  0  0
    4.1130   -1.5930   31.5440 C   0  0  0  0  0  0  0  0  0  0  0  0
    4.5780   -0.2870   31.7710 F   0  0  0  0  0  0  0  0  0  0  0  0
    3.2490   -2.3180   32.3290 C   0  0  0  0  0  0  0  0  0  0  0  0
    2.6960   -1.8760   33.4750 F   0  0  0  0  0  0  0  0  0  0  0  0
    2.8050   -3.7310   31.9960 C   0  0  0  0  0  0  0  0  0  0  0  0
    1.9170   -4.3950   32.8570 F   0  0  0  0  0  0  0  0  0  0  0  0
    3.4680   -4.1790   30.6840 C   0  0  0  0  0  0  0  0  0  0  0  0
    4.6650   -3.0080   27.8410 C   0  0  0  0  0  0  0  0  0  0  0  0
    6.7230   -2.8110   23.2750 C   0  0  0  0  0  0  0  0  0  0  0  0
    7.6140   -3.3060   22.3490 C   0  0  0  0  0  0  0  0  0  0  0  0
  1  2  1  0
  2  3  2  0
  2  4  1  0
  4  5  1  0
  5  6  1  0
  6  7  1  0
  7  8  1  0
  8  9  2  0
  8 10  1  0
 10 11  1  0
 11 12  1  0
 12 13  1  0
 13 14  1  1
 14 15  2  0
 15 16  1  0
 16 17  1  0
 16 18  2  0
 18 19  1  0
 18 20  1  0
 20 21  1  0
 14 22  1  0
 20 22  2  0
 10 23  1  0
 13 23  1  0
  7 24  1  0
  4 25  1  0
 24 25  1  0
M  END
