piperidine-amides-9893-covalent
     RDKit          3D

 27 28  0  0  0  0  0  0  0  0999 V2000
    7.1090   -3.2660   19.1920 C   0  0  0  0  0  0  0  0  0  0  0  0
    6.3510   -4.0130   20.2020 C   0  0  0  0  0  0  0  0  0  0  0  0
    5.2470   -4.4880   19.8500 O   0  0  0  0  0  0  0  0  0  0  0  0
    6.8790   -4.2180   21.4740 N   0  0  0  0  0  0  0  0  0  0  0  0
    7.7090   -3.2240   22.1100 C   0  0  0  0  0  0  0  0  0  0  0  0
    6.9730   -2.7080   23.3020 C   0  0  0  0  0  0  0  0  0  0  0  0
    6.5920   -3.8350   24.2140 C   0  0  0  0  0  0  0  0  0  0  0  0
    5.8860   -3.2970   25.3880 C   0  0  0  0  0  0  0  0  0  0  0  0
    4.6350   -3.3070   25.4050 O   0  0  0  0  0  0  0  0  0  0  0  0
    6.5940   -2.7520   26.4700 N   0  0  0  0  0  0  0  0  0  0  0  0
    6.3070   -3.0680   27.8430 C   0  0  0  0  0  0  0  0  0  0  0  0
    5.7410   -4.4480   28.1380 C   0  0  0  0  0  0  0  0  0  0  0  0
    5.1220   -5.3100   27.2680 C   0  0  0  0  0  0  0  0  0  0  0  0
    4.6380   -6.5190   27.6910 C   0  0  0  0  0  0  0  0  0  0  0  0
    4.7890   -6.8500   29.0220 C   0  0  0  0  0  0  0  0  0  0  0  0
    4.2890   -8.0320   29.4640 O   0  0  0  0  0  0  0  0  0  0  0  0
    2.8750   -8.1250   29.4800 C   0  0  0  0  0  0  0  0  0  0  0  0
    5.4230   -5.9900   29.8760 C   0  0  0  0  0  0  0  0  0  0  0  0
    5.6090   -6.2860   31.2170 O   0  0  0  0  0  0  0  0  0  0  0  0
    4.4070   -6.5980   31.8490 C   0  0  2  0  0  0  0  0  0  0  0  0
    4.1530   -5.6680   33.0390 C   0  0  0  0  0  0  0  0  0  0  0  0
    2.8080   -5.4180   33.3600 N   0  0  0  0  0  0  0  0  0  0  0  0
    4.1690   -7.9270   32.0970 C   0  0  0  0  0  0  0  0  0  0  0  0
    2.9670   -8.4050   32.8890 C   0  0  0  0  0  0  0  0  0  0  0  0
    5.8740   -4.7870   29.3400 C   0  0  0  0  0  0  0  0  0  0  0  0
    5.7250   -4.8270   23.4600 C   0  0  0  0  0  0  0  0  0  0  0  0
    6.5010   -5.3680   22.2710 C   0  0  0  0  0  0  0  0  0  0  0  0
  1  2  1  0
  2  3  2  0
  2  4  1  0
  4  5  1  0
  5  6  1  0
  6  7  1  0
  7  8  1  0
  8  9  2  0
  8 10  1  0
 10 11  1  0
 11 12  1  0
 12 13  2  0
 13 14  1  0
 14 15  2  0
 15 16  1  0
 16 17  1  0
 15 18  1  0
 18 19  1  0
 19 20  1  0
 20 21  1  1
 21 22  3  0
 20 23  1  0
 23 24  1  0
 12 25  1  0
 18 25  2  0
  7 26  1  0
  4 27  1  0
 26 27  1  0
M  END
