piperidine-amides-16206-covalent
     RDKit          3D

 19 20  0  0  0  0  0  0  0  0999 V2000
    7.0820   -3.3410   19.2810 C   0  0  0  0  0  0  0  0  0  0  0  0
    6.3400   -4.1400   20.2850 C   0  0  0  0  0  0  0  0  0  0  0  0
    5.2880   -4.6550   19.9180 O   0  0  0  0  0  0  0  0  0  0  0  0
    6.8690   -4.3260   21.5610 N   0  0  0  0  0  0  0  0  0  0  0  0
    6.6160   -5.5160   22.3240 C   0  0  0  0  0  0  0  0  0  0  0  0
    5.8870   -5.1300   23.5750 C   0  0  0  0  0  0  0  0  0  0  0  0
    6.6840   -4.0710   24.3470 C   0  0  0  0  0  0  0  0  0  0  0  0
    5.8650   -3.7320   25.5290 C   0  0  0  0  0  0  0  0  0  0  0  0
    4.6690   -3.3880   25.4040 O   0  0  0  0  0  0  0  0  0  0  0  0
    6.4080   -3.8060   26.8250 N   0  0  0  0  0  0  0  0  0  0  0  0
    5.4760   -3.4930   27.8840 C   0  0  0  0  0  0  0  0  0  0  0  0
    5.4210   -4.8550   28.5050 C   0  0  0  0  0  0  0  0  0  0  0  0
    6.3590   -5.6900   28.0010 C   0  0  0  0  0  0  0  0  0  0  0  0
    7.1630   -4.9620   27.2190 C   0  0  1  0  0  0  0  0  0  0  0  0
    8.2780   -5.4560   26.5770 C   0  0  0  0  0  0  0  0  0  0  0  0
    8.3980   -4.6990   27.7940 C   0  0  0  0  0  0  0  0  0  0  0  0
    8.4040   -3.4760   28.4210 O   0  0  0  0  0  0  0  0  0  0  0  0
    7.0290   -2.8790   23.5130 C   0  0  0  0  0  0  0  0  0  0  0  0
    7.6180   -3.2550   22.1880 C   0  0  0  0  0  0  0  0  0  0  0  0
  1  2  1  0
  2  3  2  0
  2  4  1  0
  4  5  1  0
  5  6  1  0
  6  7  1  0
  7  8  1  0
  8  9  2  0
  8 10  1  0
 10 11  1  0
 11 12  1  0
 12 13  1  0
 10 14  1  0
 13 14  1  0
 14 15  1  6
 14 16  1  0
 16 17  1  0
  7 18  1  0
  4 19  1  0
 18 19  1  0
M  END
