piperidine-amides-29134-covalent
     RDKit          3D

 26 27  0  0  0  0  0  0  0  0999 V2000
    7.0070   -3.3640   19.4110 C   0  0  0  0  0  0  0  0  0  0  0  0
    6.3650   -4.2430   20.3920 C   0  0  0  0  0  0  0  0  0  0  0  0
    5.4050   -4.9340   20.0010 O   0  0  0  0  0  0  0  0  0  0  0  0
    6.8510   -4.3180   21.7260 N   0  0  0  0  0  0  0  0  0  0  0  0
    6.6120   -5.5250   22.4840 C   0  0  0  0  0  0  0  0  0  0  0  0
    6.1240   -5.2110   23.8840 C   0  0  0  0  0  0  0  0  0  0  0  0
    6.0390   -3.7050   24.0060 C   0  0  0  0  0  0  0  0  0  0  0  0
    5.3810   -3.1740   25.2620 C   0  0  0  0  0  0  0  0  0  0  0  0
    5.0050   -2.0150   25.1740 O   0  0  0  0  0  0  0  0  0  0  0  0
    5.1920   -3.9400   26.4180 N   0  0  0  0  0  0  0  0  0  0  0  0
    3.9290   -4.0210   27.0430 C   0  0  0  0  0  0  0  0  0  0  0  0
    3.9630   -3.9480   28.4240 C   0  0  0  0  0  0  0  0  0  0  0  0
    5.0240   -3.2840   28.8910 C   0  0  0  0  0  0  0  0  0  0  0  0
    6.2210   -3.7520   28.5570 C   0  0  1  0  0  0  0  0  0  0  0  0
    6.9140   -2.4380   28.8230 C   0  0  0  0  0  0  0  0  0  0  0  0
    6.3150   -1.4800   29.8810 C   0  0  0  0  0  0  0  0  0  0  0  0
    6.3960   -4.8800   29.3490 C   0  0  0  0  0  0  0  0  0  0  0  0
    7.5130   -5.3800   29.1950 O   0  0  0  0  0  0  0  0  0  0  0  0
    5.5020   -5.4650   30.2350 O   0  0  0  0  0  0  0  0  0  0  0  0
    5.1990   -6.8450   30.2090 C   0  0  0  0  0  0  0  0  0  0  0  0
    5.4800   -7.4150   31.6200 C   0  0  0  0  0  0  0  0  0  0  0  0
    5.9420   -7.5670   29.3270 C   0  0  0  0  0  0  0  0  0  0  0  0
    3.7280   -7.1370   29.9380 C   0  0  0  0  0  0  0  0  0  0  0  0
    6.3250   -4.0970   27.2510 C   0  0  0  0  0  0  0  0  0  0  0  0
    7.4400   -3.1390   23.7620 C   0  0  0  0  0  0  0  0  0  0  0  0
    7.6860   -3.2880   22.2810 C   0  0  0  0  0  0  0  0  0  0  0  0
  1  2  1  0
  2  3  2  0
  2  4  1  0
  4  5  1  0
  5  6  1  0
  6  7  1  0
  7  8  1  0
  8  9  2  0
  8 10  1  0
 10 11  1  0
 11 12  1  0
 12 13  1  0
 13 14  1  0
 14 15  1  1
 15 16  1  0
 14 17  1  0
 17 18  2  0
 17 19  1  0
 20 19  1  0
 20 21  1  0
 20 22  1  0
 20 23  1  0
 10 24  1  0
 14 24  1  0
  7 25  1  0
  4 26  1  0
 25 26  1  0
M  END
