piperidine-amides-11698-covalent
     RDKit          3D

 29 31  0  0  0  0  0  0  0  0999 V2000
    7.1930   -3.2710   19.1780 C   0  0  0  0  0  0  0  0  0  0  0  0
    6.3810   -3.9720   20.1580 C   0  0  0  0  0  0  0  0  0  0  0  0
    5.2900   -4.4490   19.8510 O   0  0  0  0  0  0  0  0  0  0  0  0
    6.9100   -4.1550   21.4720 N   0  0  0  0  0  0  0  0  0  0  0  0
    6.6140   -5.3490   22.2170 C   0  0  0  0  0  0  0  0  0  0  0  0
    5.9610   -4.9550   23.5040 C   0  0  0  0  0  0  0  0  0  0  0  0
    5.9740   -3.4360   23.5690 C   0  0  0  0  0  0  0  0  0  0  0  0
    5.4710   -3.0000   24.8830 C   0  0  0  0  0  0  0  0  0  0  0  0
    4.7310   -2.0130   25.0490 O   0  0  0  0  0  0  0  0  0  0  0  0
    5.8450   -3.7580   25.9870 N   0  0  0  0  0  0  0  0  0  0  0  0
    4.8050   -4.5070   26.6320 C   0  0  2  0  0  0  0  0  0  0  0  0
    5.2340   -4.4480   28.0120 C   0  0  0  0  0  0  0  0  0  0  0  0
    6.5000   -4.7480   27.9970 C   0  0  0  0  0  0  0  0  0  0  0  0
    6.9130   -5.8980   27.2710 C   0  0  0  0  0  0  0  0  0  0  0  0
    8.2280   -6.2260   27.2250 C   0  0  0  0  0  0  0  0  0  0  0  0
    9.0910   -5.4200   27.9080 C   0  0  0  0  0  0  0  0  0  0  0  0
    8.6860   -4.3420   28.5800 C   0  0  0  0  0  0  0  0  0  0  0  0
    7.4060   -3.9910   28.6290 C   0  0  0  0  0  0  0  0  0  0  0  0
    4.4580   -5.7620   26.2770 C   0  0  0  0  0  0  0  0  0  0  0  0
    5.0180   -6.3950   25.2070 O   0  0  0  0  0  0  0  0  0  0  0  0
    3.5360   -6.3810   27.0140 N   0  0  0  0  0  0  0  0  0  0  0  0
    2.8090   -7.3280   26.3660 C   0  0  0  0  0  0  0  0  0  0  0  0
    2.0190   -8.3340   26.9650 C   0  0  0  0  0  0  0  0  0  0  0  0
    1.2790   -9.2980   26.2670 C   0  0  0  0  0  0  0  0  0  0  0  0
    1.2640   -9.3380   24.7970 C   0  0  0  0  0  0  0  0  0  0  0  0
    2.0850   -8.2940   24.0920 C   0  0  0  0  0  0  0  0  0  0  0  0
    2.8440   -7.3040   24.9320 C   0  0  0  0  0  0  0  0  0  0  0  0
    7.3000   -2.8140   23.3180 C   0  0  0  0  0  0  0  0  0  0  0  0
    7.7330   -3.1280   22.0420 C   0  0  0  0  0  0  0  0  0  0  0  0
  1  2  1  0
  2  3  2  0
  2  4  1  0
  4  5  1  0
  5  6  1  0
  6  7  1  0
  7  8  1  0
  8  9  2  0
  8 10  1  0
 10 11  1  0
 11 12  1  1
 12 13  1  0
 13 14  2  0
 14 15  1  0
 15 16  2  0
 16 17  1  0
 13 18  1  0
 17 18  2  0
 11 19  1  0
 19 20  2  0
 19 21  1  0
 21 22  1  0
 22 23  2  0
 23 24  1  0
 24 25  2  0
 25 26  1  0
 22 27  1  0
 26 27  2  0
  7 28  1  0
  4 29  1  0
 28 29  1  0
M  END
