piperidine-amides-8363-covalent
     RDKit          3D

 24 25  0  0  0  0  0  0  0  0999 V2000
    7.0340   -3.3520   19.3820 C   0  0  0  0  0  0  0  0  0  0  0  0
    6.3220   -4.1630   20.3700 C   0  0  0  0  0  0  0  0  0  0  0  0
    5.3660   -4.8530   19.9770 O   0  0  0  0  0  0  0  0  0  0  0  0
    6.7400   -4.1830   21.7250 N   0  0  0  0  0  0  0  0  0  0  0  0
    7.6650   -3.1810   22.1760 C   0  0  0  0  0  0  0  0  0  0  0  0
    7.5260   -3.0950   23.6510 C   0  0  0  0  0  0  0  0  0  0  0  0
    6.1160   -3.5610   23.8820 C   0  0  0  0  0  0  0  0  0  0  0  0
    5.6760   -3.2380   25.2760 C   0  0  0  0  0  0  0  0  0  0  0  0
    4.4820   -3.3940   25.5300 O   0  0  0  0  0  0  0  0  0  0  0  0
    6.6400   -2.7840   26.1600 N   0  0  0  0  0  0  0  0  0  0  0  0
    6.4820   -1.6230   26.9680 C   0  0  0  0  0  0  0  0  0  0  0  0
    6.9240   -1.5120   28.3010 C   0  0  0  0  0  0  0  0  0  0  0  0
    6.7300   -0.3780   28.9880 C   0  0  0  0  0  0  0  0  0  0  0  0
    7.0840   -0.0610   30.2810 C   0  0  0  0  0  0  0  0  0  0  0  0
    6.1880   -0.4620   31.2640 O   0  0  0  0  0  0  0  0  0  0  0  0
    8.1300    0.5540   30.5470 O   0  0  0  0  0  0  0  0  0  0  0  0
    8.1180    1.3920   31.6940 C   0  0  0  0  0  0  0  0  0  0  0  0
    8.4490    0.5990   32.9820 C   0  0  0  0  0  0  0  0  0  0  0  0
    6.0530    0.8080   28.4080 C   0  0  0  0  0  0  0  0  0  0  0  0
    5.5660    0.8050   27.0700 N   0  0  0  0  0  0  0  0  0  0  0  0
    5.7630   -0.4180   26.2880 C   0  0  0  0  0  0  0  0  0  0  0  0
    5.3100   -0.6350   24.8190 C   0  0  0  0  0  0  0  0  0  0  0  0
    6.0290   -5.0670   23.7090 C   0  0  0  0  0  0  0  0  0  0  0  0
    6.6340   -5.4030   22.4990 C   0  0  0  0  0  0  0  0  0  0  0  0
  1  2  1  0
  2  3  2  0
  2  4  1  0
  4  5  1  0
  5  6  1  0
  6  7  1  0
  7  8  1  0
  8  9  2  0
  8 10  1  0
 10 11  1  0
 11 12  2  0
 12 13  1  0
 13 14  1  0
 14 15  2  0
 14 16  1  0
 16 17  1  0
 17 18  1  0
 13 19  2  0
 19 20  1  0
 11 21  1  0
 20 21  2  0
 21 22  1  0
  7 23  1  0
  4 24  1  0
 23 24  1  0
M  END
