piperidine-amides-14480-covalent
     RDKit          3D

 23 25  0  0  0  0  0  0  0  0999 V2000
    7.0700   -3.2870   19.2630 C   0  0  0  0  0  0  0  0  0  0  0  0
    6.3630   -4.0530   20.2920 C   0  0  0  0  0  0  0  0  0  0  0  0
    5.3530   -4.6960   19.9430 O   0  0  0  0  0  0  0  0  0  0  0  0
    6.8360   -4.0910   21.6340 N   0  0  0  0  0  0  0  0  0  0  0  0
    7.7660   -3.0870   22.0980 C   0  0  0  0  0  0  0  0  0  0  0  0
    7.5760   -2.9060   23.5620 C   0  0  0  0  0  0  0  0  0  0  0  0
    6.1710   -3.3770   23.7820 C   0  0  0  0  0  0  0  0  0  0  0  0
    5.6590   -2.9740   25.1340 C   0  0  0  0  0  0  0  0  0  0  0  0
    4.4790   -2.6290   25.1810 O   0  0  0  0  0  0  0  0  0  0  0  0
    6.5060   -3.0100   26.2350 N   0  0  0  0  0  0  0  0  0  0  0  0
    6.0540   -3.5600   27.4670 C   0  0  0  0  0  0  0  0  0  0  0  0
    5.3640   -4.7820   27.3320 C   0  0  0  0  0  0  0  0  0  0  0  0
    4.7880   -5.1720   26.1210 C   0  0  0  0  0  0  0  0  0  0  0  0
    4.0710   -6.3630   25.8530 C   0  0  0  0  0  0  0  0  0  0  0  0
    3.3550   -6.8170   24.2970 Cl  0  0  0  0  0  0  0  0  0  0  0  0
    3.9470   -7.2660   27.0380 C   0  0  0  0  0  0  0  0  0  0  0  0
    4.5810   -6.8320   28.3500 C   0  0  0  0  0  0  0  0  0  0  0  0
    5.2690   -5.5850   28.4240 C   0  0  0  0  0  0  0  0  0  0  0  0
    5.7450   -5.3500   29.5800 O   0  0  0  0  0  0  0  0  0  0  0  0
    5.3130   -6.4020   30.4410 C   0  0  0  0  0  0  0  0  0  0  0  0
    4.6180   -7.4570   29.5440 C   0  0  0  0  0  0  0  0  0  0  0  0
    6.1310   -4.8890   23.6690 C   0  0  0  0  0  0  0  0  0  0  0  0
    6.6470   -5.2770   22.4410 C   0  0  0  0  0  0  0  0  0  0  0  0
  1  2  1  0
  2  3  2  0
  2  4  1  0
  4  5  1  0
  5  6  1  0
  6  7  1  0
  7  8  1  0
  8  9  2  0
  8 10  1  0
 10 11  1  0
 11 12  1  0
 12 13  2  0
 13 14  1  0
 14 15  1  0
 14 16  2  0
 16 17  1  0
 12 18  1  0
 17 18  2  0
 18 19  1  0
 19 20  1  0
 17 21  1  0
 20 21  1  0
  7 22  1  0
  4 23  1  0
 22 23  1  0
M  END
