piperidine-amides-17121-covalent
     RDKit          3D

 20 21  0  0  0  0  0  0  0  0999 V2000
    7.0200   -3.3910   19.4100 C   0  0  0  0  0  0  0  0  0  0  0  0
    6.4060   -4.2730   20.4180 C   0  0  0  0  0  0  0  0  0  0  0  0
    5.4270   -4.9550   20.0150 O   0  0  0  0  0  0  0  0  0  0  0  0
    6.9200   -4.3780   21.7510 N   0  0  0  0  0  0  0  0  0  0  0  0
    6.5690   -5.5170   22.5450 C   0  0  0  0  0  0  0  0  0  0  0  0
    6.0470   -5.1660   23.8710 C   0  0  0  0  0  0  0  0  0  0  0  0
    6.0060   -3.7090   24.0720 C   0  0  0  0  0  0  0  0  0  0  0  0
    5.2190   -3.2060   25.2790 C   0  0  0  0  0  0  0  0  0  0  0  0
    4.3490   -2.3590   25.0450 O   0  0  0  0  0  0  0  0  0  0  0  0
    5.3440   -3.5800   26.6460 N   0  0  0  0  0  0  0  0  0  0  0  0
    6.4670   -3.4130   27.3980 C   0  0  0  0  0  0  0  0  0  0  0  0
    6.7770   -4.4450   28.3870 C   0  0  0  0  0  0  0  0  0  0  0  0
    5.5770   -4.4000   29.2950 C   0  0  0  0  0  0  0  0  0  0  0  0
    5.1640   -5.5690   29.8960 C   0  0  0  0  0  0  0  0  0  0  0  0
    6.1810   -6.4560   30.1290 O   0  0  0  0  0  0  0  0  0  0  0  0
    5.8140   -7.6990   29.6510 C   0  0  0  0  0  0  0  0  0  0  0  0
    4.3020   -4.4000   28.5800 C   0  0  0  0  0  0  0  0  0  0  0  0
    4.2130   -3.3230   27.4830 C   0  0  0  0  0  0  0  0  0  0  0  0
    7.3400   -3.0590   23.8180 C   0  0  0  0  0  0  0  0  0  0  0  0
    7.6790   -3.2770   22.3430 C   0  0  0  0  0  0  0  0  0  0  0  0
  1  2  1  0
  2  3  2  0
  2  4  1  0
  4  5  1  0
  5  6  1  0
  6  7  1  0
  7  8  1  0
  8  9  2  0
  8 10  1  0
 10 11  1  0
 11 12  1  0
 12 13  1  0
 13 14  1  0
 14 15  1  0
 15 16  1  0
 13 17  1  0
 10 18  1  0
 17 18  1  0
  7 19  1  0
  4 20  1  0
 19 20  1  0
M  END
