piperidine-amides-12604-covalent
     RDKit          3D

 23 25  0  0  0  0  0  0  0  0999 V2000
    7.0990   -3.2670   19.2120 C   0  0  0  0  0  0  0  0  0  0  0  0
    6.2780   -3.9770   20.2200 C   0  0  0  0  0  0  0  0  0  0  0  0
    5.2140   -4.4900   19.8410 O   0  0  0  0  0  0  0  0  0  0  0  0
    6.7200   -4.0870   21.5330 N   0  0  0  0  0  0  0  0  0  0  0  0
    7.4260   -3.0120   22.1190 C   0  0  0  0  0  0  0  0  0  0  0  0
    6.7790   -2.5270   23.3280 C   0  0  0  0  0  0  0  0  0  0  0  0
    5.7800   -3.4510   23.9200 C   0  0  0  0  0  0  0  0  0  0  0  0
    5.7230   -3.2310   25.3890 C   0  0  0  0  0  0  0  0  0  0  0  0
    4.6000   -3.0510   25.8990 O   0  0  0  0  0  0  0  0  0  0  0  0
    6.8810   -3.2180   26.1960 N   0  0  0  0  0  0  0  0  0  0  0  0
    7.7080   -4.4270   26.4240 C   0  0  0  0  0  0  0  0  0  0  0  0
    8.7310   -4.6250   25.3470 C   0  0  1  0  0  0  0  0  0  0  0  0
    8.9250   -3.5610   24.3430 C   0  0  0  0  0  0  0  0  0  0  0  0
   10.1800   -3.0320   24.1130 C   0  0  0  0  0  0  0  0  0  0  0  0
   10.5060   -2.2370   23.0180 C   0  0  0  0  0  0  0  0  0  0  0  0
   11.7760   -1.7430   22.8560 C   0  0  0  0  0  0  0  0  0  0  0  0
   12.7390   -2.0300   23.7800 C   0  0  0  0  0  0  0  0  0  0  0  0
   12.4340   -2.8050   24.8510 C   0  0  0  0  0  0  0  0  0  0  0  0
   11.1450   -3.3080   25.0130 C   0  0  0  0  0  0  0  0  0  0  0  0
   10.7640   -4.1460   26.1440 C   0  0  0  0  0  0  0  0  0  0  0  0
   10.0660   -4.9030   25.7120 N   0  0  0  0  0  0  0  0  0  0  0  0
    5.9390   -4.9200   23.6390 C   0  0  0  0  0  0  0  0  0  0  0  0
    6.5470   -5.2930   22.3040 C   0  0  0  0  0  0  0  0  0  0  0  0
  1  2  1  0
  2  3  2  0
  2  4  1  0
  4  5  1  0
  5  6  1  0
  6  7  1  0
  7  8  1  0
  8  9  2  0
  8 10  1  0
 10 11  1  0
 12 11  1  1
 12 13  1  0
 13 14  1  0
 14 15  2  0
 15 16  1  0
 16 17  2  0
 17 18  1  0
 14 19  1  0
 18 19  2  0
 19 20  1  0
 12 21  1  0
 20 21  1  0
  7 22  1  0
  4 23  1  0
 22 23  1  0
M  END
