piperidine-amides-35077-covalent
     RDKit          3D

 28 30  0  0  0  0  0  0  0  0999 V2000
    7.1330   -3.3340   19.2380 C   0  0  0  0  0  0  0  0  0  0  0  0
    6.3910   -4.1250   20.2490 C   0  0  0  0  0  0  0  0  0  0  0  0
    5.3160   -4.6100   19.9070 O   0  0  0  0  0  0  0  0  0  0  0  0
    6.9520   -4.3490   21.5000 N   0  0  0  0  0  0  0  0  0  0  0  0
    6.5450   -5.4760   22.2820 C   0  0  0  0  0  0  0  0  0  0  0  0
    5.7920   -4.9520   23.4690 C   0  0  0  0  0  0  0  0  0  0  0  0
    6.6590   -3.9250   24.2100 C   0  0  0  0  0  0  0  0  0  0  0  0
    5.8820   -3.4420   25.3630 C   0  0  0  0  0  0  0  0  0  0  0  0
    4.9450   -2.6560   25.1760 O   0  0  0  0  0  0  0  0  0  0  0  0
    6.1760   -3.8640   26.6620 N   0  0  0  0  0  0  0  0  0  0  0  0
    5.9940   -2.8960   27.7270 C   0  0  0  0  0  0  0  0  0  0  0  0
    5.6160   -3.7860   28.8390 C   0  0  0  0  0  0  0  0  0  0  0  0
    5.5060   -5.0500   28.4320 C   0  0  1  0  0  0  0  0  0  0  0  0
    5.7570   -6.0180   29.3440 C   0  0  0  0  0  0  0  0  0  0  0  0
    4.5990   -6.4860   29.9250 C   0  0  0  0  0  0  0  0  0  0  0  0
    3.9500   -7.8340   29.9320 C   0  0  0  0  0  0  0  0  0  0  0  0
    2.6820   -7.9070   30.7130 C   0  0  0  0  0  0  0  0  0  0  0  0
    2.1470   -6.6850   31.4210 C   0  0  0  0  0  0  0  0  0  0  0  0
    2.9070   -5.3950   31.3230 C   0  0  0  0  0  0  0  0  0  0  0  0
    2.0950   -3.9370   32.2800 Br  0  0  0  0  0  0  0  0  0  0  0  0
    4.1840   -5.1980   30.5670 C   0  0  0  0  0  0  0  0  0  0  0  0
    4.0230   -4.9260   28.1870 C   0  0  0  0  0  0  0  0  0  0  0  0
    3.3740   -3.8050   28.6940 O   0  0  0  0  0  0  0  0  0  0  0  0
    3.3470   -5.8410   27.4980 O   0  0  0  0  0  0  0  0  0  0  0  0
    3.8290   -7.1610   27.2570 C   0  0  0  0  0  0  0  0  0  0  0  0
    5.9250   -5.2430   27.1510 C   0  0  0  0  0  0  0  0  0  0  0  0
    6.9800   -2.7690   23.3140 C   0  0  0  0  0  0  0  0  0  0  0  0
    7.6730   -3.2570   22.0860 C   0  0  0  0  0  0  0  0  0  0  0  0
  1  2  1  0
  2  3  2  0
  2  4  1  0
  4  5  1  0
  5  6  1  0
  6  7  1  0
  7  8  1  0
  8  9  2  0
  8 10  1  0
 10 11  1  0
 11 12  1  0
 12 13  1  0
 13 14  1  1
 14 15  1  0
 15 16  2  0
 16 17  1  0
 17 18  2  0
 18 19  1  0
 19 20  1  0
 15 21  1  0
 19 21  2  0
 13 22  1  0
 22 23  2  0
 22 24  1  0
 24 25  1  0
 10 26  1  0
 13 26  1  0
  7 27  1  0
  4 28  1  0
 27 28  1  0
M  END
