piperidine-amides-23776-covalent
     RDKit          3D

 24 26  0  0  0  0  0  0  0  0999 V2000
    7.0750   -3.3570   19.3510 C   0  0  0  0  0  0  0  0  0  0  0  0
    6.4350   -4.2220   20.3540 C   0  0  0  0  0  0  0  0  0  0  0  0
    5.4070   -4.8460   19.9880 O   0  0  0  0  0  0  0  0  0  0  0  0
    7.0020   -4.3750   21.6510 N   0  0  0  0  0  0  0  0  0  0  0  0
    6.6500   -5.5290   22.4140 C   0  0  0  0  0  0  0  0  0  0  0  0
    6.0580   -5.1730   23.6910 C   0  0  0  0  0  0  0  0  0  0  0  0
    6.1110   -3.7220   23.8860 C   0  0  0  0  0  0  0  0  0  0  0  0
    5.5500   -3.2820   25.2020 C   0  0  0  0  0  0  0  0  0  0  0  0
    4.6600   -2.4190   25.2120 O   0  0  0  0  0  0  0  0  0  0  0  0
    5.9690   -3.8060   26.4230 N   0  0  0  0  0  0  0  0  0  0  0  0
    5.4690   -4.9350   27.0970 C   0  0  0  0  0  0  0  0  0  0  0  0
    5.8210   -4.9000   28.4800 C   0  0  2  0  0  0  0  0  0  0  0  0
    4.5220   -4.9050   29.3010 C   0  0  0  0  0  0  0  0  0  0  0  0
    6.6000   -3.7130   28.7190 C   0  0  0  0  0  0  0  0  0  0  0  0
    6.4870   -2.8790   27.4370 C   0  0  2  0  0  0  0  0  0  0  0  0
    5.3660   -2.1250   28.0630 C   0  0  0  0  0  0  0  0  0  0  0  0
    6.1480   -1.3430   29.0960 C   0  0  0  0  0  0  0  0  0  0  0  0
    5.4710   -0.3940   30.0310 C   0  0  0  0  0  0  0  0  0  0  0  0
    3.9540   -0.2720   29.8700 C   0  0  0  0  0  0  0  0  0  0  0  0
    3.1800   -1.0950   28.7920 C   0  0  0  0  0  0  0  0  0  0  0  0
    1.8110   -0.8970   28.7450 F   0  0  0  0  0  0  0  0  0  0  0  0
    4.0070   -2.0030   27.9330 C   0  0  0  0  0  0  0  0  0  0  0  0
    7.4600   -3.1670   23.6020 C   0  0  0  0  0  0  0  0  0  0  0  0
    7.7330   -3.2660   22.2450 C   0  0  0  0  0  0  0  0  0  0  0  0
  1  2  1  0
  2  3  2  0
  2  4  1  0
  4  5  1  0
  5  6  1  0
  6  7  1  0
  7  8  1  0
  8  9  2  0
  8 10  1  0
 10 11  1  0
 11 12  1  0
 12 13  1  1
 12 14  1  0
 10 15  1  0
 14 15  1  0
 15 16  1  1
 16 17  2  0
 17 18  1  0
 18 19  2  0
 19 20  1  0
 20 21  1  0
 16 22  1  0
 20 22  2  0
  7 23  1  0
  4 24  1  0
 23 24  1  0
M  END
