piperidine-amides-7229-covalent
     RDKit          3D

 20 21  0  0  0  0  0  0  0  0999 V2000
    7.1780   -3.2750   19.1670 C   0  0  0  0  0  0  0  0  0  0  0  0
    6.3910   -3.9750   20.1810 C   0  0  0  0  0  0  0  0  0  0  0  0
    5.2710   -4.4290   19.8370 O   0  0  0  0  0  0  0  0  0  0  0  0
    6.9350   -4.1580   21.4440 N   0  0  0  0  0  0  0  0  0  0  0  0
    7.6920   -3.1140   22.0920 C   0  0  0  0  0  0  0  0  0  0  0  0
    6.9330   -2.7010   23.3150 C   0  0  0  0  0  0  0  0  0  0  0  0
    6.5500   -3.9090   24.1140 C   0  0  0  0  0  0  0  0  0  0  0  0
    5.7770   -3.5510   25.3150 C   0  0  0  0  0  0  0  0  0  0  0  0
    5.0550   -2.5290   25.2980 O   0  0  0  0  0  0  0  0  0  0  0  0
    5.8180   -4.3540   26.4550 N   0  0  0  0  0  0  0  0  0  0  0  0
    5.8540   -3.8260   27.7830 C   0  0  1  0  0  0  0  0  0  0  0  0
    6.6010   -4.8240   28.6560 C   0  0  0  0  0  0  0  0  0  0  0  0
    6.8010   -5.9900   28.2320 O   0  0  0  0  0  0  0  0  0  0  0  0
    6.3650   -2.4370   27.8600 C   0  0  1  0  0  0  0  0  0  0  0  0
    5.5160   -1.3450   27.8480 C   0  0  0  0  0  0  0  0  0  0  0  0
    5.8010   -0.5260   28.8930 C   0  0  0  0  0  0  0  0  0  0  0  0
    6.7900   -1.1600   29.5810 C   0  0  0  0  0  0  0  0  0  0  0  0
    7.1240   -2.2470   29.0180 O   0  0  0  0  0  0  0  0  0  0  0  0
    5.6690   -4.8880   23.3540 C   0  0  0  0  0  0  0  0  0  0  0  0
    6.4690   -5.3340   22.1660 C   0  0  0  0  0  0  0  0  0  0  0  0
  1  2  1  0
  2  3  2  0
  2  4  1  0
  4  5  1  0
  5  6  1  0
  6  7  1  0
  7  8  1  0
  8  9  2  0
  8 10  1  0
 10 11  1  0
 11 12  1  1
 12 13  1  0
 11 14  1  0
 14 15  1  1
 15 16  1  0
 16 17  1  0
 14 18  1  0
 17 18  1  0
  7 19  1  0
  4 20  1  0
 19 20  1  0
M  END
