piperidine-amides-8967-covalent
     RDKit          3D

 22 23  0  0  0  0  0  0  0  0999 V2000
    7.1620   -3.3110   19.2540 C   0  0  0  0  0  0  0  0  0  0  0  0
    6.3890   -4.0410   20.2510 C   0  0  0  0  0  0  0  0  0  0  0  0
    5.3200   -4.5780   19.9090 O   0  0  0  0  0  0  0  0  0  0  0  0
    6.8740   -4.1960   21.5600 N   0  0  0  0  0  0  0  0  0  0  0  0
    7.7450   -3.2400   22.1900 C   0  0  0  0  0  0  0  0  0  0  0  0
    6.9700   -2.7110   23.3600 C   0  0  0  0  0  0  0  0  0  0  0  0
    6.2470   -3.7690   24.1550 C   0  0  0  0  0  0  0  0  0  0  0  0
    5.0990   -3.1760   24.8760 C   0  0  0  0  0  0  0  0  0  0  0  0
    3.9620   -3.1410   24.3370 O   0  0  0  0  0  0  0  0  0  0  0  0
    5.1640   -2.6460   26.1660 N   0  0  0  0  0  0  0  0  0  0  0  0
    5.0110   -3.5630   27.2930 C   0  0  1  0  0  0  0  0  0  0  0  0
    4.3650   -4.8330   26.8880 C   0  0  0  0  0  0  0  0  0  0  0  0
    6.3640   -4.0070   27.6020 C   0  0  0  0  0  0  0  0  0  0  0  0
    6.4890   -5.3070   26.8900 C   0  0  0  0  0  0  0  0  0  0  0  0
    7.8050   -5.9460   27.0570 C   0  0  0  0  0  0  0  0  0  0  0  0
    8.7180   -5.1930   27.8820 C   0  0  0  0  0  0  0  0  0  0  0  0
    9.8750   -5.8660   27.9610 F   0  0  0  0  0  0  0  0  0  0  0  0
    8.4680   -3.9970   28.4830 C   0  0  0  0  0  0  0  0  0  0  0  0
    7.2680   -3.3790   28.3450 C   0  0  0  0  0  0  0  0  0  0  0  0
    6.8900   -1.8180   29.0920 Cl  0  0  0  0  0  0  0  0  0  0  0  0
    5.6300   -4.9510   23.3660 C   0  0  0  0  0  0  0  0  0  0  0  0
    6.5950   -5.4040   22.2730 C   0  0  0  0  0  0  0  0  0  0  0  0
  1  2  1  0
  2  3  2  0
  2  4  1  0
  4  5  1  0
  5  6  1  0
  6  7  1  0
  7  8  1  0
  8  9  2  0
  8 10  1  0
 10 11  1  0
 11 12  1  6
 11 13  1  0
 13 14  2  0
 14 15  1  0
 15 16  2  0
 16 17  1  0
 16 18  1  0
 13 19  1  0
 18 19  2  0
 19 20  1  0
  7 21  1  0
  4 22  1  0
 21 22  1  0
M  END
