piperidine-amides-1345-covalent
     RDKit          3D

 22 23  0  0  0  0  0  0  0  0999 V2000
    7.0730   -3.3340   19.3030 C   0  0  0  0  0  0  0  0  0  0  0  0
    6.3810   -4.1840   20.3130 C   0  0  0  0  0  0  0  0  0  0  0  0
    5.3680   -4.8170   19.9730 O   0  0  0  0  0  0  0  0  0  0  0  0
    6.9200   -4.2830   21.6140 N   0  0  0  0  0  0  0  0  0  0  0  0
    7.7600   -3.2470   22.1680 C   0  0  0  0  0  0  0  0  0  0  0  0
    6.9830   -2.6320   23.3190 C   0  0  0  0  0  0  0  0  0  0  0  0
    6.5410   -3.7740   24.1560 C   0  0  0  0  0  0  0  0  0  0  0  0
    5.7850   -3.3270   25.3450 C   0  0  0  0  0  0  0  0  0  0  0  0
    4.5570   -3.2610   25.2260 O   0  0  0  0  0  0  0  0  0  0  0  0
    6.4590   -2.9990   26.5240 N   0  0  0  0  0  0  0  0  0  0  0  0
    6.4490   -1.7530   27.2080 C   0  0  0  0  0  0  0  0  0  0  0  0
    6.9990   -1.5690   28.4660 C   0  0  0  0  0  0  0  0  0  0  0  0
    6.9970   -0.3490   29.1720 C   0  0  0  0  0  0  0  0  0  0  0  0
    6.4290    0.7890   28.6430 C   0  0  0  0  0  0  0  0  0  0  0  0
    6.4080    2.3170   29.4970 Cl  0  0  0  0  0  0  0  0  0  0  0  0
    5.8230    0.6860   27.3060 C   0  0  0  0  0  0  0  0  0  0  0  0
    5.8470   -0.6490   26.5780 C   0  0  0  0  0  0  0  0  0  0  0  0
    5.1660   -0.5350   25.2110 C   0  0  0  0  0  0  0  0  0  0  0  0
    3.7860   -0.6010   25.1880 C   0  0  0  0  0  0  0  0  0  0  0  0
    5.5360    0.8040   24.6940 C   0  0  0  0  0  0  0  0  0  0  0  0
    5.7530   -4.8340   23.4410 C   0  0  0  0  0  0  0  0  0  0  0  0
    6.5680   -5.3750   22.4770 C   0  0  0  0  0  0  0  0  0  0  0  0
  1  2  1  0
  2  3  2  0
  2  4  1  0
  4  5  1  0
  5  6  1  0
  6  7  1  0
  7  8  1  0
  8  9  2  0
  8 10  1  0
 10 11  1  0
 11 12  2  0
 12 13  1  0
 13 14  2  0
 14 15  1  0
 14 16  1  0
 11 17  1  0
 16 17  2  0
 17 18  1  0
 18 19  1  0
 18 20  1  0
  7 21  1  0
  4 22  1  0
 21 22  1  0
M  END
