piperidine-amides-31551-covalent
     RDKit          3D

 27 29  0  0  0  0  0  0  0  0999 V2000
    7.1570   -3.2820   19.3600 C   0  0  0  0  0  0  0  0  0  0  0  0
    6.3610   -4.0130   20.3240 C   0  0  0  0  0  0  0  0  0  0  0  0
    5.3230   -4.6150   19.9110 O   0  0  0  0  0  0  0  0  0  0  0  0
    6.7150   -4.1190   21.6900 N   0  0  0  0  0  0  0  0  0  0  0  0
    7.7310   -3.1250   22.1670 C   0  0  0  0  0  0  0  0  0  0  0  0
    7.3520   -2.8330   23.6830 C   0  0  0  0  0  0  0  0  0  0  0  0
    6.2410   -3.7870   24.0350 C   0  0  0  0  0  0  0  0  0  0  0  0
    5.5840   -3.5590   25.4720 C   0  0  0  0  0  0  0  0  0  0  0  0
    4.6470   -4.3230   25.6040 O   0  0  0  0  0  0  0  0  0  0  0  0
    6.1810   -2.6150   26.0980 N   0  0  0  0  0  0  0  0  0  0  0  0
    6.7150   -1.3850   26.2990 C   0  0  0  0  0  0  0  0  0  0  0  0
    6.2410   -0.1110   26.1290 C   0  0  0  0  0  0  0  0  0  0  0  0
    6.0320    0.6080   27.3130 C   0  0  0  0  0  0  0  0  0  0  0  0
    5.5280    2.0060   27.4210 C   0  0  0  0  0  0  0  0  0  0  0  0
    5.2500    2.6000   25.9980 C   0  0  0  0  0  0  0  0  0  0  0  0
    5.5150    1.7370   24.9170 C   0  0  0  0  0  0  0  0  0  0  0  0
    5.9910    0.4350   24.9650 C   0  0  0  0  0  0  0  0  0  0  0  0
    6.2100   -2.7740   27.5500 C   0  0  0  0  0  0  0  0  0  0  0  0
    5.7070   -4.0450   28.3280 C   0  0  2  0  0  0  0  0  0  0  0  0
    6.5340   -4.7440   28.9560 O   0  0  0  0  0  0  0  0  0  0  0  0
    4.9920   -5.0000   27.6560 C   0  0  0  0  0  0  0  0  0  0  0  0
    3.6380   -4.9560   27.4920 C   0  0  0  0  0  0  0  0  0  0  0  0
    2.9500   -5.9070   26.8290 C   0  0  0  0  0  0  0  0  0  0  0  0
    4.1350   -7.0370   26.3210 S   0  0  0  0  0  0  0  0  0  0  0  0
    5.4980   -6.2510   26.9830 C   0  0  0  0  0  0  0  0  0  0  0  0
    6.4360   -5.2260   23.7460 C   0  0  0  0  0  0  0  0  0  0  0  0
    6.6380   -5.4330   22.2860 C   0  0  0  0  0  0  0  0  0  0  0  0
  1  2  1  0
  2  3  2  0
  2  4  1  0
  4  5  1  0
  5  6  1  0
  6  7  1  0
  7  8  1  0
  8  9  2  0
  8 10  1  0
 10 11  1  0
 11 12  1  0
 12 13  2  0
 13 14  1  0
 14 15  2  0
 15 16  1  0
 12 17  1  0
 16 17  2  0
 10 18  1  0
 18 19  1  0
 19 20  1  6
 19 21  1  0
 21 22  1  0
 22 23  2  0
 23 24  1  0
 21 25  2  0
 24 25  1  0
  7 26  1  0
  4 27  1  0
 26 27  1  0
M  END
