piperidine-amides-25272-covalent
     RDKit          3D

 23 24  0  0  0  0  0  0  0  0999 V2000
    7.1470   -3.3580   19.2940 C   0  0  0  0  0  0  0  0  0  0  0  0
    6.3990   -4.1500   20.2930 C   0  0  0  0  0  0  0  0  0  0  0  0
    5.3380   -4.6540   19.9320 O   0  0  0  0  0  0  0  0  0  0  0  0
    6.9630   -4.3310   21.5560 N   0  0  0  0  0  0  0  0  0  0  0  0
    6.7260   -5.5420   22.3280 C   0  0  0  0  0  0  0  0  0  0  0  0
    6.1460   -5.1890   23.6690 C   0  0  0  0  0  0  0  0  0  0  0  0
    6.0710   -3.6740   23.7230 C   0  0  0  0  0  0  0  0  0  0  0  0
    5.3180   -3.2370   24.8810 C   0  0  0  0  0  0  0  0  0  0  0  0
    4.4790   -2.3480   24.7330 O   0  0  0  0  0  0  0  0  0  0  0  0
    5.4780   -3.7590   26.1400 N   0  0  0  0  0  0  0  0  0  0  0  0
    4.2150   -3.7270   26.8620 C   0  0  0  0  0  0  0  0  0  0  0  0
    4.2430   -4.5490   28.1200 C   0  0  0  0  0  0  0  0  0  0  0  0
    5.0850   -4.1870   29.0660 C   0  0  2  0  0  0  0  0  0  0  0  0
    4.8740   -2.8730   29.4360 C   0  0  0  0  0  0  0  0  0  0  0  0
    6.0170   -2.1550   29.7980 F   0  0  0  0  0  0  0  0  0  0  0  0
    4.3410   -2.0980   28.3930 F   0  0  0  0  0  0  0  0  0  0  0  0
    3.9570   -2.7660   30.4630 F   0  0  0  0  0  0  0  0  0  0  0  0
    6.3050   -4.3280   28.2340 C   0  0  0  0  0  0  0  0  0  0  0  0
    7.3820   -4.2090   29.0050 F   0  0  0  0  0  0  0  0  0  0  0  0
    6.2970   -5.5490   27.5870 F   0  0  0  0  0  0  0  0  0  0  0  0
    6.2070   -3.2220   27.2330 C   0  0  0  0  0  0  0  0  0  0  0  0
    7.3990   -3.0590   23.5640 C   0  0  0  0  0  0  0  0  0  0  0  0
    7.7170   -3.2130   22.1260 C   0  0  0  0  0  0  0  0  0  0  0  0
  1  2  1  0
  2  3  2  0
  2  4  1  0
  4  5  1  0
  5  6  1  0
  6  7  1  0
  7  8  1  0
  8  9  2  0
  8 10  1  0
 10 11  1  0
 11 12  1  0
 12 13  1  0
 13 14  1  6
 14 15  1  0
 14 16  1  0
 14 17  1  0
 13 18  1  0
 18 19  1  0
 18 20  1  0
 10 21  1  0
 18 21  1  0
  7 22  1  0
  4 23  1  0
 22 23  1  0
M  END
