piperidine-amides-26035-covalent
     RDKit          3D

 24 24  0  0  0  0  0  0  0  0999 V2000
    7.0670   -3.2930   19.2930 C   0  0  0  0  0  0  0  0  0  0  0  0
    6.3640   -4.0810   20.3110 C   0  0  0  0  0  0  0  0  0  0  0  0
    5.3740   -4.7470   19.9610 O   0  0  0  0  0  0  0  0  0  0  0  0
    6.7980   -4.1340   21.6540 N   0  0  0  0  0  0  0  0  0  0  0  0
    7.6890   -3.1290   22.2130 C   0  0  0  0  0  0  0  0  0  0  0  0
    7.4290   -3.0890   23.6990 C   0  0  0  0  0  0  0  0  0  0  0  0
    6.0960   -3.6910   24.0250 C   0  0  0  0  0  0  0  0  0  0  0  0
    5.5820   -3.4900   25.4140 C   0  0  0  0  0  0  0  0  0  0  0  0
    4.3430   -3.6440   25.6240 O   0  0  0  0  0  0  0  0  0  0  0  0
    6.3520   -3.1130   26.5510 N   0  0  0  0  0  0  0  0  0  0  0  0
    6.6240   -1.6590   26.6850 C   0  0  0  0  0  0  0  0  0  0  0  0
    6.3740   -1.2300   28.0880 C   0  0  0  0  0  0  0  0  0  0  0  0
    6.1570   -0.0110   28.3200 O   0  0  0  0  0  0  0  0  0  0  0  0
    5.0000    0.3090   28.9360 C   0  0  0  0  0  0  0  0  0  0  0  0
    4.6990    1.6830   29.4800 C   0  0  0  0  0  0  0  0  0  0  0  0
    5.2240    1.8620   30.7210 O   0  0  0  0  0  0  0  0  0  0  0  0
    6.2860   -3.7550   27.8610 C   0  0  0  0  0  0  0  0  0  0  0  0
    6.1450   -5.2380   27.9360 C   0  0  0  0  0  0  0  0  0  0  0  0
    6.7110   -5.8390   29.0400 O   0  0  0  0  0  0  0  0  0  0  0  0
    6.0010   -6.9820   29.3380 C   0  0  0  0  0  0  0  0  0  0  0  0
    5.1180   -6.9820   30.4260 C   0  0  0  0  0  0  0  0  0  0  0  0
    5.7160   -6.7870   31.6630 O   0  0  0  0  0  0  0  0  0  0  0  0
    6.0300   -5.1870   23.7010 C   0  0  0  0  0  0  0  0  0  0  0  0
    6.6820   -5.4120   22.3250 C   0  0  0  0  0  0  0  0  0  0  0  0
  1  2  1  0
  2  3  2  0
  2  4  1  0
  4  5  1  0
  5  6  1  0
  6  7  1  0
  7  8  1  0
  8  9  2  0
  8 10  1  0
 10 11  1  0
 11 12  1  0
 12 13  1  0
 13 14  1  0
 14 15  1  0
 15 16  1  0
 10 17  1  0
 17 18  1  0
 18 19  1  0
 19 20  1  0
 20 21  1  0
 21 22  1  0
  7 23  1  0
  4 24  1  0
 23 24  1  0
M  END
