piperidine-amides-3872-covalent
     RDKit          3D

 26 27  0  0  0  0  0  0  0  0999 V2000
    7.1420   -3.3150   19.2320 C   0  0  0  0  0  0  0  0  0  0  0  0
    6.3750   -4.0600   20.2380 C   0  0  0  0  0  0  0  0  0  0  0  0
    5.2690   -4.5210   19.8750 O   0  0  0  0  0  0  0  0  0  0  0  0
    6.8980   -4.3070   21.5320 N   0  0  0  0  0  0  0  0  0  0  0  0
    6.4100   -5.3940   22.2750 C   0  0  0  0  0  0  0  0  0  0  0  0
    5.9430   -4.9390   23.5700 C   0  0  0  0  0  0  0  0  0  0  0  0
    5.7460   -3.4710   23.6410 C   0  0  0  0  0  0  0  0  0  0  0  0
    5.2660   -3.0510   24.9980 C   0  0  0  0  0  0  0  0  0  0  0  0
    4.0580   -3.1590   25.2760 O   0  0  0  0  0  0  0  0  0  0  0  0
    6.1360   -2.5340   25.9720 N   0  0  0  0  0  0  0  0  0  0  0  0
    6.3480   -3.0250   27.2690 C   0  0  0  0  0  0  0  0  0  0  0  0
    7.6720   -3.0970   27.8490 C   0  0  1  0  0  0  0  0  0  0  0  0
    7.8830   -2.3400   28.8590 O   0  0  0  0  0  0  0  0  0  0  0  0
    6.8680   -1.4380   29.1050 C   0  0  0  0  0  0  0  0  0  0  0  0
    7.2560   -0.6280   30.1530 C   0  0  0  0  0  0  0  0  0  0  0  0
    6.2530   -0.5430   30.8790 O   0  0  0  0  0  0  0  0  0  0  0  0
    7.6740   -4.5930   28.3330 C   0  0  0  0  0  0  0  0  0  0  0  0
    7.0370   -5.5030   27.3240 C   0  0  0  0  0  0  0  0  0  0  0  0
    8.2290   -5.3070   26.3500 C   0  0  2  0  0  0  0  0  0  0  0  0
    9.6200   -5.6490   26.7700 C   0  0  0  0  0  0  0  0  0  0  0  0
   10.4840   -5.1450   25.8400 F   0  0  0  0  0  0  0  0  0  0  0  0
    9.8670   -5.0910   28.0190 F   0  0  0  0  0  0  0  0  0  0  0  0
    8.2450   -3.9480   25.6730 C   0  0  0  0  0  0  0  0  0  0  0  0
    8.7060   -2.9780   26.7650 C   0  0  0  0  0  0  0  0  0  0  0  0
    6.9220   -2.6490   23.1610 C   0  0  0  0  0  0  0  0  0  0  0  0
    7.7190   -3.3510   22.2420 C   0  0  0  0  0  0  0  0  0  0  0  0
  1  2  1  0
  2  3  2  0
  2  4  1  0
  4  5  1  0
  5  6  1  0
  6  7  1  0
  7  8  1  0
  8  9  2  0
  8 10  1  0
 10 11  1  0
 12 11  1  6
 12 13  1  0
 13 14  1  0
 14 15  1  0
 15 16  1  0
 12 17  1  0
 17 18  1  0
 18 19  1  0
 19 20  1  1
 20 21  1  0
 20 22  1  0
 19 23  1  0
 12 24  1  0
 23 24  1  0
  7 25  1  0
  4 26  1  0
 25 26  1  0
M  END
