piperidine-amides-27517-covalent
     RDKit          3D

 25 25  0  0  0  0  0  0  0  0999 V2000
    7.0320   -3.3090   19.3410 C   0  0  0  0  0  0  0  0  0  0  0  0
    6.3740   -4.1320   20.3630 C   0  0  0  0  0  0  0  0  0  0  0  0
    5.3660   -4.7830   19.9680 O   0  0  0  0  0  0  0  0  0  0  0  0
    6.8660   -4.2150   21.6770 N   0  0  0  0  0  0  0  0  0  0  0  0
    6.7340   -5.4500   22.4240 C   0  0  0  0  0  0  0  0  0  0  0  0
    6.1490   -5.1260   23.7690 C   0  0  0  0  0  0  0  0  0  0  0  0
    6.0390   -3.6380   23.9420 C   0  0  0  0  0  0  0  0  0  0  0  0
    5.5600   -3.2530   25.3020 C   0  0  0  0  0  0  0  0  0  0  0  0
    4.3370   -3.0090   25.3910 O   0  0  0  0  0  0  0  0  0  0  0  0
    6.3180   -3.1160   26.4940 N   0  0  0  0  0  0  0  0  0  0  0  0
    6.6710   -1.7550   26.8470 C   0  0  0  0  0  0  0  0  0  0  0  0
    6.9440   -1.5960   28.3450 C   0  0  0  0  0  0  0  0  0  0  0  0
    6.1420   -3.9330   27.6570 C   0  0  0  0  0  0  0  0  0  0  0  0
    5.7340   -5.2470   27.4980 C   0  0  1  0  0  0  0  0  0  0  0  0
    6.3740   -6.1540   28.3340 C   0  0  0  0  0  0  0  0  0  0  0  0
    4.3760   -5.3110   27.5120 N   0  0  0  0  0  0  0  0  0  0  0  0
    3.9070   -5.9190   28.6170 C   0  0  0  0  0  0  0  0  0  0  0  0
    2.7150   -6.6550   28.6810 O   0  0  0  0  0  0  0  0  0  0  0  0
    4.6160   -5.7820   29.6510 O   0  0  0  0  0  0  0  0  0  0  0  0
    4.3630   -6.6080   30.7740 C   0  0  0  0  0  0  0  0  0  0  0  0
    3.6250   -5.7960   31.8140 C   0  0  0  0  0  0  0  0  0  0  0  0
    3.7410   -7.7840   30.4680 C   0  0  0  0  0  0  0  0  0  0  0  0
    5.6160   -7.0620   31.1220 C   0  0  0  0  0  0  0  0  0  0  0  0
    7.3430   -2.9700   23.5970 C   0  0  0  0  0  0  0  0  0  0  0  0
    7.7260   -3.1680   22.2800 C   0  0  0  0  0  0  0  0  0  0  0  0
  1  2  1  0
  2  3  2  0
  2  4  1  0
  4  5  1  0
  5  6  1  0
  6  7  1  0
  7  8  1  0
  8  9  2  0
  8 10  1  0
 10 11  1  0
 11 12  1  0
 10 13  1  0
 13 14  1  0
 14 15  1  1
 14 16  1  0
 16 17  1  0
 17 18  2  0
 17 19  1  0
 20 19  1  0
 20 21  1  0
 20 22  1  0
 20 23  1  0
  7 24  1  0
  4 25  1  0
 24 25  1  0
M  END
