piperidine-amides-10412-covalent
     RDKit          3D

 24 26  0  0  0  0  0  0  0  0999 V2000
    7.0510   -3.3360   19.3130 C   0  0  0  0  0  0  0  0  0  0  0  0
    6.3160   -4.0970   20.3280 C   0  0  0  0  0  0  0  0  0  0  0  0
    5.2920   -4.7110   19.9350 O   0  0  0  0  0  0  0  0  0  0  0  0
    6.7760   -4.1560   21.6450 N   0  0  0  0  0  0  0  0  0  0  0  0
    7.7120   -3.1780   22.1560 C   0  0  0  0  0  0  0  0  0  0  0  0
    7.5000   -3.1110   23.6240 C   0  0  0  0  0  0  0  0  0  0  0  0
    6.1430   -3.6530   23.9440 C   0  0  0  0  0  0  0  0  0  0  0  0
    5.7390   -3.2380   25.2970 C   0  0  0  0  0  0  0  0  0  0  0  0
    4.5650   -3.4730   25.6600 O   0  0  0  0  0  0  0  0  0  0  0  0
    6.6040   -2.5690   26.1850 N   0  0  0  0  0  0  0  0  0  0  0  0
    6.0700   -1.6950   27.1900 C   0  0  0  0  0  0  0  0  0  0  0  0
    7.0500   -1.4260   28.3150 C   0  0  0  0  0  0  0  0  0  0  0  0
    6.7690   -0.5590   29.3270 C   0  0  0  0  0  0  0  0  0  0  0  0
    5.8340    0.4220   29.1210 N   0  0  0  0  0  0  0  0  0  0  0  0
    4.8710    0.6290   30.0470 C   0  0  0  0  0  0  0  0  0  0  0  0
    4.5440   -0.2830   31.0340 C   0  0  0  0  0  0  0  0  0  0  0  0
    3.5450    0.0620   31.9080 C   0  0  0  0  0  0  0  0  0  0  0  0
    2.9510    1.2900   31.7280 C   0  0  0  0  0  0  0  0  0  0  0  0
    3.3620    2.1000   30.7190 N   0  0  0  0  0  0  0  0  0  0  0  0
    4.3200    1.8590   29.8180 N   0  0  0  0  0  0  0  0  0  0  0  0
    5.7280    0.8340   27.8360 C   0  0  0  0  0  0  0  0  0  0  0  0
    5.7450   -0.3170   26.8310 C   0  0  0  0  0  0  0  0  0  0  0  0
    6.0870   -5.1770   23.7540 C   0  0  0  0  0  0  0  0  0  0  0  0
    6.6810   -5.4250   22.3670 C   0  0  0  0  0  0  0  0  0  0  0  0
  1  2  1  0
  2  3  2  0
  2  4  1  0
  4  5  1  0
  5  6  1  0
  6  7  1  0
  7  8  1  0
  8  9  2  0
  8 10  1  0
 10 11  1  0
 11 12  1  0
 12 13  1  0
 13 14  1  0
 14 15  1  0
 15 16  2  0
 16 17  1  0
 17 18  2  0
 18 19  1  0
 15 20  1  0
 19 20  2  0
 14 21  1  0
 11 22  1  0
 21 22  1  0
  7 23  1  0
  4 24  1  0
 23 24  1  0
M  END
