piperidine-amides-5148-covalent
     RDKit          3D

 22 23  0  0  0  0  0  0  0  0999 V2000
    7.0820   -3.3030   19.2260 C   0  0  0  0  0  0  0  0  0  0  0  0
    6.3630   -4.0810   20.2550 C   0  0  0  0  0  0  0  0  0  0  0  0
    5.2890   -4.6080   19.9040 O   0  0  0  0  0  0  0  0  0  0  0  0
    6.9040   -4.2620   21.5330 N   0  0  0  0  0  0  0  0  0  0  0  0
    7.6240   -3.1970   22.1550 C   0  0  0  0  0  0  0  0  0  0  0  0
    7.2360   -2.9070   23.5330 C   0  0  0  0  0  0  0  0  0  0  0  0
    6.4960   -3.9800   24.2260 C   0  0  0  0  0  0  0  0  0  0  0  0
    5.7460   -3.3720   25.3510 C   0  0  0  0  0  0  0  0  0  0  0  0
    4.5430   -3.1090   25.1870 O   0  0  0  0  0  0  0  0  0  0  0  0
    6.3820   -3.1010   26.5690 N   0  0  0  0  0  0  0  0  0  0  0  0
    6.3520   -1.7720   27.2160 C   0  0  0  0  0  0  0  0  0  0  0  0
    6.9350   -1.5340   28.4950 C   0  0  0  0  0  0  0  0  0  0  0  0
    6.9160   -0.2480   29.1720 C   0  0  0  0  0  0  0  0  0  0  0  0
    6.3850    1.0380   28.8430 C   0  0  0  0  0  0  0  0  0  0  0  0
    5.8570    2.0720   28.3780 O   0  0  0  0  0  0  0  0  0  0  0  0
    4.6570    2.2780   28.8500 C   0  0  0  0  0  0  0  0  0  0  0  0
    4.4050    3.4070   29.5750 C   0  0  0  0  0  0  0  0  0  0  0  0
    3.2190    3.1840   30.2930 O   0  0  0  0  0  0  0  0  0  0  0  0
    5.8510    0.6310   27.5470 N   0  0  0  0  0  0  0  0  0  0  0  0
    5.7810   -0.5580   26.7440 C   0  0  0  0  0  0  0  0  0  0  0  0
    5.6950   -4.8870   23.3780 C   0  0  0  0  0  0  0  0  0  0  0  0
    6.4690   -5.3750   22.3300 C   0  0  0  0  0  0  0  0  0  0  0  0
  1  2  1  0
  2  3  2  0
  2  4  1  0
  4  5  1  0
  5  6  1  0
  6  7  1  0
  7  8  1  0
  8  9  2  0
  8 10  1  0
 10 11  1  0
 11 12  2  0
 12 13  1  0
 13 14  2  0
 14 15  1  0
 15 16  1  0
 16 17  1  0
 17 18  1  0
 14 19  1  0
 11 20  1  0
 19 20  2  0
  7 21  1  0
  4 22  1  0
 21 22  1  0
M  END
