piperidine-amides-11006-covalent
     RDKit          3D

 21 23  0  0  0  0  0  0  0  0999 V2000
    7.0850   -3.3230   19.2790 C   0  0  0  0  0  0  0  0  0  0  0  0
    6.3670   -4.1280   20.2670 C   0  0  0  0  0  0  0  0  0  0  0  0
    5.3230   -4.7120   19.9390 O   0  0  0  0  0  0  0  0  0  0  0  0
    6.8660   -4.3050   21.5620 N   0  0  0  0  0  0  0  0  0  0  0  0
    6.5760   -5.4670   22.3680 C   0  0  0  0  0  0  0  0  0  0  0  0
    5.8330   -4.9430   23.5690 C   0  0  0  0  0  0  0  0  0  0  0  0
    6.5640   -3.8070   24.2270 C   0  0  0  0  0  0  0  0  0  0  0  0
    5.8470   -3.2650   25.4040 C   0  0  0  0  0  0  0  0  0  0  0  0
    4.5900   -3.1140   25.3760 O   0  0  0  0  0  0  0  0  0  0  0  0
    6.5140   -2.8990   26.5930 N   0  0  0  0  0  0  0  0  0  0  0  0
    6.1650   -1.6570   27.3210 C   0  0  0  0  0  0  0  0  0  0  0  0
    6.0240   -0.3780   26.5900 C   0  0  0  0  0  0  0  0  0  0  0  0
    5.6650    0.8520   27.3170 C   0  0  0  0  0  0  0  0  0  0  0  0
    5.4600    0.7510   28.7550 N   0  0  0  0  0  0  0  0  0  0  0  0
    5.1240    1.8190   29.4930 N   0  0  0  0  0  0  0  0  0  0  0  0
    5.0360    1.2720   30.7530 C   0  0  0  0  0  0  0  0  0  0  0  0
    5.3220   -0.1960   30.8480 C   0  0  0  0  0  0  0  0  0  0  0  0
    5.6080   -0.5170   29.4500 C   0  0  0  0  0  0  0  0  0  0  0  0
    5.9430   -1.7140   28.8570 C   0  0  0  0  0  0  0  0  0  0  0  0
    6.8440   -2.6840   23.2690 C   0  0  0  0  0  0  0  0  0  0  0  0
    7.6830   -3.2710   22.1700 C   0  0  0  0  0  0  0  0  0  0  0  0
  1  2  1  0
  2  3  2  0
  2  4  1  0
  4  5  1  0
  5  6  1  0
  6  7  1  0
  7  8  1  0
  8  9  2  0
  8 10  1  0
 10 11  1  0
 11 12  1  0
 12 13  2  0
 13 14  1  0
 14 15  1  0
 15 16  2  0
 16 17  1  0
 14 18  1  0
 17 18  2  0
 11 19  2  0
 18 19  1  0
  7 20  1  0
  4 21  1  0
 20 21  1  0
M  END
