piperidine-amides-31069-covalent
     RDKit          3D

 28 30  0  0  0  0  0  0  0  0999 V2000
    7.0720   -3.3420   19.3100 C   0  0  0  0  0  0  0  0  0  0  0  0
    6.3860   -4.1610   20.3110 C   0  0  0  0  0  0  0  0  0  0  0  0
    5.3740   -4.7980   19.9710 O   0  0  0  0  0  0  0  0  0  0  0  0
    6.8770   -4.2790   21.6230 N   0  0  0  0  0  0  0  0  0  0  0  0
    6.6250   -5.4370   22.4430 C   0  0  0  0  0  0  0  0  0  0  0  0
    5.9470   -4.9240   23.6930 C   0  0  0  0  0  0  0  0  0  0  0  0
    6.6130   -3.7100   24.2980 C   0  0  0  0  0  0  0  0  0  0  0  0
    5.8350   -3.1430   25.4380 C   0  0  0  0  0  0  0  0  0  0  0  0
    4.6220   -2.8190   25.2620 O   0  0  0  0  0  0  0  0  0  0  0  0
    6.3590   -2.9220   26.7390 N   0  0  0  0  0  0  0  0  0  0  0  0
    6.1190   -3.8790   27.8370 C   0  0  0  0  0  0  0  0  0  0  0  0
    5.4300   -5.1050   27.4210 C   0  0  0  0  0  0  0  0  0  0  0  0
    4.5790   -5.3160   26.2330 C   0  0  0  0  0  0  0  0  0  0  0  0
    4.1210   -6.7180   26.2750 C   0  0  0  0  0  0  0  0  0  0  0  0
    4.6880   -7.2710   27.4380 N   0  0  0  0  0  0  0  0  0  0  0  0
    5.4100   -6.3410   28.0430 N   0  0  0  0  0  0  0  0  0  0  0  0
    6.0940   -6.5180   29.1730 C   0  0  0  0  0  0  0  0  0  0  0  0
    5.8520   -7.7290   29.9810 C   0  0  0  0  0  0  0  0  0  0  0  0
    6.3920   -1.6030   27.2760 C   0  0  0  0  0  0  0  0  0  0  0  0
    5.8610   -0.5060   26.5740 C   0  0  0  0  0  0  0  0  0  0  0  0
    5.8690    0.8870   27.1460 C   0  0  0  0  0  0  0  0  0  0  0  0
    6.4750    1.0640   28.5160 C   0  0  0  0  0  0  0  0  0  0  0  0
    6.7180    2.2000   29.4870 C   0  0  0  0  0  0  0  0  0  0  0  0
    6.5270    3.0980   30.2590 C   0  0  0  0  0  0  0  0  0  0  0  0
    7.0260   -0.2040   29.1820 C   0  0  0  0  0  0  0  0  0  0  0  0
    6.9560   -1.4290   28.5430 C   0  0  0  0  0  0  0  0  0  0  0  0
    6.8840   -2.6170   23.3050 C   0  0  0  0  0  0  0  0  0  0  0  0
    7.7070   -3.2470   22.2020 C   0  0  0  0  0  0  0  0  0  0  0  0
  1  2  1  0
  2  3  2  0
  2  4  1  0
  4  5  1  0
  5  6  1  0
  6  7  1  0
  7  8  1  0
  8  9  2  0
  8 10  1  0
 10 11  1  0
 11 12  1  0
 12 13  2  0
 13 14  1  0
 14 15  2  0
 12 16  1  0
 15 16  1  0
 16 17  1  0
 17 18  1  0
 10 19  1  0
 19 20  2  0
 20 21  1  0
 21 22  2  0
 22 23  1  0
 23 24  1  0
 22 25  1  0
 19 26  1  0
 25 26  2  0
  7 27  1  0
  4 28  1  0
 27 28  1  0
M  END
