piperidine-amides-708-covalent
     RDKit          3D

 25 27  0  0  0  0  0  0  0  0999 V2000
    7.1400   -3.3010   19.3830 C   0  0  0  0  0  0  0  0  0  0  0  0
    6.4090   -4.0880   20.3500 C   0  0  0  0  0  0  0  0  0  0  0  0
    5.3890   -4.7450   19.9560 O   0  0  0  0  0  0  0  0  0  0  0  0
    6.8110   -4.1790   21.6940 N   0  0  0  0  0  0  0  0  0  0  0  0
    6.7360   -5.5040   22.3320 C   0  0  0  0  0  0  0  0  0  0  0  0
    5.7390   -5.1500   23.4870 C   0  0  0  0  0  0  0  0  0  0  0  0
    6.1750   -3.7990   24.0120 C   0  0  0  0  0  0  0  0  0  0  0  0
    5.8300   -3.7250   25.5570 C   0  0  0  0  0  0  0  0  0  0  0  0
    5.3810   -4.7900   25.9210 O   0  0  0  0  0  0  0  0  0  0  0  0
    6.0670   -2.5770   26.0320 N   0  0  0  0  0  0  0  0  0  0  0  0
    6.1810   -1.3370   26.5680 C   0  0  0  0  0  0  0  0  0  0  0  0
    6.2190   -0.0340   26.2080 C   0  0  0  0  0  0  0  0  0  0  0  0
    6.3360    1.0510   27.1060 C   0  0  0  0  0  0  0  0  0  0  0  0
    6.4430    1.0370   28.5800 C   0  0  0  0  0  0  0  0  0  0  0  0
    6.4000   -0.4240   29.0360 C   0  0  0  0  0  0  0  0  0  0  0  0
    6.2820   -1.4370   28.0810 C   0  0  0  0  0  0  0  0  0  0  0  0
    6.2420   -2.7530   28.5820 C   0  0  0  0  0  0  0  0  0  0  0  0
    4.9780   -1.9570   28.9770 C   0  0  0  0  0  0  0  0  0  0  0  0
    5.1430   -1.3800   30.4290 C   0  0  0  0  0  0  0  0  0  0  0  0
    6.4460   -0.7930   30.4240 N   0  0  0  0  0  0  0  0  0  0  0  0
    6.5240    0.2760   31.3690 C   0  0  0  0  0  0  0  0  0  0  0  0
    5.5030    0.3940   32.3160 N   0  0  0  0  0  0  0  0  0  0  0  0
    7.4800    1.0950   31.3610 O   0  0  0  0  0  0  0  0  0  0  0  0
    7.5800   -3.3550   23.6290 C   0  0  0  0  0  0  0  0  0  0  0  0
    7.6470   -3.1540   22.2870 C   0  0  0  0  0  0  0  0  0  0  0  0
  1  2  1  0
  2  3  2  0
  2  4  1  0
  4  5  1  0
  5  6  1  0
  6  7  1  0
  7  8  1  0
  8  9  2  0
  8 10  1  0
 10 11  1  0
 11 12  2  0
 12 13  1  0
 13 14  2  0
 14 15  1  0
 11 16  1  0
 15 16  2  0
 16 17  1  0
 17 18  1  0
 18 19  1  0
 15 20  1  0
 19 20  1  0
 20 21  1  0
 21 22  1  0
 21 23  2  0
  7 24  1  0
  4 25  1  0
 24 25  1  0
M  END
