piperidine-amides-27805-covalent
     RDKit          3D

 26 28  0  0  0  0  0  0  0  0999 V2000
    7.1610   -3.3360   19.1690 C   0  0  0  0  0  0  0  0  0  0  0  0
    6.4150   -4.0770   20.2010 C   0  0  0  0  0  0  0  0  0  0  0  0
    5.3020   -4.5390   19.8840 O   0  0  0  0  0  0  0  0  0  0  0  0
    7.0010   -4.2960   21.4430 N   0  0  0  0  0  0  0  0  0  0  0  0
    6.6210   -5.4140   22.2320 C   0  0  0  0  0  0  0  0  0  0  0  0
    6.1120   -5.0330   23.5440 C   0  0  0  0  0  0  0  0  0  0  0  0
    6.7030   -3.8030   24.1260 C   0  0  0  0  0  0  0  0  0  0  0  0
    5.8140   -3.3440   25.1800 C   0  0  0  0  0  0  0  0  0  0  0  0
    4.7710   -2.7320   24.8780 O   0  0  0  0  0  0  0  0  0  0  0  0
    6.1360   -3.6080   26.4850 N   0  0  0  0  0  0  0  0  0  0  0  0
    7.5350   -3.9510   26.8440 C   0  0  0  0  0  0  0  0  0  0  0  0
    7.7350   -3.8730   28.2950 C   0  0  0  0  0  0  0  0  0  0  0  0
    6.6210   -3.6510   29.1240 N   0  0  0  0  0  0  0  0  0  0  0  0
    5.8320   -2.4390   28.9700 C   0  0  0  0  0  0  0  0  0  0  0  0
    6.2780   -1.4860   29.8550 C   0  0  0  0  0  0  0  0  0  0  0  0
    7.6040   -1.0910   29.9100 C   0  0  0  0  0  0  0  0  0  0  0  0
    8.0240   -0.1380   30.8000 C   0  0  0  0  0  0  0  0  0  0  0  0
    7.1260    0.4370   31.6490 C   0  0  0  0  0  0  0  0  0  0  0  0
    5.8240    0.0730   31.6160 C   0  0  0  0  0  0  0  0  0  0  0  0
    5.3860   -0.8950   30.7180 C   0  0  0  0  0  0  0  0  0  0  0  0
    5.7050   -4.7030   29.5340 C   0  0  0  0  0  0  0  0  0  0  0  0
    5.1410   -5.1170   28.2410 C   0  0  2  0  0  0  0  0  0  0  0  0
    6.0190   -6.2060   27.7080 C   0  0  0  0  0  0  0  0  0  0  0  0
    4.9950   -3.9530   27.3020 C   0  0  0  0  0  0  0  0  0  0  0  0
    7.1170   -2.7660   23.1960 C   0  0  0  0  0  0  0  0  0  0  0  0
    7.8700   -3.3100   22.0640 C   0  0  0  0  0  0  0  0  0  0  0  0
  1  2  1  0
  2  3  2  0
  2  4  1  0
  4  5  1  0
  5  6  1  0
  6  7  1  0
  7  8  1  0
  8  9  2  0
  8 10  1  0
 10 11  1  0
 11 12  1  0
 12 13  1  0
 13 14  1  0
 14 15  1  0
 15 16  2  0
 16 17  1  0
 17 18  2  0
 18 19  1  0
 15 20  1  0
 19 20  2  0
 13 21  1  0
 21 22  1  0
 22 23  1  6
 10 24  1  0
 22 24  1  0
  7 25  1  0
  4 26  1  0
 25 26  1  0
M  END
