piperidine-amides-25545-covalent
     RDKit          3D

 25 27  0  0  0  0  0  0  0  0999 V2000
    7.0460   -3.3200   19.3270 C   0  0  0  0  0  0  0  0  0  0  0  0
    6.3740   -4.1870   20.3280 C   0  0  0  0  0  0  0  0  0  0  0  0
    5.3600   -4.7770   19.9620 O   0  0  0  0  0  0  0  0  0  0  0  0
    6.9160   -4.3490   21.6090 N   0  0  0  0  0  0  0  0  0  0  0  0
    6.6070   -5.4990   22.4040 C   0  0  0  0  0  0  0  0  0  0  0  0
    5.7240   -5.0690   23.5440 C   0  0  0  0  0  0  0  0  0  0  0  0
    6.3200   -3.8380   24.2440 C   0  0  0  0  0  0  0  0  0  0  0  0
    5.3370   -3.2920   25.2380 C   0  0  0  0  0  0  0  0  0  0  0  0
    4.4970   -2.4660   24.8830 O   0  0  0  0  0  0  0  0  0  0  0  0
    5.3780   -3.7260   26.5860 N   0  0  0  0  0  0  0  0  0  0  0  0
    4.5660   -3.2310   27.6450 C   0  0  0  0  0  0  0  0  0  0  0  0
    4.2650   -4.4450   28.5400 C   0  0  0  0  0  0  0  0  0  0  0  0
    5.4450   -5.0790   29.2130 N   0  0  0  0  0  0  0  0  0  0  0  0
    5.7000   -6.4270   28.6730 C   0  0  1  0  0  0  0  0  0  0  0  0
    5.5300   -7.2660   29.7180 C   0  0  0  0  0  0  0  0  0  0  0  0
    4.6670   -6.7680   27.5900 C   0  0  0  0  0  0  0  0  0  0  0  0
    3.4680   -7.5000   28.1810 C   0  0  0  0  0  0  0  0  0  0  0  0
    2.4270   -7.8720   27.1600 C   0  0  0  0  0  0  0  0  0  0  0  0
    2.5950   -7.5380   25.7070 C   0  0  0  0  0  0  0  0  0  0  0  0
    3.8140   -6.8220   25.2880 C   0  0  0  0  0  0  0  0  0  0  0  0
    4.9320   -6.3800   26.1610 C   0  0  0  0  0  0  0  0  0  0  0  0
    6.3890   -4.1390   28.7830 C   0  0  0  0  0  0  0  0  0  0  0  0
    6.4090   -4.1530   27.3360 C   0  0  0  0  0  0  0  0  0  0  0  0
    6.7010   -2.7520   23.2400 C   0  0  0  0  0  0  0  0  0  0  0  0
    7.5810   -3.2550   22.2990 C   0  0  0  0  0  0  0  0  0  0  0  0
  1  2  1  0
  2  3  2  0
  2  4  1  0
  4  5  1  0
  5  6  1  0
  6  7  1  0
  7  8  1  0
  8  9  2  0
  8 10  1  0
 10 11  1  0
 11 12  1  0
 12 13  1  0
 13 14  1  0
 14 15  1  1
 14 16  1  0
 16 17  2  0
 17 18  1  0
 18 19  2  0
 19 20  1  0
 16 21  1  0
 20 21  2  0
 13 22  1  0
 10 23  1  0
 22 23  1  0
  7 24  1  0
  4 25  1  0
 24 25  1  0
M  END
