piperidine-amides-1113-covalent
     RDKit          3D

 23 25  0  0  0  0  0  0  0  0999 V2000
    7.1400   -3.2810   19.2350 C   0  0  0  0  0  0  0  0  0  0  0  0
    6.3400   -4.0250   20.2550 C   0  0  0  0  0  0  0  0  0  0  0  0
    5.2950   -4.5920   19.9000 O   0  0  0  0  0  0  0  0  0  0  0  0
    6.8230   -4.0920   21.5760 N   0  0  0  0  0  0  0  0  0  0  0  0
    7.7130   -3.0960   22.1290 C   0  0  0  0  0  0  0  0  0  0  0  0
    7.2280   -2.7460   23.5400 C   0  0  0  0  0  0  0  0  0  0  0  0
    5.8500   -3.2940   23.6830 C   0  0  0  0  0  0  0  0  0  0  0  0
    5.1260   -2.8410   24.9000 C   0  0  0  0  0  0  0  0  0  0  0  0
    4.4470   -3.6950   25.4680 O   0  0  0  0  0  0  0  0  0  0  0  0
    5.2040   -1.5080   25.3630 N   0  0  0  0  0  0  0  0  0  0  0  0
    5.3490   -1.1610   26.7270 C   0  0  0  0  0  0  0  0  0  0  0  0
    5.9870   -2.0600   27.4440 C   0  0  0  0  0  0  0  0  0  0  0  0
    6.8050   -2.9370   26.9420 C   0  0  0  0  0  0  0  0  0  0  0  0
    7.2280   -3.6600   27.9120 C   0  0  0  0  0  0  0  0  0  0  0  0
    8.1290   -4.6460   27.4000 C   0  0  0  0  0  0  0  0  0  0  0  0
    8.4460   -6.0630   27.7420 C   0  0  0  0  0  0  0  0  0  0  0  0
    9.4780   -6.3970   26.7180 C   0  0  0  0  0  0  0  0  0  0  0  0
    9.6940   -5.3160   25.9570 C   0  0  0  0  0  0  0  0  0  0  0  0
    8.8830   -4.2750   26.3510 O   0  0  0  0  0  0  0  0  0  0  0  0
    6.7040   -3.2860   29.1370 O   0  0  0  0  0  0  0  0  0  0  0  0
    5.8970   -2.2540   28.8900 N   0  0  0  0  0  0  0  0  0  0  0  0
    5.7960   -4.7840   23.5990 C   0  0  0  0  0  0  0  0  0  0  0  0
    6.5200   -5.2670   22.3590 C   0  0  0  0  0  0  0  0  0  0  0  0
  1  2  1  0
  2  3  2  0
  2  4  1  0
  4  5  1  0
  5  6  1  0
  6  7  1  0
  7  8  1  0
  8  9  2  0
  8 10  1  0
 10 11  1  0
 11 12  1  0
 12 13  1  0
 13 14  2  0
 14 15  1  0
 15 16  2  0
 16 17  1  0
 17 18  2  0
 15 19  1  0
 18 19  1  0
 14 20  1  0
 12 21  2  0
 20 21  1  0
  7 22  1  0
  4 23  1  0
 22 23  1  0
M  END
