piperidine-amides-29667-covalent
     RDKit          3D

 21 23  0  0  0  0  0  0  0  0999 V2000
    7.1090   -3.3510   19.2920 C   0  0  0  0  0  0  0  0  0  0  0  0
    6.4040   -4.1680   20.2670 C   0  0  0  0  0  0  0  0  0  0  0  0
    5.3470   -4.7140   19.9530 O   0  0  0  0  0  0  0  0  0  0  0  0
    6.9750   -4.4000   21.5640 N   0  0  0  0  0  0  0  0  0  0  0  0
    6.5230   -5.5280   22.3150 C   0  0  0  0  0  0  0  0  0  0  0  0
    5.7320   -5.0180   23.4810 C   0  0  0  0  0  0  0  0  0  0  0  0
    6.5270   -3.9160   24.1790 C   0  0  0  0  0  0  0  0  0  0  0  0
    5.7350   -3.4050   25.3260 C   0  0  0  0  0  0  0  0  0  0  0  0
    4.9100   -2.4780   25.2530 O   0  0  0  0  0  0  0  0  0  0  0  0
    5.9590   -4.0560   26.5370 N   0  0  0  0  0  0  0  0  0  0  0  0
    6.9460   -5.1030   26.3930 C   0  0  0  0  0  0  0  0  0  0  0  0
    7.0980   -5.8970   27.6390 C   0  0  0  0  0  0  0  0  0  0  0  0
    6.0970   -5.8030   28.5320 C   0  0  0  0  0  0  0  0  0  0  0  0
    5.8440   -7.0550   29.7750 S   0  0  0  0  0  0  0  0  0  0  0  0
    4.4410   -6.3600   30.4940 C   0  0  0  0  0  0  0  0  0  0  0  0
    3.3110   -6.8900   31.9410 Br  0  0  0  0  0  0  0  0  0  0  0  0
    4.2180   -5.1960   29.7670 C   0  0  0  0  0  0  0  0  0  0  0  0
    5.0570   -4.7260   28.6280 C   0  0  0  0  0  0  0  0  0  0  0  0
    5.1660   -3.7090   27.7050 C   0  0  0  0  0  0  0  0  0  0  0  0
    6.7930   -2.7800   23.2050 C   0  0  0  0  0  0  0  0  0  0  0  0
    7.6260   -3.2730   22.2080 C   0  0  0  0  0  0  0  0  0  0  0  0
  1  2  1  0
  2  3  2  0
  2  4  1  0
  4  5  1  0
  5  6  1  0
  6  7  1  0
  7  8  1  0
  8  9  2  0
  8 10  1  0
 10 11  1  0
 11 12  1  0
 12 13  1  0
 13 14  1  0
 14 15  1  0
 15 16  1  0
 15 17  2  0
 13 18  2  0
 17 18  1  0
 10 19  1  0
 18 19  1  0
  7 20  1  0
  4 21  1  0
 20 21  1  0
M  END
