piperidine-amides-549-covalent
     RDKit          3D

 26 27  0  0  0  0  0  0  0  0999 V2000
    7.1490   -3.3090   19.3960 C   0  0  0  0  0  0  0  0  0  0  0  0
    6.3560   -4.0520   20.3520 C   0  0  0  0  0  0  0  0  0  0  0  0
    5.3390   -4.6870   19.9340 O   0  0  0  0  0  0  0  0  0  0  0  0
    6.7020   -4.1130   21.7210 N   0  0  0  0  0  0  0  0  0  0  0  0
    7.6650   -3.0690   22.1690 C   0  0  0  0  0  0  0  0  0  0  0  0
    7.6360   -3.2420   23.7350 C   0  0  0  0  0  0  0  0  0  0  0  0
    6.2420   -3.7180   24.0220 C   0  0  0  0  0  0  0  0  0  0  0  0
    5.6110   -3.1300   25.3720 C   0  0  0  0  0  0  0  0  0  0  0  0
    4.9550   -2.1340   25.1080 O   0  0  0  0  0  0  0  0  0  0  0  0
    5.9270   -3.8360   26.3950 N   0  0  0  0  0  0  0  0  0  0  0  0
    6.1770   -4.5390   27.5510 C   0  0  2  0  0  0  0  0  0  0  0  0
    6.9080   -4.4180   28.6940 C   0  0  0  0  0  0  0  0  0  0  0  0
    6.2180   -5.9930   27.1950 C   0  0  0  0  0  0  0  0  0  0  0  0
    5.0030   -6.6770   27.3690 O   0  0  0  0  0  0  0  0  0  0  0  0
    5.1820   -4.5760   28.7080 C   0  0  0  0  0  0  0  0  0  0  0  0
    4.1040   -3.5580   28.7110 C   0  0  0  0  0  0  0  0  0  0  0  0
    3.3110   -3.7620   29.8390 C   0  0  0  0  0  0  0  0  0  0  0  0
    3.2150   -4.6320   30.9740 C   0  0  0  0  0  0  0  0  0  0  0  0
    4.4080   -5.6600   30.8580 C   0  0  0  0  0  0  0  0  0  0  0  0
    4.6560   -6.7760   31.9280 C   0  0  0  0  0  0  0  0  0  0  0  0
    5.8180   -7.0260   32.3800 O   0  0  0  0  0  0  0  0  0  0  0  0
    3.6020   -7.5260   32.4530 O   0  0  0  0  0  0  0  0  0  0  0  0
    3.8230   -8.6860   33.2310 C   0  0  0  0  0  0  0  0  0  0  0  0
    5.2770   -5.4930   29.6840 C   0  0  0  0  0  0  0  0  0  0  0  0
    6.0260   -5.1790   23.6900 C   0  0  0  0  0  0  0  0  0  0  0  0
    6.6000   -5.3680   22.4450 C   0  0  0  0  0  0  0  0  0  0  0  0
  1  2  1  0
  2  3  2  0
  2  4  1  0
  4  5  1  0
  5  6  1  0
  6  7  1  0
  7  8  1  0
  8  9  2  0
  8 10  1  0
 11 10  1  0
 11 12  1  1
 11 13  1  0
 13 14  1  0
 11 15  1  0
 15 16  2  0
 16 17  1  0
 17 18  2  0
 18 19  1  0
 19 20  1  0
 20 21  2  0
 20 22  1  0
 22 23  1  0
 15 24  1  0
 19 24  2  0
  7 25  1  0
  4 26  1  0
 25 26  1  0
M  END
