piperidine-amides-21646-covalent
     RDKit          3D

 23 25  0  0  0  0  0  0  0  0999 V2000
    7.1420   -3.3520   19.2920 C   0  0  0  0  0  0  0  0  0  0  0  0
    6.4090   -4.1340   20.2850 C   0  0  0  0  0  0  0  0  0  0  0  0
    5.3130   -4.6330   19.9200 O   0  0  0  0  0  0  0  0  0  0  0  0
    6.9750   -4.3460   21.5430 N   0  0  0  0  0  0  0  0  0  0  0  0
    6.6570   -5.4920   22.3460 C   0  0  0  0  0  0  0  0  0  0  0  0
    6.0550   -4.9850   23.6260 C   0  0  0  0  0  0  0  0  0  0  0  0
    6.7880   -3.7830   24.1860 C   0  0  0  0  0  0  0  0  0  0  0  0
    6.0550   -3.2850   25.3500 C   0  0  0  0  0  0  0  0  0  0  0  0
    5.2010   -2.3900   25.1710 O   0  0  0  0  0  0  0  0  0  0  0  0
    6.2300   -3.7890   26.6290 N   0  0  0  0  0  0  0  0  0  0  0  0
    5.1110   -4.4260   27.1620 C   0  0  0  0  0  0  0  0  0  0  0  0
    5.4320   -5.1600   28.4690 C   0  0  0  0  0  0  0  0  0  0  0  0
    6.5080   -6.0680   28.6060 C   0  0  0  0  0  0  0  0  0  0  0  0
    6.0700   -6.2520   29.8230 N   0  0  0  0  0  0  0  0  0  0  0  0
    5.0720   -5.6940   30.3540 N   0  0  0  0  0  0  0  0  0  0  0  0
    4.4080   -4.8090   29.6160 C   0  0  0  0  0  0  0  0  0  0  0  0
    4.4350   -4.2260   28.3900 C   0  0  0  0  0  0  0  0  0  0  0  0
    5.2970   -3.0820   28.4850 C   0  0  0  0  0  0  0  0  0  0  0  0
    5.2800   -2.1540   29.5020 C   0  0  0  0  0  0  0  0  0  0  0  0
    4.6110   -1.7130   28.3230 C   0  0  0  0  0  0  0  0  0  0  0  0
    6.5410   -3.0320   27.7100 C   0  0  0  0  0  0  0  0  0  0  0  0
    6.9530   -2.6620   23.1680 C   0  0  0  0  0  0  0  0  0  0  0  0
    7.8230   -3.3210   22.1380 C   0  0  0  0  0  0  0  0  0  0  0  0
  1  2  1  0
  2  3  2  0
  2  4  1  0
  4  5  1  0
  5  6  1  0
  6  7  1  0
  7  8  1  0
  8  9  2  0
  8 10  1  0
 10 11  1  0
 11 12  1  0
 12 13  1  0
 13 14  2  0
 14 15  1  0
 12 16  2  0
 15 16  1  0
 16 17  1  0
 17 18  1  0
 18 19  1  0
 18 20  1  0
 10 21  1  0
 18 21  1  0
  7 22  1  0
  4 23  1  0
 22 23  1  0
M  END
