piperidine-amides-4823-covalent
     RDKit          3D

 23 24  0  0  0  0  0  0  0  0999 V2000
    7.0390   -3.3510   19.2940 C   0  0  0  0  0  0  0  0  0  0  0  0
    6.3890   -4.1840   20.3330 C   0  0  0  0  0  0  0  0  0  0  0  0
    5.3700   -4.8050   19.9710 O   0  0  0  0  0  0  0  0  0  0  0  0
    6.9220   -4.3040   21.6350 N   0  0  0  0  0  0  0  0  0  0  0  0
    7.6960   -3.2540   22.2140 C   0  0  0  0  0  0  0  0  0  0  0  0
    7.2790   -2.9520   23.5690 C   0  0  0  0  0  0  0  0  0  0  0  0
    6.0040   -3.6010   23.9260 C   0  0  0  0  0  0  0  0  0  0  0  0
    5.6290   -3.2440   25.3160 C   0  0  0  0  0  0  0  0  0  0  0  0
    4.4320   -3.3080   25.6450 O   0  0  0  0  0  0  0  0  0  0  0  0
    6.6130   -2.8450   26.2320 N   0  0  0  0  0  0  0  0  0  0  0  0
    6.5250   -1.6180   27.0600 C   0  0  0  0  0  0  0  0  0  0  0  0
    7.0500   -1.5450   28.4480 C   0  0  0  0  0  0  0  0  0  0  0  0
    6.9840   -0.3610   29.2900 C   0  0  0  0  0  0  0  0  0  0  0  0
    6.4000    0.7950   28.8010 C   0  0  0  0  0  0  0  0  0  0  0  0
    6.3090    1.9480   29.5590 C   0  0  0  0  0  0  0  0  0  0  0  0
    6.2480    3.0660   28.7860 C   0  0  0  0  0  0  0  0  0  0  0  0
    5.3460    1.4890   30.6110 C   0  0  0  0  0  0  0  0  0  0  0  0
    7.4310    2.2850   30.2730 C   0  0  0  0  0  0  0  0  0  0  0  0
    5.8830    0.8220   27.5220 C   0  0  0  0  0  0  0  0  0  0  0  0
    5.8960   -0.3140   26.5820 C   0  0  0  0  0  0  0  0  0  0  0  0
    5.3590   -0.2200   25.3110 O   0  0  0  0  0  0  0  0  0  0  0  0
    5.9880   -5.0840   23.7380 C   0  0  0  0  0  0  0  0  0  0  0  0
    6.6710   -5.4790   22.4460 C   0  0  0  0  0  0  0  0  0  0  0  0
  1  2  1  0
  2  3  2  0
  2  4  1  0
  4  5  1  0
  5  6  1  0
  6  7  1  0
  7  8  1  0
  8  9  2  0
  8 10  1  0
 10 11  1  0
 11 12  2  0
 12 13  1  0
 13 14  2  0
 14 15  1  0
 15 16  1  0
 15 17  1  0
 15 18  1  0
 14 19  1  0
 11 20  1  0
 19 20  2  0
 20 21  1  0
  7 22  1  0
  4 23  1  0
 22 23  1  0
M  END
