piperidine-amides-2810-covalent
     RDKit          3D

 24 26  0  0  0  0  0  0  0  0999 V2000
    7.0490   -3.3500   19.3110 C   0  0  0  0  0  0  0  0  0  0  0  0
    6.3690   -4.1710   20.3050 C   0  0  0  0  0  0  0  0  0  0  0  0
    5.3750   -4.8200   19.9790 O   0  0  0  0  0  0  0  0  0  0  0  0
    6.8850   -4.2640   21.6410 N   0  0  0  0  0  0  0  0  0  0  0  0
    7.6990   -3.1760   22.1560 C   0  0  0  0  0  0  0  0  0  0  0  0
    7.5070   -2.9670   23.6290 C   0  0  0  0  0  0  0  0  0  0  0  0
    6.1980   -3.6150   24.0140 C   0  0  0  0  0  0  0  0  0  0  0  0
    5.8110   -3.2370   25.3950 C   0  0  0  0  0  0  0  0  0  0  0  0
    4.7420   -3.6200   25.9070 O   0  0  0  0  0  0  0  0  0  0  0  0
    6.6760   -2.3970   26.1410 N   0  0  0  0  0  0  0  0  0  0  0  0
    6.0730   -1.5320   27.1280 C   0  0  1  0  0  0  0  0  0  0  0  0
    6.9590   -1.5240   28.3170 C   0  0  0  0  0  0  0  0  0  0  0  0
    6.6360   -0.4600   29.0980 C   0  0  0  0  0  0  0  0  0  0  0  0
    5.8170    0.4230   28.2900 N   0  0  0  0  0  0  0  0  0  0  0  0
    4.7330    1.0140   29.0240 C   0  0  0  0  0  0  0  0  0  0  0  0
    3.5860    0.4610   29.4550 C   0  0  0  0  0  0  0  0  0  0  0  0
    2.8590    1.4850   30.1310 C   0  0  0  0  0  0  0  0  0  0  0  0
    3.6450    2.6060   30.0530 N   0  0  0  0  0  0  0  0  0  0  0  0
    3.1720    3.7300   30.6270 C   0  0  0  0  0  0  0  0  0  0  0  0
    4.7860    2.3140   29.3770 N   0  0  0  0  0  0  0  0  0  0  0  0
    5.7060   -0.2170   26.9780 C   0  0  0  0  0  0  0  0  0  0  0  0
    5.2960    0.4000   25.8080 O   0  0  0  0  0  0  0  0  0  0  0  0
    6.1270   -5.0700   23.7370 C   0  0  0  0  0  0  0  0  0  0  0  0
    6.5990   -5.4340   22.4040 C   0  0  0  0  0  0  0  0  0  0  0  0
  1  2  1  0
  2  3  2  0
  2  4  1  0
  4  5  1  0
  5  6  1  0
  6  7  1  0
  7  8  1  0
  8  9  2  0
  8 10  1  0
 11 10  1  6
 11 12  1  0
 12 13  1  0
 13 14  1  0
 14 15  1  0
 15 16  1  0
 16 17  2  0
 17 18  1  0
 18 19  1  0
 15 20  2  0
 18 20  1  0
 11 21  1  0
 14 21  1  0
 21 22  2  0
  7 23  1  0
  4 24  1  0
 23 24  1  0
M  END
