piperidine-amides-24677-covalent
     RDKit          3D

 24 26  0  0  0  0  0  0  0  0999 V2000
    7.0630   -3.2910   19.3090 C   0  0  0  0  0  0  0  0  0  0  0  0
    6.3590   -4.1130   20.3050 C   0  0  0  0  0  0  0  0  0  0  0  0
    5.3400   -4.7520   19.9580 O   0  0  0  0  0  0  0  0  0  0  0  0
    6.8260   -4.2450   21.6270 N   0  0  0  0  0  0  0  0  0  0  0  0
    6.5780   -5.5010   22.2960 C   0  0  0  0  0  0  0  0  0  0  0  0
    6.2870   -5.2150   23.7790 C   0  0  0  0  0  0  0  0  0  0  0  0
    6.0580   -3.7230   23.9130 C   0  0  0  0  0  0  0  0  0  0  0  0
    5.5540   -3.3760   25.2690 C   0  0  0  0  0  0  0  0  0  0  0  0
    4.3140   -3.3170   25.3950 O   0  0  0  0  0  0  0  0  0  0  0  0
    6.4010   -3.0980   26.3780 N   0  0  0  0  0  0  0  0  0  0  0  0
    6.2320   -3.8590   27.6030 C   0  0  0  0  0  0  0  0  0  0  0  0
    5.8850   -5.3160   27.3190 C   0  0  0  0  0  0  0  0  0  0  0  0
    4.7590   -5.6940   28.1710 N   0  0  0  0  0  0  0  0  0  0  0  0
    4.6920   -6.9740   28.8680 C   0  0  0  0  0  0  0  0  0  0  0  0
    3.4300   -7.4480   28.6680 C   0  0  0  0  0  0  0  0  0  0  0  0
    2.4210   -6.5220   28.7400 O   0  0  0  0  0  0  0  0  0  0  0  0
    2.7740   -5.3500   29.4300 C   0  0  0  0  0  0  0  0  0  0  0  0
    3.8520   -4.7570   28.7990 C   0  0  0  0  0  0  0  0  0  0  0  0
    6.7050   -1.6680   26.5490 C   0  0  0  0  0  0  0  0  0  0  0  0
    6.7700   -1.2600   28.0080 C   0  0  0  0  0  0  0  0  0  0  0  0
    6.0560   -0.0390   28.5020 C   0  0  0  0  0  0  0  0  0  0  0  0
    5.5620   -1.3440   28.9350 C   0  0  0  0  0  0  0  0  0  0  0  0
    7.3270   -3.0120   23.5580 C   0  0  0  0  0  0  0  0  0  0  0  0
    7.6000   -3.1910   22.2300 C   0  0  0  0  0  0  0  0  0  0  0  0
  1  2  1  0
  2  3  2  0
  2  4  1  0
  4  5  1  0
  5  6  1  0
  6  7  1  0
  7  8  1  0
  8  9  2  0
  8 10  1  0
 10 11  1  0
 11 12  1  0
 12 13  1  0
 13 14  1  0
 14 15  1  0
 15 16  1  0
 16 17  1  0
 13 18  1  0
 17 18  1  0
 10 19  1  0
 19 20  1  0
 20 21  1  0
 20 22  1  0
 21 22  1  0
  7 23  1  0
  4 24  1  0
 23 24  1  0
M  END
