piperidine-amides-12927-covalent
     RDKit          3D

 21 22  0  0  0  0  0  0  0  0999 V2000
    7.0800   -3.3090   19.3050 C   0  0  0  0  0  0  0  0  0  0  0  0
    6.3000   -4.0930   20.2900 C   0  0  0  0  0  0  0  0  0  0  0  0
    5.2340   -4.5810   19.8840 O   0  0  0  0  0  0  0  0  0  0  0  0
    6.7700   -4.3060   21.5920 N   0  0  0  0  0  0  0  0  0  0  0  0
    6.2730   -5.4010   22.3530 C   0  0  0  0  0  0  0  0  0  0  0  0
    5.5860   -5.0140   23.5940 C   0  0  0  0  0  0  0  0  0  0  0  0
    6.1070   -3.8120   24.3090 C   0  0  0  0  0  0  0  0  0  0  0  0
    5.0940   -3.2930   25.2960 C   0  0  0  0  0  0  0  0  0  0  0  0
    3.9090   -3.3080   24.9300 O   0  0  0  0  0  0  0  0  0  0  0  0
    5.3830   -2.7980   26.6100 N   0  0  0  0  0  0  0  0  0  0  0  0
    6.3250   -3.4460   27.5460 C   0  0  1  0  0  0  0  0  0  0  0  0
    5.8050   -4.7660   28.0300 C   0  0  0  0  0  0  0  0  0  0  0  0
    6.6590   -5.6430   28.8300 C   0  0  0  0  0  0  0  0  0  0  0  0
    7.3400   -3.6760   26.6340 C   0  0  0  0  0  0  0  0  0  0  0  0
    7.6830   -2.9520   25.5140 C   0  0  0  0  0  0  0  0  0  0  0  0
    8.9800   -3.7260   24.7340 S   0  0  0  0  0  0  0  0  0  0  0  0
    9.0710   -4.9830   25.9320 C   0  0  0  0  0  0  0  0  0  0  0  0
    9.8890   -5.9880   26.0230 C   0  0  0  0  0  0  0  0  0  0  0  0
    8.1170   -4.7870   26.8530 C   0  0  0  0  0  0  0  0  0  0  0  0
    6.5210   -2.7370   23.3090 C   0  0  0  0  0  0  0  0  0  0  0  0
    7.4880   -3.3040   22.3360 C   0  0  0  0  0  0  0  0  0  0  0  0
  1  2  1  0
  2  3  2  0
  2  4  1  0
  4  5  1  0
  5  6  1  0
  6  7  1  0
  7  8  1  0
  8  9  2  0
  8 10  1  0
 10 11  1  0
 11 12  1  6
 12 13  1  0
 11 14  1  0
 14 15  2  0
 15 16  1  0
 16 17  1  0
 17 18  1  0
 14 19  1  0
 17 19  2  0
  7 20  1  0
  4 21  1  0
 20 21  1  0
M  END
