piperidine-amides-7333-covalent
     RDKit          3D

 19 20  0  0  0  0  0  0  0  0999 V2000
    7.1070   -3.2720   19.2170 C   0  0  0  0  0  0  0  0  0  0  0  0
    6.3490   -4.0110   20.2330 C   0  0  0  0  0  0  0  0  0  0  0  0
    5.2620   -4.5220   19.8680 O   0  0  0  0  0  0  0  0  0  0  0  0
    6.8550   -4.1660   21.5230 N   0  0  0  0  0  0  0  0  0  0  0  0
    7.6760   -3.1510   22.1470 C   0  0  0  0  0  0  0  0  0  0  0  0
    6.9890   -2.7090   23.4050 C   0  0  0  0  0  0  0  0  0  0  0  0
    6.5140   -3.8880   24.2060 C   0  0  0  0  0  0  0  0  0  0  0  0
    5.8250   -3.3930   25.4290 C   0  0  0  0  0  0  0  0  0  0  0  0
    4.6700   -2.9320   25.2960 O   0  0  0  0  0  0  0  0  0  0  0  0
    6.4020   -3.4110   26.7210 N   0  0  0  0  0  0  0  0  0  0  0  0
    5.7960   -4.1280   27.8230 C   0  0  2  0  0  0  0  0  0  0  0  0
    6.8020   -4.9720   28.6030 C   0  0  0  0  0  0  0  0  0  0  0  0
    4.6790   -4.9980   27.4020 C   0  0  0  0  0  0  0  0  0  0  0  0
    4.7950   -6.1550   26.6870 C   0  0  0  0  0  0  0  0  0  0  0  0
    3.6520   -6.8690   26.3650 C   0  0  0  0  0  0  0  0  0  0  0  0
    2.4910   -6.3330   26.8060 N   0  0  0  0  0  0  0  0  0  0  0  0
    2.9140   -4.9180   27.6250 S   0  0  0  0  0  0  0  0  0  0  0  0
    5.6520   -4.7550   23.3410 C   0  0  0  0  0  0  0  0  0  0  0  0
    6.4250   -5.2650   22.3210 C   0  0  0  0  0  0  0  0  0  0  0  0
  1  2  1  0
  2  3  2  0
  2  4  1  0
  4  5  1  0
  5  6  1  0
  6  7  1  0
  7  8  1  0
  8  9  2  0
  8 10  1  0
 10 11  1  0
 11 12  1  6
 11 13  1  0
 13 14  2  0
 14 15  1  0
 15 16  2  0
 13 17  1  0
 16 17  1  0
  7 18  1  0
  4 19  1  0
 18 19  1  0
M  END
