piperidine-amides-6909-covalent
     RDKit          3D

 22 23  0  0  0  0  0  0  0  0999 V2000
    7.0830   -3.2890   19.2650 C   0  0  0  0  0  0  0  0  0  0  0  0
    6.3030   -4.0330   20.2670 C   0  0  0  0  0  0  0  0  0  0  0  0
    5.2760   -4.6480   19.9180 O   0  0  0  0  0  0  0  0  0  0  0  0
    6.7170   -4.1030   21.6020 N   0  0  0  0  0  0  0  0  0  0  0  0
    6.6020   -5.3740   22.2930 C   0  0  0  0  0  0  0  0  0  0  0  0
    6.1790   -5.1010   23.7470 C   0  0  0  0  0  0  0  0  0  0  0  0
    6.0460   -3.6040   23.9200 C   0  0  0  0  0  0  0  0  0  0  0  0
    5.6060   -3.2290   25.2790 C   0  0  0  0  0  0  0  0  0  0  0  0
    4.3840   -3.0660   25.4740 O   0  0  0  0  0  0  0  0  0  0  0  0
    6.5500   -3.0570   26.3180 N   0  0  0  0  0  0  0  0  0  0  0  0
    6.2200   -3.3900   27.6780 C   0  0  0  0  0  0  0  0  0  0  0  0
    5.1930   -4.5080   27.7040 C   0  0  0  0  0  0  0  0  0  0  0  0
    5.5050   -5.8620   27.7670 C   0  0  0  0  0  0  0  0  0  0  0  0
    4.4550   -6.7400   27.7860 C   0  0  0  0  0  0  0  0  0  0  0  0
    3.2300   -6.1300   27.7390 C   0  0  0  0  0  0  0  0  0  0  0  0
    2.0440   -6.8280   27.7500 C   0  0  0  0  0  0  0  0  0  0  0  0
    1.9440   -7.6150   28.8810 F   0  0  0  0  0  0  0  0  0  0  0  0
    0.9730   -5.9570   27.6400 F   0  0  0  0  0  0  0  0  0  0  0  0
    2.0860   -7.7170   26.6770 F   0  0  0  0  0  0  0  0  0  0  0  0
    3.4860   -4.4140   27.6700 S   0  0  0  0  0  0  0  0  0  0  0  0
    7.4040   -2.9790   23.6280 C   0  0  0  0  0  0  0  0  0  0  0  0
    7.6590   -3.1490   22.1630 C   0  0  0  0  0  0  0  0  0  0  0  0
  1  2  1  0
  2  3  2  0
  2  4  1  0
  4  5  1  0
  5  6  1  0
  6  7  1  0
  7  8  1  0
  8  9  2  0
  8 10  1  0
 10 11  1  0
 11 12  1  0
 12 13  2  0
 13 14  1  0
 14 15  2  0
 15 16  1  0
 16 17  1  0
 16 18  1  0
 16 19  1  0
 12 20  1  0
 15 20  1  0
  7 21  1  0
  4 22  1  0
 21 22  1  0
M  END
