piperidine-amides-8660-covalent
     RDKit          3D

 23 25  0  0  0  0  0  0  0  0999 V2000
    7.0330   -3.3400   19.3300 C   0  0  0  0  0  0  0  0  0  0  0  0
    6.3810   -4.1900   20.3260 C   0  0  0  0  0  0  0  0  0  0  0  0
    5.3820   -4.8440   19.9790 O   0  0  0  0  0  0  0  0  0  0  0  0
    6.9150   -4.2850   21.6390 N   0  0  0  0  0  0  0  0  0  0  0  0
    7.6620   -3.1770   22.1640 C   0  0  0  0  0  0  0  0  0  0  0  0
    7.4880   -3.1140   23.6520 C   0  0  0  0  0  0  0  0  0  0  0  0
    6.0790   -3.5780   23.9400 C   0  0  0  0  0  0  0  0  0  0  0  0
    5.6640   -3.1810   25.3270 C   0  0  0  0  0  0  0  0  0  0  0  0
    4.4660   -3.2610   25.5830 O   0  0  0  0  0  0  0  0  0  0  0  0
    6.6570   -2.7590   26.1970 N   0  0  0  0  0  0  0  0  0  0  0  0
    6.5210   -1.6190   27.0490 C   0  0  0  0  0  0  0  0  0  0  0  0
    7.0250   -1.5650   28.3360 C   0  0  0  0  0  0  0  0  0  0  0  0
    6.8830   -0.4550   29.1280 C   0  0  0  0  0  0  0  0  0  0  0  0
    6.2290    0.7270   28.7500 C   0  0  0  0  0  0  0  0  0  0  0  0
    5.6440    0.7450   27.3500 C   0  0  0  0  0  0  0  0  0  0  0  0
    5.8160   -0.5140   26.4670 C   0  0  0  0  0  0  0  0  0  0  0  0
    5.0160    1.8840   27.0080 N   0  0  0  0  0  0  0  0  0  0  0  0
    4.2000    1.8830   25.8270 C   0  0  0  0  0  0  0  0  0  0  0  0
    4.6100    2.8630   27.9770 C   0  0  0  0  0  0  0  0  0  0  0  0
    4.9970    2.5760   29.4490 C   0  0  0  0  0  0  0  0  0  0  0  0
    6.1360    1.8180   29.6410 C   0  0  0  0  0  0  0  0  0  0  0  0
    6.0750   -5.0690   23.8050 C   0  0  0  0  0  0  0  0  0  0  0  0
    6.5370   -5.4430   22.4190 C   0  0  0  0  0  0  0  0  0  0  0  0
  1  2  1  0
  2  3  2  0
  2  4  1  0
  4  5  1  0
  5  6  1  0
  6  7  1  0
  7  8  1  0
  8  9  2  0
  8 10  1  0
 10 11  1  0
 11 12  2  0
 12 13  1  0
 13 14  2  0
 14 15  1  0
 11 16  1  0
 15 16  2  0
 15 17  1  0
 17 18  1  0
 17 19  1  0
 19 20  1  0
 14 21  1  0
 20 21  1  0
  7 22  1  0
  4 23  1  0
 22 23  1  0
M  END
