piperidine-amides-1706-covalent
     RDKit          3D

 20 21  0  0  0  0  0  0  0  0999 V2000
    7.0950   -3.3520   19.3520 C   0  0  0  0  0  0  0  0  0  0  0  0
    6.3630   -4.1740   20.3440 C   0  0  0  0  0  0  0  0  0  0  0  0
    5.3570   -4.8070   19.9760 O   0  0  0  0  0  0  0  0  0  0  0  0
    6.8740   -4.2550   21.6590 N   0  0  0  0  0  0  0  0  0  0  0  0
    7.7380   -3.2350   22.2260 C   0  0  0  0  0  0  0  0  0  0  0  0
    7.3110   -3.0030   23.6780 C   0  0  0  0  0  0  0  0  0  0  0  0
    5.9460   -3.5800   23.7910 C   0  0  0  0  0  0  0  0  0  0  0  0
    5.1580   -3.1010   24.9490 C   0  0  0  0  0  0  0  0  0  0  0  0
    4.0830   -2.5600   24.6990 O   0  0  0  0  0  0  0  0  0  0  0  0
    5.6100   -3.2600   26.2430 N   0  0  0  0  0  0  0  0  0  0  0  0
    5.8830   -2.2530   27.1950 C   0  0  0  0  0  0  0  0  0  0  0  0
    6.4980   -2.6180   28.3170 C   0  0  0  0  0  0  0  0  0  0  0  0
    7.7950   -2.8810   28.0130 C   0  0  0  0  0  0  0  0  0  0  0  0
    8.0910   -2.8200   26.6570 C   0  0  0  0  0  0  0  0  0  0  0  0
    7.9970   -4.3290   28.3320 C   0  0  0  0  0  0  0  0  0  0  0  0
    8.5600   -2.1060   28.8030 C   0  0  0  0  0  0  0  0  0  0  0  0
    6.1780   -0.8640   26.6690 C   0  0  0  0  0  0  0  0  0  0  0  0
    5.1610   -1.0560   27.3020 C   0  0  0  0  0  0  0  0  0  0  0  0
    5.9400   -5.0640   23.7240 C   0  0  0  0  0  0  0  0  0  0  0  0
    6.6170   -5.4580   22.4240 C   0  0  0  0  0  0  0  0  0  0  0  0
  1  2  1  0
  2  3  2  0
  2  4  1  0
  4  5  1  0
  5  6  1  0
  6  7  1  0
  7  8  1  0
  8  9  2  0
  8 10  1  0
 11 10  1  0
 11 12  1  0
 13 12  1  0
 13 14  1  0
 13 15  1  0
 13 16  1  0
 11 17  1  0
 11 18  1  0
 17 18  1  0
  7 19  1  0
  4 20  1  0
 19 20  1  0
M  END
