piperidine-amides-28694-covalent
     RDKit          3D

 25 27  0  0  0  0  0  0  0  0999 V2000
    6.9700   -3.3540   19.3630 C   0  0  0  0  0  0  0  0  0  0  0  0
    6.3120   -4.2120   20.3550 C   0  0  0  0  0  0  0  0  0  0  0  0
    5.3530   -4.9000   19.9820 O   0  0  0  0  0  0  0  0  0  0  0  0
    6.7870   -4.2720   21.6910 N   0  0  0  0  0  0  0  0  0  0  0  0
    6.5320   -5.4660   22.4590 C   0  0  0  0  0  0  0  0  0  0  0  0
    5.8760   -5.1460   23.7890 C   0  0  0  0  0  0  0  0  0  0  0  0
    5.8790   -3.6430   23.9740 C   0  0  0  0  0  0  0  0  0  0  0  0
    5.3890   -3.2150   25.3460 C   0  0  0  0  0  0  0  0  0  0  0  0
    4.1910   -2.9510   25.3940 O   0  0  0  0  0  0  0  0  0  0  0  0
    6.2480   -3.1430   26.4580 N   0  0  0  0  0  0  0  0  0  0  0  0
    6.7000   -4.3200   27.1550 C   0  0  0  0  0  0  0  0  0  0  0  0
    5.8830   -5.4540   27.1820 C   0  0  0  0  0  0  0  0  0  0  0  0
    5.3470   -5.8280   28.3980 C   0  0  0  0  0  0  0  0  0  0  0  0
    5.0440   -7.1560   28.6600 C   0  0  0  0  0  0  0  0  0  0  0  0
    6.6260   -1.7000   26.9870 C   0  0  1  0  0  0  0  0  0  0  0  0
    5.4720   -0.7650   26.5830 C   0  0  0  0  0  0  0  0  0  0  0  0
    5.7280    0.6450   26.9890 C   0  0  0  0  0  0  0  0  0  0  0  0
    6.0090    0.5500   28.4640 C   0  0  0  0  0  0  0  0  0  0  0  0
    5.6500    1.5290   29.3140 N   0  0  0  0  0  0  0  0  0  0  0  0
    5.9390    1.3850   30.6830 C   0  0  0  0  0  0  0  0  0  0  0  0
    6.7430   -0.1920   30.7300 S   0  0  0  0  0  0  0  0  0  0  0  0
    6.6510   -0.5480   29.0490 C   0  0  0  0  0  0  0  0  0  0  0  0
    7.0690   -1.6160   28.2970 C   0  0  0  0  0  0  0  0  0  0  0  0
    7.2130   -3.0900   23.6990 C   0  0  0  0  0  0  0  0  0  0  0  0
    7.5610   -3.2030   22.2500 C   0  0  0  0  0  0  0  0  0  0  0  0
  1  2  1  0
  2  3  2  0
  2  4  1  0
  4  5  1  0
  5  6  1  0
  6  7  1  0
  7  8  1  0
  8  9  2  0
  8 10  1  0
 10 11  1  0
 11 12  1  0
 12 13  1  0
 13 14  1  0
 15 10  1  1
 15 16  1  0
 16 17  1  0
 17 18  1  0
 18 19  1  0
 19 20  2  0
 20 21  1  0
 18 22  2  0
 21 22  1  0
 15 23  1  0
 22 23  1  0
  7 24  1  0
  4 25  1  0
 24 25  1  0
M  END
