piperidine-amides-1929-covalent
     RDKit          3D

 27 29  0  0  0  0  0  0  0  0999 V2000
    7.0820   -3.3230   19.3060 C   0  0  0  0  0  0  0  0  0  0  0  0
    6.3250   -4.1210   20.2990 C   0  0  0  0  0  0  0  0  0  0  0  0
    5.2900   -4.6570   19.9200 O   0  0  0  0  0  0  0  0  0  0  0  0
    6.8340   -4.2700   21.5890 N   0  0  0  0  0  0  0  0  0  0  0  0
    7.6290   -3.2530   22.2280 C   0  0  0  0  0  0  0  0  0  0  0  0
    6.8750   -2.6960   23.4010 C   0  0  0  0  0  0  0  0  0  0  0  0
    6.4510   -3.8620   24.2910 C   0  0  0  0  0  0  0  0  0  0  0  0
    5.6100   -3.3280   25.3950 C   0  0  0  0  0  0  0  0  0  0  0  0
    4.4080   -3.1420   25.1790 O   0  0  0  0  0  0  0  0  0  0  0  0
    6.1280   -3.0330   26.6800 N   0  0  0  0  0  0  0  0  0  0  0  0
    6.5240   -1.6620   26.9470 C   0  0  2  0  0  0  0  0  0  0  0  0
    7.0210   -1.5850   28.3540 C   0  0  0  0  0  0  0  0  0  0  0  0
    6.4170   -0.5490   28.9190 C   0  0  0  0  0  0  0  0  0  0  0  0
    5.4800    0.1130   28.0790 N   0  0  0  0  0  0  0  0  0  0  0  0
    4.1960    0.5320   28.6080 C   0  0  1  0  0  0  0  0  0  0  0  0
    4.2470    0.8170   29.9490 C   0  0  0  0  0  0  0  0  0  0  0  0
    3.2530    1.7620   30.5780 C   0  0  0  0  0  0  0  0  0  0  0  0
    3.2550    1.9910   31.9320 O   0  0  0  0  0  0  0  0  0  0  0  0
    2.3170    2.4140   29.7670 N   0  0  0  0  0  0  0  0  0  0  0  0
    1.5380    3.5130   30.2800 C   0  0  0  0  0  0  0  0  0  0  0  0
    2.2740    4.8240   30.3150 C   0  0  0  0  0  0  0  0  0  0  0  0
    2.4390    2.2270   28.3440 C   0  0  0  0  0  0  0  0  0  0  0  0
    1.5360    2.6040   27.5560 O   0  0  0  0  0  0  0  0  0  0  0  0
    3.6520    1.5860   27.9390 N   0  0  0  0  0  0  0  0  0  0  0  0
    5.4760   -0.5980   26.7940 C   0  0  0  0  0  0  0  0  0  0  0  0
    5.8350   -5.0130   23.5890 C   0  0  0  0  0  0  0  0  0  0  0  0
    6.5390   -5.4600   22.3560 C   0  0  0  0  0  0  0  0  0  0  0  0
  1  2  1  0
  2  3  2  0
  2  4  1  0
  4  5  1  0
  5  6  1  0
  6  7  1  0
  7  8  1  0
  8  9  2  0
  8 10  1  0
 11 10  1  1
 11 12  1  0
 12 13  1  0
 13 14  1  0
 15 14  1  6
 15 16  1  0
 16 17  1  0
 17 18  2  0
 17 19  1  0
 19 20  1  0
 20 21  1  0
 19 22  1  0
 22 23  2  0
 15 24  1  0
 22 24  1  0
 11 25  1  0
 14 25  1  0
  7 26  1  0
  4 27  1  0
 26 27  1  0
M  END
