piperidine-amides-2338-covalent
     RDKit          3D

 27 29  0  0  0  0  0  0  0  0999 V2000
    7.1080   -3.2840   19.2250 C   0  0  0  0  0  0  0  0  0  0  0  0
    6.3180   -4.0230   20.2410 C   0  0  0  0  0  0  0  0  0  0  0  0
    5.2580   -4.5220   19.8730 O   0  0  0  0  0  0  0  0  0  0  0  0
    6.8110   -4.1850   21.5350 N   0  0  0  0  0  0  0  0  0  0  0  0
    7.7000   -3.2140   22.1430 C   0  0  0  0  0  0  0  0  0  0  0  0
    7.3930   -3.0990   23.6040 C   0  0  0  0  0  0  0  0  0  0  0  0
    6.0700   -3.8110   23.8660 C   0  0  0  0  0  0  0  0  0  0  0  0
    5.5950   -3.5440   25.2290 C   0  0  0  0  0  0  0  0  0  0  0  0
    4.3990   -3.7320   25.4810 O   0  0  0  0  0  0  0  0  0  0  0  0
    6.4350   -3.0640   26.2440 N   0  0  0  0  0  0  0  0  0  0  0  0
    5.8600   -1.9930   26.9910 C   0  0  1  0  0  0  0  0  0  0  0  0
    5.0010   -2.5520   28.1060 C   0  0  0  0  0  0  0  0  0  0  0  0
    4.9100   -4.0060   28.1130 N   0  0  0  0  0  0  0  0  0  0  0  0
    4.1030   -4.2750   29.1590 O   0  0  0  0  0  0  0  0  0  0  0  0
    3.7750   -3.0750   29.6850 C   0  0  0  0  0  0  0  0  0  0  0  0
    2.9690   -2.9350   30.7630 C   0  0  0  0  0  0  0  0  0  0  0  0
    4.2930   -1.9850   29.0890 N   0  0  0  0  0  0  0  0  0  0  0  0
    6.7640   -0.9870   27.6250 C   0  0  0  0  0  0  0  0  0  0  0  0
    7.2310   -1.6260   28.9120 C   0  0  0  0  0  0  0  0  0  0  0  0
    8.1610   -0.7710   29.7140 C   0  0  0  0  0  0  0  0  0  0  0  0
    8.5470    0.5910   29.2140 C   0  0  0  0  0  0  0  0  0  0  0  0
    7.9840    1.0610   27.9160 C   0  0  0  0  0  0  0  0  0  0  0  0
    7.0530    0.3430   26.9980 C   0  0  0  0  0  0  0  0  0  0  0  0
    6.5730    0.7290   25.9070 O   0  0  0  0  0  0  0  0  0  0  0  0
    6.8660    2.0660   25.4670 C   0  0  0  0  0  0  0  0  0  0  0  0
    6.2420   -5.2900   23.6350 C   0  0  0  0  0  0  0  0  0  0  0  0
    6.6570   -5.4640   22.2040 C   0  0  0  0  0  0  0  0  0  0  0  0
  1  2  1  0
  2  3  2  0
  2  4  1  0
  4  5  1  0
  5  6  1  0
  6  7  1  0
  7  8  1  0
  8  9  2  0
  8 10  1  0
 11 10  1  1
 11 12  1  0
 12 13  2  0
 13 14  1  0
 14 15  1  0
 15 16  1  0
 12 17  1  0
 15 17  2  0
 11 18  1  0
 18 19  2  0
 19 20  1  0
 20 21  2  0
 21 22  1  0
 18 23  1  0
 22 23  2  0
 23 24  1  0
 24 25  1  0
  7 26  1  0
  4 27  1  0
 26 27  1  0
M  END
