piperidine-amides-29661-covalent
     RDKit          3D

 22 23  0  0  0  0  0  0  0  0999 V2000
    7.0880   -3.2790   19.2850 C   0  0  0  0  0  0  0  0  0  0  0  0
    6.3610   -4.0820   20.2640 C   0  0  0  0  0  0  0  0  0  0  0  0
    5.3220   -4.6490   19.9280 O   0  0  0  0  0  0  0  0  0  0  0  0
    6.8750   -4.2700   21.5980 N   0  0  0  0  0  0  0  0  0  0  0  0
    6.5500   -5.4830   22.3100 C   0  0  0  0  0  0  0  0  0  0  0  0
    5.9570   -5.2120   23.6790 C   0  0  0  0  0  0  0  0  0  0  0  0
    6.0800   -3.7360   24.0280 C   0  0  0  0  0  0  0  0  0  0  0  0
    5.6300   -3.5060   25.4310 C   0  0  0  0  0  0  0  0  0  0  0  0
    4.4960   -3.8420   25.8130 O   0  0  0  0  0  0  0  0  0  0  0  0
    6.4770   -2.8800   26.3710 N   0  0  0  0  0  0  0  0  0  0  0  0
    6.4390   -3.4100   27.7140 C   0  0  0  0  0  0  0  0  0  0  0  0
    6.7040   -1.4810   26.1380 C   0  0  0  0  0  0  0  0  0  0  0  0
    5.8850   -0.8530   25.2160 C   0  0  0  0  0  0  0  0  0  0  0  0
    6.4780   -0.2010   24.1070 C   0  0  0  0  0  0  0  0  0  0  0  0
    5.7010    0.4370   23.1580 C   0  0  0  0  0  0  0  0  0  0  0  0
    4.2720    0.4230   23.3310 C   0  0  0  0  0  0  0  0  0  0  0  0
    3.1180    1.2730   22.0740 Br  0  0  0  0  0  0  0  0  0  0  0  0
    3.6800   -0.1940   24.3890 C   0  0  0  0  0  0  0  0  0  0  0  0
    2.3450   -0.1990   24.5480 F   0  0  0  0  0  0  0  0  0  0  0  0
    4.4970   -0.8190   25.3080 C   0  0  0  0  0  0  0  0  0  0  0  0
    7.3570   -3.1060   23.6470 C   0  0  0  0  0  0  0  0  0  0  0  0
    7.6250   -3.2280   22.2220 C   0  0  0  0  0  0  0  0  0  0  0  0
  1  2  1  0
  2  3  2  0
  2  4  1  0
  4  5  1  0
  5  6  1  0
  6  7  1  0
  7  8  1  0
  8  9  2  0
  8 10  1  0
 10 11  1  0
 10 12  1  0
 12 13  1  0
 13 14  2  0
 14 15  1  0
 15 16  2  0
 16 17  1  0
 16 18  1  0
 18 19  1  0
 13 20  1  0
 18 20  2  0
  7 21  1  0
  4 22  1  0
 21 22  1  0
M  END
