piperidine-amides-24785-covalent
     RDKit          3D

 24 26  0  0  0  0  0  0  0  0999 V2000
    7.0920   -3.3200   19.3390 C   0  0  0  0  0  0  0  0  0  0  0  0
    6.4190   -4.1940   20.3070 C   0  0  0  0  0  0  0  0  0  0  0  0
    5.3850   -4.8190   19.9760 O   0  0  0  0  0  0  0  0  0  0  0  0
    6.9550   -4.3880   21.5880 N   0  0  0  0  0  0  0  0  0  0  0  0
    6.7140   -5.6240   22.2680 C   0  0  0  0  0  0  0  0  0  0  0  0
    5.8850   -5.2380   23.4830 C   0  0  0  0  0  0  0  0  0  0  0  0
    6.6620   -4.1740   24.2290 C   0  0  0  0  0  0  0  0  0  0  0  0
    5.8510   -3.8300   25.4230 C   0  0  0  0  0  0  0  0  0  0  0  0
    4.6130   -3.8990   25.2560 O   0  0  0  0  0  0  0  0  0  0  0  0
    6.3470   -3.3990   26.6930 N   0  0  0  0  0  0  0  0  0  0  0  0
    5.7880   -2.1290   26.8860 C   0  0  0  0  0  0  0  0  0  0  0  0
    4.5710   -2.6060   27.5960 C   0  0  0  0  0  0  0  0  0  0  0  0
    4.9780   -3.4330   28.5320 C   0  0  2  0  0  0  0  0  0  0  0  0
    5.6890   -2.6910   29.4200 C   0  0  0  0  0  0  0  0  0  0  0  0
    7.0330   -2.4260   29.2360 O   0  0  0  0  0  0  0  0  0  0  0  0
    5.0290   -2.1640   30.4910 O   0  0  0  0  0  0  0  0  0  0  0  0
    4.9590   -0.7910   30.5800 C   0  0  0  0  0  0  0  0  0  0  0  0
    6.2720   -0.3720   30.6230 C   0  0  0  0  0  0  0  0  0  0  0  0
    5.8960   -4.2250   27.8710 C   0  0  0  0  0  0  0  0  0  0  0  0
    6.8200   -4.8910   28.7410 C   0  0  0  0  0  0  0  0  0  0  0  0
    6.5590   -6.0510   28.1150 O   0  0  0  0  0  0  0  0  0  0  0  0
    5.3980   -5.5540   27.3610 C   0  0  0  0  0  0  0  0  0  0  0  0
    6.8750   -2.9470   23.3690 C   0  0  0  0  0  0  0  0  0  0  0  0
    7.6810   -3.3480   22.2890 C   0  0  0  0  0  0  0  0  0  0  0  0
  1  2  1  0
  2  3  2  0
  2  4  1  0
  4  5  1  0
  5  6  1  0
  6  7  1  0
  7  8  1  0
  8  9  2  0
  8 10  1  0
 10 11  1  0
 11 12  1  0
 12 13  1  0
 13 14  1  1
 14 15  2  0
 14 16  1  0
 16 17  1  0
 17 18  1  0
 19 10  1  0
 13 19  1  0
 19 20  1  0
 20 21  1  0
 19 22  1  0
 21 22  1  0
  7 23  1  0
  4 24  1  0
 23 24  1  0
M  END
