piperidine-amides-748-covalent
     RDKit          3D

 25 26  0  0  0  0  0  0  0  0999 V2000
    7.1830   -3.2680   19.3010 C   0  0  0  0  0  0  0  0  0  0  0  0
    6.4090   -4.0220   20.2600 C   0  0  0  0  0  0  0  0  0  0  0  0
    5.3210   -4.5660   19.8910 O   0  0  0  0  0  0  0  0  0  0  0  0
    6.8590   -4.2010   21.5770 N   0  0  0  0  0  0  0  0  0  0  0  0
    7.6880   -3.1240   22.1690 C   0  0  0  0  0  0  0  0  0  0  0  0
    6.6670   -2.5650   23.2250 C   0  0  0  0  0  0  0  0  0  0  0  0
    6.4330   -3.7670   24.0960 C   0  0  0  0  0  0  0  0  0  0  0  0
    5.7380   -3.4070   25.4770 C   0  0  0  0  0  0  0  0  0  0  0  0
    4.9890   -4.3070   25.8210 O   0  0  0  0  0  0  0  0  0  0  0  0
    6.1160   -2.2670   25.8790 N   0  0  0  0  0  0  0  0  0  0  0  0
    6.4280   -1.0310   26.3410 C   0  0  0  0  0  0  0  0  0  0  0  0
    5.8300    0.1490   26.7220 C   0  0  0  0  0  0  0  0  0  0  0  0
    4.7250    0.6890   25.9500 C   0  0  0  0  0  0  0  0  0  0  0  0
    3.9170    1.9300   26.1540 C   0  0  0  0  0  0  0  0  0  0  0  0
    4.5770    2.4630   27.3910 C   0  0  0  0  0  0  0  0  0  0  0  0
    4.1470    3.6540   27.9820 C   0  0  0  0  0  0  0  0  0  0  0  0
    5.6380    2.2140   28.3740 C   0  0  0  0  0  0  0  0  0  0  0  0
    6.3200    0.9180   27.9770 C   0  0  0  0  0  0  0  0  0  0  0  0
    7.2610    0.5000   28.6670 O   0  0  0  0  0  0  0  0  0  0  0  0
    6.8120   -0.3630   29.6340 C   0  0  0  0  0  0  0  0  0  0  0  0
    7.2560   -1.5990   29.2460 C   0  0  0  0  0  0  0  0  0  0  0  0
    5.4220   -0.3360   30.1270 C   0  0  0  0  0  0  0  0  0  0  0  0
    7.7460   -0.2670   30.8000 C   0  0  0  0  0  0  0  0  0  0  0  0
    5.8280   -4.9710   23.4510 C   0  0  0  0  0  0  0  0  0  0  0  0
    6.5620   -5.3760   22.3400 C   0  0  0  0  0  0  0  0  0  0  0  0
  1  2  1  0
  2  3  2  0
  2  4  1  0
  4  5  1  0
  5  6  1  0
  6  7  1  0
  7  8  1  0
  8  9  2  0
  8 10  1  0
 10 11  1  0
 11 12  1  0
 12 13  2  0
 13 14  1  0
 14 15  2  0
 15 16  1  0
 15 17  1  0
 12 18  1  0
 17 18  2  0
 18 19  1  0
 20 19  1  0
 20 21  1  0
 20 22  1  0
 20 23  1  0
  7 24  1  0
  4 25  1  0
 24 25  1  0
M  END
