piperidine-amides-24594-covalent
     RDKit          3D

 24 25  0  0  0  0  0  0  0  0999 V2000
    7.0600   -3.3360   19.2910 C   0  0  0  0  0  0  0  0  0  0  0  0
    6.3920   -4.1850   20.2900 C   0  0  0  0  0  0  0  0  0  0  0  0
    5.3650   -4.8210   19.9760 O   0  0  0  0  0  0  0  0  0  0  0  0
    6.9340   -4.3340   21.5760 N   0  0  0  0  0  0  0  0  0  0  0  0
    6.6020   -5.5160   22.3330 C   0  0  0  0  0  0  0  0  0  0  0  0
    5.7150   -5.0450   23.4900 C   0  0  0  0  0  0  0  0  0  0  0  0
    6.4960   -3.9980   24.2660 C   0  0  0  0  0  0  0  0  0  0  0  0
    5.7090   -3.5570   25.4350 C   0  0  0  0  0  0  0  0  0  0  0  0
    4.4560   -3.5700   25.3920 O   0  0  0  0  0  0  0  0  0  0  0  0
    6.3790   -3.1100   26.5880 N   0  0  0  0  0  0  0  0  0  0  0  0
    6.6750   -4.0300   27.6910 C   0  0  0  0  0  0  0  0  0  0  0  0
    5.3670   -4.5320   28.2170 C   0  0  0  0  0  0  0  0  0  0  0  0
    7.3420   -5.2560   27.1540 C   0  0  0  0  0  0  0  0  0  0  0  0
    6.7370   -1.8140   27.1960 C   0  0  1  0  0  0  0  0  0  0  0  0
    5.7950   -0.9100   26.6960 C   0  0  0  0  0  0  0  0  0  0  0  0
    5.7530    0.3270   27.3120 C   0  0  0  0  0  0  0  0  0  0  0  0
    6.5780    0.5410   28.5710 C   0  0  1  0  0  0  0  0  0  0  0  0
    5.1440    1.0110   28.6630 C   0  0  0  0  0  0  0  0  0  0  0  0
    4.2810    0.2730   29.6450 C   0  0  0  0  0  0  0  0  0  0  0  0
    4.5460    1.6470   30.0750 C   0  0  0  0  0  0  0  0  0  0  0  0
    7.1640   -0.5750   29.1220 C   0  0  0  0  0  0  0  0  0  0  0  0
    6.8660   -1.7890   28.5700 C   0  0  0  0  0  0  0  0  0  0  0  0
    6.8000   -2.7910   23.4010 C   0  0  0  0  0  0  0  0  0  0  0  0
    7.6030   -3.2310   22.2090 C   0  0  0  0  0  0  0  0  0  0  0  0
  1  2  1  0
  2  3  2  0
  2  4  1  0
  4  5  1  0
  5  6  1  0
  6  7  1  0
  7  8  1  0
  8  9  2  0
  8 10  1  0
 10 11  1  0
 11 12  1  0
 11 13  1  0
 14 10  1  1
 14 15  1  0
 15 16  1  0
 16 17  1  0
 17 18  1  1
 18 19  1  0
 19 20  1  0
 17 21  1  0
 14 22  1  0
 21 22  1  0
  7 23  1  0
  4 24  1  0
 23 24  1  0
M  END
