piperidine-amides-28735-covalent
     RDKit          3D

 26 28  0  0  0  0  0  0  0  0999 V2000
    6.9970   -3.3700   19.3920 C   0  0  0  0  0  0  0  0  0  0  0  0
    6.3590   -4.2420   20.3830 C   0  0  0  0  0  0  0  0  0  0  0  0
    5.4060   -4.9400   19.9970 O   0  0  0  0  0  0  0  0  0  0  0  0
    6.8420   -4.3050   21.7200 N   0  0  0  0  0  0  0  0  0  0  0  0
    6.6270   -5.5200   22.4720 C   0  0  0  0  0  0  0  0  0  0  0  0
    6.2040   -5.2280   23.8950 C   0  0  0  0  0  0  0  0  0  0  0  0
    6.1480   -3.7270   24.0600 C   0  0  0  0  0  0  0  0  0  0  0  0
    5.5560   -3.2340   25.3650 C   0  0  0  0  0  0  0  0  0  0  0  0
    5.0200   -2.1390   25.2920 O   0  0  0  0  0  0  0  0  0  0  0  0
    5.5910   -3.9810   26.5480 N   0  0  0  0  0  0  0  0  0  0  0  0
    4.3980   -4.4380   27.1330 C   0  0  0  0  0  0  0  0  0  0  0  0
    4.4620   -4.5160   28.5360 C   0  0  0  0  0  0  0  0  0  0  0  0
    5.5980   -5.0430   29.0870 C   0  0  0  0  0  0  0  0  0  0  0  0
    5.5460   -6.4090   29.3380 C   0  0  0  0  0  0  0  0  0  0  0  0
    5.0670   -6.5590   30.7480 C   0  0  0  0  0  0  0  0  0  0  0  0
    5.7520   -7.6120   31.6390 C   0  0  0  0  0  0  0  0  0  0  0  0
    5.3380   -7.8230   33.0530 C   0  0  0  0  0  0  0  0  0  0  0  0
    4.2180   -6.9670   33.5880 C   0  0  0  0  0  0  0  0  0  0  0  0
    3.7940   -7.1150   34.8920 F   0  0  0  0  0  0  0  0  0  0  0  0
    3.5820   -5.9350   32.6220 C   0  0  0  0  0  0  0  0  0  0  0  0
    2.5600   -5.2170   33.2500 F   0  0  0  0  0  0  0  0  0  0  0  0
    3.9470   -5.7250   31.3180 C   0  0  0  0  0  0  0  0  0  0  0  0
    6.7400   -4.7010   28.4670 C   0  0  0  0  0  0  0  0  0  0  0  0
    6.3810   -3.4980   27.6190 C   0  0  0  0  0  0  0  0  0  0  0  0
    7.5390   -3.1740   23.7640 C   0  0  0  0  0  0  0  0  0  0  0  0
    7.6730   -3.2640   22.2630 C   0  0  0  0  0  0  0  0  0  0  0  0
  1  2  1  0
  2  3  2  0
  2  4  1  0
  4  5  1  0
  5  6  1  0
  6  7  1  0
  7  8  1  0
  8  9  2  0
  8 10  1  0
 10 11  1  0
 11 12  1  0
 12 13  1  0
 13 14  1  0
 14 15  1  0
 15 16  2  0
 16 17  1  0
 17 18  2  0
 18 19  1  0
 18 20  1  0
 20 21  1  0
 15 22  1  0
 20 22  2  0
 13 23  1  0
 10 24  1  0
 23 24  1  0
  7 25  1  0
  4 26  1  0
 25 26  1  0
M  END
