piperidine-amides-11221-covalent
     RDKit          3D

 19 20  0  0  0  0  0  0  0  0999 V2000
    7.0680   -3.3200   19.2790 C   0  0  0  0  0  0  0  0  0  0  0  0
    6.3670   -4.1270   20.2780 C   0  0  0  0  0  0  0  0  0  0  0  0
    5.3370   -4.7410   19.9530 O   0  0  0  0  0  0  0  0  0  0  0  0
    6.8710   -4.2580   21.5790 N   0  0  0  0  0  0  0  0  0  0  0  0
    7.6740   -3.2350   22.2140 C   0  0  0  0  0  0  0  0  0  0  0  0
    6.8350   -2.7210   23.3460 C   0  0  0  0  0  0  0  0  0  0  0  0
    6.4760   -3.8360   24.2700 C   0  0  0  0  0  0  0  0  0  0  0  0
    5.7420   -3.3630   25.4760 C   0  0  0  0  0  0  0  0  0  0  0  0
    4.4700   -3.3240   25.5170 O   0  0  0  0  0  0  0  0  0  0  0  0
    6.4220   -2.9360   26.6400 N   0  0  0  0  0  0  0  0  0  0  0  0
    6.0260   -1.7200   27.3960 C   0  0  2  0  0  0  0  0  0  0  0  0
    5.9180   -0.5460   26.5010 C   0  0  0  0  0  0  0  0  0  0  0  0
    6.0240    0.7350   27.2170 C   0  0  0  0  0  0  0  0  0  0  0  0
    6.3520    0.7920   28.6780 C   0  0  0  0  0  0  0  0  0  0  0  0
    6.4720    2.0950   29.4490 C   0  0  0  0  0  0  0  0  0  0  0  0
    6.5600   -0.5620   29.3730 C   0  0  0  0  0  0  0  0  0  0  0  0
    7.1220   -1.4010   28.4410 C   0  0  0  0  0  0  0  0  0  0  0  0
    5.7080   -4.9260   23.5600 C   0  0  0  0  0  0  0  0  0  0  0  0
    6.5210   -5.4160   22.3790 C   0  0  0  0  0  0  0  0  0  0  0  0
  1  2  1  0
  2  3  2  0
  2  4  1  0
  4  5  1  0
  5  6  1  0
  6  7  1  0
  7  8  1  0
  8  9  2  0
  8 10  1  0
 11 10  1  6
 11 12  1  0
 12 13  1  0
 13 14  2  0
 14 15  1  0
 14 16  1  0
 11 17  1  0
 16 17  1  0
  7 18  1  0
  4 19  1  0
 18 19  1  0
M  END
