piperidine-amides-21681-covalent
     RDKit          3D

 23 25  0  0  0  0  0  0  0  0999 V2000
    7.0600   -3.3610   19.3900 C   0  0  0  0  0  0  0  0  0  0  0  0
    6.4270   -4.2410   20.3760 C   0  0  0  0  0  0  0  0  0  0  0  0
    5.3880   -4.8400   19.9870 O   0  0  0  0  0  0  0  0  0  0  0  0
    6.9930   -4.4350   21.6480 N   0  0  0  0  0  0  0  0  0  0  0  0
    6.6710   -5.5690   22.4640 C   0  0  0  0  0  0  0  0  0  0  0  0
    5.8450   -5.0850   23.6290 C   0  0  0  0  0  0  0  0  0  0  0  0
    6.3210   -3.7900   24.2690 C   0  0  0  0  0  0  0  0  0  0  0  0
    5.2390   -3.2940   25.1700 C   0  0  0  0  0  0  0  0  0  0  0  0
    4.0830   -3.2870   24.7140 O   0  0  0  0  0  0  0  0  0  0  0  0
    5.3960   -2.8430   26.4990 N   0  0  0  0  0  0  0  0  0  0  0  0
    4.3020   -2.8560   27.4120 C   0  0  0  0  0  0  0  0  0  0  0  0
    4.3700   -4.0920   28.2930 C   0  0  0  0  0  0  0  0  0  0  0  0
    5.5050   -4.5470   28.8700 C   0  0  0  0  0  0  0  0  0  0  0  0
    5.5050   -5.7640   29.4840 C   0  0  0  0  0  0  0  0  0  0  0  0
    6.3980   -6.7570   29.2830 C   0  0  0  0  0  0  0  0  0  0  0  0
    6.0910   -7.8050   30.0510 C   0  0  0  0  0  0  0  0  0  0  0  0
    5.0000   -7.5610   30.7870 N   0  0  0  0  0  0  0  0  0  0  0  0
    4.6530   -6.2940   30.4190 N   0  0  0  0  0  0  0  0  0  0  0  0
    3.4780   -5.8290   31.0990 C   0  0  0  0  0  0  0  0  0  0  0  0
    6.5000   -4.4020   27.9970 C   0  0  0  0  0  0  0  0  0  0  0  0
    6.5560   -3.1250   27.1600 C   0  0  0  0  0  0  0  0  0  0  0  0
    6.7080   -2.7080   23.2390 C   0  0  0  0  0  0  0  0  0  0  0  0
    7.7190   -3.3690   22.3240 C   0  0  0  0  0  0  0  0  0  0  0  0
  1  2  1  0
  2  3  2  0
  2  4  1  0
  4  5  1  0
  5  6  1  0
  6  7  1  0
  7  8  1  0
  8  9  2  0
  8 10  1  0
 10 11  1  0
 11 12  1  0
 12 13  1  0
 13 14  1  0
 14 15  2  0
 15 16  1  0
 16 17  2  0
 14 18  1  0
 17 18  1  0
 18 19  1  0
 13 20  1  0
 10 21  1  0
 20 21  1  0
  7 22  1  0
  4 23  1  0
 22 23  1  0
M  END
