piperidine-amides-28751-covalent
     RDKit          3D

 26 28  0  0  0  0  0  0  0  0999 V2000
    7.0440   -3.3630   19.3900 C   0  0  0  0  0  0  0  0  0  0  0  0
    6.3540   -4.1790   20.3830 C   0  0  0  0  0  0  0  0  0  0  0  0
    5.3970   -4.8730   19.9920 O   0  0  0  0  0  0  0  0  0  0  0  0
    6.7960   -4.2000   21.7330 N   0  0  0  0  0  0  0  0  0  0  0  0
    6.5880   -5.4030   22.4960 C   0  0  0  0  0  0  0  0  0  0  0  0
    6.1710   -5.0800   23.9110 C   0  0  0  0  0  0  0  0  0  0  0  0
    6.1500   -3.5700   24.0620 C   0  0  0  0  0  0  0  0  0  0  0  0
    5.5320   -3.0960   25.3610 C   0  0  0  0  0  0  0  0  0  0  0  0
    4.3410   -2.8230   25.2640 O   0  0  0  0  0  0  0  0  0  0  0  0
    6.2560   -2.9840   26.5630 N   0  0  0  0  0  0  0  0  0  0  0  0
    6.0830   -3.9760   27.5900 C   0  0  0  0  0  0  0  0  0  0  0  0
    4.8130   -4.0900   28.1790 C   0  0  0  0  0  0  0  0  0  0  0  0
    4.1470   -3.0260   28.8070 C   0  0  0  0  0  0  0  0  0  0  0  0
    4.7590   -1.8140   28.8490 F   0  0  0  0  0  0  0  0  0  0  0  0
    2.8750   -3.0750   29.4190 C   0  0  0  0  0  0  0  0  0  0  0  0
    2.1990   -4.4170   29.3710 C   0  0  0  0  0  0  0  0  0  0  0  0
    2.8980   -5.5860   28.6960 C   0  0  0  0  0  0  0  0  0  0  0  0
    4.2080   -5.3260   28.1260 C   0  0  0  0  0  0  0  0  0  0  0  0
    4.8810   -6.3400   27.5080 F   0  0  0  0  0  0  0  0  0  0  0  0
    6.7040   -1.6480   26.9830 C   0  0  0  0  0  0  0  0  0  0  0  0
    5.7390   -0.5490   26.5220 C   0  0  0  0  0  0  0  0  0  0  0  0
    5.6860    0.3640   27.4980 C   0  0  0  0  0  0  0  0  0  0  0  0
    6.3990   -0.0700   28.5800 C   0  0  0  0  0  0  0  0  0  0  0  0
    7.0820   -1.4270   28.3520 C   0  0  0  0  0  0  0  0  0  0  0  0
    7.5480   -3.0400   23.7520 C   0  0  0  0  0  0  0  0  0  0  0  0
    7.6870   -3.1910   22.2520 C   0  0  0  0  0  0  0  0  0  0  0  0
  1  2  1  0
  2  3  2  0
  2  4  1  0
  4  5  1  0
  5  6  1  0
  6  7  1  0
  7  8  1  0
  8  9  2  0
  8 10  1  0
 10 11  1  0
 11 12  1  0
 12 13  2  0
 13 14  1  0
 13 15  1  0
 15 16  2  0
 16 17  1  0
 12 18  1  0
 17 18  2  0
 18 19  1  0
 10 20  1  0
 20 21  1  0
 21 22  1  0
 22 23  1  0
 20 24  1  0
 23 24  1  0
  7 25  1  0
  4 26  1  0
 25 26  1  0
M  END
