piperidine-amides-8958-covalent
     RDKit          3D

 22 23  0  0  0  0  0  0  0  0999 V2000
    7.0550   -3.3570   19.3660 C   0  0  0  0  0  0  0  0  0  0  0  0
    6.3580   -4.1540   20.3770 C   0  0  0  0  0  0  0  0  0  0  0  0
    5.4130   -4.8730   20.0010 O   0  0  0  0  0  0  0  0  0  0  0  0
    6.7650   -4.1590   21.7350 N   0  0  0  0  0  0  0  0  0  0  0  0
    7.6930   -3.1530   22.2430 C   0  0  0  0  0  0  0  0  0  0  0  0
    7.4480   -3.0070   23.7250 C   0  0  0  0  0  0  0  0  0  0  0  0
    6.1390   -3.6140   24.1100 C   0  0  0  0  0  0  0  0  0  0  0  0
    5.5980   -3.2840   25.4750 C   0  0  0  0  0  0  0  0  0  0  0  0
    4.3540   -3.0740   25.5790 O   0  0  0  0  0  0  0  0  0  0  0  0
    6.3320   -3.1580   26.6990 N   0  0  0  0  0  0  0  0  0  0  0  0
    6.1200   -4.1440   27.8060 C   0  0  0  0  0  0  0  0  0  0  0  0
    5.3690   -5.3460   27.3830 C   0  0  0  0  0  0  0  0  0  0  0  0
    6.1740   -6.1650   26.7160 N   0  0  0  0  0  0  0  0  0  0  0  0
    6.3900   -1.8140   27.2900 C   0  0  0  0  0  0  0  0  0  0  0  0
    5.8780   -0.6130   26.4920 C   0  0  0  0  0  0  0  0  0  0  0  0
    5.9120    0.7710   27.1070 C   0  0  0  0  0  0  0  0  0  0  0  0
    6.4560    0.8100   28.4560 C   0  0  0  0  0  0  0  0  0  0  0  0
    6.7640    1.6150   29.5240 C   0  0  0  0  0  0  0  0  0  0  0  0
    6.9480   -0.3940   29.1880 C   0  0  0  0  0  0  0  0  0  0  0  0
    6.8650   -1.5710   28.5380 N   0  0  0  0  0  0  0  0  0  0  0  0
    6.1180   -5.1340   23.8840 C   0  0  0  0  0  0  0  0  0  0  0  0
    6.6330   -5.4100   22.4560 C   0  0  0  0  0  0  0  0  0  0  0  0
  1  2  1  0
  2  3  2  0
  2  4  1  0
  4  5  1  0
  5  6  1  0
  6  7  1  0
  7  8  1  0
  8  9  2  0
  8 10  1  0
 10 11  1  0
 11 12  1  0
 12 13  1  0
 10 14  1  0
 14 15  2  0
 15 16  1  0
 16 17  2  0
 17 18  1  0
 17 19  1  0
 14 20  1  0
 19 20  2  0
  7 21  1  0
  4 22  1  0
 21 22  1  0
M  END
