piperidine-amides-3137-covalent
     RDKit          3D

 22 24  0  0  0  0  0  0  0  0999 V2000
    7.0980   -3.2940   19.2600 C   0  0  0  0  0  0  0  0  0  0  0  0
    6.3620   -4.0830   20.2420 C   0  0  0  0  0  0  0  0  0  0  0  0
    5.3210   -4.6580   19.9240 O   0  0  0  0  0  0  0  0  0  0  0  0
    6.8850   -4.2330   21.5670 N   0  0  0  0  0  0  0  0  0  0  0  0
    7.6720   -3.1590   22.1420 C   0  0  0  0  0  0  0  0  0  0  0  0
    7.3090   -2.8850   23.5780 C   0  0  0  0  0  0  0  0  0  0  0  0
    6.0210   -3.6140   23.9170 C   0  0  0  0  0  0  0  0  0  0  0  0
    5.5630   -3.2650   25.2870 C   0  0  0  0  0  0  0  0  0  0  0  0
    4.3780   -2.9620   25.5240 O   0  0  0  0  0  0  0  0  0  0  0  0
    6.5150   -3.2680   26.3310 N   0  0  0  0  0  0  0  0  0  0  0  0
    6.1380   -3.5830   27.6940 C   0  0  0  0  0  0  0  0  0  0  0  0
    5.9930   -2.2820   28.4480 C   0  0  0  0  0  0  0  0  0  0  0  0
    5.5440   -2.2350   29.7310 N   0  0  0  0  0  0  0  0  0  0  0  0
    5.4900   -0.9850   30.2090 C   0  0  0  0  0  0  0  0  0  0  0  0
    5.8270    0.1820   29.5570 C   0  0  0  0  0  0  0  0  0  0  0  0
    6.2850    0.2200   28.2720 C   0  0  0  0  0  0  0  0  0  0  0  0
    6.3330   -1.1480   27.7800 N   0  0  0  0  0  0  0  0  0  0  0  0
    4.7280   -4.2310   27.6240 C   0  0  0  0  0  0  0  0  0  0  0  0
    5.1090   -5.2740   28.3570 C   0  0  0  0  0  0  0  0  0  0  0  0
    6.3540   -4.7760   28.4200 C   0  0  0  0  0  0  0  0  0  0  0  0
    6.0220   -5.0680   23.6260 C   0  0  0  0  0  0  0  0  0  0  0  0
    6.5520   -5.3950   22.3120 C   0  0  0  0  0  0  0  0  0  0  0  0
  1  2  1  0
  2  3  2  0
  2  4  1  0
  4  5  1  0
  5  6  1  0
  6  7  1  0
  7  8  1  0
  8  9  2  0
  8 10  1  0
 11 10  1  0
 11 12  1  0
 12 13  2  0
 13 14  1  0
 14 15  2  0
 15 16  1  0
 12 17  1  0
 16 17  2  0
 11 18  1  0
 18 19  1  0
 11 20  1  0
 19 20  1  0
  7 21  1  0
  4 22  1  0
 21 22  1  0
M  END
