piperidine-amides-2845-covalent
     RDKit          3D

 24 26  0  0  0  0  0  0  0  0999 V2000
    7.0970   -3.3470   19.3650 C   0  0  0  0  0  0  0  0  0  0  0  0
    6.3590   -4.1520   20.3260 C   0  0  0  0  0  0  0  0  0  0  0  0
    5.3620   -4.7830   19.9690 O   0  0  0  0  0  0  0  0  0  0  0  0
    6.8350   -4.2390   21.6770 N   0  0  0  0  0  0  0  0  0  0  0  0
    7.6670   -3.1810   22.2040 C   0  0  0  0  0  0  0  0  0  0  0  0
    7.4070   -2.9860   23.6650 C   0  0  0  0  0  0  0  0  0  0  0  0
    6.0320   -3.5520   23.9520 C   0  0  0  0  0  0  0  0  0  0  0  0
    5.5880   -3.1670   25.3140 C   0  0  0  0  0  0  0  0  0  0  0  0
    4.3880   -3.1110   25.6410 O   0  0  0  0  0  0  0  0  0  0  0  0
    6.5880   -2.8600   26.2560 N   0  0  0  0  0  0  0  0  0  0  0  0
    6.5010   -1.6620   27.0580 C   0  0  0  0  0  0  0  0  0  0  0  0
    7.0140   -1.6000   28.4710 C   0  0  0  0  0  0  0  0  0  0  0  0
    6.9290   -0.4480   29.2300 C   0  0  0  0  0  0  0  0  0  0  0  0
    6.3490    0.7140   28.6890 C   0  0  0  0  0  0  0  0  0  0  0  0
    5.8520    0.7440   27.3970 C   0  0  0  0  0  0  0  0  0  0  0  0
    5.8850   -0.4020   26.5040 C   0  0  0  0  0  0  0  0  0  0  0  0
    5.2660    1.7890   26.7320 C   0  0  0  0  0  0  0  0  0  0  0  0
    4.3600    2.4500   27.4800 N   0  0  0  0  0  0  0  0  0  0  0  0
    3.9130    3.6760   26.8900 C   0  0  0  0  0  0  0  0  0  0  0  0
    3.9880    2.1940   28.7540 C   0  0  0  0  0  0  0  0  0  0  0  0
    4.9650    2.0790   29.8400 C   0  0  0  0  0  0  0  0  0  0  0  0
    6.2860    1.8480   29.4970 C   0  0  0  0  0  0  0  0  0  0  0  0
    6.0420   -5.0480   23.7940 C   0  0  0  0  0  0  0  0  0  0  0  0
    6.5420   -5.4100   22.4310 C   0  0  0  0  0  0  0  0  0  0  0  0
  1  2  1  0
  2  3  2  0
  2  4  1  0
  4  5  1  0
  5  6  1  0
  6  7  1  0
  7  8  1  0
  8  9  2  0
  8 10  1  0
 10 11  1  0
 11 12  2  0
 12 13  1  0
 13 14  2  0
 14 15  1  0
 11 16  1  0
 15 16  2  0
 15 17  1  0
 17 18  1  0
 18 19  1  0
 18 20  1  0
 20 21  1  0
 14 22  1  0
 21 22  1  0
  7 23  1  0
  4 24  1  0
 23 24  1  0
M  END
