piperidine-amides-35621-covalent
     RDKit          3D

 36 39  0  0  0  0  0  0  0  0999 V2000
    7.0380   -3.3010   19.3010 C   0  0  0  0  0  0  0  0  0  0  0  0
    6.3900   -4.1900   20.2990 C   0  0  0  0  0  0  0  0  0  0  0  0
    5.3640   -4.7740   19.9570 O   0  0  0  0  0  0  0  0  0  0  0  0
    6.9720   -4.3770   21.5480 N   0  0  0  0  0  0  0  0  0  0  0  0
    6.7320   -5.5830   22.2990 C   0  0  0  0  0  0  0  0  0  0  0  0
    5.9770   -5.2620   23.5640 C   0  0  0  0  0  0  0  0  0  0  0  0
    5.9150   -3.7500   23.7800 C   0  0  0  0  0  0  0  0  0  0  0  0
    5.4350   -3.5290   25.1520 C   0  0  0  0  0  0  0  0  0  0  0  0
    4.2410   -3.7100   25.4120 O   0  0  0  0  0  0  0  0  0  0  0  0
    6.2910   -3.1000   26.1640 N   0  0  0  0  0  0  0  0  0  0  0  0
    7.2420   -4.0230   26.7410 C   0  0  0  0  0  0  0  0  0  0  0  0
    8.5760   -3.6890   26.1150 C   0  0  0  0  0  0  0  0  0  0  0  0
    9.5920   -4.5930   26.3130 C   0  0  0  0  0  0  0  0  0  0  0  0
   10.8020   -4.4360   25.8430 C   0  0  0  0  0  0  0  0  0  0  0  0
   11.0420   -3.3530   25.1470 C   0  0  0  0  0  0  0  0  0  0  0  0
   10.0630   -2.2820   24.8390 C   0  0  0  0  0  0  0  0  0  0  0  0
    8.6280   -2.3750   25.3420 C   0  0  0  0  0  0  0  0  0  0  0  0
    5.9230   -1.8810   26.8470 C   0  0  0  0  0  0  0  0  0  0  0  0
    5.1300   -1.9240   27.8760 N   0  0  0  0  0  0  0  0  0  0  0  0
    4.8330   -0.7450   28.4250 N   0  0  0  0  0  0  0  0  0  0  0  0
    5.4370    0.4180   27.8020 C   0  0  0  0  0  0  0  0  0  0  0  0
    5.2890    2.0590   28.2330 S   0  0  0  0  0  0  0  0  0  0  0  0
    6.5370    2.7030   27.2580 C   0  0  0  0  0  0  0  0  0  0  0  0
    6.1390    4.1580   27.4650 C   0  0  0  0  0  0  0  0  0  0  0  0
    6.1330    4.4480   28.8250 O   0  0  0  0  0  0  0  0  0  0  0  0
    5.8410    5.0170   26.5020 N   0  0  0  0  0  0  0  0  0  0  0  0
    6.6240    6.0250   26.2660 C   0  0  0  0  0  0  0  0  0  0  0  0
    5.9350    7.1490   25.5210 C   0  0  0  0  0  0  0  0  0  0  0  0
    5.0050    6.7360   24.5890 C   0  0  0  0  0  0  0  0  0  0  0  0
    4.2690    7.7770   23.7790 C   0  0  0  0  0  0  0  0  0  0  0  0
    4.0460    9.1040   24.5180 C   0  0  0  0  0  0  0  0  0  0  0  0
    4.8310    9.2650   25.8140 C   0  0  0  0  0  0  0  0  0  0  0  0
    5.4350    8.1680   26.3530 C   0  0  0  0  0  0  0  0  0  0  0  0
    6.3180   -0.2800   26.5490 S   0  0  0  0  0  0  0  0  0  0  0  0
    7.1460   -3.0200   23.5100 C   0  0  0  0  0  0  0  0  0  0  0  0
    7.7200   -3.3560   22.1950 C   0  0  0  0  0  0  0  0  0  0  0  0
  1  2  1  0
  2  3  2  0
  2  4  1  0
  4  5  1  0
  5  6  1  0
  6  7  1  0
  7  8  1  0
  8  9  2  0
  8 10  1  0
 10 11  1  0
 11 12  1  0
 12 13  2  0
 13 14  1  0
 14 15  2  0
 15 16  1  0
 12 17  1  0
 16 17  2  0
 10 18  1  0
 18 19  2  0
 19 20  1  0
 20 21  2  0
 21 22  1  0
 22 23  1  0
 23 24  1  0
 24 25  2  0
 24 26  1  0
 26 27  1  0
 27 28  1  0
 28 29  1  0
 29 30  1  0
 30 31  1  0
 31 32  1  0
 28 33  1  0
 32 33  1  0
 18 34  1  0
 21 34  1  0
  7 35  1  0
  4 36  1  0
 35 36  1  0
M  END
