piperidine-amides-6742-covalent
     RDKit          3D

 23 24  0  0  0  0  0  0  0  0999 V2000
    7.0740   -3.2670   19.2980 C   0  0  0  0  0  0  0  0  0  0  0  0
    6.3540   -4.0800   20.2970 C   0  0  0  0  0  0  0  0  0  0  0  0
    5.3520   -4.7490   19.9550 O   0  0  0  0  0  0  0  0  0  0  0  0
    6.7900   -4.1490   21.6310 N   0  0  0  0  0  0  0  0  0  0  0  0
    7.6460   -3.1170   22.1790 C   0  0  0  0  0  0  0  0  0  0  0  0
    7.4060   -3.1470   23.6890 C   0  0  0  0  0  0  0  0  0  0  0  0
    5.9420   -3.4870   23.8400 C   0  0  0  0  0  0  0  0  0  0  0  0
    5.3910   -3.1660   25.1870 C   0  0  0  0  0  0  0  0  0  0  0  0
    4.2800   -2.6040   25.2220 O   0  0  0  0  0  0  0  0  0  0  0  0
    6.0810   -3.4740   26.3910 N   0  0  0  0  0  0  0  0  0  0  0  0
    5.4630   -3.1900   27.6770 C   0  0  0  0  0  0  0  0  0  0  0  0
    4.2230   -4.0820   27.9630 C   0  0  0  0  0  0  0  0  0  0  0  0
    4.3990   -5.3910   28.3290 C   0  0  1  0  0  0  0  0  0  0  0  0
    3.6090   -6.2700   27.8650 O   0  0  0  0  0  0  0  0  0  0  0  0
    5.6420   -5.4300   27.9390 C   0  0  0  0  0  0  0  0  0  0  0  0
    6.7210   -5.3020   28.7120 C   0  0  0  0  0  0  0  0  0  0  0  0
    7.9430   -5.2730   28.1530 C   0  0  0  0  0  0  0  0  0  0  0  0
    8.4620   -5.3600   26.7310 C   0  0  0  0  0  0  0  0  0  0  0  0
   10.1560   -5.2670   26.0400 Br  0  0  0  0  0  0  0  0  0  0  0  0
    7.1400   -5.5370   26.0230 C   0  0  0  0  0  0  0  0  0  0  0  0
    5.8200   -5.5640   26.6430 C   0  0  0  0  0  0  0  0  0  0  0  0
    5.6580   -4.9290   23.4500 C   0  0  0  0  0  0  0  0  0  0  0  0
    6.5480   -5.3290   22.4300 C   0  0  0  0  0  0  0  0  0  0  0  0
  1  2  1  0
  2  3  2  0
  2  4  1  0
  4  5  1  0
  5  6  1  0
  6  7  1  0
  7  8  1  0
  8  9  2  0
  8 10  1  0
 10 11  1  0
 11 12  1  0
 12 13  1  0
 13 14  1  6
 13 15  1  0
 15 16  2  0
 16 17  1  0
 17 18  2  0
 18 19  1  0
 18 20  1  0
 15 21  1  0
 20 21  2  0
  7 22  1  0
  4 23  1  0
 22 23  1  0
M  END
