piperidine-amides-32525-covalent
     RDKit          3D

 29 32  0  0  0  0  0  0  0  0999 V2000
    7.0300   -3.3500   19.3740 C   0  0  0  0  0  0  0  0  0  0  0  0
    6.3570   -4.2360   20.3670 C   0  0  0  0  0  0  0  0  0  0  0  0
    5.3780   -4.8990   19.9910 O   0  0  0  0  0  0  0  0  0  0  0  0
    6.8590   -4.3420   21.6870 N   0  0  0  0  0  0  0  0  0  0  0  0
    6.6980   -5.5760   22.4460 C   0  0  0  0  0  0  0  0  0  0  0  0
    6.4840   -5.2640   23.9460 C   0  0  0  0  0  0  0  0  0  0  0  0
    6.3650   -3.7890   24.0900 C   0  0  0  0  0  0  0  0  0  0  0  0
    5.8870   -3.2350   25.3960 C   0  0  0  0  0  0  0  0  0  0  0  0
    5.1160   -2.2890   25.2750 O   0  0  0  0  0  0  0  0  0  0  0  0
    6.2740   -3.7150   26.6650 N   0  0  0  0  0  0  0  0  0  0  0  0
    7.6340   -4.0510   26.9610 C   0  0  0  0  0  0  0  0  0  0  0  0
    7.9950   -5.0770   27.8000 C   0  0  0  0  0  0  0  0  0  0  0  0
    7.1070   -4.9040   28.9280 O   0  0  0  0  0  0  0  0  0  0  0  0
    5.8080   -4.6610   28.5430 C   0  0  0  0  0  0  0  0  0  0  0  0
    5.5230   -3.4970   27.8620 C   0  0  2  0  0  0  0  0  0  0  0  0
    4.0920   -3.0440   28.0520 C   0  0  0  0  0  0  0  0  0  0  0  0
    3.6420   -2.9830   29.3730 N   0  0  0  0  0  0  0  0  0  0  0  0
    2.2920   -2.5460   29.3230 C   0  0  0  0  0  0  0  0  0  0  0  0
    1.9060   -2.3400   28.0550 N   0  0  0  0  0  0  0  0  0  0  0  0
    2.9870   -2.6430   27.3480 N   0  0  0  0  0  0  0  0  0  0  0  0
    2.9220   -2.5310   25.9270 C   0  0  0  0  0  0  0  0  0  0  0  0
    2.9750   -3.7140   25.2160 C   0  0  0  0  0  0  0  0  0  0  0  0
    2.3940   -4.9770   25.7050 C   0  0  0  0  0  0  0  0  0  0  0  0
    2.6010   -6.1540   24.7010 C   0  0  0  0  0  0  0  0  0  0  0  0
    3.1820   -6.4100   23.4350 C   0  0  0  0  0  0  0  0  0  0  0  0
    3.6810   -4.9700   23.1980 C   0  0  0  0  0  0  0  0  0  0  0  0
    3.5710   -3.7530   24.0310 C   0  0  0  0  0  0  0  0  0  0  0  0
    7.6480   -3.1230   23.6780 C   0  0  0  0  0  0  0  0  0  0  0  0
    7.7160   -3.2550   22.2050 C   0  0  0  0  0  0  0  0  0  0  0  0
  1  2  1  0
  2  3  2  0
  2  4  1  0
  4  5  1  0
  5  6  1  0
  6  7  1  0
  7  8  1  0
  8  9  2  0
  8 10  1  0
 10 11  1  0
 11 12  1  0
 12 13  1  0
 13 14  1  0
 10 15  1  0
 14 15  1  0
 15 16  1  6
 16 17  2  0
 17 18  1  0
 18 19  2  0
 16 20  1  0
 19 20  1  0
 20 21  1  0
 21 22  1  0
 22 23  2  0
 23 24  1  0
 24 25  2  0
 25 26  1  0
 22 27  1  0
 26 27  2  0
  7 28  1  0
  4 29  1  0
 28 29  1  0
M  END
