piperidine-amides-28081-covalent
     RDKit          3D

 26 27  0  0  0  0  0  0  0  0999 V2000
    7.0430   -3.3500   19.3910 C   0  0  0  0  0  0  0  0  0  0  0  0
    6.4150   -4.2250   20.4100 C   0  0  0  0  0  0  0  0  0  0  0  0
    5.4420   -4.9030   20.0060 O   0  0  0  0  0  0  0  0  0  0  0  0
    6.9200   -4.3050   21.7360 N   0  0  0  0  0  0  0  0  0  0  0  0
    6.5340   -5.3960   22.5800 C   0  0  0  0  0  0  0  0  0  0  0  0
    5.8900   -4.9510   23.8270 C   0  0  0  0  0  0  0  0  0  0  0  0
    5.8570   -3.4780   23.9320 C   0  0  0  0  0  0  0  0  0  0  0  0
    5.0750   -2.9590   25.1090 C   0  0  0  0  0  0  0  0  0  0  0  0
    3.9290   -2.5570   24.8630 O   0  0  0  0  0  0  0  0  0  0  0  0
    5.5120   -2.9000   26.4460 N   0  0  0  0  0  0  0  0  0  0  0  0
    5.7230   -4.1620   27.2180 C   0  0  0  0  0  0  0  0  0  0  0  0
    5.6440   -1.5990   27.1020 C   0  0  0  0  0  0  0  0  0  0  0  0
    5.8620   -1.4990   28.5400 C   0  0  0  0  0  0  0  0  0  0  0  0
    6.0220   -0.3480   29.2140 C   0  0  0  0  0  0  0  0  0  0  0  0
    5.9740    0.8300   28.5360 C   0  0  0  0  0  0  0  0  0  0  0  0
    6.1230    2.0110   29.1940 C   0  0  0  0  0  0  0  0  0  0  0  0
    7.4250    2.2230   29.6780 O   0  0  0  0  0  0  0  0  0  0  0  0
    5.0920    2.9470   29.4160 N   0  0  0  0  0  0  0  0  0  0  0  0
    4.1710    2.5900   30.4370 C   0  0  0  0  0  0  0  0  0  0  0  0
    2.9040    2.8940   30.0310 C   0  0  0  0  0  0  0  0  0  0  0  0
    4.4240    3.1670   31.6780 C   0  0  0  0  0  0  0  0  0  0  0  0
    3.8210    1.1120   30.5450 C   0  0  0  0  0  0  0  0  0  0  0  0
    5.7610    0.8260   27.1490 C   0  0  0  0  0  0  0  0  0  0  0  0
    5.5710   -0.4100   26.2590 C   0  0  0  0  0  0  0  0  0  0  0  0
    7.1440   -2.8250   23.6770 C   0  0  0  0  0  0  0  0  0  0  0  0
    7.7330   -3.2420   22.3350 C   0  0  0  0  0  0  0  0  0  0  0  0
  1  2  1  0
  2  3  2  0
  2  4  1  0
  4  5  1  0
  5  6  1  0
  6  7  1  0
  7  8  1  0
  8  9  2  0
  8 10  1  0
 10 11  1  0
 10 12  1  0
 12 13  2  0
 13 14  1  0
 14 15  2  0
 15 16  1  0
 16 17  2  0
 16 18  1  0
 19 18  1  0
 19 20  1  0
 19 21  1  0
 19 22  1  0
 15 23  1  0
 12 24  1  0
 23 24  2  0
  7 25  1  0
  4 26  1  0
 25 26  1  0
M  END
