piperidine-amides-24678-covalent
     RDKit          3D

 24 25  0  0  0  0  0  0  0  0999 V2000
    7.0520   -3.3440   19.4060 C   0  0  0  0  0  0  0  0  0  0  0  0
    6.4160   -4.2540   20.3700 C   0  0  0  0  0  0  0  0  0  0  0  0
    5.4170   -4.9200   20.0060 O   0  0  0  0  0  0  0  0  0  0  0  0
    6.9410   -4.4260   21.6700 N   0  0  0  0  0  0  0  0  0  0  0  0
    6.5430   -5.5670   22.4350 C   0  0  0  0  0  0  0  0  0  0  0  0
    5.5890   -5.0170   23.5030 C   0  0  0  0  0  0  0  0  0  0  0  0
    6.2920   -3.9300   24.3190 C   0  0  0  0  0  0  0  0  0  0  0  0
    5.2490   -3.2360   25.1330 C   0  0  0  0  0  0  0  0  0  0  0  0
    4.3360   -2.6790   24.5050 O   0  0  0  0  0  0  0  0  0  0  0  0
    5.2310   -3.1710   26.5590 N   0  0  0  0  0  0  0  0  0  0  0  0
    6.4240   -3.2230   27.2520 C   0  0  0  0  0  0  0  0  0  0  0  0
    6.3400   -4.4250   28.2050 C   0  0  0  0  0  0  0  0  0  0  0  0
    4.9990   -4.3150   28.7400 N   0  0  0  0  0  0  0  0  0  0  0  0
    4.3680   -4.9750   29.8550 C   0  0  0  0  0  0  0  0  0  0  0  0
    3.2170   -4.5430   30.1600 O   0  0  0  0  0  0  0  0  0  0  0  0
    5.1130   -5.9490   30.3970 C   0  0  0  0  0  0  0  0  0  0  0  0
    4.9530   -7.1740   29.8100 C   0  0  0  0  0  0  0  0  0  0  0  0
    6.0550   -7.9490   29.8530 C   0  0  0  0  0  0  0  0  0  0  0  0
    4.7350   -6.9350   28.3100 C   0  0  0  0  0  0  0  0  0  0  0  0
    3.7350   -7.8550   30.3530 C   0  0  0  0  0  0  0  0  0  0  0  0
    4.6510   -2.9230   28.7740 C   0  0  0  0  0  0  0  0  0  0  0  0
    4.3680   -2.4250   27.4350 C   0  0  0  0  0  0  0  0  0  0  0  0
    6.9430   -2.8830   23.4370 C   0  0  0  0  0  0  0  0  0  0  0  0
    7.6010   -3.3500   22.3280 C   0  0  0  0  0  0  0  0  0  0  0  0
  1  2  1  0
  2  3  2  0
  2  4  1  0
  4  5  1  0
  5  6  1  0
  6  7  1  0
  7  8  1  0
  8  9  2  0
  8 10  1  0
 10 11  1  0
 11 12  1  0
 12 13  1  0
 13 14  1  0
 14 15  2  0
 14 16  1  0
 17 16  1  0
 17 18  1  0
 17 19  1  0
 17 20  1  0
 13 21  1  0
 10 22  1  0
 21 22  1  0
  7 23  1  0
  4 24  1  0
 23 24  1  0
M  END
