piperidine-amides-30792-covalent
     RDKit          3D

 28 31  0  0  0  0  0  0  0  0999 V2000
    7.0310   -3.3660   19.4100 C   0  0  0  0  0  0  0  0  0  0  0  0
    6.3710   -4.2460   20.3780 C   0  0  0  0  0  0  0  0  0  0  0  0
    5.3860   -4.9010   19.9940 O   0  0  0  0  0  0  0  0  0  0  0  0
    6.8320   -4.4120   21.7020 N   0  0  0  0  0  0  0  0  0  0  0  0
    6.5200   -5.5820   22.4800 C   0  0  0  0  0  0  0  0  0  0  0  0
    5.6750   -5.0980   23.6400 C   0  0  0  0  0  0  0  0  0  0  0  0
    6.3020   -3.9520   24.3970 C   0  0  0  0  0  0  0  0  0  0  0  0
    5.4200   -3.3840   25.4900 C   0  0  0  0  0  0  0  0  0  0  0  0
    4.6330   -2.4540   25.1650 O   0  0  0  0  0  0  0  0  0  0  0  0
    5.3350   -3.7640   26.8860 N   0  0  0  0  0  0  0  0  0  0  0  0
    6.2840   -4.6560   27.4970 C   0  0  0  0  0  0  0  0  0  0  0  0
    5.8720   -5.1800   28.7800 C   0  0  0  0  0  0  0  0  0  0  0  0
    4.5680   -4.9400   28.8710 N   0  0  0  0  0  0  0  0  0  0  0  0
    3.6710   -6.0410   28.9480 C   0  0  0  0  0  0  0  0  0  0  0  0
    3.0970   -6.5130   27.6300 C   0  0  0  0  0  0  0  0  0  0  0  0
    2.1310   -7.6920   27.6340 C   0  0  0  0  0  0  0  0  0  0  0  0
    1.8340   -8.2850   28.9600 C   0  0  0  0  0  0  0  0  0  0  0  0
    2.3840   -7.8160   30.1100 C   0  0  0  0  0  0  0  0  0  0  0  0
    2.0800   -8.4100   31.3800 C   0  0  0  0  0  0  0  0  0  0  0  0
    2.5050   -8.1090   32.6250 N   0  0  0  0  0  0  0  0  0  0  0  0
    3.3920   -7.0530   32.7990 C   0  0  0  0  0  0  0  0  0  0  0  0
    3.8000   -6.3350   31.5500 C   0  0  0  0  0  0  0  0  0  0  0  0
    3.2790   -6.7380   30.1990 C   0  0  0  0  0  0  0  0  0  0  0  0
    4.0100   -3.6780   28.7680 C   0  0  1  0  0  0  0  0  0  0  0  0
    4.1630   -3.1330   30.1400 C   0  0  0  0  0  0  0  0  0  0  0  0
    4.6670   -2.9050   27.7830 C   0  0  0  0  0  0  0  0  0  0  0  0
    6.7740   -2.8370   23.4920 C   0  0  0  0  0  0  0  0  0  0  0  0
    7.6360   -3.4060   22.3690 C   0  0  0  0  0  0  0  0  0  0  0  0
  1  2  1  0
  2  3  2  0
  2  4  1  0
  4  5  1  0
  5  6  1  0
  6  7  1  0
  7  8  1  0
  8  9  2  0
  8 10  1  0
 10 11  1  0
 11 12  1  0
 12 13  1  0
 13 14  1  0
 14 15  2  0
 15 16  1  0
 16 17  2  0
 17 18  1  0
 18 19  1  0
 19 20  2  0
 20 21  1  0
 21 22  2  0
 14 23  1  0
 18 23  2  0
 22 23  1  0
 13 24  1  0
 24 25  1  1
 10 26  1  0
 24 26  1  0
  7 27  1  0
  4 28  1  0
 27 28  1  0
M  END
