piperidine-amides-8920-covalent
     RDKit          3D

 22 23  0  0  0  0  0  0  0  0999 V2000
    7.0570   -3.3120   19.3050 C   0  0  0  0  0  0  0  0  0  0  0  0
    6.3810   -4.1330   20.3100 C   0  0  0  0  0  0  0  0  0  0  0  0
    5.3550   -4.7480   19.9580 O   0  0  0  0  0  0  0  0  0  0  0  0
    6.9110   -4.2580   21.6230 N   0  0  0  0  0  0  0  0  0  0  0  0
    7.5800   -3.1140   22.2170 C   0  0  0  0  0  0  0  0  0  0  0  0
    7.4070   -3.0540   23.7240 C   0  0  0  0  0  0  0  0  0  0  0  0
    6.0500   -3.6350   24.0570 C   0  0  0  0  0  0  0  0  0  0  0  0
    5.5430   -3.2740   25.4320 C   0  0  0  0  0  0  0  0  0  0  0  0
    4.3330   -3.0830   25.4980 O   0  0  0  0  0  0  0  0  0  0  0  0
    6.4220   -3.1600   26.5140 N   0  0  0  0  0  0  0  0  0  0  0  0
    6.3230   -3.9510   27.7150 C   0  0  2  0  0  0  0  0  0  0  0  0
    5.9470   -5.3020   27.5640 C   0  0  0  0  0  0  0  0  0  0  0  0
    4.7920   -5.6510   27.8730 O   0  0  0  0  0  0  0  0  0  0  0  0
    4.4570   -6.9640   27.7740 C   0  0  0  0  0  0  0  0  0  0  0  0
    5.3790   -3.2480   28.6330 C   0  0  0  0  0  0  0  0  0  0  0  0
    5.0200   -1.8170   28.7390 C   0  0  0  0  0  0  0  0  0  0  0  0
    4.1240   -1.6510   29.7340 N   0  0  0  0  0  0  0  0  0  0  0  0
    3.9210   -2.8790   30.2320 N   0  0  0  0  0  0  0  0  0  0  0  0
    3.0560   -3.0060   31.2620 C   0  0  0  0  0  0  0  0  0  0  0  0
    4.6610   -3.9270   29.6030 C   0  0  0  0  0  0  0  0  0  0  0  0
    6.0640   -5.0790   23.7570 C   0  0  0  0  0  0  0  0  0  0  0  0
    6.5930   -5.4540   22.3660 C   0  0  0  0  0  0  0  0  0  0  0  0
  1  2  1  0
  2  3  2  0
  2  4  1  0
  4  5  1  0
  5  6  1  0
  6  7  1  0
  7  8  1  0
  8  9  2  0
  8 10  1  0
 10 11  1  0
 11 12  1  6
 12 13  1  0
 13 14  1  0
 11 15  1  0
 15 16  1  0
 16 17  2  0
 17 18  1  0
 18 19  1  0
 15 20  2  0
 18 20  1  0
  7 21  1  0
  4 22  1  0
 21 22  1  0
M  END
