piperidine-amides-9900-covalent
     RDKit          3D

 27 29  0  0  0  0  0  0  0  0999 V2000
    7.0300   -3.3420   19.3440 C   0  0  0  0  0  0  0  0  0  0  0  0
    6.3660   -4.1640   20.3600 C   0  0  0  0  0  0  0  0  0  0  0  0
    5.3640   -4.8230   19.9740 O   0  0  0  0  0  0  0  0  0  0  0  0
    6.8650   -4.2330   21.6690 N   0  0  0  0  0  0  0  0  0  0  0  0
    7.7280   -3.1920   22.1950 C   0  0  0  0  0  0  0  0  0  0  0  0
    7.4060   -3.0090   23.6490 C   0  0  0  0  0  0  0  0  0  0  0  0
    6.0670   -3.6060   23.9650 C   0  0  0  0  0  0  0  0  0  0  0  0
    5.6220   -3.2310   25.3280 C   0  0  0  0  0  0  0  0  0  0  0  0
    4.3940   -3.1480   25.5310 O   0  0  0  0  0  0  0  0  0  0  0  0
    6.4940   -2.9620   26.4000 N   0  0  0  0  0  0  0  0  0  0  0  0
    6.4470   -1.7180   27.1270 C   0  0  0  0  0  0  0  0  0  0  0  0
    5.8460   -0.4400   26.5550 C   0  0  0  0  0  0  0  0  0  0  0  0
    5.8120    0.7280   27.2660 C   0  0  0  0  0  0  0  0  0  0  0  0
    6.3350    0.7590   28.5360 C   0  0  0  0  0  0  0  0  0  0  0  0
    6.9140   -0.3090   29.2020 C   0  0  0  0  0  0  0  0  0  0  0  0
    7.4100   -0.1770   30.4870 C   0  0  0  0  0  0  0  0  0  0  0  0
    6.4570   -0.1220   31.5200 O   0  0  0  0  0  0  0  0  0  0  0  0
    5.1290   -0.4860   31.1930 C   0  0  0  0  0  0  0  0  0  0  0  0
    4.0700   -0.3440   32.2640 C   0  0  1  0  0  0  0  0  0  0  0  0
    3.6560    1.1050   31.9970 C   0  0  0  0  0  0  0  0  0  0  0  0
    2.2910    1.5080   32.4890 C   0  0  0  0  0  0  0  0  0  0  0  0
    1.5120    0.4370   33.2230 C   0  0  0  0  0  0  0  0  0  0  0  0
    2.1640   -0.7710   33.3760 C   0  0  0  0  0  0  0  0  0  0  0  0
    2.9480   -1.1030   32.2600 O   0  0  0  0  0  0  0  0  0  0  0  0
    6.9750   -1.5290   28.5190 C   0  0  0  0  0  0  0  0  0  0  0  0
    6.1060   -5.1020   23.8200 C   0  0  0  0  0  0  0  0  0  0  0  0
    6.6620   -5.4530   22.4280 C   0  0  0  0  0  0  0  0  0  0  0  0
  1  2  1  0
  2  3  2  0
  2  4  1  0
  4  5  1  0
  5  6  1  0
  6  7  1  0
  7  8  1  0
  8  9  2  0
  8 10  1  0
 10 11  1  0
 11 12  2  0
 12 13  1  0
 13 14  2  0
 14 15  1  0
 15 16  1  0
 16 17  1  0
 17 18  1  0
 19 18  1  6
 19 20  1  0
 20 21  1  0
 21 22  1  0
 22 23  1  0
 19 24  1  0
 23 24  1  0
 11 25  1  0
 15 25  2  0
  7 26  1  0
  4 27  1  0
 26 27  1  0
M  END
