piperidine-amides-11811-covalent
     RDKit          3D

 27 29  0  0  0  0  0  0  0  0999 V2000
    7.0350   -3.3530   19.3170 C   0  0  0  0  0  0  0  0  0  0  0  0
    6.3490   -4.1670   20.3150 C   0  0  0  0  0  0  0  0  0  0  0  0
    5.3670   -4.8300   19.9800 O   0  0  0  0  0  0  0  0  0  0  0  0
    6.8420   -4.2370   21.6680 N   0  0  0  0  0  0  0  0  0  0  0  0
    7.6980   -3.1930   22.1810 C   0  0  0  0  0  0  0  0  0  0  0  0
    7.4440   -2.9730   23.6430 C   0  0  0  0  0  0  0  0  0  0  0  0
    6.0790   -3.5590   23.9530 C   0  0  0  0  0  0  0  0  0  0  0  0
    5.5990   -3.1800   25.3130 C   0  0  0  0  0  0  0  0  0  0  0  0
    4.3880   -3.0620   25.5710 O   0  0  0  0  0  0  0  0  0  0  0  0
    6.5380   -2.9560   26.3420 N   0  0  0  0  0  0  0  0  0  0  0  0
    6.4810   -1.7340   27.1210 C   0  0  0  0  0  0  0  0  0  0  0  0
    7.0990   -1.6370   28.4930 C   0  0  0  0  0  0  0  0  0  0  0  0
    7.0430   -0.4710   29.2250 C   0  0  0  0  0  0  0  0  0  0  0  0
    6.3920    0.6250   28.6570 C   0  0  0  0  0  0  0  0  0  0  0  0
    5.7740    0.6950   27.4100 C   0  0  0  0  0  0  0  0  0  0  0  0
    5.7910   -0.5000   26.5720 C   0  0  0  0  0  0  0  0  0  0  0  0
    5.2180    1.9800   27.1770 N   0  0  0  0  0  0  0  0  0  0  0  0
    5.5540    2.6700   28.3770 C   0  0  0  0  0  0  0  0  0  0  0  0
    5.1610    3.9890   28.4980 C   0  0  0  0  0  0  0  0  0  0  0  0
    6.2420    1.8550   29.2370 N   0  0  0  0  0  0  0  0  0  0  0  0
    6.6960    2.2310   30.4650 C   0  0  0  0  0  0  0  0  0  0  0  0
    6.6060    1.2850   31.5910 C   0  0  0  0  0  0  0  0  0  0  0  0
    5.9060    1.5670   32.5740 O   0  0  0  0  0  0  0  0  0  0  0  0
    6.1120    3.5010   31.0890 C   0  0  0  0  0  0  0  0  0  0  0  0
    6.8150    4.6360   30.7940 O   0  0  0  0  0  0  0  0  0  0  0  0
    6.0840   -5.0550   23.8020 C   0  0  0  0  0  0  0  0  0  0  0  0
    6.5560   -5.4070   22.4270 C   0  0  0  0  0  0  0  0  0  0  0  0
  1  2  1  0
  2  3  2  0
  2  4  1  0
  4  5  1  0
  5  6  1  0
  6  7  1  0
  7  8  1  0
  8  9  2  0
  8 10  1  0
 10 11  1  0
 11 12  2  0
 12 13  1  0
 13 14  2  0
 14 15  1  0
 11 16  1  0
 15 16  2  0
 15 17  1  0
 17 18  2  0
 18 19  1  0
 14 20  1  0
 18 20  1  0
 20 21  1  0
 21 22  1  0
 22 23  1  0
 21 24  1  0
 24 25  1  0
  7 26  1  0
  4 27  1  0
 26 27  1  0
M  END
