piperidine-amides-9203-covalent
     RDKit          3D

 20 20  0  0  0  0  0  0  0  0999 V2000
    7.1560   -3.3050   19.2390 C   0  0  0  0  0  0  0  0  0  0  0  0
    6.3670   -4.0260   20.2330 C   0  0  0  0  0  0  0  0  0  0  0  0
    5.2960   -4.5570   19.8940 O   0  0  0  0  0  0  0  0  0  0  0  0
    6.8430   -4.1690   21.5430 N   0  0  0  0  0  0  0  0  0  0  0  0
    7.7160   -3.2040   22.1590 C   0  0  0  0  0  0  0  0  0  0  0  0
    6.9460   -2.6680   23.3300 C   0  0  0  0  0  0  0  0  0  0  0  0
    6.4170   -3.7590   24.2220 C   0  0  0  0  0  0  0  0  0  0  0  0
    5.5250   -3.2230   25.2800 C   0  0  0  0  0  0  0  0  0  0  0  0
    4.4950   -2.5570   24.9780 O   0  0  0  0  0  0  0  0  0  0  0  0
    5.7650   -3.4260   26.6520 N   0  0  0  0  0  0  0  0  0  0  0  0
    6.5310   -4.6120   27.0310 C   0  0  2  0  0  0  0  0  0  0  0  0
    5.6620   -5.7000   27.5040 C   0  0  0  0  0  0  0  0  0  0  0  0
    7.4770   -4.3360   28.1730 C   0  0  2  0  0  0  0  0  0  0  0  0
    7.6490   -2.8400   28.1500 C   0  0  0  0  0  0  0  0  0  0  0  0
    8.6650   -5.0220   27.7250 C   0  0  0  0  0  0  0  0  0  0  0  0
    9.4180   -5.8640   28.4950 O   0  0  0  0  0  0  0  0  0  0  0  0
    9.0360   -4.8520   26.5450 O   0  0  0  0  0  0  0  0  0  0  0  0
    9.5250   -5.9750   25.9540 C   0  0  0  0  0  0  0  0  0  0  0  0
    5.6750   -4.8060   23.4010 C   0  0  0  0  0  0  0  0  0  0  0  0
    6.4250   -5.3010   22.3260 C   0  0  0  0  0  0  0  0  0  0  0  0
  1  2  1  0
  2  3  2  0
  2  4  1  0
  4  5  1  0
  5  6  1  0
  6  7  1  0
  7  8  1  0
  8  9  2  0
  8 10  1  0
 10 11  1  0
 11 12  1  1
 11 13  1  0
 13 14  1  6
 13 15  1  0
 15 16  2  0
 15 17  1  0
 17 18  1  0
  7 19  1  0
  4 20  1  0
 19 20  1  0
M  END
