piperidine-amides-12586-covalent
     RDKit          3D

 23 25  0  0  0  0  0  0  0  0999 V2000
    7.2020   -3.2480   19.2390 C   0  0  0  0  0  0  0  0  0  0  0  0
    6.4320   -3.9310   20.3000 C   0  0  0  0  0  0  0  0  0  0  0  0
    5.4080   -4.5490   19.9160 O   0  0  0  0  0  0  0  0  0  0  0  0
    6.8630   -3.9180   21.6450 N   0  0  0  0  0  0  0  0  0  0  0  0
    7.8310   -2.9790   22.1400 C   0  0  0  0  0  0  0  0  0  0  0  0
    7.6680   -2.6370   23.5650 C   0  0  0  0  0  0  0  0  0  0  0  0
    6.2530   -2.5920   23.9830 C   0  0  0  0  0  0  0  0  0  0  0  0
    5.9880   -2.2150   25.4250 C   0  0  0  0  0  0  0  0  0  0  0  0
    4.7890   -2.3050   25.7580 O   0  0  0  0  0  0  0  0  0  0  0  0
    6.9330   -1.7880   26.4450 N   0  0  0  0  0  0  0  0  0  0  0  0
    6.9410   -2.5840   27.6990 C   0  0  0  0  0  0  0  0  0  0  0  0
    6.4350   -3.7780   27.0620 C   0  0  0  0  0  0  0  0  0  0  0  0
    5.1130   -4.4080   27.2570 C   0  0  0  0  0  0  0  0  0  0  0  0
    4.7030   -5.5350   26.5420 C   0  0  0  0  0  0  0  0  0  0  0  0
    5.5920   -6.0570   25.6190 C   0  0  0  0  0  0  0  0  0  0  0  0
    5.5430   -7.1590   24.7070 N   0  0  0  0  0  0  0  0  0  0  0  0
    6.7350   -7.2010   24.0410 C   0  0  0  0  0  0  0  0  0  0  0  0
    7.0990   -8.0640   23.1170 C   0  0  0  0  0  0  0  0  0  0  0  0
    7.4490   -6.1650   24.5380 C   0  0  0  0  0  0  0  0  0  0  0  0
    6.7920   -5.4730   25.4710 C   0  0  0  0  0  0  0  0  0  0  0  0
    7.2440   -4.3390   26.1760 C   0  0  0  0  0  0  0  0  0  0  0  0
    5.4840   -3.8340   23.6100 C   0  0  0  0  0  0  0  0  0  0  0  0
    6.2270   -4.7300   22.6370 C   0  0  0  0  0  0  0  0  0  0  0  0
  1  2  1  0
  2  3  2  0
  2  4  1  0
  4  5  1  0
  5  6  1  0
  6  7  1  0
  7  8  1  0
  8  9  2  0
  8 10  1  0
 10 11  1  0
 11 12  1  0
 12 13  2  0
 13 14  1  0
 14 15  2  0
 15 16  1  0
 16 17  1  0
 17 18  1  0
 17 19  2  0
 15 20  1  0
 19 20  1  0
 12 21  1  0
 20 21  2  0
  7 22  1  0
  4 23  1  0
 22 23  1  0
M  END
