piperidine-amides-392-covalent
     RDKit          3D

 28 30  0  0  0  0  0  0  0  0999 V2000
    7.7880   -3.8680   20.2760 C   0  0  0  0  0  0  0  0  0  0  0  0
    6.5740   -3.0760   20.2540 C   0  0  0  0  0  0  0  0  0  0  0  0
    5.6260   -3.4760   19.4380 O   0  0  0  0  0  0  0  0  0  0  0  0
    6.4600   -1.9100   21.1100 N   0  0  0  0  0  0  0  0  0  0  0  0
    7.7500   -1.2730   21.5400 C   0  0  0  0  0  0  0  0  0  0  0  0
    7.3020    0.0400   22.3290 C   0  0  0  0  0  0  0  0  0  0  0  0
    6.6140   -0.4370   23.5970 C   0  0  0  0  0  0  0  0  0  0  0  0
    7.6520   -0.6920   24.8230 C   0  0  0  0  0  0  0  0  0  0  0  0
    8.7700   -0.9210   24.3500 O   0  0  0  0  0  0  0  0  0  0  0  0
    7.0930   -0.5980   26.0240 N   0  0  0  0  0  0  0  0  0  0  0  0
    6.6270   -0.4750   27.3660 C   0  0  0  0  0  0  0  0  0  0  0  0
    7.1410   -0.1250   28.6180 C   0  0  0  0  0  0  0  0  0  0  0  0
    6.7160    1.0050   28.0290 C   0  0  0  0  0  0  0  0  0  0  0  0
    6.0490    0.9070   26.7130 C   0  0  0  0  0  0  0  0  0  0  0  0
    5.9360   -0.6180   26.1830 C   0  0  0  0  0  0  0  0  0  0  0  0
    6.4830   -1.7100   26.9910 C   0  0  0  0  0  0  0  0  0  0  0  0
    6.3930   -3.0450   26.5360 N   0  0  0  0  0  0  0  0  0  0  0  0
    5.4890   -3.5080   25.5050 C   0  0  0  0  0  0  0  0  0  0  0  0
    4.1470   -3.4230   25.6780 O   0  0  0  0  0  0  0  0  0  0  0  0
    6.1870   -4.0800   24.2720 C   0  0  0  0  0  0  0  0  0  0  0  0
    7.4260   -3.3920   23.6760 C   0  0  0  0  0  0  0  0  0  0  0  0
    8.0010   -3.9400   22.5870 C   0  0  0  0  0  0  0  0  0  0  0  0
    7.4830   -5.1190   22.0090 N   0  0  0  0  0  0  0  0  0  0  0  0
    6.3780   -5.7110   22.5530 C   0  0  0  0  0  0  0  0  0  0  0  0
    5.7340   -5.2200   23.6530 C   0  0  0  0  0  0  0  0  0  0  0  0
    7.0740   -1.5140   28.1810 C   0  0  0  0  0  0  0  0  0  0  0  0
    5.6160   -1.5270   23.3820 C   0  0  0  0  0  0  0  0  0  0  0  0
    5.2790   -1.6920   21.9120 C   0  0  0  0  0  0  0  0  0  0  0  0
  1  2  1  0
  2  3  2  0
  2  4  1  0
  4  5  1  0
  5  6  1  0
  6  7  1  0
  7  8  1  0
  8  9  2  0
  8 10  1  0
 10 11  1  0
 11 12  1  0
 12 13  2  0
 13 14  1  0
 14 15  2  0
 15 16  1  0
 16 17  1  0
 17 18  1  0
 18 19  2  0
 18 20  1  0
 20 21  2  0
 21 22  1  0
 22 23  2  0
 23 24  1  0
 20 25  1  0
 24 25  2  0
 12 26  1  0
 16 26  2  0
  7 27  1  0
  4 28  1  0
 27 28  1  0
M  END
