piperidine-amides-24684-covalent
     RDKit          3D

 24 25  0  0  0  0  0  0  0  0999 V2000
    6.9850   -3.3380   19.3620 C   0  0  0  0  0  0  0  0  0  0  0  0
    6.2890   -4.2150   20.3180 C   0  0  0  0  0  0  0  0  0  0  0  0
    5.3110   -4.8980   19.9630 O   0  0  0  0  0  0  0  0  0  0  0  0
    6.7290   -4.3180   21.6260 N   0  0  0  0  0  0  0  0  0  0  0  0
    6.5330   -5.5590   22.3400 C   0  0  0  0  0  0  0  0  0  0  0  0
    5.9030   -5.2430   23.7140 C   0  0  0  0  0  0  0  0  0  0  0  0
    5.7640   -3.7310   23.8730 C   0  0  0  0  0  0  0  0  0  0  0  0
    5.3510   -3.3510   25.2520 C   0  0  0  0  0  0  0  0  0  0  0  0
    4.3330   -2.6400   25.3500 O   0  0  0  0  0  0  0  0  0  0  0  0
    6.0410   -3.7680   26.4280 N   0  0  0  0  0  0  0  0  0  0  0  0
    5.3340   -3.8260   27.6810 C   0  0  0  0  0  0  0  0  0  0  0  0
    5.8600   -5.0150   28.4670 C   0  0  0  0  0  0  0  0  0  0  0  0
    7.2000   -5.2630   28.4140 C   0  0  0  0  0  0  0  0  0  0  0  0
    7.9240   -4.2900   27.8040 C   0  0  0  0  0  0  0  0  0  0  0  0
    7.1770   -3.2960   27.1840 C   0  0  1  0  0  0  0  0  0  0  0  0
    7.6210   -2.4720   26.1790 C   0  0  0  0  0  0  0  0  0  0  0  0
    6.7990   -1.5290   25.6600 O   0  0  0  0  0  0  0  0  0  0  0  0
    8.8410   -2.4730   25.6300 N   0  0  0  0  0  0  0  0  0  0  0  0
    9.1250   -3.5530   24.8740 C   0  0  0  0  0  0  0  0  0  0  0  0
    9.5090   -3.1140   23.4780 C   0  0  0  0  0  0  0  0  0  0  0  0
    9.3930   -4.8590   25.5080 C   0  0  0  0  0  0  0  0  0  0  0  0
    8.2160   -4.6570   24.8560 C   0  0  0  0  0  0  0  0  0  0  0  0
    7.0200   -2.9940   23.4960 C   0  0  0  0  0  0  0  0  0  0  0  0
    7.3530   -3.1850   22.1990 C   0  0  0  0  0  0  0  0  0  0  0  0
  1  2  1  0
  2  3  2  0
  2  4  1  0
  4  5  1  0
  5  6  1  0
  6  7  1  0
  7  8  1  0
  8  9  2  0
  8 10  1  0
 10 11  1  0
 11 12  1  0
 12 13  1  0
 13 14  1  0
 10 15  1  0
 14 15  1  0
 15 16  1  6
 16 17  2  0
 16 18  1  0
 19 18  1  0
 19 20  1  0
 19 21  1  0
 19 22  1  0
  7 23  1  0
  4 24  1  0
 23 24  1  0
M  END
