piperidine-amides-3727-covalent
     RDKit          3D

 23 24  0  0  0  0  0  0  0  0999 V2000
    7.1420   -3.2790   19.1650 C   0  0  0  0  0  0  0  0  0  0  0  0
    6.3790   -4.0210   20.1790 C   0  0  0  0  0  0  0  0  0  0  0  0
    5.2540   -4.4510   19.8430 O   0  0  0  0  0  0  0  0  0  0  0  0
    6.9250   -4.3050   21.4490 N   0  0  0  0  0  0  0  0  0  0  0  0
    7.5940   -3.2380   22.1060 C   0  0  0  0  0  0  0  0  0  0  0  0
    7.0900   -2.9300   23.4340 C   0  0  0  0  0  0  0  0  0  0  0  0
    6.4200   -4.0280   24.1740 C   0  0  0  0  0  0  0  0  0  0  0  0
    5.7260   -3.4740   25.3680 C   0  0  0  0  0  0  0  0  0  0  0  0
    4.4830   -3.5160   25.4510 O   0  0  0  0  0  0  0  0  0  0  0  0
    6.4690   -2.8900   26.3940 N   0  0  0  0  0  0  0  0  0  0  0  0
    6.3580   -3.0500   27.7850 C   0  0  0  0  0  0  0  0  0  0  0  0
    6.9110   -2.0210   28.6390 C   0  0  1  0  0  0  0  0  0  0  0  0
    7.3030   -0.9580   28.0640 O   0  0  0  0  0  0  0  0  0  0  0  0
    5.8430   -1.5460   29.6450 C   0  0  0  0  0  0  0  0  0  0  0  0
    4.4930   -1.7890   29.6890 C   0  0  0  0  0  0  0  0  0  0  0  0
    3.6910   -1.1250   30.8840 C   0  0  0  0  0  0  0  0  0  0  0  0
    1.9600   -1.3850   31.0150 Cl  0  0  0  0  0  0  0  0  0  0  0  0
    4.4810   -0.2660   31.8990 C   0  0  0  0  0  0  0  0  0  0  0  0
    5.9870   -0.1180   31.6720 C   0  0  0  0  0  0  0  0  0  0  0  0
    7.0000    0.9310   32.9000 Br  0  0  0  0  0  0  0  0  0  0  0  0
    6.6570   -0.7600   30.5440 C   0  0  0  0  0  0  0  0  0  0  0  0
    5.5170   -4.8690   23.3030 C   0  0  0  0  0  0  0  0  0  0  0  0
    6.3850   -5.4100   22.1710 C   0  0  0  0  0  0  0  0  0  0  0  0
  1  2  1  0
  2  3  2  0
  2  4  1  0
  4  5  1  0
  5  6  1  0
  6  7  1  0
  7  8  1  0
  8  9  2  0
  8 10  1  0
 10 11  1  0
 11 12  1  0
 12 13  1  6
 12 14  1  0
 14 15  2  0
 15 16  1  0
 16 17  1  0
 16 18  2  0
 18 19  1  0
 19 20  1  0
 14 21  1  0
 19 21  2  0
  7 22  1  0
  4 23  1  0
 22 23  1  0
M  END
