piperidine-amides-7186-covalent
     RDKit          3D

 21 23  0  0  0  0  0  0  0  0999 V2000
    7.0820   -3.3250   19.2770 C   0  0  0  0  0  0  0  0  0  0  0  0
    6.3820   -4.1370   20.2790 C   0  0  0  0  0  0  0  0  0  0  0  0
    5.3040   -4.6720   19.9220 O   0  0  0  0  0  0  0  0  0  0  0  0
    6.9360   -4.3360   21.5460 N   0  0  0  0  0  0  0  0  0  0  0  0
    6.5300   -5.4500   22.3690 C   0  0  0  0  0  0  0  0  0  0  0  0
    5.8050   -4.8990   23.5720 C   0  0  0  0  0  0  0  0  0  0  0  0
    6.6100   -3.8120   24.2310 C   0  0  0  0  0  0  0  0  0  0  0  0
    5.9350   -3.1920   25.3850 C   0  0  0  0  0  0  0  0  0  0  0  0
    4.6980   -3.3300   25.5210 O   0  0  0  0  0  0  0  0  0  0  0  0
    6.6760   -2.4410   26.3110 N   0  0  0  0  0  0  0  0  0  0  0  0
    6.0860   -1.4470   27.1610 C   0  0  2  0  0  0  0  0  0  0  0  0
    5.7730   -0.2150   26.3380 C   0  0  0  0  0  0  0  0  0  0  0  0
    5.6890    1.0300   26.9070 C   0  0  0  0  0  0  0  0  0  0  0  0
    5.9810    1.2320   28.2410 C   0  0  0  0  0  0  0  0  0  0  0  0
    6.5740    0.2120   28.8750 N   0  0  0  0  0  0  0  0  0  0  0  0
    7.1690    0.2680   30.0310 C   0  0  0  0  0  0  0  0  0  0  0  0
    7.4910   -0.9790   30.0390 C   0  0  0  0  0  0  0  0  0  0  0  0
    7.3760   -1.8700   29.3920 N   0  0  0  0  0  0  0  0  0  0  0  0
    6.6360   -1.1130   28.3560 C   0  0  0  0  0  0  0  0  0  0  0  0
    6.9240   -2.6870   23.2610 C   0  0  0  0  0  0  0  0  0  0  0  0
    7.7280   -3.2850   22.1300 C   0  0  0  0  0  0  0  0  0  0  0  0
  1  2  1  0
  2  3  2  0
  2  4  1  0
  4  5  1  0
  5  6  1  0
  6  7  1  0
  7  8  1  0
  8  9  2  0
  8 10  1  0
 11 10  1  6
 11 12  1  0
 12 13  1  0
 13 14  1  0
 14 15  1  0
 15 16  1  0
 16 17  2  0
 17 18  1  0
 11 19  1  0
 15 19  1  0
 18 19  2  0
  7 20  1  0
  4 21  1  0
 20 21  1  0
M  END
