piperidine-amides-21510-covalent
     RDKit          3D

 21 22  0  0  0  0  0  0  0  0999 V2000
    7.0230   -3.4220   19.4680 C   0  0  0  0  0  0  0  0  0  0  0  0
    6.3740   -4.2950   20.4460 C   0  0  0  0  0  0  0  0  0  0  0  0
    5.4080   -4.9750   20.0140 O   0  0  0  0  0  0  0  0  0  0  0  0
    6.8440   -4.3920   21.7690 N   0  0  0  0  0  0  0  0  0  0  0  0
    6.6210   -5.5890   22.5690 C   0  0  0  0  0  0  0  0  0  0  0  0
    6.1260   -5.1960   23.9490 C   0  0  0  0  0  0  0  0  0  0  0  0
    6.0520   -3.6990   24.0890 C   0  0  0  0  0  0  0  0  0  0  0  0
    5.5770   -3.1600   25.4140 C   0  0  0  0  0  0  0  0  0  0  0  0
    5.2490   -1.9620   25.4000 O   0  0  0  0  0  0  0  0  0  0  0  0
    5.3870   -3.8180   26.6680 N   0  0  0  0  0  0  0  0  0  0  0  0
    4.0990   -3.6830   27.2940 C   0  0  0  0  0  0  0  0  0  0  0  0
    4.1080   -4.4220   28.6300 C   0  0  0  0  0  0  0  0  0  0  0  0
    5.1260   -5.4520   28.4840 N   0  0  0  0  0  0  0  0  0  0  0  0
    5.1510   -6.6550   29.6610 S   0  0  0  0  0  0  0  0  0  0  0  0
    3.9050   -6.4870   30.7900 N   0  0  0  0  0  0  0  0  0  0  0  0
    4.9630   -7.9480   28.9590 O   0  0  0  0  0  0  0  0  0  0  0  0
    6.4700   -6.5480   30.3160 O   0  0  0  0  0  0  0  0  0  0  0  0
    6.3390   -5.0360   28.2100 C   0  0  0  0  0  0  0  0  0  0  0  0
    6.3460   -3.7300   27.7140 C   0  0  0  0  0  0  0  0  0  0  0  0
    7.4040   -3.1410   23.6980 C   0  0  0  0  0  0  0  0  0  0  0  0
    7.6280   -3.3010   22.3430 C   0  0  0  0  0  0  0  0  0  0  0  0
  1  2  1  0
  2  3  2  0
  2  4  1  0
  4  5  1  0
  5  6  1  0
  6  7  1  0
  7  8  1  0
  8  9  2  0
  8 10  1  0
 10 11  1  0
 11 12  1  0
 12 13  1  0
 13 14  1  0
 14 15  1  0
 14 16  2  0
 14 17  2  0
 13 18  1  0
 10 19  1  0
 18 19  1  0
  7 20  1  0
  4 21  1  0
 20 21  1  0
M  END
