piperidine-amides-24085-covalent
     RDKit          3D

 24 26  0  0  0  0  0  0  0  0999 V2000
    7.0120   -3.3970   19.4290 C   0  0  0  0  0  0  0  0  0  0  0  0
    6.3980   -4.2910   20.4320 C   0  0  0  0  0  0  0  0  0  0  0  0
    5.4220   -4.9640   20.0150 O   0  0  0  0  0  0  0  0  0  0  0  0
    6.9060   -4.4200   21.7680 N   0  0  0  0  0  0  0  0  0  0  0  0
    6.4970   -5.5280   22.5730 C   0  0  0  0  0  0  0  0  0  0  0  0
    5.9820   -5.1370   23.8900 C   0  0  0  0  0  0  0  0  0  0  0  0
    5.9210   -3.6760   24.0670 C   0  0  0  0  0  0  0  0  0  0  0  0
    5.1980   -3.1140   25.2980 C   0  0  0  0  0  0  0  0  0  0  0  0
    4.5030   -2.1080   25.1130 O   0  0  0  0  0  0  0  0  0  0  0  0
    5.2120   -3.6080   26.6410 N   0  0  0  0  0  0  0  0  0  0  0  0
    6.1840   -4.4150   27.1040 C   0  0  0  0  0  0  0  0  0  0  0  0
    6.1440   -5.0980   28.3690 C   0  0  0  0  0  0  0  0  0  0  0  0
    5.1580   -4.8310   29.2140 N   0  0  0  0  0  0  0  0  0  0  0  0
    4.7960   -5.6780   30.3260 C   0  0  0  0  0  0  0  0  0  0  0  0
    3.6630   -5.3320   30.9890 C   0  0  0  0  0  0  0  0  0  0  0  0
    3.4190   -6.3350   32.1610 C   0  0  0  0  0  0  0  0  0  0  0  0
    4.4020   -7.4950   32.4090 C   0  0  0  0  0  0  0  0  0  0  0  0
    4.0800   -8.3280   33.4910 F   0  0  0  0  0  0  0  0  0  0  0  0
    5.5750   -7.5230   31.4060 C   0  0  0  0  0  0  0  0  0  0  0  0
    5.6820   -6.6170   30.4440 N   0  0  0  0  0  0  0  0  0  0  0  0
    4.4760   -3.6260   29.0070 C   0  0  0  0  0  0  0  0  0  0  0  0
    4.7060   -2.8230   27.7170 C   0  0  0  0  0  0  0  0  0  0  0  0
    7.3140   -3.0750   23.8140 C   0  0  0  0  0  0  0  0  0  0  0  0
    7.5970   -3.2380   22.3480 C   0  0  0  0  0  0  0  0  0  0  0  0
  1  2  1  0
  2  3  2  0
  2  4  1  0
  4  5  1  0
  5  6  1  0
  6  7  1  0
  7  8  1  0
  8  9  2  0
  8 10  1  0
 10 11  1  0
 11 12  1  0
 12 13  1  0
 13 14  1  0
 14 15  2  0
 15 16  1  0
 16 17  2  0
 17 18  1  0
 17 19  1  0
 14 20  1  0
 19 20  2  0
 13 21  1  0
 10 22  1  0
 21 22  1  0
  7 23  1  0
  4 24  1  0
 23 24  1  0
M  END
