piperidine-amides-23909-covalent
     RDKit          3D

 24 25  0  0  0  0  0  0  0  0999 V2000
    7.1060   -3.2750   19.2080 C   0  0  0  0  0  0  0  0  0  0  0  0
    6.3570   -4.0210   20.2340 C   0  0  0  0  0  0  0  0  0  0  0  0
    5.2680   -4.5260   19.8730 O   0  0  0  0  0  0  0  0  0  0  0  0
    6.8610   -4.2210   21.5440 N   0  0  0  0  0  0  0  0  0  0  0  0
    6.3980   -5.3450   22.2770 C   0  0  0  0  0  0  0  0  0  0  0  0
    6.0160   -5.0320   23.6510 C   0  0  0  0  0  0  0  0  0  0  0  0
    6.6940   -3.8520   24.2310 C   0  0  0  0  0  0  0  0  0  0  0  0
    5.9780   -3.3720   25.4620 C   0  0  0  0  0  0  0  0  0  0  0  0
    4.7360   -3.2350   25.4290 O   0  0  0  0  0  0  0  0  0  0  0  0
    6.6770   -3.0670   26.6590 N   0  0  0  0  0  0  0  0  0  0  0  0
    7.2060   -3.9620   27.6180 C   0  0  0  0  0  0  0  0  0  0  0  0
    7.4220   -5.3470   27.2580 C   0  0  0  0  0  0  0  0  0  0  0  0
    8.4930   -5.3550   26.1750 C   0  0  0  0  0  0  0  0  0  0  0  0
    9.6080   -5.9850   26.6090 C   0  0  0  0  0  0  0  0  0  0  0  0
    7.0960   -1.6780   26.8330 C   0  0  0  0  0  0  0  0  0  0  0  0
    6.2860   -1.1060   27.9600 C   0  0  0  0  0  0  0  0  0  0  0  0
    5.2830   -2.2230   28.2430 C   0  0  0  0  0  0  0  0  0  0  0  0
    4.2450   -2.1060   29.3160 C   0  0  0  0  0  0  0  0  0  0  0  0
    4.2970   -0.7960   30.0700 C   0  0  0  0  0  0  0  0  0  0  0  0
    5.3220    0.3170   29.7590 C   0  0  0  0  0  0  0  0  0  0  0  0
    6.3170    0.0840   28.6560 C   0  0  0  0  0  0  0  0  0  0  0  0
    7.1590    0.9720   28.3820 O   0  0  0  0  0  0  0  0  0  0  0  0
    6.8790   -2.7260   23.2570 C   0  0  0  0  0  0  0  0  0  0  0  0
    7.6370   -3.2070   22.2070 C   0  0  0  0  0  0  0  0  0  0  0  0
  1  2  1  0
  2  3  2  0
  2  4  1  0
  4  5  1  0
  5  6  1  0
  6  7  1  0
  7  8  1  0
  8  9  2  0
  8 10  1  0
 10 11  1  0
 11 12  1  0
 12 13  1  0
 13 14  1  0
 10 15  1  0
 15 16  1  0
 16 17  2  0
 17 18  1  0
 18 19  2  0
 19 20  1  0
 16 21  1  0
 20 21  2  0
 21 22  1  0
  7 23  1  0
  4 24  1  0
 23 24  1  0
M  END
