piperidine-amides-33599-covalent
     RDKit          3D

 25 26  0  0  0  0  0  0  0  0999 V2000
    7.1430   -3.3440   19.3330 C   0  0  0  0  0  0  0  0  0  0  0  0
    6.3820   -4.1340   20.3060 C   0  0  0  0  0  0  0  0  0  0  0  0
    5.2960   -4.6280   19.9180 O   0  0  0  0  0  0  0  0  0  0  0  0
    6.9000   -4.3760   21.6000 N   0  0  0  0  0  0  0  0  0  0  0  0
    6.3200   -5.4110   22.3710 C   0  0  0  0  0  0  0  0  0  0  0  0
    5.9230   -4.9780   23.7090 C   0  0  0  0  0  0  0  0  0  0  0  0
    6.6650   -3.8080   24.2390 C   0  0  0  0  0  0  0  0  0  0  0  0
    6.0070   -3.2380   25.4540 C   0  0  0  0  0  0  0  0  0  0  0  0
    4.7880   -2.9600   25.4180 O   0  0  0  0  0  0  0  0  0  0  0  0
    6.7490   -3.0140   26.6280 N   0  0  0  0  0  0  0  0  0  0  0  0
    7.5190   -4.0240   27.2830 C   0  0  0  0  0  0  0  0  0  0  0  0
    6.8900   -5.2860   27.6840 C   0  0  0  0  0  0  0  0  0  0  0  0
    5.5750   -4.9570   28.4240 C   0  0  0  0  0  0  0  0  0  0  0  0
    5.3360   -6.0470   29.2390 O   0  0  0  0  0  0  0  0  0  0  0  0
    5.0670   -7.1710   28.4630 C   0  0  0  0  0  0  0  0  0  0  0  0
    3.6030   -7.1930   28.0310 C   0  0  0  0  0  0  0  0  0  0  0  0
    6.6750   -1.7680   27.3800 C   0  0  0  0  0  0  0  0  0  0  0  0
    5.9280   -0.6620   26.6580 C   0  0  0  0  0  0  0  0  0  0  0  0
    5.7490    0.6580   27.2830 C   0  0  0  0  0  0  0  0  0  0  0  0
    6.3730    0.7310   28.6480 C   0  0  0  0  0  0  0  0  0  0  0  0
    6.2900    2.3230   29.7070 Br  0  0  0  0  0  0  0  0  0  0  0  0
    7.0930   -0.5580   29.1690 C   0  0  0  0  0  0  0  0  0  0  0  0
    7.2910   -1.8760   28.5720 N   0  0  0  0  0  0  0  0  0  0  0  0
    6.8470   -2.7550   23.1930 C   0  0  0  0  0  0  0  0  0  0  0  0
    7.6930   -3.3800   22.2880 C   0  0  0  0  0  0  0  0  0  0  0  0
  1  2  1  0
  2  3  2  0
  2  4  1  0
  4  5  1  0
  5  6  1  0
  6  7  1  0
  7  8  1  0
  8  9  2  0
  8 10  1  0
 10 11  1  0
 11 12  1  0
 12 13  1  0
 13 14  1  0
 14 15  1  0
 15 16  1  0
 10 17  1  0
 17 18  2  0
 18 19  1  0
 19 20  2  0
 20 21  1  0
 20 22  1  0
 17 23  1  0
 22 23  2  0
  7 24  1  0
  4 25  1  0
 24 25  1  0
M  END
