piperidine-amides-14618-covalent
     RDKit          3D

 23 24  0  0  0  0  0  0  0  0999 V2000
    7.1490   -3.2840   19.2150 C   0  0  0  0  0  0  0  0  0  0  0  0
    6.4200   -4.0710   20.2060 C   0  0  0  0  0  0  0  0  0  0  0  0
    5.3180   -4.5480   19.8880 O   0  0  0  0  0  0  0  0  0  0  0  0
    7.0090   -4.3300   21.4680 N   0  0  0  0  0  0  0  0  0  0  0  0
    7.6870   -3.2560   22.1200 C   0  0  0  0  0  0  0  0  0  0  0  0
    6.7930   -2.7170   23.1860 C   0  0  0  0  0  0  0  0  0  0  0  0
    6.4530   -3.8730   24.1030 C   0  0  0  0  0  0  0  0  0  0  0  0
    5.6050   -3.3610   25.2110 C   0  0  0  0  0  0  0  0  0  0  0  0
    4.4830   -2.9570   24.9200 O   0  0  0  0  0  0  0  0  0  0  0  0
    6.1450   -3.3930   26.4710 N   0  0  0  0  0  0  0  0  0  0  0  0
    6.5650   -4.6110   27.0510 C   0  0  0  0  0  0  0  0  0  0  0  0
    7.3940   -4.3820   28.1160 C   0  0  1  0  0  0  0  0  0  0  0  0
    8.5500   -5.1090   28.1400 C   0  0  0  0  0  0  0  0  0  0  0  0
    7.9970   -2.8060   28.3750 S   0  0  0  0  0  0  0  0  0  0  0  0
    6.5840   -1.9790   28.9750 C   0  0  0  0  0  0  0  0  0  0  0  0
    6.6500   -0.5730   29.4820 C   0  0  0  0  0  0  0  0  0  0  0  0
    5.9410    0.5670   28.7140 C   0  0  0  0  0  0  0  0  0  0  0  0
    5.9680    1.9730   29.1560 C   0  0  0  0  0  0  0  0  0  0  0  0
    6.7100    2.3340   30.4020 C   0  0  0  0  0  0  0  0  0  0  0  0
    7.4020    1.1520   31.1310 C   0  0  0  0  0  0  0  0  0  0  0  0
    7.3950   -0.1750   30.7430 C   0  0  0  0  0  0  0  0  0  0  0  0
    5.6470   -4.8770   23.3320 C   0  0  0  0  0  0  0  0  0  0  0  0
    6.4500   -5.4370   22.1920 C   0  0  0  0  0  0  0  0  0  0  0  0
  1  2  1  0
  2  3  2  0
  2  4  1  0
  4  5  1  0
  5  6  1  0
  6  7  1  0
  7  8  1  0
  8  9  2  0
  8 10  1  0
 10 11  1  0
 11 12  1  0
 12 13  1  6
 12 14  1  0
 14 15  1  0
 15 16  1  0
 16 17  2  0
 17 18  1  0
 18 19  2  0
 19 20  1  0
 16 21  1  0
 20 21  2  0
  7 22  1  0
  4 23  1  0
 22 23  1  0
M  END
