piperidine-amides-681-covalent
     RDKit          3D

 26 28  0  0  0  0  0  0  0  0999 V2000
    7.1900   -3.2760   19.2990 C   0  0  0  0  0  0  0  0  0  0  0  0
    6.4270   -4.0350   20.2660 C   0  0  0  0  0  0  0  0  0  0  0  0
    5.3420   -4.5910   19.9040 O   0  0  0  0  0  0  0  0  0  0  0  0
    6.8970   -4.1970   21.5760 N   0  0  0  0  0  0  0  0  0  0  0  0
    6.4260   -5.3570   22.3690 C   0  0  0  0  0  0  0  0  0  0  0  0
    5.3740   -4.6320   23.3000 C   0  0  0  0  0  0  0  0  0  0  0  0
    6.1770   -3.6750   24.1590 C   0  0  0  0  0  0  0  0  0  0  0  0
    5.2600   -3.0120   25.2860 C   0  0  0  0  0  0  0  0  0  0  0  0
    4.5330   -2.1560   24.8130 O   0  0  0  0  0  0  0  0  0  0  0  0
    5.5320   -3.5670   26.3900 N   0  0  0  0  0  0  0  0  0  0  0  0
    5.8150   -4.2140   27.5420 C   0  0  1  0  0  0  0  0  0  0  0  0
    5.3330   -5.3430   28.1320 C   0  0  0  0  0  0  0  0  0  0  0  0
    5.9460   -5.7270   29.3270 C   0  0  0  0  0  0  0  0  0  0  0  0
    5.6040   -6.9170   30.1570 C   0  0  0  0  0  0  0  0  0  0  0  0
    4.4290   -7.7120   29.5010 C   0  0  0  0  0  0  0  0  0  0  0  0
    3.9330   -7.1850   28.2970 C   0  0  0  0  0  0  0  0  0  0  0  0
    4.3570   -6.0530   27.6330 C   0  0  0  0  0  0  0  0  0  0  0  0
    7.2050   -4.5480   27.4010 C   0  0  0  0  0  0  0  0  0  0  0  0
    7.5760   -3.6250   26.2220 C   0  0  0  0  0  0  0  0  0  0  0  0
    8.8490   -3.7190   25.8110 C   0  0  0  0  0  0  0  0  0  0  0  0
    9.7380   -4.5630   26.3980 C   0  0  0  0  0  0  0  0  0  0  0  0
   10.9580   -4.6260   25.9250 C   0  0  0  0  0  0  0  0  0  0  0  0
    9.3880   -5.3690   27.4670 C   0  0  0  0  0  0  0  0  0  0  0  0
    8.1140   -5.3680   27.9760 C   0  0  0  0  0  0  0  0  0  0  0  0
    7.0550   -2.6930   23.4630 C   0  0  0  0  0  0  0  0  0  0  0  0
    7.7230   -3.2370   22.2440 C   0  0  0  0  0  0  0  0  0  0  0  0
  1  2  1  0
  2  3  2  0
  2  4  1  0
  4  5  1  0
  5  6  1  0
  6  7  1  0
  7  8  1  0
  8  9  2  0
  8 10  1  0
 11 10  1  6
 11 12  1  0
 12 13  2  0
 13 14  1  0
 14 15  2  0
 15 16  1  0
 12 17  1  0
 16 17  2  0
 11 18  1  0
 18 19  2  0
 19 20  1  0
 20 21  2  0
 21 22  1  0
 21 23  1  0
 18 24  1  0
 23 24  2  0
  7 25  1  0
  4 26  1  0
 25 26  1  0
M  END
