piperidine-amides-32710-covalent
     RDKit          3D

 23 25  0  0  0  0  0  0  0  0999 V2000
    7.0800   -3.3360   19.3290 C   0  0  0  0  0  0  0  0  0  0  0  0
    6.3960   -4.2060   20.3270 C   0  0  0  0  0  0  0  0  0  0  0  0
    5.3790   -4.8310   19.9770 O   0  0  0  0  0  0  0  0  0  0  0  0
    6.9360   -4.3460   21.6270 N   0  0  0  0  0  0  0  0  0  0  0  0
    6.6120   -5.4720   22.4570 C   0  0  0  0  0  0  0  0  0  0  0  0
    5.8170   -4.9210   23.6530 C   0  0  0  0  0  0  0  0  0  0  0  0
    6.5280   -3.7180   24.2050 C   0  0  0  0  0  0  0  0  0  0  0  0
    5.7000   -2.9890   25.2110 C   0  0  0  0  0  0  0  0  0  0  0  0
    4.6150   -2.5670   24.8100 O   0  0  0  0  0  0  0  0  0  0  0  0
    6.1320   -2.8390   26.5350 N   0  0  0  0  0  0  0  0  0  0  0  0
    5.4320   -2.1400   27.5610 C   0  0  0  0  0  0  0  0  0  0  0  0
    4.8830   -2.7720   28.6700 C   0  0  0  0  0  0  0  0  0  0  0  0
    4.8830   -4.1540   28.6990 C   0  0  0  0  0  0  0  0  0  0  0  0
    6.0030   -4.6480   28.2070 C   0  0  0  0  0  0  0  0  0  0  0  0
    6.6040   -5.8360   28.7150 C   0  0  0  0  0  0  0  0  0  0  0  0
    5.7680   -6.8210   30.1520 Br  0  0  0  0  0  0  0  0  0  0  0  0
    7.8800   -6.3300   28.1190 C   0  0  0  0  0  0  0  0  0  0  0  0
    8.4240   -5.5130   26.9630 C   0  0  0  0  0  0  0  0  0  0  0  0
    9.8300   -5.9360   26.1190 Cl  0  0  0  0  0  0  0  0  0  0  0  0
    7.7730   -4.4340   26.5790 C   0  0  0  0  0  0  0  0  0  0  0  0
    6.5760   -4.0010   27.1920 C   0  0  0  0  0  0  0  0  0  0  0  0
    6.9880   -2.7060   23.2030 C   0  0  0  0  0  0  0  0  0  0  0  0
    7.7360   -3.3190   22.2400 C   0  0  0  0  0  0  0  0  0  0  0  0
  1  2  1  0
  2  3  2  0
  2  4  1  0
  4  5  1  0
  5  6  1  0
  6  7  1  0
  7  8  1  0
  8  9  2  0
  8 10  1  0
 10 11  1  0
 11 12  1  0
 12 13  1  0
 13 14  1  0
 14 15  2  0
 15 16  1  0
 15 17  1  0
 17 18  2  0
 18 19  1  0
 18 20  1  0
 10 21  1  0
 14 21  1  0
 20 21  2  0
  7 22  1  0
  4 23  1  0
 22 23  1  0
M  END
