piperidine-amides-11360-covalent
     RDKit          3D

 24 26  0  0  0  0  0  0  0  0999 V2000
    7.0510   -3.2890   19.2160 C   0  0  0  0  0  0  0  0  0  0  0  0
    6.3060   -4.0350   20.2380 C   0  0  0  0  0  0  0  0  0  0  0  0
    5.2890   -4.6630   19.9120 O   0  0  0  0  0  0  0  0  0  0  0  0
    6.7400   -4.0780   21.5680 N   0  0  0  0  0  0  0  0  0  0  0  0
    7.6520   -3.1090   22.0990 C   0  0  0  0  0  0  0  0  0  0  0  0
    7.3810   -3.2310   23.5480 C   0  0  0  0  0  0  0  0  0  0  0  0
    5.9850   -3.6590   23.7810 C   0  0  0  0  0  0  0  0  0  0  0  0
    5.5550   -3.4480   25.1850 C   0  0  0  0  0  0  0  0  0  0  0  0
    4.3350   -3.2080   25.4230 O   0  0  0  0  0  0  0  0  0  0  0  0
    6.4120   -3.4900   26.3160 N   0  0  0  0  0  0  0  0  0  0  0  0
    5.7700   -3.5640   27.6510 C   0  0  1  0  0  0  0  0  0  0  0  0
    6.3510   -4.6290   28.4960 C   0  0  0  0  0  0  0  0  0  0  0  0
    5.6090   -5.3670   29.1970 O   0  0  0  0  0  0  0  0  0  0  0  0
    7.6820   -4.8840   28.5780 O   0  0  0  0  0  0  0  0  0  0  0  0
    8.2300   -6.0690   28.0740 C   0  0  0  0  0  0  0  0  0  0  0  0
    5.6570   -2.2440   28.4010 C   0  0  0  0  0  0  0  0  0  0  0  0
    6.8780   -1.7480   29.0960 C   0  0  0  0  0  0  0  0  0  0  0  0
    6.6180   -0.4720   29.7850 C   0  0  0  0  0  0  0  0  0  0  0  0
    5.2760   -0.1350   29.7820 C   0  0  2  0  0  0  0  0  0  0  0  0
    4.5980   -0.3110   30.8830 C   0  0  0  0  0  0  0  0  0  0  0  0
    3.9280   -1.1780   30.0120 C   0  0  2  0  0  0  0  0  0  0  0  0
    4.4890   -1.3120   28.5830 C   0  0  0  0  0  0  0  0  0  0  0  0
    5.7950   -5.1110   23.2800 C   0  0  0  0  0  0  0  0  0  0  0  0
    6.5200   -5.3180   22.3200 C   0  0  0  0  0  0  0  0  0  0  0  0
  1  2  1  0
  2  3  2  0
  2  4  1  0
  4  5  1  0
  5  6  1  0
  6  7  1  0
  7  8  1  0
  8  9  2  0
  8 10  1  0
 11 10  1  6
 11 12  1  0
 12 13  2  0
 12 14  1  0
 14 15  1  0
 11 16  1  0
 16 17  2  0
 17 18  1  0
 19 18  1  1
 19 20  1  0
 19 21  1  0
 21 20  1  1
 16 22  1  0
 21 22  1  0
  7 23  1  0
  4 24  1  0
 23 24  1  0
M  END
