piperidine-amides-24642-covalent
     RDKit          3D

 24 26  0  0  0  0  0  0  0  0999 V2000
    7.0110   -3.3750   19.4770 C   0  0  0  0  0  0  0  0  0  0  0  0
    6.3260   -4.2650   20.4310 C   0  0  0  0  0  0  0  0  0  0  0  0
    5.4060   -5.0010   20.0140 O   0  0  0  0  0  0  0  0  0  0  0  0
    6.7100   -4.3250   21.7910 N   0  0  0  0  0  0  0  0  0  0  0  0
    6.5350   -5.5750   22.5130 C   0  0  0  0  0  0  0  0  0  0  0  0
    6.0300   -5.2370   23.9330 C   0  0  0  0  0  0  0  0  0  0  0  0
    5.8380   -3.7410   23.9680 C   0  0  0  0  0  0  0  0  0  0  0  0
    5.0980   -3.1650   25.1580 C   0  0  0  0  0  0  0  0  0  0  0  0
    4.4310   -2.1470   24.9290 O   0  0  0  0  0  0  0  0  0  0  0  0
    5.1050   -3.6830   26.4970 N   0  0  0  0  0  0  0  0  0  0  0  0
    5.5870   -2.7620   27.5280 C   0  0  0  0  0  0  0  0  0  0  0  0
    5.5960   -3.3220   28.9540 C   0  0  0  0  0  0  0  0  0  0  0  0
    6.0810   -4.5600   29.1670 C   0  0  0  0  0  0  0  0  0  0  0  0
    5.7320   -5.3720   28.1840 C   0  0  1  0  0  0  0  0  0  0  0  0
    5.9560   -4.6450   27.0370 C   0  0  0  0  0  0  0  0  0  0  0  0
    6.4840   -6.5610   28.4400 N   0  0  0  0  0  0  0  0  0  0  0  0
    5.6300   -7.3320   29.2130 C   0  0  0  0  0  0  0  0  0  0  0  0
    5.8740   -8.4600   29.9220 O   0  0  0  0  0  0  0  0  0  0  0  0
    4.2630   -6.7430   29.1700 C   0  0  0  0  0  0  0  0  0  0  0  0
    4.9570   -6.7830   30.5250 C   0  0  0  0  0  0  0  0  0  0  0  0
    3.0700   -7.5430   28.9150 C   0  0  0  0  0  0  0  0  0  0  0  0
    4.3700   -5.6270   28.3610 O   0  0  0  0  0  0  0  0  0  0  0  0
    7.1740   -3.0720   23.7220 C   0  0  0  0  0  0  0  0  0  0  0  0
    7.5590   -3.3050   22.3830 C   0  0  0  0  0  0  0  0  0  0  0  0
  1  2  1  0
  2  3  2  0
  2  4  1  0
  4  5  1  0
  5  6  1  0
  6  7  1  0
  7  8  1  0
  8  9  2  0
  8 10  1  0
 10 11  1  0
 11 12  1  0
 12 13  1  0
 14 13  1  1
 10 15  1  0
 14 15  1  0
 14 16  1  0
 16 17  1  0
 17 18  2  0
 17 19  1  0
 19 20  1  0
 19 21  1  0
 14 22  1  0
 19 22  1  0
  7 23  1  0
  4 24  1  0
 23 24  1  0
M  END
