piperidine-amides-4149-covalent
     RDKit          3D

 27 29  0  0  0  0  0  0  0  0999 V2000
    7.0810   -3.3520   19.3200 C   0  0  0  0  0  0  0  0  0  0  0  0
    6.3750   -4.1470   20.3350 C   0  0  0  0  0  0  0  0  0  0  0  0
    5.3220   -4.7150   19.9510 O   0  0  0  0  0  0  0  0  0  0  0  0
    6.8920   -4.3150   21.6530 N   0  0  0  0  0  0  0  0  0  0  0  0
    7.6310   -3.2470   22.2490 C   0  0  0  0  0  0  0  0  0  0  0  0
    7.2630   -3.0030   23.6380 C   0  0  0  0  0  0  0  0  0  0  0  0
    6.0480   -3.7340   24.0210 C   0  0  0  0  0  0  0  0  0  0  0  0
    5.5300   -3.3490   25.3780 C   0  0  0  0  0  0  0  0  0  0  0  0
    4.3010   -3.3620   25.5610 O   0  0  0  0  0  0  0  0  0  0  0  0
    6.3580   -2.9640   26.4460 N   0  0  0  0  0  0  0  0  0  0  0  0
    6.3610   -1.6920   27.0700 C   0  0  0  0  0  0  0  0  0  0  0  0
    5.7600   -0.4640   26.5990 C   0  0  0  0  0  0  0  0  0  0  0  0
    5.8850    0.8270   27.4490 C   0  0  0  0  0  0  0  0  0  0  0  0
    6.5510    0.9370   28.6770 C   0  0  0  0  0  0  0  0  0  0  0  0
    6.6900    2.0930   29.4610 N   0  0  0  0  0  0  0  0  0  0  0  0
    5.7220    3.1210   29.4310 C   0  0  0  0  0  0  0  0  0  0  0  0
    5.1520    3.7920   28.3540 O   0  0  0  0  0  0  0  0  0  0  0  0
    5.2010    3.6080   30.7420 C   0  0  0  0  0  0  0  0  0  0  0  0
    5.9370    2.8640   31.8320 C   0  0  0  0  0  0  0  0  0  0  0  0
    5.4390    3.3270   33.1370 C   0  0  0  0  0  0  0  0  0  0  0  0
    4.4060    4.3490   32.6720 C   0  0  0  0  0  0  0  0  0  0  0  0
    4.2590    4.5190   31.2860 O   0  0  0  0  0  0  0  0  0  0  0  0
    7.1420   -0.4370   29.0630 C   0  0  0  0  0  0  0  0  0  0  0  0
    7.8990   -0.5580   30.3320 C   0  0  0  0  0  0  0  0  0  0  0  0
    7.0490   -1.5980   28.3410 C   0  0  0  0  0  0  0  0  0  0  0  0
    6.1290   -5.2050   23.7970 C   0  0  0  0  0  0  0  0  0  0  0  0
    6.6020   -5.5250   22.3870 C   0  0  0  0  0  0  0  0  0  0  0  0
  1  2  1  0
  2  3  2  0
  2  4  1  0
  4  5  1  0
  5  6  1  0
  6  7  1  0
  7  8  1  0
  8  9  2  0
  8 10  1  0
 10 11  1  0
 11 12  2  0
 12 13  1  0
 13 14  2  0
 14 15  1  0
 15 16  1  0
 16 17  2  0
 16 18  1  0
 18 19  2  0
 19 20  1  0
 20 21  2  0
 18 22  1  0
 21 22  1  0
 14 23  1  0
 23 24  1  0
 11 25  1  0
 23 25  2  0
  7 26  1  0
  4 27  1  0
 26 27  1  0
M  END
