piperidine-amides-2705-covalent
     RDKit          3D

 25 27  0  0  0  0  0  0  0  0999 V2000
    6.9800   -3.3810   19.3560 C   0  0  0  0  0  0  0  0  0  0  0  0
    6.3120   -4.2520   20.3220 C   0  0  0  0  0  0  0  0  0  0  0  0
    5.3170   -4.8780   19.9750 O   0  0  0  0  0  0  0  0  0  0  0  0
    6.8170   -4.4290   21.6530 N   0  0  0  0  0  0  0  0  0  0  0  0
    6.4310   -5.5820   22.4310 C   0  0  0  0  0  0  0  0  0  0  0  0
    5.7590   -5.1870   23.7310 C   0  0  0  0  0  0  0  0  0  0  0  0
    5.8530   -3.6740   23.9190 C   0  0  0  0  0  0  0  0  0  0  0  0
    5.3250   -3.2200   25.2650 C   0  0  0  0  0  0  0  0  0  0  0  0
    4.1280   -3.3710   25.5740 O   0  0  0  0  0  0  0  0  0  0  0  0
    6.1990   -2.6080   26.2270 N   0  0  0  0  0  0  0  0  0  0  0  0
    6.0900   -1.1990   26.7770 C   0  0  2  0  0  0  0  0  0  0  0  0
    6.1950   -0.1730   25.6270 C   0  0  0  0  0  0  0  0  0  0  0  0
    7.0550   -0.3700   24.5290 C   0  0  0  0  0  0  0  0  0  0  0  0
    7.9580   -1.4620   24.4480 C   0  0  0  0  0  0  0  0  0  0  0  0
    8.0070   -2.3330   25.5670 O   0  0  0  0  0  0  0  0  0  0  0  0
    7.8480   -1.7870   26.8550 C   0  0  0  0  0  0  0  0  0  0  0  0
    6.3960   -1.3280   26.4200 C   0  0  0  0  0  0  0  0  0  0  0  0
    5.8640   -1.5640   25.1370 O   0  0  0  0  0  0  0  0  0  0  0  0
    4.5690   -1.2380   24.6560 C   0  0  0  0  0  0  0  0  0  0  0  0
    5.4950   -0.5920   27.3670 C   0  0  0  0  0  0  0  0  0  0  0  0
    5.8950   -0.2560   28.7220 C   0  0  0  0  0  0  0  0  0  0  0  0
    7.1790   -0.7360   28.8740 C   0  0  0  0  0  0  0  0  0  0  0  0
    7.1650   -1.2150   27.6550 C   0  0  0  0  0  0  0  0  0  0  0  0
    7.2650   -3.2450   23.6800 C   0  0  0  0  0  0  0  0  0  0  0  0
    7.5610   -3.3670   22.2300 C   0  0  0  0  0  0  0  0  0  0  0  0
  1  2  1  0
  2  3  2  0
  2  4  1  0
  4  5  1  0
  5  6  1  0
  6  7  1  0
  7  8  1  0
  8  9  2  0
  8 10  1  0
 11 10  1  6
 11 12  1  0
 12 13  1  0
 13 14  1  0
 14 15  1  0
 15 16  1  0
 16 17  1  0
 17 18  1  0
 18 19  1  0
 17 20  2  0
 20 21  1  0
 21 22  2  0
 11 23  1  0
 16 23  2  0
 22 23  1  0
  7 24  1  0
  4 25  1  0
 24 25  1  0
M  END
