piperidine-amides-31209-covalent
     RDKit          3D

 28 31  0  0  0  0  0  0  0  0999 V2000
    7.1130   -3.3680   19.3550 C   0  0  0  0  0  0  0  0  0  0  0  0
    6.3920   -4.1850   20.3290 C   0  0  0  0  0  0  0  0  0  0  0  0
    5.3560   -4.7720   19.9670 O   0  0  0  0  0  0  0  0  0  0  0  0
    6.8790   -4.3660   21.6360 N   0  0  0  0  0  0  0  0  0  0  0  0
    6.5920   -5.5430   22.4080 C   0  0  0  0  0  0  0  0  0  0  0  0
    5.7650   -5.0670   23.5780 C   0  0  0  0  0  0  0  0  0  0  0  0
    6.3420   -3.8700   24.2930 C   0  0  0  0  0  0  0  0  0  0  0  0
    5.3590   -3.2610   25.2330 C   0  0  0  0  0  0  0  0  0  0  0  0
    4.4230   -2.5760   24.7490 O   0  0  0  0  0  0  0  0  0  0  0  0
    5.3420   -3.3770   26.6470 N   0  0  0  0  0  0  0  0  0  0  0  0
    4.2900   -2.7170   27.3830 C   0  0  0  0  0  0  0  0  0  0  0  0
    4.5420   -3.1380   28.7490 C   0  0  0  0  0  0  0  0  0  0  0  0
    5.1390   -4.4580   28.8810 C   0  0  0  0  0  0  0  0  0  0  0  0
    4.5550   -5.3940   29.7980 C   0  0  0  0  0  0  0  0  0  0  0  0
    5.1900   -6.7020   29.9380 C   0  0  0  0  0  0  0  0  0  0  0  0
    6.4020   -7.1990   29.2320 C   0  0  0  0  0  0  0  0  0  0  0  0
    6.8810   -6.2030   28.3220 C   0  0  0  0  0  0  0  0  0  0  0  0
    8.0820   -7.1710   27.8360 N   0  0  0  0  0  0  0  0  0  0  0  0
    9.2950   -7.5210   26.6130 C   0  0  0  0  0  0  0  0  0  0  0  0
    9.6840   -6.9340   25.3130 O   0  0  0  0  0  0  0  0  0  0  0  0
    9.9090   -9.1780   26.5870 C   0  0  0  0  0  0  0  0  0  0  0  0
    9.7220  -10.7490   27.9320 C   0  0  0  0  0  0  0  0  0  0  0  0
    9.4880  -11.0210   29.0840 C   0  0  0  0  0  0  0  0  0  0  0  0
    8.4670  -10.9570   29.0830 C   0  0  0  0  0  0  0  0  0  0  0  0
    6.3000   -4.8290   28.1020 C   0  0  0  0  0  0  0  0  0  0  0  0
    6.5190   -3.6420   27.3170 C   0  0  0  0  0  0  0  0  0  0  0  0
    6.8730   -2.7920   23.3820 C   0  0  0  0  0  0  0  0  0  0  0  0
    7.7210   -3.3790   22.2710 C   0  0  0  0  0  0  0  0  0  0  0  0
  1  2  1  0
  2  3  2  0
  2  4  1  0
  4  5  1  0
  5  6  1  0
  6  7  1  0
  7  8  1  0
  8  9  2  0
  8 10  1  0
 10 11  1  0
 11 12  1  0
 12 13  1  0
 13 14  2  0
 14 15  1  0
 15 16  2  0
 16 17  1  0
 17 18  1  0
 18 19  1  0
 19 20  2  0
 19 21  1  0
 21 22  1  0
 22 23  1  0
 22 24  1  0
 23 24  1  0
 13 25  1  0
 17 25  2  0
 10 26  1  0
 25 26  1  0
  7 27  1  0
  4 28  1  0
 27 28  1  0
M  END
