piperidine-amides-31793-covalent
     RDKit          3D

 28 29  0  0  0  0  0  0  0  0999 V2000
    7.0530   -3.3980   19.3530 C   0  0  0  0  0  0  0  0  0  0  0  0
    6.3690   -4.1700   20.3650 C   0  0  0  0  0  0  0  0  0  0  0  0
    5.3480   -4.8220   19.9810 O   0  0  0  0  0  0  0  0  0  0  0  0
    6.7880   -4.2970   21.7150 N   0  0  0  0  0  0  0  0  0  0  0  0
    7.7670   -3.3240   22.2740 C   0  0  0  0  0  0  0  0  0  0  0  0
    7.0720   -2.8710   23.6220 C   0  0  0  0  0  0  0  0  0  0  0  0
    6.7060   -4.1190   24.4170 C   0  0  0  0  0  0  0  0  0  0  0  0
    5.8470   -3.7110   25.6950 C   0  0  0  0  0  0  0  0  0  0  0  0
    4.7690   -3.2650   25.3050 O   0  0  0  0  0  0  0  0  0  0  0  0
    6.4500   -3.9350   26.8270 N   0  0  0  0  0  0  0  0  0  0  0  0
    6.9200   -4.6650   27.9850 C   0  0  0  0  0  0  0  0  0  0  0  0
    7.6940   -5.8360   28.3530 C   0  0  0  0  0  0  0  0  0  0  0  0
    6.9300   -6.9490   29.2110 N   0  0  0  0  0  0  0  0  0  0  0  0
    6.9340   -8.4620   29.3410 C   0  0  0  0  0  0  0  0  0  0  0  0
    5.7040   -9.0350   29.3340 O   0  0  0  0  0  0  0  0  0  0  0  0
    8.2530   -9.4250   29.5100 O   0  0  0  0  0  0  0  0  0  0  0  0
    8.9690  -10.8520   29.6620 C   0  0  0  0  0  0  0  0  0  0  0  0
   10.0350  -11.4600   28.7940 C   0  0  0  0  0  0  0  0  0  0  0  0
   10.4230  -11.3140   29.9120 C   0  0  0  0  0  0  0  0  0  0  0  0
    8.4050  -11.8200   30.3590 C   0  0  0  0  0  0  0  0  0  0  0  0
    6.5350   -2.5620   27.4010 C   0  0  0  0  0  0  0  0  0  0  0  0
    7.5130   -2.1770   28.5490 C   0  0  0  0  0  0  0  0  0  0  0  0
    7.5070   -0.8970   29.0270 C   0  0  0  0  0  0  0  0  0  0  0  0
    6.6920    0.0850   28.5460 C   0  0  0  0  0  0  0  0  0  0  0  0
    5.8330   -0.1940   27.5360 C   0  0  0  0  0  0  0  0  0  0  0  0
    5.7420   -1.4690   26.9690 C   0  0  0  0  0  0  0  0  0  0  0  0
    5.9890   -5.2170   23.6940 C   0  0  0  0  0  0  0  0  0  0  0  0
    6.6010   -5.5550   22.3780 C   0  0  0  0  0  0  0  0  0  0  0  0
  1  2  1  0
  2  3  2  0
  2  4  1  0
  4  5  1  0
  5  6  1  0
  6  7  1  0
  7  8  1  0
  8  9  2  0
  8 10  1  0
 10 11  1  0
 11 12  1  0
 12 13  1  0
 13 14  1  0
 14 15  2  0
 14 16  1  0
 17 16  1  0
 17 18  1  0
 17 19  1  0
 17 20  1  0
 10 21  1  0
 21 22  2  0
 22 23  1  0
 23 24  2  0
 24 25  1  0
 21 26  1  0
 25 26  2  0
  7 27  1  0
  4 28  1  0
 27 28  1  0
M  END
