piperidine-amides-11214-covalent
     RDKit          3D

 19 19  0  0  0  0  0  0  0  0999 V2000
    7.1430   -3.2560   19.1710 C   0  0  0  0  0  0  0  0  0  0  0  0
    6.3500   -3.9730   20.1680 C   0  0  0  0  0  0  0  0  0  0  0  0
    5.2540   -4.4630   19.8450 O   0  0  0  0  0  0  0  0  0  0  0  0
    6.8290   -4.1770   21.4600 N   0  0  0  0  0  0  0  0  0  0  0  0
    7.6970   -3.2170   22.1190 C   0  0  0  0  0  0  0  0  0  0  0  0
    6.9170   -2.7050   23.2920 C   0  0  0  0  0  0  0  0  0  0  0  0
    6.4300   -3.8410   24.1280 C   0  0  0  0  0  0  0  0  0  0  0  0
    5.6450   -3.3750   25.2860 C   0  0  0  0  0  0  0  0  0  0  0  0
    4.5350   -2.7880   25.1260 O   0  0  0  0  0  0  0  0  0  0  0  0
    6.0790   -3.5620   26.6050 N   0  0  0  0  0  0  0  0  0  0  0  0
    6.0680   -4.9070   27.2190 C   0  0  2  0  0  0  0  0  0  0  0  0
    4.6940   -5.3300   27.4580 C   0  0  0  0  0  0  0  0  0  0  0  0
    4.1690   -5.0660   28.5710 O   0  0  0  0  0  0  0  0  0  0  0  0
    6.7240   -4.8120   28.5770 C   0  0  0  0  0  0  0  0  0  0  0  0
    6.9630   -3.6000   28.9830 O   0  0  0  0  0  0  0  0  0  0  0  0
    7.0270   -5.9240   29.3320 O   0  0  0  0  0  0  0  0  0  0  0  0
    6.1080   -7.0060   29.4380 C   0  0  0  0  0  0  0  0  0  0  0  0
    5.7700   -4.9620   23.4060 C   0  0  0  0  0  0  0  0  0  0  0  0
    6.5100   -5.3580   22.1950 C   0  0  0  0  0  0  0  0  0  0  0  0
  1  2  1  0
  2  3  2  0
  2  4  1  0
  4  5  1  0
  5  6  1  0
  6  7  1  0
  7  8  1  0
  8  9  2  0
  8 10  1  0
 10 11  1  0
 11 12  1  1
 12 13  1  0
 11 14  1  0
 14 15  2  0
 14 16  1  0
 16 17  1  0
  7 18  1  0
  4 19  1  0
 18 19  1  0
M  END
