piperidine-amides-31867-covalent
     RDKit          3D

 29 32  0  0  0  0  0  0  0  0999 V2000
    7.1070   -3.3390   19.2050 C   0  0  0  0  0  0  0  0  0  0  0  0
    6.3820   -4.0460   20.2320 C   0  0  0  0  0  0  0  0  0  0  0  0
    5.2800   -4.5800   19.9030 O   0  0  0  0  0  0  0  0  0  0  0  0
    6.8780   -4.2280   21.5410 N   0  0  0  0  0  0  0  0  0  0  0  0
    7.6900   -3.1610   22.1650 C   0  0  0  0  0  0  0  0  0  0  0  0
    6.6270   -2.6120   23.1800 C   0  0  0  0  0  0  0  0  0  0  0  0
    6.3870   -3.7620   24.1240 C   0  0  0  0  0  0  0  0  0  0  0  0
    5.5080   -3.3340   25.3760 C   0  0  0  0  0  0  0  0  0  0  0  0
    4.3710   -3.7700   25.2680 O   0  0  0  0  0  0  0  0  0  0  0  0
    6.2130   -2.6320   26.1620 N   0  0  0  0  0  0  0  0  0  0  0  0
    6.9680   -1.5730   26.5530 C   0  0  0  0  0  0  0  0  0  0  0  0
    6.1040   -3.2840   27.4120 C   0  0  1  0  0  0  0  0  0  0  0  0
    5.6210   -2.5090   28.4990 C   0  0  0  0  0  0  0  0  0  0  0  0
    4.2130   -2.4010   28.9290 C   0  0  0  0  0  0  0  0  0  0  0  0
    3.9500   -1.4880   30.1360 C   0  0  0  0  0  0  0  0  0  0  0  0
    5.0400   -0.8380   30.7280 C   0  0  0  0  0  0  0  0  0  0  0  0
    6.4290   -0.7610   30.5360 C   0  0  0  0  0  0  0  0  0  0  0  0
    6.5660   -1.6930   29.3330 C   0  0  0  0  0  0  0  0  0  0  0  0
    5.0180   -4.3010   27.6710 C   0  0  1  0  0  0  0  0  0  0  0  0
    5.3730   -5.4690   27.4610 C   0  0  0  0  0  0  0  0  0  0  0  0
    5.0210   -5.3360   28.8190 C   0  0  2  0  0  0  0  0  0  0  0  0
    3.9270   -5.9310   29.3560 C   0  0  0  0  0  0  0  0  0  0  0  0
    3.0380   -5.1920   30.1580 C   0  0  0  0  0  0  0  0  0  0  0  0
    1.8380   -5.5780   30.8240 C   0  0  0  0  0  0  0  0  0  0  0  0
    1.5830   -7.0330   30.5510 C   0  0  0  0  0  0  0  0  0  0  0  0
    2.4480   -7.9020   29.7270 C   0  0  0  0  0  0  0  0  0  0  0  0
    3.6650   -7.2850   29.1210 C   0  0  0  0  0  0  0  0  0  0  0  0
    5.7690   -4.9910   23.4540 C   0  0  0  0  0  0  0  0  0  0  0  0
    6.6090   -5.4270   22.2780 C   0  0  0  0  0  0  0  0  0  0  0  0
  1  2  1  0
  2  3  2  0
  2  4  1  0
  4  5  1  0
  5  6  1  0
  6  7  1  0
  7  8  1  0
  8  9  2  0
  8 10  1  0
 10 11  1  0
 12 10  1  6
 12 13  1  0
 13 14  2  0
 14 15  1  0
 15 16  2  0
 16 17  1  0
 13 18  1  0
 17 18  2  0
 12 19  1  0
 19 20  1  6
 19 21  1  0
 20 21  1  0
 21 22  1  6
 22 23  2  0
 23 24  1  0
 24 25  2  0
 25 26  1  0
 22 27  1  0
 26 27  2  0
  7 28  1  0
  4 29  1  0
 28 29  1  0
M  END
