piperidine-amides-33060-covalent
     RDKit          3D

 29 32  0  0  0  0  0  0  0  0999 V2000
    7.0250   -3.3650   19.3420 C   0  0  0  0  0  0  0  0  0  0  0  0
    6.3880   -4.2170   20.3620 C   0  0  0  0  0  0  0  0  0  0  0  0
    5.3740   -4.8550   19.9870 O   0  0  0  0  0  0  0  0  0  0  0  0
    6.9180   -4.3640   21.6760 N   0  0  0  0  0  0  0  0  0  0  0  0
    6.5060   -5.4760   22.4510 C   0  0  0  0  0  0  0  0  0  0  0  0
    5.9370   -5.1340   23.7600 C   0  0  0  0  0  0  0  0  0  0  0  0
    6.3340   -3.8270   24.3500 C   0  0  0  0  0  0  0  0  0  0  0  0
    5.2410   -3.3190   25.2760 C   0  0  0  0  0  0  0  0  0  0  0  0
    4.1720   -2.9500   24.7770 O   0  0  0  0  0  0  0  0  0  0  0  0
    5.3810   -3.2380   26.6930 N   0  0  0  0  0  0  0  0  0  0  0  0
    6.5190   -3.2170   27.4010 C   0  0  0  0  0  0  0  0  0  0  0  0
    6.7180   -4.3150   28.3450 C   0  0  0  0  0  0  0  0  0  0  0  0
    5.4230   -4.4090   29.1150 C   0  0  0  0  0  0  0  0  0  0  0  0
    4.3820   -4.7690   28.2780 C   0  0  0  0  0  0  0  0  0  0  0  0
    4.2530   -3.3810   27.6030 C   0  0  0  0  0  0  0  0  0  0  0  0
    5.2000   -5.7080   29.8390 C   0  0  0  0  0  0  0  0  0  0  0  0
    3.9080   -5.7760   30.6850 C   0  0  2  0  0  0  0  0  0  0  0  0
    3.0750   -6.8500   30.3760 O   0  0  0  0  0  0  0  0  0  0  0  0
    3.3990   -4.3930   30.9150 C   0  0  0  0  0  0  0  0  0  0  0  0
    2.2110   -3.9550   31.5940 N   0  0  0  0  0  0  0  0  0  0  0  0
    2.1560   -2.6010   31.5570 N   0  0  0  0  0  0  0  0  0  0  0  0
    1.2270   -1.5470   32.0510 C   0  0  0  0  0  0  0  0  0  0  0  0
   -0.2260   -1.6870   31.5810 C   0  0  0  0  0  0  0  0  0  0  0  0
    1.2560   -1.5370   33.5570 C   0  0  0  0  0  0  0  0  0  0  0  0
    3.3520   -2.1830   30.8250 C   0  0  0  0  0  0  0  0  0  0  0  0
    4.0380   -3.2920   30.4780 C   0  0  0  0  0  0  0  0  0  0  0  0
    5.1040   -3.4310   29.8570 O   0  0  0  0  0  0  0  0  0  0  0  0
    6.6750   -2.8010   23.3120 C   0  0  0  0  0  0  0  0  0  0  0  0
    7.5820   -3.2890   22.3700 C   0  0  0  0  0  0  0  0  0  0  0  0
  1  2  1  0
  2  3  2  0
  2  4  1  0
  4  5  1  0
  5  6  1  0
  6  7  1  0
  7  8  1  0
  8  9  2  0
  8 10  1  0
 10 11  1  0
 11 12  1  0
 12 13  1  0
 13 14  1  0
 10 15  1  0
 14 15  1  0
 13 16  1  0
 16 17  1  0
 17 18  1  6
 17 19  1  0
 19 20  2  0
 20 21  1  0
 21 22  1  0
 22 23  1  0
 22 24  1  0
 21 25  1  0
 19 26  1  0
 25 26  2  0
 13 27  1  0
 26 27  1  0
  7 28  1  0
  4 29  1  0
 28 29  1  0
M  END
