piperidine-amides-29892-covalent
     RDKit          3D

 26 28  0  0  0  0  0  0  0  0999 V2000
    7.0800   -3.3380   19.2570 C   0  0  0  0  0  0  0  0  0  0  0  0
    6.3690   -4.1440   20.2430 C   0  0  0  0  0  0  0  0  0  0  0  0
    5.3210   -4.7040   19.9390 O   0  0  0  0  0  0  0  0  0  0  0  0
    6.9200   -4.3450   21.5500 N   0  0  0  0  0  0  0  0  0  0  0  0
    6.4400   -5.4360   22.3620 C   0  0  0  0  0  0  0  0  0  0  0  0
    5.6270   -4.9070   23.5150 C   0  0  0  0  0  0  0  0  0  0  0  0
    6.4720   -3.8630   24.2220 C   0  0  0  0  0  0  0  0  0  0  0  0
    5.7420   -3.2010   25.3250 C   0  0  0  0  0  0  0  0  0  0  0  0
    4.5000   -3.1030   25.3930 O   0  0  0  0  0  0  0  0  0  0  0  0
    6.5710   -2.6700   26.3240 N   0  0  0  0  0  0  0  0  0  0  0  0
    7.9620   -2.8000   26.0860 C   0  0  0  0  0  0  0  0  0  0  0  0
    8.2680   -4.1490   26.5740 C   0  0  0  0  0  0  0  0  0  0  0  0
    9.1020   -5.1160   26.0390 C   0  0  0  0  0  0  0  0  0  0  0  0
    9.1430   -6.2570   26.7900 C   0  0  0  0  0  0  0  0  0  0  0  0
    8.3320   -6.1100   27.8610 C   0  0  0  0  0  0  0  0  0  0  0  0
    7.4890   -4.6860   28.0900 S   0  0  0  0  0  0  0  0  0  0  0  0
    6.4430   -1.4540   27.0840 C   0  0  0  0  0  0  0  0  0  0  0  0
    7.0280   -1.4610   28.3100 C   0  0  0  0  0  0  0  0  0  0  0  0
    6.9850   -0.3710   29.1380 C   0  0  0  0  0  0  0  0  0  0  0  0
    6.3690    0.8680   28.8810 C   0  0  0  0  0  0  0  0  0  0  0  0
    6.3470    1.9320   29.7350 O   0  0  0  0  0  0  0  0  0  0  0  0
    5.0710    2.3030   30.1370 C   0  0  0  0  0  0  0  0  0  0  0  0
    5.7380    0.7850   27.4740 C   0  0  0  0  0  0  0  0  0  0  0  0
    5.8040   -0.3420   26.6660 C   0  0  0  0  0  0  0  0  0  0  0  0
    6.8830   -2.7630   23.2800 C   0  0  0  0  0  0  0  0  0  0  0  0
    7.7410   -3.3360   22.1680 C   0  0  0  0  0  0  0  0  0  0  0  0
  1  2  1  0
  2  3  2  0
  2  4  1  0
  4  5  1  0
  5  6  1  0
  6  7  1  0
  7  8  1  0
  8  9  2  0
  8 10  1  0
 10 11  1  0
 11 12  1  0
 12 13  2  0
 13 14  1  0
 14 15  2  0
 12 16  1  0
 15 16  1  0
 10 17  1  0
 17 18  2  0
 18 19  1  0
 19 20  2  0
 20 21  1  0
 21 22  1  0
 20 23  1  0
 17 24  1  0
 23 24  2  0
  7 25  1  0
  4 26  1  0
 25 26  1  0
M  END
