piperidine-amides-27216-covalent
     RDKit          3D

 25 27  0  0  0  0  0  0  0  0999 V2000
    7.0170   -3.4070   19.4560 C   0  0  0  0  0  0  0  0  0  0  0  0
    6.3530   -4.2670   20.4430 C   0  0  0  0  0  0  0  0  0  0  0  0
    5.3910   -4.9510   20.0050 O   0  0  0  0  0  0  0  0  0  0  0  0
    6.8060   -4.3410   21.7720 N   0  0  0  0  0  0  0  0  0  0  0  0
    6.6600   -5.5500   22.5620 C   0  0  0  0  0  0  0  0  0  0  0  0
    6.0740   -5.1740   23.9060 C   0  0  0  0  0  0  0  0  0  0  0  0
    6.0400   -3.6820   24.0580 C   0  0  0  0  0  0  0  0  0  0  0  0
    5.3850   -3.1670   25.3140 C   0  0  0  0  0  0  0  0  0  0  0  0
    4.7450   -2.1120   25.1820 O   0  0  0  0  0  0  0  0  0  0  0  0
    5.3750   -3.7210   26.6220 N   0  0  0  0  0  0  0  0  0  0  0  0
    4.1580   -3.7700   27.3800 C   0  0  0  0  0  0  0  0  0  0  0  0
    4.4120   -3.8420   28.9040 C   0  0  0  0  0  0  0  0  0  0  0  0
    5.4760   -4.8100   29.1940 N   0  0  0  0  0  0  0  0  0  0  0  0
    5.1600   -6.0500   29.5810 C   0  0  0  0  0  0  0  0  0  0  0  0
    4.9640   -6.2260   30.9380 C   0  0  0  0  0  0  0  0  0  0  0  0
    3.7970   -5.7630   31.3180 O   0  0  0  0  0  0  0  0  0  0  0  0
    5.8430   -6.8090   31.8500 O   0  0  0  0  0  0  0  0  0  0  0  0
    5.4520   -7.8640   32.6870 C   0  0  0  0  0  0  0  0  0  0  0  0
    5.9710   -7.0500   28.8900 C   0  0  0  0  0  0  0  0  0  0  0  0
    4.8750   -7.4610   28.1770 O   0  0  0  0  0  0  0  0  0  0  0  0
    4.1340   -6.5960   28.8280 C   0  0  0  0  0  0  0  0  0  0  0  0
    6.5620   -4.6590   28.4400 C   0  0  0  0  0  0  0  0  0  0  0  0
    6.3700   -3.4440   27.5300 C   0  0  0  0  0  0  0  0  0  0  0  0
    7.4320   -3.0970   23.7810 C   0  0  0  0  0  0  0  0  0  0  0  0
    7.6920   -3.2900   22.2890 C   0  0  0  0  0  0  0  0  0  0  0  0
  1  2  1  0
  2  3  2  0
  2  4  1  0
  4  5  1  0
  5  6  1  0
  6  7  1  0
  7  8  1  0
  8  9  2  0
  8 10  1  0
 10 11  1  0
 11 12  1  0
 12 13  1  0
 13 14  1  0
 14 15  1  0
 15 16  2  0
 15 17  1  0
 17 18  1  0
 14 19  1  0
 19 20  1  0
 14 21  1  0
 20 21  1  0
 13 22  1  0
 10 23  1  0
 22 23  1  0
  7 24  1  0
  4 25  1  0
 24 25  1  0
M  END
