piperidine-amides-30631-covalent
     RDKit          3D

 26 28  0  0  0  0  0  0  0  0999 V2000
    6.9640   -3.3840   19.4920 C   0  0  0  0  0  0  0  0  0  0  0  0
    6.3410   -4.2900   20.4690 C   0  0  0  0  0  0  0  0  0  0  0  0
    5.4460   -5.0390   20.0310 O   0  0  0  0  0  0  0  0  0  0  0  0
    6.7280   -4.3720   21.8480 N   0  0  0  0  0  0  0  0  0  0  0  0
    6.5770   -5.5880   22.6330 C   0  0  0  0  0  0  0  0  0  0  0  0
    5.9790   -5.1730   23.9680 C   0  0  0  0  0  0  0  0  0  0  0  0
    5.9030   -3.6830   24.0510 C   0  0  0  0  0  0  0  0  0  0  0  0
    5.2180   -3.0210   25.2490 C   0  0  0  0  0  0  0  0  0  0  0  0
    4.4870   -2.0330   24.9990 O   0  0  0  0  0  0  0  0  0  0  0  0
    5.2390   -3.3430   26.6590 N   0  0  0  0  0  0  0  0  0  0  0  0
    4.3100   -2.6800   27.5980 C   0  0  0  0  0  0  0  0  0  0  0  0
    4.6910   -3.0520   29.0000 C   0  0  0  0  0  0  0  0  0  0  0  0
    5.1100   -4.4330   29.1470 C   0  0  0  0  0  0  0  0  0  0  0  0
    6.1500   -4.7860   28.1630 C   0  0  0  0  0  0  0  0  0  0  0  0
    6.7000   -6.2180   28.1580 C   0  0  0  0  0  0  0  0  0  0  0  0
    6.0730   -7.0880   29.2170 C   0  0  0  0  0  0  0  0  0  0  0  0
    5.1240   -6.6550   30.0650 C   0  0  0  0  0  0  0  0  0  0  0  0
    4.6580   -5.3750   30.0280 C   0  0  0  0  0  0  0  0  0  0  0  0
    3.4180   -4.9520   31.1650 S   0  0  0  0  0  0  0  0  0  0  0  0
    2.0880   -4.9950   30.5270 O   0  0  0  0  0  0  0  0  0  0  0  0
    3.6770   -3.5220   31.5980 O   0  0  0  0  0  0  0  0  0  0  0  0
    3.4110   -5.9570   32.5200 N   0  0  0  0  0  0  0  0  0  0  0  0
    4.6040   -6.5840   32.6870 C   0  0  0  0  0  0  0  0  0  0  0  0
    6.4700   -3.5500   27.2810 C   0  0  0  0  0  0  0  0  0  0  0  0
    7.3030   -3.1750   23.6500 C   0  0  0  0  0  0  0  0  0  0  0  0
    7.4370   -3.2050   22.4270 C   0  0  0  0  0  0  0  0  0  0  0  0
  1  2  1  0
  2  3  2  0
  2  4  1  0
  4  5  1  0
  5  6  1  0
  6  7  1  0
  7  8  1  0
  8  9  2  0
  8 10  1  0
 10 11  1  0
 11 12  1  0
 12 13  1  0
 13 14  2  0
 14 15  1  0
 15 16  2  0
 16 17  1  0
 13 18  1  0
 17 18  2  0
 18 19  1  0
 19 20  2  0
 19 21  2  0
 19 22  1  0
 22 23  1  0
 10 24  1  0
 14 24  1  0
  7 25  1  0
  4 26  1  0
 25 26  1  0
M  END
