piperidine-amides-2585-covalent
     RDKit          3D

 25 26  0  0  0  0  0  0  0  0999 V2000
    7.0920   -3.2520   19.2120 C   0  0  0  0  0  0  0  0  0  0  0  0
    6.3270   -4.0290   20.2280 C   0  0  0  0  0  0  0  0  0  0  0  0
    5.2680   -4.5330   19.8700 O   0  0  0  0  0  0  0  0  0  0  0  0
    6.8380   -4.2040   21.5150 N   0  0  0  0  0  0  0  0  0  0  0  0
    6.5170   -5.3620   22.3120 C   0  0  0  0  0  0  0  0  0  0  0  0
    5.7040   -4.9270   23.5010 C   0  0  0  0  0  0  0  0  0  0  0  0
    6.4360   -3.7800   24.1900 C   0  0  0  0  0  0  0  0  0  0  0  0
    5.6230   -3.3420   25.3460 C   0  0  0  0  0  0  0  0  0  0  0  0
    4.4760   -2.9220   25.1480 O   0  0  0  0  0  0  0  0  0  0  0  0
    6.1200   -3.3920   26.6700 N   0  0  0  0  0  0  0  0  0  0  0  0
    6.3180   -4.6830   27.3100 C   0  0  0  0  0  0  0  0  0  0  0  0
    5.0730   -5.0910   28.0340 C   0  0  0  0  0  0  0  0  0  0  0  0
    4.6570   -6.4010   28.1810 C   0  0  2  0  0  0  0  0  0  0  0  0
    3.3260   -6.6430   28.2850 C   0  0  0  0  0  0  0  0  0  0  0  0
    2.9590   -7.7030   29.0540 C   0  0  0  0  0  0  0  0  0  0  0  0
    1.5450   -8.1840   29.3350 C   0  0  0  0  0  0  0  0  0  0  0  0
    0.5020   -7.3400   28.6490 C   0  0  0  0  0  0  0  0  0  0  0  0
    0.9090   -6.1640   27.7930 C   0  0  0  0  0  0  0  0  0  0  0  0
    2.3640   -5.8820   27.6640 C   0  0  0  0  0  0  0  0  0  0  0  0
    5.4810   -6.6030   29.2790 C   0  0  0  0  0  0  0  0  0  0  0  0
    5.6300   -7.9400   29.4000 F   0  0  0  0  0  0  0  0  0  0  0  0
    4.7790   -6.1590   30.3660 F   0  0  0  0  0  0  0  0  0  0  0  0
    6.7270   -6.0470   29.1780 F   0  0  0  0  0  0  0  0  0  0  0  0
    6.8810   -2.6770   23.3150 C   0  0  0  0  0  0  0  0  0  0  0  0
    7.6340   -3.1650   22.1340 C   0  0  0  0  0  0  0  0  0  0  0  0
  1  2  1  0
  2  3  2  0
  2  4  1  0
  4  5  1  0
  5  6  1  0
  6  7  1  0
  7  8  1  0
  8  9  2  0
  8 10  1  0
 10 11  1  0
 11 12  1  0
 13 12  1  1
 13 14  1  0
 14 15  2  0
 15 16  1  0
 16 17  2  0
 17 18  1  0
 14 19  1  0
 18 19  2  0
 13 20  1  0
 20 21  1  0
 20 22  1  0
 20 23  1  0
  7 24  1  0
  4 25  1  0
 24 25  1  0
M  END
