piperidine-amides-19830-covalent
     RDKit          3D

 21 23  0  0  0  0  0  0  0  0999 V2000
    7.0350   -3.3580   19.3290 C   0  0  0  0  0  0  0  0  0  0  0  0
    6.3940   -4.2130   20.3640 C   0  0  0  0  0  0  0  0  0  0  0  0
    5.4250   -4.8790   19.9970 O   0  0  0  0  0  0  0  0  0  0  0  0
    6.9150   -4.2670   21.6700 N   0  0  0  0  0  0  0  0  0  0  0  0
    6.6880   -5.4190   22.5250 C   0  0  0  0  0  0  0  0  0  0  0  0
    6.0790   -4.9820   23.8380 C   0  0  0  0  0  0  0  0  0  0  0  0
    6.2550   -3.4690   23.9660 C   0  0  0  0  0  0  0  0  0  0  0  0
    5.8140   -2.9740   25.2920 C   0  0  0  0  0  0  0  0  0  0  0  0
    5.5120   -1.7890   25.4170 O   0  0  0  0  0  0  0  0  0  0  0  0
    5.6690   -3.8070   26.3930 N   0  0  0  0  0  0  0  0  0  0  0  0
    6.1840   -3.5100   27.6710 C   0  0  0  0  0  0  0  0  0  0  0  0
    5.8260   -4.8690   28.2150 C   0  0  0  0  0  0  0  0  0  0  0  0
    6.6010   -5.5830   29.2580 C   0  0  0  0  0  0  0  0  0  0  0  0
    6.2290   -6.8480   29.7220 C   0  0  0  0  0  0  0  0  0  0  0  0
    5.2760   -6.9070   28.9790 C   0  0  0  0  0  0  0  0  0  0  0  0
    5.5440   -5.5810   28.4280 C   0  0  0  0  0  0  0  0  0  0  0  0
    6.7390   -4.3890   28.7470 Cl  0  0  0  0  0  0  0  0  0  0  0  0
    4.5380   -5.4850   27.5480 C   0  0  0  0  0  0  0  0  0  0  0  0
    4.3540   -4.2650   26.6710 C   0  0  0  0  0  0  0  0  0  0  0  0
    7.5770   -2.9880   23.5690 C   0  0  0  0  0  0  0  0  0  0  0  0
    7.7930   -3.2010   22.1180 C   0  0  0  0  0  0  0  0  0  0  0  0
  1  2  1  0
  2  3  2  0
  2  4  1  0
  4  5  1  0
  5  6  1  0
  6  7  1  0
  7  8  1  0
  8  9  2  0
  8 10  1  0
 10 11  1  0
 11 12  1  0
 12 13  1  0
 13 14  2  0
 14 15  1  0
 15 16  2  0
 16 17  1  0
 12 18  2  0
 16 18  1  0
 10 19  1  0
 18 19  1  0
  7 20  1  0
  4 21  1  0
 20 21  1  0
M  END
