piperidine-amides-8573-covalent
     RDKit          3D

 24 26  0  0  0  0  0  0  0  0999 V2000
    7.0460   -3.3330   19.3330 C   0  0  0  0  0  0  0  0  0  0  0  0
    6.3770   -4.1760   20.3270 C   0  0  0  0  0  0  0  0  0  0  0  0
    5.3750   -4.8190   19.9710 O   0  0  0  0  0  0  0  0  0  0  0  0
    6.8950   -4.2770   21.6450 N   0  0  0  0  0  0  0  0  0  0  0  0
    7.7050   -3.1960   22.1400 C   0  0  0  0  0  0  0  0  0  0  0  0
    7.5410   -3.0530   23.6180 C   0  0  0  0  0  0  0  0  0  0  0  0
    6.1550   -3.5520   23.9410 C   0  0  0  0  0  0  0  0  0  0  0  0
    5.7760   -3.1400   25.3300 C   0  0  0  0  0  0  0  0  0  0  0  0
    4.6080   -3.3270   25.6690 O   0  0  0  0  0  0  0  0  0  0  0  0
    6.7810   -2.5730   26.1060 N   0  0  0  0  0  0  0  0  0  0  0  0
    6.5640   -1.4570   26.9680 C   0  0  0  0  0  0  0  0  0  0  0  0
    7.0130   -1.5430   28.2950 C   0  0  0  0  0  0  0  0  0  0  0  0
    6.8510   -0.5340   29.2050 C   0  0  0  0  0  0  0  0  0  0  0  0
    6.2200    0.6540   28.8750 C   0  0  0  0  0  0  0  0  0  0  0  0
    5.9780    1.9680   30.0690 S   0  0  0  0  0  0  0  0  0  0  0  0
    7.4160    3.0140   30.3710 C   0  0  0  0  0  0  0  0  0  0  0  0
    7.6750    3.8580   29.1170 C   0  0  0  0  0  0  0  0  0  0  0  0
    9.0690    3.6470   28.6950 C   0  0  0  0  0  0  0  0  0  0  0  0
    9.6940    2.7580   29.7460 C   0  0  0  0  0  0  0  0  0  0  0  0
    8.6190    2.3840   30.8020 C   0  0  0  0  0  0  0  0  0  0  0  0
    5.7870    0.7210   27.5430 C   0  0  0  0  0  0  0  0  0  0  0  0
    5.9490   -0.2900   26.6180 C   0  0  0  0  0  0  0  0  0  0  0  0
    6.0460   -5.0280   23.7800 C   0  0  0  0  0  0  0  0  0  0  0  0
    6.6360   -5.4420   22.4580 C   0  0  0  0  0  0  0  0  0  0  0  0
  1  2  1  0
  2  3  2  0
  2  4  1  0
  4  5  1  0
  5  6  1  0
  6  7  1  0
  7  8  1  0
  8  9  2  0
  8 10  1  0
 10 11  1  0
 11 12  2  0
 12 13  1  0
 13 14  2  0
 14 15  1  0
 15 16  1  0
 16 17  1  0
 17 18  1  0
 18 19  1  0
 16 20  1  0
 19 20  1  0
 14 21  1  0
 11 22  1  0
 21 22  2  0
  7 23  1  0
  4 24  1  0
 23 24  1  0
M  END
