piperidine-amides-251-covalent
     RDKit          3D

 31 33  0  0  0  0  0  0  0  0999 V2000
    7.0570   -3.3360   19.2300 C   0  0  0  0  0  0  0  0  0  0  0  0
    6.3080   -4.0420   20.2510 C   0  0  0  0  0  0  0  0  0  0  0  0
    5.2370   -4.6060   19.8980 O   0  0  0  0  0  0  0  0  0  0  0  0
    6.7300   -4.1910   21.5850 N   0  0  0  0  0  0  0  0  0  0  0  0
    7.6140   -3.1590   22.1640 C   0  0  0  0  0  0  0  0  0  0  0  0
    6.6700   -2.6750   23.3200 C   0  0  0  0  0  0  0  0  0  0  0  0
    6.7780   -3.7940   24.3150 C   0  0  0  0  0  0  0  0  0  0  0  0
    5.8270   -3.5890   25.5720 C   0  0  0  0  0  0  0  0  0  0  0  0
    5.0300   -4.5030   25.6580 O   0  0  0  0  0  0  0  0  0  0  0  0
    6.1050   -2.5100   26.1770 N   0  0  0  0  0  0  0  0  0  0  0  0
    6.1610   -1.3110   26.8060 C   0  0  0  0  0  0  0  0  0  0  0  0
    5.7700   -0.0190   26.4940 C   0  0  0  0  0  0  0  0  0  0  0  0
    5.9300    1.0860   27.3580 C   0  0  0  0  0  0  0  0  0  0  0  0
    6.5350    0.9470   28.6700 C   0  0  0  0  0  0  0  0  0  0  0  0
    6.6230    2.1200   29.4130 O   0  0  0  0  0  0  0  0  0  0  0  0
    5.5140    2.1500   30.2360 C   0  0  0  0  0  0  0  0  0  0  0  0
    5.7330    3.0290   31.3060 C   0  0  0  0  0  0  0  0  0  0  0  0
    4.9740    3.4640   32.4500 C   0  0  0  0  0  0  0  0  0  0  0  0
    3.7000    2.6030   32.1520 C   0  0  0  0  0  0  0  0  0  0  0  0
    2.4960    2.7020   33.1480 C   0  0  0  0  0  0  0  0  0  0  0  0
    2.8900    2.3690   34.4480 F   0  0  0  0  0  0  0  0  0  0  0  0
    1.9310    3.9240   33.2550 F   0  0  0  0  0  0  0  0  0  0  0  0
    1.5080    1.7490   32.8330 F   0  0  0  0  0  0  0  0  0  0  0  0
    3.4630    1.6730   31.0220 C   0  0  0  0  0  0  0  0  0  0  0  0
    4.3740    1.4630   30.0830 C   0  0  0  0  0  0  0  0  0  0  0  0
    6.9760   -0.3990   29.0610 C   0  0  0  0  0  0  0  0  0  0  0  0
    7.5340   -0.4370   30.3120 C   0  0  0  0  0  0  0  0  0  0  0  0
    7.9870   -0.4030   31.3690 N   0  0  0  0  0  0  0  0  0  0  0  0
    6.7930   -1.4450   28.1770 C   0  0  0  0  0  0  0  0  0  0  0  0
    6.7800   -5.2020   23.8070 C   0  0  0  0  0  0  0  0  0  0  0  0
    6.5580   -5.4010   22.3340 C   0  0  0  0  0  0  0  0  0  0  0  0
  1  2  1  0
  2  3  2  0
  2  4  1  0
  4  5  1  0
  5  6  1  0
  6  7  1  0
  7  8  1  0
  8  9  2  0
  8 10  1  0
 10 11  1  0
 11 12  2  0
 12 13  1  0
 13 14  2  0
 14 15  1  0
 15 16  1  0
 16 17  2  0
 17 18  1  0
 18 19  2  0
 19 20  1  0
 20 21  1  0
 20 22  1  0
 20 23  1  0
 19 24  1  0
 16 25  1  0
 24 25  2  0
 14 26  1  0
 26 27  1  0
 27 28  3  0
 11 29  1  0
 26 29  2  0
  7 30  1  0
  4 31  1  0
 30 31  1  0
M  END
