piperidine-amides-27251-covalent
     RDKit          3D

 24 26  0  0  0  0  0  0  0  0999 V2000
    6.9690   -3.3710   19.4470 C   0  0  0  0  0  0  0  0  0  0  0  0
    6.3560   -4.2570   20.4490 C   0  0  0  0  0  0  0  0  0  0  0  0
    5.4230   -4.9850   20.0120 O   0  0  0  0  0  0  0  0  0  0  0  0
    6.7970   -4.3140   21.7960 N   0  0  0  0  0  0  0  0  0  0  0  0
    6.6920   -5.5430   22.5580 C   0  0  0  0  0  0  0  0  0  0  0  0
    6.1250   -5.2120   23.9170 C   0  0  0  0  0  0  0  0  0  0  0  0
    5.9160   -3.7340   24.0570 C   0  0  0  0  0  0  0  0  0  0  0  0
    5.0200   -3.3700   25.2320 C   0  0  0  0  0  0  0  0  0  0  0  0
    3.8110   -3.3440   24.9450 O   0  0  0  0  0  0  0  0  0  0  0  0
    5.2880   -3.0480   26.6020 N   0  0  0  0  0  0  0  0  0  0  0  0
    6.4690   -3.3530   27.2580 C   0  0  0  0  0  0  0  0  0  0  0  0
    6.3440   -4.6670   28.0780 C   0  0  0  0  0  0  0  0  0  0  0  0
    5.0860   -4.6570   28.8230 N   0  0  0  0  0  0  0  0  0  0  0  0
    4.8100   -5.5610   29.7480 C   0  0  0  0  0  0  0  0  0  0  0  0
    3.6210   -6.2540   29.6990 C   0  0  0  0  0  0  0  0  0  0  0  0
    3.4790   -7.5560   29.2690 C   0  0  0  0  0  0  0  0  0  0  0  0
    2.2150   -8.0940   29.2920 C   0  0  0  0  0  0  0  0  0  0  0  0
    1.1970   -7.2880   29.7410 C   0  0  0  0  0  0  0  0  0  0  0  0
   -0.0810   -7.6810   29.8150 F   0  0  0  0  0  0  0  0  0  0  0  0
    2.0140   -5.8150   30.1160 S   0  0  0  0  0  0  0  0  0  0  0  0
    4.4410   -3.5170   28.9050 C   0  0  0  0  0  0  0  0  0  0  0  0
    4.2690   -2.8140   27.5600 C   0  0  0  0  0  0  0  0  0  0  0  0
    7.2510   -3.0030   23.8630 C   0  0  0  0  0  0  0  0  0  0  0  0
    7.6080   -3.2230   22.3740 C   0  0  0  0  0  0  0  0  0  0  0  0
  1  2  1  0
  2  3  2  0
  2  4  1  0
  4  5  1  0
  5  6  1  0
  6  7  1  0
  7  8  1  0
  8  9  2  0
  8 10  1  0
 10 11  1  0
 11 12  1  0
 12 13  1  0
 13 14  1  0
 14 15  1  0
 15 16  2  0
 16 17  1  0
 17 18  2  0
 18 19  1  0
 15 20  1  0
 18 20  1  0
 13 21  1  0
 10 22  1  0
 21 22  1  0
  7 23  1  0
  4 24  1  0
 23 24  1  0
M  END
