piperidine-amides-32824-covalent
     RDKit          3D

 29 31  0  0  0  0  0  0  0  0999 V2000
    7.0670   -3.3220   19.3370 C   0  0  0  0  0  0  0  0  0  0  0  0
    6.3600   -4.1900   20.3150 C   0  0  0  0  0  0  0  0  0  0  0  0
    5.3240   -4.7710   19.9560 O   0  0  0  0  0  0  0  0  0  0  0  0
    6.8940   -4.3990   21.6090 N   0  0  0  0  0  0  0  0  0  0  0  0
    6.5160   -5.5720   22.3470 C   0  0  0  0  0  0  0  0  0  0  0  0
    5.6220   -5.0640   23.4790 C   0  0  0  0  0  0  0  0  0  0  0  0
    6.4590   -4.1140   24.2620 C   0  0  0  0  0  0  0  0  0  0  0  0
    5.7350   -3.4710   25.4040 C   0  0  0  0  0  0  0  0  0  0  0  0
    5.0530   -2.4840   25.1120 O   0  0  0  0  0  0  0  0  0  0  0  0
    5.7850   -3.9680   26.7260 N   0  0  0  0  0  0  0  0  0  0  0  0
    4.6470   -4.2740   27.5410 C   0  0  0  0  0  0  0  0  0  0  0  0
    4.5700   -4.2780   28.9430 C   0  0  0  0  0  0  0  0  0  0  0  0
    5.6690   -5.0500   29.4780 N   0  0  0  0  0  0  0  0  0  0  0  0
    5.5990   -6.3360   30.0240 C   0  0  0  0  0  0  0  0  0  0  0  0
    6.2830   -6.7570   31.1590 O   0  0  0  0  0  0  0  0  0  0  0  0
    4.7700   -7.2100   29.3870 C   0  0  0  0  0  0  0  0  0  0  0  0
    4.1990   -8.1650   30.1730 O   0  0  0  0  0  0  0  0  0  0  0  0
    3.5000   -7.8530   31.3850 C   0  0  0  0  0  0  0  0  0  0  0  0
    4.0300   -6.8350   32.4390 C   0  0  0  0  0  0  0  0  0  0  0  0
    3.1670   -6.5970   33.7180 C   0  0  0  0  0  0  0  0  0  0  0  0
    3.4990   -5.7330   34.7400 C   0  0  0  0  0  0  0  0  0  0  0  0
    1.8750   -7.3280   33.9130 C   0  0  0  0  0  0  0  0  0  0  0  0
    1.5380   -8.2570   32.7940 C   0  0  0  0  0  0  0  0  0  0  0  0
    0.6000   -9.1570   32.3570 C   0  0  0  0  0  0  0  0  0  0  0  0
    2.2490   -8.5500   31.5820 C   0  0  0  0  0  0  0  0  0  0  0  0
    6.8020   -4.9300   28.6500 C   0  0  0  0  0  0  0  0  0  0  0  0
    6.4130   -3.6220   27.9500 C   0  0  0  0  0  0  0  0  0  0  0  0
    6.9900   -2.9520   23.4440 C   0  0  0  0  0  0  0  0  0  0  0  0
    7.5830   -3.3180   22.2420 C   0  0  0  0  0  0  0  0  0  0  0  0
  1  2  1  0
  2  3  2  0
  2  4  1  0
  4  5  1  0
  5  6  1  0
  6  7  1  0
  7  8  1  0
  8  9  2  0
  8 10  1  0
 10 11  1  0
 11 12  1  0
 12 13  1  0
 13 14  1  0
 14 15  2  0
 14 16  1  0
 16 17  1  0
 17 18  1  0
 18 19  2  0
 19 20  1  0
 20 21  1  0
 20 22  2  0
 22 23  1  0
 23 24  1  0
 18 25  1  0
 23 25  2  0
 13 26  1  0
 10 27  1  0
 26 27  1  0
  7 28  1  0
  4 29  1  0
 28 29  1  0
M  END
