piperidine-amides-27155-covalent
     RDKit          3D

 25 26  0  0  0  0  0  0  0  0999 V2000
    7.0630   -3.3370   19.3140 C   0  0  0  0  0  0  0  0  0  0  0  0
    6.3990   -4.1840   20.3070 C   0  0  0  0  0  0  0  0  0  0  0  0
    5.3300   -4.7400   19.9470 O   0  0  0  0  0  0  0  0  0  0  0  0
    6.9730   -4.3960   21.5590 N   0  0  0  0  0  0  0  0  0  0  0  0
    6.6660   -5.5820   22.3140 C   0  0  0  0  0  0  0  0  0  0  0  0
    5.8220   -5.1660   23.4840 C   0  0  0  0  0  0  0  0  0  0  0  0
    6.4560   -4.0540   24.2800 C   0  0  0  0  0  0  0  0  0  0  0  0
    5.5130   -3.6680   25.3540 C   0  0  0  0  0  0  0  0  0  0  0  0
    4.6400   -2.8070   25.1260 O   0  0  0  0  0  0  0  0  0  0  0  0
    5.6060   -4.2680   26.6130 N   0  0  0  0  0  0  0  0  0  0  0  0
    6.9250   -4.3240   27.0970 C   0  0  0  0  0  0  0  0  0  0  0  0
    7.2300   -5.3700   28.1400 C   0  0  0  0  0  0  0  0  0  0  0  0
    6.3020   -5.5950   29.0640 C   0  0  0  0  0  0  0  0  0  0  0  0
    5.0450   -5.2680   28.6650 C   0  0  1  0  0  0  0  0  0  0  0  0
    4.4620   -6.2750   27.9010 C   0  0  0  0  0  0  0  0  0  0  0  0
    4.0860   -5.1070   29.8200 C   0  0  0  0  0  0  0  0  0  0  0  0
    2.8500   -4.4670   29.6370 O   0  0  0  0  0  0  0  0  0  0  0  0
    4.3800   -5.5470   30.9640 O   0  0  0  0  0  0  0  0  0  0  0  0
    4.2850   -6.9290   31.3020 C   0  0  0  0  0  0  0  0  0  0  0  0
    3.2130   -7.0980   32.3440 C   0  0  0  0  0  0  0  0  0  0  0  0
    5.4810   -7.4660   31.6820 C   0  0  0  0  0  0  0  0  0  0  0  0
    4.0740   -7.5790   30.1020 C   0  0  0  0  0  0  0  0  0  0  0  0
    5.1280   -4.0510   27.9830 C   0  0  0  0  0  0  0  0  0  0  0  0
    6.8320   -2.8720   23.4550 C   0  0  0  0  0  0  0  0  0  0  0  0
    7.6110   -3.2990   22.2350 C   0  0  0  0  0  0  0  0  0  0  0  0
  1  2  1  0
  2  3  2  0
  2  4  1  0
  4  5  1  0
  5  6  1  0
  6  7  1  0
  7  8  1  0
  8  9  2  0
  8 10  1  0
 10 11  1  0
 11 12  1  0
 12 13  1  0
 13 14  1  0
 14 15  1  6
 14 16  1  0
 16 17  2  0
 16 18  1  0
 19 18  1  0
 19 20  1  0
 19 21  1  0
 19 22  1  0
 10 23  1  0
 14 23  1  0
  7 24  1  0
  4 25  1  0
 24 25  1  0
M  END
