piperidine-amides-19181-covalent
     RDKit          3D

 22 24  0  0  0  0  0  0  0  0999 V2000
    7.0930   -3.3610   19.4920 C   0  0  0  0  0  0  0  0  0  0  0  0
    6.3570   -4.1690   20.4400 C   0  0  0  0  0  0  0  0  0  0  0  0
    5.4240   -4.9150   19.9990 O   0  0  0  0  0  0  0  0  0  0  0  0
    6.6610   -4.1730   21.8220 N   0  0  0  0  0  0  0  0  0  0  0  0
    6.5380   -5.4820   22.5120 C   0  0  0  0  0  0  0  0  0  0  0  0
    5.9490   -5.0840   23.9320 C   0  0  0  0  0  0  0  0  0  0  0  0
    5.9430   -3.5710   24.0130 C   0  0  0  0  0  0  0  0  0  0  0  0
    5.2740   -2.9190   25.3400 C   0  0  0  0  0  0  0  0  0  0  0  0
    4.5900   -1.9610   25.0540 O   0  0  0  0  0  0  0  0  0  0  0  0
    5.6270   -3.5870   26.3510 N   0  0  0  0  0  0  0  0  0  0  0  0
    6.1720   -4.4700   27.0540 C   0  0  0  0  0  0  0  0  0  0  0  0
    5.8990   -5.0030   28.1730 C   0  0  0  0  0  0  0  0  0  0  0  0
    6.3930   -6.3940   28.6100 C   0  0  0  0  0  0  0  0  0  0  0  0
    6.1810   -7.2690   29.9110 C   0  0  0  0  0  0  0  0  0  0  0  0
    5.3640   -6.2310   30.4910 C   0  0  0  0  0  0  0  0  0  0  0  0
    4.6660   -6.0670   31.7030 O   0  0  0  0  0  0  0  0  0  0  0  0
    4.9390   -6.9280   32.7930 C   0  0  0  0  0  0  0  0  0  0  0  0
    5.5160   -5.4040   29.3620 C   0  0  0  0  0  0  0  0  0  0  0  0
    5.0090   -4.1310   29.0640 C   0  0  0  0  0  0  0  0  0  0  0  0
    5.1930   -3.2190   27.7190 C   0  0  0  0  0  0  0  0  0  0  0  0
    7.3410   -3.0320   23.6900 C   0  0  0  0  0  0  0  0  0  0  0  0
    7.6200   -3.2070   22.3580 C   0  0  0  0  0  0  0  0  0  0  0  0
  1  2  1  0
  2  3  2  0
  2  4  1  0
  4  5  1  0
  5  6  1  0
  6  7  1  0
  7  8  1  0
  8  9  2  0
  8 10  1  0
 10 11  1  0
 11 12  1  0
 12 13  1  0
 13 14  2  0
 14 15  1  0
 15 16  1  0
 16 17  1  0
 15 18  2  0
 12 19  2  0
 18 19  1  0
 10 20  1  0
 19 20  1  0
  7 21  1  0
  4 22  1  0
 21 22  1  0
M  END
