piperidine-amides-27802-covalent
     RDKit          3D

 26 28  0  0  0  0  0  0  0  0999 V2000
    7.1150   -3.2630   19.1880 C   0  0  0  0  0  0  0  0  0  0  0  0
    6.3640   -4.0160   20.2210 C   0  0  0  0  0  0  0  0  0  0  0  0
    5.2870   -4.5380   19.8760 O   0  0  0  0  0  0  0  0  0  0  0  0
    6.8930   -4.1580   21.5050 N   0  0  0  0  0  0  0  0  0  0  0  0
    6.5210   -5.2570   22.3390 C   0  0  0  0  0  0  0  0  0  0  0  0
    5.9960   -4.8770   23.6580 C   0  0  0  0  0  0  0  0  0  0  0  0
    6.5170   -3.6030   24.2190 C   0  0  0  0  0  0  0  0  0  0  0  0
    5.7860   -3.2590   25.4610 C   0  0  0  0  0  0  0  0  0  0  0  0
    4.5550   -3.1050   25.3720 O   0  0  0  0  0  0  0  0  0  0  0  0
    6.4410   -3.1170   26.7120 N   0  0  0  0  0  0  0  0  0  0  0  0
    6.5330   -4.2540   27.6650 C   0  0  0  0  0  0  0  0  0  0  0  0
    6.4640   -1.8180   27.2770 C   0  0  0  0  0  0  0  0  0  0  0  0
    5.4230   -1.4750   28.2380 C   0  0  1  0  0  0  0  0  0  0  0  0
    5.5870   -1.9000   29.5360 C   0  0  0  0  0  0  0  0  0  0  0  0
    5.1190   -0.9470   30.3740 C   0  0  0  0  0  0  0  0  0  0  0  0
    4.6760    0.1170   29.5380 N   0  0  0  0  0  0  0  0  0  0  0  0
    3.5270    0.7950   29.7330 C   0  0  0  0  0  0  0  0  0  0  0  0
    2.4810    0.0510   29.2640 C   0  0  0  0  0  0  0  0  0  0  0  0
    1.8760   -0.8560   30.0640 C   0  0  0  0  0  0  0  0  0  0  0  0
    0.8150   -1.6650   29.7040 C   0  0  0  0  0  0  0  0  0  0  0  0
    0.2190   -1.6070   28.3500 C   0  0  0  0  0  0  0  0  0  0  0  0
    0.8600   -0.6020   27.4000 C   0  0  0  0  0  0  0  0  0  0  0  0
    2.0130    0.2010   27.9640 C   0  0  0  0  0  0  0  0  0  0  0  0
    5.0170   -0.1350   28.2420 C   0  0  0  0  0  0  0  0  0  0  0  0
    6.7450   -2.5690   23.2240 C   0  0  0  0  0  0  0  0  0  0  0  0
    7.6250   -3.0760   22.1460 C   0  0  0  0  0  0  0  0  0  0  0  0
  1  2  1  0
  2  3  2  0
  2  4  1  0
  4  5  1  0
  5  6  1  0
  6  7  1  0
  7  8  1  0
  8  9  2  0
  8 10  1  0
 10 11  1  0
 10 12  1  0
 13 12  1  6
 13 14  1  0
 14 15  1  0
 15 16  1  0
 16 17  1  0
 17 18  1  0
 18 19  2  0
 19 20  1  0
 20 21  2  0
 21 22  1  0
 18 23  1  0
 22 23  2  0
 13 24  1  0
 16 24  1  0
  7 25  1  0
  4 26  1  0
 25 26  1  0
M  END
