piperidine-amides-23324-covalent
     RDKit          3D

 24 26  0  0  0  0  0  0  0  0999 V2000
    7.0880   -3.2690   19.2740 C   0  0  0  0  0  0  0  0  0  0  0  0
    6.3400   -4.0370   20.2890 C   0  0  0  0  0  0  0  0  0  0  0  0
    5.2800   -4.5840   19.8970 O   0  0  0  0  0  0  0  0  0  0  0  0
    6.7990   -4.2030   21.6270 N   0  0  0  0  0  0  0  0  0  0  0  0
    7.6410   -3.2030   22.1990 C   0  0  0  0  0  0  0  0  0  0  0  0
    7.3260   -2.9910   23.5910 C   0  0  0  0  0  0  0  0  0  0  0  0
    6.1090   -3.7250   23.9590 C   0  0  0  0  0  0  0  0  0  0  0  0
    5.6150   -3.4560   25.3560 C   0  0  0  0  0  0  0  0  0  0  0  0
    4.4460   -3.7770   25.6300 O   0  0  0  0  0  0  0  0  0  0  0  0
    6.3840   -2.8460   26.3690 N   0  0  0  0  0  0  0  0  0  0  0  0
    6.2650   -3.1910   27.7460 C   0  0  0  0  0  0  0  0  0  0  0  0
    6.1050   -2.1520   28.7640 C   0  0  0  0  0  0  0  0  0  0  0  0
    7.3190   -1.4290   29.3670 C   0  0  0  0  0  0  0  0  0  0  0  0
    6.9270   -0.5110   30.2880 C   0  0  0  0  0  0  0  0  0  0  0  0
    5.4180   -0.6980   30.2270 C   0  0  0  0  0  0  0  0  0  0  0  0
    5.0360   -1.6820   29.3040 O   0  0  0  0  0  0  0  0  0  0  0  0
    6.8190   -1.4840   26.2060 C   0  0  0  0  0  0  0  0  0  0  0  0
    5.7660   -0.6540   25.4490 C   0  0  0  0  0  0  0  0  0  0  0  0
    4.2570   -0.7640   25.6240 C   0  0  0  0  0  0  0  0  0  0  0  0
    3.7460    0.2250   24.6810 C   0  0  0  0  0  0  0  0  0  0  0  0
    4.9710    0.8160   24.0500 C   0  0  0  0  0  0  0  0  0  0  0  0
    6.0290    0.2600   24.5460 O   0  0  0  0  0  0  0  0  0  0  0  0
    6.2450   -5.1940   23.6690 C   0  0  0  0  0  0  0  0  0  0  0  0
    6.6310   -5.4600   22.3360 C   0  0  0  0  0  0  0  0  0  0  0  0
  1  2  1  0
  2  3  2  0
  2  4  1  0
  4  5  1  0
  5  6  1  0
  6  7  1  0
  7  8  1  0
  8  9  2  0
  8 10  1  0
 10 11  1  0
 11 12  1  0
 12 13  2  0
 13 14  1  0
 14 15  2  0
 12 16  1  0
 15 16  1  0
 10 17  1  0
 17 18  1  0
 18 19  2  0
 19 20  1  0
 20 21  2  0
 18 22  1  0
 21 22  1  0
  7 23  1  0
  4 24  1  0
 23 24  1  0
M  END
