piperidine-amides-34351-covalent
     RDKit          3D

 26 28  0  0  0  0  0  0  0  0999 V2000
    7.1020   -3.3250   19.3170 C   0  0  0  0  0  0  0  0  0  0  0  0
    6.4270   -4.1990   20.2830 C   0  0  0  0  0  0  0  0  0  0  0  0
    5.3750   -4.7960   19.9690 O   0  0  0  0  0  0  0  0  0  0  0  0
    6.9950   -4.4200   21.5440 N   0  0  0  0  0  0  0  0  0  0  0  0
    6.6280   -5.6050   22.2650 C   0  0  0  0  0  0  0  0  0  0  0  0
    5.7170   -5.1180   23.3920 C   0  0  0  0  0  0  0  0  0  0  0  0
    6.4510   -3.9960   24.0970 C   0  0  0  0  0  0  0  0  0  0  0  0
    5.5820   -3.4070   25.1200 C   0  0  0  0  0  0  0  0  0  0  0  0
    4.7180   -2.5760   24.7690 O   0  0  0  0  0  0  0  0  0  0  0  0
    5.7340   -3.7690   26.4570 N   0  0  0  0  0  0  0  0  0  0  0  0
    7.0010   -3.5330   26.9980 C   0  0  0  0  0  0  0  0  0  0  0  0
    7.5700   -4.8740   27.2680 C   0  0  1  0  0  0  0  0  0  0  0  0
    8.5420   -4.8010   28.1330 C   0  0  0  0  0  0  0  0  0  0  0  0
    9.3930   -5.6800   28.3900 O   0  0  0  0  0  0  0  0  0  0  0  0
    8.5540   -3.6000   28.7280 O   0  0  0  0  0  0  0  0  0  0  0  0
    8.2660   -2.2870   28.6590 C   0  0  0  0  0  0  0  0  0  0  0  0
    6.9950   -1.9490   29.1200 C   0  0  0  0  0  0  0  0  0  0  0  0
    6.4130   -5.5620   27.8470 C   0  0  0  0  0  0  0  0  0  0  0  0
    5.5230   -4.7230   28.4270 N   0  0  0  0  0  0  0  0  0  0  0  0
    4.9310   -4.7850   29.7690 N   0  0  0  0  0  0  0  0  0  0  0  0
    4.0770   -3.6920   30.0060 C   0  0  0  0  0  0  0  0  0  0  0  0
    4.8400   -4.0900   28.9390 C   0  0  0  0  0  0  0  0  0  0  0  0
    5.7670   -5.7200   29.2740 Br  0  0  0  0  0  0  0  0  0  0  0  0
    5.0050   -3.4950   27.6980 C   0  0  0  0  0  0  0  0  0  0  0  0
    6.8240   -2.8840   23.1460 C   0  0  0  0  0  0  0  0  0  0  0  0
    7.7380   -3.3940   22.2320 C   0  0  0  0  0  0  0  0  0  0  0  0
  1  2  1  0
  2  3  2  0
  2  4  1  0
  4  5  1  0
  5  6  1  0
  6  7  1  0
  7  8  1  0
  8  9  2  0
  8 10  1  0
 10 11  1  0
 11 12  1  0
 12 13  1  1
 13 14  2  0
 13 15  1  0
 15 16  1  0
 16 17  1  0
 12 18  1  0
 18 19  1  0
 19 20  1  0
 20 21  2  0
 21 22  1  0
 22 23  1  0
 10 24  1  0
 19 24  1  0
 22 24  2  0
  7 25  1  0
  4 26  1  0
 25 26  1  0
M  END
