piperidine-amides-33395-covalent
     RDKit          3D

 25 26  0  0  0  0  0  0  0  0999 V2000
    7.0950   -3.3360   19.3110 C   0  0  0  0  0  0  0  0  0  0  0  0
    6.4270   -4.1640   20.3270 C   0  0  0  0  0  0  0  0  0  0  0  0
    5.3850   -4.7710   19.9680 O   0  0  0  0  0  0  0  0  0  0  0  0
    6.9770   -4.3110   21.6300 N   0  0  0  0  0  0  0  0  0  0  0  0
    6.4840   -5.3550   22.4580 C   0  0  0  0  0  0  0  0  0  0  0  0
    5.8980   -4.8840   23.7150 C   0  0  0  0  0  0  0  0  0  0  0  0
    6.1200   -3.4450   23.9960 C   0  0  0  0  0  0  0  0  0  0  0  0
    5.6750   -3.0480   25.3740 C   0  0  0  0  0  0  0  0  0  0  0  0
    4.4530   -2.9400   25.5930 O   0  0  0  0  0  0  0  0  0  0  0  0
    6.5810   -2.7920   26.4300 N   0  0  0  0  0  0  0  0  0  0  0  0
    7.1310   -3.7850   27.2430 C   0  0  0  0  0  0  0  0  0  0  0  0
    6.2510   -4.7610   27.8640 C   0  0  0  0  0  0  0  0  0  0  0  0
    7.0680   -6.0250   27.9060 C   0  0  0  0  0  0  0  0  0  0  0  0
    8.4030   -5.7490   27.7380 C   0  0  0  0  0  0  0  0  0  0  0  0
    8.1720   -5.2650   26.3050 C   0  0  0  0  0  0  0  0  0  0  0  0
    9.5800   -5.6580   26.0960 C   0  0  0  0  0  0  0  0  0  0  0  0
    6.4870   -1.5320   27.1040 C   0  0  0  0  0  0  0  0  0  0  0  0
    7.1340   -1.5580   28.4580 C   0  0  0  0  0  0  0  0  0  0  0  0
    7.0640   -0.2750   29.2310 C   0  0  0  0  0  0  0  0  0  0  0  0
    6.3820    0.9800   28.6750 C   0  0  0  0  0  0  0  0  0  0  0  0
    6.2580    2.6360   29.5980 Br  0  0  0  0  0  0  0  0  0  0  0  0
    5.8130    0.7670   27.3030 C   0  0  0  0  0  0  0  0  0  0  0  0
    5.8530   -0.4180   26.5430 C   0  0  0  0  0  0  0  0  0  0  0  0
    7.4760   -2.9680   23.6320 C   0  0  0  0  0  0  0  0  0  0  0  0
    7.7650   -3.2260   22.1770 C   0  0  0  0  0  0  0  0  0  0  0  0
  1  2  1  0
  2  3  2  0
  2  4  1  0
  4  5  1  0
  5  6  1  0
  6  7  1  0
  7  8  1  0
  8  9  2  0
  8 10  1  0
 10 11  1  0
 11 12  1  0
 12 13  1  0
 13 14  1  0
 14 15  1  0
 15 16  1  0
 10 17  1  0
 17 18  2  0
 18 19  1  0
 19 20  2  0
 20 21  1  0
 20 22  1  0
 17 23  1  0
 22 23  2  0
  7 24  1  0
  4 25  1  0
 24 25  1  0
M  END
