piperidine-amides-33103-covalent
     RDKit          3D

 29 30  0  0  0  0  0  0  0  0999 V2000
    7.1300   -3.3090   19.2880 C   0  0  0  0  0  0  0  0  0  0  0  0
    6.3830   -4.0680   20.3020 C   0  0  0  0  0  0  0  0  0  0  0  0
    5.3220   -4.6160   19.9200 O   0  0  0  0  0  0  0  0  0  0  0  0
    6.8780   -4.2120   21.6270 N   0  0  0  0  0  0  0  0  0  0  0  0
    6.5620   -5.4030   22.3420 C   0  0  0  0  0  0  0  0  0  0  0  0
    6.0450   -5.1230   23.6710 C   0  0  0  0  0  0  0  0  0  0  0  0
    6.0020   -3.6820   23.9660 C   0  0  0  0  0  0  0  0  0  0  0  0
    5.5760   -3.4090   25.3850 C   0  0  0  0  0  0  0  0  0  0  0  0
    4.3770   -3.5760   25.6700 O   0  0  0  0  0  0  0  0  0  0  0  0
    6.4400   -2.9480   26.3990 N   0  0  0  0  0  0  0  0  0  0  0  0
    6.9140   -1.6180   26.4790 C   0  0  0  0  0  0  0  0  0  0  0  0
    6.2560   -3.5440   27.7260 C   0  0  0  0  0  0  0  0  0  0  0  0
    5.8080   -5.0160   27.8860 C   0  0  0  0  0  0  0  0  0  0  0  0
    6.7880   -5.8740   28.3260 O   0  0  0  0  0  0  0  0  0  0  0  0
    4.3880   -5.1590   27.5600 N   0  0  0  0  0  0  0  0  0  0  0  0
    3.6350   -5.2280   28.7790 C   0  0  0  0  0  0  0  0  0  0  0  0
    4.0150   -4.0310   29.6490 C   0  0  0  0  0  0  0  0  0  0  0  0
    3.2890   -3.9590   30.9910 C   0  0  0  0  0  0  0  0  0  0  0  0
    2.2410   -5.0540   31.4060 C   0  0  0  0  0  0  0  0  0  0  0  0
    1.5560   -5.1690   32.4410 O   0  0  0  0  0  0  0  0  0  0  0  0
    0.1520   -4.8580   32.4490 C   0  0  0  0  0  0  0  0  0  0  0  0
   -0.6350   -6.1150   32.1240 C   0  0  0  0  0  0  0  0  0  0  0  0
    2.0940   -6.0730   30.3650 C   0  0  0  0  0  0  0  0  0  0  0  0
    1.2180   -7.1020   30.5720 O   0  0  0  0  0  0  0  0  0  0  0  0
    1.7820   -8.3430   30.7050 C   0  0  0  0  0  0  0  0  0  0  0  0
    2.8720   -8.1690   31.5600 C   0  0  0  0  0  0  0  0  0  0  0  0
    2.7590   -6.2040   29.0500 C   0  0  0  0  0  0  0  0  0  0  0  0
    7.3000   -3.0180   23.6220 C   0  0  0  0  0  0  0  0  0  0  0  0
    7.6580   -3.1780   22.2790 C   0  0  0  0  0  0  0  0  0  0  0  0
  1  2  1  0
  2  3  2  0
  2  4  1  0
  4  5  1  0
  5  6  1  0
  6  7  1  0
  7  8  1  0
  8  9  2  0
  8 10  1  0
 10 11  1  0
 10 12  1  0
 12 13  1  0
 13 14  2  0
 13 15  1  0
 15 16  1  0
 16 17  2  0
 17 18  1  0
 18 19  2  0
 19 20  1  0
 20 21  1  0
 21 22  1  0
 19 23  1  0
 23 24  1  0
 24 25  1  0
 25 26  1  0
 16 27  1  0
 23 27  2  0
  7 28  1  0
  4 29  1  0
 28 29  1  0
M  END
