piperidine-amides-31778-covalent
     RDKit          3D

 28 31  0  0  0  0  0  0  0  0999 V2000
    7.0340   -3.4240   19.3990 C   0  0  0  0  0  0  0  0  0  0  0  0
    6.3500   -4.1890   20.4190 C   0  0  0  0  0  0  0  0  0  0  0  0
    5.4080   -4.9410   20.0120 O   0  0  0  0  0  0  0  0  0  0  0  0
    6.7010   -4.1820   21.7980 N   0  0  0  0  0  0  0  0  0  0  0  0
    6.5770   -5.4950   22.4980 C   0  0  0  0  0  0  0  0  0  0  0  0
    5.9610   -5.1190   23.9210 C   0  0  0  0  0  0  0  0  0  0  0  0
    6.0760   -3.6190   24.0370 C   0  0  0  0  0  0  0  0  0  0  0  0
    5.1350   -2.8530   25.1180 C   0  0  0  0  0  0  0  0  0  0  0  0
    4.3730   -2.1770   24.4640 O   0  0  0  0  0  0  0  0  0  0  0  0
    5.3030   -3.0610   26.3890 N   0  0  0  0  0  0  0  0  0  0  0  0
    5.3510   -2.8230   27.7240 C   0  0  0  0  0  0  0  0  0  0  0  0
    5.4510   -3.8130   28.5820 C   0  0  1  0  0  0  0  0  0  0  0  0
    4.4530   -4.0410   29.5230 C   0  0  0  0  0  0  0  0  0  0  0  0
    4.4580   -5.2590   30.1200 N   0  0  0  0  0  0  0  0  0  0  0  0
    3.6660   -5.2300   31.2610 C   0  0  0  0  0  0  0  0  0  0  0  0
    4.4800   -6.3680   29.1300 C   0  0  0  0  0  0  0  0  0  0  0  0
    5.5630   -6.0770   28.2890 C   0  0  0  0  0  0  0  0  0  0  0  0
    5.4880   -4.7920   27.7710 C   0  0  2  0  0  0  0  0  0  0  0  0
    6.7950   -5.2430   27.6490 C   0  0  0  0  0  0  0  0  0  0  0  0
    7.2720   -5.9060   26.5790 N   0  0  0  0  0  0  0  0  0  0  0  0
    8.5520   -5.9160   27.0130 C   0  0  0  0  0  0  0  0  0  0  0  0
    9.6870   -6.2460   26.7130 C   0  0  0  0  0  0  0  0  0  0  0  0
   10.0570   -5.4430   27.7780 C   0  0  0  0  0  0  0  0  0  0  0  0
    8.5780   -5.2760   28.2920 N   0  0  0  0  0  0  0  0  0  0  0  0
    7.4750   -4.9100   28.5950 O   0  0  0  0  0  0  0  0  0  0  0  0
    5.0550   -4.5210   26.4890 C   0  0  0  0  0  0  0  0  0  0  0  0
    7.3990   -3.0390   23.6960 C   0  0  0  0  0  0  0  0  0  0  0  0
    7.6310   -3.2020   22.3270 C   0  0  0  0  0  0  0  0  0  0  0  0
  1  2  1  0
  2  3  2  0
  2  4  1  0
  4  5  1  0
  5  6  1  0
  6  7  1  0
  7  8  1  0
  8  9  2  0
  8 10  1  0
 10 11  1  0
 12 11  1  6
 12 13  1  0
 13 14  1  0
 14 15  1  0
 14 16  1  0
 16 17  1  0
 12 18  1  0
 17 18  1  0
 18 19  1  6
 19 20  2  0
 20 21  1  0
 21 22  1  0
 22 23  1  0
 21 24  2  0
 19 25  1  0
 24 25  1  0
 10 26  1  0
 18 26  1  0
  7 27  1  0
  4 28  1  0
 27 28  1  0
M  END
