piperidine-amides-31462-covalent
     RDKit          3D

 27 29  0  0  0  0  0  0  0  0999 V2000
    7.2180   -3.3200   19.3670 C   0  0  0  0  0  0  0  0  0  0  0  0
    6.4410   -4.0640   20.3250 C   0  0  0  0  0  0  0  0  0  0  0  0
    5.3730   -4.6410   19.9340 O   0  0  0  0  0  0  0  0  0  0  0  0
    6.8840   -4.1930   21.6560 N   0  0  0  0  0  0  0  0  0  0  0  0
    6.4390   -5.3430   22.4530 C   0  0  0  0  0  0  0  0  0  0  0  0
    5.3910   -4.6060   23.3680 C   0  0  0  0  0  0  0  0  0  0  0  0
    6.0820   -3.4350   24.0580 C   0  0  0  0  0  0  0  0  0  0  0  0
    4.9660   -2.6620   24.9030 C   0  0  0  0  0  0  0  0  0  0  0  0
    3.8590   -3.0780   24.6130 O   0  0  0  0  0  0  0  0  0  0  0  0
    5.5090   -1.8180   25.6910 N   0  0  0  0  0  0  0  0  0  0  0  0
    6.3590   -0.8540   26.1350 C   0  0  0  0  0  0  0  0  0  0  0  0
    4.9260   -2.2180   26.9000 C   0  0  2  0  0  0  0  0  0  0  0  0
    4.9940   -1.4290   28.0840 C   0  0  0  0  0  0  0  0  0  0  0  0
    5.5720   -1.8070   29.3930 C   0  0  0  0  0  0  0  0  0  0  0  0
    5.3880   -0.6010   30.3380 C   0  0  0  0  0  0  0  0  0  0  0  0
    4.7460    0.6460   29.9260 N   0  0  0  0  0  0  0  0  0  0  0  0
    4.2490    0.8080   28.6020 C   0  0  0  0  0  0  0  0  0  0  0  0
    4.3310   -0.1780   27.6170 C   0  0  0  0  0  0  0  0  0  0  0  0
    5.8480   -3.2970   27.1490 C   0  0  0  0  0  0  0  0  0  0  0  0
    7.0410   -2.6770   27.8300 C   0  0  0  0  0  0  0  0  0  0  0  0
    8.0190   -3.5070   28.0740 C   0  0  0  0  0  0  0  0  0  0  0  0
    7.8940   -4.8230   27.6950 C   0  0  0  0  0  0  0  0  0  0  0  0
    9.1960   -5.8600   27.9480 Cl  0  0  0  0  0  0  0  0  0  0  0  0
    6.7850   -5.3690   27.1000 C   0  0  0  0  0  0  0  0  0  0  0  0
    5.7140   -4.5880   26.8140 C   0  0  0  0  0  0  0  0  0  0  0  0
    6.9240   -2.4710   23.2820 C   0  0  0  0  0  0  0  0  0  0  0  0
    7.7250   -3.1840   22.2390 C   0  0  0  0  0  0  0  0  0  0  0  0
  1  2  1  0
  2  3  2  0
  2  4  1  0
  4  5  1  0
  5  6  1  0
  6  7  1  0
  7  8  1  0
  8  9  2  0
  8 10  1  0
 10 11  1  0
 12 10  1  6
 12 13  1  0
 13 14  2  0
 14 15  1  0
 15 16  2  0
 16 17  1  0
 13 18  1  0
 17 18  2  0
 12 19  1  0
 19 20  2  0
 20 21  1  0
 21 22  2  0
 22 23  1  0
 22 24  1  0
 19 25  1  0
 24 25  2  0
  7 26  1  0
  4 27  1  0
 26 27  1  0
M  END
