piperidine-amides-24688-covalent
     RDKit          3D

 24 25  0  0  0  0  0  0  0  0999 V2000
    7.0440   -3.3310   19.3580 C   0  0  0  0  0  0  0  0  0  0  0  0
    6.3790   -4.2020   20.3430 C   0  0  0  0  0  0  0  0  0  0  0  0
    5.3800   -4.8670   19.9880 O   0  0  0  0  0  0  0  0  0  0  0  0
    6.8680   -4.3370   21.6610 N   0  0  0  0  0  0  0  0  0  0  0  0
    6.5820   -5.5800   22.3710 C   0  0  0  0  0  0  0  0  0  0  0  0
    6.2810   -5.2450   23.8520 C   0  0  0  0  0  0  0  0  0  0  0  0
    6.0940   -3.7540   23.8890 C   0  0  0  0  0  0  0  0  0  0  0  0
    5.5160   -3.1840   25.1320 C   0  0  0  0  0  0  0  0  0  0  0  0
    4.8710   -2.1330   24.9630 O   0  0  0  0  0  0  0  0  0  0  0  0
    5.5930   -3.7060   26.4580 N   0  0  0  0  0  0  0  0  0  0  0  0
    4.5920   -3.1290   27.3200 C   0  0  0  0  0  0  0  0  0  0  0  0
    4.5010   -3.9580   28.5700 C   0  0  0  0  0  0  0  0  0  0  0  0
    5.6670   -4.0440   29.1780 C   0  0  0  0  0  0  0  0  0  0  0  0
    6.1270   -2.7740   29.4770 C   0  0  0  0  0  0  0  0  0  0  0  0
    7.3110   -2.2930   28.9600 O   0  0  0  0  0  0  0  0  0  0  0  0
    5.3300   -1.9590   30.3400 N   0  0  0  0  0  0  0  0  0  0  0  0
    3.9730   -1.7080   30.2580 C   0  0  0  0  0  0  0  0  0  0  0  0
    3.5210   -2.4480   31.3270 C   0  0  0  0  0  0  0  0  0  0  0  0
    2.3140   -2.0560   32.1540 C   0  0  0  0  0  0  0  0  0  0  0  0
    3.7190   -1.9030   32.6990 C   0  0  0  0  0  0  0  0  0  0  0  0
    6.4600   -4.7450   28.3760 C   0  0  0  0  0  0  0  0  0  0  0  0
    5.8710   -5.0100   27.0400 C   0  0  0  0  0  0  0  0  0  0  0  0
    7.3980   -3.1040   23.5620 C   0  0  0  0  0  0  0  0  0  0  0  0
    7.6460   -3.2790   22.2360 C   0  0  0  0  0  0  0  0  0  0  0  0
  1  2  1  0
  2  3  2  0
  2  4  1  0
  4  5  1  0
  5  6  1  0
  6  7  1  0
  7  8  1  0
  8  9  2  0
  8 10  1  0
 10 11  1  0
 11 12  1  0
 12 13  1  0
 13 14  1  0
 14 15  2  0
 14 16  1  0
 16 17  1  0
 17 18  1  0
 18 19  1  0
 18 20  1  0
 13 21  1  0
 10 22  1  0
 21 22  1  0
  7 23  1  0
  4 24  1  0
 23 24  1  0
M  END
