piperidine-amides-6665-covalent
     RDKit          3D

 24 25  0  0  0  0  0  0  0  0999 V2000
    7.1990   -3.2710   19.2310 C   0  0  0  0  0  0  0  0  0  0  0  0
    6.3970   -4.0170   20.2050 C   0  0  0  0  0  0  0  0  0  0  0  0
    5.3040   -4.5260   19.8830 O   0  0  0  0  0  0  0  0  0  0  0  0
    6.9020   -4.2090   21.4900 N   0  0  0  0  0  0  0  0  0  0  0  0
    6.6050   -5.4300   22.1850 C   0  0  0  0  0  0  0  0  0  0  0  0
    5.8100   -5.0040   23.4170 C   0  0  0  0  0  0  0  0  0  0  0  0
    6.5600   -3.8450   24.0460 C   0  0  0  0  0  0  0  0  0  0  0  0
    5.8350   -3.3450   25.2180 C   0  0  0  0  0  0  0  0  0  0  0  0
    4.7050   -2.8320   25.0670 O   0  0  0  0  0  0  0  0  0  0  0  0
    6.4490   -3.4510   26.4730 N   0  0  0  0  0  0  0  0  0  0  0  0
    5.8960   -4.3030   27.4760 C   0  0  2  0  0  0  0  0  0  0  0  0
    6.7050   -4.1770   28.7140 C   0  0  0  0  0  0  0  0  0  0  0  0
    5.8540   -5.7390   27.1330 C   0  0  2  0  0  0  0  0  0  0  0  0
    5.5300   -6.0090   25.9470 O   0  0  0  0  0  0  0  0  0  0  0  0
    5.0990   -6.3900   28.0710 C   0  0  0  0  0  0  0  0  0  0  0  0
    3.8570   -6.9160   27.9030 C   0  0  0  0  0  0  0  0  0  0  0  0
    3.1780   -7.5340   28.9310 C   0  0  0  0  0  0  0  0  0  0  0  0
    3.4640   -7.8400   30.4200 C   0  0  0  0  0  0  0  0  0  0  0  0
    2.7400   -8.4500   31.3950 F   0  0  0  0  0  0  0  0  0  0  0  0
    4.8620   -7.2050   30.4140 C   0  0  0  0  0  0  0  0  0  0  0  0
    5.4280   -7.3280   31.6990 F   0  0  0  0  0  0  0  0  0  0  0  0
    5.6020   -6.5350   29.3040 C   0  0  0  0  0  0  0  0  0  0  0  0
    6.7570   -2.7040   23.0830 C   0  0  0  0  0  0  0  0  0  0  0  0
    7.6750   -3.1930   22.1580 C   0  0  0  0  0  0  0  0  0  0  0  0
  1  2  1  0
  2  3  2  0
  2  4  1  0
  4  5  1  0
  5  6  1  0
  6  7  1  0
  7  8  1  0
  8  9  2  0
  8 10  1  0
 10 11  1  0
 11 12  1  1
 11 13  1  0
 13 14  1  6
 13 15  1  0
 15 16  2  0
 16 17  1  0
 17 18  2  0
 18 19  1  0
 18 20  1  0
 20 21  1  0
 15 22  1  0
 20 22  2  0
  7 23  1  0
  4 24  1  0
 23 24  1  0
M  END
