piperidine-amides-2265-covalent
     RDKit          3D

 28 31  0  0  0  0  0  0  0  0999 V2000
    7.0970   -3.3090   19.2620 C   0  0  0  0  0  0  0  0  0  0  0  0
    6.3540   -4.1050   20.2720 C   0  0  0  0  0  0  0  0  0  0  0  0
    5.2930   -4.6080   19.9070 O   0  0  0  0  0  0  0  0  0  0  0  0
    6.8830   -4.3010   21.5540 N   0  0  0  0  0  0  0  0  0  0  0  0
    6.5480   -5.4370   22.3640 C   0  0  0  0  0  0  0  0  0  0  0  0
    5.7280   -4.9610   23.5320 C   0  0  0  0  0  0  0  0  0  0  0  0
    6.3960   -3.7650   24.2280 C   0  0  0  0  0  0  0  0  0  0  0  0
    5.4650   -3.3130   25.2860 C   0  0  0  0  0  0  0  0  0  0  0  0
    4.6250   -2.4490   25.0160 O   0  0  0  0  0  0  0  0  0  0  0  0
    5.4910   -3.8370   26.5960 N   0  0  0  0  0  0  0  0  0  0  0  0
    6.4210   -3.2670   27.5240 C   0  0  0  0  0  0  0  0  0  0  0  0
    5.7200   -2.2890   28.4390 C   0  0  0  0  0  0  0  0  0  0  0  0
    6.6780   -1.4640   29.2010 N   0  0  0  0  0  0  0  0  0  0  0  0
    5.9410   -0.5270   30.0610 C   0  0  0  0  0  0  0  0  0  0  0  0
    4.6010   -0.6410   29.9640 C   0  0  0  0  0  0  0  0  0  0  0  0
    4.1390   -1.8490   28.8550 S   0  0  0  0  0  0  0  0  0  0  0  0
    3.7310    0.1270   30.6720 C   0  0  0  0  0  0  0  0  0  0  0  0
    4.2690    1.4630   31.1520 C   0  0  1  0  0  0  0  0  0  0  0  0
    3.6730    1.3230   32.5220 C   0  0  0  0  0  0  0  0  0  0  0  0
    2.1840    1.5530   32.3510 C   0  0  0  0  0  0  0  0  0  0  0  0
    1.3840    1.4630   33.6120 C   0  0  0  0  0  0  0  0  0  0  0  0
    2.0780    1.1650   34.8940 C   0  0  0  0  0  0  0  0  0  0  0  0
    3.5690    0.9530   34.9460 C   0  0  0  0  0  0  0  0  0  0  0  0
    4.3660    1.0410   33.6970 C   0  0  0  0  0  0  0  0  0  0  0  0
    5.7870    1.6080   31.1300 C   0  0  0  0  0  0  0  0  0  0  0  0
    6.4620    0.4140   30.9210 C   0  0  0  0  0  0  0  0  0  0  0  0
    6.7330   -2.6920   23.2380 C   0  0  0  0  0  0  0  0  0  0  0  0
    7.7050   -3.2800   22.2130 C   0  0  0  0  0  0  0  0  0  0  0  0
  1  2  1  0
  2  3  2  0
  2  4  1  0
  4  5  1  0
  5  6  1  0
  6  7  1  0
  7  8  1  0
  8  9  2  0
  8 10  1  0
 10 11  1  0
 11 12  1  0
 12 13  2  0
 13 14  1  0
 14 15  2  0
 12 16  1  0
 15 16  1  0
 15 17  1  0
 17 18  1  0
 18 19  1  1
 19 20  2  0
 20 21  1  0
 21 22  2  0
 22 23  1  0
 19 24  1  0
 23 24  2  0
 18 25  1  0
 14 26  1  0
 25 26  1  0
  7 27  1  0
  4 28  1  0
 27 28  1  0
M  END
