piperidine-amides-8756-covalent
     RDKit          3D

 23 25  0  0  0  0  0  0  0  0999 V2000
    7.1160   -3.2880   19.2760 C   0  0  0  0  0  0  0  0  0  0  0  0
    6.3940   -4.0850   20.2680 C   0  0  0  0  0  0  0  0  0  0  0  0
    5.3310   -4.6240   19.9180 O   0  0  0  0  0  0  0  0  0  0  0  0
    6.9330   -4.2750   21.5690 N   0  0  0  0  0  0  0  0  0  0  0  0
    7.6920   -3.2240   22.1760 C   0  0  0  0  0  0  0  0  0  0  0  0
    6.9080   -2.6680   23.3230 C   0  0  0  0  0  0  0  0  0  0  0  0
    6.6300   -3.8080   24.2790 C   0  0  0  0  0  0  0  0  0  0  0  0
    5.8270   -3.2720   25.4230 C   0  0  0  0  0  0  0  0  0  0  0  0
    4.6880   -2.9020   25.1460 O   0  0  0  0  0  0  0  0  0  0  0  0
    6.4050   -3.2140   26.6910 N   0  0  0  0  0  0  0  0  0  0  0  0
    6.5130   -4.3550   27.5420 C   0  0  0  0  0  0  0  0  0  0  0  0
    5.3000   -4.8950   27.9940 C   0  0  0  0  0  0  0  0  0  0  0  0
    5.2170   -5.6340   29.1420 C   0  0  0  0  0  0  0  0  0  0  0  0
    6.0570   -6.7490   29.2380 C   0  0  0  0  0  0  0  0  0  0  0  0
    5.9730   -7.5830   30.4910 C   0  0  0  0  0  0  0  0  0  0  0  0
    5.0040   -7.2180   31.6190 C   0  0  0  0  0  0  0  0  0  0  0  0
    4.1650   -6.0380   31.4450 C   0  0  0  0  0  0  0  0  0  0  0  0
    4.3400   -5.2990   30.1630 C   0  0  0  0  0  0  0  0  0  0  0  0
    3.4070   -4.0650   30.0890 C   0  0  0  0  0  0  0  0  0  0  0  0
    4.0770   -4.8890   27.1530 C   0  0  0  0  0  0  0  0  0  0  0  0
    4.7190   -5.9300   26.9920 C   0  0  0  0  0  0  0  0  0  0  0  0
    5.8660   -4.9190   23.6280 C   0  0  0  0  0  0  0  0  0  0  0  0
    6.5450   -5.3990   22.3720 C   0  0  0  0  0  0  0  0  0  0  0  0
  1  2  1  0
  2  3  2  0
  2  4  1  0
  4  5  1  0
  5  6  1  0
  6  7  1  0
  7  8  1  0
  8  9  2  0
  8 10  1  0
 10 11  1  0
 12 11  1  0
 12 13  1  0
 13 14  2  0
 14 15  1  0
 15 16  2  0
 16 17  1  0
 13 18  1  0
 17 18  2  0
 18 19  1  0
 12 20  1  0
 12 21  1  0
 20 21  1  0
  7 22  1  0
  4 23  1  0
 22 23  1  0
M  END
