piperidine-amides-27096-covalent
     RDKit          3D

 26 28  0  0  0  0  0  0  0  0999 V2000
    7.0160   -3.3500   19.4040 C   0  0  0  0  0  0  0  0  0  0  0  0
    6.3840   -4.2090   20.4110 C   0  0  0  0  0  0  0  0  0  0  0  0
    5.4120   -4.9010   19.9990 O   0  0  0  0  0  0  0  0  0  0  0  0
    6.8630   -4.2780   21.7360 N   0  0  0  0  0  0  0  0  0  0  0  0
    7.6910   -3.2380   22.3280 C   0  0  0  0  0  0  0  0  0  0  0  0
    7.1640   -2.9410   23.7090 C   0  0  0  0  0  0  0  0  0  0  0  0
    5.7810   -3.5160   23.8370 C   0  0  0  0  0  0  0  0  0  0  0  0
    4.9940   -2.9940   25.0050 C   0  0  0  0  0  0  0  0  0  0  0  0
    3.8460   -2.5910   24.7480 O   0  0  0  0  0  0  0  0  0  0  0  0
    5.3730   -2.9060   26.3590 N   0  0  0  0  0  0  0  0  0  0  0  0
    5.7640   -4.0990   27.0680 C   0  0  0  0  0  0  0  0  0  0  0  0
    4.9980   -4.4460   28.3420 C   0  0  0  0  0  0  0  0  0  0  0  0
    5.3240   -5.5560   29.0870 C   0  0  0  0  0  0  0  0  0  0  0  0
    6.3620   -6.3440   28.6520 C   0  0  0  0  0  0  0  0  0  0  0  0
    7.0630   -6.0470   27.5030 C   0  0  0  0  0  0  0  0  0  0  0  0
    6.7960   -4.9690   26.7090 C   0  0  0  0  0  0  0  0  0  0  0  0
    5.6000   -1.6410   27.0440 C   0  0  0  0  0  0  0  0  0  0  0  0
    5.7490   -0.4090   26.1630 C   0  0  0  0  0  0  0  0  0  0  0  0
    6.0170    0.8570   26.9730 C   0  0  0  0  0  0  0  0  0  0  0  0
    6.1310    0.9010   28.4610 C   0  0  0  0  0  0  0  0  0  0  0  0
    6.3900    2.1990   28.9310 O   0  0  0  0  0  0  0  0  0  0  0  0
    5.1820    2.6620   29.4490 C   0  0  0  0  0  0  0  0  0  0  0  0
    5.9710   -0.3210   29.2070 C   0  0  0  0  0  0  0  0  0  0  0  0
    5.6930   -1.6160   28.4670 C   0  0  0  0  0  0  0  0  0  0  0  0
    5.8530   -5.0180   23.7960 C   0  0  0  0  0  0  0  0  0  0  0  0
    6.5710   -5.4800   22.5090 C   0  0  0  0  0  0  0  0  0  0  0  0
  1  2  1  0
  2  3  2  0
  2  4  1  0
  4  5  1  0
  5  6  1  0
  6  7  1  0
  7  8  1  0
  8  9  2  0
  8 10  1  0
 10 11  1  0
 11 12  2  0
 12 13  1  0
 13 14  2  0
 14 15  1  0
 11 16  1  0
 15 16  2  0
 10 17  1  0
 17 18  2  0
 18 19  1  0
 19 20  2  0
 20 21  1  0
 21 22  1  0
 20 23  1  0
 17 24  1  0
 23 24  2  0
  7 25  1  0
  4 26  1  0
 25 26  1  0
M  END
