piperidine-amides-23845-covalent
     RDKit          3D

 24 25  0  0  0  0  0  0  0  0999 V2000
    7.0710   -3.3170   19.2530 C   0  0  0  0  0  0  0  0  0  0  0  0
    6.3620   -4.1100   20.2730 C   0  0  0  0  0  0  0  0  0  0  0  0
    5.2890   -4.6500   19.9150 O   0  0  0  0  0  0  0  0  0  0  0  0
    6.8840   -4.3130   21.5720 N   0  0  0  0  0  0  0  0  0  0  0  0
    7.6150   -3.2380   22.1670 C   0  0  0  0  0  0  0  0  0  0  0  0
    7.4230   -3.0540   23.6020 C   0  0  0  0  0  0  0  0  0  0  0  0
    6.4590   -3.9650   24.2510 C   0  0  0  0  0  0  0  0  0  0  0  0
    5.7350   -3.2670   25.3690 C   0  0  0  0  0  0  0  0  0  0  0  0
    4.6350   -2.7370   25.1220 O   0  0  0  0  0  0  0  0  0  0  0  0
    6.2430   -3.2040   26.6920 N   0  0  0  0  0  0  0  0  0  0  0  0
    5.8720   -4.1260   27.7140 C   0  0  0  0  0  0  0  0  0  0  0  0
    6.6600   -5.2950   28.1000 C   0  0  0  0  0  0  0  0  0  0  0  0
    5.8080   -6.1820   29.0220 C   0  0  0  0  0  0  0  0  0  0  0  0
    4.5820   -6.2520   28.4010 O   0  0  0  0  0  0  0  0  0  0  0  0
    4.2010   -7.5860   28.3480 C   0  0  0  0  0  0  0  0  0  0  0  0
    6.3690   -1.8550   27.2970 C   0  0  0  0  0  0  0  0  0  0  0  0
    5.7310   -0.7930   26.4090 C   0  0  0  0  0  0  0  0  0  0  0  0
    5.8930    0.5520   27.1490 C   0  0  0  0  0  0  0  0  0  0  0  0
    6.5480    0.7770   28.4710 C   0  0  0  0  0  0  0  0  0  0  0  0
    6.6220    2.1740   29.0630 C   0  0  0  0  0  0  0  0  0  0  0  0
    7.1240   -0.3870   29.1920 C   0  0  0  0  0  0  0  0  0  0  0  0
    7.0090   -1.7080   28.5520 C   0  0  0  0  0  0  0  0  0  0  0  0
    5.5150   -4.6340   23.3080 C   0  0  0  0  0  0  0  0  0  0  0  0
    6.3080   -5.3150   22.4110 C   0  0  0  0  0  0  0  0  0  0  0  0
  1  2  1  0
  2  3  2  0
  2  4  1  0
  4  5  1  0
  5  6  1  0
  6  7  1  0
  7  8  1  0
  8  9  2  0
  8 10  1  0
 10 11  1  0
 11 12  1  0
 12 13  1  0
 13 14  1  0
 14 15  1  0
 10 16  1  0
 16 17  2  0
 17 18  1  0
 18 19  2  0
 19 20  1  0
 19 21  1  0
 16 22  1  0
 21 22  2  0
  7 23  1  0
  4 24  1  0
 23 24  1  0
M  END
