piperidine-amides-12088-covalent
     RDKit          3D

 25 27  0  0  0  0  0  0  0  0999 V2000
    7.1630   -3.3110   19.3240 C   0  0  0  0  0  0  0  0  0  0  0  0
    6.4900   -4.1930   20.2780 C   0  0  0  0  0  0  0  0  0  0  0  0
    5.4430   -4.7710   19.9760 O   0  0  0  0  0  0  0  0  0  0  0  0
    7.0770   -4.4330   21.5680 N   0  0  0  0  0  0  0  0  0  0  0  0
    6.5950   -5.5150   22.3800 C   0  0  0  0  0  0  0  0  0  0  0  0
    5.8820   -4.9780   23.5940 C   0  0  0  0  0  0  0  0  0  0  0  0
    6.7690   -3.9470   24.2900 C   0  0  0  0  0  0  0  0  0  0  0  0
    6.0400   -3.3450   25.4450 C   0  0  0  0  0  0  0  0  0  0  0  0
    4.7980   -3.2050   25.4400 O   0  0  0  0  0  0  0  0  0  0  0  0
    6.7810   -2.9230   26.5820 N   0  0  0  0  0  0  0  0  0  0  0  0
    7.1440   -1.5200   26.7130 C   0  0  1  0  0  0  0  0  0  0  0  0
    5.9770   -0.6470   25.9930 C   0  0  0  0  0  0  0  0  0  0  0  0
    4.9130    0.2880   26.5440 C   0  0  0  0  0  0  0  0  0  0  0  0
    4.5170    1.2510   25.6100 C   0  0  0  0  0  0  0  0  0  0  0  0
    3.6910   -0.6580   26.3730 C   0  0  0  0  0  0  0  0  0  0  0  0
    4.9660    0.5990   27.7980 O   0  0  0  0  0  0  0  0  0  0  0  0
    5.9720   -0.1230   27.8640 C   0  0  0  0  0  0  0  0  0  0  0  0
    5.7200    0.5840   28.9910 C   0  0  0  0  0  0  0  0  0  0  0  0
    6.5130    0.3610   29.7890 C   0  0  0  0  0  0  0  0  0  0  0  0
    6.5860    0.8830   31.0430 F   0  0  0  0  0  0  0  0  0  0  0  0
    7.2070   -0.4880   29.0620 C   0  0  0  0  0  0  0  0  0  0  0  0
    6.1990   -0.3560   27.7250 C   0  0  0  0  0  0  0  0  0  0  0  0
    7.1510   -0.9680   27.9420 C   0  0  0  0  0  0  0  0  0  0  0  0
    7.1720   -2.8420   23.3530 C   0  0  0  0  0  0  0  0  0  0  0  0
    7.8530   -3.3940   22.1450 C   0  0  0  0  0  0  0  0  0  0  0  0
  1  2  1  0
  2  3  2  0
  2  4  1  0
  4  5  1  0
  5  6  1  0
  6  7  1  0
  7  8  1  0
  8  9  2  0
  8 10  1  0
 11 10  1  1
 11 12  1  0
 12 13  1  0
 13 14  1  0
 13 15  1  0
 13 16  1  0
 16 17  1  0
 17 18  2  0
 18 19  1  0
 19 20  1  0
 19 21  2  0
 21 22  1  0
 11 23  1  0
 17 23  1  0
 22 23  2  0
  7 24  1  0
  4 25  1  0
 24 25  1  0
M  END
