piperidine-amides-12319-covalent
     RDKit          3D

 24 25  0  0  0  0  0  0  0  0999 V2000
    7.1100   -3.3300   19.3090 C   0  0  0  0  0  0  0  0  0  0  0  0
    6.4000   -4.1670   20.2680 C   0  0  0  0  0  0  0  0  0  0  0  0
    5.3560   -4.7340   19.9480 O   0  0  0  0  0  0  0  0  0  0  0  0
    6.9560   -4.3750   21.5720 N   0  0  0  0  0  0  0  0  0  0  0  0
    7.7170   -3.3100   22.1760 C   0  0  0  0  0  0  0  0  0  0  0  0
    6.9420   -2.7000   23.3020 C   0  0  0  0  0  0  0  0  0  0  0  0
    6.5530   -3.8210   24.2440 C   0  0  0  0  0  0  0  0  0  0  0  0
    5.7790   -3.2570   25.3780 C   0  0  0  0  0  0  0  0  0  0  0  0
    4.5470   -3.0790   25.3320 O   0  0  0  0  0  0  0  0  0  0  0  0
    6.4880   -2.9330   26.5500 N   0  0  0  0  0  0  0  0  0  0  0  0
    6.3940   -1.6150   27.1300 C   0  0  0  0  0  0  0  0  0  0  0  0
    6.9670   -1.5110   28.4480 C   0  0  0  0  0  0  0  0  0  0  0  0
    6.9470   -0.3270   29.1300 C   0  0  0  0  0  0  0  0  0  0  0  0
    6.4180    0.9690   28.7640 C   0  0  0  0  0  0  0  0  0  0  0  0
    5.8470    2.0970   28.2040 C   0  0  0  0  0  0  0  0  0  0  0  0
    6.5820    3.0450   27.8770 O   0  0  0  0  0  0  0  0  0  0  0  0
    4.4960    2.2650   27.9820 O   0  0  0  0  0  0  0  0  0  0  0  0
    3.6070    1.3040   28.3260 C   0  0  0  0  0  0  0  0  0  0  0  0
    5.8650    0.7660   27.4180 N   0  0  0  0  0  0  0  0  0  0  0  0
    5.8640   -0.4700   26.6580 C   0  0  0  0  0  0  0  0  0  0  0  0
    5.3020   -0.5110   25.4000 O   0  0  0  0  0  0  0  0  0  0  0  0
    5.9830    0.0880   24.3210 C   0  0  0  0  0  0  0  0  0  0  0  0
    5.8990   -5.0060   23.6340 C   0  0  0  0  0  0  0  0  0  0  0  0
    6.4530   -5.4410   22.3550 C   0  0  0  0  0  0  0  0  0  0  0  0
  1  2  1  0
  2  3  2  0
  2  4  1  0
  4  5  1  0
  5  6  1  0
  6  7  1  0
  7  8  1  0
  8  9  2  0
  8 10  1  0
 10 11  1  0
 11 12  2  0
 12 13  1  0
 13 14  2  0
 14 15  1  0
 15 16  2  0
 15 17  1  0
 17 18  1  0
 14 19  1  0
 11 20  1  0
 19 20  2  0
 20 21  1  0
 21 22  1  0
  7 23  1  0
  4 24  1  0
 23 24  1  0
M  END
