piperidine-amides-15023-covalent
     RDKit          3D

 20 21  0  0  0  0  0  0  0  0999 V2000
    7.1230   -3.3000   19.2770 C   0  0  0  0  0  0  0  0  0  0  0  0
    6.3650   -4.0500   20.2760 C   0  0  0  0  0  0  0  0  0  0  0  0
    5.3040   -4.5910   19.9110 O   0  0  0  0  0  0  0  0  0  0  0  0
    6.8560   -4.2010   21.6040 N   0  0  0  0  0  0  0  0  0  0  0  0
    6.5910   -5.4310   22.3030 C   0  0  0  0  0  0  0  0  0  0  0  0
    6.1000   -5.1520   23.7020 C   0  0  0  0  0  0  0  0  0  0  0  0
    6.0230   -3.6500   23.8580 C   0  0  0  0  0  0  0  0  0  0  0  0
    5.6010   -3.2640   25.2480 C   0  0  0  0  0  0  0  0  0  0  0  0
    4.3920   -3.1160   25.4120 O   0  0  0  0  0  0  0  0  0  0  0  0
    6.5580   -3.0880   26.2410 N   0  0  0  0  0  0  0  0  0  0  0  0
    6.2260   -3.2690   27.6150 C   0  0  0  0  0  0  0  0  0  0  0  0
    5.8130   -4.5560   27.9940 C   0  0  0  0  0  0  0  0  0  0  0  0
    6.5190   -5.4780   28.7390 C   0  0  0  0  0  0  0  0  0  0  0  0
    6.0410   -6.7460   29.0790 C   0  0  0  0  0  0  0  0  0  0  0  0
    4.6690   -7.1070   28.5960 C   0  0  0  0  0  0  0  0  0  0  0  0
    3.8990   -6.0620   27.7700 C   0  0  0  0  0  0  0  0  0  0  0  0
    2.6430   -6.4350   27.3500 F   0  0  0  0  0  0  0  0  0  0  0  0
    4.4590   -4.8230   27.4800 N   0  0  0  0  0  0  0  0  0  0  0  0
    7.2800   -2.9290   23.5500 C   0  0  0  0  0  0  0  0  0  0  0  0
    7.6780   -3.1560   22.1300 C   0  0  0  0  0  0  0  0  0  0  0  0
  1  2  1  0
  2  3  2  0
  2  4  1  0
  4  5  1  0
  5  6  1  0
  6  7  1  0
  7  8  1  0
  8  9  2  0
  8 10  1  0
 10 11  1  0
 11 12  1  0
 12 13  2  0
 13 14  1  0
 14 15  2  0
 15 16  1  0
 16 17  1  0
 12 18  1  0
 16 18  2  0
  7 19  1  0
  4 20  1  0
 19 20  1  0
M  END
