piperidine-amides-13222-covalent
     RDKit          3D

 19 19  0  0  0  0  0  0  0  0999 V2000
    7.1360   -3.3180   19.2350 C   0  0  0  0  0  0  0  0  0  0  0  0
    6.3780   -4.0500   20.2700 C   0  0  0  0  0  0  0  0  0  0  0  0
    5.3000   -4.5600   19.9000 O   0  0  0  0  0  0  0  0  0  0  0  0
    6.8930   -4.2010   21.5710 N   0  0  0  0  0  0  0  0  0  0  0  0
    7.6880   -3.1650   22.1480 C   0  0  0  0  0  0  0  0  0  0  0  0
    7.2840   -2.8590   23.5110 C   0  0  0  0  0  0  0  0  0  0  0  0
    6.0420   -3.5540   23.8980 C   0  0  0  0  0  0  0  0  0  0  0  0
    5.6640   -3.2040   25.2850 C   0  0  0  0  0  0  0  0  0  0  0  0
    4.4560   -3.2380   25.5860 O   0  0  0  0  0  0  0  0  0  0  0  0
    6.6240   -2.8240   26.2350 N   0  0  0  0  0  0  0  0  0  0  0  0
    6.3680   -2.8710   27.6890 C   0  0  0  0  0  0  0  0  0  0  0  0
    6.2890   -4.2520   28.2260 C   0  0  0  0  0  0  0  0  0  0  0  0
    7.1360   -4.6430   29.0610 O   0  0  0  0  0  0  0  0  0  0  0  0
    5.3140   -5.1610   27.8900 O   0  0  0  0  0  0  0  0  0  0  0  0
    5.5370   -6.5310   28.0840 C   0  0  0  0  0  0  0  0  0  0  0  0
    6.3320   -6.7630   29.1780 C   0  0  0  0  0  0  0  0  0  0  0  0
    4.2560   -7.3590   28.2690 C   0  0  0  0  0  0  0  0  0  0  0  0
    6.0300   -5.0200   23.5870 C   0  0  0  0  0  0  0  0  0  0  0  0
    6.5490   -5.3400   22.3590 C   0  0  0  0  0  0  0  0  0  0  0  0
  1  2  1  0
  2  3  2  0
  2  4  1  0
  4  5  1  0
  5  6  1  0
  6  7  1  0
  7  8  1  0
  8  9  2  0
  8 10  1  0
 10 11  1  0
 11 12  1  0
 12 13  2  0
 12 14  1  0
 14 15  1  0
 15 16  1  0
 15 17  1  0
  7 18  1  0
  4 19  1  0
 18 19  1  0
M  END
