piperidine-amides-2213-covalent
     RDKit          3D

 30 32  0  0  0  0  0  0  0  0999 V2000
    7.0800   -3.2750   19.1840 C   0  0  0  0  0  0  0  0  0  0  0  0
    6.2830   -3.9930   20.2140 C   0  0  0  0  0  0  0  0  0  0  0  0
    5.2340   -4.5150   19.8560 O   0  0  0  0  0  0  0  0  0  0  0  0
    6.7550   -4.0910   21.5180 N   0  0  0  0  0  0  0  0  0  0  0  0
    7.6360   -3.0940   22.0560 C   0  0  0  0  0  0  0  0  0  0  0  0
    7.3450   -2.9600   23.5070 C   0  0  0  0  0  0  0  0  0  0  0  0
    5.9750   -3.5690   23.7840 C   0  0  0  0  0  0  0  0  0  0  0  0
    5.5570   -3.1840   25.1550 C   0  0  0  0  0  0  0  0  0  0  0  0
    4.4410   -2.6720   25.3170 O   0  0  0  0  0  0  0  0  0  0  0  0
    6.3890   -3.3870   26.2760 N   0  0  0  0  0  0  0  0  0  0  0  0
    6.6840   -4.7460   26.6360 C   0  0  1  0  0  0  0  0  0  0  0  0
    8.1260   -4.7990   27.0210 C   0  0  0  0  0  0  0  0  0  0  0  0
    9.0790   -4.1490   26.3070 C   0  0  0  0  0  0  0  0  0  0  0  0
   10.2360   -4.7300   26.4960 C   0  0  0  0  0  0  0  0  0  0  0  0
   11.2710   -4.2180   25.8830 C   0  0  0  0  0  0  0  0  0  0  0  0
   11.3690   -3.0700   24.9830 C   0  0  0  0  0  0  0  0  0  0  0  0
   10.0200   -2.4480   24.8040 C   0  0  0  0  0  0  0  0  0  0  0  0
    8.6980   -2.9270   25.4620 C   0  0  0  0  0  0  0  0  0  0  0  0
    6.0010   -5.2450   27.8540 C   0  0  0  0  0  0  0  0  0  0  0  0
    6.2730   -4.3920   28.9330 O   0  0  0  0  0  0  0  0  0  0  0  0
    5.1580   -6.3380   28.1560 N   0  0  0  0  0  0  0  0  0  0  0  0
    5.5090   -7.2000   29.2300 C   0  0  0  0  0  0  0  0  0  0  0  0
    4.3380   -6.8460   27.1150 C   0  0  0  0  0  0  0  0  0  0  0  0
    3.1690   -7.6950   27.4740 C   0  0  0  0  0  0  0  0  0  0  0  0
    2.2470   -8.2890   26.4420 C   0  0  0  0  0  0  0  0  0  0  0  0
    2.4830   -8.0440   25.1170 C   0  0  0  0  0  0  0  0  0  0  0  0
    3.6470   -7.1900   24.6990 C   0  0  0  0  0  0  0  0  0  0  0  0
    4.5720   -6.5960   25.7780 C   0  0  0  0  0  0  0  0  0  0  0  0
    6.0850   -5.0690   23.5490 C   0  0  0  0  0  0  0  0  0  0  0  0
    6.5740   -5.3050   22.2930 C   0  0  0  0  0  0  0  0  0  0  0  0
  1  2  1  0
  2  3  2  0
  2  4  1  0
  4  5  1  0
  5  6  1  0
  6  7  1  0
  7  8  1  0
  8  9  2  0
  8 10  1  0
 10 11  1  0
 11 12  1  1
 12 13  1  0
 13 14  2  0
 14 15  1  0
 15 16  2  0
 16 17  1  0
 13 18  1  0
 17 18  2  0
 11 19  1  0
 19 20  2  0
 19 21  1  0
 21 22  1  0
 21 23  1  0
 23 24  2  0
 24 25  1  0
 25 26  2  0
 26 27  1  0
 23 28  1  0
 27 28  2  0
  7 29  1  0
  4 30  1  0
 29 30  1  0
M  END
