piperidine-amides-563-covalent
     RDKit          3D

 26 28  0  0  0  0  0  0  0  0999 V2000
    7.0540   -3.3690   19.2870 C   0  0  0  0  0  0  0  0  0  0  0  0
    6.3680   -4.1050   20.3230 C   0  0  0  0  0  0  0  0  0  0  0  0
    5.3560   -4.7860   19.9720 O   0  0  0  0  0  0  0  0  0  0  0  0
    6.7890   -4.1500   21.6670 N   0  0  0  0  0  0  0  0  0  0  0  0
    7.6360   -3.0320   22.1750 C   0  0  0  0  0  0  0  0  0  0  0  0
    7.6370   -3.2910   23.7330 C   0  0  0  0  0  0  0  0  0  0  0  0
    6.2470   -3.7760   24.0480 C   0  0  0  0  0  0  0  0  0  0  0  0
    5.8810   -3.6900   25.5910 C   0  0  0  0  0  0  0  0  0  0  0  0
    5.3900   -4.7390   25.9520 O   0  0  0  0  0  0  0  0  0  0  0  0
    6.1530   -2.5500   26.0650 N   0  0  0  0  0  0  0  0  0  0  0  0
    6.2850   -1.3340   26.6570 C   0  0  1  0  0  0  0  0  0  0  0  0
    5.4330   -0.2630   26.8550 C   0  0  0  0  0  0  0  0  0  0  0  0
    5.9530    0.8800   27.5010 C   0  0  0  0  0  0  0  0  0  0  0  0
    6.2160    0.6060   28.9100 C   0  0  2  0  0  0  0  0  0  0  0  0
    4.9690    0.7060   29.5320 O   0  0  0  0  0  0  0  0  0  0  0  0
    6.9610    1.9560   29.0450 C   0  0  0  0  0  0  0  0  0  0  0  0
    6.8740    2.5900   27.7930 C   0  0  0  0  0  0  0  0  0  0  0  0
    7.3690    3.8630   27.3010 C   0  0  0  0  0  0  0  0  0  0  0  0
    8.0730    4.3870   28.6130 C   0  0  0  0  0  0  0  0  0  0  0  0
    8.6500    5.5950   28.4810 F   0  0  0  0  0  0  0  0  0  0  0  0
    8.1610    3.6710   29.9980 C   0  0  0  0  0  0  0  0  0  0  0  0
    7.5960    2.4920   30.1310 C   0  0  0  0  0  0  0  0  0  0  0  0
    6.8530   -0.5930   29.0280 C   0  0  0  0  0  0  0  0  0  0  0  0
    6.4030   -1.5760   28.1990 C   0  0  0  0  0  0  0  0  0  0  0  0
    5.8490   -5.0980   23.4750 C   0  0  0  0  0  0  0  0  0  0  0  0
    6.7070   -5.3640   22.4180 C   0  0  0  0  0  0  0  0  0  0  0  0
  1  2  1  0
  2  3  2  0
  2  4  1  0
  4  5  1  0
  5  6  1  0
  6  7  1  0
  7  8  1  0
  8  9  2  0
  8 10  1  0
 11 10  1  6
 11 12  1  0
 12 13  1  0
 13 14  1  0
 14 15  1  1
 14 16  1  0
 16 17  2  0
 17 18  1  0
 18 19  2  0
 19 20  1  0
 19 21  1  0
 16 22  1  0
 21 22  2  0
 14 23  1  0
 11 24  1  0
 23 24  1  0
  7 25  1  0
  4 26  1  0
 25 26  1  0
M  END
