piperidine-amides-25285-covalent
     RDKit          3D

 25 27  0  0  0  0  0  0  0  0999 V2000
    7.0710   -3.3320   19.2940 C   0  0  0  0  0  0  0  0  0  0  0  0
    6.3180   -4.1130   20.3050 C   0  0  0  0  0  0  0  0  0  0  0  0
    5.2950   -4.6760   19.9250 O   0  0  0  0  0  0  0  0  0  0  0  0
    6.8040   -4.2230   21.6090 N   0  0  0  0  0  0  0  0  0  0  0  0
    6.5130   -5.3560   22.4490 C   0  0  0  0  0  0  0  0  0  0  0  0
    5.7350   -4.8930   23.6540 C   0  0  0  0  0  0  0  0  0  0  0  0
    6.4890   -3.7300   24.3020 C   0  0  0  0  0  0  0  0  0  0  0  0
    5.7150   -3.2840   25.4960 C   0  0  0  0  0  0  0  0  0  0  0  0
    4.5050   -3.0580   25.3520 O   0  0  0  0  0  0  0  0  0  0  0  0
    6.3000   -3.1060   26.7880 N   0  0  0  0  0  0  0  0  0  0  0  0
    6.3140   -4.2640   27.6790 C   0  0  0  0  0  0  0  0  0  0  0  0
    6.0100   -5.5400   26.9300 C   0  0  0  0  0  0  0  0  0  0  0  0
    6.2520   -1.8110   27.3030 C   0  0  0  0  0  0  0  0  0  0  0  0
    6.0510   -0.6820   26.5110 C   0  0  0  0  0  0  0  0  0  0  0  0
    5.9420    0.7490   26.7230 C   0  0  0  0  0  0  0  0  0  0  0  0
    6.1050    0.7200   28.0690 N   0  0  0  0  0  0  0  0  0  0  0  0
    6.3190   -0.3880   28.9750 C   0  0  0  0  0  0  0  0  0  0  0  0
    6.4660   -0.1550   30.4450 C   0  0  0  0  0  0  0  0  0  0  0  0
    5.1860    0.1290   31.1210 C   0  0  0  0  0  0  0  0  0  0  0  0
    5.6940    0.3010   32.5100 C   0  0  0  0  0  0  0  0  0  0  0  0
    7.1110    0.1190   32.5310 O   0  0  0  0  0  0  0  0  0  0  0  0
    7.5660   -0.1620   31.2470 C   0  0  0  0  0  0  0  0  0  0  0  0
    6.3900   -1.6450   28.5720 N   0  0  0  0  0  0  0  0  0  0  0  0
    6.8900   -2.6580   23.3780 C   0  0  0  0  0  0  0  0  0  0  0  0
    7.6120   -3.1580   22.1800 C   0  0  0  0  0  0  0  0  0  0  0  0
  1  2  1  0
  2  3  2  0
  2  4  1  0
  4  5  1  0
  5  6  1  0
  6  7  1  0
  7  8  1  0
  8  9  2  0
  8 10  1  0
 10 11  1  0
 11 12  1  0
 10 13  1  0
 13 14  2  0
 14 15  1  0
 15 16  2  0
 16 17  1  0
 17 18  1  0
 18 19  1  0
 19 20  2  0
 20 21  1  0
 18 22  2  0
 21 22  1  0
 13 23  1  0
 17 23  2  0
  7 24  1  0
  4 25  1  0
 24 25  1  0
M  END
