piperidine-amides-27984-covalent
     RDKit          3D

 26 28  0  0  0  0  0  0  0  0999 V2000
    7.0650   -3.3610   19.2860 C   0  0  0  0  0  0  0  0  0  0  0  0
    6.3480   -4.1270   20.3250 C   0  0  0  0  0  0  0  0  0  0  0  0
    5.3300   -4.7450   19.9540 O   0  0  0  0  0  0  0  0  0  0  0  0
    6.8400   -4.1830   21.6390 N   0  0  0  0  0  0  0  0  0  0  0  0
    6.5420   -5.2910   22.4840 C   0  0  0  0  0  0  0  0  0  0  0  0
    6.1660   -4.9240   23.8640 C   0  0  0  0  0  0  0  0  0  0  0  0
    6.6650   -3.6100   24.3630 C   0  0  0  0  0  0  0  0  0  0  0  0
    5.8140   -3.1240   25.4920 C   0  0  0  0  0  0  0  0  0  0  0  0
    4.6160   -2.8980   25.2320 O   0  0  0  0  0  0  0  0  0  0  0  0
    6.3020   -2.9350   26.8170 N   0  0  0  0  0  0  0  0  0  0  0  0
    6.2390   -4.0500   27.7920 C   0  0  0  0  0  0  0  0  0  0  0  0
    6.1740   -1.6340   27.4030 C   0  0  0  0  0  0  0  0  0  0  0  0
    5.8520   -0.4980   26.5590 C   0  0  0  0  0  0  0  0  0  0  0  0
    5.6290    0.6810   27.2270 C   0  0  0  0  0  0  0  0  0  0  0  0
    5.4520    0.2300   28.5470 N   0  0  0  0  0  0  0  0  0  0  0  0
    4.1090    0.2620   29.0980 C   0  0  0  0  0  0  0  0  0  0  0  0
    4.0660   -0.0030   30.4370 C   0  0  0  0  0  0  0  0  0  0  0  0
    4.1850    0.8540   31.5080 C   0  0  0  0  0  0  0  0  0  0  0  0
    4.1300    0.5130   32.8520 C   0  0  0  0  0  0  0  0  0  0  0  0
    3.9420   -0.7830   33.1510 N   0  0  0  0  0  0  0  0  0  0  0  0
    3.8160   -1.6780   32.1750 C   0  0  0  0  0  0  0  0  0  0  0  0
    3.8560   -1.4490   30.7320 C   0  0  0  0  0  0  0  0  0  0  0  0
    6.5000   -0.4420   29.2410 C   0  0  0  0  0  0  0  0  0  0  0  0
    7.2420   -1.4030   28.3570 C   0  0  0  0  0  0  0  0  0  0  0  0
    6.8840   -2.5810   23.3480 C   0  0  0  0  0  0  0  0  0  0  0  0
    7.6630   -3.1260   22.1820 C   0  0  0  0  0  0  0  0  0  0  0  0
  1  2  1  0
  2  3  2  0
  2  4  1  0
  4  5  1  0
  5  6  1  0
  6  7  1  0
  7  8  1  0
  8  9  2  0
  8 10  1  0
 10 11  1  0
 10 12  1  0
 12 13  1  0
 13 14  1  0
 14 15  1  0
 15 16  1  0
 16 17  1  0
 17 18  2  0
 18 19  1  0
 19 20  2  0
 20 21  1  0
 17 22  1  0
 21 22  2  0
 15 23  1  0
 12 24  1  0
 23 24  1  0
  7 25  1  0
  4 26  1  0
 25 26  1  0
M  END
