piperidine-amides-35200-covalent
     RDKit          3D

 34 37  0  0  0  0  0  0  0  0999 V2000
    7.2000   -3.1990   19.1390 C   0  0  0  0  0  0  0  0  0  0  0  0
    6.3620   -3.8270   20.1860 C   0  0  0  0  0  0  0  0  0  0  0  0
    5.3170   -4.3770   19.8240 O   0  0  0  0  0  0  0  0  0  0  0  0
    6.7770   -3.8250   21.5180 N   0  0  0  0  0  0  0  0  0  0  0  0
    6.3230   -4.8360   22.3990 C   0  0  0  0  0  0  0  0  0  0  0  0
    5.7980   -4.1740   23.6440 C   0  0  0  0  0  0  0  0  0  0  0  0
    6.8880   -3.3190   24.3160 C   0  0  0  0  0  0  0  0  0  0  0  0
    6.1930   -2.5490   25.3800 C   0  0  0  0  0  0  0  0  0  0  0  0
    4.9560   -2.6790   25.4710 O   0  0  0  0  0  0  0  0  0  0  0  0
    6.8680   -1.6500   26.2820 N   0  0  0  0  0  0  0  0  0  0  0  0
    6.2430   -0.3590   26.3670 C   0  0  0  0  0  0  0  0  0  0  0  0
    5.9130    0.0890   24.9510 C   0  0  0  0  0  0  0  0  0  0  0  0
    5.0460   -0.4550   23.9720 C   0  0  0  0  0  0  0  0  0  0  0  0
    4.8210    0.0310   22.7060 C   0  0  0  0  0  0  0  0  0  0  0  0
    5.4740    1.1330   22.3310 C   0  0  0  0  0  0  0  0  0  0  0  0
    5.7580    2.1730   21.2610 C   0  0  0  0  0  0  0  0  0  0  0  0
    6.8440    1.7580   20.5810 N   0  0  0  0  0  0  0  0  0  0  0  0
    6.3970    1.9370   23.0180 C   0  0  0  0  0  0  0  0  0  0  0  0
    6.6110    1.3750   24.3810 C   0  0  0  0  0  0  0  0  0  0  0  0
    7.2380   -2.2570   27.5540 C   0  0  0  0  0  0  0  0  0  0  0  0
    6.4390   -3.4420   27.4020 C   0  0  0  0  0  0  0  0  0  0  0  0
    4.9220   -3.3930   27.5190 C   0  0  0  0  0  0  0  0  0  0  0  0
    4.1230   -4.6070   27.2850 C   0  0  0  0  0  0  0  0  0  0  0  0
    4.9660   -5.7860   26.9490 C   0  0  0  0  0  0  0  0  0  0  0  0
    4.4280   -6.9730   26.6470 C   0  0  0  0  0  0  0  0  0  0  0  0
    5.2470   -7.2920   25.6200 N   0  0  0  0  0  0  0  0  0  0  0  0
    6.4330   -6.4250   25.6260 C   0  0  0  0  0  0  0  0  0  0  0  0
    6.9790   -6.5750   24.2280 C   0  0  0  0  0  0  0  0  0  0  0  0
    5.8810   -7.2040   23.4470 C   0  0  0  0  0  0  0  0  0  0  0  0
    4.7510   -7.1700   24.2350 C   0  0  0  0  0  0  0  0  0  0  0  0
    6.2950   -5.8120   26.8820 C   0  0  0  0  0  0  0  0  0  0  0  0
    7.0700   -4.5940   27.1190 C   0  0  0  0  0  0  0  0  0  0  0  0
    7.5750   -2.3940   23.3730 C   0  0  0  0  0  0  0  0  0  0  0  0
    7.8030   -2.9000   21.9650 C   0  0  0  0  0  0  0  0  0  0  0  0
  1  2  1  0
  2  3  2  0
  2  4  1  0
  4  5  1  0
  5  6  1  0
  6  7  1  0
  7  8  1  0
  8  9  2  0
  8 10  1  0
 10 11  1  0
 11 12  1  0
 12 13  2  0
 13 14  1  0
 14 15  2  0
 15 16  1  0
 16 17  3  0
 15 18  1  0
 12 19  1  0
 18 19  2  0
 10 20  1  0
 20 21  1  0
 21 22  2  0
 22 23  1  0
 23 24  2  0
 24 25  1  0
 25 26  1  0
 26 27  1  0
 27 28  1  0
 28 29  1  0
 26 30  1  0
 29 30  1  0
 24 31  1  0
 21 32  1  0
 31 32  2  0
  7 33  1  0
  4 34  1  0
 33 34  1  0
M  END
