piperidine-amides-3708-covalent
     RDKit          3D

 23 24  0  0  0  0  0  0  0  0999 V2000
    7.0550   -3.3270   19.3380 C   0  0  0  0  0  0  0  0  0  0  0  0
    6.3860   -4.1640   20.3520 C   0  0  0  0  0  0  0  0  0  0  0  0
    5.3630   -4.7840   19.9660 O   0  0  0  0  0  0  0  0  0  0  0  0
    6.8820   -4.3210   21.6780 N   0  0  0  0  0  0  0  0  0  0  0  0
    7.6560   -3.2750   22.2720 C   0  0  0  0  0  0  0  0  0  0  0  0
    7.2540   -2.9900   23.6330 C   0  0  0  0  0  0  0  0  0  0  0  0
    6.0740   -3.7820   24.0120 C   0  0  0  0  0  0  0  0  0  0  0  0
    5.5000   -3.4360   25.3610 C   0  0  0  0  0  0  0  0  0  0  0  0
    4.2700   -3.5360   25.5100 O   0  0  0  0  0  0  0  0  0  0  0  0
    6.2620   -2.9910   26.4630 N   0  0  0  0  0  0  0  0  0  0  0  0
    6.4700   -1.6520   26.8830 C   0  0  1  0  0  0  0  0  0  0  0  0
    5.3830   -0.6830   26.8160 C   0  0  0  0  0  0  0  0  0  0  0  0
    5.7990    0.6830   27.4410 C   0  0  0  0  0  0  0  0  0  0  0  0
    6.3720    0.7680   28.7250 C   0  0  0  0  0  0  0  0  0  0  0  0
    6.1450   -0.6790   29.1590 C   0  0  1  0  0  0  0  0  0  0  0  0
    4.7960   -1.0240   29.1600 O   0  0  0  0  0  0  0  0  0  0  0  0
    4.4090   -1.4290   30.4350 C   0  0  0  0  0  0  0  0  0  0  0  0
    4.2480   -0.2240   31.3680 C   0  0  0  0  0  0  0  0  0  0  0  0
    5.1870   -0.0580   32.5400 C   0  0  0  0  0  0  0  0  0  0  0  0
    2.8020   -0.0700   31.8020 C   0  0  0  0  0  0  0  0  0  0  0  0
    6.9700   -1.5840   28.2980 C   0  0  0  0  0  0  0  0  0  0  0  0
    6.3470   -5.2420   23.8100 C   0  0  0  0  0  0  0  0  0  0  0  0
    6.5950   -5.5230   22.4510 C   0  0  0  0  0  0  0  0  0  0  0  0
  1  2  1  0
  2  3  2  0
  2  4  1  0
  4  5  1  0
  5  6  1  0
  6  7  1  0
  7  8  1  0
  8  9  2  0
  8 10  1  0
 11 10  1  1
 11 12  1  0
 12 13  1  0
 13 14  1  0
 14 15  1  0
 15 16  1  6
 16 17  1  0
 17 18  1  0
 18 19  1  0
 18 20  1  0
 11 21  1  0
 15 21  1  0
  7 22  1  0
  4 23  1  0
 22 23  1  0
M  END
