piperidine-amides-4490-covalent
     RDKit          3D

 25 26  0  0  0  0  0  0  0  0999 V2000
    7.1320   -3.2570   19.1810 C   0  0  0  0  0  0  0  0  0  0  0  0
    6.3780   -4.0100   20.2100 C   0  0  0  0  0  0  0  0  0  0  0  0
    5.2890   -4.5050   19.8640 O   0  0  0  0  0  0  0  0  0  0  0  0
    6.9060   -4.1960   21.4940 N   0  0  0  0  0  0  0  0  0  0  0  0
    6.4360   -5.2620   22.3050 C   0  0  0  0  0  0  0  0  0  0  0  0
    5.8160   -4.8210   23.5570 C   0  0  0  0  0  0  0  0  0  0  0  0
    6.4340   -3.6250   24.2060 C   0  0  0  0  0  0  0  0  0  0  0  0
    5.4910   -3.0390   25.2000 C   0  0  0  0  0  0  0  0  0  0  0  0
    4.3230   -2.8320   24.8310 O   0  0  0  0  0  0  0  0  0  0  0  0
    5.8800   -2.7150   26.5230 N   0  0  0  0  0  0  0  0  0  0  0  0
    6.2380   -3.7460   27.5210 C   0  0  1  0  0  0  0  0  0  0  0  0
    5.2040   -4.8270   27.6050 C   0  0  0  0  0  0  0  0  0  0  0  0
    3.9110   -4.5750   28.2530 C   0  0  0  0  0  0  0  0  0  0  0  0
    3.6550   -5.1790   29.3490 O   0  0  0  0  0  0  0  0  0  0  0  0
    2.9760   -3.7230   27.7120 O   0  0  0  0  0  0  0  0  0  0  0  0
    2.2130   -4.0510   26.5470 C   0  0  0  0  0  0  0  0  0  0  0  0
    0.8980   -4.2560   26.9060 C   0  0  0  0  0  0  0  0  0  0  0  0
    7.5250   -4.2440   27.2400 C   0  0  0  0  0  0  0  0  0  0  0  0
    8.1870   -4.9090   28.1960 C   0  0  0  0  0  0  0  0  0  0  0  0
    9.1030   -5.7830   27.7250 C   0  0  0  0  0  0  0  0  0  0  0  0
    9.6720   -5.4640   26.5050 O   0  0  0  0  0  0  0  0  0  0  0  0
    8.7360   -5.2710   25.5460 C   0  0  0  0  0  0  0  0  0  0  0  0
    7.4430   -5.2890   26.2140 C   0  0  0  0  0  0  0  0  0  0  0  0
    6.8630   -2.5660   23.2500 C   0  0  0  0  0  0  0  0  0  0  0  0
    7.6790   -3.1610   22.1440 C   0  0  0  0  0  0  0  0  0  0  0  0
  1  2  1  0
  2  3  2  0
  2  4  1  0
  4  5  1  0
  5  6  1  0
  6  7  1  0
  7  8  1  0
  8  9  2  0
  8 10  1  0
 10 11  1  0
 11 12  1  6
 12 13  1  0
 13 14  2  0
 13 15  1  0
 15 16  1  0
 16 17  1  0
 11 18  1  0
 18 19  1  0
 19 20  1  0
 20 21  1  0
 21 22  1  0
 18 23  1  0
 22 23  1  0
  7 24  1  0
  4 25  1  0
 24 25  1  0
M  END
