piperidine-amides-4209-covalent
     RDKit          3D

 27 28  0  0  0  0  0  0  0  0999 V2000
    7.1300   -3.2670   19.1700 C   0  0  0  0  0  0  0  0  0  0  0  0
    6.3780   -3.9750   20.2200 C   0  0  0  0  0  0  0  0  0  0  0  0
    5.2970   -4.5130   19.8770 O   0  0  0  0  0  0  0  0  0  0  0  0
    6.8780   -4.0900   21.5380 N   0  0  0  0  0  0  0  0  0  0  0  0
    7.7180   -3.0680   22.0520 C   0  0  0  0  0  0  0  0  0  0  0  0
    7.3280   -2.6780   23.3810 C   0  0  0  0  0  0  0  0  0  0  0  0
    6.0330   -3.2510   23.7850 C   0  0  0  0  0  0  0  0  0  0  0  0
    5.7720   -2.9730   25.2390 C   0  0  0  0  0  0  0  0  0  0  0  0
    4.6090   -3.0640   25.6730 O   0  0  0  0  0  0  0  0  0  0  0  0
    6.8140   -2.5910   26.1170 N   0  0  0  0  0  0  0  0  0  0  0  0
    7.2090   -3.2000   27.3270 C   0  0  0  0  0  0  0  0  0  0  0  0
    7.8630   -4.4890   27.3410 C   0  0  1  0  0  0  0  0  0  0  0  0
    6.7150   -5.4880   27.6370 C   0  0  0  0  0  0  0  0  0  0  0  0
    6.8240   -6.1290   28.8430 C   0  0  0  0  0  0  0  0  0  0  0  0
    5.7050   -7.1420   29.2350 C   0  0  0  0  0  0  0  0  0  0  0  0
    4.5340   -7.4110   28.3110 C   0  0  0  0  0  0  0  0  0  0  0  0
    4.5550   -6.6260   27.0070 C   0  0  0  0  0  0  0  0  0  0  0  0
    3.4710   -6.7570   25.9540 C   0  0  0  0  0  0  0  0  0  0  0  0
    3.0530   -5.5090   25.5570 F   0  0  0  0  0  0  0  0  0  0  0  0
    2.4040   -7.4070   26.5830 F   0  0  0  0  0  0  0  0  0  0  0  0
    3.8990   -7.5010   24.8730 F   0  0  0  0  0  0  0  0  0  0  0  0
    5.6790   -5.6840   26.7450 C   0  0  0  0  0  0  0  0  0  0  0  0
    8.6070   -4.9850   26.3460 N   0  0  0  0  0  0  0  0  0  0  0  0
    9.3830   -6.0530   26.7900 C   0  0  0  0  0  0  0  0  0  0  0  0
    8.2300   -4.9870   25.0790 C   0  0  0  0  0  0  0  0  0  0  0  0
    5.7860   -4.7040   23.4280 C   0  0  0  0  0  0  0  0  0  0  0  0
    6.5480   -5.2060   22.3710 C   0  0  0  0  0  0  0  0  0  0  0  0
  1  2  1  0
  2  3  2  0
  2  4  1  0
  4  5  1  0
  5  6  1  0
  6  7  1  0
  7  8  1  0
  8  9  2  0
  8 10  1  0
 10 11  1  0
 12 11  1  6
 12 13  1  0
 13 14  2  0
 14 15  1  0
 15 16  2  0
 16 17  1  0
 17 18  1  0
 18 19  1  0
 18 20  1  0
 18 21  1  0
 13 22  1  0
 17 22  2  0
 12 23  1  0
 23 24  1  0
 23 25  1  0
  7 26  1  0
  4 27  1  0
 26 27  1  0
M  END
