piperidine-amides-27875-covalent
     RDKit          3D

 26 28  0  0  0  0  0  0  0  0999 V2000
    7.1010   -3.2950   19.1920 C   0  0  0  0  0  0  0  0  0  0  0  0
    6.3690   -4.0490   20.2340 C   0  0  0  0  0  0  0  0  0  0  0  0
    5.2950   -4.5780   19.8940 O   0  0  0  0  0  0  0  0  0  0  0  0
    6.8960   -4.2000   21.5210 N   0  0  0  0  0  0  0  0  0  0  0  0
    6.4950   -5.3210   22.2980 C   0  0  0  0  0  0  0  0  0  0  0  0
    5.9380   -4.9440   23.5960 C   0  0  0  0  0  0  0  0  0  0  0  0
    6.6490   -3.8250   24.2780 C   0  0  0  0  0  0  0  0  0  0  0  0
    5.8670   -3.3300   25.4490 C   0  0  0  0  0  0  0  0  0  0  0  0
    4.7210   -2.8850   25.2420 O   0  0  0  0  0  0  0  0  0  0  0  0
    6.3880   -3.3740   26.7680 N   0  0  0  0  0  0  0  0  0  0  0  0
    7.4960   -4.3040   27.0190 C   0  0  2  0  0  0  0  0  0  0  0  0
    7.4630   -5.3540   26.0100 C   0  0  0  0  0  0  0  0  0  0  0  0
    6.3420   -5.8080   25.6700 O   0  0  0  0  0  0  0  0  0  0  0  0
    8.5780   -5.8660   25.4360 O   0  0  0  0  0  0  0  0  0  0  0  0
    9.6950   -6.0800   26.2370 C   0  0  0  0  0  0  0  0  0  0  0  0
    7.1100   -4.8200   28.2690 C   0  0  0  0  0  0  0  0  0  0  0  0
    5.7970   -4.5030   28.5200 C   0  0  0  0  0  0  0  0  0  0  0  0
    5.5540   -3.2730   27.9630 C   0  0  1  0  0  0  0  0  0  0  0  0
    5.9610   -2.2600   28.7820 C   0  0  0  0  0  0  0  0  0  0  0  0
    7.2840   -1.9870   28.9570 C   0  0  0  0  0  0  0  0  0  0  0  0
    7.7620   -0.9740   29.7900 C   0  0  0  0  0  0  0  0  0  0  0  0
    6.8810   -0.0700   30.5780 C   0  0  0  0  0  0  0  0  0  0  0  0
    5.4130   -0.3670   30.3820 C   0  0  0  0  0  0  0  0  0  0  0  0
    5.0390   -1.4850   29.4620 C   0  0  0  0  0  0  0  0  0  0  0  0
    7.0680   -2.7260   23.3930 C   0  0  0  0  0  0  0  0  0  0  0  0
    7.7510   -3.1990   22.1340 C   0  0  0  0  0  0  0  0  0  0  0  0
  1  2  1  0
  2  3  2  0
  2  4  1  0
  4  5  1  0
  5  6  1  0
  6  7  1  0
  7  8  1  0
  8  9  2  0
  8 10  1  0
 10 11  1  0
 11 12  1  6
 12 13  2  0
 12 14  1  0
 14 15  1  0
 11 16  1  0
 16 17  1  0
 10 18  1  0
 17 18  1  0
 18 19  1  1
 19 20  2  0
 20 21  1  0
 21 22  2  0
 22 23  1  0
 19 24  1  0
 23 24  2  0
  7 25  1  0
  4 26  1  0
 25 26  1  0
M  END
