piperidine-amides-6652-covalent
     RDKit          3D

 24 25  0  0  0  0  0  0  0  0999 V2000
    7.0580   -3.3340   19.3070 C   0  0  0  0  0  0  0  0  0  0  0  0
    6.3820   -4.1700   20.3110 C   0  0  0  0  0  0  0  0  0  0  0  0
    5.3890   -4.8610   19.9850 O   0  0  0  0  0  0  0  0  0  0  0  0
    6.8660   -4.2330   21.6250 N   0  0  0  0  0  0  0  0  0  0  0  0
    7.7090   -3.1530   22.0970 C   0  0  0  0  0  0  0  0  0  0  0  0
    7.6300   -3.1500   23.6190 C   0  0  0  0  0  0  0  0  0  0  0  0
    6.2210   -3.5740   23.9400 C   0  0  0  0  0  0  0  0  0  0  0  0
    5.9290   -3.2930   25.3560 C   0  0  0  0  0  0  0  0  0  0  0  0
    4.7780   -3.5220   25.7810 O   0  0  0  0  0  0  0  0  0  0  0  0
    6.9680   -2.7830   26.1760 N   0  0  0  0  0  0  0  0  0  0  0  0
    6.7700   -1.6430   27.0390 C   0  0  0  0  0  0  0  0  0  0  0  0
    7.4270   -1.6690   28.3960 C   0  0  0  0  0  0  0  0  0  0  0  0
    7.2840   -0.6300   29.2670 C   0  0  0  0  0  0  0  0  0  0  0  0
    6.5290    0.4580   28.8900 C   0  0  0  0  0  0  0  0  0  0  0  0
    5.9030    0.5300   27.6430 C   0  0  0  0  0  0  0  0  0  0  0  0
    5.9520   -0.4370   26.6670 C   0  0  0  0  0  0  0  0  0  0  0  0
    5.3360   -0.3520   25.4780 O   0  0  0  0  0  0  0  0  0  0  0  0
    4.0240   -0.1430   25.2230 C   0  0  0  0  0  0  0  0  0  0  0  0
    3.1370   -1.2290   25.7860 C   0  0  0  0  0  0  0  0  0  0  0  0
    2.1270   -0.6290   26.6860 N   0  0  0  0  0  0  0  0  0  0  0  0
    2.7310   -0.5720   28.0240 C   0  0  0  0  0  0  0  0  0  0  0  0
    0.8800   -1.3570   26.6920 C   0  0  0  0  0  0  0  0  0  0  0  0
    6.0950   -5.0420   23.6610 C   0  0  0  0  0  0  0  0  0  0  0  0
    6.5670   -5.3850   22.4220 C   0  0  0  0  0  0  0  0  0  0  0  0
  1  2  1  0
  2  3  2  0
  2  4  1  0
  4  5  1  0
  5  6  1  0
  6  7  1  0
  7  8  1  0
  8  9  2  0
  8 10  1  0
 10 11  1  0
 11 12  2  0
 12 13  1  0
 13 14  2  0
 14 15  1  0
 11 16  1  0
 15 16  2  0
 16 17  1  0
 17 18  1  0
 18 19  1  0
 19 20  1  0
 20 21  1  0
 20 22  1  0
  7 23  1  0
  4 24  1  0
 23 24  1  0
M  END
