piperidine-amides-33600-covalent
     RDKit          3D

 25 26  0  0  0  0  0  0  0  0999 V2000
    7.0990   -3.3440   19.3190 C   0  0  0  0  0  0  0  0  0  0  0  0
    6.4260   -4.1860   20.3210 C   0  0  0  0  0  0  0  0  0  0  0  0
    5.3660   -4.7620   19.9620 O   0  0  0  0  0  0  0  0  0  0  0  0
    6.9940   -4.3790   21.6070 N   0  0  0  0  0  0  0  0  0  0  0  0
    6.4920   -5.4210   22.4240 C   0  0  0  0  0  0  0  0  0  0  0  0
    6.1110   -4.9910   23.7710 C   0  0  0  0  0  0  0  0  0  0  0  0
    6.6100   -3.6640   24.2210 C   0  0  0  0  0  0  0  0  0  0  0  0
    5.7550   -3.1270   25.3310 C   0  0  0  0  0  0  0  0  0  0  0  0
    4.6130   -2.7140   25.0550 O   0  0  0  0  0  0  0  0  0  0  0  0
    6.1910   -3.0880   26.6750 N   0  0  0  0  0  0  0  0  0  0  0  0
    6.2870   -4.2360   27.5210 C   0  0  0  0  0  0  0  0  0  0  0  0
    5.2310   -4.6630   28.3980 C   0  0  0  0  0  0  0  0  0  0  0  0
    4.3070   -5.6180   27.6170 C   0  0  0  0  0  0  0  0  0  0  0  0
    3.0540   -5.7570   28.1790 C   0  0  0  0  0  0  0  0  0  0  0  0
    2.7030   -7.0380   28.5510 O   0  0  0  0  0  0  0  0  0  0  0  0
    3.7270   -7.7210   29.1900 C   0  0  0  0  0  0  0  0  0  0  0  0
    6.3290   -1.8430   27.4160 C   0  0  0  0  0  0  0  0  0  0  0  0
    5.7950   -0.6350   26.6740 C   0  0  0  0  0  0  0  0  0  0  0  0
    5.8360    0.7030   27.2830 C   0  0  0  0  0  0  0  0  0  0  0  0
    6.4480    0.6830   28.6580 C   0  0  0  0  0  0  0  0  0  0  0  0
    6.6240    2.2830   29.7000 Br  0  0  0  0  0  0  0  0  0  0  0  0
    6.9330   -0.7070   29.1970 C   0  0  0  0  0  0  0  0  0  0  0  0
    6.9050   -2.0510   28.6160 N   0  0  0  0  0  0  0  0  0  0  0  0
    6.7340   -2.6950   23.0930 C   0  0  0  0  0  0  0  0  0  0  0  0
    7.6840   -3.3030   22.2810 C   0  0  0  0  0  0  0  0  0  0  0  0
  1  2  1  0
  2  3  2  0
  2  4  1  0
  4  5  1  0
  5  6  1  0
  6  7  1  0
  7  8  1  0
  8  9  2  0
  8 10  1  0
 10 11  1  0
 11 12  1  0
 12 13  1  0
 13 14  1  0
 14 15  1  0
 15 16  1  0
 10 17  1  0
 17 18  2  0
 18 19  1  0
 19 20  2  0
 20 21  1  0
 20 22  1  0
 17 23  1  0
 22 23  2  0
  7 24  1  0
  4 25  1  0
 24 25  1  0
M  END
