piperidine-amides-32760-covalent
     RDKit          3D

 29 32  0  0  0  0  0  0  0  0999 V2000
    7.1080   -3.3450   19.3340 C   0  0  0  0  0  0  0  0  0  0  0  0
    6.3730   -4.1900   20.3100 C   0  0  0  0  0  0  0  0  0  0  0  0
    5.3250   -4.7490   19.9510 O   0  0  0  0  0  0  0  0  0  0  0  0
    6.9090   -4.3860   21.5990 N   0  0  0  0  0  0  0  0  0  0  0  0
    6.5490   -5.5470   22.3650 C   0  0  0  0  0  0  0  0  0  0  0  0
    5.7240   -5.0200   23.5420 C   0  0  0  0  0  0  0  0  0  0  0  0
    6.5760   -4.0200   24.2470 C   0  0  0  0  0  0  0  0  0  0  0  0
    5.8790   -3.3230   25.3670 C   0  0  0  0  0  0  0  0  0  0  0  0
    5.3820   -2.2320   25.0780 O   0  0  0  0  0  0  0  0  0  0  0  0
    5.7320   -3.8610   26.6600 N   0  0  0  0  0  0  0  0  0  0  0  0
    4.5200   -3.7550   27.3850 C   0  0  0  0  0  0  0  0  0  0  0  0
    4.3240   -4.1220   28.7050 C   0  0  0  0  0  0  0  0  0  0  0  0
    5.1020   -5.3050   28.9550 N   0  0  0  0  0  0  0  0  0  0  0  0
    5.0400   -5.9780   30.1610 C   0  0  0  0  0  0  0  0  0  0  0  0
    5.8900   -7.0330   30.3780 C   0  0  0  0  0  0  0  0  0  0  0  0
    5.8500   -7.7650   31.6750 C   0  0  0  0  0  0  0  0  0  0  0  0
    4.8800   -7.3790   32.7940 C   0  0  0  0  0  0  0  0  0  0  0  0
    4.8240   -8.0140   33.9770 N   0  0  0  0  0  0  0  0  0  0  0  0
    4.1340   -9.1750   33.9810 C   0  0  0  0  0  0  0  0  0  0  0  0
    3.4640   -9.5730   35.1260 C   0  0  0  0  0  0  0  0  0  0  0  0
    2.8030   -8.4540   35.5760 O   0  0  0  0  0  0  0  0  0  0  0  0
    3.5470   -7.3080   35.8490 C   0  0  0  0  0  0  0  0  0  0  0  0
    4.9470   -7.4480   35.2990 C   0  0  0  0  0  0  0  0  0  0  0  0
    3.9970   -6.2500   32.4950 C   0  0  0  0  0  0  0  0  0  0  0  0
    4.0910   -5.5410   31.1350 C   0  0  0  0  0  0  0  0  0  0  0  0
    6.4670   -5.1150   28.5700 C   0  0  0  0  0  0  0  0  0  0  0  0
    6.3330   -3.7190   27.9520 C   0  0  0  0  0  0  0  0  0  0  0  0
    7.0400   -2.8830   23.3670 C   0  0  0  0  0  0  0  0  0  0  0  0
    7.6220   -3.3000   22.1880 C   0  0  0  0  0  0  0  0  0  0  0  0
  1  2  1  0
  2  3  2  0
  2  4  1  0
  4  5  1  0
  5  6  1  0
  6  7  1  0
  7  8  1  0
  8  9  2  0
  8 10  1  0
 10 11  1  0
 11 12  1  0
 12 13  1  0
 13 14  1  0
 14 15  2  0
 15 16  1  0
 16 17  2  0
 17 18  1  0
 18 19  1  0
 19 20  1  0
 20 21  1  0
 21 22  1  0
 18 23  1  0
 22 23  1  0
 17 24  1  0
 14 25  1  0
 24 25  2  0
 13 26  1  0
 10 27  1  0
 26 27  1  0
  7 28  1  0
  4 29  1  0
 28 29  1  0
M  END
