piperidine-amides-30025-covalent
     RDKit          3D

 27 29  0  0  0  0  0  0  0  0999 V2000
    7.0250   -3.3670   19.3530 C   0  0  0  0  0  0  0  0  0  0  0  0
    6.3670   -4.2270   20.3290 C   0  0  0  0  0  0  0  0  0  0  0  0
    5.3700   -4.8620   19.9870 O   0  0  0  0  0  0  0  0  0  0  0  0
    6.8970   -4.3880   21.6620 N   0  0  0  0  0  0  0  0  0  0  0  0
    7.6590   -3.3380   22.2910 C   0  0  0  0  0  0  0  0  0  0  0  0
    6.8950   -2.7460   23.4470 C   0  0  0  0  0  0  0  0  0  0  0  0
    6.3690   -3.8640   24.3390 C   0  0  0  0  0  0  0  0  0  0  0  0
    5.3270   -3.3200   25.2800 C   0  0  0  0  0  0  0  0  0  0  0  0
    4.4130   -2.6010   24.8530 O   0  0  0  0  0  0  0  0  0  0  0  0
    5.3310   -3.5980   26.6830 N   0  0  0  0  0  0  0  0  0  0  0  0
    4.1080   -3.9140   27.3500 C   0  0  0  0  0  0  0  0  0  0  0  0
    4.4060   -4.2320   28.8100 C   0  0  0  0  0  0  0  0  0  0  0  0
    5.5760   -4.7040   29.2600 N   0  0  0  0  0  0  0  0  0  0  0  0
    5.4400   -6.0000   29.6220 C   0  0  0  0  0  0  0  0  0  0  0  0
    5.0290   -6.4590   30.8880 C   0  0  0  0  0  0  0  0  0  0  0  0
    5.6530   -7.5070   31.5940 C   0  0  0  0  0  0  0  0  0  0  0  0
    5.2540   -8.0160   32.9270 C   0  0  0  0  0  0  0  0  0  0  0  0
    5.8740   -9.0410   33.6060 C   0  0  0  0  0  0  0  0  0  0  0  0
    4.1970   -7.4150   33.5000 C   0  0  0  0  0  0  0  0  0  0  0  0
    3.5430   -6.3960   32.8770 C   0  0  0  0  0  0  0  0  0  0  0  0
    3.9450   -5.9100   31.5770 C   0  0  0  0  0  0  0  0  0  0  0  0
    3.4140   -4.9960   30.9430 O   0  0  0  0  0  0  0  0  0  0  0  0
    3.0280   -3.9860   31.7720 C   0  0  0  0  0  0  0  0  0  0  0  0
    6.6030   -4.3300   28.3610 C   0  0  0  0  0  0  0  0  0  0  0  0
    6.4610   -3.2020   27.3820 C   0  0  0  0  0  0  0  0  0  0  0  0
    5.7300   -5.0170   23.6150 C   0  0  0  0  0  0  0  0  0  0  0  0
    6.5400   -5.5280   22.4390 C   0  0  0  0  0  0  0  0  0  0  0  0
  1  2  1  0
  2  3  2  0
  2  4  1  0
  4  5  1  0
  5  6  1  0
  6  7  1  0
  7  8  1  0
  8  9  2  0
  8 10  1  0
 10 11  1  0
 11 12  1  0
 12 13  1  0
 13 14  1  0
 14 15  1  0
 15 16  2  0
 16 17  1  0
 17 18  1  0
 17 19  2  0
 19 20  1  0
 15 21  1  0
 20 21  2  0
 21 22  1  0
 22 23  1  0
 13 24  1  0
 10 25  1  0
 24 25  1  0
  7 26  1  0
  4 27  1  0
 26 27  1  0
M  END
