piperidine-amides-21758-covalent
     RDKit          3D

 23 25  0  0  0  0  0  0  0  0999 V2000
    7.0720   -3.3470   19.3270 C   0  0  0  0  0  0  0  0  0  0  0  0
    6.4110   -4.1960   20.3190 C   0  0  0  0  0  0  0  0  0  0  0  0
    5.3390   -4.7460   19.9540 O   0  0  0  0  0  0  0  0  0  0  0  0
    6.9890   -4.4280   21.5710 N   0  0  0  0  0  0  0  0  0  0  0  0
    6.6540   -5.5940   22.3460 C   0  0  0  0  0  0  0  0  0  0  0  0
    5.8550   -5.1400   23.5380 C   0  0  0  0  0  0  0  0  0  0  0  0
    6.5100   -4.0110   24.2910 C   0  0  0  0  0  0  0  0  0  0  0  0
    5.5760   -3.5680   25.3560 C   0  0  0  0  0  0  0  0  0  0  0  0
    4.6940   -2.7330   25.0720 O   0  0  0  0  0  0  0  0  0  0  0  0
    5.6540   -4.0630   26.6600 N   0  0  0  0  0  0  0  0  0  0  0  0
    4.8010   -3.5850   27.7060 C   0  0  0  0  0  0  0  0  0  0  0  0
    5.3160   -4.1750   29.0210 C   0  0  0  0  0  0  0  0  0  0  0  0
    6.0310   -5.3550   29.1020 C   0  0  0  0  0  0  0  0  0  0  0  0
    5.3150   -6.5160   29.3100 C   0  0  0  0  0  0  0  0  0  0  0  0
    5.0630   -6.7150   30.6170 N   0  0  0  0  0  0  0  0  0  0  0  0
    5.6890   -7.5620   31.3830 C   0  0  0  0  0  0  0  0  0  0  0  0
    4.9790   -7.2380   32.4060 C   0  0  0  0  0  0  0  0  0  0  0  0
    4.1580   -6.5600   32.6900 N   0  0  0  0  0  0  0  0  0  0  0  0
    4.0830   -6.0520   31.3890 N   0  0  0  0  0  0  0  0  0  0  0  0
    6.9390   -5.5130   28.0890 C   0  0  0  0  0  0  0  0  0  0  0  0
    6.9010   -4.4240   27.0780 C   0  0  0  0  0  0  0  0  0  0  0  0
    6.8070   -2.8510   23.4030 C   0  0  0  0  0  0  0  0  0  0  0  0
    7.6260   -3.2770   22.2130 C   0  0  0  0  0  0  0  0  0  0  0  0
  1  2  1  0
  2  3  2  0
  2  4  1  0
  4  5  1  0
  5  6  1  0
  6  7  1  0
  7  8  1  0
  8  9  2  0
  8 10  1  0
 10 11  1  0
 11 12  1  0
 12 13  1  0
 13 14  1  0
 14 15  1  0
 15 16  1  0
 16 17  2  0
 17 18  1  0
 15 19  1  0
 18 19  2  0
 13 20  1  0
 10 21  1  0
 20 21  1  0
  7 22  1  0
  4 23  1  0
 22 23  1  0
M  END
