piperidine-amides-28886-covalent
     RDKit          3D

 22 24  0  0  0  0  0  0  0  0999 V2000
    7.0350   -3.3540   19.3590 C   0  0  0  0  0  0  0  0  0  0  0  0
    6.3410   -4.1980   20.3300 C   0  0  0  0  0  0  0  0  0  0  0  0
    5.3240   -4.8050   19.9600 O   0  0  0  0  0  0  0  0  0  0  0  0
    6.8420   -4.3590   21.6410 N   0  0  0  0  0  0  0  0  0  0  0  0
    6.3910   -5.4700   22.4200 C   0  0  0  0  0  0  0  0  0  0  0  0
    5.4790   -4.9640   23.5020 C   0  0  0  0  0  0  0  0  0  0  0  0
    6.2570   -3.8960   24.2440 C   0  0  0  0  0  0  0  0  0  0  0  0
    5.4520   -3.2680   25.3690 C   0  0  0  0  0  0  0  0  0  0  0  0
    4.3180   -2.8820   25.1070 O   0  0  0  0  0  0  0  0  0  0  0  0
    6.0790   -3.1930   26.6140 N   0  0  0  0  0  0  0  0  0  0  0  0
    5.3470   -3.2610   27.8170 C   0  0  0  0  0  0  0  0  0  0  0  0
    5.9580   -4.2180   28.5010 C   0  0  0  0  0  0  0  0  0  0  0  0
    7.0370   -4.5380   27.7540 C   0  0  0  0  0  0  0  0  0  0  0  0
    7.9730   -5.4960   28.2180 C   0  0  0  0  0  0  0  0  0  0  0  0
    9.2000   -5.8380   27.3400 C   0  0  0  0  0  0  0  0  0  0  0  0
    9.3560   -5.1310   26.0210 C   0  0  0  0  0  0  0  0  0  0  0  0
    8.7200   -3.8640   24.7380 Br  0  0  0  0  0  0  0  0  0  0  0  0
    8.2370   -4.8210   26.8300 C   0  0  0  0  0  0  0  0  0  0  0  0
    8.2890   -5.6170   28.1000 C   0  0  0  0  0  0  0  0  0  0  0  0
    7.3300   -3.9720   26.4750 C   0  0  0  0  0  0  0  0  0  0  0  0
    6.6320   -2.7860   23.2740 C   0  0  0  0  0  0  0  0  0  0  0  0
    7.5070   -3.2670   22.3150 C   0  0  0  0  0  0  0  0  0  0  0  0
  1  2  1  0
  2  3  2  0
  2  4  1  0
  4  5  1  0
  5  6  1  0
  6  7  1  0
  7  8  1  0
  8  9  2  0
  8 10  1  0
 10 11  1  0
 11 12  1  0
 12 13  1  0
 13 14  1  0
 14 15  2  0
 15 16  1  0
 16 17  1  0
 16 18  2  0
 18 19  1  0
 10 20  1  0
 13 20  2  0
 18 20  1  0
  7 21  1  0
  4 22  1  0
 21 22  1  0
M  END
