piperidine-amides-25111-covalent
     RDKit          3D

 25 27  0  0  0  0  0  0  0  0999 V2000
    7.0960   -3.3320   19.3380 C   0  0  0  0  0  0  0  0  0  0  0  0
    6.4220   -4.2170   20.3160 C   0  0  0  0  0  0  0  0  0  0  0  0
    5.3750   -4.7510   19.9600 O   0  0  0  0  0  0  0  0  0  0  0  0
    7.0140   -4.4590   21.5590 N   0  0  0  0  0  0  0  0  0  0  0  0
    6.6080   -5.5750   22.3620 C   0  0  0  0  0  0  0  0  0  0  0  0
    5.7020   -5.0590   23.4410 C   0  0  0  0  0  0  0  0  0  0  0  0
    6.3860   -3.9390   24.2360 C   0  0  0  0  0  0  0  0  0  0  0  0
    5.4050   -3.4250   25.2100 C   0  0  0  0  0  0  0  0  0  0  0  0
    4.4910   -2.7050   24.8070 O   0  0  0  0  0  0  0  0  0  0  0  0
    5.4770   -3.7310   26.5770 N   0  0  0  0  0  0  0  0  0  0  0  0
    6.4910   -3.1140   27.3070 C   0  0  0  0  0  0  0  0  0  0  0  0
    6.7420   -4.1190   28.4010 C   0  0  0  0  0  0  0  0  0  0  0  0
    5.7860   -4.2460   29.3080 C   0  0  0  0  0  0  0  0  0  0  0  0
    4.5580   -4.2020   28.7530 C   0  0  2  0  0  0  0  0  0  0  0  0
    3.4970   -4.1960   29.6240 C   0  0  0  0  0  0  0  0  0  0  0  0
    3.8540   -4.9190   30.6630 N   0  0  0  0  0  0  0  0  0  0  0  0
    3.6810   -5.3390   28.8110 C   0  0  0  0  0  0  0  0  0  0  0  0
    2.2110   -5.3560   28.4660 C   0  0  0  0  0  0  0  0  0  0  0  0
    1.4530   -6.6600   28.5840 C   0  0  0  0  0  0  0  0  0  0  0  0
    2.2310   -7.8420   29.0410 C   0  0  0  0  0  0  0  0  0  0  0  0
    3.6760   -7.8180   29.3790 C   0  0  0  0  0  0  0  0  0  0  0  0
    4.3200   -6.5130   29.2320 N   0  0  0  0  0  0  0  0  0  0  0  0
    4.3870   -3.5630   27.5480 C   0  0  0  0  0  0  0  0  0  0  0  0
    6.8450   -2.8160   23.3270 C   0  0  0  0  0  0  0  0  0  0  0  0
    7.7200   -3.4130   22.2670 C   0  0  0  0  0  0  0  0  0  0  0  0
  1  2  1  0
  2  3  2  0
  2  4  1  0
  4  5  1  0
  5  6  1  0
  6  7  1  0
  7  8  1  0
  8  9  2  0
  8 10  1  0
 10 11  1  0
 11 12  1  0
 12 13  1  0
 13 14  1  0
 14 15  1  1
 15 16  3  0
 14 17  1  0
 17 18  2  0
 18 19  1  0
 19 20  2  0
 20 21  1  0
 17 22  1  0
 21 22  2  0
 10 23  1  0
 14 23  1  0
  7 24  1  0
  4 25  1  0
 24 25  1  0
M  END
