piperidine-amides-34355-covalent
     RDKit          3D

 30 32  0  0  0  0  0  0  0  0999 V2000
    7.0380   -3.3330   19.3360 C   0  0  0  0  0  0  0  0  0  0  0  0
    6.3710   -4.1880   20.3350 C   0  0  0  0  0  0  0  0  0  0  0  0
    5.3990   -4.8950   19.9910 O   0  0  0  0  0  0  0  0  0  0  0  0
    6.8260   -4.2570   21.6620 N   0  0  0  0  0  0  0  0  0  0  0  0
    6.7070   -5.5380   22.3280 C   0  0  0  0  0  0  0  0  0  0  0  0
    6.1780   -5.3010   23.7480 C   0  0  0  0  0  0  0  0  0  0  0  0
    6.2260   -3.8120   23.9980 C   0  0  0  0  0  0  0  0  0  0  0  0
    5.7780   -3.4650   25.3690 C   0  0  0  0  0  0  0  0  0  0  0  0
    4.5930   -3.0840   25.4860 O   0  0  0  0  0  0  0  0  0  0  0  0
    6.6260   -3.5500   26.5140 N   0  0  0  0  0  0  0  0  0  0  0  0
    6.2220   -2.8720   27.7180 C   0  0  0  0  0  0  0  0  0  0  0  0
    5.6650   -3.8700   28.7180 C   0  0  0  0  0  0  0  0  0  0  0  0
    6.4610   -5.0840   28.7390 N   0  0  0  0  0  0  0  0  0  0  0  0
    5.8790   -6.4080   28.8570 C   0  0  0  0  0  0  0  0  0  0  0  0
    5.2800   -6.5250   30.0890 C   0  0  0  0  0  0  0  0  0  0  0  0
    4.2120   -5.7070   30.5190 C   0  0  0  0  0  0  0  0  0  0  0  0
    3.6630   -5.9000   31.7670 C   0  0  0  0  0  0  0  0  0  0  0  0
    4.2410   -6.9800   32.6180 C   0  0  0  0  0  0  0  0  0  0  0  0
    3.8650   -7.2870   33.7550 O   0  0  0  0  0  0  0  0  0  0  0  0
    3.5060   -8.6250   34.0540 C   0  0  0  0  0  0  0  0  0  0  0  0
    3.5440   -8.7210   35.5470 C   0  0  0  0  0  0  0  0  0  0  0  0
    4.7330   -8.5040   36.1360 F   0  0  0  0  0  0  0  0  0  0  0  0
    2.6690   -7.9560   36.2270 F   0  0  0  0  0  0  0  0  0  0  0  0
    3.2020  -10.0190   35.8730 F   0  0  0  0  0  0  0  0  0  0  0  0
    5.3100   -7.7800   32.1690 C   0  0  0  0  0  0  0  0  0  0  0  0
    5.8150   -7.5280   30.8820 C   0  0  0  0  0  0  0  0  0  0  0  0
    7.7620   -4.9850   28.1390 C   0  0  0  0  0  0  0  0  0  0  0  0
    7.6240   -4.5280   26.7130 C   0  0  0  0  0  0  0  0  0  0  0  0
    7.5810   -3.2250   23.7060 C   0  0  0  0  0  0  0  0  0  0  0  0
    7.7010   -3.2190   22.1780 C   0  0  0  0  0  0  0  0  0  0  0  0
  1  2  1  0
  2  3  2  0
  2  4  1  0
  4  5  1  0
  5  6  1  0
  6  7  1  0
  7  8  1  0
  8  9  2  0
  8 10  1  0
 10 11  1  0
 11 12  1  0
 12 13  1  0
 13 14  1  0
 14 15  1  0
 15 16  2  0
 16 17  1  0
 17 18  2  0
 18 19  1  0
 19 20  1  0
 20 21  1  0
 21 22  1  0
 21 23  1  0
 21 24  1  0
 18 25  1  0
 15 26  1  0
 25 26  2  0
 13 27  1  0
 10 28  1  0
 27 28  1  0
  7 29  1  0
  4 30  1  0
 29 30  1  0
M  END
