piperidine-amides-8566-covalent
     RDKit          3D

 24 25  0  0  0  0  0  0  0  0999 V2000
    7.0770   -3.3510   19.3010 C   0  0  0  0  0  0  0  0  0  0  0  0
    6.4320   -4.2000   20.2980 C   0  0  0  0  0  0  0  0  0  0  0  0
    5.3870   -4.7940   19.9720 O   0  0  0  0  0  0  0  0  0  0  0  0
    7.0270   -4.3730   21.5740 N   0  0  0  0  0  0  0  0  0  0  0  0
    7.6770   -3.2470   22.1680 C   0  0  0  0  0  0  0  0  0  0  0  0
    6.7700   -2.6930   23.2150 C   0  0  0  0  0  0  0  0  0  0  0  0
    6.5690   -3.7950   24.2260 C   0  0  0  0  0  0  0  0  0  0  0  0
    5.8070   -3.2440   25.3890 C   0  0  0  0  0  0  0  0  0  0  0  0
    4.6130   -3.0170   25.2050 O   0  0  0  0  0  0  0  0  0  0  0  0
    6.4860   -3.0340   26.5810 N   0  0  0  0  0  0  0  0  0  0  0  0
    6.4680   -1.7840   27.2620 C   0  0  0  0  0  0  0  0  0  0  0  0
    7.0090   -1.4640   28.5240 C   0  0  0  0  0  0  0  0  0  0  0  0
    6.9690   -0.2480   29.1620 C   0  0  0  0  0  0  0  0  0  0  0  0
    6.3630    0.8580   28.6130 C   0  0  0  0  0  0  0  0  0  0  0  0
    6.3070    2.1130   29.2640 N   0  0  0  0  0  0  0  0  0  0  0  0
    5.1260    2.4510   30.0560 C   0  0  0  0  0  0  0  0  0  0  0  0
    6.8860    3.0260   28.4800 C   0  0  0  0  0  0  0  0  0  0  0  0
    6.7830    2.8780   27.2380 O   0  0  0  0  0  0  0  0  0  0  0  0
    7.6290    4.1950   29.0100 C   0  0  0  0  0  0  0  0  0  0  0  0
    8.9170    4.3190   28.2520 C   0  0  0  0  0  0  0  0  0  0  0  0
    5.7970    0.6700   27.3670 C   0  0  0  0  0  0  0  0  0  0  0  0
    5.8170   -0.5320   26.6940 C   0  0  0  0  0  0  0  0  0  0  0  0
    5.7510   -4.8810   23.5780 C   0  0  0  0  0  0  0  0  0  0  0  0
    6.4810   -5.4320   22.3790 C   0  0  0  0  0  0  0  0  0  0  0  0
  1  2  1  0
  2  3  2  0
  2  4  1  0
  4  5  1  0
  5  6  1  0
  6  7  1  0
  7  8  1  0
  8  9  2  0
  8 10  1  0
 10 11  1  0
 11 12  2  0
 12 13  1  0
 13 14  2  0
 14 15  1  0
 15 16  1  0
 15 17  1  0
 17 18  2  0
 17 19  1  0
 19 20  1  0
 14 21  1  0
 11 22  1  0
 21 22  2  0
  7 23  1  0
  4 24  1  0
 23 24  1  0
M  END
