piperidine-amides-12926-covalent
     RDKit          3D

 21 22  0  0  0  0  0  0  0  0999 V2000
    7.1330   -3.2860   19.1640 C   0  0  0  0  0  0  0  0  0  0  0  0
    6.3270   -3.9840   20.1840 C   0  0  0  0  0  0  0  0  0  0  0  0
    5.2240   -4.4310   19.8290 O   0  0  0  0  0  0  0  0  0  0  0  0
    6.8280   -4.1900   21.4720 N   0  0  0  0  0  0  0  0  0  0  0  0
    7.5560   -3.1520   22.1170 C   0  0  0  0  0  0  0  0  0  0  0  0
    7.0640   -2.7960   23.4530 C   0  0  0  0  0  0  0  0  0  0  0  0
    6.4540   -3.9010   24.2240 C   0  0  0  0  0  0  0  0  0  0  0  0
    5.6720   -3.3780   25.3770 C   0  0  0  0  0  0  0  0  0  0  0  0
    4.4320   -3.3520   25.2630 O   0  0  0  0  0  0  0  0  0  0  0  0
    6.2850   -2.9270   26.5620 N   0  0  0  0  0  0  0  0  0  0  0  0
    6.4810   -1.4850   26.8540 C   0  0  0  0  0  0  0  0  0  0  0  0
    5.8580   -1.0650   28.1470 C   0  0  2  0  0  0  0  0  0  0  0  0
    5.5980   -2.0980   29.1670 C   0  0  0  0  0  0  0  0  0  0  0  0
    4.2870   -2.1440   29.5620 C   0  0  0  0  0  0  0  0  0  0  0  0
    3.6270   -1.1270   28.9630 C   0  0  0  0  0  0  0  0  0  0  0  0
    4.5810   -0.3880   28.1990 N   0  0  0  0  0  0  0  0  0  0  0  0
    4.5840    0.9610   28.1620 C   0  0  0  0  0  0  0  0  0  0  0  0
    4.8300    1.3810   26.8910 C   0  0  0  0  0  0  0  0  0  0  0  0
    6.1090    1.5940   26.4620 C   0  0  0  0  0  0  0  0  0  0  0  0
    5.6170   -4.8080   23.3640 C   0  0  0  0  0  0  0  0  0  0  0  0
    6.4480   -5.3280   22.2590 C   0  0  0  0  0  0  0  0  0  0  0  0
  1  2  1  0
  2  3  2  0
  2  4  1  0
  4  5  1  0
  5  6  1  0
  6  7  1  0
  7  8  1  0
  8  9  2  0
  8 10  1  0
 10 11  1  0
 12 11  1  6
 12 13  1  0
 13 14  1  0
 14 15  1  0
 12 16  1  0
 15 16  1  0
 16 17  1  0
 17 18  1  0
 18 19  1  0
  7 20  1  0
  4 21  1  0
 20 21  1  0
M  END
