piperidine-amides-12140-covalent
     RDKit          3D

 25 27  0  0  0  0  0  0  0  0999 V2000
    7.0440   -3.3720   19.3620 C   0  0  0  0  0  0  0  0  0  0  0  0
    6.3470   -4.1820   20.3530 C   0  0  0  0  0  0  0  0  0  0  0  0
    5.3840   -4.8610   19.9950 O   0  0  0  0  0  0  0  0  0  0  0  0
    6.8020   -4.2320   21.7260 N   0  0  0  0  0  0  0  0  0  0  0  0
    6.6090   -5.4470   22.4880 C   0  0  0  0  0  0  0  0  0  0  0  0
    6.0490   -5.1190   23.8450 C   0  0  0  0  0  0  0  0  0  0  0  0
    6.1140   -3.6100   23.9900 C   0  0  0  0  0  0  0  0  0  0  0  0
    5.5960   -3.1470   25.3170 C   0  0  0  0  0  0  0  0  0  0  0  0
    4.3820   -2.9220   25.4840 O   0  0  0  0  0  0  0  0  0  0  0  0
    6.4590   -2.9600   26.4280 N   0  0  0  0  0  0  0  0  0  0  0  0
    6.5130   -1.6400   27.0420 C   0  0  0  0  0  0  0  0  0  0  0  0
    5.8440   -0.5310   26.3080 C   0  0  0  0  0  0  0  0  0  0  0  0
    5.7790    0.7670   26.7060 N   0  0  0  0  0  0  0  0  0  0  0  0
    6.3720    1.1560   27.8890 C   0  0  0  0  0  0  0  0  0  0  0  0
    6.3230    2.4880   28.3130 C   0  0  0  0  0  0  0  0  0  0  0  0
    5.3520    2.9210   29.2140 C   0  0  0  0  0  0  0  0  0  0  0  0
    5.3140    4.3170   29.6490 C   0  0  0  0  0  0  0  0  0  0  0  0
    6.2400    5.2040   29.1660 C   0  0  0  0  0  0  0  0  0  0  0  0
    7.1700    4.7320   28.2870 C   0  0  0  0  0  0  0  0  0  0  0  0
    8.1010    5.6390   27.8080 O   0  0  0  0  0  0  0  0  0  0  0  0
    7.2410    3.4160   27.8480 C   0  0  0  0  0  0  0  0  0  0  0  0
    6.9840    0.1370   28.5570 N   0  0  0  0  0  0  0  0  0  0  0  0
    7.1130   -1.2880   28.2330 C   0  0  0  0  0  0  0  0  0  0  0  0
    7.4850   -3.0780   23.6450 C   0  0  0  0  0  0  0  0  0  0  0  0
    7.6510   -3.1800   22.2610 C   0  0  0  0  0  0  0  0  0  0  0  0
  1  2  1  0
  2  3  2  0
  2  4  1  0
  4  5  1  0
  5  6  1  0
  6  7  1  0
  7  8  1  0
  8  9  2  0
  8 10  1  0
 10 11  1  0
 11 12  2  0
 12 13  1  0
 13 14  2  0
 14 15  1  0
 15 16  2  0
 16 17  1  0
 17 18  2  0
 18 19  1  0
 19 20  1  0
 15 21  1  0
 19 21  2  0
 14 22  1  0
 11 23  1  0
 22 23  2  0
  7 24  1  0
  4 25  1  0
 24 25  1  0
M  END
