piperidine-amides-29813-covalent
     RDKit          3D

 26 28  0  0  0  0  0  0  0  0999 V2000
    7.0010   -3.3710   19.4000 C   0  0  0  0  0  0  0  0  0  0  0  0
    6.3390   -4.2300   20.3810 C   0  0  0  0  0  0  0  0  0  0  0  0
    5.3990   -4.9310   20.0030 O   0  0  0  0  0  0  0  0  0  0  0  0
    6.7850   -4.3140   21.7550 N   0  0  0  0  0  0  0  0  0  0  0  0
    6.5000   -5.4810   22.5320 C   0  0  0  0  0  0  0  0  0  0  0  0
    5.7670   -5.1000   23.7980 C   0  0  0  0  0  0  0  0  0  0  0  0
    6.3530   -3.8250   24.4330 C   0  0  0  0  0  0  0  0  0  0  0  0
    5.2790   -3.2700   25.3570 C   0  0  0  0  0  0  0  0  0  0  0  0
    4.1520   -3.0140   24.9120 O   0  0  0  0  0  0  0  0  0  0  0  0
    5.4770   -3.0130   26.7680 N   0  0  0  0  0  0  0  0  0  0  0  0
    4.3390   -2.9930   27.6880 C   0  0  0  0  0  0  0  0  0  0  0  0
    4.7110   -3.6430   29.0390 C   0  0  0  0  0  0  0  0  0  0  0  0
    5.6590   -4.6220   29.0140 C   0  0  0  0  0  0  0  0  0  0  0  0
    6.3020   -4.5930   27.8430 C   0  0  2  0  0  0  0  0  0  0  0  0
    7.3490   -5.2090   27.5680 C   0  0  0  0  0  0  0  0  0  0  0  0
    8.3260   -4.6030   26.9390 C   0  0  0  0  0  0  0  0  0  0  0  0
    9.2730   -5.3440   26.7390 C   0  0  0  0  0  0  0  0  0  0  0  0
   10.3010   -4.8990   26.1530 C   0  0  0  0  0  0  0  0  0  0  0  0
   10.8820   -5.7810   25.5200 F   0  0  0  0  0  0  0  0  0  0  0  0
   11.0200   -4.6450   27.2020 F   0  0  0  0  0  0  0  0  0  0  0  0
   10.0170   -3.7550   25.4150 F   0  0  0  0  0  0  0  0  0  0  0  0
    8.9690   -6.5740   27.2580 N   0  0  0  0  0  0  0  0  0  0  0  0
    7.7200   -6.5540   27.8190 N   0  0  0  0  0  0  0  0  0  0  0  0
    6.6500   -3.3500   27.4120 C   0  0  0  0  0  0  0  0  0  0  0  0
    6.8290   -2.7980   23.4920 C   0  0  0  0  0  0  0  0  0  0  0  0
    7.5700   -3.3000   22.4200 C   0  0  0  0  0  0  0  0  0  0  0  0
  1  2  1  0
  2  3  2  0
  2  4  1  0
  4  5  1  0
  5  6  1  0
  6  7  1  0
  7  8  1  0
  8  9  2  0
  8 10  1  0
 10 11  1  0
 11 12  1  0
 12 13  1  0
 13 14  1  0
 14 15  1  1
 15 16  1  0
 16 17  2  0
 17 18  1  0
 18 19  1  0
 18 20  1  0
 18 21  1  0
 17 22  1  0
 15 23  2  0
 22 23  1  0
 10 24  1  0
 14 24  1  0
  7 25  1  0
  4 26  1  0
 25 26  1  0
M  END
