piperidine-amides-25663-covalent
     RDKit          3D

 25 28  0  0  0  0  0  0  0  0999 V2000
    6.9880   -3.3760   19.4280 C   0  0  0  0  0  0  0  0  0  0  0  0
    6.3770   -4.2770   20.4450 C   0  0  0  0  0  0  0  0  0  0  0  0
    5.4560   -4.9840   20.0230 O   0  0  0  0  0  0  0  0  0  0  0  0
    6.8530   -4.3330   21.7830 N   0  0  0  0  0  0  0  0  0  0  0  0
    6.6300   -5.4970   22.6250 C   0  0  0  0  0  0  0  0  0  0  0  0
    5.9780   -5.0680   23.9270 C   0  0  0  0  0  0  0  0  0  0  0  0
    5.8480   -3.5490   23.8810 C   0  0  0  0  0  0  0  0  0  0  0  0
    5.0190   -2.9130   24.9800 C   0  0  0  0  0  0  0  0  0  0  0  0
    4.0060   -2.3370   24.6010 O   0  0  0  0  0  0  0  0  0  0  0  0
    5.2090   -2.8860   26.3930 N   0  0  0  0  0  0  0  0  0  0  0  0
    6.4480   -3.3720   26.8880 C   0  0  0  0  0  0  0  0  0  0  0  0
    6.0590   -4.4890   27.8940 C   0  0  0  0  0  0  0  0  0  0  0  0
    6.7170   -4.9500   28.9880 C   0  0  0  0  0  0  0  0  0  0  0  0
    6.6330   -6.2610   28.8460 C   0  0  0  0  0  0  0  0  0  0  0  0
    5.8890   -6.3560   27.7330 C   0  0  0  0  0  0  0  0  0  0  0  0
    4.8080   -5.3040   27.5310 C   0  0  0  0  0  0  0  0  0  0  0  0
    4.7670   -4.1250   28.3620 C   0  0  0  0  0  0  0  0  0  0  0  0
    4.1380   -4.7310   29.6210 C   0  0  0  0  0  0  0  0  0  0  0  0
    4.7620   -5.6720   30.3850 F   0  0  0  0  0  0  0  0  0  0  0  0
    2.7680   -4.1520   29.8870 C   0  0  0  0  0  0  0  0  0  0  0  0
    2.2350   -3.1290   28.9460 C   0  0  0  0  0  0  0  0  0  0  0  0
    2.9950   -2.6490   27.7490 C   0  0  0  0  0  0  0  0  0  0  0  0
    4.3350   -3.2080   27.4810 C   0  0  0  0  0  0  0  0  0  0  0  0
    7.2090   -2.9210   23.6420 C   0  0  0  0  0  0  0  0  0  0  0  0
    7.6610   -3.2450   22.3650 C   0  0  0  0  0  0  0  0  0  0  0  0
  1  2  1  0
  2  3  2  0
  2  4  1  0
  4  5  1  0
  5  6  1  0
  6  7  1  0
  7  8  1  0
  8  9  2  0
  8 10  1  0
 10 11  1  0
 12 11  1  0
 12 13  1  0
 13 14  1  0
 14 15  1  0
 12 16  1  0
 15 16  1  0
 12 17  1  0
 17 18  1  0
 18 19  1  0
 18 20  2  0
 20 21  1  0
 21 22  2  0
 10 23  1  0
 17 23  2  0
 22 23  1  0
  7 24  1  0
  4 25  1  0
 24 25  1  0
M  END
