piperidine-amides-19302-covalent
     RDKit          3D

 22 23  0  0  0  0  0  0  0  0999 V2000
    7.1560   -3.3520   19.4240 C   0  0  0  0  0  0  0  0  0  0  0  0
    6.4560   -4.1810   20.3730 C   0  0  0  0  0  0  0  0  0  0  0  0
    5.4190   -4.8130   19.9840 O   0  0  0  0  0  0  0  0  0  0  0  0
    6.9230   -4.3410   21.7010 N   0  0  0  0  0  0  0  0  0  0  0  0
    7.8460   -3.3160   22.2420 C   0  0  0  0  0  0  0  0  0  0  0  0
    6.8810   -2.6140   23.2500 C   0  0  0  0  0  0  0  0  0  0  0  0
    6.3920   -3.7110   24.1640 C   0  0  0  0  0  0  0  0  0  0  0  0
    5.7440   -3.0590   25.4660 C   0  0  0  0  0  0  0  0  0  0  0  0
    4.6730   -2.5260   25.2010 O   0  0  0  0  0  0  0  0  0  0  0  0
    6.5290   -3.2890   26.4380 N   0  0  0  0  0  0  0  0  0  0  0  0
    7.3240   -4.0240   27.2510 C   0  0  0  0  0  0  0  0  0  0  0  0
    7.8060   -5.2950   27.2310 C   0  0  0  0  0  0  0  0  0  0  0  0
    7.0740   -6.2050   28.1030 N   0  0  0  0  0  0  0  0  0  0  0  0
    8.8900   -5.6310   26.4120 O   0  0  0  0  0  0  0  0  0  0  0  0
    6.5270   -1.9960   27.1470 C   0  0  0  0  0  0  0  0  0  0  0  0
    7.1940   -1.7980   28.4510 C   0  0  0  0  0  0  0  0  0  0  0  0
    7.1020   -0.4150   29.0930 C   0  0  0  0  0  0  0  0  0  0  0  0
    6.4020    0.5830   28.4110 C   0  0  0  0  0  0  0  0  0  0  0  0
    5.6990    0.6980   27.2030 C   0  0  0  0  0  0  0  0  0  0  0  0
    5.8560   -0.7310   26.6640 C   0  0  0  0  0  0  0  0  0  0  0  0
    5.5990   -4.7630   23.4310 C   0  0  0  0  0  0  0  0  0  0  0  0
    6.4540   -5.3890   22.5520 C   0  0  0  0  0  0  0  0  0  0  0  0
  1  2  1  0
  2  3  2  0
  2  4  1  0
  4  5  1  0
  5  6  1  0
  6  7  1  0
  7  8  1  0
  8  9  2  0
  8 10  1  0
 10 11  1  0
 11 12  1  0
 12 13  1  0
 12 14  2  0
 10 15  1  0
 15 16  2  0
 16 17  1  0
 17 18  2  0
 18 19  1  0
 15 20  1  0
 19 20  2  0
  7 21  1  0
  4 22  1  0
 21 22  1  0
M  END
