piperidine-amides-6939-covalent
     RDKit          3D

 23 24  0  0  0  0  0  0  0  0999 V2000
    7.0980   -3.2600   19.2550 C   0  0  0  0  0  0  0  0  0  0  0  0
    6.3590   -4.0450   20.2600 C   0  0  0  0  0  0  0  0  0  0  0  0
    5.3460   -4.7010   19.9340 O   0  0  0  0  0  0  0  0  0  0  0  0
    6.8040   -4.0960   21.5860 N   0  0  0  0  0  0  0  0  0  0  0  0
    7.6730   -3.0680   22.0980 C   0  0  0  0  0  0  0  0  0  0  0  0
    7.4720   -3.0750   23.6110 C   0  0  0  0  0  0  0  0  0  0  0  0
    6.0100   -3.4180   23.7960 C   0  0  0  0  0  0  0  0  0  0  0  0
    5.5150   -3.0920   25.1600 C   0  0  0  0  0  0  0  0  0  0  0  0
    4.2760   -3.0360   25.3200 O   0  0  0  0  0  0  0  0  0  0  0  0
    6.4010   -2.8480   26.2470 N   0  0  0  0  0  0  0  0  0  0  0  0
    5.9130   -3.0280   27.5970 C   0  0  0  0  0  0  0  0  0  0  0  0
    6.3860   -4.3700   28.0790 C   0  0  2  0  0  0  0  0  0  0  0  0
    7.3350   -4.8880   27.3150 C   0  0  0  0  0  0  0  0  0  0  0  0
    7.3060   -5.0890   25.9840 C   0  0  0  0  0  0  0  0  0  0  0  0
    8.4030   -5.6110   25.4360 C   0  0  0  0  0  0  0  0  0  0  0  0
    9.4910   -5.9340   26.1460 C   0  0  0  0  0  0  0  0  0  0  0  0
    9.5870   -5.7730   27.4680 N   0  0  0  0  0  0  0  0  0  0  0  0
    8.4720   -5.2400   27.9890 C   0  0  0  0  0  0  0  0  0  0  0  0
    5.5190   -5.4010   28.2900 N   0  0  0  0  0  0  0  0  0  0  0  0
    6.1720   -6.3710   29.1480 C   0  0  0  0  0  0  0  0  0  0  0  0
    4.7210   -5.8620   27.1670 C   0  0  0  0  0  0  0  0  0  0  0  0
    5.7030   -4.8660   23.4400 C   0  0  0  0  0  0  0  0  0  0  0  0
    6.5700   -5.2610   22.4040 C   0  0  0  0  0  0  0  0  0  0  0  0
  1  2  1  0
  2  3  2  0
  2  4  1  0
  4  5  1  0
  5  6  1  0
  6  7  1  0
  7  8  1  0
  8  9  2  0
  8 10  1  0
 10 11  1  0
 12 11  1  6
 12 13  1  0
 13 14  2  0
 14 15  1  0
 15 16  2  0
 16 17  1  0
 13 18  1  0
 17 18  2  0
 12 19  1  0
 19 20  1  0
 19 21  1  0
  7 22  1  0
  4 23  1  0
 22 23  1  0
M  END
