piperidine-amides-19096-covalent
     RDKit          3D

 20 21  0  0  0  0  0  0  0  0999 V2000
    7.1330   -3.3420   19.3920 C   0  0  0  0  0  0  0  0  0  0  0  0
    6.4510   -4.1770   20.3530 C   0  0  0  0  0  0  0  0  0  0  0  0
    5.4190   -4.8270   19.9810 O   0  0  0  0  0  0  0  0  0  0  0  0
    6.9360   -4.3190   21.6690 N   0  0  0  0  0  0  0  0  0  0  0  0
    6.5450   -5.5000   22.4690 C   0  0  0  0  0  0  0  0  0  0  0  0
    5.6520   -4.7830   23.5570 C   0  0  0  0  0  0  0  0  0  0  0  0
    6.5500   -3.7700   24.2500 C   0  0  0  0  0  0  0  0  0  0  0  0
    5.8760   -3.1660   25.5540 C   0  0  0  0  0  0  0  0  0  0  0  0
    4.7090   -2.8510   25.3340 O   0  0  0  0  0  0  0  0  0  0  0  0
    6.7610   -3.1900   26.4720 N   0  0  0  0  0  0  0  0  0  0  0  0
    7.7310   -3.7580   27.2450 C   0  0  0  0  0  0  0  0  0  0  0  0
    6.7690   -1.9020   27.0960 C   0  0  2  0  0  0  0  0  0  0  0  0
    7.0180   -1.9600   28.5190 C   0  0  0  0  0  0  0  0  0  0  0  0
    6.8600   -0.7800   29.3940 C   0  0  0  0  0  0  0  0  0  0  0  0
    6.2490    0.6410   28.6010 S   0  0  0  0  0  0  0  0  0  0  0  0
    7.2960    1.6570   28.5070 O   0  0  0  0  0  0  0  0  0  0  0  0
    5.7820    0.1210   26.9790 C   0  0  0  0  0  0  0  0  0  0  0  0
    5.3850   -1.1970   27.2910 C   0  0  0  0  0  0  0  0  0  0  0  0
    7.0140   -2.6580   23.3400 C   0  0  0  0  0  0  0  0  0  0  0  0
    7.8240   -3.3200   22.2430 C   0  0  0  0  0  0  0  0  0  0  0  0
  1  2  1  0
  2  3  2  0
  2  4  1  0
  4  5  1  0
  5  6  1  0
  6  7  1  0
  7  8  1  0
  8  9  2  0
  8 10  1  0
 10 11  1  0
 12 10  1  1
 12 13  1  0
 13 14  1  0
 15 14  1  1
 15 16  2  0
 15 17  1  0
 12 18  1  0
 17 18  1  0
  7 19  1  0
  4 20  1  0
 19 20  1  0
M  END
