piperidine-amides-5000-covalent
     RDKit          3D

 23 25  0  0  0  0  0  0  0  0999 V2000
    7.0310   -3.3510   19.3000 C   0  0  0  0  0  0  0  0  0  0  0  0
    6.3820   -4.1870   20.3380 C   0  0  0  0  0  0  0  0  0  0  0  0
    5.3710   -4.8190   19.9760 O   0  0  0  0  0  0  0  0  0  0  0  0
    6.9080   -4.3030   21.6420 N   0  0  0  0  0  0  0  0  0  0  0  0
    7.6620   -3.2390   22.2320 C   0  0  0  0  0  0  0  0  0  0  0  0
    7.2670   -2.9120   23.6000 C   0  0  0  0  0  0  0  0  0  0  0  0
    6.0350   -3.6070   24.0320 C   0  0  0  0  0  0  0  0  0  0  0  0
    5.6610   -3.2580   25.4240 C   0  0  0  0  0  0  0  0  0  0  0  0
    4.4560   -3.3270   25.7260 O   0  0  0  0  0  0  0  0  0  0  0  0
    6.6070   -2.8490   26.3790 N   0  0  0  0  0  0  0  0  0  0  0  0
    6.4800   -1.5620   27.0990 C   0  0  0  0  0  0  0  0  0  0  0  0
    6.0070   -0.3570   26.4000 C   0  0  0  0  0  0  0  0  0  0  0  0
    5.8760    0.8930   27.1210 C   0  0  0  0  0  0  0  0  0  0  0  0
    6.2040    0.9090   28.4650 C   0  0  0  0  0  0  0  0  0  0  0  0
    6.6550   -0.2020   29.1700 C   0  0  0  0  0  0  0  0  0  0  0  0
    6.9320   -0.0580   30.4970 C   0  0  0  0  0  0  0  0  0  0  0  0
    8.1350   -0.0280   31.1520 C   0  0  0  0  0  0  0  0  0  0  0  0
    7.8670    0.1520   32.4520 N   0  0  0  0  0  0  0  0  0  0  0  0
    6.3850    0.2220   32.5200 C   0  0  0  0  0  0  0  0  0  0  0  0
    5.7880    0.0910   31.3190 O   0  0  0  0  0  0  0  0  0  0  0  0
    6.8070   -1.4260   28.5330 C   0  0  0  0  0  0  0  0  0  0  0  0
    6.0180   -5.0700   23.7880 C   0  0  0  0  0  0  0  0  0  0  0  0
    6.6650   -5.4760   22.4810 C   0  0  0  0  0  0  0  0  0  0  0  0
  1  2  1  0
  2  3  2  0
  2  4  1  0
  4  5  1  0
  5  6  1  0
  6  7  1  0
  7  8  1  0
  8  9  2  0
  8 10  1  0
 10 11  1  0
 11 12  2  0
 12 13  1  0
 13 14  2  0
 14 15  1  0
 15 16  1  0
 16 17  2  0
 17 18  1  0
 18 19  2  0
 16 20  1  0
 19 20  1  0
 11 21  1  0
 15 21  2  0
  7 22  1  0
  4 23  1  0
 22 23  1  0
M  END
