piperidine-amides-31468-covalent
     RDKit          3D

 20 21  0  0  0  0  0  0  0  0999 V2000
    7.1140   -3.3350   19.4200 C   0  0  0  0  0  0  0  0  0  0  0  0
    6.4020   -4.1620   20.3700 C   0  0  0  0  0  0  0  0  0  0  0  0
    5.3940   -4.8230   19.9710 O   0  0  0  0  0  0  0  0  0  0  0  0
    6.8010   -4.2860   21.7160 N   0  0  0  0  0  0  0  0  0  0  0  0
    6.2350   -5.4430   22.4480 C   0  0  0  0  0  0  0  0  0  0  0  0
    6.4770   -5.0250   23.9570 C   0  0  0  0  0  0  0  0  0  0  0  0
    6.2210   -3.5350   24.0510 C   0  0  0  0  0  0  0  0  0  0  0  0
    5.7050   -3.1620   25.5130 C   0  0  0  0  0  0  0  0  0  0  0  0
    4.4800   -3.1200   25.5620 O   0  0  0  0  0  0  0  0  0  0  0  0
    6.7410   -3.0150   26.2360 N   0  0  0  0  0  0  0  0  0  0  0  0
    7.9490   -3.3310   26.7490 C   0  0  0  0  0  0  0  0  0  0  0  0
    6.5980   -1.7960   26.9660 C   0  0  0  0  0  0  0  0  0  0  0  0
    7.1150   -1.7660   28.2710 C   0  0  0  0  0  0  0  0  0  0  0  0
    7.1000   -0.6410   29.2370 C   0  0  0  0  0  0  0  0  0  0  0  0
    6.4020    0.6220   28.6410 C   0  0  0  0  0  0  0  0  0  0  0  0
    5.9340    0.4460   27.3200 C   0  0  0  0  0  0  0  0  0  0  0  0
    6.0190   -0.6910   26.5130 C   0  0  0  0  0  0  0  0  0  0  0  0
    5.2190   -0.6260   24.5710 I   0  0  0  0  0  0  0  0  0  0  0  0
    7.1610   -2.6610   23.4100 C   0  0  0  0  0  0  0  0  0  0  0  0
    7.8340   -3.5520   22.3360 C   0  0  0  0  0  0  0  0  0  0  0  0
  1  2  1  0
  2  3  2  0
  2  4  1  0
  4  5  1  0
  5  6  1  0
  6  7  1  0
  7  8  1  0
  8  9  2  0
  8 10  1  0
 10 11  1  0
 10 12  1  0
 12 13  2  0
 13 14  1  0
 14 15  2  0
 15 16  1  0
 12 17  1  0
 16 17  2  0
 17 18  1  0
  7 19  1  0
  4 20  1  0
 19 20  1  0
M  END
