piperidine-amides-11543-covalent
     RDKit          3D

 25 27  0  0  0  0  0  0  0  0999 V2000
    7.1200   -3.2920   19.2210 C   0  0  0  0  0  0  0  0  0  0  0  0
    6.4020   -4.0540   20.2460 C   0  0  0  0  0  0  0  0  0  0  0  0
    5.3640   -4.6650   19.9370 O   0  0  0  0  0  0  0  0  0  0  0  0
    6.9040   -4.1390   21.5580 N   0  0  0  0  0  0  0  0  0  0  0  0
    7.7600   -3.1280   22.1230 C   0  0  0  0  0  0  0  0  0  0  0  0
    7.0900   -2.7100   23.3990 C   0  0  0  0  0  0  0  0  0  0  0  0
    6.5310   -3.8780   24.1530 C   0  0  0  0  0  0  0  0  0  0  0  0
    5.7600   -3.4390   25.3410 C   0  0  0  0  0  0  0  0  0  0  0  0
    4.4940   -3.4440   25.2990 O   0  0  0  0  0  0  0  0  0  0  0  0
    6.3550   -2.9910   26.5440 N   0  0  0  0  0  0  0  0  0  0  0  0
    6.2780   -1.5610   26.9250 C   0  0  0  0  0  0  0  0  0  0  0  0
    5.7070   -1.4450   28.2950 C   0  0  1  0  0  0  0  0  0  0  0  0
    6.3510   -0.4040   29.0810 C   0  0  1  0  0  0  0  0  0  0  0  0
    6.2750    0.8620   28.2820 C   0  0  0  0  0  0  0  0  0  0  0  0
    4.7930    1.2130   28.2520 C   0  0  0  0  0  0  0  0  0  0  0  0
    4.0260    0.1310   28.9460 C   0  0  2  0  0  0  0  0  0  0  0  0
    4.4510   -0.1580   30.2340 C   0  0  0  0  0  0  0  0  0  0  0  0
    5.8270   -0.2770   30.3160 C   0  0  0  0  0  0  0  0  0  0  0  0
    4.3140   -1.3160   28.4520 C   0  0  2  0  0  0  0  0  0  0  0  0
    3.6930   -2.4750   29.2580 C   0  0  0  0  0  0  0  0  0  0  0  0
    4.4990   -2.9670   30.2540 F   0  0  0  0  0  0  0  0  0  0  0  0
    2.5110   -2.0850   29.8990 F   0  0  0  0  0  0  0  0  0  0  0  0
    3.4050   -3.5870   28.4550 F   0  0  0  0  0  0  0  0  0  0  0  0
    5.6730   -4.7480   23.2110 C   0  0  0  0  0  0  0  0  0  0  0  0
    6.4200   -5.2270   22.3940 C   0  0  0  0  0  0  0  0  0  0  0  0
  1  2  1  0
  2  3  2  0
  2  4  1  0
  4  5  1  0
  5  6  1  0
  6  7  1  0
  7  8  1  0
  8  9  2  0
  8 10  1  0
 10 11  1  0
 12 11  1  6
 12 13  1  0
 13 14  1  6
 14 15  1  0
 16 15  1  6
 16 17  1  0
 13 18  1  0
 17 18  1  0
 12 19  1  0
 16 19  1  0
 19 20  1  1
 20 21  1  0
 20 22  1  0
 20 23  1  0
  7 24  1  0
  4 25  1  0
 24 25  1  0
M  END
