piperidine-amides-12729-covalent
     RDKit          3D

 22 24  0  0  0  0  0  0  0  0999 V2000
    7.0560   -3.3290   19.3520 C   0  0  0  0  0  0  0  0  0  0  0  0
    6.3860   -4.1700   20.3690 C   0  0  0  0  0  0  0  0  0  0  0  0
    5.3830   -4.8070   19.9760 O   0  0  0  0  0  0  0  0  0  0  0  0
    6.8780   -4.2800   21.6850 N   0  0  0  0  0  0  0  0  0  0  0  0
    7.6890   -3.2380   22.2400 C   0  0  0  0  0  0  0  0  0  0  0  0
    7.3840   -2.9930   23.6390 C   0  0  0  0  0  0  0  0  0  0  0  0
    6.1050   -3.6170   24.0170 C   0  0  0  0  0  0  0  0  0  0  0  0
    5.6080   -3.2020   25.3590 C   0  0  0  0  0  0  0  0  0  0  0  0
    4.3820   -3.0130   25.4550 O   0  0  0  0  0  0  0  0  0  0  0  0
    6.4170   -3.0160   26.5010 N   0  0  0  0  0  0  0  0  0  0  0  0
    6.4210   -1.6920   27.1860 C   0  0  0  0  0  0  0  0  0  0  0  0
    5.9110   -0.5830   26.4670 C   0  0  0  0  0  0  0  0  0  0  0  0
    6.0090    0.4690   27.2890 N   0  0  0  0  0  0  0  0  0  0  0  0
    6.5470   -0.0460   28.4020 N   0  0  0  0  0  0  0  0  0  0  0  0
    6.7930    0.8210   29.5240 C   0  0  0  0  0  0  0  0  0  0  0  0
    5.7620    0.8790   30.4480 C   0  0  0  0  0  0  0  0  0  0  0  0
    5.9480    0.1710   31.5650 C   0  0  0  0  0  0  0  0  0  0  0  0
    4.8190   -0.4550   31.2420 C   0  0  0  0  0  0  0  0  0  0  0  0
    4.5720    0.2460   30.0510 C   0  0  0  0  0  0  0  0  0  0  0  0
    6.8910   -1.4470   28.5190 C   0  0  0  0  0  0  0  0  0  0  0  0
    6.1450   -5.1160   23.8370 C   0  0  0  0  0  0  0  0  0  0  0  0
    6.6920   -5.4770   22.4910 C   0  0  0  0  0  0  0  0  0  0  0  0
  1  2  1  0
  2  3  2  0
  2  4  1  0
  4  5  1  0
  5  6  1  0
  6  7  1  0
  7  8  1  0
  8  9  2  0
  8 10  1  0
 10 11  1  0
 11 12  1  0
 12 13  2  0
 13 14  1  0
 14 15  1  0
 15 16  1  0
 16 17  1  0
 17 18  1  0
 16 19  1  0
 18 19  1  0
 11 20  2  0
 14 20  1  0
  7 21  1  0
  4 22  1  0
 21 22  1  0
M  END
