piperidine-amides-35316-covalent
     RDKit          3D

 33 34  0  0  0  0  0  0  0  0999 V2000
    7.0980   -3.3200   19.2670 C   0  0  0  0  0  0  0  0  0  0  0  0
    6.4100   -4.1550   20.2810 C   0  0  0  0  0  0  0  0  0  0  0  0
    5.3580   -4.6960   19.9420 O   0  0  0  0  0  0  0  0  0  0  0  0
    6.9890   -4.3480   21.5340 N   0  0  0  0  0  0  0  0  0  0  0  0
    6.5900   -5.4420   22.3580 C   0  0  0  0  0  0  0  0  0  0  0  0
    5.8280   -4.8750   23.5160 C   0  0  0  0  0  0  0  0  0  0  0  0
    6.6120   -3.7230   24.1700 C   0  0  0  0  0  0  0  0  0  0  0  0
    5.7510   -3.1590   25.2210 C   0  0  0  0  0  0  0  0  0  0  0  0
    4.6480   -2.6880   24.9120 O   0  0  0  0  0  0  0  0  0  0  0  0
    6.1520   -3.1530   26.5630 N   0  0  0  0  0  0  0  0  0  0  0  0
    6.5170   -1.8790   27.1890 C   0  0  0  0  0  0  0  0  0  0  0  0
    5.5740   -0.8040   26.7060 C   0  0  0  0  0  0  0  0  0  0  0  0
    5.4920    0.3970   27.3620 C   0  0  0  0  0  0  0  0  0  0  0  0
    5.6860    0.4790   28.7670 N   0  0  0  0  0  0  0  0  0  0  0  0
    4.6640    1.0690   29.5990 C   0  0  0  0  0  0  0  0  0  0  0  0
    5.0850    1.2240   30.9050 O   0  0  0  0  0  0  0  0  0  0  0  0
    3.5280    1.4070   29.2190 O   0  0  0  0  0  0  0  0  0  0  0  0
    3.0420    2.7110   29.4440 C   0  0  0  0  0  0  0  0  0  0  0  0
    2.5450    3.2360   30.7790 C   0  0  0  0  0  0  0  0  0  0  0  0
    1.6190    2.6770   29.7330 C   0  0  0  0  0  0  0  0  0  0  0  0
    2.9950    3.6200   28.2580 C   0  0  0  0  0  0  0  0  0  0  0  0
    6.7240   -0.4860   29.1410 C   0  0  0  0  0  0  0  0  0  0  0  0
    6.6900   -1.9020   28.6570 C   0  0  0  0  0  0  0  0  0  0  0  0
    5.5760   -4.0650   27.5710 C   0  0  2  0  0  0  0  0  0  0  0  0
    6.4630   -4.9260   28.3580 C   0  0  0  0  0  0  0  0  0  0  0  0
    7.4010   -4.3820   29.1310 O   0  0  0  0  0  0  0  0  0  0  0  0
    6.3480   -6.3090   28.3230 O   0  0  0  0  0  0  0  0  0  0  0  0
    5.9380   -7.0340   29.4700 C   0  0  0  0  0  0  0  0  0  0  0  0
    4.5960   -5.0460   27.0170 C   0  0  0  0  0  0  0  0  0  0  0  0
    3.7370   -5.6200   28.1190 C   0  0  0  0  0  0  0  0  0  0  0  0
    5.2420   -6.1420   26.2410 C   0  0  0  0  0  0  0  0  0  0  0  0
    6.9710   -2.7050   23.1090 C   0  0  0  0  0  0  0  0  0  0  0  0
    7.7560   -3.3170   22.1980 C   0  0  0  0  0  0  0  0  0  0  0  0
  1  2  1  0
  2  3  2  0
  2  4  1  0
  4  5  1  0
  5  6  1  0
  6  7  1  0
  7  8  1  0
  8  9  2  0
  8 10  1  0
 10 11  1  0
 11 12  1  0
 12 13  1  0
 13 14  1  0
 14 15  1  0
 15 16  2  0
 15 17  1  0
 18 17  1  0
 18 19  1  0
 18 20  1  0
 18 21  1  0
 14 22  1  0
 11 23  1  0
 22 23  1  0
 10 24  1  0
 24 25  1  6
 25 26  2  0
 25 27  1  0
 27 28  1  0
 24 29  1  0
 29 30  1  0
 29 31  1  0
  7 32  1  0
  4 33  1  0
 32 33  1  0
M  END
