piperidine-amides-675-covalent
     RDKit          3D

 24 25  0  0  0  0  0  0  0  0999 V2000
    7.1510   -3.3050   19.1110 C   0  0  0  0  0  0  0  0  0  0  0  0
    6.3800   -3.9490   20.1510 C   0  0  0  0  0  0  0  0  0  0  0  0
    5.2570   -4.4480   19.8420 O   0  0  0  0  0  0  0  0  0  0  0  0
    6.8520   -4.1020   21.4620 N   0  0  0  0  0  0  0  0  0  0  0  0
    6.7590   -5.4660   22.0460 C   0  0  0  0  0  0  0  0  0  0  0  0
    5.9540   -5.1460   23.3530 C   0  0  0  0  0  0  0  0  0  0  0  0
    6.0540   -3.6520   23.4700 C   0  0  0  0  0  0  0  0  0  0  0  0
    5.2250   -3.1170   24.6770 C   0  0  0  0  0  0  0  0  0  0  0  0
    4.2300   -2.4910   24.3510 O   0  0  0  0  0  0  0  0  0  0  0  0
    5.8420   -3.5010   25.6780 N   0  0  0  0  0  0  0  0  0  0  0  0
    6.4060   -3.8640   26.8090 C   0  0  0  0  0  0  0  0  0  0  0  0
    6.2150   -3.6490   28.0990 C   0  0  2  0  0  0  0  0  0  0  0  0
    6.6360   -2.2020   28.8960 S   0  0  0  0  0  0  0  0  0  0  0  0
    8.2970   -1.7430   29.0550 C   0  0  0  0  0  0  0  0  0  0  0  0
    6.0020   -1.1380   28.0980 O   0  0  0  0  0  0  0  0  0  0  0  0
    5.9950   -2.2430   30.2360 O   0  0  0  0  0  0  0  0  0  0  0  0
    6.3350   -4.9180   28.8800 C   0  0  0  0  0  0  0  0  0  0  0  0
    4.9260   -4.2090   28.6870 C   0  0  2  0  0  0  0  0  0  0  0  0
    4.3950   -5.4620   28.3210 C   0  0  0  0  0  0  0  0  0  0  0  0
    4.9880   -6.4140   29.1340 F   0  0  0  0  0  0  0  0  0  0  0  0
    4.6930   -5.8350   27.0030 F   0  0  0  0  0  0  0  0  0  0  0  0
    3.0470   -5.5030   28.5210 F   0  0  0  0  0  0  0  0  0  0  0  0
    7.4710   -3.1480   23.4890 C   0  0  0  0  0  0  0  0  0  0  0  0
    7.7850   -3.1180   22.0120 C   0  0  0  0  0  0  0  0  0  0  0  0
  1  2  1  0
  2  3  2  0
  2  4  1  0
  4  5  1  0
  5  6  1  0
  6  7  1  0
  7  8  1  0
  8  9  2  0
  8 10  1  0
 10 11  1  0
 12 11  1  6
 12 13  1  0
 13 14  1  0
 13 15  2  0
 13 16  2  0
 12 17  1  0
 12 18  1  0
 17 18  1  0
 18 19  1  6
 19 20  1  0
 19 21  1  0
 19 22  1  0
  7 23  1  0
  4 24  1  0
 23 24  1  0
M  END
