piperidine-amides-11179-covalent
     RDKit          3D

 20 21  0  0  0  0  0  0  0  0999 V2000
    7.0720   -3.2860   19.2640 C   0  0  0  0  0  0  0  0  0  0  0  0
    6.3360   -4.0460   20.2830 C   0  0  0  0  0  0  0  0  0  0  0  0
    5.3290   -4.6850   19.9370 O   0  0  0  0  0  0  0  0  0  0  0  0
    6.7620   -4.1030   21.6260 N   0  0  0  0  0  0  0  0  0  0  0  0
    7.7150   -3.1460   22.1580 C   0  0  0  0  0  0  0  0  0  0  0  0
    7.3300   -2.8860   23.5840 C   0  0  0  0  0  0  0  0  0  0  0  0
    6.0700   -3.6070   23.9420 C   0  0  0  0  0  0  0  0  0  0  0  0
    5.6150   -3.3400   25.3300 C   0  0  0  0  0  0  0  0  0  0  0  0
    4.3860   -3.1530   25.5670 O   0  0  0  0  0  0  0  0  0  0  0  0
    6.4950   -3.2660   26.4310 N   0  0  0  0  0  0  0  0  0  0  0  0
    6.1150   -3.7780   27.7760 C   0  0  0  0  0  0  0  0  0  0  0  0
    6.2750   -5.2570   27.8330 C   0  0  0  0  0  0  0  0  0  0  0  0
    5.1760   -6.1090   28.3100 C   0  0  0  0  0  0  0  0  0  0  0  0
    5.3170   -7.2200   29.3060 C   0  0  0  0  0  0  0  0  0  0  0  0
    3.9420   -7.7680   29.4510 C   0  0  0  0  0  0  0  0  0  0  0  0
    3.1750   -6.9150   28.5260 C   0  0  0  0  0  0  0  0  0  0  0  0
    1.2970   -7.1760   28.2960 Br  0  0  0  0  0  0  0  0  0  0  0  0
    3.9840   -5.9710   27.9050 O   0  0  0  0  0  0  0  0  0  0  0  0
    6.2440   -5.0890   23.6850 C   0  0  0  0  0  0  0  0  0  0  0  0
    6.5490   -5.3500   22.3340 C   0  0  0  0  0  0  0  0  0  0  0  0
  1  2  1  0
  2  3  2  0
  2  4  1  0
  4  5  1  0
  5  6  1  0
  6  7  1  0
  7  8  1  0
  8  9  2  0
  8 10  1  0
 10 11  1  0
 11 12  1  0
 12 13  1  0
 13 14  2  0
 14 15  1  0
 15 16  2  0
 16 17  1  0
 13 18  1  0
 16 18  1  0
  7 19  1  0
  4 20  1  0
 19 20  1  0
M  END
