piperidine-amides-19161-covalent
     RDKit          3D

 21 22  0  0  0  0  0  0  0  0999 V2000
    7.0010   -3.4270   19.3480 C   0  0  0  0  0  0  0  0  0  0  0  0
    6.3780   -4.2150   20.3940 C   0  0  0  0  0  0  0  0  0  0  0  0
    5.4290   -4.9740   20.0200 O   0  0  0  0  0  0  0  0  0  0  0  0
    6.8040   -4.2020   21.7530 N   0  0  0  0  0  0  0  0  0  0  0  0
    6.7450   -5.5250   22.4470 C   0  0  0  0  0  0  0  0  0  0  0  0
    6.0440   -5.1940   23.8290 C   0  0  0  0  0  0  0  0  0  0  0  0
    6.4090   -3.7630   24.1220 C   0  0  0  0  0  0  0  0  0  0  0  0
    5.5120   -3.1320   25.2940 C   0  0  0  0  0  0  0  0  0  0  0  0
    4.5960   -2.5310   24.7600 O   0  0  0  0  0  0  0  0  0  0  0  0
    5.8840   -3.3690   26.5060 N   0  0  0  0  0  0  0  0  0  0  0  0
    6.4340   -3.2840   27.7520 C   0  0  0  0  0  0  0  0  0  0  0  0
    6.7080   -4.1350   28.8030 C   0  0  0  0  0  0  0  0  0  0  0  0
    6.2040   -5.4200   28.5700 C   0  0  0  0  0  0  0  0  0  0  0  0
    5.2410   -6.0640   29.5050 C   0  0  0  0  0  0  0  0  0  0  0  0
    5.1120   -7.3300   28.6310 C   0  0  0  0  0  0  0  0  0  0  0  0
    4.0430   -5.3470   29.5600 F   0  0  0  0  0  0  0  0  0  0  0  0
    5.8350   -6.3260   30.7260 F   0  0  0  0  0  0  0  0  0  0  0  0
    5.2450   -5.4140   27.4680 C   0  0  0  0  0  0  0  0  0  0  0  0
    4.8700   -4.0950   27.1970 C   0  0  0  0  0  0  0  0  0  0  0  0
    7.7430   -3.3750   23.8290 C   0  0  0  0  0  0  0  0  0  0  0  0
    7.6910   -3.2070   22.2740 C   0  0  0  0  0  0  0  0  0  0  0  0
  1  2  1  0
  2  3  2  0
  2  4  1  0
  4  5  1  0
  5  6  1  0
  6  7  1  0
  7  8  1  0
  8  9  2  0
  8 10  1  0
 10 11  1  0
 11 12  1  0
 12 13  1  0
 13 14  1  0
 14 15  1  0
 14 16  1  0
 14 17  1  0
 13 18  1  0
 10 19  1  0
 18 19  1  0
  7 20  1  0
  4 21  1  0
 20 21  1  0
M  END
