piperidine-amides-7412-covalent
     RDKit          3D

 18 18  0  0  0  0  0  0  0  0999 V2000
    7.0560   -3.2770   19.2640 C   0  0  0  0  0  0  0  0  0  0  0  0
    6.3330   -4.0490   20.2840 C   0  0  0  0  0  0  0  0  0  0  0  0
    5.2730   -4.6120   19.9010 O   0  0  0  0  0  0  0  0  0  0  0  0
    6.8170   -4.1900   21.5920 N   0  0  0  0  0  0  0  0  0  0  0  0
    6.6540   -5.4180   22.3300 C   0  0  0  0  0  0  0  0  0  0  0  0
    6.0440   -5.0620   23.6540 C   0  0  0  0  0  0  0  0  0  0  0  0
    6.0740   -3.5710   23.8600 C   0  0  0  0  0  0  0  0  0  0  0  0
    5.6680   -3.2270   25.2450 C   0  0  0  0  0  0  0  0  0  0  0  0
    4.4570   -3.0110   25.4680 O   0  0  0  0  0  0  0  0  0  0  0  0
    6.5830   -3.1200   26.3090 N   0  0  0  0  0  0  0  0  0  0  0  0
    6.1820   -3.2210   27.6940 C   0  0  0  0  0  0  0  0  0  0  0  0
    5.6360   -4.5800   28.1420 C   0  0  2  0  0  0  0  0  0  0  0  0
    6.3110   -5.2420   28.9660 O   0  0  0  0  0  0  0  0  0  0  0  0
    5.0820   -5.5120   27.3090 C   0  0  0  0  0  0  0  0  0  0  0  0
    4.2690   -6.4430   27.8850 F   0  0  0  0  0  0  0  0  0  0  0  0
    6.0110   -6.0770   26.5070 F   0  0  0  0  0  0  0  0  0  0  0  0
    7.4440   -3.0360   23.5290 C   0  0  0  0  0  0  0  0  0  0  0  0
    7.6450   -3.0910   22.1530 C   0  0  0  0  0  0  0  0  0  0  0  0
  1  2  1  0
  2  3  2  0
  2  4  1  0
  4  5  1  0
  5  6  1  0
  6  7  1  0
  7  8  1  0
  8  9  2  0
  8 10  1  0
 10 11  1  0
 11 12  1  0
 12 13  1  6
 12 14  1  0
 14 15  1  0
 14 16  1  0
  7 17  1  0
  4 18  1  0
 17 18  1  0
M  END
