piperidine-amides-27804-covalent
     RDKit          3D

 26 28  0  0  0  0  0  0  0  0999 V2000
    7.1850   -3.3150   19.1720 C   0  0  0  0  0  0  0  0  0  0  0  0
    6.4190   -4.0320   20.2010 C   0  0  0  0  0  0  0  0  0  0  0  0
    5.3070   -4.4950   19.8740 O   0  0  0  0  0  0  0  0  0  0  0  0
    6.9910   -4.2310   21.4510 N   0  0  0  0  0  0  0  0  0  0  0  0
    6.5800   -5.3170   22.2570 C   0  0  0  0  0  0  0  0  0  0  0  0
    5.9520   -4.8750   23.4890 C   0  0  0  0  0  0  0  0  0  0  0  0
    6.5980   -3.6990   24.1370 C   0  0  0  0  0  0  0  0  0  0  0  0
    5.8460   -3.3020   25.3530 C   0  0  0  0  0  0  0  0  0  0  0  0
    4.9120   -2.4930   25.2300 O   0  0  0  0  0  0  0  0  0  0  0  0
    6.1470   -3.8350   26.6190 N   0  0  0  0  0  0  0  0  0  0  0  0
    6.0550   -2.9910   27.8260 C   0  0  0  0  0  0  0  0  0  0  0  0
    5.6590   -3.7800   29.0250 C   0  0  0  0  0  0  0  0  0  0  0  0
    6.3000   -5.0570   29.3170 C   0  0  0  0  0  0  0  0  0  0  0  0
    5.4880   -6.0860   28.7990 N   0  0  0  0  0  0  0  0  0  0  0  0
    5.4010   -7.3960   29.3140 C   0  0  0  0  0  0  0  0  0  0  0  0
    4.7410   -7.5670   30.5080 C   0  0  0  0  0  0  0  0  0  0  0  0
    3.3980   -7.8210   30.4920 C   0  0  0  0  0  0  0  0  0  0  0  0
    2.6870   -8.0060   31.6530 C   0  0  0  0  0  0  0  0  0  0  0  0
    3.2770   -7.9460   32.8890 C   0  0  0  0  0  0  0  0  0  0  0  0
    4.6430   -7.6900   32.9540 C   0  0  0  0  0  0  0  0  0  0  0  0
    5.3860   -7.4970   31.7050 C   0  0  0  0  0  0  0  0  0  0  0  0
    4.8760   -5.7930   27.6100 C   0  0  0  0  0  0  0  0  0  0  0  0
    5.8410   -5.2430   26.6610 C   0  0  1  0  0  0  0  0  0  0  0  0
    5.5180   -5.6150   25.3580 C   0  0  0  0  0  0  0  0  0  0  0  0
    6.9870   -2.6520   23.2100 C   0  0  0  0  0  0  0  0  0  0  0  0
    7.7960   -3.1990   22.1000 C   0  0  0  0  0  0  0  0  0  0  0  0
  1  2  1  0
  2  3  2  0
  2  4  1  0
  4  5  1  0
  5  6  1  0
  6  7  1  0
  7  8  1  0
  8  9  2  0
  8 10  1  0
 10 11  1  0
 11 12  1  0
 12 13  1  0
 13 14  1  0
 14 15  1  0
 15 16  1  0
 16 17  2  0
 17 18  1  0
 18 19  2  0
 19 20  1  0
 16 21  1  0
 20 21  2  0
 14 22  1  0
 10 23  1  0
 22 23  1  0
 23 24  1  6
  7 25  1  0
  4 26  1  0
 25 26  1  0
M  END
