piperidine-amides-9215-covalent
     RDKit          3D

 20 21  0  0  0  0  0  0  0  0999 V2000
    7.1050   -3.3550   19.3050 C   0  0  0  0  0  0  0  0  0  0  0  0
    6.3680   -4.1290   20.2980 C   0  0  0  0  0  0  0  0  0  0  0  0
    5.3450   -4.7410   19.9530 O   0  0  0  0  0  0  0  0  0  0  0  0
    6.8430   -4.2340   21.6110 N   0  0  0  0  0  0  0  0  0  0  0  0
    7.7170   -3.2510   22.1990 C   0  0  0  0  0  0  0  0  0  0  0  0
    6.9650   -2.7010   23.3740 C   0  0  0  0  0  0  0  0  0  0  0  0
    6.4740   -3.7960   24.2710 C   0  0  0  0  0  0  0  0  0  0  0  0
    5.6910   -3.2850   25.4270 C   0  0  0  0  0  0  0  0  0  0  0  0
    4.4370   -3.1530   25.3270 O   0  0  0  0  0  0  0  0  0  0  0  0
    6.2650   -2.9240   26.6680 N   0  0  0  0  0  0  0  0  0  0  0  0
    6.6600   -1.5140   26.9460 C   0  0  2  0  0  0  0  0  0  0  0  0
    7.0650   -1.4450   28.3720 C   0  0  0  0  0  0  0  0  0  0  0  0
    6.7770   -0.3220   29.2810 C   0  0  0  0  0  0  0  0  0  0  0  0
    5.9970    0.8300   28.7120 C   0  0  0  0  0  0  0  0  0  0  0  0
    6.7360    2.1400   28.5120 C   0  0  0  0  0  0  0  0  0  0  0  0
    4.6640    0.9890   29.4680 C   0  0  0  0  0  0  0  0  0  0  0  0
    5.7490    0.6740   27.2270 C   0  0  0  0  0  0  0  0  0  0  0  0
    5.5120   -0.5920   26.6590 C   0  0  0  0  0  0  0  0  0  0  0  0
    5.6220   -4.8500   23.5400 C   0  0  0  0  0  0  0  0  0  0  0  0
    6.4760   -5.3910   22.3880 C   0  0  0  0  0  0  0  0  0  0  0  0
  1  2  1  0
  2  3  2  0
  2  4  1  0
  4  5  1  0
  5  6  1  0
  6  7  1  0
  7  8  1  0
  8  9  2  0
  8 10  1  0
 11 10  1  1
 11 12  1  0
 12 13  2  0
 13 14  1  0
 14 15  1  0
 14 16  1  0
 14 17  1  0
 11 18  1  0
 17 18  1  0
  7 19  1  0
  4 20  1  0
 19 20  1  0
M  END
