piperidine-amides-14007-covalent
     RDKit          3D

 25 26  0  0  0  0  0  0  0  0999 V2000
    7.1340   -3.2610   19.1880 C   0  0  0  0  0  0  0  0  0  0  0  0
    6.3640   -4.0280   20.2060 C   0  0  0  0  0  0  0  0  0  0  0  0
    5.2830   -4.5510   19.8830 O   0  0  0  0  0  0  0  0  0  0  0  0
    6.9100   -4.1840   21.4910 N   0  0  0  0  0  0  0  0  0  0  0  0
    7.7420   -3.1500   22.0770 C   0  0  0  0  0  0  0  0  0  0  0  0
    7.3550   -3.0590   23.5490 C   0  0  0  0  0  0  0  0  0  0  0  0
    5.9580   -3.5600   23.6220 C   0  0  0  0  0  0  0  0  0  0  0  0
    5.1790   -2.9300   24.7030 C   0  0  0  0  0  0  0  0  0  0  0  0
    4.0050   -3.2840   24.8300 O   0  0  0  0  0  0  0  0  0  0  0  0
    5.7830   -1.9850   25.5210 N   0  0  0  0  0  0  0  0  0  0  0  0
    6.3770   -2.3300   26.7270 C   0  0  1  0  0  0  0  0  0  0  0  0
    5.8970   -3.4570   27.4020 C   0  0  0  0  0  0  0  0  0  0  0  0
    4.4480   -3.2300   27.4710 O   0  0  0  0  0  0  0  0  0  0  0  0
    3.7560   -3.8180   28.5270 C   0  0  0  0  0  0  0  0  0  0  0  0
    3.4330   -5.2410   28.5300 N   0  0  0  0  0  0  0  0  0  0  0  0
    3.2860   -3.1560   29.6420 O   0  0  0  0  0  0  0  0  0  0  0  0
    7.7620   -2.4890   26.7380 C   0  0  0  0  0  0  0  0  0  0  0  0
    7.9340   -3.8420   27.1260 C   0  0  0  0  0  0  0  0  0  0  0  0
    8.7600   -4.9160   26.4730 C   0  0  0  0  0  0  0  0  0  0  0  0
    8.6390   -6.1680   27.2300 C   0  0  0  0  0  0  0  0  0  0  0  0
    7.8650   -6.3080   28.3530 C   0  0  0  0  0  0  0  0  0  0  0  0
    7.0080   -5.3920   29.0890 C   0  0  0  0  0  0  0  0  0  0  0  0
    7.1350   -4.1050   28.3450 C   0  0  0  0  0  0  0  0  0  0  0  0
    6.0340   -5.0250   23.6200 C   0  0  0  0  0  0  0  0  0  0  0  0
    6.6300   -5.3800   22.2430 C   0  0  0  0  0  0  0  0  0  0  0  0
  1  2  1  0
  2  3  2  0
  2  4  1  0
  4  5  1  0
  5  6  1  0
  6  7  1  0
  7  8  1  0
  8  9  2  0
  8 10  1  0
 10 11  1  0
 11 12  1  6
 12 13  1  0
 13 14  1  0
 14 15  1  0
 14 16  2  0
 11 17  1  0
 17 18  1  0
 18 19  2  0
 19 20  1  0
 20 21  2  0
 21 22  1  0
 18 23  1  0
 22 23  2  0
  7 24  1  0
  4 25  1  0
 24 25  1  0
M  END
