piperidine-amides-23290-covalent
     RDKit          3D

 24 26  0  0  0  0  0  0  0  0999 V2000
    7.0830   -3.3600   19.3910 C   0  0  0  0  0  0  0  0  0  0  0  0
    6.4380   -4.2370   20.3800 C   0  0  0  0  0  0  0  0  0  0  0  0
    5.4040   -4.8400   19.9900 O   0  0  0  0  0  0  0  0  0  0  0  0
    6.9840   -4.4390   21.6820 N   0  0  0  0  0  0  0  0  0  0  0  0
    6.6420   -5.5970   22.4130 C   0  0  0  0  0  0  0  0  0  0  0  0
    6.4020   -5.2520   23.8000 C   0  0  0  0  0  0  0  0  0  0  0  0
    6.0420   -3.8290   23.9600 C   0  0  0  0  0  0  0  0  0  0  0  0
    5.7320   -3.4200   25.3770 C   0  0  0  0  0  0  0  0  0  0  0  0
    4.8090   -2.6060   25.5490 O   0  0  0  0  0  0  0  0  0  0  0  0
    6.4000   -3.9050   26.5240 N   0  0  0  0  0  0  0  0  0  0  0  0
    7.0380   -5.1300   26.6710 C   0  0  0  0  0  0  0  0  0  0  0  0
    7.1370   -5.4680   28.0670 C   0  0  0  0  0  0  0  0  0  0  0  0
    6.0630   -4.5170   28.6640 C   0  0  2  0  0  0  0  0  0  0  0  0
    4.9750   -5.4760   28.8970 N   0  0  0  0  0  0  0  0  0  0  0  0
    4.7940   -6.3140   27.7470 C   0  0  0  0  0  0  0  0  0  0  0  0
    4.8430   -6.0150   30.1970 C   0  0  0  0  0  0  0  0  0  0  0  0
    3.7790   -5.3210   31.0190 C   0  0  0  0  0  0  0  0  0  0  0  0
    3.7220   -5.9810   32.4180 C   0  0  0  0  0  0  0  0  0  0  0  0
    4.5160   -7.1180   33.0030 C   0  0  0  0  0  0  0  0  0  0  0  0
    5.5440   -7.7430   32.1120 C   0  0  0  0  0  0  0  0  0  0  0  0
    5.6760   -7.1630   30.7130 C   0  0  0  0  0  0  0  0  0  0  0  0
    5.9210   -3.4170   27.8030 C   0  0  0  0  0  0  0  0  0  0  0  0
    6.9300   -2.8290   23.2720 C   0  0  0  0  0  0  0  0  0  0  0  0
    7.7820   -3.4410   22.3600 C   0  0  0  0  0  0  0  0  0  0  0  0
  1  2  1  0
  2  3  2  0
  2  4  1  0
  4  5  1  0
  5  6  1  0
  6  7  1  0
  7  8  1  0
  8  9  2  0
  8 10  1  0
 10 11  1  0
 11 12  1  0
 12 13  1  0
 13 14  1  6
 14 15  1  0
 14 16  1  0
 16 17  2  0
 17 18  1  0
 18 19  2  0
 19 20  1  0
 16 21  1  0
 20 21  2  0
 10 22  1  0
 13 22  1  0
  7 23  1  0
  4 24  1  0
 23 24  1  0
M  END
