piperidine-amides-24580-covalent
     RDKit          3D

 24 26  0  0  0  0  0  0  0  0999 V2000
    7.0440   -3.3360   19.3370 C   0  0  0  0  0  0  0  0  0  0  0  0
    6.3890   -4.1830   20.3430 C   0  0  0  0  0  0  0  0  0  0  0  0
    5.4200   -4.9000   20.0020 O   0  0  0  0  0  0  0  0  0  0  0  0
    6.8600   -4.2330   21.6690 N   0  0  0  0  0  0  0  0  0  0  0  0
    7.7220   -3.1650   22.1720 C   0  0  0  0  0  0  0  0  0  0  0  0
    7.5060   -3.0220   23.6850 C   0  0  0  0  0  0  0  0  0  0  0  0
    6.0820   -3.4460   23.8920 C   0  0  0  0  0  0  0  0  0  0  0  0
    5.4700   -2.9850   25.1640 C   0  0  0  0  0  0  0  0  0  0  0  0
    4.3090   -2.5380   25.0840 O   0  0  0  0  0  0  0  0  0  0  0  0
    6.1170   -3.0400   26.4270 N   0  0  0  0  0  0  0  0  0  0  0  0
    6.5730   -1.7590   26.9960 C   0  0  0  0  0  0  0  0  0  0  0  0
    6.5770   -1.8420   28.5030 C   0  0  0  0  0  0  0  0  0  0  0  0
    6.8590   -0.6780   29.1450 C   0  0  0  0  0  0  0  0  0  0  0  0
    6.2080    0.4390   28.6690 C   0  0  0  0  0  0  0  0  0  0  0  0
    5.8510    0.5020   27.3100 C   0  0  0  0  0  0  0  0  0  0  0  0
    5.5770   -0.6950   26.6690 C   0  0  0  0  0  0  0  0  0  0  0  0
    5.6510   -4.2100   27.2190 C   0  0  0  0  0  0  0  0  0  0  0  0
    6.2390   -4.3050   28.5940 C   0  0  0  0  0  0  0  0  0  0  0  0
    5.9100   -5.6020   29.2390 C   0  0  0  0  0  0  0  0  0  0  0  0
    4.8480   -6.1330   28.6790 O   0  0  0  0  0  0  0  0  0  0  0  0
    3.9210   -5.1040   28.3740 C   0  0  0  0  0  0  0  0  0  0  0  0
    4.2980   -4.4420   27.1850 C   0  0  0  0  0  0  0  0  0  0  0  0
    6.0490   -4.9660   23.8050 C   0  0  0  0  0  0  0  0  0  0  0  0
    6.6260   -5.4100   22.4830 C   0  0  0  0  0  0  0  0  0  0  0  0
  1  2  1  0
  2  3  2  0
  2  4  1  0
  4  5  1  0
  5  6  1  0
  6  7  1  0
  7  8  1  0
  8  9  2  0
  8 10  1  0
 10 11  1  0
 11 12  1  0
 12 13  1  0
 13 14  1  0
 14 15  1  0
 11 16  1  0
 15 16  1  0
 10 17  1  0
 17 18  1  0
 18 19  1  0
 19 20  1  0
 20 21  1  0
 17 22  1  0
 21 22  1  0
  7 23  1  0
  4 24  1  0
 23 24  1  0
M  END
