piperidine-amides-31433-covalent
     RDKit          3D

 28 30  0  0  0  0  0  0  0  0999 V2000
    7.0860   -3.3420   19.4370 C   0  0  0  0  0  0  0  0  0  0  0  0
    6.3900   -4.1840   20.3830 C   0  0  0  0  0  0  0  0  0  0  0  0
    5.3980   -4.8700   19.9810 O   0  0  0  0  0  0  0  0  0  0  0  0
    6.8040   -4.2890   21.7200 N   0  0  0  0  0  0  0  0  0  0  0  0
    6.5320   -5.5500   22.4460 C   0  0  0  0  0  0  0  0  0  0  0  0
    5.5100   -5.0190   23.5250 C   0  0  0  0  0  0  0  0  0  0  0  0
    6.3160   -4.1330   24.4510 C   0  0  0  0  0  0  0  0  0  0  0  0
    5.3980   -3.0430   25.1760 C   0  0  0  0  0  0  0  0  0  0  0  0
    5.0910   -2.1950   24.3670 O   0  0  0  0  0  0  0  0  0  0  0  0
    5.1610   -3.2860   26.4220 N   0  0  0  0  0  0  0  0  0  0  0  0
    4.4830   -3.3810   27.5920 C   0  0  0  0  0  0  0  0  0  0  0  0
    4.3720   -4.2730   28.6150 C   0  0  0  0  0  0  0  0  0  0  0  0
    5.6310   -4.6830   29.0310 C   0  0  0  0  0  0  0  0  0  0  0  0
    5.8050   -5.8990   29.5700 N   0  0  0  0  0  0  0  0  0  0  0  0
    4.7390   -6.2870   30.3870 C   0  0  0  0  0  0  0  0  0  0  0  0
    3.6450   -5.4630   30.6670 O   0  0  0  0  0  0  0  0  0  0  0  0
    4.8480   -7.7100   30.9540 C   0  0  0  0  0  0  0  0  0  0  0  0
    4.5700   -7.3460   32.2910 C   0  0  0  0  0  0  0  0  0  0  0  0
    5.3500   -7.9870   33.2900 C   0  0  0  0  0  0  0  0  0  0  0  0
    5.5410   -6.6430   33.8900 C   0  0  0  0  0  0  0  0  0  0  0  0
    6.4220   -6.6640   35.1630 C   0  0  0  0  0  0  0  0  0  0  0  0
    6.9020   -7.9070   35.5700 C   0  0  0  0  0  0  0  0  0  0  0  0
    6.6200   -9.1050   34.8850 C   0  0  0  0  0  0  0  0  0  0  0  0
    5.8470   -9.1470   33.7480 C   0  0  0  0  0  0  0  0  0  0  0  0
    6.5330   -4.6170   28.0330 C   0  0  0  0  0  0  0  0  0  0  0  0
    6.3490   -3.5160   27.1660 C   0  0  0  0  0  0  0  0  0  0  0  0
    7.5960   -3.5870   23.8880 C   0  0  0  0  0  0  0  0  0  0  0  0
    7.5810   -3.3050   22.4170 C   0  0  0  0  0  0  0  0  0  0  0  0
  1  2  1  0
  2  3  2  0
  2  4  1  0
  4  5  1  0
  5  6  1  0
  6  7  1  0
  7  8  1  0
  8  9  2  0
  8 10  1  0
 10 11  1  0
 11 12  1  0
 12 13  1  0
 13 14  1  0
 14 15  1  0
 15 16  2  0
 15 17  1  0
 17 18  1  0
 18 19  1  0
 19 20  2  0
 20 21  1  0
 21 22  2  0
 22 23  1  0
 19 24  1  0
 23 24  2  0
 13 25  1  0
 10 26  1  0
 25 26  1  0
  7 27  1  0
  4 28  1  0
 27 28  1  0
M  END
