piperidine-amides-30604-covalent
     RDKit          3D

 27 29  0  0  0  0  0  0  0  0999 V2000
    7.0880   -3.3350   19.2930 C   0  0  0  0  0  0  0  0  0  0  0  0
    6.3820   -4.1280   20.2960 C   0  0  0  0  0  0  0  0  0  0  0  0
    5.3640   -4.7600   19.9640 O   0  0  0  0  0  0  0  0  0  0  0  0
    6.8730   -4.2220   21.6060 N   0  0  0  0  0  0  0  0  0  0  0  0
    7.8210   -3.2490   22.1170 C   0  0  0  0  0  0  0  0  0  0  0  0
    7.5440   -3.1290   23.5870 C   0  0  0  0  0  0  0  0  0  0  0  0
    6.2440   -3.7880   23.9230 C   0  0  0  0  0  0  0  0  0  0  0  0
    5.6820   -3.3680   25.2240 C   0  0  0  0  0  0  0  0  0  0  0  0
    4.7990   -2.4650   25.2520 O   0  0  0  0  0  0  0  0  0  0  0  0
    6.0250   -3.9050   26.4710 N   0  0  0  0  0  0  0  0  0  0  0  0
    5.6250   -3.0500   27.6170 C   0  0  0  0  0  0  0  0  0  0  0  0
    5.9840   -3.6540   28.9100 C   0  0  0  0  0  0  0  0  0  0  0  0
    5.5290   -4.9070   28.9320 N   0  0  0  0  0  0  0  0  0  0  0  0
    4.1420   -5.2130   28.9310 C   0  0  0  0  0  0  0  0  0  0  0  0
    3.2880   -4.7230   28.1680 O   0  0  0  0  0  0  0  0  0  0  0  0
    3.8430   -6.2310   30.0070 C   0  0  0  0  0  0  0  0  0  0  0  0
    5.0500   -6.7020   30.8320 C   0  0  0  0  0  0  0  0  0  0  0  0
    4.7350   -7.7030   31.9090 C   0  0  0  0  0  0  0  0  0  0  0  0
    5.8340   -8.1130   32.6570 F   0  0  0  0  0  0  0  0  0  0  0  0
    3.4610   -8.1540   32.1150 C   0  0  0  0  0  0  0  0  0  0  0  0
    2.4090   -7.7080   31.3450 C   0  0  0  0  0  0  0  0  0  0  0  0
    2.5900   -6.7120   30.2500 C   0  0  0  0  0  0  0  0  0  0  0  0
    1.4860   -6.2930   29.5070 F   0  0  0  0  0  0  0  0  0  0  0  0
    6.0410   -5.7890   27.9490 C   0  0  0  0  0  0  0  0  0  0  0  0
    5.9080   -5.3590   26.5280 C   0  0  0  0  0  0  0  0  0  0  0  0
    6.3760   -5.2570   23.7080 C   0  0  0  0  0  0  0  0  0  0  0  0
    6.6450   -5.4710   22.2670 C   0  0  0  0  0  0  0  0  0  0  0  0
  1  2  1  0
  2  3  2  0
  2  4  1  0
  4  5  1  0
  5  6  1  0
  6  7  1  0
  7  8  1  0
  8  9  2  0
  8 10  1  0
 10 11  1  0
 11 12  1  0
 12 13  1  0
 13 14  1  0
 14 15  2  0
 14 16  1  0
 16 17  2  0
 17 18  1  0
 18 19  1  0
 18 20  2  0
 20 21  1  0
 16 22  1  0
 21 22  2  0
 22 23  1  0
 13 24  1  0
 10 25  1  0
 24 25  1  0
  7 26  1  0
  4 27  1  0
 26 27  1  0
M  END
