piperidine-amides-24779-covalent
     RDKit          3D

 24 25  0  0  0  0  0  0  0  0999 V2000
    7.1360   -3.2730   19.1990 C   0  0  0  0  0  0  0  0  0  0  0  0
    6.3460   -4.0190   20.1910 C   0  0  0  0  0  0  0  0  0  0  0  0
    5.2550   -4.5340   19.8750 O   0  0  0  0  0  0  0  0  0  0  0  0
    6.8400   -4.2170   21.4810 N   0  0  0  0  0  0  0  0  0  0  0  0
    7.6180   -3.1820   22.1230 C   0  0  0  0  0  0  0  0  0  0  0  0
    6.7680   -2.6530   23.2740 C   0  0  0  0  0  0  0  0  0  0  0  0
    6.5580   -3.8410   24.1780 C   0  0  0  0  0  0  0  0  0  0  0  0
    5.7670   -3.4240   25.3490 C   0  0  0  0  0  0  0  0  0  0  0  0
    4.5240   -3.3660   25.2300 O   0  0  0  0  0  0  0  0  0  0  0  0
    6.4190   -3.0980   26.5660 N   0  0  0  0  0  0  0  0  0  0  0  0
    6.5010   -1.7170   26.9810 C   0  0  0  0  0  0  0  0  0  0  0  0
    5.7090   -0.8500   26.0150 C   0  0  0  0  0  0  0  0  0  0  0  0
    6.3430   -0.5060   24.7980 O   0  0  0  0  0  0  0  0  0  0  0  0
    4.3700   -0.4420   26.4070 N   0  0  0  0  0  0  0  0  0  0  0  0
    3.2110   -0.6090   25.5430 C   0  0  0  0  0  0  0  0  0  0  0  0
    6.3150   -3.4780   27.9580 C   0  0  0  0  0  0  0  0  0  0  0  0
    5.8950   -4.8150   27.9970 C   0  0  0  0  0  0  0  0  0  0  0  0
    6.6700   -5.8710   27.5790 O   0  0  0  0  0  0  0  0  0  0  0  0
    4.5880   -5.1150   28.5160 N   0  0  0  0  0  0  0  0  0  0  0  0
    4.5080   -6.1490   29.5370 C   0  0  0  0  0  0  0  0  0  0  0  0
    4.1100   -7.4680   28.8810 C   0  0  0  0  0  0  0  0  0  0  0  0
    3.2960   -6.8790   29.9910 C   0  0  0  0  0  0  0  0  0  0  0  0
    5.8730   -4.9860   23.5450 C   0  0  0  0  0  0  0  0  0  0  0  0
    6.4110   -5.3380   22.2380 C   0  0  0  0  0  0  0  0  0  0  0  0
  1  2  1  0
  2  3  2  0
  2  4  1  0
  4  5  1  0
  5  6  1  0
  6  7  1  0
  7  8  1  0
  8  9  2  0
  8 10  1  0
 10 11  1  0
 11 12  1  0
 12 13  2  0
 12 14  1  0
 14 15  1  0
 10 16  1  0
 16 17  1  0
 17 18  2  0
 17 19  1  0
 19 20  1  0
 20 21  1  0
 20 22  1  0
 21 22  1  0
  7 23  1  0
  4 24  1  0
 23 24  1  0
M  END
