piperidine-amides-12773-covalent
     RDKit          3D

 22 24  0  0  0  0  0  0  0  0999 V2000
    7.1260   -3.3090   19.2390 C   0  0  0  0  0  0  0  0  0  0  0  0
    6.3640   -4.0760   20.2450 C   0  0  0  0  0  0  0  0  0  0  0  0
    5.2790   -4.5650   19.8840 O   0  0  0  0  0  0  0  0  0  0  0  0
    6.8880   -4.2840   21.5220 N   0  0  0  0  0  0  0  0  0  0  0  0
    7.6270   -3.2390   22.1610 C   0  0  0  0  0  0  0  0  0  0  0  0
    7.0870   -2.8040   23.4440 C   0  0  0  0  0  0  0  0  0  0  0  0
    6.4660   -3.8760   24.2380 C   0  0  0  0  0  0  0  0  0  0  0  0
    5.7240   -3.2970   25.3820 C   0  0  0  0  0  0  0  0  0  0  0  0
    4.5150   -3.0430   25.2340 O   0  0  0  0  0  0  0  0  0  0  0  0
    6.3640   -3.0410   26.6070 N   0  0  0  0  0  0  0  0  0  0  0  0
    6.3990   -1.7060   27.2450 C   0  0  0  0  0  0  0  0  0  0  0  0
    6.9920   -1.6130   28.5810 C   0  0  0  0  0  0  0  0  0  0  0  0
    7.0450   -0.3440   29.2520 C   0  0  0  0  0  0  0  0  0  0  0  0
    6.5240    0.7500   28.5850 C   0  0  0  0  0  0  0  0  0  0  0  0
    5.9620    0.6720   27.3160 C   0  0  0  0  0  0  0  0  0  0  0  0
    5.8780   -0.5130   26.6180 C   0  0  0  0  0  0  0  0  0  0  0  0
    5.5580    2.0850   27.0390 C   0  0  0  0  0  0  0  0  0  0  0  0
    6.2110    2.7280   28.0730 C   0  0  2  0  0  0  0  0  0  0  0  0
    7.3340    3.3970   27.5800 C   0  0  0  0  0  0  0  0  0  0  0  0
    6.5310    1.8770   29.0860 O   0  0  0  0  0  0  0  0  0  0  0  0
    5.6640   -4.8700   23.4910 C   0  0  0  0  0  0  0  0  0  0  0  0
    6.4830   -5.4090   22.3500 C   0  0  0  0  0  0  0  0  0  0  0  0
  1  2  1  0
  2  3  2  0
  2  4  1  0
  4  5  1  0
  5  6  1  0
  6  7  1  0
  7  8  1  0
  8  9  2  0
  8 10  1  0
 10 11  1  0
 11 12  2  0
 12 13  1  0
 13 14  2  0
 14 15  1  0
 11 16  1  0
 15 16  2  0
 15 17  1  0
 17 18  1  0
 18 19  1  6
 14 20  1  0
 18 20  1  0
  7 21  1  0
  4 22  1  0
 21 22  1  0
M  END
