piperidine-amides-730-covalent
     RDKit          3D

 25 27  0  0  0  0  0  0  0  0999 V2000
    7.1760   -3.3150   19.3850 C   0  0  0  0  0  0  0  0  0  0  0  0
    6.4600   -4.1170   20.3440 C   0  0  0  0  0  0  0  0  0  0  0  0
    5.4210   -4.7520   19.9650 O   0  0  0  0  0  0  0  0  0  0  0  0
    6.9160   -4.2460   21.6690 N   0  0  0  0  0  0  0  0  0  0  0  0
    6.7340   -5.5260   22.3630 C   0  0  0  0  0  0  0  0  0  0  0  0
    5.7530   -5.0150   23.4730 C   0  0  0  0  0  0  0  0  0  0  0  0
    6.4670   -3.8810   24.1900 C   0  0  0  0  0  0  0  0  0  0  0  0
    5.5520   -3.4640   25.4200 C   0  0  0  0  0  0  0  0  0  0  0  0
    4.4880   -4.0540   25.3230 O   0  0  0  0  0  0  0  0  0  0  0  0
    6.0780   -2.6180   26.2150 N   0  0  0  0  0  0  0  0  0  0  0  0
    6.3650   -1.6790   27.1600 C   0  0  0  0  0  0  0  0  0  0  0  0
    6.9630   -1.6460   28.3860 C   0  0  0  0  0  0  0  0  0  0  0  0
    7.0900   -0.4990   29.1660 C   0  0  0  0  0  0  0  0  0  0  0  0
    6.6020    0.8260   28.7810 C   0  0  0  0  0  0  0  0  0  0  0  0
    6.6200    2.0880   29.4120 N   0  0  0  0  0  0  0  0  0  0  0  0
    5.6820    3.1970   29.2930 C   0  0  0  0  0  0  0  0  0  0  0  0
    6.3930    3.9680   30.1730 C   0  0  0  0  0  0  0  0  0  0  0  0
    6.5130    5.1870   30.8540 C   0  0  0  0  0  0  0  0  0  0  0  0
    6.1490    5.0080   32.2410 N   0  0  0  0  0  0  0  0  0  0  0  0
    7.6360    3.4440   30.7930 C   0  0  0  0  0  0  0  0  0  0  0  0
    7.6770    2.2030   30.2140 N   0  0  0  0  0  0  0  0  0  0  0  0
    5.9710    0.7250   27.4350 C   0  0  0  0  0  0  0  0  0  0  0  0
    5.7950   -0.3540   26.5830 C   0  0  0  0  0  0  0  0  0  0  0  0
    6.9260   -2.7110   23.3330 C   0  0  0  0  0  0  0  0  0  0  0  0
    7.6710   -3.1950   22.3090 C   0  0  0  0  0  0  0  0  0  0  0  0
  1  2  1  0
  2  3  2  0
  2  4  1  0
  4  5  1  0
  5  6  1  0
  6  7  1  0
  7  8  1  0
  8  9  2  0
  8 10  1  0
 10 11  1  0
 11 12  2  0
 12 13  1  0
 13 14  2  0
 14 15  1  0
 15 16  1  0
 16 17  2  0
 17 18  1  0
 18 19  3  0
 17 20  1  0
 15 21  1  0
 20 21  2  0
 14 22  1  0
 11 23  1  0
 22 23  2  0
  7 24  1  0
  4 25  1  0
 24 25  1  0
M  END
