piperidine-amides-23926-covalent
     RDKit          3D

 23 25  0  0  0  0  0  0  0  0999 V2000
    7.0600   -3.3270   19.2860 C   0  0  0  0  0  0  0  0  0  0  0  0
    6.3890   -4.1310   20.3170 C   0  0  0  0  0  0  0  0  0  0  0  0
    5.3510   -4.7400   19.9570 O   0  0  0  0  0  0  0  0  0  0  0  0
    6.9070   -4.2730   21.6330 N   0  0  0  0  0  0  0  0  0  0  0  0
    6.3250   -5.2600   22.4570 C   0  0  0  0  0  0  0  0  0  0  0  0
    5.8040   -4.7050   23.6990 C   0  0  0  0  0  0  0  0  0  0  0  0
    6.6800   -3.6730   24.3380 C   0  0  0  0  0  0  0  0  0  0  0  0
    6.0930   -3.1540   25.6650 C   0  0  0  0  0  0  0  0  0  0  0  0
    5.1900   -2.2880   25.6040 O   0  0  0  0  0  0  0  0  0  0  0  0
    6.4850   -3.6670   26.9830 N   0  0  0  0  0  0  0  0  0  0  0  0
    5.6700   -4.6850   27.4350 C   0  0  0  0  0  0  0  0  0  0  0  0
    5.3050   -4.0020   28.5860 C   0  0  0  0  0  0  0  0  0  0  0  0
    5.9500   -2.6300   28.7530 C   0  0  0  0  0  0  0  0  0  0  0  0
    6.8340   -2.1830   27.7160 C   0  0  0  0  0  0  0  0  0  0  0  0
    7.1730   -3.0670   26.4280 C   0  0  0  0  0  0  0  0  0  0  0  0
    6.5050   -4.4280   26.3510 C   0  0  0  0  0  0  0  0  0  0  0  0
    6.8730   -5.4680   25.1010 S   0  0  0  0  0  0  0  0  0  0  0  0
    8.0560   -5.5050   26.4020 C   0  0  1  0  0  0  0  0  0  0  0  0
    9.4950   -5.7240   26.0960 C   0  0  0  0  0  0  0  0  0  0  0  0
    7.8600   -4.1650   27.1410 C   0  0  2  0  0  0  0  0  0  0  0  0
    8.2660   -4.6980   28.5030 C   0  0  0  0  0  0  0  0  0  0  0  0
    6.9560   -2.6170   23.3090 C   0  0  0  0  0  0  0  0  0  0  0  0
    7.7010   -3.2350   22.2850 C   0  0  0  0  0  0  0  0  0  0  0  0
  1  2  1  0
  2  3  2  0
  2  4  1  0
  4  5  1  0
  5  6  1  0
  6  7  1  0
  7  8  1  0
  8  9  2  0
  8 10  1  0
 10 11  1  0
 11 12  2  0
 12 13  1  0
 13 14  2  0
 14 15  1  0
 11 16  1  0
 15 16  2  0
 16 17  1  0
 17 18  1  0
 18 19  1  6
 10 20  1  0
 18 20  1  0
 20 21  1  1
  7 22  1  0
  4 23  1  0
 22 23  1  0
M  END
