piperidine-amides-10138-covalent
     RDKit          3D

 25 27  0  0  0  0  0  0  0  0999 V2000
    7.1300   -3.3080   19.2630 C   0  0  0  0  0  0  0  0  0  0  0  0
    6.3600   -4.0490   20.2630 C   0  0  0  0  0  0  0  0  0  0  0  0
    5.2660   -4.5420   19.8820 O   0  0  0  0  0  0  0  0  0  0  0  0
    6.8740   -4.2300   21.5440 N   0  0  0  0  0  0  0  0  0  0  0  0
    6.5970   -5.4140   22.3160 C   0  0  0  0  0  0  0  0  0  0  0  0
    5.8630   -5.0130   23.5700 C   0  0  0  0  0  0  0  0  0  0  0  0
    6.5230   -3.8660   24.3060 C   0  0  0  0  0  0  0  0  0  0  0  0
    5.6030   -3.3930   25.3620 C   0  0  0  0  0  0  0  0  0  0  0  0
    4.8530   -2.4290   25.1060 O   0  0  0  0  0  0  0  0  0  0  0  0
    5.5220   -3.9820   26.6390 N   0  0  0  0  0  0  0  0  0  0  0  0
    6.6810   -4.5410   27.2590 C   0  0  0  0  0  0  0  0  0  0  0  0
    6.5010   -5.9500   27.7960 C   0  0  0  0  0  0  0  0  0  0  0  0
    5.8890   -6.3420   28.9670 C   0  0  0  0  0  0  0  0  0  0  0  0
    5.8320   -7.4240   29.7910 C   0  0  0  0  0  0  0  0  0  0  0  0
    4.9900   -7.0920   30.7950 N   0  0  0  0  0  0  0  0  0  0  0  0
    4.5170   -5.8390   30.6280 C   0  0  0  0  0  0  0  0  0  0  0  0
    3.6200   -5.2030   31.4980 C   0  0  0  0  0  0  0  0  0  0  0  0
    3.1680   -3.8940   31.2740 C   0  0  0  0  0  0  0  0  0  0  0  0
    2.2740   -3.2950   32.1700 O   0  0  0  0  0  0  0  0  0  0  0  0
    2.0810   -2.7030   33.3520 C   0  0  0  0  0  0  0  0  0  0  0  0
    3.6160   -3.2180   30.1700 C   0  0  0  0  0  0  0  0  0  0  0  0
    4.5730   -3.8390   29.1990 C   0  0  0  0  0  0  0  0  0  0  0  0
    5.0200   -5.2380   29.4900 C   0  0  0  0  0  0  0  0  0  0  0  0
    6.8640   -2.7310   23.4060 C   0  0  0  0  0  0  0  0  0  0  0  0
    7.6010   -3.1590   22.1670 C   0  0  0  0  0  0  0  0  0  0  0  0
  1  2  1  0
  2  3  2  0
  2  4  1  0
  4  5  1  0
  5  6  1  0
  6  7  1  0
  7  8  1  0
  8  9  2  0
  8 10  1  0
 10 11  1  0
 11 12  1  0
 12 13  1  0
 13 14  2  0
 14 15  1  0
 15 16  1  0
 16 17  1  0
 17 18  2  0
 18 19  1  0
 19 20  1  0
 18 21  1  0
 21 22  2  0
 13 23  1  0
 16 23  2  0
 22 23  1  0
  7 24  1  0
  4 25  1  0
 24 25  1  0
M  END
