piperidine-amides-23344-covalent
     RDKit          3D

 24 26  0  0  0  0  0  0  0  0999 V2000
    7.0630   -3.3920   19.4330 C   0  0  0  0  0  0  0  0  0  0  0  0
    6.4140   -4.2480   20.4370 C   0  0  0  0  0  0  0  0  0  0  0  0
    5.4430   -4.9340   20.0170 O   0  0  0  0  0  0  0  0  0  0  0  0
    6.8950   -4.3290   21.7860 N   0  0  0  0  0  0  0  0  0  0  0  0
    6.6050   -5.4980   22.5510 C   0  0  0  0  0  0  0  0  0  0  0  0
    6.0180   -5.1390   23.8290 C   0  0  0  0  0  0  0  0  0  0  0  0
    5.9590   -3.6760   23.9320 C   0  0  0  0  0  0  0  0  0  0  0  0
    5.0760   -3.1440   25.0620 C   0  0  0  0  0  0  0  0  0  0  0  0
    3.9110   -2.8770   24.7530 O   0  0  0  0  0  0  0  0  0  0  0  0
    5.3850   -2.9340   26.4280 N   0  0  0  0  0  0  0  0  0  0  0  0
    6.5970   -3.0130   26.9910 C   0  0  0  0  0  0  0  0  0  0  0  0
    6.7180   -3.7810   28.2610 C   0  0  0  0  0  0  0  0  0  0  0  0
    5.7470   -4.9250   28.7090 C   0  0  0  0  0  0  0  0  0  0  0  0
    5.5310   -5.7770   29.7540 C   0  0  0  0  0  0  0  0  0  0  0  0
    4.3390   -4.9870   30.3270 C   0  0  0  0  0  0  0  0  0  0  0  0
    3.7910   -5.6620   31.5840 C   0  0  0  0  0  0  0  0  0  0  0  0
    4.4980   -6.9600   32.0470 C   0  0  0  0  0  0  0  0  0  0  0  0
    4.0410   -7.5920   33.1700 F   0  0  0  0  0  0  0  0  0  0  0  0
    5.6620   -7.6040   31.3650 C   0  0  0  0  0  0  0  0  0  0  0  0
    6.1280   -6.8970   30.1480 C   0  0  0  0  0  0  0  0  0  0  0  0
    5.0110   -4.7700   27.4320 C   0  0  0  0  0  0  0  0  0  0  0  0
    4.4470   -3.4180   27.3510 C   0  0  0  0  0  0  0  0  0  0  0  0
    7.2950   -3.0320   23.7280 C   0  0  0  0  0  0  0  0  0  0  0  0
    7.6470   -3.2220   22.3730 C   0  0  0  0  0  0  0  0  0  0  0  0
  1  2  1  0
  2  3  2  0
  2  4  1  0
  4  5  1  0
  5  6  1  0
  6  7  1  0
  7  8  1  0
  8  9  2  0
  8 10  1  0
 10 11  1  0
 11 12  1  0
 12 13  2  0
 13 14  1  0
 14 15  2  0
 15 16  1  0
 16 17  2  0
 17 18  1  0
 17 19  1  0
 14 20  1  0
 19 20  2  0
 13 21  1  0
 10 22  1  0
 21 22  1  0
  7 23  1  0
  4 24  1  0
 23 24  1  0
M  END
