piperidine-amides-3565-covalent
     RDKit          3D

 18 19  0  0  0  0  0  0  0  0999 V2000
    7.0480   -3.3080   19.2620 C   0  0  0  0  0  0  0  0  0  0  0  0
    6.3280   -4.0870   20.2670 C   0  0  0  0  0  0  0  0  0  0  0  0
    5.3200   -4.7060   19.9390 O   0  0  0  0  0  0  0  0  0  0  0  0
    6.8020   -4.1770   21.6240 N   0  0  0  0  0  0  0  0  0  0  0  0
    6.6350   -5.4080   22.3560 C   0  0  0  0  0  0  0  0  0  0  0  0
    6.0630   -5.1120   23.7130 C   0  0  0  0  0  0  0  0  0  0  0  0
    6.0840   -3.6080   23.8870 C   0  0  0  0  0  0  0  0  0  0  0  0
    5.6100   -3.2270   25.2500 C   0  0  0  0  0  0  0  0  0  0  0  0
    4.4080   -3.0040   25.4870 O   0  0  0  0  0  0  0  0  0  0  0  0
    6.5400   -3.1120   26.3060 N   0  0  0  0  0  0  0  0  0  0  0  0
    6.1980   -3.6140   27.6260 C   0  0  0  0  0  0  0  0  0  0  0  0
    5.4000   -4.8900   27.4790 C   0  0  1  0  0  0  0  0  0  0  0  0
    5.9120   -6.0000   28.0750 C   0  0  0  0  0  0  0  0  0  0  0  0
    5.0150   -6.5990   28.8810 C   0  0  0  0  0  0  0  0  0  0  0  0
    3.8550   -5.8740   28.8390 C   0  0  0  0  0  0  0  0  0  0  0  0
    4.0400   -4.7350   27.8810 C   0  0  0  0  0  0  0  0  0  0  0  0
    7.4150   -2.9800   23.5660 C   0  0  0  0  0  0  0  0  0  0  0  0
    7.6840   -3.1630   22.2200 C   0  0  0  0  0  0  0  0  0  0  0  0
  1  2  1  0
  2  3  2  0
  2  4  1  0
  4  5  1  0
  5  6  1  0
  6  7  1  0
  7  8  1  0
  8  9  2  0
  8 10  1  0
 10 11  1  0
 12 11  1  1
 12 13  1  0
 13 14  2  0
 14 15  1  0
 12 16  1  0
 15 16  1  0
  7 17  1  0
  4 18  1  0
 17 18  1  0
M  END
