piperidine-amides-28069-covalent
     RDKit          3D

 26 28  0  0  0  0  0  0  0  0999 V2000
    7.0320   -3.3970   19.4600 C   0  0  0  0  0  0  0  0  0  0  0  0
    6.3810   -4.2790   20.4560 C   0  0  0  0  0  0  0  0  0  0  0  0
    5.4320   -4.9680   20.0170 O   0  0  0  0  0  0  0  0  0  0  0  0
    6.8390   -4.3620   21.7970 N   0  0  0  0  0  0  0  0  0  0  0  0
    6.4650   -5.4680   22.6280 C   0  0  0  0  0  0  0  0  0  0  0  0
    5.8850   -5.0640   23.9280 C   0  0  0  0  0  0  0  0  0  0  0  0
    5.9220   -3.5960   24.1050 C   0  0  0  0  0  0  0  0  0  0  0  0
    5.2360   -3.0060   25.3330 C   0  0  0  0  0  0  0  0  0  0  0  0
    4.8280   -1.8520   25.1860 O   0  0  0  0  0  0  0  0  0  0  0  0
    4.9910   -3.6030   26.6050 N   0  0  0  0  0  0  0  0  0  0  0  0
    4.3810   -2.8470   27.7090 C   0  0  0  0  0  0  0  0  0  0  0  0
    4.6300   -3.5380   29.0180 C   0  0  0  0  0  0  0  0  0  0  0  0
    4.9930   -4.9040   29.0670 N   0  0  0  0  0  0  0  0  0  0  0  0
    4.7030   -5.6450   30.2690 C   0  0  0  0  0  0  0  0  0  0  0  0
    5.6070   -6.6710   30.4550 C   0  0  0  0  0  0  0  0  0  0  0  0
    5.5310   -7.5170   31.5510 C   0  0  0  0  0  0  0  0  0  0  0  0
    4.5280   -7.3060   32.4500 C   0  0  0  0  0  0  0  0  0  0  0  0
    4.5320   -8.2110   33.5300 O   0  0  0  0  0  0  0  0  0  0  0  0
    3.3870   -8.9420   33.8690 C   0  0  0  0  0  0  0  0  0  0  0  0
    2.4560   -8.9610   32.8700 C   0  0  0  0  0  0  0  0  0  0  0  0
    3.6010   -6.3110   32.3230 C   0  0  0  0  0  0  0  0  0  0  0  0
    3.6950   -5.4200   31.1530 C   0  0  0  0  0  0  0  0  0  0  0  0
    6.0700   -5.2550   28.2380 C   0  0  0  0  0  0  0  0  0  0  0  0
    6.0160   -4.4360   26.9800 C   0  0  0  0  0  0  0  0  0  0  0  0
    7.2220   -2.9900   23.7890 C   0  0  0  0  0  0  0  0  0  0  0  0
    7.7020   -3.3310   22.3840 C   0  0  0  0  0  0  0  0  0  0  0  0
  1  2  1  0
  2  3  2  0
  2  4  1  0
  4  5  1  0
  5  6  1  0
  6  7  1  0
  7  8  1  0
  8  9  2  0
  8 10  1  0
 10 11  1  0
 11 12  1  0
 12 13  1  0
 13 14  1  0
 14 15  2  0
 15 16  1  0
 16 17  2  0
 17 18  1  0
 18 19  1  0
 19 20  1  0
 17 21  1  0
 14 22  1  0
 21 22  2  0
 13 23  1  0
 10 24  1  0
 23 24  1  0
  7 25  1  0
  4 26  1  0
 25 26  1  0
M  END
