piperidine-amides-6353-covalent
     RDKit          3D

 25 27  0  0  0  0  0  0  0  0999 V2000
    7.0660   -3.2840   19.3020 C   0  0  0  0  0  0  0  0  0  0  0  0
    6.3500   -4.0990   20.2960 C   0  0  0  0  0  0  0  0  0  0  0  0
    5.3560   -4.7780   19.9580 O   0  0  0  0  0  0  0  0  0  0  0  0
    6.7870   -4.1590   21.6250 N   0  0  0  0  0  0  0  0  0  0  0  0
    7.6700   -3.1230   22.1390 C   0  0  0  0  0  0  0  0  0  0  0  0
    7.5180   -3.0970   23.6630 C   0  0  0  0  0  0  0  0  0  0  0  0
    6.1040   -3.5520   23.9330 C   0  0  0  0  0  0  0  0  0  0  0  0
    5.6710   -3.3150   25.3260 C   0  0  0  0  0  0  0  0  0  0  0  0
    4.5570   -3.7580   25.6720 O   0  0  0  0  0  0  0  0  0  0  0  0
    6.4830   -2.5900   26.2320 N   0  0  0  0  0  0  0  0  0  0  0  0
    6.2450   -1.1840   26.3990 C   0  0  0  0  0  0  0  0  0  0  0  0
    6.4870   -0.7570   27.8370 C   0  0  0  0  0  0  0  0  0  0  0  0
    7.0900   -1.4240   28.8650 C   0  0  0  0  0  0  0  0  0  0  0  0
    7.2280   -0.8670   30.1170 C   0  0  0  0  0  0  0  0  0  0  0  0
    6.7910    0.4010   30.5160 C   0  0  0  0  0  0  0  0  0  0  0  0
    6.9660    0.8860   31.7890 C   0  0  0  0  0  0  0  0  0  0  0  0
    6.1910    1.0740   29.5170 N   0  0  0  0  0  0  0  0  0  0  0  0
    6.0220    0.6060   28.2780 C   0  0  0  0  0  0  0  0  0  0  0  0
    5.3910    1.5460   27.5500 N   0  0  0  0  0  0  0  0  0  0  0  0
    6.1100    2.5150   26.7440 C   0  0  0  0  0  0  0  0  0  0  0  0
    4.9550    2.9520   25.8660 C   0  0  0  0  0  0  0  0  0  0  0  0
    4.8020    3.4620   27.2420 C   0  0  0  0  0  0  0  0  0  0  0  0
    4.4410    2.3680   28.0280 C   0  0  0  0  0  0  0  0  0  0  0  0
    6.0390   -5.0590   23.6960 C   0  0  0  0  0  0  0  0  0  0  0  0
    6.6580   -5.3940   22.3610 C   0  0  0  0  0  0  0  0  0  0  0  0
  1  2  1  0
  2  3  2  0
  2  4  1  0
  4  5  1  0
  5  6  1  0
  6  7  1  0
  7  8  1  0
  8  9  2  0
  8 10  1  0
 10 11  1  0
 11 12  1  0
 12 13  2  0
 13 14  1  0
 14 15  2  0
 15 16  1  0
 15 17  1  0
 12 18  1  0
 17 18  2  0
 18 19  1  0
 19 20  1  0
 20 21  1  0
 21 22  1  0
 19 23  1  0
 22 23  1  0
  7 24  1  0
  4 25  1  0
 24 25  1  0
M  END
