piperidine-amides-27769-covalent
     RDKit          3D

 26 28  0  0  0  0  0  0  0  0999 V2000
    7.1250   -3.2420   19.1370 C   0  0  0  0  0  0  0  0  0  0  0  0
    6.3400   -3.9740   20.1610 C   0  0  0  0  0  0  0  0  0  0  0  0
    5.2350   -4.4290   19.8160 O   0  0  0  0  0  0  0  0  0  0  0  0
    6.8470   -4.1870   21.4420 N   0  0  0  0  0  0  0  0  0  0  0  0
    7.6540   -3.1940   22.0750 C   0  0  0  0  0  0  0  0  0  0  0  0
    7.3960   -2.9750   23.4930 C   0  0  0  0  0  0  0  0  0  0  0  0
    6.6930   -4.0520   24.2300 C   0  0  0  0  0  0  0  0  0  0  0  0
    6.0060   -3.4130   25.3610 C   0  0  0  0  0  0  0  0  0  0  0  0
    4.7820   -3.1770   25.2700 O   0  0  0  0  0  0  0  0  0  0  0  0
    6.7290   -3.0700   26.5100 N   0  0  0  0  0  0  0  0  0  0  0  0
    7.4590   -1.7840   26.5440 C   0  0  0  0  0  0  0  0  0  0  0  0
    6.2270   -3.6140   27.7120 C   0  0  1  0  0  0  0  0  0  0  0  0
    6.7580   -4.9060   28.1540 C   0  0  0  0  0  0  0  0  0  0  0  0
    5.6800   -5.5840   28.8440 N   0  0  0  0  0  0  0  0  0  0  0  0
    5.7820   -6.6960   29.7000 C   0  0  0  0  0  0  0  0  0  0  0  0
    4.6830   -7.4760   29.4990 C   0  0  0  0  0  0  0  0  0  0  0  0
    3.9170   -6.8910   28.5500 C   0  0  0  0  0  0  0  0  0  0  0  0
    4.4750   -5.7330   28.0720 C   0  0  0  0  0  0  0  0  0  0  0  0
    6.0390   -2.6260   28.7010 C   0  0  0  0  0  0  0  0  0  0  0  0
    7.3920   -2.3880   28.6880 C   0  0  0  0  0  0  0  0  0  0  0  0
    7.9690   -1.3470   29.5710 C   0  0  0  0  0  0  0  0  0  0  0  0
    7.0040   -0.5780   30.4750 C   0  0  0  0  0  0  0  0  0  0  0  0
    5.5680   -1.0310   30.3060 C   0  0  0  0  0  0  0  0  0  0  0  0
    5.0830   -2.0290   29.4440 C   0  0  0  0  0  0  0  0  0  0  0  0
    5.8980   -4.9770   23.4180 C   0  0  0  0  0  0  0  0  0  0  0  0
    6.5960   -5.4060   22.1860 C   0  0  0  0  0  0  0  0  0  0  0  0
  1  2  1  0
  2  3  2  0
  2  4  1  0
  4  5  1  0
  5  6  1  0
  6  7  1  0
  7  8  1  0
  8  9  2  0
  8 10  1  0
 10 11  1  0
 10 12  1  0
 12 13  1  1
 13 14  1  0
 14 15  1  0
 15 16  1  0
 16 17  1  0
 14 18  1  0
 17 18  1  0
 12 19  1  0
 19 20  2  0
 20 21  1  0
 21 22  2  0
 22 23  1  0
 19 24  1  0
 23 24  2  0
  7 25  1  0
  4 26  1  0
 25 26  1  0
M  END
