piperidine-amides-12422-covalent
     RDKit          3D

 24 25  0  0  0  0  0  0  0  0999 V2000
    7.0100   -3.2620   19.1930 C   0  0  0  0  0  0  0  0  0  0  0  0
    6.2470   -4.0400   20.1650 C   0  0  0  0  0  0  0  0  0  0  0  0
    5.1780   -4.5410   19.8510 O   0  0  0  0  0  0  0  0  0  0  0  0
    6.7580   -4.2840   21.4690 N   0  0  0  0  0  0  0  0  0  0  0  0
    6.3430   -5.4660   22.1820 C   0  0  0  0  0  0  0  0  0  0  0  0
    5.5580   -5.0830   23.4090 C   0  0  0  0  0  0  0  0  0  0  0  0
    6.3270   -3.9680   24.1030 C   0  0  0  0  0  0  0  0  0  0  0  0
    5.6440   -3.5270   25.3530 C   0  0  0  0  0  0  0  0  0  0  0  0
    4.4400   -3.2050   25.3970 O   0  0  0  0  0  0  0  0  0  0  0  0
    6.4200   -3.4710   26.5380 N   0  0  0  0  0  0  0  0  0  0  0  0
    7.8380   -3.6510   26.3930 C   0  0  0  0  0  0  0  0  0  0  0  0
    8.2190   -2.8690   25.1540 C   0  0  1  0  0  0  0  0  0  0  0  0
    8.4780   -1.5060   25.2730 C   0  0  0  0  0  0  0  0  0  0  0  0
    9.6790   -1.1620   24.6660 C   0  0  0  0  0  0  0  0  0  0  0  0
   10.1940   -2.3990   24.2850 N   0  0  0  0  0  0  0  0  0  0  0  0
   11.4310   -2.7600   24.7270 C   0  0  0  0  0  0  0  0  0  0  0  0
   11.6140   -3.6720   25.5090 O   0  0  0  0  0  0  0  0  0  0  0  0
   12.6580   -2.1250   24.3890 C   0  0  0  0  0  0  0  0  0  0  0  0
   13.6730   -2.5260   25.1920 C   0  0  0  0  0  0  0  0  0  0  0  0
   12.9050   -2.1890   23.0560 C   0  0  0  0  0  0  0  0  0  0  0  0
   12.7430   -0.7660   24.6010 C   0  0  0  0  0  0  0  0  0  0  0  0
    9.2970   -3.3690   24.4670 C   0  0  0  0  0  0  0  0  0  0  0  0
    6.5780   -2.7930   23.1720 C   0  0  0  0  0  0  0  0  0  0  0  0
    7.4290   -3.2370   22.1750 C   0  0  0  0  0  0  0  0  0  0  0  0
  1  2  1  0
  2  3  2  0
  2  4  1  0
  4  5  1  0
  5  6  1  0
  6  7  1  0
  7  8  1  0
  8  9  2  0
  8 10  1  0
 10 11  1  0
 12 11  1  1
 12 13  1  0
 13 14  1  0
 14 15  1  0
 15 16  1  0
 16 17  2  0
 18 16  1  0
 18 19  1  0
 18 20  1  0
 18 21  1  0
 12 22  1  0
 15 22  1  0
  7 23  1  0
  4 24  1  0
 23 24  1  0
M  END
