piperidine-amides-27250-covalent
     RDKit          3D

 26 29  0  0  0  0  0  0  0  0999 V2000
    7.0620   -3.3650   19.3840 C   0  0  0  0  0  0  0  0  0  0  0  0
    6.4240   -4.2270   20.3810 C   0  0  0  0  0  0  0  0  0  0  0  0
    5.4040   -4.8590   19.9920 O   0  0  0  0  0  0  0  0  0  0  0  0
    6.9680   -4.3640   21.6720 N   0  0  0  0  0  0  0  0  0  0  0  0
    6.6590   -5.4960   22.5030 C   0  0  0  0  0  0  0  0  0  0  0  0
    5.8830   -5.0110   23.7080 C   0  0  0  0  0  0  0  0  0  0  0  0
    6.4040   -3.7390   24.3610 C   0  0  0  0  0  0  0  0  0  0  0  0
    5.3380   -3.1750   25.2400 C   0  0  0  0  0  0  0  0  0  0  0  0
    4.3180   -2.7630   24.6580 O   0  0  0  0  0  0  0  0  0  0  0  0
    5.3290   -3.0550   26.6580 N   0  0  0  0  0  0  0  0  0  0  0  0
    4.1570   -3.3050   27.3920 C   0  0  0  0  0  0  0  0  0  0  0  0
    4.4250   -4.5510   28.1900 C   0  0  0  0  0  0  0  0  0  0  0  0
    5.3970   -4.6280   29.1180 C   0  0  0  0  0  0  0  0  0  0  0  0
    5.2610   -5.6070   30.0680 C   0  0  0  0  0  0  0  0  0  0  0  0
    6.1230   -6.7010   30.1600 C   0  0  0  0  0  0  0  0  0  0  0  0
    5.9890   -7.6740   31.1440 C   0  0  0  0  0  0  0  0  0  0  0  0
    4.9930   -7.6060   32.0790 C   0  0  0  0  0  0  0  0  0  0  0  0
    4.8740   -8.5680   33.0540 N   0  0  0  0  0  0  0  0  0  0  0  0
    3.8210   -8.1890   33.7540 C   0  0  0  0  0  0  0  0  0  0  0  0
    3.2870   -6.9290   33.1610 C   0  0  0  0  0  0  0  0  0  0  0  0
    4.1280   -6.5300   31.9810 C   0  0  0  0  0  0  0  0  0  0  0  0
    4.1920   -5.4340   30.9550 C   0  0  0  0  0  0  0  0  0  0  0  0
    6.4940   -4.5050   28.3130 C   0  0  0  0  0  0  0  0  0  0  0  0
    6.5090   -3.2560   27.3850 C   0  0  0  0  0  0  0  0  0  0  0  0
    6.7910   -2.6920   23.3510 C   0  0  0  0  0  0  0  0  0  0  0  0
    7.7090   -3.2770   22.2780 C   0  0  0  0  0  0  0  0  0  0  0  0
  1  2  1  0
  2  3  2  0
  2  4  1  0
  4  5  1  0
  5  6  1  0
  6  7  1  0
  7  8  1  0
  8  9  2  0
  8 10  1  0
 10 11  1  0
 11 12  1  0
 12 13  1  0
 13 14  1  0
 14 15  2  0
 15 16  1  0
 16 17  2  0
 17 18  1  0
 18 19  1  0
 19 20  2  0
 17 21  1  0
 20 21  1  0
 14 22  1  0
 21 22  2  0
 13 23  1  0
 10 24  1  0
 23 24  1  0
  7 25  1  0
  4 26  1  0
 25 26  1  0
M  END
