piperidine-amides-23560-covalent
     RDKit          3D

 24 26  0  0  0  0  0  0  0  0999 V2000
    7.1520   -3.3440   19.2750 C   0  0  0  0  0  0  0  0  0  0  0  0
    6.4700   -4.1800   20.2740 C   0  0  0  0  0  0  0  0  0  0  0  0
    5.3730   -4.6890   19.9440 O   0  0  0  0  0  0  0  0  0  0  0  0
    7.0860   -4.4500   21.5200 N   0  0  0  0  0  0  0  0  0  0  0  0
    6.5200   -5.4490   22.3450 C   0  0  0  0  0  0  0  0  0  0  0  0
    6.0170   -4.9390   23.6190 C   0  0  0  0  0  0  0  0  0  0  0  0
    6.6270   -3.6800   24.1320 C   0  0  0  0  0  0  0  0  0  0  0  0
    5.7830   -3.0510   25.1860 C   0  0  0  0  0  0  0  0  0  0  0  0
    4.8570   -2.2830   24.8870 O   0  0  0  0  0  0  0  0  0  0  0  0
    6.0170   -3.3590   26.5130 N   0  0  0  0  0  0  0  0  0  0  0  0
    6.0770   -2.6270   27.6390 C   0  0  0  0  0  0  0  0  0  0  0  0
    6.3460   -3.5490   28.7180 C   0  0  0  0  0  0  0  0  0  0  0  0
    6.0440   -5.0470   28.3010 C   0  0  0  0  0  0  0  0  0  0  0  0
    6.2730   -5.0340   29.6150 C   0  0  0  0  0  0  0  0  0  0  0  0
    5.9240   -6.3480   28.9300 C   0  0  0  0  0  0  0  0  0  0  0  0
    5.9550   -7.3170   30.0600 C   0  0  0  0  0  0  0  0  0  0  0  0
    5.8960   -8.6200   29.5920 O   0  0  0  0  0  0  0  0  0  0  0  0
    6.0530   -6.9670   31.4290 O   0  0  0  0  0  0  0  0  0  0  0  0
    5.4190   -7.7730   32.4010 C   0  0  0  0  0  0  0  0  0  0  0  0
    5.6110   -6.6960   27.5080 C   0  0  0  0  0  0  0  0  0  0  0  0
    5.5890   -5.7810   26.4460 N   0  0  0  0  0  0  0  0  0  0  0  0
    5.8850   -4.6300   26.9750 C   0  0  0  0  0  0  0  0  0  0  0  0
    6.8970   -2.6430   23.0470 C   0  0  0  0  0  0  0  0  0  0  0  0
    7.8110   -3.3210   22.1150 C   0  0  0  0  0  0  0  0  0  0  0  0
  1  2  1  0
  2  3  2  0
  2  4  1  0
  4  5  1  0
  5  6  1  0
  6  7  1  0
  7  8  1  0
  8  9  2  0
  8 10  1  0
 10 11  1  0
 11 12  1  0
 12 13  1  0
 13 14  1  0
 14 15  2  0
 15 16  1  0
 16 17  2  0
 16 18  1  0
 18 19  1  0
 15 20  1  0
 20 21  2  0
 10 22  1  0
 13 22  2  0
 21 22  1  0
  7 23  1  0
  4 24  1  0
 23 24  1  0
M  END
