piperidine-amides-14768-covalent
     RDKit          3D

 22 25  0  0  0  0  0  0  0  0999 V2000
    6.9930   -3.3260   19.3750 C   0  0  0  0  0  0  0  0  0  0  0  0
    6.3370   -4.1700   20.3750 C   0  0  0  0  0  0  0  0  0  0  0  0
    5.3930   -4.8840   19.9850 O   0  0  0  0  0  0  0  0  0  0  0  0
    6.7650   -4.2110   21.7340 N   0  0  0  0  0  0  0  0  0  0  0  0
    7.6060   -3.1720   22.2680 C   0  0  0  0  0  0  0  0  0  0  0  0
    7.2620   -2.9860   23.7130 C   0  0  0  0  0  0  0  0  0  0  0  0
    5.9000   -3.6230   23.8790 C   0  0  0  0  0  0  0  0  0  0  0  0
    5.3160   -3.4480   25.2620 C   0  0  0  0  0  0  0  0  0  0  0  0
    4.9920   -4.4820   25.8240 O   0  0  0  0  0  0  0  0  0  0  0  0
    5.1440   -2.1780   25.8280 N   0  0  0  0  0  0  0  0  0  0  0  0
    6.2300   -1.5240   26.4390 C   0  0  1  0  0  0  0  0  0  0  0  0
    6.3210   -0.1190   26.6030 C   0  0  1  0  0  0  0  0  0  0  0  0
    5.3710    0.7460   27.0680 C   0  0  0  0  0  0  0  0  0  0  0  0
    5.7840    1.3400   28.2580 C   0  0  0  0  0  0  0  0  0  0  0  0
    6.8020    0.5800   28.8020 O   0  0  0  0  0  0  0  0  0  0  0  0
    7.0110   -0.4820   27.9680 C   0  0  1  0  0  0  0  0  0  0  0  0
    6.2700   -1.7550   27.8390 C   0  0  0  0  0  0  0  0  0  0  0  0
    6.7040   -2.9360   28.5950 C   0  0  0  0  0  0  0  0  0  0  0  0
    5.3630   -2.8230   29.3040 C   0  0  0  0  0  0  0  0  0  0  0  0
    5.0390   -1.6750   28.3760 C   0  0  0  0  0  0  0  0  0  0  0  0
    6.0140   -5.1300   23.6870 C   0  0  0  0  0  0  0  0  0  0  0  0
    6.6440   -5.4330   22.4890 C   0  0  0  0  0  0  0  0  0  0  0  0
  1  2  1  0
  2  3  2  0
  2  4  1  0
  4  5  1  0
  5  6  1  0
  6  7  1  0
  7  8  1  0
  8  9  2  0
  8 10  1  0
 11 10  1  1
 11 12  1  0
 12 13  1  1
 13 14  1  0
 14 15  1  0
 12 16  1  0
 16 15  1  1
 11 17  1  0
 16 17  1  0
 17 18  1  0
 18 19  1  0
 17 20  1  0
 19 20  1  0
  7 21  1  0
  4 22  1  0
 21 22  1  0
M  END
