piperidine-amides-31304-covalent
     RDKit          3D

 28 31  0  0  0  0  0  0  0  0999 V2000
    6.9790   -3.4180   19.3480 C   0  0  0  0  0  0  0  0  0  0  0  0
    6.3120   -4.2180   20.3550 C   0  0  0  0  0  0  0  0  0  0  0  0
    5.3210   -4.9070   19.9810 O   0  0  0  0  0  0  0  0  0  0  0  0
    6.7260   -4.3090   21.6980 N   0  0  0  0  0  0  0  0  0  0  0  0
    6.7160   -5.6680   22.3050 C   0  0  0  0  0  0  0  0  0  0  0  0
    5.9240   -5.4400   23.6590 C   0  0  0  0  0  0  0  0  0  0  0  0
    6.0200   -3.9690   23.9300 C   0  0  0  0  0  0  0  0  0  0  0  0
    5.2780   -3.5320   25.2820 C   0  0  0  0  0  0  0  0  0  0  0  0
    4.2540   -2.9300   25.0000 O   0  0  0  0  0  0  0  0  0  0  0  0
    5.9140   -3.9070   26.3230 N   0  0  0  0  0  0  0  0  0  0  0  0
    6.8670   -4.3780   27.1260 C   0  0  0  0  0  0  0  0  0  0  0  0
    7.0380   -5.3260   28.0580 C   0  0  0  0  0  0  0  0  0  0  0  0
    6.2380   -4.9020   29.0810 O   0  0  0  0  0  0  0  0  0  0  0  0
    5.0020   -4.5480   28.6080 C   0  0  0  0  0  0  0  0  0  0  0  0
    5.1040   -3.4830   27.5390 C   0  0  1  0  0  0  0  0  0  0  0  0
    5.8170   -2.4350   28.4190 C   0  0  0  0  0  0  0  0  0  0  0  0
    6.4030   -1.3420   27.6580 N   0  0  0  0  0  0  0  0  0  0  0  0
    6.9410   -0.5430   28.5880 N   0  0  0  0  0  0  0  0  0  0  0  0
    6.6780   -1.1370   29.7500 C   0  0  0  0  0  0  0  0  0  0  0  0
    7.1750   -0.4090   30.8390 C   0  0  0  0  0  0  0  0  0  0  0  0
    5.7700   -0.3810   31.3720 C   0  0  0  0  0  0  0  0  0  0  0  0
    5.6920    0.3780   32.7220 C   0  0  0  0  0  0  0  0  0  0  0  0
    6.8450    0.9170   33.2620 C   0  0  0  0  0  0  0  0  0  0  0  0
    8.0880    0.8040   32.6330 C   0  0  0  0  0  0  0  0  0  0  0  0
    8.2450    0.1470   31.4330 C   0  0  0  0  0  0  0  0  0  0  0  0
    5.9670   -2.3440   29.6520 O   0  0  0  0  0  0  0  0  0  0  0  0
    7.3370   -3.3600   23.6660 C   0  0  0  0  0  0  0  0  0  0  0  0
    7.5390   -3.2820   22.2960 C   0  0  0  0  0  0  0  0  0  0  0  0
  1  2  1  0
  2  3  2  0
  2  4  1  0
  4  5  1  0
  5  6  1  0
  6  7  1  0
  7  8  1  0
  8  9  2  0
  8 10  1  0
 10 11  1  0
 11 12  1  0
 12 13  1  0
 13 14  1  0
 10 15  1  0
 14 15  1  0
 15 16  1  1
 16 17  2  0
 17 18  1  0
 18 19  2  0
 19 20  1  0
 20 21  2  0
 21 22  1  0
 22 23  2  0
 23 24  1  0
 20 25  1  0
 24 25  2  0
 16 26  1  0
 19 26  1  0
  7 27  1  0
  4 28  1  0
 27 28  1  0
M  END
