piperidine-amides-31210-covalent
     RDKit          3D

 28 31  0  0  0  0  0  0  0  0999 V2000
    7.0260   -3.3550   19.3750 C   0  0  0  0  0  0  0  0  0  0  0  0
    6.3680   -4.2240   20.3510 C   0  0  0  0  0  0  0  0  0  0  0  0
    5.3660   -4.8610   19.9860 O   0  0  0  0  0  0  0  0  0  0  0  0
    6.8570   -4.4040   21.6630 N   0  0  0  0  0  0  0  0  0  0  0  0
    6.6870   -5.6380   22.3800 C   0  0  0  0  0  0  0  0  0  0  0  0
    5.7110   -5.3370   23.4890 C   0  0  0  0  0  0  0  0  0  0  0  0
    6.0810   -4.1420   24.3390 C   0  0  0  0  0  0  0  0  0  0  0  0
    4.9620   -3.8700   25.3440 C   0  0  0  0  0  0  0  0  0  0  0  0
    3.8130   -4.3300   25.0760 O   0  0  0  0  0  0  0  0  0  0  0  0
    5.0460   -3.1200   26.5880 N   0  0  0  0  0  0  0  0  0  0  0  0
    4.6250   -3.4710   27.9890 C   0  0  0  0  0  0  0  0  0  0  0  0
    4.8630   -4.6260   28.9080 C   0  0  0  0  0  0  0  0  0  0  0  0
    5.5790   -5.8610   28.6560 C   0  0  0  0  0  0  0  0  0  0  0  0
    6.1420   -6.1260   27.3350 C   0  0  0  0  0  0  0  0  0  0  0  0
    5.9370   -5.0650   26.3200 C   0  0  0  0  0  0  0  0  0  0  0  0
    5.2200   -3.8780   26.7980 C   0  0  0  0  0  0  0  0  0  0  0  0
    4.8450   -2.6870   25.9650 C   0  0  0  0  0  0  0  0  0  0  0  0
    4.5920   -1.4920   25.5730 O   0  0  0  0  0  0  0  0  0  0  0  0
    5.0980   -1.7910   27.1490 N   0  0  0  0  0  0  0  0  0  0  0  0
    6.2320   -2.4370   27.0350 C   0  0  0  0  0  0  0  0  0  0  0  0
    6.7830   -1.3590   26.1410 C   0  0  0  0  0  0  0  0  0  0  0  0
    6.2230    0.0060   26.5740 C   0  0  0  0  0  0  0  0  0  0  0  0
    6.2210    0.1170   28.0670 C   0  0  0  0  0  0  0  0  0  0  0  0
    6.3650   -0.2430   29.1940 C   0  0  0  0  0  0  0  0  0  0  0  0
    7.2160   -1.4290   28.8900 C   0  0  0  0  0  0  0  0  0  0  0  0
    6.6270   -2.5880   28.3720 C   0  0  0  0  0  0  0  0  0  0  0  0
    6.4730   -2.9450   23.4940 C   0  0  0  0  0  0  0  0  0  0  0  0
    7.4760   -3.3250   22.4000 C   0  0  0  0  0  0  0  0  0  0  0  0
  1  2  1  0
  2  3  2  0
  2  4  1  0
  4  5  1  0
  5  6  1  0
  6  7  1  0
  7  8  1  0
  8  9  2  0
  8 10  1  0
 10 11  1  0
 11 12  2  0
 12 13  1  0
 13 14  2  0
 14 15  1  0
 11 16  1  0
 15 16  2  0
 16 17  1  0
 17 18  2  0
 17 19  1  0
 20 10  1  0
 19 20  1  0
 20 21  1  0
 21 22  1  0
 22 23  1  0
 23 24  1  0
 24 25  1  0
 20 26  1  0
 25 26  1  0
  7 27  1  0
  4 28  1  0
 27 28  1  0
M  END
