piperidine-amides-27492-covalent
     RDKit          3D

 26 29  0  0  0  0  0  0  0  0999 V2000
    7.0180   -3.3510   19.3360 C   0  0  0  0  0  0  0  0  0  0  0  0
    6.3470   -4.1960   20.3340 C   0  0  0  0  0  0  0  0  0  0  0  0
    5.3150   -4.8040   19.9560 O   0  0  0  0  0  0  0  0  0  0  0  0
    6.8640   -4.3400   21.6190 N   0  0  0  0  0  0  0  0  0  0  0  0
    6.7050   -5.5800   22.3550 C   0  0  0  0  0  0  0  0  0  0  0  0
    6.1970   -5.2700   23.7350 C   0  0  0  0  0  0  0  0  0  0  0  0
    5.9770   -3.7940   23.9320 C   0  0  0  0  0  0  0  0  0  0  0  0
    5.4510   -3.4680   25.2880 C   0  0  0  0  0  0  0  0  0  0  0  0
    4.2410   -3.7040   25.4890 O   0  0  0  0  0  0  0  0  0  0  0  0
    6.1760   -2.8960   26.3580 N   0  0  0  0  0  0  0  0  0  0  0  0
    5.5640   -2.4590   27.6110 C   0  0  0  0  0  0  0  0  0  0  0  0
    5.4770   -3.6920   28.4490 C   0  0  0  0  0  0  0  0  0  0  0  0
    4.3980   -4.0030   29.4390 N   0  0  0  0  0  0  0  0  0  0  0  0
    4.7450   -5.1940   29.9100 C   0  0  0  0  0  0  0  0  0  0  0  0
    4.2180   -6.0650   30.8370 C   0  0  0  0  0  0  0  0  0  0  0  0
    4.8260   -7.3010   31.1440 C   0  0  0  0  0  0  0  0  0  0  0  0
    6.0110   -7.6530   30.4740 C   0  0  0  0  0  0  0  0  0  0  0  0
    6.5540   -6.8190   29.5470 C   0  0  0  0  0  0  0  0  0  0  0  0
    5.8690   -5.5770   29.3070 C   0  0  0  0  0  0  0  0  0  0  0  0
    6.4480   -4.6380   28.3160 C   0  0  0  0  0  0  0  0  0  0  0  0
    7.5800   -4.4030   27.3450 C   0  0  0  0  0  0  0  0  0  0  0  0
    7.5240   -2.9170   26.9080 C   0  0  1  0  0  0  0  0  0  0  0  0
    8.4590   -2.4670   26.0020 C   0  0  0  0  0  0  0  0  0  0  0  0
    7.8600   -1.6120   25.1090 O   0  0  0  0  0  0  0  0  0  0  0  0
    7.2790   -3.0830   23.6350 C   0  0  0  0  0  0  0  0  0  0  0  0
    7.7180   -3.3200   22.2070 C   0  0  0  0  0  0  0  0  0  0  0  0
  1  2  1  0
  2  3  2  0
  2  4  1  0
  4  5  1  0
  5  6  1  0
  6  7  1  0
  7  8  1  0
  8  9  2  0
  8 10  1  0
 10 11  1  0
 11 12  1  0
 12 13  1  0
 13 14  1  0
 14 15  2  0
 15 16  1  0
 16 17  2  0
 17 18  1  0
 14 19  1  0
 18 19  2  0
 12 20  2  0
 19 20  1  0
 20 21  1  0
 10 22  1  0
 21 22  1  0
 22 23  1  6
 23 24  1  0
  7 25  1  0
  4 26  1  0
 25 26  1  0
M  END
