piperidine-amides-8884-covalent
     RDKit          3D

 22 23  0  0  0  0  0  0  0  0999 V2000
    7.0330   -3.2960   19.3640 C   0  0  0  0  0  0  0  0  0  0  0  0
    6.3400   -4.1220   20.3570 C   0  0  0  0  0  0  0  0  0  0  0  0
    5.3640   -4.7890   19.9670 O   0  0  0  0  0  0  0  0  0  0  0  0
    6.7860   -4.1920   21.7140 N   0  0  0  0  0  0  0  0  0  0  0  0
    6.6590   -5.4490   22.4020 C   0  0  0  0  0  0  0  0  0  0  0  0
    6.1790   -5.2110   23.8070 C   0  0  0  0  0  0  0  0  0  0  0  0
    6.0520   -3.7180   23.9590 C   0  0  0  0  0  0  0  0  0  0  0  0
    5.5650   -3.3250   25.3390 C   0  0  0  0  0  0  0  0  0  0  0  0
    4.3630   -3.1040   25.4010 O   0  0  0  0  0  0  0  0  0  0  0  0
    6.4340   -3.2280   26.4380 N   0  0  0  0  0  0  0  0  0  0  0  0
    6.3200   -4.0390   27.6310 C   0  0  2  0  0  0  0  0  0  0  0  0
    5.7580   -5.3180   27.4660 C   0  0  0  0  0  0  0  0  0  0  0  0
    5.5190   -3.3080   28.6130 C   0  0  1  0  0  0  0  0  0  0  0  0
    6.0710   -2.0730   28.8720 O   0  0  0  0  0  0  0  0  0  0  0  0
    4.1390   -3.4180   28.5320 C   0  0  0  0  0  0  0  0  0  0  0  0
    3.9000   -4.6600   29.3480 C   0  0  0  0  0  0  0  0  0  0  0  0
    3.0700   -4.4660   30.6430 C   0  0  0  0  0  0  0  0  0  0  0  0
    2.0580   -3.3880   30.5360 C   0  0  0  0  0  0  0  0  0  0  0  0
    2.9310   -2.1840   30.3240 C   0  0  0  0  0  0  0  0  0  0  0  0
    3.4120   -2.2720   28.8580 C   0  0  0  0  0  0  0  0  0  0  0  0
    7.3900   -3.0850   23.6710 C   0  0  0  0  0  0  0  0  0  0  0  0
    7.6070   -3.1490   22.3010 C   0  0  0  0  0  0  0  0  0  0  0  0
  1  2  1  0
  2  3  2  0
  2  4  1  0
  4  5  1  0
  5  6  1  0
  6  7  1  0
  7  8  1  0
  8  9  2  0
  8 10  1  0
 10 11  1  0
 11 12  1  6
 11 13  1  0
 13 14  1  6
 13 15  1  0
 15 16  1  0
 16 17  1  0
 17 18  1  0
 18 19  1  0
 15 20  1  0
 19 20  1  0
  7 21  1  0
  4 22  1  0
 21 22  1  0
M  END
