piperidine-amides-6768-covalent
     RDKit          3D

 23 24  0  0  0  0  0  0  0  0999 V2000
    7.1200   -3.2640   19.2350 C   0  0  0  0  0  0  0  0  0  0  0  0
    6.3850   -4.0480   20.2400 C   0  0  0  0  0  0  0  0  0  0  0  0
    5.3430   -4.6640   19.9280 O   0  0  0  0  0  0  0  0  0  0  0  0
    6.8700   -4.1500   21.5470 N   0  0  0  0  0  0  0  0  0  0  0  0
    7.7030   -3.0860   22.0660 C   0  0  0  0  0  0  0  0  0  0  0  0
    7.5090   -3.0830   23.5800 C   0  0  0  0  0  0  0  0  0  0  0  0
    6.0640   -3.4740   23.7980 C   0  0  0  0  0  0  0  0  0  0  0  0
    5.6330   -3.1760   25.1770 C   0  0  0  0  0  0  0  0  0  0  0  0
    4.4100   -3.2230   25.4320 O   0  0  0  0  0  0  0  0  0  0  0  0
    6.5840   -2.8530   26.1710 N   0  0  0  0  0  0  0  0  0  0  0  0
    6.5290   -3.5300   27.4310 C   0  0  1  0  0  0  0  0  0  0  0  0
    7.7080   -4.4510   27.4430 C   0  0  0  0  0  0  0  0  0  0  0  0
    8.3080   -4.6980   26.2450 C   0  0  0  0  0  0  0  0  0  0  0  0
    9.3220   -5.5790   26.3000 C   0  0  0  0  0  0  0  0  0  0  0  0
    9.6820   -5.9780   27.5630 O   0  0  0  0  0  0  0  0  0  0  0  0
    6.5290   -2.5080   28.5400 C   0  0  0  0  0  0  0  0  0  0  0  0
    5.3650   -2.2680   29.1090 C   0  0  0  0  0  0  0  0  0  0  0  0
    4.9470   -1.3530   30.2110 C   0  0  0  0  0  0  0  0  0  0  0  0
    6.3620   -0.7610   30.4860 C   0  0  0  0  0  0  0  0  0  0  0  0
    7.8160   -0.8840   29.9710 C   0  0  0  0  0  0  0  0  0  0  0  0
    7.6610   -1.8900   28.9120 C   0  0  0  0  0  0  0  0  0  0  0  0
    5.8960   -4.9420   23.5100 C   0  0  0  0  0  0  0  0  0  0  0  0
    6.4920   -5.2810   22.3300 C   0  0  0  0  0  0  0  0  0  0  0  0
  1  2  1  0
  2  3  2  0
  2  4  1  0
  4  5  1  0
  5  6  1  0
  6  7  1  0
  7  8  1  0
  8  9  2  0
  8 10  1  0
 10 11  1  0
 11 12  1  1
 12 13  1  0
 13 14  1  0
 14 15  1  0
 11 16  1  0
 16 17  2  0
 17 18  1  0
 18 19  2  0
 19 20  1  0
 16 21  1  0
 20 21  2  0
  7 22  1  0
  4 23  1  0
 22 23  1  0
M  END
