piperidine-amides-10308-covalent
     RDKit          3D

 24 26  0  0  0  0  0  0  0  0999 V2000
    7.1950   -3.9590   19.6580 C   0  0  0  0  0  0  0  0  0  0  0  0
    5.9860   -3.8570   20.3450 C   0  0  0  0  0  0  0  0  0  0  0  0
    4.9820   -3.9950   19.6060 O   0  0  0  0  0  0  0  0  0  0  0  0
    6.0680   -3.7310   21.7100 N   0  0  0  0  0  0  0  0  0  0  0  0
    7.1690   -2.9300   22.1860 C   0  0  0  0  0  0  0  0  0  0  0  0
    6.8650   -2.5220   23.5870 C   0  0  0  0  0  0  0  0  0  0  0  0
    6.6140   -3.7030   24.4880 C   0  0  0  0  0  0  0  0  0  0  0  0
    5.9590   -3.2010   25.7100 C   0  0  0  0  0  0  0  0  0  0  0  0
    4.7180   -3.0210   25.6790 O   0  0  0  0  0  0  0  0  0  0  0  0
    6.6630   -2.8980   26.8930 N   0  0  0  0  0  0  0  0  0  0  0  0
    6.7250   -3.8120   28.0150 C   0  0  0  0  0  0  0  0  0  0  0  0
    6.7940   -5.2850   27.6330 C   0  0  0  0  0  0  0  0  0  0  0  0
    5.6480   -6.0390   27.5640 C   0  0  0  0  0  0  0  0  0  0  0  0
    4.9480   -6.6030   28.6220 C   0  0  0  0  0  0  0  0  0  0  0  0
    3.7750   -7.3350   28.3960 C   0  0  0  0  0  0  0  0  0  0  0  0
    3.2760   -7.5220   27.1090 C   0  0  0  0  0  0  0  0  0  0  0  0
    3.9300   -6.9960   26.0160 C   0  0  0  0  0  0  0  0  0  0  0  0
    5.1770   -6.2190   26.2890 C   0  0  0  0  0  0  0  0  0  0  0  0
    3.4460   -7.1880   24.7580 C   0  0  0  0  0  0  0  0  0  0  0  0
    3.1220   -8.3790   24.6570 O   0  0  0  0  0  0  0  0  0  0  0  0
    2.2400   -9.0470   25.4920 C   0  0  0  0  0  0  0  0  0  0  0  0
    1.9980   -8.2910   26.7890 C   0  0  0  0  0  0  0  0  0  0  0  0
    5.7390   -4.7570   23.8940 C   0  0  0  0  0  0  0  0  0  0  0  0
    5.9050   -4.9720   22.4140 C   0  0  0  0  0  0  0  0  0  0  0  0
  1  2  1  0
  2  3  2  0
  2  4  1  0
  4  5  1  0
  5  6  1  0
  6  7  1  0
  7  8  1  0
  8  9  2  0
  8 10  1  0
 10 11  1  0
 11 12  1  0
 12 13  1  0
 13 14  2  0
 14 15  1  0
 15 16  2  0
 16 17  1  0
 13 18  1  0
 17 18  2  0
 17 19  1  0
 19 20  1  0
 20 21  1  0
 16 22  1  0
 21 22  1  0
  7 23  1  0
  4 24  1  0
 23 24  1  0
M  END
