piperidine-amides-23321-covalent
     RDKit          3D

 24 26  0  0  0  0  0  0  0  0999 V2000
    7.0390   -3.3820   19.3930 C   0  0  0  0  0  0  0  0  0  0  0  0
    6.3330   -4.2100   20.3850 C   0  0  0  0  0  0  0  0  0  0  0  0
    5.3130   -4.7990   19.9640 O   0  0  0  0  0  0  0  0  0  0  0  0
    6.8000   -4.3920   21.7200 N   0  0  0  0  0  0  0  0  0  0  0  0
    6.2190   -5.4380   22.4850 C   0  0  0  0  0  0  0  0  0  0  0  0
    5.6580   -4.9960   23.7700 C   0  0  0  0  0  0  0  0  0  0  0  0
    5.7440   -3.5300   23.9770 C   0  0  0  0  0  0  0  0  0  0  0  0
    5.0740   -2.9340   25.2220 C   0  0  0  0  0  0  0  0  0  0  0  0
    4.4940   -1.8570   25.0660 O   0  0  0  0  0  0  0  0  0  0  0  0
    5.0280   -3.4700   26.5380 N   0  0  0  0  0  0  0  0  0  0  0  0
    4.5300   -2.8040   27.7080 C   0  0  0  0  0  0  0  0  0  0  0  0
    4.7940   -3.2950   29.0890 C   0  0  0  0  0  0  0  0  0  0  0  0
    5.1140   -4.7850   29.0250 C   0  0  0  0  0  0  0  0  0  0  0  0
    5.9750   -4.9520   28.0610 C   0  0  0  0  0  0  0  0  0  0  0  0
    6.8600   -5.9280   28.7470 C   0  0  0  0  0  0  0  0  0  0  0  0
    7.9360   -6.2520   27.7980 C   0  0  0  0  0  0  0  0  0  0  0  0
    7.8680   -5.5870   26.4390 C   0  0  0  0  0  0  0  0  0  0  0  0
    8.7620   -5.7520   25.3800 C   0  0  0  0  0  0  0  0  0  0  0  0
    8.1540   -5.4670   24.1280 N   0  0  0  0  0  0  0  0  0  0  0  0
   10.0600   -6.1290   25.7220 O   0  0  0  0  0  0  0  0  0  0  0  0
    6.9680   -4.7520   26.0710 N   0  0  0  0  0  0  0  0  0  0  0  0
    5.9600   -4.3790   26.9010 C   0  0  0  0  0  0  0  0  0  0  0  0
    7.1680   -2.9970   23.7490 C   0  0  0  0  0  0  0  0  0  0  0  0
    7.5730   -3.2720   22.3260 C   0  0  0  0  0  0  0  0  0  0  0  0
  1  2  1  0
  2  3  2  0
  2  4  1  0
  4  5  1  0
  5  6  1  0
  6  7  1  0
  7  8  1  0
  8  9  2  0
  8 10  1  0
 10 11  1  0
 11 12  1  0
 12 13  1  0
 13 14  1  0
 14 15  2  0
 15 16  1  0
 16 17  2  0
 17 18  1  0
 18 19  1  0
 18 20  2  0
 17 21  1  0
 10 22  1  0
 14 22  1  0
 21 22  2  0
  7 23  1  0
  4 24  1  0
 23 24  1  0
M  END
