piperidine-amides-8623-covalent
     RDKit          3D

 23 24  0  0  0  0  0  0  0  0999 V2000
    7.0560   -3.3000   19.3060 C   0  0  0  0  0  0  0  0  0  0  0  0
    6.3630   -4.1060   20.3100 C   0  0  0  0  0  0  0  0  0  0  0  0
    5.3430   -4.7230   19.9490 O   0  0  0  0  0  0  0  0  0  0  0  0
    6.8610   -4.2150   21.6370 N   0  0  0  0  0  0  0  0  0  0  0  0
    7.6270   -3.1300   22.2040 C   0  0  0  0  0  0  0  0  0  0  0  0
    7.4230   -3.0790   23.6930 C   0  0  0  0  0  0  0  0  0  0  0  0
    6.0440   -3.6460   23.9460 C   0  0  0  0  0  0  0  0  0  0  0  0
    5.5300   -3.3350   25.3270 C   0  0  0  0  0  0  0  0  0  0  0  0
    4.3400   -3.0480   25.3960 O   0  0  0  0  0  0  0  0  0  0  0  0
    6.3950   -3.3810   26.4170 N   0  0  0  0  0  0  0  0  0  0  0  0
    6.0540   -4.0310   27.6510 C   0  0  0  0  0  0  0  0  0  0  0  0
    6.1270   -5.4400   27.6510 C   0  0  0  0  0  0  0  0  0  0  0  0
    5.2290   -6.2050   28.3540 C   0  0  0  0  0  0  0  0  0  0  0  0
    4.0000   -6.7760   28.1040 C   0  0  0  0  0  0  0  0  0  0  0  0
    3.4220   -7.5460   29.2640 C   0  0  0  0  0  0  0  0  0  0  0  0
    2.0420   -8.2100   29.0440 C   0  0  0  0  0  0  0  0  0  0  0  0
    4.1130   -7.6390   30.4610 C   0  0  0  0  0  0  0  0  0  0  0  0
    5.4550   -7.0080   30.7120 C   0  0  0  0  0  0  0  0  0  0  0  0
    6.0520   -7.1160   31.8270 O   0  0  0  0  0  0  0  0  0  0  0  0
    5.6500   -7.8810   32.9050 C   0  0  0  0  0  0  0  0  0  0  0  0
    5.9690   -6.3130   29.6490 C   0  0  0  0  0  0  0  0  0  0  0  0
    6.1530   -5.1270   23.7550 C   0  0  0  0  0  0  0  0  0  0  0  0
    6.5640   -5.4440   22.3410 C   0  0  0  0  0  0  0  0  0  0  0  0
  1  2  1  0
  2  3  2  0
  2  4  1  0
  4  5  1  0
  5  6  1  0
  6  7  1  0
  7  8  1  0
  8  9  2  0
  8 10  1  0
 10 11  1  0
 11 12  1  0
 12 13  1  0
 13 14  2  0
 14 15  1  0
 15 16  1  0
 15 17  2  0
 17 18  1  0
 18 19  1  0
 19 20  1  0
 13 21  1  0
 18 21  2  0
  7 22  1  0
  4 23  1  0
 22 23  1  0
M  END
