piperidine-amides-29576-covalent
     RDKit          3D

 24 25  0  0  0  0  0  0  0  0999 V2000
    7.0590   -3.3490   19.3180 C   0  0  0  0  0  0  0  0  0  0  0  0
    6.3720   -4.1870   20.2890 C   0  0  0  0  0  0  0  0  0  0  0  0
    5.3470   -4.7800   19.9660 O   0  0  0  0  0  0  0  0  0  0  0  0
    6.9190   -4.3770   21.6030 N   0  0  0  0  0  0  0  0  0  0  0  0
    6.6160   -5.5680   22.3420 C   0  0  0  0  0  0  0  0  0  0  0  0
    5.8420   -5.2050   23.5770 C   0  0  0  0  0  0  0  0  0  0  0  0
    6.5600   -4.0490   24.2580 C   0  0  0  0  0  0  0  0  0  0  0  0
    5.7370   -3.5650   25.4100 C   0  0  0  0  0  0  0  0  0  0  0  0
    4.6130   -3.0660   25.2230 O   0  0  0  0  0  0  0  0  0  0  0  0
    6.2130   -3.6570   26.7480 N   0  0  0  0  0  0  0  0  0  0  0  0
    5.8680   -2.6140   27.6540 C   0  0  0  0  0  0  0  0  0  0  0  0
    5.2100   -3.3260   28.7970 C   0  0  1  0  0  0  0  0  0  0  0  0
    3.9220   -2.9670   29.1740 C   0  0  0  0  0  0  0  0  0  0  0  0
    3.0800   -2.6440   28.1640 F   0  0  0  0  0  0  0  0  0  0  0  0
    4.0250   -1.8410   29.9800 F   0  0  0  0  0  0  0  0  0  0  0  0
    3.2890   -3.9200   29.9520 F   0  0  0  0  0  0  0  0  0  0  0  0
    5.1560   -4.8120   28.3530 C   0  0  2  0  0  0  0  0  0  0  0  0
    5.0320   -6.1640   29.5160 S   0  0  0  0  0  0  0  0  0  0  0  0
    4.7220   -7.6600   28.5660 C   0  0  0  0  0  0  0  0  0  0  0  0
    6.3180   -6.2500   30.2650 O   0  0  0  0  0  0  0  0  0  0  0  0
    3.9270   -5.8830   30.4750 O   0  0  0  0  0  0  0  0  0  0  0  0
    6.2680   -4.8430   27.5950 C   0  0  0  0  0  0  0  0  0  0  0  0
    6.8930   -2.8850   23.3660 C   0  0  0  0  0  0  0  0  0  0  0  0
    7.6630   -3.3340   22.3150 C   0  0  0  0  0  0  0  0  0  0  0  0
  1  2  1  0
  2  3  2  0
  2  4  1  0
  4  5  1  0
  5  6  1  0
  6  7  1  0
  7  8  1  0
  8  9  2  0
  8 10  1  0
 10 11  1  0
 11 12  1  0
 12 13  1  6
 13 14  1  0
 13 15  1  0
 13 16  1  0
 12 17  1  0
 17 18  1  1
 18 19  1  0
 18 20  2  0
 18 21  2  0
 10 22  1  0
 17 22  1  0
  7 23  1  0
  4 24  1  0
 23 24  1  0
M  END
