piperidine-amides-30395-covalent
     RDKit          3D

 27 29  0  0  0  0  0  0  0  0999 V2000
    7.0170   -3.3280   19.2740 C   0  0  0  0  0  0  0  0  0  0  0  0
    6.2300   -4.1450   20.2030 C   0  0  0  0  0  0  0  0  0  0  0  0
    5.1380   -4.5720   19.8480 O   0  0  0  0  0  0  0  0  0  0  0  0
    6.7050   -4.5060   21.4610 N   0  0  0  0  0  0  0  0  0  0  0  0
    6.2280   -5.6840   22.1600 C   0  0  0  0  0  0  0  0  0  0  0  0
    5.4900   -5.1990   23.4010 C   0  0  0  0  0  0  0  0  0  0  0  0
    6.2790   -4.1740   24.1740 C   0  0  0  0  0  0  0  0  0  0  0  0
    5.7240   -3.7920   25.4990 C   0  0  0  0  0  0  0  0  0  0  0  0
    4.4740   -3.7240   25.7010 O   0  0  0  0  0  0  0  0  0  0  0  0
    6.5960   -3.4720   26.5660 N   0  0  0  0  0  0  0  0  0  0  0  0
    6.1940   -2.4560   27.5660 C   0  0  0  0  0  0  0  0  0  0  0  0
    8.0050   -3.3990   26.2080 C   0  0  0  0  0  0  0  0  0  0  0  0
    8.2410   -2.1560   25.4430 C   0  0  2  0  0  0  0  0  0  0  0  0
    6.9990   -1.2660   25.3740 C   0  0  0  0  0  0  0  0  0  0  0  0
    7.0390   -0.4550   24.0870 C   0  0  2  0  0  0  0  0  0  0  0  0
    5.8020   -0.5480   23.3580 F   0  0  0  0  0  0  0  0  0  0  0  0
    8.2430   -0.9970   23.4070 C   0  0  0  0  0  0  0  0  0  0  0  0
    8.5650   -2.2480   24.0170 N   0  0  0  0  0  0  0  0  0  0  0  0
    9.6420   -2.8780   23.5420 C   0  0  0  0  0  0  0  0  0  0  0  0
   10.9240   -2.5830   23.9660 C   0  0  0  0  0  0  0  0  0  0  0  0
   11.6260   -1.5040   23.5310 N   0  0  0  0  0  0  0  0  0  0  0  0
   12.9350   -1.2050   23.9490 C   0  0  0  0  0  0  0  0  0  0  0  0
   13.5210   -2.1840   24.9340 C   0  0  0  0  0  0  0  0  0  0  0  0
   12.7010   -3.3290   25.3620 C   0  0  0  0  0  0  0  0  0  0  0  0
   11.4650   -3.4720   24.8710 N   0  0  0  0  0  0  0  0  0  0  0  0
    6.4710   -3.0080   23.2790 C   0  0  0  0  0  0  0  0  0  0  0  0
    7.3070   -3.4410   22.1590 C   0  0  0  0  0  0  0  0  0  0  0  0
  1  2  1  0
  2  3  2  0
  2  4  1  0
  4  5  1  0
  5  6  1  0
  6  7  1  0
  7  8  1  0
  8  9  2  0
  8 10  1  0
 10 11  1  0
 10 12  1  0
 13 12  1  6
 13 14  1  0
 14 15  1  0
 15 16  1  6
 15 17  1  0
 13 18  1  0
 17 18  1  0
 18 19  1  0
 19 20  1  0
 20 21  2  0
 21 22  1  0
 22 23  2  0
 23 24  1  0
 20 25  1  0
 24 25  2  0
  7 26  1  0
  4 27  1  0
 26 27  1  0
M  END
