piperidine-amides-3654-covalent
     RDKit          3D

 18 20  0  0  0  0  0  0  0  0999 V2000
    7.0500   -3.3280   19.2960 C   0  0  0  0  0  0  0  0  0  0  0  0
    6.3610   -4.1400   20.3150 C   0  0  0  0  0  0  0  0  0  0  0  0
    5.3190   -4.7300   19.9460 O   0  0  0  0  0  0  0  0  0  0  0  0
    6.8630   -4.3100   21.6360 N   0  0  0  0  0  0  0  0  0  0  0  0
    7.6410   -3.2650   22.2240 C   0  0  0  0  0  0  0  0  0  0  0  0
    7.3010   -3.0270   23.6170 C   0  0  0  0  0  0  0  0  0  0  0  0
    6.0760   -3.7300   24.0190 C   0  0  0  0  0  0  0  0  0  0  0  0
    5.5810   -3.3930   25.3980 C   0  0  0  0  0  0  0  0  0  0  0  0
    4.3690   -3.5200   25.6390 O   0  0  0  0  0  0  0  0  0  0  0  0
    6.4210   -2.9180   26.4240 N   0  0  0  0  0  0  0  0  0  0  0  0
    6.6560   -1.5720   26.7800 C   0  0  0  0  0  0  0  0  0  0  0  0
    5.5790   -0.5730   26.6870 C   0  0  0  0  0  0  0  0  0  0  0  0
    5.8410   -0.5150   28.1320 C   0  0  0  0  0  0  0  0  0  0  0  0
    6.7220    0.4720   28.4200 C   0  0  0  0  0  0  0  0  0  0  0  0
    5.4620    0.7760   29.0330 C   0  0  0  0  0  0  0  0  0  0  0  0
    6.9680   -1.4230   28.3050 C   0  0  0  0  0  0  0  0  0  0  0  0
    6.2480   -5.2420   23.8370 C   0  0  0  0  0  0  0  0  0  0  0  0
    6.6510   -5.5240   22.3960 C   0  0  0  0  0  0  0  0  0  0  0  0
  1  2  1  0
  2  3  2  0
  2  4  1  0
  4  5  1  0
  5  6  1  0
  6  7  1  0
  7  8  1  0
  8  9  2  0
  8 10  1  0
 10 11  1  0
 11 12  1  0
 13 12  1  0
 13 14  1  0
 13 15  1  0
 14 15  1  0
 11 16  1  0
 13 16  1  0
  7 17  1  0
  4 18  1  0
 17 18  1  0
M  END
