piperidine-amides-12514-covalent
     RDKit          3D

 23 25  0  0  0  0  0  0  0  0999 V2000
    7.0630   -3.2710   19.1970 C   0  0  0  0  0  0  0  0  0  0  0  0
    6.3200   -4.0110   20.2470 C   0  0  0  0  0  0  0  0  0  0  0  0
    5.2690   -4.5800   19.8910 O   0  0  0  0  0  0  0  0  0  0  0  0
    6.8070   -4.0950   21.5590 N   0  0  0  0  0  0  0  0  0  0  0  0
    7.4430   -2.9750   22.1470 C   0  0  0  0  0  0  0  0  0  0  0  0
    6.9720   -2.6900   23.5030 C   0  0  0  0  0  0  0  0  0  0  0  0
    5.8520   -3.5290   24.0090 C   0  0  0  0  0  0  0  0  0  0  0  0
    5.7810   -3.4760   25.4940 C   0  0  0  0  0  0  0  0  0  0  0  0
    4.7080   -3.0860   25.9920 O   0  0  0  0  0  0  0  0  0  0  0  0
    6.8600   -3.8380   26.3410 N   0  0  0  0  0  0  0  0  0  0  0  0
    7.7590   -4.9950   26.0770 C   0  0  0  0  0  0  0  0  0  0  0  0
    9.0550   -4.5120   25.5260 C   0  0  0  0  0  0  0  0  0  0  0  0
    9.7460   -3.8930   26.6190 C   0  0  0  0  0  0  0  0  0  0  0  0
   10.4980   -4.5410   25.8520 C   0  0  0  0  0  0  0  0  0  0  0  0
   11.1290   -3.6300   25.0250 C   0  0  0  0  0  0  0  0  0  0  0  0
   12.4440   -3.2390   25.0200 C   0  0  0  0  0  0  0  0  0  0  0  0
   12.9040   -2.3150   24.0980 C   0  0  0  0  0  0  0  0  0  0  0  0
   12.0840   -1.7360   23.1390 C   0  0  0  0  0  0  0  0  0  0  0  0
   10.7340   -2.1040   23.1160 C   0  0  0  0  0  0  0  0  0  0  0  0
   10.3310   -3.0820   24.1260 C   0  0  0  0  0  0  0  0  0  0  0  0
    8.9230   -3.5840   24.2670 C   0  0  0  0  0  0  0  0  0  0  0  0
    5.8110   -4.9810   23.4650 C   0  0  0  0  0  0  0  0  0  0  0  0
    6.6700   -5.2720   22.3800 C   0  0  0  0  0  0  0  0  0  0  0  0
  1  2  1  0
  2  3  2  0
  2  4  1  0
  4  5  1  0
  5  6  1  0
  6  7  1  0
  7  8  1  0
  8  9  2  0
  8 10  1  0
 10 11  1  0
 12 11  1  0
 12 13  1  0
 12 14  1  0
 14 15  1  0
 15 16  1  0
 16 17  2  0
 17 18  1  0
 18 19  2  0
 15 20  2  0
 19 20  1  0
 12 21  1  0
 20 21  1  0
  7 22  1  0
  4 23  1  0
 22 23  1  0
M  END
