piperidine-amides-32746-covalent
     RDKit          3D

 28 31  0  0  0  0  0  0  0  0999 V2000
    7.0740   -3.3290   19.3240 C   0  0  0  0  0  0  0  0  0  0  0  0
    6.3860   -4.1990   20.3130 C   0  0  0  0  0  0  0  0  0  0  0  0
    5.3600   -4.8080   19.9700 O   0  0  0  0  0  0  0  0  0  0  0  0
    6.9440   -4.3560   21.6010 N   0  0  0  0  0  0  0  0  0  0  0  0
    6.6030   -5.4820   22.4230 C   0  0  0  0  0  0  0  0  0  0  0  0
    5.7030   -4.9320   23.5380 C   0  0  0  0  0  0  0  0  0  0  0  0
    6.4420   -3.8410   24.2520 C   0  0  0  0  0  0  0  0  0  0  0  0
    5.6580   -3.2730   25.3790 C   0  0  0  0  0  0  0  0  0  0  0  0
    4.4940   -2.9600   25.1070 O   0  0  0  0  0  0  0  0  0  0  0  0
    6.2050   -3.1030   26.6600 N   0  0  0  0  0  0  0  0  0  0  0  0
    6.2530   -4.0810   27.7040 C   0  0  0  0  0  0  0  0  0  0  0  0
    5.3050   -4.2950   28.6600 C   0  0  0  0  0  0  0  0  0  0  0  0
    4.2100   -3.5180   29.0950 C   0  0  0  0  0  0  0  0  0  0  0  0
    3.4510   -4.0690   30.1150 C   0  0  0  0  0  0  0  0  0  0  0  0
    3.9400   -5.3970   30.5680 C   0  0  0  0  0  0  0  0  0  0  0  0
    5.3650   -5.8290   29.6220 S   0  0  0  0  0  0  0  0  0  0  0  0
    6.3340   -1.8100   27.3220 C   0  0  0  0  0  0  0  0  0  0  0  0
    5.7160   -0.5980   26.6610 C   0  0  0  0  0  0  0  0  0  0  0  0
    5.8070    0.6440   27.2680 C   0  0  0  0  0  0  0  0  0  0  0  0
    6.4940    0.9080   28.5800 C   0  0  0  0  0  0  0  0  0  0  0  0
    7.0880   -0.3930   29.1510 C   0  0  0  0  0  0  0  0  0  0  0  0
    7.0160   -1.6200   28.5840 C   0  0  0  0  0  0  0  0  0  0  0  0
    7.7500   -0.2090   30.3710 O   0  0  0  0  0  0  0  0  0  0  0  0
    7.1460    0.5640   31.3280 C   0  0  0  0  0  0  0  0  0  0  0  0
    6.8190    1.8930   30.6980 C   0  0  0  0  0  0  0  0  0  0  0  0
    6.6550    2.1010   29.2970 O   0  0  0  0  0  0  0  0  0  0  0  0
    6.8170   -2.6980   23.3380 C   0  0  0  0  0  0  0  0  0  0  0  0
    7.6420   -3.2340   22.2260 C   0  0  0  0  0  0  0  0  0  0  0  0
  1  2  1  0
  2  3  2  0
  2  4  1  0
  4  5  1  0
  5  6  1  0
  6  7  1  0
  7  8  1  0
  8  9  2  0
  8 10  1  0
 10 11  1  0
 11 12  1  0
 12 13  2  0
 13 14  1  0
 14 15  2  0
 12 16  1  0
 15 16  1  0
 10 17  1  0
 17 18  2  0
 18 19  1  0
 19 20  2  0
 20 21  1  0
 17 22  1  0
 21 22  2  0
 21 23  1  0
 23 24  1  0
 24 25  1  0
 20 26  1  0
 25 26  1  0
  7 27  1  0
  4 28  1  0
 27 28  1  0
M  END
