piperidine-amides-10442-covalent
     RDKit          3D

 24 25  0  0  0  0  0  0  0  0999 V2000
    7.0530   -3.2980   19.3110 C   0  0  0  0  0  0  0  0  0  0  0  0
    6.3360   -4.1340   20.2840 C   0  0  0  0  0  0  0  0  0  0  0  0
    5.2480   -4.6200   19.8980 O   0  0  0  0  0  0  0  0  0  0  0  0
    6.8700   -4.4070   21.5480 N   0  0  0  0  0  0  0  0  0  0  0  0
    6.4960   -5.5990   22.2580 C   0  0  0  0  0  0  0  0  0  0  0  0
    6.1870   -5.2030   23.6820 C   0  0  0  0  0  0  0  0  0  0  0  0
    5.7420   -3.7630   23.7990 C   0  0  0  0  0  0  0  0  0  0  0  0
    5.6070   -3.3550   25.2260 C   0  0  0  0  0  0  0  0  0  0  0  0
    4.4630   -3.0570   25.6340 O   0  0  0  0  0  0  0  0  0  0  0  0
    6.6780   -3.2810   26.1460 N   0  0  0  0  0  0  0  0  0  0  0  0
    8.0060   -3.6790   25.7690 C   0  0  0  0  0  0  0  0  0  0  0  0
    8.7240   -2.6180   24.9250 C   0  0  0  0  0  0  0  0  0  0  0  0
    8.1570   -1.5450   24.2560 C   0  0  0  0  0  0  0  0  0  0  0  0
    8.8380   -0.6110   23.4950 C   0  0  0  0  0  0  0  0  0  0  0  0
   10.2040   -0.6890   23.3510 C   0  0  0  0  0  0  0  0  0  0  0  0
   10.8730    0.2250   22.6130 F   0  0  0  0  0  0  0  0  0  0  0  0
   10.8280   -1.7220   23.9900 C   0  0  0  0  0  0  0  0  0  0  0  0
   12.1790   -1.9220   23.9430 C   0  0  0  0  0  0  0  0  0  0  0  0
   12.2540   -2.8800   24.8620 N   0  0  0  0  0  0  0  0  0  0  0  0
   13.5110   -2.8250   25.2960 C   0  0  0  0  0  0  0  0  0  0  0  0
   11.4620   -3.8140   25.5770 C   0  0  0  0  0  0  0  0  0  0  0  0
   10.0910   -2.6120   24.7220 C   0  0  0  0  0  0  0  0  0  0  0  0
    6.6720   -2.7880   23.1290 C   0  0  0  0  0  0  0  0  0  0  0  0
    7.5950   -3.4210   22.3300 C   0  0  0  0  0  0  0  0  0  0  0  0
  1  2  1  0
  2  3  2  0
  2  4  1  0
  4  5  1  0
  5  6  1  0
  6  7  1  0
  7  8  1  0
  8  9  2  0
  8 10  1  0
 10 11  1  0
 11 12  1  0
 12 13  2  0
 13 14  1  0
 14 15  2  0
 15 16  1  0
 15 17  1  0
 17 18  1  0
 18 19  1  0
 19 20  1  0
 19 21  1  0
 12 22  1  0
 17 22  2  0
  7 23  1  0
  4 24  1  0
 23 24  1  0
M  END
