piperidine-amides-13929-covalent
     RDKit          3D

 26 28  0  0  0  0  0  0  0  0999 V2000
    7.1040   -3.2750   19.2230 C   0  0  0  0  0  0  0  0  0  0  0  0
    6.3420   -4.0590   20.2310 C   0  0  0  0  0  0  0  0  0  0  0  0
    5.2740   -4.5940   19.8960 O   0  0  0  0  0  0  0  0  0  0  0  0
    6.8780   -4.2190   21.5230 N   0  0  0  0  0  0  0  0  0  0  0  0
    7.6530   -3.1950   22.1870 C   0  0  0  0  0  0  0  0  0  0  0  0
    6.7830   -2.6410   23.3160 C   0  0  0  0  0  0  0  0  0  0  0  0
    6.5140   -3.7840   24.2340 C   0  0  0  0  0  0  0  0  0  0  0  0
    5.7390   -3.4030   25.4440 C   0  0  0  0  0  0  0  0  0  0  0  0
    4.5160   -3.2950   25.2950 O   0  0  0  0  0  0  0  0  0  0  0  0
    6.3940   -3.1740   26.6630 N   0  0  0  0  0  0  0  0  0  0  0  0
    6.0870   -3.6420   27.9820 C   0  0  2  0  0  0  0  0  0  0  0  0
    6.7410   -4.6420   28.6600 C   0  0  0  0  0  0  0  0  0  0  0  0
    4.6490   -4.1340   28.1230 C   0  0  0  0  0  0  0  0  0  0  0  0
    4.1470   -5.1840   28.9630 N   0  0  0  0  0  0  0  0  0  0  0  0
    2.8640   -5.4830   28.9680 C   0  0  0  0  0  0  0  0  0  0  0  0
    2.2920   -6.5630   29.8180 C   0  0  0  0  0  0  0  0  0  0  0  0
    3.0980   -7.4340   30.7740 C   0  0  0  0  0  0  0  0  0  0  0  0
    2.3240   -8.4770   31.5500 C   0  0  0  0  0  0  0  0  0  0  0  0
    0.9740   -8.6690   31.4350 C   0  0  0  0  0  0  0  0  0  0  0  0
    0.2040  -10.0500   32.5130 Br  0  0  0  0  0  0  0  0  0  0  0  0
    0.0770   -7.8830   30.5380 C   0  0  0  0  0  0  0  0  0  0  0  0
    0.8170   -6.8040   29.7230 C   0  0  0  0  0  0  0  0  0  0  0  0
    1.9920   -4.6910   28.0770 C   0  0  0  0  0  0  0  0  0  0  0  0
    3.1750   -3.6360   27.3740 S   0  0  0  0  0  0  0  0  0  0  0  0
    5.8060   -4.9410   23.5990 C   0  0  0  0  0  0  0  0  0  0  0  0
    6.4950   -5.3670   22.3260 C   0  0  0  0  0  0  0  0  0  0  0  0
  1  2  1  0
  2  3  2  0
  2  4  1  0
  4  5  1  0
  5  6  1  0
  6  7  1  0
  7  8  1  0
  8  9  2  0
  8 10  1  0
 10 11  1  0
 11 12  1  6
 11 13  1  0
 13 14  2  0
 14 15  1  0
 15 16  1  0
 16 17  2  0
 17 18  1  0
 18 19  2  0
 19 20  1  0
 19 21  1  0
 16 22  1  0
 21 22  2  0
 15 23  2  0
 13 24  1  0
 23 24  1  0
  7 25  1  0
  4 26  1  0
 25 26  1  0
M  END
