piperidine-amides-1562-covalent
     RDKit          3D

 21 23  0  0  0  0  0  0  0  0999 V2000
    7.1460   -3.3000   19.2240 C   0  0  0  0  0  0  0  0  0  0  0  0
    6.3550   -4.0560   20.2270 C   0  0  0  0  0  0  0  0  0  0  0  0
    5.2720   -4.5630   19.8880 O   0  0  0  0  0  0  0  0  0  0  0  0
    6.8900   -4.2280   21.5190 N   0  0  0  0  0  0  0  0  0  0  0  0
    7.7050   -3.2280   22.1700 C   0  0  0  0  0  0  0  0  0  0  0  0
    6.8620   -2.6600   23.3100 C   0  0  0  0  0  0  0  0  0  0  0  0
    6.4900   -3.8100   24.1750 C   0  0  0  0  0  0  0  0  0  0  0  0
    5.7120   -3.4040   25.3680 C   0  0  0  0  0  0  0  0  0  0  0  0
    4.4820   -3.4790   25.2730 O   0  0  0  0  0  0  0  0  0  0  0  0
    6.3610   -2.9560   26.5220 N   0  0  0  0  0  0  0  0  0  0  0  0
    6.5250   -1.6080   26.9250 C   0  0  0  0  0  0  0  0  0  0  0  0
    6.6190   -1.1970   28.2360 C   0  0  1  0  0  0  0  0  0  0  0  0
    6.5200   -0.0180   28.6330 C   0  0  0  0  0  0  0  0  0  0  0  0
    5.3320   -0.7200   29.0170 C   0  0  0  0  0  0  0  0  0  0  0  0
    5.3080   -1.4190   30.3240 C   0  0  0  0  0  0  0  0  0  0  0  0
    3.9710   -1.3910   31.0750 C   0  0  0  0  0  0  0  0  0  0  0  0
    3.0150   -0.5360   30.4390 N   0  0  0  0  0  0  0  0  0  0  0  0
    3.4120    0.3120   29.3700 C   0  0  0  0  0  0  0  0  0  0  0  0
    4.1660   -0.3600   28.4240 C   0  0  0  0  0  0  0  0  0  0  0  0
    5.7320   -4.8960   23.4830 C   0  0  0  0  0  0  0  0  0  0  0  0
    6.5110   -5.3910   22.2820 C   0  0  0  0  0  0  0  0  0  0  0  0
  1  2  1  0
  2  3  2  0
  2  4  1  0
  4  5  1  0
  5  6  1  0
  6  7  1  0
  7  8  1  0
  8  9  2  0
  8 10  1  0
 10 11  1  0
 12 11  1  6
 12 13  1  0
 12 14  1  0
 14 13  1  0
 14 15  1  0
 15 16  1  0
 16 17  1  0
 17 18  1  0
 14 19  1  0
 18 19  1  0
  7 20  1  0
  4 21  1  0
 20 21  1  0
M  END
