piperidine-amides-35259-covalent
     RDKit          3D

 33 36  0  0  0  0  0  0  0  0999 V2000
    7.0770   -3.3100   19.2330 C   0  0  0  0  0  0  0  0  0  0  0  0
    6.3440   -4.1330   20.2280 C   0  0  0  0  0  0  0  0  0  0  0  0
    5.2650   -4.6050   19.8920 O   0  0  0  0  0  0  0  0  0  0  0  0
    6.9150   -4.3850   21.4610 N   0  0  0  0  0  0  0  0  0  0  0  0
    6.5550   -5.5730   22.2010 C   0  0  0  0  0  0  0  0  0  0  0  0
    5.7130   -5.1920   23.3910 C   0  0  0  0  0  0  0  0  0  0  0  0
    6.3930   -4.0250   24.0940 C   0  0  0  0  0  0  0  0  0  0  0  0
    5.5360   -3.5840   25.1920 C   0  0  0  0  0  0  0  0  0  0  0  0
    4.3020   -3.5820   25.0920 O   0  0  0  0  0  0  0  0  0  0  0  0
    6.1560   -3.1550   26.3530 N   0  0  0  0  0  0  0  0  0  0  0  0
    7.3810   -3.8560   26.6710 C   0  0  0  0  0  0  0  0  0  0  0  0
    8.5460   -3.3170   25.8260 C   0  0  0  0  0  0  0  0  0  0  0  0
    8.2910   -2.2550   24.9870 C   0  0  0  0  0  0  0  0  0  0  0  0
    9.1830   -1.6850   24.2050 C   0  0  0  0  0  0  0  0  0  0  0  0
   10.3850   -2.1830   24.2560 C   0  0  0  0  0  0  0  0  0  0  0  0
   10.8180   -3.3210   25.1090 C   0  0  0  0  0  0  0  0  0  0  0  0
    9.8540   -4.0520   26.0470 C   0  0  0  0  0  0  0  0  0  0  0  0
   10.3030   -5.0730   26.7900 O   0  0  0  0  0  0  0  0  0  0  0  0
    9.3790   -6.1000   26.8910 C   0  0  0  0  0  0  0  0  0  0  0  0
    5.8440   -1.7570   26.6410 C   0  0  0  0  0  0  0  0  0  0  0  0
    6.3750   -0.7910   25.8020 N   0  0  0  0  0  0  0  0  0  0  0  0
    6.0160    0.5280   26.1240 C   0  0  0  0  0  0  0  0  0  0  0  0
    6.5710    1.6230   25.2280 C   0  0  0  0  0  0  0  0  0  0  0  0
    6.8040    3.0120   25.7020 C   0  0  0  0  0  0  0  0  0  0  0  0
    7.3590    4.0740   24.7940 C   0  0  0  0  0  0  0  0  0  0  0  0
    7.6940    3.8690   23.4740 C   0  0  0  0  0  0  0  0  0  0  0  0
    8.2550    4.9060   22.5250 C   0  0  0  0  0  0  0  0  0  0  0  0
    7.4830    2.4880   22.9250 C   0  0  0  0  0  0  0  0  0  0  0  0
    6.9170    1.4590   23.9000 C   0  0  0  0  0  0  0  0  0  0  0  0
    5.1970    0.7230   27.2160 C   0  0  0  0  0  0  0  0  0  0  0  0
    4.9190   -0.8840   27.7800 S   0  0  0  0  0  0  0  0  0  0  0  0
    6.7310   -2.9030   23.2340 C   0  0  0  0  0  0  0  0  0  0  0  0
    7.6130   -3.3650   22.1580 C   0  0  0  0  0  0  0  0  0  0  0  0
  1  2  1  0
  2  3  2  0
  2  4  1  0
  4  5  1  0
  5  6  1  0
  6  7  1  0
  7  8  1  0
  8  9  2  0
  8 10  1  0
 10 11  1  0
 11 12  1  0
 12 13  2  0
 13 14  1  0
 14 15  2  0
 15 16  1  0
 12 17  1  0
 16 17  2  0
 17 18  1  0
 18 19  1  0
 10 20  1  0
 20 21  2  0
 21 22  1  0
 22 23  1  0
 23 24  2  0
 24 25  1  0
 25 26  2  0
 26 27  1  0
 26 28  1  0
 23 29  1  0
 28 29  2  0
 22 30  2  0
 20 31  1  0
 30 31  1  0
  7 32  1  0
  4 33  1  0
 32 33  1  0
M  END
