piperidine-amides-25057-covalent
     RDKit          3D

 24 26  0  0  0  0  0  0  0  0999 V2000
    7.0340   -3.3510   19.3720 C   0  0  0  0  0  0  0  0  0  0  0  0
    6.3960   -4.2430   20.3800 C   0  0  0  0  0  0  0  0  0  0  0  0
    5.4230   -4.8930   19.9960 O   0  0  0  0  0  0  0  0  0  0  0  0
    6.9160   -4.3510   21.6820 N   0  0  0  0  0  0  0  0  0  0  0  0
    6.7190   -5.5560   22.4700 C   0  0  0  0  0  0  0  0  0  0  0  0
    6.0760   -5.2160   23.7920 C   0  0  0  0  0  0  0  0  0  0  0  0
    6.0390   -3.7000   23.9140 C   0  0  0  0  0  0  0  0  0  0  0  0
    5.3660   -3.2760   25.1700 C   0  0  0  0  0  0  0  0  0  0  0  0
    4.6110   -2.3040   25.1130 O   0  0  0  0  0  0  0  0  0  0  0  0
    5.5220   -3.9070   26.4170 N   0  0  0  0  0  0  0  0  0  0  0  0
    4.3600   -4.3670   27.0830 C   0  0  0  0  0  0  0  0  0  0  0  0
    2.9880   -4.5580   26.5150 C   0  0  0  0  0  0  0  0  0  0  0  0
    2.3330   -5.0410   27.7620 N   0  0  0  0  0  0  0  0  0  0  0  0
    3.1500   -5.1150   28.8200 N   0  0  0  0  0  0  0  0  0  0  0  0
    2.8100   -5.5180   30.0570 C   0  0  0  0  0  0  0  0  0  0  0  0
    4.4030   -4.7240   28.5080 C   0  0  0  0  0  0  0  0  0  0  0  0
    5.6160   -4.5730   29.0800 C   0  0  0  0  0  0  0  0  0  0  0  0
    6.8400   -4.4700   28.2500 C   0  0  0  0  0  0  0  0  0  0  0  0
    6.3940   -3.3420   27.3220 C   0  0  2  0  0  0  0  0  0  0  0  0
    6.1890   -2.1660   28.2510 C   0  0  0  0  0  0  0  0  0  0  0  0
    4.8730   -1.9290   28.5220 F   0  0  0  0  0  0  0  0  0  0  0  0
    6.9260   -2.0670   29.3710 F   0  0  0  0  0  0  0  0  0  0  0  0
    7.3140   -3.0290   23.6360 C   0  0  0  0  0  0  0  0  0  0  0  0
    7.7190   -3.2680   22.2260 C   0  0  0  0  0  0  0  0  0  0  0  0
  1  2  1  0
  2  3  2  0
  2  4  1  0
  4  5  1  0
  5  6  1  0
  6  7  1  0
  7  8  1  0
  8  9  2  0
  8 10  1  0
 10 11  1  0
 11 12  1  0
 12 13  2  0
 13 14  1  0
 14 15  1  0
 11 16  2  0
 14 16  1  0
 16 17  1  0
 17 18  1  0
 10 19  1  0
 18 19  1  0
 19 20  1  1
 20 21  1  0
 20 22  1  0
  7 23  1  0
  4 24  1  0
 23 24  1  0
M  END
