piperidine-amides-9258-covalent
     RDKit          3D

 20 20  0  0  0  0  0  0  0  0999 V2000
    7.1150   -3.2810   19.2030 C   0  0  0  0  0  0  0  0  0  0  0  0
    6.3740   -4.0350   20.2170 C   0  0  0  0  0  0  0  0  0  0  0  0
    5.3080   -4.5870   19.8990 O   0  0  0  0  0  0  0  0  0  0  0  0
    6.8730   -4.1940   21.5180 N   0  0  0  0  0  0  0  0  0  0  0  0
    7.7270   -3.2220   22.1530 C   0  0  0  0  0  0  0  0  0  0  0  0
    6.9620   -2.7420   23.3530 C   0  0  0  0  0  0  0  0  0  0  0  0
    6.4250   -3.8610   24.2020 C   0  0  0  0  0  0  0  0  0  0  0  0
    5.5040   -3.3570   25.2500 C   0  0  0  0  0  0  0  0  0  0  0  0
    4.2890   -3.1210   24.9760 O   0  0  0  0  0  0  0  0  0  0  0  0
    5.9070   -3.1110   26.5740 N   0  0  0  0  0  0  0  0  0  0  0  0
    5.7110   -4.1450   27.6120 C   0  0  0  0  0  0  0  0  0  0  0  0
    6.7390   -3.8970   28.6230 C   0  0  0  0  0  0  0  0  0  0  0  0
    7.7170   -3.2490   28.0050 N   0  0  0  0  0  0  0  0  0  0  0  0
    8.1350   -3.6330   26.7220 C   0  0  0  0  0  0  0  0  0  0  0  0
    8.4350   -2.8860   25.7730 O   0  0  0  0  0  0  0  0  0  0  0  0
    8.1620   -5.1370   26.7270 C   0  0  0  0  0  0  0  0  0  0  0  0
    9.0770   -5.6230   25.6560 C   0  0  0  0  0  0  0  0  0  0  0  0
    8.7720   -5.5740   28.0600 C   0  0  0  0  0  0  0  0  0  0  0  0
    5.7040   -4.8910   23.3420 C   0  0  0  0  0  0  0  0  0  0  0  0
    6.4850   -5.3530   22.2760 C   0  0  0  0  0  0  0  0  0  0  0  0
  1  2  1  0
  2  3  2  0
  2  4  1  0
  4  5  1  0
  5  6  1  0
  6  7  1  0
  7  8  1  0
  8  9  2  0
  8 10  1  0
 10 11  1  0
 11 12  1  0
 12 13  1  0
 13 14  1  0
 14 15  2  0
 14 16  1  0
 16 17  1  0
 16 18  1  0
  7 19  1  0
  4 20  1  0
 19 20  1  0
M  END
