piperidine-amides-8527-covalent
     RDKit          3D

 24 25  0  0  0  0  0  0  0  0999 V2000
    7.0330   -3.3390   19.3210 C   0  0  0  0  0  0  0  0  0  0  0  0
    6.3620   -4.1710   20.3190 C   0  0  0  0  0  0  0  0  0  0  0  0
    5.3590   -4.8120   19.9690 O   0  0  0  0  0  0  0  0  0  0  0  0
    6.8840   -4.2630   21.6330 N   0  0  0  0  0  0  0  0  0  0  0  0
    7.6510   -3.1660   22.1440 C   0  0  0  0  0  0  0  0  0  0  0  0
    7.4810   -3.0910   23.6270 C   0  0  0  0  0  0  0  0  0  0  0  0
    6.0780   -3.5810   23.9240 C   0  0  0  0  0  0  0  0  0  0  0  0
    5.6850   -3.2180   25.3230 C   0  0  0  0  0  0  0  0  0  0  0  0
    4.5070   -3.3910   25.6270 O   0  0  0  0  0  0  0  0  0  0  0  0
    6.6830   -2.7230   26.1460 N   0  0  0  0  0  0  0  0  0  0  0  0
    6.5480   -1.5830   26.9980 C   0  0  0  0  0  0  0  0  0  0  0  0
    7.0320   -1.5910   28.3240 C   0  0  0  0  0  0  0  0  0  0  0  0
    6.9390   -0.5240   29.1730 C   0  0  0  0  0  0  0  0  0  0  0  0
    6.3490    0.6450   28.7630 C   0  0  0  0  0  0  0  0  0  0  0  0
    6.3910    1.6290   29.8870 C   0  0  0  0  0  0  0  0  0  0  0  0
    5.8420    0.7590   27.4990 C   0  0  0  0  0  0  0  0  0  0  0  0
    5.9190   -0.3710   26.5400 C   0  0  0  0  0  0  0  0  0  0  0  0
    5.4480   -0.2440   25.3770 O   0  0  0  0  0  0  0  0  0  0  0  0
    4.0520   -0.2700   25.2970 C   0  0  0  0  0  0  0  0  0  0  0  0
    3.3790   -0.0140   26.6720 C   0  0  0  0  0  0  0  0  0  0  0  0
    2.1220   -0.5450   26.7250 O   0  0  0  0  0  0  0  0  0  0  0  0
    1.7600   -1.8260   26.3250 C   0  0  0  0  0  0  0  0  0  0  0  0
    6.0950   -5.0720   23.7650 C   0  0  0  0  0  0  0  0  0  0  0  0
    6.5700   -5.4590   22.3880 C   0  0  0  0  0  0  0  0  0  0  0  0
  1  2  1  0
  2  3  2  0
  2  4  1  0
  4  5  1  0
  5  6  1  0
  6  7  1  0
  7  8  1  0
  8  9  2  0
  8 10  1  0
 10 11  1  0
 11 12  2  0
 12 13  1  0
 13 14  2  0
 14 15  1  0
 14 16  1  0
 11 17  1  0
 16 17  2  0
 17 18  1  0
 18 19  1  0
 19 20  1  0
 20 21  1  0
 21 22  1  0
  7 23  1  0
  4 24  1  0
 23 24  1  0
M  END
