piperidine-amides-15458-covalent
     RDKit          3D

 18 18  0  0  0  0  0  0  0  0999 V2000
    7.1120   -3.2790   19.2230 C   0  0  0  0  0  0  0  0  0  0  0  0
    6.3740   -4.0630   20.2230 C   0  0  0  0  0  0  0  0  0  0  0  0
    5.2990   -4.6240   19.9150 O   0  0  0  0  0  0  0  0  0  0  0  0
    6.8960   -4.2420   21.5060 N   0  0  0  0  0  0  0  0  0  0  0  0
    6.4810   -5.3740   22.2900 C   0  0  0  0  0  0  0  0  0  0  0  0
    5.5700   -4.8030   23.3790 C   0  0  0  0  0  0  0  0  0  0  0  0
    6.4430   -3.8870   24.2200 C   0  0  0  0  0  0  0  0  0  0  0  0
    5.7000   -3.4120   25.4020 C   0  0  0  0  0  0  0  0  0  0  0  0
    4.5480   -2.9700   25.2260 O   0  0  0  0  0  0  0  0  0  0  0  0
    6.2780   -3.4660   26.6950 N   0  0  0  0  0  0  0  0  0  0  0  0
    6.4980   -2.2210   27.3920 C   0  0  0  0  0  0  0  0  0  0  0  0
    6.1700   -4.7230   27.4380 C   0  0  1  0  0  0  0  0  0  0  0  0
    6.7560   -4.5600   28.6600 C   0  0  0  0  0  0  0  0  0  0  0  0
    4.8180   -5.2960   27.7120 C   0  0  0  0  0  0  0  0  0  0  0  0
    4.4680   -6.3630   26.8780 C   0  0  0  0  0  0  0  0  0  0  0  0
    3.3350   -7.1110   27.1060 C   0  0  0  0  0  0  0  0  0  0  0  0
    6.8480   -2.6780   23.3760 C   0  0  0  0  0  0  0  0  0  0  0  0
    7.6300   -3.2080   22.2070 C   0  0  0  0  0  0  0  0  0  0  0  0
  1  2  1  0
  2  3  2  0
  2  4  1  0
  4  5  1  0
  5  6  1  0
  6  7  1  0
  7  8  1  0
  8  9  2  0
  8 10  1  0
 10 11  1  0
 10 12  1  0
 12 13  1  1
 12 14  1  0
 14 15  1  0
 15 16  3  0
  7 17  1  0
  4 18  1  0
 17 18  1  0
M  END
