piperidine-amides-25426-covalent
     RDKit          3D

 25 27  0  0  0  0  0  0  0  0999 V2000
    7.0070   -3.3740   19.3720 C   0  0  0  0  0  0  0  0  0  0  0  0
    6.3780   -4.2690   20.3850 C   0  0  0  0  0  0  0  0  0  0  0  0
    5.4040   -4.9190   20.0010 O   0  0  0  0  0  0  0  0  0  0  0  0
    6.9050   -4.3800   21.6870 N   0  0  0  0  0  0  0  0  0  0  0  0
    6.6230   -5.5430   22.5060 C   0  0  0  0  0  0  0  0  0  0  0  0
    6.1960   -5.1390   23.9090 C   0  0  0  0  0  0  0  0  0  0  0  0
    6.1530   -3.6140   24.0260 C   0  0  0  0  0  0  0  0  0  0  0  0
    5.7030   -3.1130   25.3600 C   0  0  0  0  0  0  0  0  0  0  0  0
    5.2630   -1.9650   25.4060 O   0  0  0  0  0  0  0  0  0  0  0  0
    5.6780   -3.8540   26.5610 N   0  0  0  0  0  0  0  0  0  0  0  0
    6.4280   -3.3870   27.6650 C   0  0  0  0  0  0  0  0  0  0  0  0
    6.6580   -4.6370   28.4930 C   0  0  0  0  0  0  0  0  0  0  0  0
    5.6530   -5.0890   29.2600 C   0  0  0  0  0  0  0  0  0  0  0  0
    5.6600   -6.3500   29.7680 C   0  0  0  0  0  0  0  0  0  0  0  0
    4.4170   -6.7280   30.2100 C   0  0  0  0  0  0  0  0  0  0  0  0
    4.1430   -7.5430   31.4600 C   0  0  0  0  0  0  0  0  0  0  0  0
    5.4270   -7.6470   32.2380 C   0  0  0  0  0  0  0  0  0  0  0  0
    5.4130   -8.4250   33.5470 C   0  0  0  0  0  0  0  0  0  0  0  0
    4.1070   -9.0310   33.9650 C   0  0  0  0  0  0  0  0  0  0  0  0
    2.8750   -8.8920   33.1520 C   0  0  0  0  0  0  0  0  0  0  0  0
    2.8260   -8.1410   31.8560 C   0  0  0  0  0  0  0  0  0  0  0  0
    4.6530   -5.3570   28.1290 C   0  0  0  0  0  0  0  0  0  0  0  0
    4.4550   -4.1410   27.2600 C   0  0  0  0  0  0  0  0  0  0  0  0
    7.5060   -3.0820   23.6590 C   0  0  0  0  0  0  0  0  0  0  0  0
    7.6930   -3.2760   22.1840 C   0  0  0  0  0  0  0  0  0  0  0  0
  1  2  1  0
  2  3  2  0
  2  4  1  0
  4  5  1  0
  5  6  1  0
  6  7  1  0
  7  8  1  0
  8  9  2  0
  8 10  1  0
 10 11  1  0
 11 12  1  0
 12 13  1  0
 13 14  1  0
 14 15  1  0
 15 16  1  0
 16 17  2  0
 17 18  1  0
 18 19  2  0
 19 20  1  0
 16 21  1  0
 20 21  2  0
 13 22  1  0
 10 23  1  0
 22 23  1  0
  7 24  1  0
  4 25  1  0
 24 25  1  0
M  END
