piperidine-amides-3935-covalent
     RDKit          3D

 21 22  0  0  0  0  0  0  0  0999 V2000
    7.1500   -3.2820   19.2250 C   0  0  0  0  0  0  0  0  0  0  0  0
    6.4120   -4.0640   20.2300 C   0  0  0  0  0  0  0  0  0  0  0  0
    5.3010   -4.5290   19.8800 O   0  0  0  0  0  0  0  0  0  0  0  0
    6.9640   -4.3410   21.5060 N   0  0  0  0  0  0  0  0  0  0  0  0
    6.4220   -5.4130   22.2570 C   0  0  0  0  0  0  0  0  0  0  0  0
    5.9250   -5.0280   23.5720 C   0  0  0  0  0  0  0  0  0  0  0  0
    6.6430   -3.9160   24.2390 C   0  0  0  0  0  0  0  0  0  0  0  0
    5.9160   -3.4410   25.4510 C   0  0  0  0  0  0  0  0  0  0  0  0
    4.8120   -2.8740   25.3200 O   0  0  0  0  0  0  0  0  0  0  0  0
    6.4560   -3.6300   26.7340 N   0  0  0  0  0  0  0  0  0  0  0  0
    6.8850   -4.8510   27.3120 C   0  0  0  0  0  0  0  0  0  0  0  0
    5.9590   -5.8490   27.7930 C   0  0  0  0  0  0  0  0  0  0  0  0
    4.9610   -5.4520   28.8960 C   0  0  0  0  0  0  0  0  0  0  0  0
    4.9420   -4.1700   29.4110 C   0  0  0  0  0  0  0  0  0  0  0  0
    3.6510   -4.3270   30.2440 C   0  0  0  0  0  0  0  0  0  0  0  0
    3.2480   -3.0710   31.0180 C   0  0  0  0  0  0  0  0  0  0  0  0
    4.2240   -1.8850   30.8080 C   0  0  0  0  0  0  0  0  0  0  0  0
    5.4630   -1.8100   29.9780 C   0  0  0  0  0  0  0  0  0  0  0  0
    5.7480   -3.0860   29.2790 C   0  0  0  0  0  0  0  0  0  0  0  0
    6.8650   -2.7360   23.2840 C   0  0  0  0  0  0  0  0  0  0  0  0
    7.6890   -3.2370   22.1610 C   0  0  0  0  0  0  0  0  0  0  0  0
  1  2  1  0
  2  3  2  0
  2  4  1  0
  4  5  1  0
  5  6  1  0
  6  7  1  0
  7  8  1  0
  8  9  2  0
  8 10  1  0
 10 11  1  0
 11 12  1  0
 12 13  2  3
 13 14  1  0
 14 15  2  0
 15 16  1  0
 16 17  2  0
 17 18  1  0
 14 19  1  0
 18 19  2  0
  7 20  1  0
  4 21  1  0
 20 21  1  0
M  END
