piperidine-amides-24366-covalent
     RDKit          3D

 24 26  0  0  0  0  0  0  0  0999 V2000
    7.1020   -3.3680   19.4070 C   0  0  0  0  0  0  0  0  0  0  0  0
    6.3970   -4.2400   20.3480 C   0  0  0  0  0  0  0  0  0  0  0  0
    5.3610   -4.8370   19.9840 O   0  0  0  0  0  0  0  0  0  0  0  0
    6.9110   -4.4690   21.6330 N   0  0  0  0  0  0  0  0  0  0  0  0
    6.4380   -5.6090   22.3480 C   0  0  0  0  0  0  0  0  0  0  0  0
    5.4280   -5.0260   23.3370 C   0  0  0  0  0  0  0  0  0  0  0  0
    6.1940   -4.1070   24.2710 C   0  0  0  0  0  0  0  0  0  0  0  0
    5.2270   -3.4620   25.2020 C   0  0  0  0  0  0  0  0  0  0  0  0
    4.3300   -2.7630   24.7060 O   0  0  0  0  0  0  0  0  0  0  0  0
    5.3620   -3.6470   26.5970 N   0  0  0  0  0  0  0  0  0  0  0  0
    6.5620   -3.2030   27.1450 C   0  0  0  0  0  0  0  0  0  0  0  0
    6.7020   -4.1520   28.2870 C   0  0  0  0  0  0  0  0  0  0  0  0
    5.4800   -4.1480   28.7910 C   0  0  0  0  0  0  0  0  0  0  0  0
    4.7130   -3.4060   27.9040 C   0  0  2  0  0  0  0  0  0  0  0  0
    3.3590   -3.6680   27.6790 C   0  0  2  0  0  0  0  0  0  0  0  0
    2.6630   -2.6790   27.0500 C   0  0  0  0  0  0  0  0  0  0  0  0
    2.2690   -1.4410   27.8630 C   0  0  0  0  0  0  0  0  0  0  0  0
    1.8170   -2.6670   28.6750 C   0  0  0  0  0  0  0  0  0  0  0  0
    2.9050   -3.6490   28.9060 N   0  0  0  0  0  0  0  0  0  0  0  0
    2.3000   -4.8100   29.5760 C   0  0  0  0  0  0  0  0  0  0  0  0
    1.0910   -4.7440   30.3970 C   0  0  0  0  0  0  0  0  0  0  0  0
    2.8790   -5.9740   29.4320 O   0  0  0  0  0  0  0  0  0  0  0  0
    6.9340   -3.0260   23.5100 C   0  0  0  0  0  0  0  0  0  0  0  0
    7.5430   -3.4030   22.3400 C   0  0  0  0  0  0  0  0  0  0  0  0
  1  2  1  0
  2  3  2  0
  2  4  1  0
  4  5  1  0
  5  6  1  0
  6  7  1  0
  7  8  1  0
  8  9  2  0
  8 10  1  0
 10 11  1  0
 11 12  1  0
 12 13  1  0
 10 14  1  0
 14 13  1  1
 14 15  1  0
 15 16  1  6
 16 17  1  0
 17 18  1  0
 15 19  1  0
 18 19  1  0
 19 20  1  0
 20 21  1  0
 20 22  2  0
  7 23  1  0
  4 24  1  0
 23 24  1  0
M  END
