piperidine-amides-2549-covalent
     RDKit          3D

 26 28  0  0  0  0  0  0  0  0999 V2000
    7.0260   -3.3240   19.3460 C   0  0  0  0  0  0  0  0  0  0  0  0
    6.3500   -4.1770   20.3610 C   0  0  0  0  0  0  0  0  0  0  0  0
    5.3940   -4.8510   19.9790 O   0  0  0  0  0  0  0  0  0  0  0  0
    6.8250   -4.2200   21.6790 N   0  0  0  0  0  0  0  0  0  0  0  0
    7.7030   -3.2020   22.1960 C   0  0  0  0  0  0  0  0  0  0  0  0
    7.4070   -3.0010   23.6450 C   0  0  0  0  0  0  0  0  0  0  0  0
    5.9990   -3.5200   23.9250 C   0  0  0  0  0  0  0  0  0  0  0  0
    5.6170   -3.0670   25.2820 C   0  0  0  0  0  0  0  0  0  0  0  0
    4.4230   -2.9500   25.5860 O   0  0  0  0  0  0  0  0  0  0  0  0
    6.6280   -2.7880   26.2070 N   0  0  0  0  0  0  0  0  0  0  0  0
    6.5420   -1.6940   27.1580 C   0  0  0  0  0  0  0  0  0  0  0  0
    5.8890   -0.4690   26.6470 C   0  0  0  0  0  0  0  0  0  0  0  0
    5.6530    0.7080   27.2300 C   0  0  0  0  0  0  0  0  0  0  0  0
    6.0380    0.9230   28.5070 C   0  0  0  0  0  0  0  0  0  0  0  0
    5.8970    2.0870   29.3420 N   0  0  0  0  0  0  0  0  0  0  0  0
    5.4520    1.9080   30.7010 C   0  0  0  0  0  0  0  0  0  0  0  0
    5.5080    0.7400   31.3980 O   0  0  0  0  0  0  0  0  0  0  0  0
    4.8600    3.0860   31.4430 C   0  0  0  0  0  0  0  0  0  0  0  0
    3.3780    2.7310   31.3870 C   0  0  0  0  0  0  0  0  0  0  0  0
    2.5870    3.8130   32.0940 C   0  0  0  0  0  0  0  0  0  0  0  0
    3.5730    4.7950   32.5620 C   0  0  0  0  0  0  0  0  0  0  0  0
    5.2200    4.6260   32.2980 S   0  0  0  0  0  0  0  0  0  0  0  0
    6.7350   -0.3680   29.0730 C   0  0  0  0  0  0  0  0  0  0  0  0
    7.0920   -1.7900   28.5720 C   0  0  0  0  0  0  0  0  0  0  0  0
    5.9800   -5.0350   23.8050 C   0  0  0  0  0  0  0  0  0  0  0  0
    6.6530   -5.4070   22.4930 C   0  0  0  0  0  0  0  0  0  0  0  0
  1  2  1  0
  2  3  2  0
  2  4  1  0
  4  5  1  0
  5  6  1  0
  6  7  1  0
  7  8  1  0
  8  9  2  0
  8 10  1  0
 10 11  1  0
 11 12  2  0
 12 13  1  0
 13 14  2  0
 14 15  1  0
 15 16  1  0
 16 17  2  0
 16 18  1  0
 18 19  2  0
 19 20  1  0
 20 21  2  0
 18 22  1  0
 21 22  1  0
 14 23  1  0
 11 24  1  0
 23 24  2  0
  7 25  1  0
  4 26  1  0
 25 26  1  0
M  END
