piperidine-amides-1332-covalent
     RDKit          3D

 22 23  0  0  0  0  0  0  0  0999 V2000
    7.1340   -3.2840   19.2500 C   0  0  0  0  0  0  0  0  0  0  0  0
    6.3240   -4.0200   20.2560 C   0  0  0  0  0  0  0  0  0  0  0  0
    5.2740   -4.5760   19.8960 O   0  0  0  0  0  0  0  0  0  0  0  0
    6.8030   -4.1020   21.5810 N   0  0  0  0  0  0  0  0  0  0  0  0
    7.7050   -3.0910   22.0900 C   0  0  0  0  0  0  0  0  0  0  0  0
    7.5490   -3.0760   23.6030 C   0  0  0  0  0  0  0  0  0  0  0  0
    6.1900   -3.6180   23.8660 C   0  0  0  0  0  0  0  0  0  0  0  0
    5.6620   -3.2660   25.1990 C   0  0  0  0  0  0  0  0  0  0  0  0
    4.4850   -2.8850   25.2360 O   0  0  0  0  0  0  0  0  0  0  0  0
    6.4660   -3.3680   26.3370 N   0  0  0  0  0  0  0  0  0  0  0  0
    6.0780   -3.9020   27.5910 C   0  0  2  0  0  0  0  0  0  0  0  0
    6.7590   -3.7640   28.7640 C   0  0  0  0  0  0  0  0  0  0  0  0
    7.1420   -2.3630   28.8270 O   0  0  0  0  0  0  0  0  0  0  0  0
    5.8680   -5.4070   27.4950 C   0  0  0  0  0  0  0  0  0  0  0  0
    4.8100   -6.1870   28.1200 N   0  0  0  0  0  0  0  0  0  0  0  0
    4.9300   -7.2660   28.9320 C   0  0  0  0  0  0  0  0  0  0  0  0
    3.9760   -7.4760   30.0530 C   0  0  0  0  0  0  0  0  0  0  0  0
    3.2800   -6.3670   30.5080 O   0  0  0  0  0  0  0  0  0  0  0  0
    3.2460   -5.1760   29.7430 C   0  0  0  0  0  0  0  0  0  0  0  0
    3.5870   -5.4790   28.2810 C   0  0  0  0  0  0  0  0  0  0  0  0
    6.1900   -5.1360   23.6660 C   0  0  0  0  0  0  0  0  0  0  0  0
    6.5730   -5.3670   22.2470 C   0  0  0  0  0  0  0  0  0  0  0  0
  1  2  1  0
  2  3  2  0
  2  4  1  0
  4  5  1  0
  5  6  1  0
  6  7  1  0
  7  8  1  0
  8  9  2  0
  8 10  1  0
 10 11  1  0
 11 12  1  1
 12 13  1  0
 11 14  1  0
 14 15  1  0
 15 16  1  0
 16 17  1  0
 17 18  1  0
 18 19  1  0
 15 20  1  0
 19 20  1  0
  7 21  1  0
  4 22  1  0
 21 22  1  0
M  END
