piperidine-amides-33183-covalent
     RDKit          3D

 28 30  0  0  0  0  0  0  0  0999 V2000
    7.0210   -3.3860   19.3800 C   0  0  0  0  0  0  0  0  0  0  0  0
    6.4110   -4.2650   20.3970 C   0  0  0  0  0  0  0  0  0  0  0  0
    5.4150   -4.9300   20.0080 O   0  0  0  0  0  0  0  0  0  0  0  0
    6.9470   -4.3920   21.7170 N   0  0  0  0  0  0  0  0  0  0  0  0
    6.5640   -5.5210   22.5140 C   0  0  0  0  0  0  0  0  0  0  0  0
    6.0730   -5.1730   23.8580 C   0  0  0  0  0  0  0  0  0  0  0  0
    6.0550   -3.7200   24.1050 C   0  0  0  0  0  0  0  0  0  0  0  0
    5.4140   -3.2490   25.4010 C   0  0  0  0  0  0  0  0  0  0  0  0
    4.7710   -2.1920   25.3420 O   0  0  0  0  0  0  0  0  0  0  0  0
    5.4440   -3.8840   26.6730 N   0  0  0  0  0  0  0  0  0  0  0  0
    4.3400   -4.1040   27.5190 C   0  0  0  0  0  0  0  0  0  0  0  0
    4.5780   -4.6570   28.8610 C   0  0  0  0  0  0  0  0  0  0  0  0
    5.7310   -5.2500   29.1850 N   0  0  0  0  0  0  0  0  0  0  0  0
    5.8660   -6.6510   29.5400 C   0  0  0  0  0  0  0  0  0  0  0  0
    5.2480   -6.9300   30.7550 C   0  0  0  0  0  0  0  0  0  0  0  0
    5.9270   -6.7670   31.9540 O   0  0  0  0  0  0  0  0  0  0  0  0
    3.9920   -7.3470   30.4980 N   0  0  0  0  0  0  0  0  0  0  0  0
    3.2260   -8.0630   31.5250 C   0  0  0  0  0  0  0  0  0  0  0  0
    4.0470   -8.2100   32.7810 C   0  0  0  0  0  0  0  0  0  0  0  0
    3.2050   -8.9700   33.8360 C   0  0  0  0  0  0  0  0  0  0  0  0
    1.8060   -9.5360   33.7960 C   0  0  0  0  0  0  0  0  0  0  0  0
    1.1010   -9.3200   32.4830 C   0  0  0  0  0  0  0  0  0  0  0  0
    1.8210   -8.5840   31.3580 C   0  0  0  0  0  0  0  0  0  0  0  0
    0.9750   -8.3410   29.8250 Cl  0  0  0  0  0  0  0  0  0  0  0  0
    6.7040   -4.7620   28.4400 C   0  0  0  0  0  0  0  0  0  0  0  0
    6.4050   -3.6210   27.6780 C   0  0  0  0  0  0  0  0  0  0  0  0
    7.3350   -3.0510   23.7430 C   0  0  0  0  0  0  0  0  0  0  0  0
    7.6930   -3.2930   22.2920 C   0  0  0  0  0  0  0  0  0  0  0  0
  1  2  1  0
  2  3  2  0
  2  4  1  0
  4  5  1  0
  5  6  1  0
  6  7  1  0
  7  8  1  0
  8  9  2  0
  8 10  1  0
 10 11  1  0
 11 12  1  0
 12 13  1  0
 13 14  1  0
 14 15  1  0
 15 16  2  0
 15 17  1  0
 17 18  1  0
 18 19  2  0
 19 20  1  0
 20 21  2  0
 21 22  1  0
 18 23  1  0
 22 23  2  0
 23 24  1  0
 13 25  1  0
 10 26  1  0
 25 26  1  0
  7 27  1  0
  4 28  1  0
 27 28  1  0
M  END
