piperidine-amides-3672-covalent
     RDKit          3D

 23 25  0  0  0  0  0  0  0  0999 V2000
    7.0810   -3.2970   19.2640 C   0  0  0  0  0  0  0  0  0  0  0  0
    6.3570   -4.0690   20.2880 C   0  0  0  0  0  0  0  0  0  0  0  0
    5.2940   -4.6210   19.9140 O   0  0  0  0  0  0  0  0  0  0  0  0
    6.8410   -4.2380   21.6150 N   0  0  0  0  0  0  0  0  0  0  0  0
    7.6190   -3.1980   22.2070 C   0  0  0  0  0  0  0  0  0  0  0  0
    7.2560   -2.9290   23.5890 C   0  0  0  0  0  0  0  0  0  0  0  0
    6.0390   -3.6490   24.0040 C   0  0  0  0  0  0  0  0  0  0  0  0
    5.5810   -3.2670   25.3880 C   0  0  0  0  0  0  0  0  0  0  0  0
    4.7130   -2.3840   25.5000 O   0  0  0  0  0  0  0  0  0  0  0  0
    6.0750   -3.8720   26.5660 N   0  0  0  0  0  0  0  0  0  0  0  0
    5.5730   -5.0140   27.2520 C   0  0  1  0  0  0  0  0  0  0  0  0
    6.0760   -5.4950   28.5070 C   0  0  0  0  0  0  0  0  0  0  0  0
    4.8680   -5.1730   29.3600 C   0  0  2  0  0  0  0  0  0  0  0  0
    4.2160   -6.2520   29.9420 C   0  0  2  0  0  0  0  0  0  0  0  0
    2.8590   -5.9580   30.2170 N   0  0  0  0  0  0  0  0  0  0  0  0
    2.5890   -5.7380   31.5760 C   0  0  0  0  0  0  0  0  0  0  0  0
    1.3890   -5.3210   32.1480 O   0  0  0  0  0  0  0  0  0  0  0  0
    3.8060   -6.0310   32.2190 N   0  0  0  0  0  0  0  0  0  0  0  0
    4.7780   -6.4680   31.3840 C   0  0  0  0  0  0  0  0  0  0  0  0
    6.0260   -6.9980   31.7420 O   0  0  0  0  0  0  0  0  0  0  0  0
    4.2780   -4.6570   28.0760 C   0  0  0  0  0  0  0  0  0  0  0  0
    6.1190   -5.1420   23.7760 C   0  0  0  0  0  0  0  0  0  0  0  0
    6.5840   -5.4610   22.3530 C   0  0  0  0  0  0  0  0  0  0  0  0
  1  2  1  0
  2  3  2  0
  2  4  1  0
  4  5  1  0
  5  6  1  0
  6  7  1  0
  7  8  1  0
  8  9  2  0
  8 10  1  0
 11 10  1  1
 11 12  1  0
 13 12  1  6
 13 14  1  0
 14 15  1  1
 15 16  1  0
 16 17  2  0
 16 18  1  0
 14 19  1  0
 18 19  1  0
 19 20  2  0
 11 21  1  0
 13 21  1  0
  7 22  1  0
  4 23  1  0
 22 23  1  0
M  END
