piperidine-amides-29655-covalent
     RDKit          3D

 26 28  0  0  0  0  0  0  0  0999 V2000
    7.0670   -3.3190   19.3480 C   0  0  0  0  0  0  0  0  0  0  0  0
    6.3890   -4.1580   20.3290 C   0  0  0  0  0  0  0  0  0  0  0  0
    5.4140   -4.8270   19.9850 O   0  0  0  0  0  0  0  0  0  0  0  0
    6.8850   -4.2410   21.6830 N   0  0  0  0  0  0  0  0  0  0  0  0
    6.5320   -5.3720   22.5080 C   0  0  0  0  0  0  0  0  0  0  0  0
    5.6480   -4.9330   23.6520 C   0  0  0  0  0  0  0  0  0  0  0  0
    5.8620   -3.4390   23.8820 C   0  0  0  0  0  0  0  0  0  0  0  0
    5.3180   -2.9640   25.2030 C   0  0  0  0  0  0  0  0  0  0  0  0
    4.1080   -2.7010   25.3200 O   0  0  0  0  0  0  0  0  0  0  0  0
    6.1210   -2.7980   26.3660 N   0  0  0  0  0  0  0  0  0  0  0  0
    5.9670   -3.8430   27.3300 C   0  0  0  0  0  0  0  0  0  0  0  0
    7.1670   -4.6190   27.0930 C   0  0  0  0  0  0  0  0  0  0  0  0
    8.0630   -4.9370   28.0860 C   0  0  0  0  0  0  0  0  0  0  0  0
    9.1960   -5.6740   27.7760 C   0  0  0  0  0  0  0  0  0  0  0  0
    9.3960   -6.0670   26.4900 C   0  0  0  0  0  0  0  0  0  0  0  0
    8.4350   -5.7120   25.5060 C   0  0  0  0  0  0  0  0  0  0  0  0
    7.3610   -5.0100   25.8170 C   0  0  0  0  0  0  0  0  0  0  0  0
    6.2240   -1.5330   27.0370 C   0  0  0  0  0  0  0  0  0  0  0  0
    5.7210   -0.3170   26.5780 C   0  0  0  0  0  0  0  0  0  0  0  0
    5.8960    0.8760   27.4080 C   0  0  0  0  0  0  0  0  0  0  0  0
    6.5280    0.9180   28.6370 C   0  0  0  0  0  0  0  0  0  0  0  0
    6.6560    2.4250   29.5230 Cl  0  0  0  0  0  0  0  0  0  0  0  0
    7.0240   -0.3070   29.0620 C   0  0  0  0  0  0  0  0  0  0  0  0
    6.8610   -1.5290   28.2370 C   0  0  0  0  0  0  0  0  0  0  0  0
    7.2700   -2.9750   23.6880 C   0  0  0  0  0  0  0  0  0  0  0  0
    7.6830   -3.1730   22.2390 C   0  0  0  0  0  0  0  0  0  0  0  0
  1  2  1  0
  2  3  2  0
  2  4  1  0
  4  5  1  0
  5  6  1  0
  6  7  1  0
  7  8  1  0
  8  9  2  0
  8 10  1  0
 10 11  1  0
 11 12  1  0
 12 13  2  0
 13 14  1  0
 14 15  2  0
 15 16  1  0
 12 17  1  0
 16 17  2  0
 10 18  1  0
 18 19  2  0
 19 20  1  0
 20 21  2  0
 21 22  1  0
 21 23  1  0
 18 24  1  0
 23 24  2  0
  7 25  1  0
  4 26  1  0
 25 26  1  0
M  END
