piperidine-amides-11906-covalent
     RDKit          3D

 26 28  0  0  0  0  0  0  0  0999 V2000
    7.0670   -3.2880   19.2120 C   0  0  0  0  0  0  0  0  0  0  0  0
    6.3340   -4.0450   20.2240 C   0  0  0  0  0  0  0  0  0  0  0  0
    5.2980   -4.6250   19.9110 O   0  0  0  0  0  0  0  0  0  0  0  0
    6.8350   -4.1610   21.5640 N   0  0  0  0  0  0  0  0  0  0  0  0
    7.7130   -3.1460   22.0980 C   0  0  0  0  0  0  0  0  0  0  0  0
    7.4420   -2.9500   23.5510 C   0  0  0  0  0  0  0  0  0  0  0  0
    6.0730   -3.5370   23.8300 C   0  0  0  0  0  0  0  0  0  0  0  0
    5.6890   -3.2260   25.2190 C   0  0  0  0  0  0  0  0  0  0  0  0
    4.5050   -3.2070   25.6010 O   0  0  0  0  0  0  0  0  0  0  0  0
    6.7310   -2.9340   26.1190 N   0  0  0  0  0  0  0  0  0  0  0  0
    6.4290   -2.6480   27.4910 C   0  0  0  0  0  0  0  0  0  0  0  0
    6.4590   -3.9330   28.2820 C   0  0  0  0  0  0  0  0  0  0  0  0
    5.7240   -4.1120   29.3880 N   0  0  0  0  0  0  0  0  0  0  0  0
    4.8950   -3.0730   29.6070 C   0  0  0  0  0  0  0  0  0  0  0  0
    3.5140   -3.1610   29.8670 C   0  0  0  0  0  0  0  0  0  0  0  0
    3.0510   -1.9530   30.3390 C   0  0  0  0  0  0  0  0  0  0  0  0
    2.8860   -3.5460   28.7050 C   0  0  0  0  0  0  0  0  0  0  0  0
    3.2720   -4.2660   30.7210 O   0  0  0  0  0  0  0  0  0  0  0  0
    3.8850   -5.3920   30.1690 C   0  0  0  0  0  0  0  0  0  0  0  0
    3.2140   -6.5760   30.3180 C   0  0  0  0  0  0  0  0  0  0  0  0
    3.7010   -7.7620   29.8240 C   0  0  0  0  0  0  0  0  0  0  0  0
    4.9840   -7.6980   29.1300 C   0  0  0  0  0  0  0  0  0  0  0  0
    5.6820   -6.5200   28.9670 C   0  0  0  0  0  0  0  0  0  0  0  0
    5.1000   -5.3680   29.5020 C   0  0  0  0  0  0  0  0  0  0  0  0
    6.0690   -5.0360   23.6560 C   0  0  0  0  0  0  0  0  0  0  0  0
    6.6850   -5.3960   22.2980 C   0  0  0  0  0  0  0  0  0  0  0  0
  1  2  1  0
  2  3  2  0
  2  4  1  0
  4  5  1  0
  5  6  1  0
  6  7  1  0
  7  8  1  0
  8  9  2  0
  8 10  1  0
 10 11  1  0
 11 12  1  0
 12 13  1  0
 13 14  1  0
 14 15  1  0
 15 16  1  0
 15 17  1  0
 15 18  1  0
 18 19  1  0
 19 20  2  0
 20 21  1  0
 21 22  2  0
 22 23  1  0
 13 24  1  0
 19 24  1  0
 23 24  2  0
  7 25  1  0
  4 26  1  0
 25 26  1  0
M  END
