piperidine-amides-13224-covalent
     RDKit          3D

 19 19  0  0  0  0  0  0  0  0999 V2000
    7.1710   -3.2230   19.1030 C   0  0  0  0  0  0  0  0  0  0  0  0
    6.3570   -3.9380   20.1120 C   0  0  0  0  0  0  0  0  0  0  0  0
    5.2270   -4.3300   19.7720 O   0  0  0  0  0  0  0  0  0  0  0  0
    6.8680   -4.2120   21.3750 N   0  0  0  0  0  0  0  0  0  0  0  0
    7.6370   -3.2000   22.0350 C   0  0  0  0  0  0  0  0  0  0  0  0
    7.1840   -2.8490   23.3760 C   0  0  0  0  0  0  0  0  0  0  0  0
    6.4380   -3.9140   24.0630 C   0  0  0  0  0  0  0  0  0  0  0  0
    5.6840   -3.3480   25.1870 C   0  0  0  0  0  0  0  0  0  0  0  0
    4.4980   -3.0070   25.0210 O   0  0  0  0  0  0  0  0  0  0  0  0
    6.3090   -3.2080   26.4230 N   0  0  0  0  0  0  0  0  0  0  0  0
    6.0010   -4.1020   27.5430 C   0  0  0  0  0  0  0  0  0  0  0  0
    6.8060   -3.6760   28.6910 C   0  0  0  0  0  0  0  0  0  0  0  0
    7.0220   -2.2350   28.8430 C   0  0  0  0  0  0  0  0  0  0  0  0
    4.6010   -3.8420   27.7930 C   0  0  0  0  0  0  0  0  0  0  0  0
    4.0210   -4.2940   28.9610 C   0  0  0  0  0  0  0  0  0  0  0  0
    6.0450   -5.5120   27.2170 C   0  0  0  0  0  0  0  0  0  0  0  0
    6.7180   -6.2800   28.1830 N   0  0  0  0  0  0  0  0  0  0  0  0
    5.6420   -4.8500   23.2250 C   0  0  0  0  0  0  0  0  0  0  0  0
    6.3690   -5.2920   22.1700 C   0  0  0  0  0  0  0  0  0  0  0  0
  1  2  1  0
  2  3  2  0
  2  4  1  0
  4  5  1  0
  5  6  1  0
  6  7  1  0
  7  8  1  0
  8  9  2  0
  8 10  1  0
 11 10  1  0
 11 12  1  0
 12 13  1  0
 11 14  1  0
 14 15  1  0
 11 16  1  0
 16 17  1  0
  7 18  1  0
  4 19  1  0
 18 19  1  0
M  END
