piperidine-amides-11654-covalent
     RDKit          3D

 30 32  0  0  0  0  0  0  0  0999 V2000
    7.0550   -3.3480   19.2580 C   0  0  0  0  0  0  0  0  0  0  0  0
    6.3670   -4.1550   20.2610 C   0  0  0  0  0  0  0  0  0  0  0  0
    5.3380   -4.7550   19.9560 O   0  0  0  0  0  0  0  0  0  0  0  0
    6.9160   -4.3050   21.5790 N   0  0  0  0  0  0  0  0  0  0  0  0
    7.7100   -3.2430   22.1500 C   0  0  0  0  0  0  0  0  0  0  0  0
    7.0060   -2.6550   23.3290 C   0  0  0  0  0  0  0  0  0  0  0  0
    6.5910   -3.8030   24.2200 C   0  0  0  0  0  0  0  0  0  0  0  0
    5.7540   -3.2940   25.3340 C   0  0  0  0  0  0  0  0  0  0  0  0
    4.5370   -3.0560   25.2060 O   0  0  0  0  0  0  0  0  0  0  0  0
    6.3670   -3.0780   26.5810 N   0  0  0  0  0  0  0  0  0  0  0  0
    6.3450   -1.7580   27.1680 C   0  0  0  0  0  0  0  0  0  0  0  0
    6.9990   -1.7240   28.5070 C   0  0  0  0  0  0  0  0  0  0  0  0
    7.0940   -0.5750   29.2550 C   0  0  0  0  0  0  0  0  0  0  0  0
    6.5770    0.6590   28.8110 C   0  0  0  0  0  0  0  0  0  0  0  0
    6.6670    1.8340   29.5770 N   0  0  0  0  0  0  0  0  0  0  0  0
    6.8790    1.7560   30.9580 C   0  0  0  0  0  0  0  0  0  0  0  0
    5.9010    2.4410   31.7800 C   0  0  0  0  0  0  0  0  0  0  0  0
    6.0070    2.4250   33.1380 C   0  0  0  0  0  0  0  0  0  0  0  0
    7.0650    1.7400   33.6730 C   0  0  0  0  0  0  0  0  0  0  0  0
    7.1490    1.7380   35.0560 O   0  0  0  0  0  0  0  0  0  0  0  0
    6.5520    0.6060   35.6310 C   0  0  0  0  0  0  0  0  0  0  0  0
    6.8130   -0.5730   35.0200 F   0  0  0  0  0  0  0  0  0  0  0  0
    5.2130    0.7910   35.6280 F   0  0  0  0  0  0  0  0  0  0  0  0
    7.0940    0.4760   36.9080 F   0  0  0  0  0  0  0  0  0  0  0  0
    8.0660    1.0410   32.8510 C   0  0  0  0  0  0  0  0  0  0  0  0
    7.9700    1.0510   31.4520 C   0  0  0  0  0  0  0  0  0  0  0  0
    5.8990    0.6910   27.4550 C   0  0  0  0  0  0  0  0  0  0  0  0
    5.8110   -0.5670   26.6630 C   0  0  0  0  0  0  0  0  0  0  0  0
    5.7880   -4.8740   23.5490 C   0  0  0  0  0  0  0  0  0  0  0  0
    6.5660   -5.4380   22.3800 C   0  0  0  0  0  0  0  0  0  0  0  0
  1  2  1  0
  2  3  2  0
  2  4  1  0
  4  5  1  0
  5  6  1  0
  6  7  1  0
  7  8  1  0
  8  9  2  0
  8 10  1  0
 10 11  1  0
 11 12  2  0
 12 13  1  0
 13 14  2  0
 14 15  1  0
 15 16  1  0
 16 17  2  0
 17 18  1  0
 18 19  2  0
 19 20  1  0
 20 21  1  0
 21 22  1  0
 21 23  1  0
 21 24  1  0
 19 25  1  0
 16 26  1  0
 25 26  2  0
 14 27  1  0
 11 28  1  0
 27 28  2  0
  7 29  1  0
  4 30  1  0
 29 30  1  0
M  END
