piperidine-amides-12508-covalent
     RDKit          3D

 23 24  0  0  0  0  0  0  0  0999 V2000
    7.1560   -3.2720   19.1820 C   0  0  0  0  0  0  0  0  0  0  0  0
    6.3380   -3.9770   20.1880 C   0  0  0  0  0  0  0  0  0  0  0  0
    5.2370   -4.4270   19.8260 O   0  0  0  0  0  0  0  0  0  0  0  0
    6.8370   -4.1740   21.4750 N   0  0  0  0  0  0  0  0  0  0  0  0
    7.5850   -3.1380   22.1110 C   0  0  0  0  0  0  0  0  0  0  0  0
    7.0940   -2.7640   23.4330 C   0  0  0  0  0  0  0  0  0  0  0  0
    6.5480   -3.8840   24.2220 C   0  0  0  0  0  0  0  0  0  0  0  0
    5.7950   -3.3650   25.3870 C   0  0  0  0  0  0  0  0  0  0  0  0
    4.5850   -3.1100   25.2250 O   0  0  0  0  0  0  0  0  0  0  0  0
    6.4020   -3.1610   26.6470 N   0  0  0  0  0  0  0  0  0  0  0  0
    5.7590   -3.5670   27.9140 C   0  0  1  0  0  0  0  0  0  0  0  0
    6.3940   -4.7820   28.5080 C   0  0  0  0  0  0  0  0  0  0  0  0
    5.7540   -5.5480   29.2800 O   0  0  0  0  0  0  0  0  0  0  0  0
    5.8560   -6.8260   29.0230 C   0  0  0  0  0  0  0  0  0  0  0  0
    5.8890   -2.4420   28.8200 C   0  0  1  0  0  0  0  0  0  0  0  0
    6.5890   -1.3260   28.3830 C   0  0  0  0  0  0  0  0  0  0  0  0
    5.9270   -0.1520   28.1830 C   0  0  0  0  0  0  0  0  0  0  0  0
    4.8620    0.1790   28.9680 C   0  0  2  0  0  0  0  0  0  0  0  0
    5.1210    0.7400   30.1850 C   0  0  0  0  0  0  0  0  0  0  0  0
    4.0130   -0.8720   29.2810 C   0  0  0  0  0  0  0  0  0  0  0  0
    4.7390   -2.1330   29.5210 C   0  0  0  0  0  0  0  0  0  0  0  0
    5.7040   -4.8400   23.4520 C   0  0  0  0  0  0  0  0  0  0  0  0
    6.4540   -5.3230   22.2530 C   0  0  0  0  0  0  0  0  0  0  0  0
  1  2  1  0
  2  3  2  0
  2  4  1  0
  4  5  1  0
  5  6  1  0
  6  7  1  0
  7  8  1  0
  8  9  2  0
  8 10  1  0
 10 11  1  0
 11 12  1  1
 12 13  1  0
 13 14  1  0
 11 15  1  0
 15 16  1  6
 16 17  1  0
 17 18  1  0
 18 19  1  1
 18 20  1  0
 15 21  1  0
 20 21  1  0
  7 22  1  0
  4 23  1  0
 22 23  1  0
M  END
