piperidine-amides-27781-covalent
     RDKit          3D

 26 28  0  0  0  0  0  0  0  0999 V2000
    7.0810   -3.3160   19.2330 C   0  0  0  0  0  0  0  0  0  0  0  0
    6.3780   -4.1090   20.2660 C   0  0  0  0  0  0  0  0  0  0  0  0
    5.3070   -4.6470   19.9220 O   0  0  0  0  0  0  0  0  0  0  0  0
    6.9200   -4.2910   21.5460 N   0  0  0  0  0  0  0  0  0  0  0  0
    7.6200   -3.2260   22.1950 C   0  0  0  0  0  0  0  0  0  0  0  0
    7.0980   -2.8390   23.5070 C   0  0  0  0  0  0  0  0  0  0  0  0
    6.4320   -3.9070   24.2850 C   0  0  0  0  0  0  0  0  0  0  0  0
    5.6650   -3.2840   25.3960 C   0  0  0  0  0  0  0  0  0  0  0  0
    4.4740   -3.0020   25.1680 O   0  0  0  0  0  0  0  0  0  0  0  0
    6.2050   -3.0060   26.6740 N   0  0  0  0  0  0  0  0  0  0  0  0
    6.1630   -4.0070   27.7580 C   0  0  0  0  0  0  0  0  0  0  0  0
    5.7080   -5.3630   27.3830 C   0  0  0  0  0  0  0  0  0  0  0  0
    5.3090   -6.1840   28.5020 C   0  0  0  0  0  0  0  0  0  0  0  0
    6.1380   -6.8210   29.3780 C   0  0  0  0  0  0  0  0  0  0  0  0
    5.6620   -7.5670   30.4200 C   0  0  0  0  0  0  0  0  0  0  0  0
    4.3190   -7.6690   30.5690 C   0  0  0  0  0  0  0  0  0  0  0  0
    3.4460   -7.0540   29.7180 C   0  0  0  0  0  0  0  0  0  0  0  0
    3.8720   -6.3120   28.6890 N   0  0  0  0  0  0  0  0  0  0  0  0
    5.7940   -1.7350   27.3180 C   0  0  2  0  0  0  0  0  0  0  0  0
    6.0490   -0.5840   26.5920 C   0  0  0  0  0  0  0  0  0  0  0  0
    6.2050    0.5150   27.5330 C   0  0  0  0  0  0  0  0  0  0  0  0
    7.0000   -0.2960   28.5250 C   0  0  0  0  0  0  0  0  0  0  0  0
    6.3090   -1.6070   28.7340 C   0  0  1  0  0  0  0  0  0  0  0  0
    5.2690   -1.7300   29.6780 C   0  0  0  0  0  0  0  0  0  0  0  0
    5.7460   -4.9210   23.4820 C   0  0  0  0  0  0  0  0  0  0  0  0
    6.5790   -5.4410   22.3660 C   0  0  0  0  0  0  0  0  0  0  0  0
  1  2  1  0
  2  3  2  0
  2  4  1  0
  4  5  1  0
  5  6  1  0
  6  7  1  0
  7  8  1  0
  8  9  2  0
  8 10  1  0
 10 11  1  0
 11 12  1  0
 12 13  1  0
 13 14  2  0
 14 15  1  0
 15 16  2  0
 16 17  1  0
 13 18  1  0
 17 18  2  0
 19 10  1  6
 19 20  1  0
 20 21  1  0
 21 22  1  0
 19 23  1  0
 22 23  1  0
 23 24  1  1
  7 25  1  0
  4 26  1  0
 25 26  1  0
M  END
