piperidine-amides-28141-covalent
     RDKit          3D

 25 27  0  0  0  0  0  0  0  0999 V2000
    7.0430   -3.3490   19.3660 C   0  0  0  0  0  0  0  0  0  0  0  0
    6.3840   -4.2100   20.3740 C   0  0  0  0  0  0  0  0  0  0  0  0
    5.3890   -4.8540   19.9840 O   0  0  0  0  0  0  0  0  0  0  0  0
    6.8940   -4.3200   21.6820 N   0  0  0  0  0  0  0  0  0  0  0  0
    6.5600   -5.4470   22.4850 C   0  0  0  0  0  0  0  0  0  0  0  0
    6.1140   -5.1150   23.8520 C   0  0  0  0  0  0  0  0  0  0  0  0
    6.3770   -3.7320   24.3460 C   0  0  0  0  0  0  0  0  0  0  0  0
    5.2420   -3.2530   25.2090 C   0  0  0  0  0  0  0  0  0  0  0  0
    4.1870   -2.9670   24.6320 O   0  0  0  0  0  0  0  0  0  0  0  0
    5.3250   -3.1100   26.6250 N   0  0  0  0  0  0  0  0  0  0  0  0
    6.6180   -3.1190   27.2520 C   0  0  0  0  0  0  0  0  0  0  0  0
    6.5120   -4.2470   28.1840 C   0  0  0  0  0  0  0  0  0  0  0  0
    5.1120   -4.4190   28.3660 C   0  0  0  0  0  0  0  0  0  0  0  0
    4.3540   -3.4520   27.7000 C   0  0  2  0  0  0  0  0  0  0  0  0
    3.1790   -3.8400   27.0690 C   0  0  0  0  0  0  0  0  0  0  0  0
    2.5300   -5.0640   27.3470 N   0  0  0  0  0  0  0  0  0  0  0  0
    1.4610   -5.2510   26.6740 N   0  0  0  0  0  0  0  0  0  0  0  0
    1.3620   -4.1500   25.9200 N   0  0  0  0  0  0  0  0  0  0  0  0
    2.3790   -3.3000   26.1440 N   0  0  0  0  0  0  0  0  0  0  0  0
    3.9420   -2.3540   28.6210 C   0  0  0  0  0  0  0  0  0  0  0  0
    3.1980   -1.3070   28.1300 F   0  0  0  0  0  0  0  0  0  0  0  0
    3.1800   -2.9520   29.6510 F   0  0  0  0  0  0  0  0  0  0  0  0
    5.0740   -1.9090   29.2260 F   0  0  0  0  0  0  0  0  0  0  0  0
    6.7810   -2.7210   23.3130 C   0  0  0  0  0  0  0  0  0  0  0  0
    7.5980   -3.2730   22.3690 C   0  0  0  0  0  0  0  0  0  0  0  0
  1  2  1  0
  2  3  2  0
  2  4  1  0
  4  5  1  0
  5  6  1  0
  6  7  1  0
  7  8  1  0
  8  9  2  0
  8 10  1  0
 10 11  1  0
 11 12  1  0
 12 13  1  0
 10 14  1  0
 13 14  1  0
 14 15  1  0
 15 16  2  0
 16 17  1  0
 17 18  2  0
 15 19  1  0
 18 19  1  0
 14 20  1  1
 20 21  1  0
 20 22  1  0
 20 23  1  0
  7 24  1  0
  4 25  1  0
 24 25  1  0
M  END
