piperidine-amides-17156-covalent
     RDKit          3D

 20 21  0  0  0  0  0  0  0  0999 V2000
    7.0330   -3.3850   19.4100 C   0  0  0  0  0  0  0  0  0  0  0  0
    6.4070   -4.2590   20.4160 C   0  0  0  0  0  0  0  0  0  0  0  0
    5.4250   -4.9360   20.0120 O   0  0  0  0  0  0  0  0  0  0  0  0
    6.9150   -4.3680   21.7470 N   0  0  0  0  0  0  0  0  0  0  0  0
    6.4960   -5.4700   22.5520 C   0  0  0  0  0  0  0  0  0  0  0  0
    5.8610   -5.0550   23.8020 C   0  0  0  0  0  0  0  0  0  0  0  0
    5.8310   -3.5880   23.9600 C   0  0  0  0  0  0  0  0  0  0  0  0
    4.9800   -3.0540   25.1180 C   0  0  0  0  0  0  0  0  0  0  0  0
    3.9980   -2.3660   24.8260 O   0  0  0  0  0  0  0  0  0  0  0  0
    5.1940   -3.2780   26.4980 N   0  0  0  0  0  0  0  0  0  0  0  0
    4.9830   -2.3850   27.5690 C   0  0  0  0  0  0  0  0  0  0  0  0
    5.5600   -2.6950   28.8740 C   0  0  0  0  0  0  0  0  0  0  0  0
    5.1910   -3.7750   29.4050 O   0  0  0  0  0  0  0  0  0  0  0  0
    6.0790   -4.7710   29.1510 C   0  0  0  0  0  0  0  0  0  0  0  0
    6.0080   -5.0510   27.8430 C   0  0  0  0  0  0  0  0  0  0  0  0
    4.4780   -4.9810   27.7630 C   0  0  0  0  0  0  0  0  0  0  0  0
    6.4070   -6.4470   27.5080 C   0  0  0  0  0  0  0  0  0  0  0  0
    6.2540   -4.0750   26.7620 C   0  0  0  0  0  0  0  0  0  0  0  0
    7.1960   -2.9710   23.7880 C   0  0  0  0  0  0  0  0  0  0  0  0
    7.6650   -3.2700   22.3600 C   0  0  0  0  0  0  0  0  0  0  0  0
  1  2  1  0
  2  3  2  0
  2  4  1  0
  4  5  1  0
  5  6  1  0
  6  7  1  0
  7  8  1  0
  8  9  2  0
  8 10  1  0
 10 11  1  0
 11 12  1  0
 12 13  1  0
 13 14  1  0
 14 15  1  0
 15 16  1  0
 15 17  1  0
 10 18  1  0
 15 18  1  0
  7 19  1  0
  4 20  1  0
 19 20  1  0
M  END
