piperidine-amides-24126-covalent
     RDKit          3D

 24 26  0  0  0  0  0  0  0  0999 V2000
    7.0640   -3.3760   19.3500 C   0  0  0  0  0  0  0  0  0  0  0  0
    6.4370   -4.2500   20.3520 C   0  0  0  0  0  0  0  0  0  0  0  0
    5.3880   -4.8390   19.9900 O   0  0  0  0  0  0  0  0  0  0  0  0
    7.0270   -4.4760   21.6320 N   0  0  0  0  0  0  0  0  0  0  0  0
    6.5320   -5.5300   22.4270 C   0  0  0  0  0  0  0  0  0  0  0  0
    5.9400   -5.1110   23.7060 C   0  0  0  0  0  0  0  0  0  0  0  0
    6.3360   -3.7970   24.2890 C   0  0  0  0  0  0  0  0  0  0  0  0
    5.2580   -3.2800   25.2110 C   0  0  0  0  0  0  0  0  0  0  0  0
    4.2250   -2.8300   24.6970 O   0  0  0  0  0  0  0  0  0  0  0  0
    5.3510   -3.2840   26.6210 N   0  0  0  0  0  0  0  0  0  0  0  0
    6.4880   -2.9880   27.3440 C   0  0  0  0  0  0  0  0  0  0  0  0
    6.6710   -3.8380   28.5380 C   0  0  0  0  0  0  0  0  0  0  0  0
    5.3860   -4.6590   28.4660 C   0  0  1  0  0  0  0  0  0  0  0  0
    5.6970   -5.9540   28.1290 O   0  0  0  0  0  0  0  0  0  0  0  0
    6.5830   -6.4820   29.0510 C   0  0  0  0  0  0  0  0  0  0  0  0
    4.4280   -4.3400   29.6260 C   0  0  0  0  0  0  0  0  0  0  0  0
    3.7730   -3.1330   30.0320 N   0  0  0  0  0  0  0  0  0  0  0  0
    2.9650   -3.4520   31.2480 C   0  0  0  0  0  0  0  0  0  0  0  0
    3.2580   -4.9530   31.4480 C   0  0  0  0  0  0  0  0  0  0  0  0
    4.0940   -5.4010   30.4970 N   0  0  0  0  0  0  0  0  0  0  0  0
    4.4470   -6.6990   30.5370 C   0  0  0  0  0  0  0  0  0  0  0  0
    4.6000   -4.1480   27.4450 C   0  0  0  0  0  0  0  0  0  0  0  0
    6.6720   -2.7300   23.2320 C   0  0  0  0  0  0  0  0  0  0  0  0
    7.6520   -3.3190   22.2850 C   0  0  0  0  0  0  0  0  0  0  0  0
  1  2  1  0
  2  3  2  0
  2  4  1  0
  4  5  1  0
  5  6  1  0
  6  7  1  0
  7  8  1  0
  8  9  2  0
  8 10  1  0
 10 11  1  0
 11 12  1  0
 12 13  1  0
 13 14  1  6
 14 15  1  0
 13 16  1  0
 16 17  2  0
 17 18  1  0
 18 19  2  0
 16 20  1  0
 19 20  1  0
 20 21  1  0
 10 22  1  0
 13 22  1  0
  7 23  1  0
  4 24  1  0
 23 24  1  0
M  END
