piperidine-amides-992-covalent
     RDKit          3D

 24 25  0  0  0  0  0  0  0  0999 V2000
    7.0370   -3.2350   19.2010 C   0  0  0  0  0  0  0  0  0  0  0  0
    6.2610   -4.0210   20.2040 C   0  0  0  0  0  0  0  0  0  0  0  0
    5.2020   -4.5570   19.8620 O   0  0  0  0  0  0  0  0  0  0  0  0
    6.7560   -4.1860   21.5060 N   0  0  0  0  0  0  0  0  0  0  0  0
    7.6170   -3.2260   22.1500 C   0  0  0  0  0  0  0  0  0  0  0  0
    6.8540   -2.6880   23.3630 C   0  0  0  0  0  0  0  0  0  0  0  0
    6.5580   -3.8580   24.2420 C   0  0  0  0  0  0  0  0  0  0  0  0
    5.8390   -3.4710   25.4780 C   0  0  0  0  0  0  0  0  0  0  0  0
    4.6540   -3.1350   25.3460 O   0  0  0  0  0  0  0  0  0  0  0  0
    6.5040   -3.5010   26.7110 N   0  0  0  0  0  0  0  0  0  0  0  0
    7.1060   -4.6350   27.3250 C   0  0  0  0  0  0  0  0  0  0  0  0
    8.3570   -5.0830   27.0120 C   0  0  0  0  0  0  0  0  0  0  0  0
    9.2250   -4.2490   26.2980 C   0  0  0  0  0  0  0  0  0  0  0  0
    9.6730   -4.6140   25.0560 C   0  0  0  0  0  0  0  0  0  0  0  0
    9.7570   -3.9470   23.9010 O   0  0  0  0  0  0  0  0  0  0  0  0
   10.1110   -2.6860   24.0360 C   0  0  0  0  0  0  0  0  0  0  0  0
   10.5460   -2.1330   22.6580 C   0  0  0  0  0  0  0  0  0  0  0  0
   12.0770   -1.9770   22.6690 C   0  0  0  0  0  0  0  0  0  0  0  0
   12.6960   -1.2140   23.6450 C   0  0  0  0  0  0  0  0  0  0  0  0
   13.3530   -1.8780   24.8110 C   0  0  0  0  0  0  0  0  0  0  0  0
   12.2360   -2.8760   24.9230 C   0  0  0  0  0  0  0  0  0  0  0  0
   10.9730   -2.4040   25.0410 C   0  0  0  0  0  0  0  0  0  0  0  0
    5.7620   -4.9380   23.5720 C   0  0  0  0  0  0  0  0  0  0  0  0
    6.4000   -5.3690   22.2670 C   0  0  0  0  0  0  0  0  0  0  0  0
  1  2  1  0
  2  3  2  0
  2  4  1  0
  4  5  1  0
  5  6  1  0
  6  7  1  0
  7  8  1  0
  8  9  2  0
  8 10  1  0
 10 11  1  0
 11 12  1  0
 12 13  1  0
 13 14  1  0
 14 15  1  0
 15 16  1  0
 16 17  1  0
 17 18  1  0
 18 19  1  0
 19 20  1  0
 20 21  1  0
 16 22  1  0
 21 22  1  0
  7 23  1  0
  4 24  1  0
 23 24  1  0
M  END
