piperidine-amides-29733-covalent
     RDKit          3D

 27 30  0  0  0  0  0  0  0  0999 V2000
    7.2060   -4.1090   19.7010 C   0  0  0  0  0  0  0  0  0  0  0  0
    6.0160   -4.0210   20.3730 C   0  0  0  0  0  0  0  0  0  0  0  0
    5.0000   -4.1680   19.7160 O   0  0  0  0  0  0  0  0  0  0  0  0
    6.1290   -3.8850   21.7630 N   0  0  0  0  0  0  0  0  0  0  0  0
    7.0720   -2.8840   22.1490 C   0  0  0  0  0  0  0  0  0  0  0  0
    6.6530   -2.3540   23.4660 C   0  0  0  0  0  0  0  0  0  0  0  0
    6.6490   -3.5200   24.4170 C   0  0  0  0  0  0  0  0  0  0  0  0
    5.8130   -3.2050   25.5940 C   0  0  0  0  0  0  0  0  0  0  0  0
    4.6240   -2.8540   25.4500 O   0  0  0  0  0  0  0  0  0  0  0  0
    6.3390   -3.2830   26.9090 N   0  0  0  0  0  0  0  0  0  0  0  0
    6.6610   -4.5620   27.4710 C   0  0  0  0  0  0  0  0  0  0  0  0
    5.5800   -4.7650   28.4420 C   0  0  1  0  0  0  0  0  0  0  0  0
    4.9420   -3.5670   28.7130 C   0  0  1  0  0  0  0  0  0  0  0  0
    5.5310   -2.5660   27.9230 C   0  0  0  0  0  0  0  0  0  0  0  0
    3.7030   -3.7220   28.6300 O   0  0  0  0  0  0  0  0  0  0  0  0
    2.9720   -4.7020   29.3240 C   0  0  0  0  0  0  0  0  0  0  0  0
    3.8490   -5.8570   29.3570 C   0  0  0  0  0  0  0  0  0  0  0  0
    4.6730   -5.7670   28.2960 N   0  0  0  0  0  0  0  0  0  0  0  0
    5.0360   -6.8870   27.4670 C   0  0  0  0  0  0  0  0  0  0  0  0
    4.0710   -7.2260   26.5340 C   0  0  0  0  0  0  0  0  0  0  0  0
    4.2560   -6.9940   25.1670 C   0  0  0  0  0  0  0  0  0  0  0  0
    3.2610   -7.3550   24.1500 C   0  0  0  0  0  0  0  0  0  0  0  0
    2.0770   -7.9520   24.5150 C   0  0  0  0  0  0  0  0  0  0  0  0
    1.8780   -8.1860   25.8610 C   0  0  0  0  0  0  0  0  0  0  0  0
    2.8960   -7.8140   26.8850 C   0  0  0  0  0  0  0  0  0  0  0  0
    6.0850   -4.8310   23.9430 C   0  0  0  0  0  0  0  0  0  0  0  0
    6.2550   -5.1160   22.4760 C   0  0  0  0  0  0  0  0  0  0  0  0
  1  2  1  0
  2  3  2  0
  2  4  1  0
  4  5  1  0
  5  6  1  0
  6  7  1  0
  7  8  1  0
  8  9  2  0
  8 10  1  0
 10 11  1  0
 12 11  1  6
 12 13  1  0
 10 14  1  0
 13 14  1  6
 13 15  1  0
 15 16  1  0
 16 17  1  0
 12 18  1  0
 17 18  1  0
 18 19  1  0
 19 20  1  0
 20 21  2  0
 21 22  1  0
 22 23  2  0
 23 24  1  0
 20 25  1  0
 24 25  2  0
  7 26  1  0
  4 27  1  0
 26 27  1  0
M  END
