piperidine-amides-1936-covalent
     RDKit          3D

 24 26  0  0  0  0  0  0  0  0999 V2000
    7.0580   -3.3300   19.3200 C   0  0  0  0  0  0  0  0  0  0  0  0
    6.3850   -4.1890   20.3280 C   0  0  0  0  0  0  0  0  0  0  0  0
    5.3790   -4.7990   19.9690 O   0  0  0  0  0  0  0  0  0  0  0  0
    6.9270   -4.3130   21.6110 N   0  0  0  0  0  0  0  0  0  0  0  0
    7.6980   -3.2550   22.2100 C   0  0  0  0  0  0  0  0  0  0  0  0
    6.9110   -2.6800   23.3460 C   0  0  0  0  0  0  0  0  0  0  0  0
    6.5890   -3.7940   24.3330 C   0  0  0  0  0  0  0  0  0  0  0  0
    5.8910   -3.2090   25.5200 C   0  0  0  0  0  0  0  0  0  0  0  0
    4.6860   -3.4620   25.6820 O   0  0  0  0  0  0  0  0  0  0  0  0
    6.5600   -2.3560   26.4550 N   0  0  0  0  0  0  0  0  0  0  0  0
    5.7930   -1.3080   27.1530 C   0  0  1  0  0  0  0  0  0  0  0  0
    6.5850   -0.8240   28.3630 C   0  0  0  0  0  0  0  0  0  0  0  0
    7.5440   -1.5660   28.9190 C   0  0  0  0  0  0  0  0  0  0  0  0
    8.2800   -1.1870   29.9470 C   0  0  0  0  0  0  0  0  0  0  0  0
    8.0570   -0.0240   30.5090 C   0  0  0  0  0  0  0  0  0  0  0  0
    7.0320    0.9370   30.0600 C   0  0  0  0  0  0  0  0  0  0  0  0
    6.2040    0.5220   28.8600 C   0  0  0  0  0  0  0  0  0  0  0  0
    5.1620    1.3900   28.2960 C   0  0  0  0  0  0  0  0  0  0  0  0
    5.4850    1.1940   26.8540 C   0  0  0  0  0  0  0  0  0  0  0  0
    5.2470   -0.1880   26.3030 C   0  0  1  0  0  0  0  0  0  0  0  0
    6.2770   -0.9160   25.4720 C   0  0  0  0  0  0  0  0  0  0  0  0
    6.9200    0.0010   24.6440 O   0  0  0  0  0  0  0  0  0  0  0  0
    5.7470   -4.8580   23.6500 C   0  0  0  0  0  0  0  0  0  0  0  0
    6.5470   -5.3970   22.4840 C   0  0  0  0  0  0  0  0  0  0  0  0
  1  2  1  0
  2  3  2  0
  2  4  1  0
  4  5  1  0
  5  6  1  0
  6  7  1  0
  7  8  1  0
  8  9  2  0
  8 10  1  0
 11 10  1  6
 11 12  1  0
 12 13  2  0
 13 14  1  0
 14 15  2  0
 15 16  1  0
 12 17  1  0
 16 17  2  0
 17 18  1  0
 18 19  1  0
 11 20  1  0
 19 20  1  0
 20 21  1  6
 21 22  1  0
  7 23  1  0
  4 24  1  0
 23 24  1  0
M  END
