piperidine-amides-454-covalent
     RDKit          3D

 27 29  0  0  0  0  0  0  0  0999 V2000
    7.1880   -3.3210   19.3730 C   0  0  0  0  0  0  0  0  0  0  0  0
    6.4210   -4.0890   20.3190 C   0  0  0  0  0  0  0  0  0  0  0  0
    5.3540   -4.6590   19.9300 O   0  0  0  0  0  0  0  0  0  0  0  0
    6.8530   -4.2600   21.6440 N   0  0  0  0  0  0  0  0  0  0  0  0
    7.7090   -3.2070   22.2440 C   0  0  0  0  0  0  0  0  0  0  0  0
    6.7630   -2.7210   23.4030 C   0  0  0  0  0  0  0  0  0  0  0  0
    6.4740   -3.9890   24.1580 C   0  0  0  0  0  0  0  0  0  0  0  0
    5.7780   -3.7310   25.5630 C   0  0  0  0  0  0  0  0  0  0  0  0
    5.1370   -4.7120   25.8790 O   0  0  0  0  0  0  0  0  0  0  0  0
    6.0190   -2.5740   26.0200 N   0  0  0  0  0  0  0  0  0  0  0  0
    6.0820   -1.3380   26.5840 C   0  0  1  0  0  0  0  0  0  0  0  0
    5.1720   -0.3260   26.7880 C   0  0  0  0  0  0  0  0  0  0  0  0
    5.7210    0.9370   27.0440 C   0  0  0  0  0  0  0  0  0  0  0  0
    6.4100    0.9160   28.3130 C   0  0  0  0  0  0  0  0  0  0  0  0
    6.8180   -0.3400   28.7470 N   0  0  0  0  0  0  0  0  0  0  0  0
    7.4280   -0.5570   30.0570 C   0  0  0  0  0  0  0  0  0  0  0  0
    6.4200   -0.1810   30.9690 C   0  0  0  0  0  0  0  0  0  0  0  0
    5.2420   -1.0230   30.8910 C   0  0  0  0  0  0  0  0  0  0  0  0
    4.9080   -2.1000   30.1220 F   0  0  0  0  0  0  0  0  0  0  0  0
    4.4020   -0.3400   31.9900 C   0  0  0  0  0  0  0  0  0  0  0  0
    4.7440    0.8720   32.8800 C   0  0  0  0  0  0  0  0  0  0  0  0
    5.9310    1.4380   32.7020 C   0  0  0  0  0  0  0  0  0  0  0  0
    6.7580    0.9230   31.7630 C   0  0  0  0  0  0  0  0  0  0  0  0
    7.9500    1.6220   31.7040 F   0  0  0  0  0  0  0  0  0  0  0  0
    6.2660   -1.5230   28.1410 C   0  0  0  0  0  0  0  0  0  0  0  0
    5.7870   -5.1030   23.4250 C   0  0  0  0  0  0  0  0  0  0  0  0
    6.6090   -5.4650   22.3660 C   0  0  0  0  0  0  0  0  0  0  0  0
  1  2  1  0
  2  3  2  0
  2  4  1  0
  4  5  1  0
  5  6  1  0
  6  7  1  0
  7  8  1  0
  8  9  2  0
  8 10  1  0
 11 10  1  1
 11 12  1  0
 12 13  1  0
 13 14  1  0
 14 15  1  0
 15 16  1  0
 16 17  1  0
 17 18  2  0
 18 19  1  0
 18 20  1  0
 20 21  2  0
 21 22  1  0
 17 23  1  0
 22 23  2  0
 23 24  1  0
 11 25  1  0
 15 25  1  0
  7 26  1  0
  4 27  1  0
 26 27  1  0
M  END
