piperidine-amides-3498-covalent
     RDKit          3D

 20 20  0  0  0  0  0  0  0  0999 V2000
    7.1350   -3.2960   19.1760 C   0  0  0  0  0  0  0  0  0  0  0  0
    6.3780   -4.0380   20.1760 C   0  0  0  0  0  0  0  0  0  0  0  0
    5.2900   -4.5320   19.8820 O   0  0  0  0  0  0  0  0  0  0  0  0
    6.9370   -4.2480   21.4790 N   0  0  0  0  0  0  0  0  0  0  0  0
    7.7360   -3.2060   22.0580 C   0  0  0  0  0  0  0  0  0  0  0  0
    7.0290   -2.6620   23.2490 C   0  0  0  0  0  0  0  0  0  0  0  0
    6.5720   -3.8220   24.1190 C   0  0  0  0  0  0  0  0  0  0  0  0
    5.8220   -3.2460   25.2550 C   0  0  0  0  0  0  0  0  0  0  0  0
    4.5840   -3.3440   25.3770 O   0  0  0  0  0  0  0  0  0  0  0  0
    6.5700   -2.5380   26.2160 N   0  0  0  0  0  0  0  0  0  0  0  0
    5.9980   -2.3710   27.5200 C   0  0  0  0  0  0  0  0  0  0  0  0
    6.6570   -3.3750   28.3850 C   0  0  2  0  0  0  0  0  0  0  0  0
    7.9370   -3.7200   28.0770 C   0  0  0  0  0  0  0  0  0  0  0  0
    8.1540   -4.0180   26.8780 O   0  0  0  0  0  0  0  0  0  0  0  0
    5.7790   -4.6280   28.2180 C   0  0  0  0  0  0  0  0  0  0  0  0
    6.4340   -5.6750   28.7820 C   0  0  0  0  0  0  0  0  0  0  0  0
    5.7550   -6.9490   28.9870 C   0  0  0  0  0  0  0  0  0  0  0  0
    7.6150   -6.0750   28.2250 C   0  0  0  0  0  0  0  0  0  0  0  0
    5.6540   -4.7410   23.3090 C   0  0  0  0  0  0  0  0  0  0  0  0
    6.3730   -5.3200   22.2680 C   0  0  0  0  0  0  0  0  0  0  0  0
  1  2  1  0
  2  3  2  0
  2  4  1  0
  4  5  1  0
  5  6  1  0
  6  7  1  0
  7  8  1  0
  8  9  2  0
  8 10  1  0
 10 11  1  0
 12 11  1  6
 12 13  1  0
 13 14  1  0
 12 15  1  0
 15 16  1  0
 16 17  1  0
 16 18  1  0
  7 19  1  0
  4 20  1  0
 19 20  1  0
M  END
