piperidine-amides-5562-covalent
     RDKit          3D

 18 18  0  0  0  0  0  0  0  0999 V2000
    7.1210   -3.2690   19.1880 C   0  0  0  0  0  0  0  0  0  0  0  0
    6.3500   -4.0090   20.1860 C   0  0  0  0  0  0  0  0  0  0  0  0
    5.2650   -4.5150   19.8650 O   0  0  0  0  0  0  0  0  0  0  0  0
    6.8410   -4.2040   21.4760 N   0  0  0  0  0  0  0  0  0  0  0  0
    7.6610   -3.2200   22.1440 C   0  0  0  0  0  0  0  0  0  0  0  0
    6.8530   -2.7800   23.3250 C   0  0  0  0  0  0  0  0  0  0  0  0
    6.4140   -3.9540   24.1560 C   0  0  0  0  0  0  0  0  0  0  0  0
    5.6290   -3.5590   25.3510 C   0  0  0  0  0  0  0  0  0  0  0  0
    4.5690   -2.8740   25.2380 O   0  0  0  0  0  0  0  0  0  0  0  0
    6.0280   -3.9350   26.6500 N   0  0  0  0  0  0  0  0  0  0  0  0
    6.9540   -5.0760   26.8000 C   0  0  2  0  0  0  0  0  0  0  0  0
    6.7910   -5.6900   28.1270 C   0  0  0  0  0  0  0  0  0  0  0  0
    8.3910   -4.5940   26.7250 C   0  0  0  0  0  0  0  0  0  0  0  0
    8.2000   -3.2590   26.0360 C   0  0  0  0  0  0  0  0  0  0  0  0
    7.7870   -2.1640   26.9990 C   0  0  0  0  0  0  0  0  0  0  0  0
    8.1100   -2.3800   28.4280 C   0  0  0  0  0  0  0  0  0  0  0  0
    5.6360   -4.9160   23.2860 C   0  0  0  0  0  0  0  0  0  0  0  0
    6.4030   -5.3660   22.2090 C   0  0  0  0  0  0  0  0  0  0  0  0
  1  2  1  0
  2  3  2  0
  2  4  1  0
  4  5  1  0
  5  6  1  0
  6  7  1  0
  7  8  1  0
  8  9  2  0
  8 10  1  0
 10 11  1  0
 11 12  1  1
 11 13  1  0
 13 14  1  0
 14 15  1  0
 15 16  2  3
  7 17  1  0
  4 18  1  0
 17 18  1  0
M  END
