piperidine-amides-3240-covalent
     RDKit          3D

 22 23  0  0  0  0  0  0  0  0999 V2000
    7.0340   -3.3650   19.3020 C   0  0  0  0  0  0  0  0  0  0  0  0
    6.3680   -4.1960   20.2960 C   0  0  0  0  0  0  0  0  0  0  0  0
    5.3680   -4.8360   19.9810 O   0  0  0  0  0  0  0  0  0  0  0  0
    6.9060   -4.3110   21.6220 N   0  0  0  0  0  0  0  0  0  0  0  0
    7.6820   -3.2170   22.1660 C   0  0  0  0  0  0  0  0  0  0  0  0
    7.3640   -2.9360   23.6100 C   0  0  0  0  0  0  0  0  0  0  0  0
    6.0360   -3.5880   23.9630 C   0  0  0  0  0  0  0  0  0  0  0  0
    5.6230   -3.2010   25.3340 C   0  0  0  0  0  0  0  0  0  0  0  0
    4.4380   -3.2240   25.7130 O   0  0  0  0  0  0  0  0  0  0  0  0
    6.6370   -2.8040   26.2250 N   0  0  0  0  0  0  0  0  0  0  0  0
    6.5280   -1.6190   27.0480 C   0  0  0  0  0  0  0  0  0  0  0  0
    7.0640   -1.5630   28.4520 C   0  0  0  0  0  0  0  0  0  0  0  0
    6.9640   -0.4260   29.2350 C   0  0  0  0  0  0  0  0  0  0  0  0
    6.3460    0.7420   28.7380 C   0  0  0  0  0  0  0  0  0  0  0  0
    5.8180    0.7910   27.4600 C   0  0  0  0  0  0  0  0  0  0  0  0
    5.8740   -0.3490   26.5660 C   0  0  0  0  0  0  0  0  0  0  0  0
    5.3700   -0.2490   25.3970 O   0  0  0  0  0  0  0  0  0  0  0  0
    4.0750    0.2880   25.4130 C   0  0  0  0  0  0  0  0  0  0  0  0
    3.2390   -0.6210   26.0350 C   0  0  0  0  0  0  0  0  0  0  0  0
    2.2420    0.0310   26.6930 F   0  0  0  0  0  0  0  0  0  0  0  0
    5.9780   -5.0480   23.7040 C   0  0  0  0  0  0  0  0  0  0  0  0
    6.5350   -5.4310   22.4150 C   0  0  0  0  0  0  0  0  0  0  0  0
  1  2  1  0
  2  3  2  0
  2  4  1  0
  4  5  1  0
  5  6  1  0
  6  7  1  0
  7  8  1  0
  8  9  2  0
  8 10  1  0
 10 11  1  0
 11 12  2  0
 12 13  1  0
 13 14  2  0
 14 15  1  0
 11 16  1  0
 15 16  2  0
 16 17  1  0
 17 18  1  0
 18 19  1  0
 19 20  1  0
  7 21  1  0
  4 22  1  0
 21 22  1  0
M  END
