piperidine-amides-30817-covalent
     RDKit          3D

 27 28  0  0  0  0  0  0  0  0999 V2000
    7.0610   -3.3360   19.3520 C   0  0  0  0  0  0  0  0  0  0  0  0
    6.3910   -4.1620   20.3560 C   0  0  0  0  0  0  0  0  0  0  0  0
    5.4140   -4.8490   19.9930 O   0  0  0  0  0  0  0  0  0  0  0  0
    6.8430   -4.2410   21.6920 N   0  0  0  0  0  0  0  0  0  0  0  0
    6.6480   -5.4380   22.4840 C   0  0  0  0  0  0  0  0  0  0  0  0
    5.8960   -5.0120   23.7240 C   0  0  0  0  0  0  0  0  0  0  0  0
    5.9700   -3.5240   23.9070 C   0  0  0  0  0  0  0  0  0  0  0  0
    5.2480   -2.9630   25.0940 C   0  0  0  0  0  0  0  0  0  0  0  0
    4.1100   -2.4540   24.8930 O   0  0  0  0  0  0  0  0  0  0  0  0
    5.6480   -2.9340   26.4570 N   0  0  0  0  0  0  0  0  0  0  0  0
    5.6770   -4.3340   27.0520 C   0  0  2  0  0  0  0  0  0  0  0  0
    5.6450   -4.3650   28.5280 C   0  0  0  0  0  0  0  0  0  0  0  0
    6.2070   -5.5980   29.1200 C   0  0  0  0  0  0  0  0  0  0  0  0
    6.8590   -5.1580   26.5690 C   0  0  0  0  0  0  0  0  0  0  0  0
    7.6880   -5.7310   27.4970 O   0  0  0  0  0  0  0  0  0  0  0  0
    5.2770   -1.7180   27.2920 C   0  0  2  0  0  0  0  0  0  0  0  0
    5.4300   -0.4530   26.5130 C   0  0  0  0  0  0  0  0  0  0  0  0
    5.5270    0.7690   27.1900 C   0  0  0  0  0  0  0  0  0  0  0  0
    5.5340    0.8860   28.6010 C   0  0  2  0  0  0  0  0  0  0  0  0
    6.4410    1.9700   29.1690 C   0  0  0  0  0  0  0  0  0  0  0  0
    7.5220    1.4920   30.1510 C   0  0  0  0  0  0  0  0  0  0  0  0
    7.0770    2.9860   28.2010 C   0  0  0  0  0  0  0  0  0  0  0  0
    5.5440    2.8220   30.0720 C   0  0  0  0  0  0  0  0  0  0  0  0
    5.5800   -0.3350   29.2160 C   0  0  0  0  0  0  0  0  0  0  0  0
    6.0080   -1.3310   28.4180 C   0  0  0  0  0  0  0  0  0  0  0  0
    7.3560   -3.0050   23.7070 C   0  0  0  0  0  0  0  0  0  0  0  0
    7.7230   -3.2000   22.2370 C   0  0  0  0  0  0  0  0  0  0  0  0
  1  2  1  0
  2  3  2  0
  2  4  1  0
  4  5  1  0
  5  6  1  0
  6  7  1  0
  7  8  1  0
  8  9  2  0
  8 10  1  0
 10 11  1  0
 11 12  1  1
 12 13  1  0
 11 14  1  0
 14 15  1  0
 16 10  1  6
 16 17  1  0
 17 18  1  0
 18 19  1  0
 19 20  1  6
 20 21  1  0
 20 22  1  0
 20 23  1  0
 19 24  1  0
 16 25  1  0
 24 25  1  0
  7 26  1  0
  4 27  1  0
 26 27  1  0
M  END
