piperidine-amides-8551-covalent
     RDKit          3D

 24 25  0  0  0  0  0  0  0  0999 V2000
    7.0750   -3.3340   19.3100 C   0  0  0  0  0  0  0  0  0  0  0  0
    6.3600   -4.1370   20.2970 C   0  0  0  0  0  0  0  0  0  0  0  0
    5.3220   -4.7240   19.9440 O   0  0  0  0  0  0  0  0  0  0  0  0
    6.8830   -4.2750   21.6080 N   0  0  0  0  0  0  0  0  0  0  0  0
    7.6910   -3.2260   22.1730 C   0  0  0  0  0  0  0  0  0  0  0  0
    6.9820   -2.6250   23.3420 C   0  0  0  0  0  0  0  0  0  0  0  0
    6.6210   -3.7920   24.2130 C   0  0  0  0  0  0  0  0  0  0  0  0
    5.7880   -3.3020   25.3580 C   0  0  0  0  0  0  0  0  0  0  0  0
    4.5770   -3.2110   25.1620 O   0  0  0  0  0  0  0  0  0  0  0  0
    6.4350   -2.9830   26.5410 N   0  0  0  0  0  0  0  0  0  0  0  0
    6.3910   -1.6820   27.1180 C   0  0  0  0  0  0  0  0  0  0  0  0
    5.9060   -0.4800   26.5620 C   0  0  0  0  0  0  0  0  0  0  0  0
    5.9180    0.7270   27.2440 C   0  0  0  0  0  0  0  0  0  0  0  0
    6.4090    0.8610   28.5370 C   0  0  0  0  0  0  0  0  0  0  0  0
    6.3630    2.1270   29.1040 O   0  0  0  0  0  0  0  0  0  0  0  0
    5.2560    2.8460   28.7290 C   0  0  0  0  0  0  0  0  0  0  0  0
    6.9130   -0.2220   29.2030 C   0  0  0  0  0  0  0  0  0  0  0  0
    7.4180   -0.3130   30.4130 O   0  0  0  0  0  0  0  0  0  0  0  0
    6.6420    0.3770   31.3440 C   0  0  0  0  0  0  0  0  0  0  0  0
    7.4020    0.6480   32.4750 F   0  0  0  0  0  0  0  0  0  0  0  0
    5.5170   -0.3270   31.6640 F   0  0  0  0  0  0  0  0  0  0  0  0
    6.9320   -1.5510   28.5250 C   0  0  0  0  0  0  0  0  0  0  0  0
    5.9030   -4.9040   23.5700 C   0  0  0  0  0  0  0  0  0  0  0  0
    6.5470   -5.3980   22.4550 C   0  0  0  0  0  0  0  0  0  0  0  0
  1  2  1  0
  2  3  2  0
  2  4  1  0
  4  5  1  0
  5  6  1  0
  6  7  1  0
  7  8  1  0
  8  9  2  0
  8 10  1  0
 10 11  1  0
 11 12  2  0
 12 13  1  0
 13 14  2  0
 14 15  1  0
 15 16  1  0
 14 17  1  0
 17 18  1  0
 18 19  1  0
 19 20  1  0
 19 21  1  0
 11 22  1  0
 17 22  2  0
  7 23  1  0
  4 24  1  0
 23 24  1  0
M  END
