piperidine-amides-6927-covalent
     RDKit          3D

 22 23  0  0  0  0  0  0  0  0999 V2000
    7.1460   -3.2380   19.1940 C   0  0  0  0  0  0  0  0  0  0  0  0
    6.3800   -4.0230   20.1720 C   0  0  0  0  0  0  0  0  0  0  0  0
    5.2770   -4.5220   19.8680 O   0  0  0  0  0  0  0  0  0  0  0  0
    6.9040   -4.2720   21.4370 N   0  0  0  0  0  0  0  0  0  0  0  0
    7.6560   -3.2310   22.1070 C   0  0  0  0  0  0  0  0  0  0  0  0
    6.7220   -2.6260   23.1560 C   0  0  0  0  0  0  0  0  0  0  0  0
    6.3670   -3.7660   24.0760 C   0  0  0  0  0  0  0  0  0  0  0  0
    5.5020   -3.2710   25.1600 C   0  0  0  0  0  0  0  0  0  0  0  0
    4.2620   -3.2870   24.9990 O   0  0  0  0  0  0  0  0  0  0  0  0
    6.0920   -2.7850   26.3440 N   0  0  0  0  0  0  0  0  0  0  0  0
    6.4600   -3.6680   27.4130 C   0  0  1  0  0  0  0  0  0  0  0  0
    5.6960   -4.9860   27.3540 C   0  0  0  0  0  0  0  0  0  0  0  0
    5.6150   -5.6380   28.5370 F   0  0  0  0  0  0  0  0  0  0  0  0
    4.3810   -4.6470   26.9340 F   0  0  0  0  0  0  0  0  0  0  0  0
    7.9090   -3.8700   27.3470 C   0  0  0  0  0  0  0  0  0  0  0  0
    8.3660   -4.8660   28.1310 C   0  0  0  0  0  0  0  0  0  0  0  0
    8.9910   -5.8360   27.3900 C   0  0  0  0  0  0  0  0  0  0  0  0
    9.0180   -5.5220   26.0580 C   0  0  0  0  0  0  0  0  0  0  0  0
    7.7200   -5.3370   25.2960 C   0  0  0  0  0  0  0  0  0  0  0  0
    8.2150   -4.1110   26.0200 C   0  0  0  0  0  0  0  0  0  0  0  0
    5.6970   -4.9030   23.4140 C   0  0  0  0  0  0  0  0  0  0  0  0
    6.3680   -5.3400   22.1960 C   0  0  0  0  0  0  0  0  0  0  0  0
  1  2  1  0
  2  3  2  0
  2  4  1  0
  4  5  1  0
  5  6  1  0
  6  7  1  0
  7  8  1  0
  8  9  2  0
  8 10  1  0
 11 10  1  6
 11 12  1  0
 12 13  1  0
 12 14  1  0
 11 15  1  0
 15 16  1  0
 16 17  1  0
 17 18  1  0
 18 19  1  0
 15 20  1  0
 19 20  1  0
  7 21  1  0
  4 22  1  0
 21 22  1  0
M  END
