piperidine-amides-27491-covalent
     RDKit          3D

 25 26  0  0  0  0  0  0  0  0999 V2000
    7.0900   -3.3140   19.3130 C   0  0  0  0  0  0  0  0  0  0  0  0
    6.3180   -4.0550   20.3160 C   0  0  0  0  0  0  0  0  0  0  0  0
    5.2690   -4.6120   19.9050 O   0  0  0  0  0  0  0  0  0  0  0  0
    6.7710   -4.1620   21.6380 N   0  0  0  0  0  0  0  0  0  0  0  0
    6.6520   -5.4040   22.3650 C   0  0  0  0  0  0  0  0  0  0  0  0
    6.0840   -5.0890   23.7170 C   0  0  0  0  0  0  0  0  0  0  0  0
    6.1320   -3.6090   23.9850 C   0  0  0  0  0  0  0  0  0  0  0  0
    5.6050   -3.3020   25.3440 C   0  0  0  0  0  0  0  0  0  0  0  0
    4.3660   -3.3480   25.4740 O   0  0  0  0  0  0  0  0  0  0  0  0
    6.3720   -2.9460   26.4850 N   0  0  0  0  0  0  0  0  0  0  0  0
    6.2430   -3.7340   27.7060 C   0  0  0  0  0  0  0  0  0  0  0  0
    5.9690   -5.2230   27.4650 C   0  0  0  0  0  0  0  0  0  0  0  0
    4.7990   -5.6120   28.2880 N   0  0  0  0  0  0  0  0  0  0  0  0
    4.8470   -6.7380   28.9870 C   0  0  0  0  0  0  0  0  0  0  0  0
    3.7170   -7.5280   29.0610 C   0  0  0  0  0  0  0  0  0  0  0  0
    2.7310   -6.7550   29.4410 O   0  0  0  0  0  0  0  0  0  0  0  0
    2.6600   -5.6930   28.6960 C   0  0  0  0  0  0  0  0  0  0  0  0
    3.7380   -4.8380   28.5660 C   0  0  0  0  0  0  0  0  0  0  0  0
    6.7720   -1.5830   26.6660 C   0  0  0  0  0  0  0  0  0  0  0  0
    5.6300   -0.6050   26.8540 C   0  0  0  0  0  0  0  0  0  0  0  0
    5.1960    0.1860   25.8500 O   0  0  0  0  0  0  0  0  0  0  0  0
    4.9930   -0.4890   28.0730 O   0  0  0  0  0  0  0  0  0  0  0  0
    3.5980   -0.6680   28.1570 C   0  0  0  0  0  0  0  0  0  0  0  0
    7.5270   -3.0600   23.6840 C   0  0  0  0  0  0  0  0  0  0  0  0
    7.6770   -3.1320   22.1690 C   0  0  0  0  0  0  0  0  0  0  0  0
  1  2  1  0
  2  3  2  0
  2  4  1  0
  4  5  1  0
  5  6  1  0
  6  7  1  0
  7  8  1  0
  8  9  2  0
  8 10  1  0
 10 11  1  0
 11 12  1  0
 12 13  1  0
 13 14  1  0
 14 15  1  0
 15 16  1  0
 16 17  1  0
 13 18  1  0
 17 18  1  0
 10 19  1  0
 19 20  1  0
 20 21  2  0
 20 22  1  0
 22 23  1  0
  7 24  1  0
  4 25  1  0
 24 25  1  0
M  END
