piperidine-amides-9001-covalent
     RDKit          3D

 21 21  0  0  0  0  0  0  0  0999 V2000
    7.1470   -3.3140   19.2310 C   0  0  0  0  0  0  0  0  0  0  0  0
    6.3560   -4.0340   20.2240 C   0  0  0  0  0  0  0  0  0  0  0  0
    5.2710   -4.5290   19.8790 O   0  0  0  0  0  0  0  0  0  0  0  0
    6.8260   -4.2350   21.5300 N   0  0  0  0  0  0  0  0  0  0  0  0
    6.5110   -5.4410   22.2440 C   0  0  0  0  0  0  0  0  0  0  0  0
    5.8120   -4.9710   23.4890 C   0  0  0  0  0  0  0  0  0  0  0  0
    6.5300   -3.8370   24.1730 C   0  0  0  0  0  0  0  0  0  0  0  0
    5.7770   -3.3390   25.3590 C   0  0  0  0  0  0  0  0  0  0  0  0
    4.5890   -2.9180   25.2150 O   0  0  0  0  0  0  0  0  0  0  0  0
    6.3010   -3.3100   26.6770 N   0  0  0  0  0  0  0  0  0  0  0  0
    6.2330   -4.5120   27.5520 C   0  0  0  0  0  0  0  0  0  0  0  0
    4.8890   -4.5970   28.1050 C   0  0  0  0  0  0  0  0  0  0  0  0
    4.6850   -3.4480   28.8620 F   0  0  0  0  0  0  0  0  0  0  0  0
    3.9310   -4.5120   27.0790 F   0  0  0  0  0  0  0  0  0  0  0  0
    4.5460   -5.6700   29.0470 C   0  0  0  0  0  0  0  0  0  0  0  0
    4.1150   -6.6600   28.4280 O   0  0  0  0  0  0  0  0  0  0  0  0
    4.6310   -5.6710   30.3480 O   0  0  0  0  0  0  0  0  0  0  0  0
    4.7490   -6.8430   31.1020 C   0  0  0  0  0  0  0  0  0  0  0  0
    5.8900   -7.5750   30.4400 C   0  0  0  0  0  0  0  0  0  0  0  0
    6.7730   -2.7090   23.2230 C   0  0  0  0  0  0  0  0  0  0  0  0
    7.5040   -3.1420   22.1550 C   0  0  0  0  0  0  0  0  0  0  0  0
  1  2  1  0
  2  3  2  0
  2  4  1  0
  4  5  1  0
  5  6  1  0
  6  7  1  0
  7  8  1  0
  8  9  2  0
  8 10  1  0
 10 11  1  0
 11 12  1  0
 12 13  1  0
 12 14  1  0
 12 15  1  0
 15 16  2  0
 15 17  1  0
 17 18  1  0
 18 19  1  0
  7 20  1  0
  4 21  1  0
 20 21  1  0
M  END
