piperidine-amides-3288-covalent
     RDKit          3D

 22 23  0  0  0  0  0  0  0  0999 V2000
    7.1810   -3.2880   19.2120 C   0  0  0  0  0  0  0  0  0  0  0  0
    6.3790   -4.0220   20.1800 C   0  0  0  0  0  0  0  0  0  0  0  0
    5.2850   -4.4890   19.8640 O   0  0  0  0  0  0  0  0  0  0  0  0
    6.9120   -4.2600   21.4870 N   0  0  0  0  0  0  0  0  0  0  0  0
    6.4340   -5.3670   22.2660 C   0  0  0  0  0  0  0  0  0  0  0  0
    5.7530   -4.8390   23.4940 C   0  0  0  0  0  0  0  0  0  0  0  0
    6.6080   -3.7060   24.0520 C   0  0  0  0  0  0  0  0  0  0  0  0
    5.9320   -3.0520   25.1840 C   0  0  0  0  0  0  0  0  0  0  0  0
    4.7740   -2.5890   25.1330 O   0  0  0  0  0  0  0  0  0  0  0  0
    6.6630   -2.9930   26.3700 N   0  0  0  0  0  0  0  0  0  0  0  0
    6.6520   -4.2280   27.0700 C   0  0  1  0  0  0  0  0  0  0  0  0
    8.0410   -4.7800   27.1690 C   0  0  0  0  0  0  0  0  0  0  0  0
    6.0430   -4.0230   28.3890 C   0  0  0  0  0  0  0  0  0  0  0  0
    5.3620   -5.0820   28.9730 C   0  0  0  0  0  0  0  0  0  0  0  0
    4.0680   -5.0260   29.4830 C   0  0  0  0  0  0  0  0  0  0  0  0
    3.5070   -6.2460   30.0590 C   0  0  0  0  0  0  0  0  0  0  0  0
    4.2090   -7.4190   30.1080 C   0  0  0  0  0  0  0  0  0  0  0  0
    5.4690   -7.3860   29.5870 C   0  0  0  0  0  0  0  0  0  0  0  0
    6.0410   -6.2510   29.0310 C   0  0  0  0  0  0  0  0  0  0  0  0
    7.3840   -6.2440   28.4810 C   0  0  0  0  0  0  0  0  0  0  0  0
    6.9940   -2.6570   23.0390 C   0  0  0  0  0  0  0  0  0  0  0  0
    7.7770   -3.2940   22.1040 C   0  0  0  0  0  0  0  0  0  0  0  0
  1  2  1  0
  2  3  2  0
  2  4  1  0
  4  5  1  0
  5  6  1  0
  6  7  1  0
  7  8  1  0
  8  9  2  0
  8 10  1  0
 10 11  1  0
 11 12  1  1
 11 13  1  0
 13 14  1  0
 14 15  2  0
 15 16  1  0
 16 17  2  0
 17 18  1  0
 14 19  1  0
 18 19  2  0
 19 20  1  0
  7 21  1  0
  4 22  1  0
 21 22  1  0
M  END
