piperidine-amides-28866-covalent
     RDKit          3D

 25 27  0  0  0  0  0  0  0  0999 V2000
    7.1040   -3.3250   19.2670 C   0  0  0  0  0  0  0  0  0  0  0  0
    6.4130   -4.1480   20.2540 C   0  0  0  0  0  0  0  0  0  0  0  0
    5.3470   -4.7000   19.9400 O   0  0  0  0  0  0  0  0  0  0  0  0
    7.0130   -4.3430   21.5150 N   0  0  0  0  0  0  0  0  0  0  0  0
    6.6240   -5.4890   22.2790 C   0  0  0  0  0  0  0  0  0  0  0  0
    5.8040   -5.0180   23.4380 C   0  0  0  0  0  0  0  0  0  0  0  0
    6.6440   -4.0070   24.1890 C   0  0  0  0  0  0  0  0  0  0  0  0
    5.8510   -3.4140   25.2860 C   0  0  0  0  0  0  0  0  0  0  0  0
    4.6590   -3.1880   25.0740 O   0  0  0  0  0  0  0  0  0  0  0  0
    6.5330   -3.1670   26.4490 N   0  0  0  0  0  0  0  0  0  0  0  0
    6.4420   -1.8920   27.0860 C   0  0  0  0  0  0  0  0  0  0  0  0
    5.8420   -1.8050   28.3530 C   0  0  0  0  0  0  0  0  0  0  0  0
    6.5670   -2.2660   29.3980 C   0  0  0  0  0  0  0  0  0  0  0  0
    6.4530   -3.5680   29.2530 O   0  0  0  0  0  0  0  0  0  0  0  0
    5.9910   -4.2120   28.2430 C   0  0  2  0  0  0  0  0  0  0  0  0
    5.2590   -5.3960   28.6540 C   0  0  0  0  0  0  0  0  0  0  0  0
    3.7340   -5.3780   28.9210 C   0  0  0  0  0  0  0  0  0  0  0  0
    3.0530   -6.6200   29.3520 C   0  0  0  0  0  0  0  0  0  0  0  0
    3.9670   -7.7960   29.4890 C   0  0  0  0  0  0  0  0  0  0  0  0
    5.4810   -7.6770   29.1900 C   0  0  0  0  0  0  0  0  0  0  0  0
    6.1250   -6.5400   28.7830 C   0  0  0  0  0  0  0  0  0  0  0  0
    7.8100   -6.2870   28.4070 Cl  0  0  0  0  0  0  0  0  0  0  0  0
    6.8550   -4.3100   27.2080 C   0  0  0  0  0  0  0  0  0  0  0  0
    7.1210   -2.8570   23.3720 C   0  0  0  0  0  0  0  0  0  0  0  0
    7.7820   -3.2940   22.1200 C   0  0  0  0  0  0  0  0  0  0  0  0
  1  2  1  0
  2  3  2  0
  2  4  1  0
  4  5  1  0
  5  6  1  0
  6  7  1  0
  7  8  1  0
  8  9  2  0
  8 10  1  0
 10 11  1  0
 11 12  1  0
 12 13  1  0
 13 14  1  0
 14 15  1  0
 15 16  1  1
 16 17  2  0
 17 18  1  0
 18 19  2  0
 19 20  1  0
 16 21  1  0
 20 21  2  0
 21 22  1  0
 10 23  1  0
 15 23  1  0
  7 24  1  0
  4 25  1  0
 24 25  1  0
M  END
