piperidine-amides-25050-covalent
     RDKit          3D

 24 26  0  0  0  0  0  0  0  0999 V2000
    7.1280   -3.3210   19.3120 C   0  0  0  0  0  0  0  0  0  0  0  0
    6.4450   -4.1630   20.3280 C   0  0  0  0  0  0  0  0  0  0  0  0
    5.4250   -4.7580   19.9690 O   0  0  0  0  0  0  0  0  0  0  0  0
    6.9860   -4.2960   21.6170 N   0  0  0  0  0  0  0  0  0  0  0  0
    6.5800   -5.3650   22.4850 C   0  0  0  0  0  0  0  0  0  0  0  0
    5.9090   -4.7860   23.7100 C   0  0  0  0  0  0  0  0  0  0  0  0
    6.6850   -3.5570   24.2360 C   0  0  0  0  0  0  0  0  0  0  0  0
    5.9270   -2.9430   25.3480 C   0  0  0  0  0  0  0  0  0  0  0  0
    4.7790   -2.5230   25.1650 O   0  0  0  0  0  0  0  0  0  0  0  0
    6.5150   -2.8790   26.6220 N   0  0  0  0  0  0  0  0  0  0  0  0
    6.2140   -1.7690   27.4890 C   0  0  0  0  0  0  0  0  0  0  0  0
    5.3690   -2.3160   28.6030 C   0  0  0  0  0  0  0  0  0  0  0  0
    4.9360   -3.5650   28.5050 C   0  0  0  0  0  0  0  0  0  0  0  0
    5.9080   -4.3820   28.2070 C   0  0  0  0  0  0  0  0  0  0  0  0
    6.7810   -4.0630   27.2530 C   0  0  0  0  0  0  0  0  0  0  0  0
    7.9410   -4.8020   26.7780 C   0  0  0  0  0  0  0  0  0  0  0  0
    8.0320   -6.0620   27.5200 C   0  0  0  0  0  0  0  0  0  0  0  0
    9.1130   -6.7710   27.0730 F   0  0  0  0  0  0  0  0  0  0  0  0
    6.9990   -6.4710   28.6300 C   0  0  0  0  0  0  0  0  0  0  0  0
    6.8420   -7.5380   29.4190 F   0  0  0  0  0  0  0  0  0  0  0  0
    5.9840   -5.5020   28.8640 C   0  0  0  0  0  0  0  0  0  0  0  0
    5.1190   -5.9050   29.8430 F   0  0  0  0  0  0  0  0  0  0  0  0
    6.9790   -2.5540   23.1720 C   0  0  0  0  0  0  0  0  0  0  0  0
    7.8460   -3.2640   22.1710 C   0  0  0  0  0  0  0  0  0  0  0  0
  1  2  1  0
  2  3  2  0
  2  4  1  0
  4  5  1  0
  5  6  1  0
  6  7  1  0
  7  8  1  0
  8  9  2  0
  8 10  1  0
 10 11  1  0
 11 12  1  0
 12 13  1  0
 13 14  1  0
 10 15  1  0
 14 15  2  0
 15 16  1  0
 16 17  2  0
 17 18  1  0
 17 19  1  0
 19 20  1  0
 14 21  1  0
 19 21  2  0
 21 22  1  0
  7 23  1  0
  4 24  1  0
 23 24  1  0
M  END
