piperidine-amides-13983-covalent
     RDKit          3D

 26 28  0  0  0  0  0  0  0  0999 V2000
    7.1070   -3.3560   19.3420 C   0  0  0  0  0  0  0  0  0  0  0  0
    6.3670   -4.1830   20.3220 C   0  0  0  0  0  0  0  0  0  0  0  0
    5.3260   -4.7560   19.9600 O   0  0  0  0  0  0  0  0  0  0  0  0
    6.9020   -4.3440   21.6170 N   0  0  0  0  0  0  0  0  0  0  0  0
    7.6790   -3.3100   22.2540 C   0  0  0  0  0  0  0  0  0  0  0  0
    6.7830   -2.7060   23.3360 C   0  0  0  0  0  0  0  0  0  0  0  0
    6.3910   -3.8110   24.2620 C   0  0  0  0  0  0  0  0  0  0  0  0
    5.5620   -3.3270   25.3950 C   0  0  0  0  0  0  0  0  0  0  0  0
    4.3600   -3.1800   25.1550 O   0  0  0  0  0  0  0  0  0  0  0  0
    6.1140   -3.0520   26.6530 N   0  0  0  0  0  0  0  0  0  0  0  0
    6.5920   -1.7920   27.1020 C   0  0  2  0  0  0  0  0  0  0  0  0
    6.9360   -1.4950   28.4120 C   0  0  0  0  0  0  0  0  0  0  0  0
    6.5040   -0.2640   28.9260 C   0  0  0  0  0  0  0  0  0  0  0  0
    5.6920    0.3150   27.8610 N   0  0  0  0  0  0  0  0  0  0  0  0
    5.7390    1.5760   27.3620 C   0  0  0  0  0  0  0  0  0  0  0  0
    6.7270    2.4010   27.6730 O   0  0  0  0  0  0  0  0  0  0  0  0
    4.6800    2.0930   26.4510 C   0  0  0  0  0  0  0  0  0  0  0  0
    3.6250    3.0040   27.0890 C   0  0  0  0  0  0  0  0  0  0  0  0
    4.0000    4.4650   27.0680 C   0  0  0  0  0  0  0  0  0  0  0  0
    3.1050    5.3600   27.6220 C   0  0  0  0  0  0  0  0  0  0  0  0
    1.7750    5.0130   28.2540 C   0  0  0  0  0  0  0  0  0  0  0  0
    1.5420    3.4880   28.1980 C   0  0  0  0  0  0  0  0  0  0  0  0
    2.3780    2.5500   27.6680 C   0  0  0  0  0  0  0  0  0  0  0  0
    5.6770   -0.6380   26.8070 C   0  0  0  0  0  0  0  0  0  0  0  0
    5.7160   -4.9740   23.5950 C   0  0  0  0  0  0  0  0  0  0  0  0
    6.5520   -5.4850   22.4220 C   0  0  0  0  0  0  0  0  0  0  0  0
  1  2  1  0
  2  3  2  0
  2  4  1  0
  4  5  1  0
  5  6  1  0
  6  7  1  0
  7  8  1  0
  8  9  2  0
  8 10  1  0
 11 10  1  1
 11 12  1  0
 12 13  1  0
 13 14  1  0
 14 15  1  0
 15 16  2  0
 15 17  1  0
 17 18  1  0
 18 19  2  0
 19 20  1  0
 20 21  2  0
 21 22  1  0
 18 23  1  0
 22 23  2  0
 11 24  1  0
 14 24  1  0
  7 25  1  0
  4 26  1  0
 25 26  1  0
M  END
