piperidine-amides-11953-covalent
     RDKit          3D

 26 28  0  0  0  0  0  0  0  0999 V2000
    7.2120   -4.0060   19.6700 C   0  0  0  0  0  0  0  0  0  0  0  0
    6.0110   -3.9430   20.3430 C   0  0  0  0  0  0  0  0  0  0  0  0
    4.9960   -4.0880   19.6780 O   0  0  0  0  0  0  0  0  0  0  0  0
    6.1040   -3.8440   21.7440 N   0  0  0  0  0  0  0  0  0  0  0  0
    7.2210   -3.0430   22.1980 C   0  0  0  0  0  0  0  0  0  0  0  0
    7.1400   -2.8440   23.6780 C   0  0  0  0  0  0  0  0  0  0  0  0
    5.7970   -3.4040   24.0920 C   0  0  0  0  0  0  0  0  0  0  0  0
    5.5010   -3.1120   25.5000 C   0  0  0  0  0  0  0  0  0  0  0  0
    4.3550   -2.8580   25.9070 O   0  0  0  0  0  0  0  0  0  0  0  0
    6.5780   -3.1250   26.3880 N   0  0  0  0  0  0  0  0  0  0  0  0
    6.3130   -2.8540   27.7670 C   0  0  0  0  0  0  0  0  0  0  0  0
    6.4570   -4.1080   28.5860 C   0  0  0  0  0  0  0  0  0  0  0  0
    5.6280   -5.1960   28.4150 C   0  0  0  0  0  0  0  0  0  0  0  0
    5.4320   -5.9440   27.2470 C   0  0  0  0  0  0  0  0  0  0  0  0
    4.2700   -7.2460   27.4980 S   0  0  0  0  0  0  0  0  0  0  0  0
    4.0790   -6.7440   29.2090 C   0  0  0  0  0  0  0  0  0  0  0  0
    3.1340   -7.5540   29.9760 C   0  0  0  0  0  0  0  0  0  0  0  0
    1.9300   -8.0850   29.5100 C   0  0  0  0  0  0  0  0  0  0  0  0
    1.0510   -8.8440   30.2500 C   0  0  0  0  0  0  0  0  0  0  0  0
    1.3420   -9.1240   31.5550 C   0  0  0  0  0  0  0  0  0  0  0  0
    2.5850   -8.5930   32.0800 C   0  0  0  0  0  0  0  0  0  0  0  0
    3.4610   -7.8290   31.3150 C   0  0  0  0  0  0  0  0  0  0  0  0
    4.9390   -7.2370   32.0410 Cl  0  0  0  0  0  0  0  0  0  0  0  0
    4.8720   -5.6120   29.5920 N   0  0  0  0  0  0  0  0  0  0  0  0
    5.7620   -4.8790   23.8620 C   0  0  0  0  0  0  0  0  0  0  0  0
    5.8770   -5.0870   22.4050 C   0  0  0  0  0  0  0  0  0  0  0  0
  1  2  1  0
  2  3  2  0
  2  4  1  0
  4  5  1  0
  5  6  1  0
  6  7  1  0
  7  8  1  0
  8  9  2  0
  8 10  1  0
 10 11  1  0
 11 12  1  0
 12 13  1  0
 13 14  2  0
 14 15  1  0
 15 16  1  0
 16 17  1  0
 17 18  2  0
 18 19  1  0
 19 20  2  0
 20 21  1  0
 17 22  1  0
 21 22  2  0
 22 23  1  0
 13 24  1  0
 16 24  2  0
  7 25  1  0
  4 26  1  0
 25 26  1  0
M  END
