piperidine-amides-35601-covalent
     RDKit          3D

 34 37  0  0  0  0  0  0  0  0999 V2000
    7.0920   -3.3200   19.3160 C   0  0  0  0  0  0  0  0  0  0  0  0
    6.4110   -4.1770   20.3220 C   0  0  0  0  0  0  0  0  0  0  0  0
    5.3890   -4.7620   19.9620 O   0  0  0  0  0  0  0  0  0  0  0  0
    6.9600   -4.3320   21.6020 N   0  0  0  0  0  0  0  0  0  0  0  0
    6.6700   -5.5030   22.3940 C   0  0  0  0  0  0  0  0  0  0  0  0
    5.8360   -5.0570   23.5530 C   0  0  0  0  0  0  0  0  0  0  0  0
    5.9630   -3.5410   23.6070 C   0  0  0  0  0  0  0  0  0  0  0  0
    5.2120   -3.0170   24.7570 C   0  0  0  0  0  0  0  0  0  0  0  0
    4.0220   -2.7110   24.6270 O   0  0  0  0  0  0  0  0  0  0  0  0
    5.8060   -2.8740   25.9980 N   0  0  0  0  0  0  0  0  0  0  0  0
    5.3900   -3.7850   27.0060 C   0  0  0  0  0  0  0  0  0  0  0  0
    6.6710   -4.3470   27.4070 C   0  0  0  0  0  0  0  0  0  0  0  0
    7.0770   -5.4990   26.7760 C   0  0  0  0  0  0  0  0  0  0  0  0
    8.2050   -6.0840   27.0310 C   0  0  0  0  0  0  0  0  0  0  0  0
    8.9050   -5.5170   27.9060 C   0  0  0  0  0  0  0  0  0  0  0  0
    8.5570   -4.2960   28.6290 C   0  0  0  0  0  0  0  0  0  0  0  0
    7.3020   -3.5020   28.4550 C   0  0  0  0  0  0  0  0  0  0  0  0
    7.0680   -2.3640   29.1810 O   0  0  0  0  0  0  0  0  0  0  0  0
    8.0530   -1.3750   29.1160 C   0  0  0  0  0  0  0  0  0  0  0  0
    6.4440   -1.5900   26.2730 C   0  0  0  0  0  0  0  0  0  0  0  0
    5.6080   -0.5100   26.5500 N   0  0  0  0  0  0  0  0  0  0  0  0
    6.2960    0.6930   26.8000 C   0  0  0  0  0  0  0  0  0  0  0  0
    5.4510    1.9200   27.1100 C   0  0  0  0  0  0  0  0  0  0  0  0
    4.7930    2.1090   28.4450 C   0  0  0  0  0  0  0  0  0  0  0  0
    3.9570    3.3410   28.7230 C   0  0  0  0  0  0  0  0  0  0  0  0
    3.7750    4.3150   27.7690 C   0  0  0  0  0  0  0  0  0  0  0  0
    2.7880    5.7190   28.1690 Cl  0  0  0  0  0  0  0  0  0  0  0  0
    4.4320    4.1310   26.4310 C   0  0  0  0  0  0  0  0  0  0  0  0
    5.2770    2.8900   26.1470 C   0  0  0  0  0  0  0  0  0  0  0  0
    5.9980    2.7870   24.5380 Cl  0  0  0  0  0  0  0  0  0  0  0  0
    7.6740    0.6710   26.7440 C   0  0  0  0  0  0  0  0  0  0  0  0
    8.0370   -0.9710   26.3540 S   0  0  0  0  0  0  0  0  0  0  0  0
    7.3640   -3.0050   23.5710 C   0  0  0  0  0  0  0  0  0  0  0  0
    7.7770   -3.2360   22.1130 C   0  0  0  0  0  0  0  0  0  0  0  0
  1  2  1  0
  2  3  2  0
  2  4  1  0
  4  5  1  0
  5  6  1  0
  6  7  1  0
  7  8  1  0
  8  9  2  0
  8 10  1  0
 10 11  1  0
 11 12  1  0
 12 13  2  0
 13 14  1  0
 14 15  2  0
 15 16  1  0
 12 17  1  0
 16 17  2  0
 17 18  1  0
 18 19  1  0
 10 20  1  0
 20 21  2  0
 21 22  1  0
 22 23  1  0
 23 24  2  0
 24 25  1  0
 25 26  2  0
 26 27  1  0
 26 28  1  0
 23 29  1  0
 28 29  2  0
 29 30  1  0
 22 31  2  0
 20 32  1  0
 31 32  1  0
  7 33  1  0
  4 34  1  0
 33 34  1  0
M  END
