piperidine-amides-25078-covalent
     RDKit          3D

 25 28  0  0  0  0  0  0  0  0999 V2000
    7.0590   -3.3660   19.3600 C   0  0  0  0  0  0  0  0  0  0  0  0
    6.3720   -4.2140   20.3640 C   0  0  0  0  0  0  0  0  0  0  0  0
    5.3700   -4.8160   19.9790 O   0  0  0  0  0  0  0  0  0  0  0  0
    6.8890   -4.3520   21.6610 N   0  0  0  0  0  0  0  0  0  0  0  0
    6.6540   -5.5440   22.4360 C   0  0  0  0  0  0  0  0  0  0  0  0
    5.8200   -5.1790   23.6320 C   0  0  0  0  0  0  0  0  0  0  0  0
    5.9950   -3.6830   23.8910 C   0  0  0  0  0  0  0  0  0  0  0  0
    5.5460   -3.2890   25.2550 C   0  0  0  0  0  0  0  0  0  0  0  0
    4.7420   -2.3600   25.3570 O   0  0  0  0  0  0  0  0  0  0  0  0
    5.9640   -3.9240   26.4380 N   0  0  0  0  0  0  0  0  0  0  0  0
    6.8620   -5.0400   26.2930 C   0  0  0  0  0  0  0  0  0  0  0  0
    6.5710   -5.7950   27.5270 C   0  0  0  0  0  0  0  0  0  0  0  0
    5.3440   -5.5750   28.0370 C   0  0  1  0  0  0  0  0  0  0  0  0
    5.1820   -5.8220   29.3500 C   0  0  0  0  0  0  0  0  0  0  0  0
    6.1250   -6.5040   30.0690 C   0  0  0  0  0  0  0  0  0  0  0  0
    5.8600   -6.7040   31.4070 O   0  0  0  0  0  0  0  0  0  0  0  0
    4.6490   -6.1020   31.4710 C   0  0  0  0  0  0  0  0  0  0  0  0
    3.8480   -6.0230   32.7460 C   0  0  0  0  0  0  0  0  0  0  0  0
    2.4940   -5.3120   32.7150 C   0  0  0  0  0  0  0  0  0  0  0  0
    2.0350   -4.7300   31.4040 C   0  0  0  0  0  0  0  0  0  0  0  0
    2.8500   -4.8270   30.1690 C   0  0  0  0  0  0  0  0  0  0  0  0
    4.1680   -5.5180   30.2020 C   0  0  0  0  0  0  0  0  0  0  0  0
    5.3540   -4.0570   27.7710 C   0  0  0  0  0  0  0  0  0  0  0  0
    7.4290   -3.2530   23.6300 C   0  0  0  0  0  0  0  0  0  0  0  0
    7.6950   -3.2900   22.2720 C   0  0  0  0  0  0  0  0  0  0  0  0
  1  2  1  0
  2  3  2  0
  2  4  1  0
  4  5  1  0
  5  6  1  0
  6  7  1  0
  7  8  1  0
  8  9  2  0
  8 10  1  0
 10 11  1  0
 11 12  1  0
 12 13  1  0
 13 14  1  1
 14 15  2  0
 15 16  1  0
 16 17  1  0
 17 18  1  0
 18 19  2  0
 19 20  1  0
 20 21  2  0
 14 22  1  0
 17 22  2  0
 21 22  1  0
 10 23  1  0
 13 23  1  0
  7 24  1  0
  4 25  1  0
 24 25  1  0
M  END
