piperidine-amides-29701-covalent
     RDKit          3D

 27 30  0  0  0  0  0  0  0  0999 V2000
    7.0500   -3.3550   19.3250 C   0  0  0  0  0  0  0  0  0  0  0  0
    6.3790   -4.2080   20.2950 C   0  0  0  0  0  0  0  0  0  0  0  0
    5.3510   -4.8010   19.9720 O   0  0  0  0  0  0  0  0  0  0  0  0
    6.9450   -4.4200   21.5970 N   0  0  0  0  0  0  0  0  0  0  0  0
    7.7010   -3.3770   22.2460 C   0  0  0  0  0  0  0  0  0  0  0  0
    6.9390   -2.8230   23.4130 C   0  0  0  0  0  0  0  0  0  0  0  0
    6.3700   -3.9750   24.2340 C   0  0  0  0  0  0  0  0  0  0  0  0
    5.3180   -3.4620   25.1620 C   0  0  0  0  0  0  0  0  0  0  0  0
    4.3200   -2.8670   24.7380 O   0  0  0  0  0  0  0  0  0  0  0  0
    5.4420   -3.6410   26.5570 N   0  0  0  0  0  0  0  0  0  0  0  0
    6.5160   -3.0190   27.1770 C   0  0  0  0  0  0  0  0  0  0  0  0
    6.7750   -3.9440   28.3420 C   0  0  0  0  0  0  0  0  0  0  0  0
    5.7800   -4.0060   29.2290 C   0  0  0  0  0  0  0  0  0  0  0  0
    5.5290   -2.7430   29.7790 C   0  0  0  0  0  0  0  0  0  0  0  0
    6.3510   -1.6070   29.6620 C   0  0  0  0  0  0  0  0  0  0  0  0
    5.7640   -0.5120   30.3570 N   0  0  0  0  0  0  0  0  0  0  0  0
    4.5900   -1.1000   30.8590 C   0  0  0  0  0  0  0  0  0  0  0  0
    3.6670   -0.4240   31.6210 C   0  0  0  0  0  0  0  0  0  0  0  0
    2.5100   -1.0150   32.1130 C   0  0  0  0  0  0  0  0  0  0  0  0
    1.6930   -0.2220   32.8510 F   0  0  0  0  0  0  0  0  0  0  0  0
    2.2960   -2.3650   31.8050 C   0  0  0  0  0  0  0  0  0  0  0  0
    3.2830   -3.0800   30.9930 C   0  0  0  0  0  0  0  0  0  0  0  0
    4.3970   -2.4060   30.5520 C   0  0  0  0  0  0  0  0  0  0  0  0
    4.6840   -4.5760   28.5920 C   0  0  0  0  0  0  0  0  0  0  0  0
    4.2630   -4.0280   27.2620 C   0  0  0  0  0  0  0  0  0  0  0  0
    5.7030   -5.0720   23.4560 C   0  0  0  0  0  0  0  0  0  0  0  0
    6.5910   -5.5790   22.3460 C   0  0  0  0  0  0  0  0  0  0  0  0
  1  2  1  0
  2  3  2  0
  2  4  1  0
  4  5  1  0
  5  6  1  0
  6  7  1  0
  7  8  1  0
  8  9  2  0
  8 10  1  0
 10 11  1  0
 11 12  1  0
 12 13  1  0
 13 14  1  0
 14 15  2  0
 15 16  1  0
 16 17  1  0
 17 18  1  0
 18 19  2  0
 19 20  1  0
 19 21  1  0
 21 22  2  0
 14 23  1  0
 17 23  2  0
 22 23  1  0
 13 24  1  0
 10 25  1  0
 24 25  1  0
  7 26  1  0
  4 27  1  0
 26 27  1  0
M  END
