piperidine-amides-15022-covalent
     RDKit          3D

 21 22  0  0  0  0  0  0  0  0999 V2000
    7.1220   -3.2710   19.2420 C   0  0  0  0  0  0  0  0  0  0  0  0
    6.3990   -4.0650   20.2300 C   0  0  0  0  0  0  0  0  0  0  0  0
    5.3090   -4.5600   19.8950 O   0  0  0  0  0  0  0  0  0  0  0  0
    6.9650   -4.3120   21.5050 N   0  0  0  0  0  0  0  0  0  0  0  0
    7.6260   -3.2290   22.1750 C   0  0  0  0  0  0  0  0  0  0  0  0
    6.7280   -2.7170   23.2590 C   0  0  0  0  0  0  0  0  0  0  0  0
    6.4790   -3.8630   24.2140 C   0  0  0  0  0  0  0  0  0  0  0  0
    5.7250   -3.3710   25.4090 C   0  0  0  0  0  0  0  0  0  0  0  0
    4.5030   -3.5000   25.3720 O   0  0  0  0  0  0  0  0  0  0  0  0
    6.4360   -2.8040   26.4620 N   0  0  0  0  0  0  0  0  0  0  0  0
    6.6940   -1.4060   26.5410 C   0  0  0  0  0  0  0  0  0  0  0  0
    5.6160   -0.6310   26.9900 C   0  0  0  0  0  0  0  0  0  0  0  0
    5.3960   -0.4530   28.3490 C   0  0  0  0  0  0  0  0  0  0  0  0
    6.5280   -1.2360   29.4710 Cl  0  0  0  0  0  0  0  0  0  0  0  0
    4.3620    0.2910   28.9340 C   0  0  0  0  0  0  0  0  0  0  0  0
    3.4160    0.9470   27.9690 C   0  0  0  0  0  0  0  0  0  0  0  0
    3.6600    0.7530   26.4670 C   0  0  0  0  0  0  0  0  0  0  0  0
    4.8000   -0.0630   26.0430 C   0  0  0  0  0  0  0  0  0  0  0  0
    5.0750   -0.2750   24.3150 Cl  0  0  0  0  0  0  0  0  0  0  0  0
    5.7930   -5.0010   23.5400 C   0  0  0  0  0  0  0  0  0  0  0  0
    6.4690   -5.4470   22.2300 C   0  0  0  0  0  0  0  0  0  0  0  0
  1  2  1  0
  2  3  2  0
  2  4  1  0
  4  5  1  0
  5  6  1  0
  6  7  1  0
  7  8  1  0
  8  9  2  0
  8 10  1  0
 10 11  1  0
 11 12  1  0
 12 13  2  0
 13 14  1  0
 13 15  1  0
 15 16  2  0
 16 17  1  0
 12 18  1  0
 17 18  2  0
 18 19  1  0
  7 20  1  0
  4 21  1  0
 20 21  1  0
M  END
