piperidine-amides-27130-covalent
     RDKit          3D

 25 26  0  0  0  0  0  0  0  0999 V2000
    7.0890   -3.2520   19.1730 C   0  0  0  0  0  0  0  0  0  0  0  0
    6.3360   -3.9840   20.2020 C   0  0  0  0  0  0  0  0  0  0  0  0
    5.2450   -4.5000   19.8520 O   0  0  0  0  0  0  0  0  0  0  0  0
    6.8450   -4.1370   21.4870 N   0  0  0  0  0  0  0  0  0  0  0  0
    7.6890   -3.1180   22.0810 C   0  0  0  0  0  0  0  0  0  0  0  0
    7.0380   -2.6510   23.3460 C   0  0  0  0  0  0  0  0  0  0  0  0
    6.6100   -3.8200   24.1790 C   0  0  0  0  0  0  0  0  0  0  0  0
    5.8180   -3.3680   25.3480 C   0  0  0  0  0  0  0  0  0  0  0  0
    4.5750   -3.3020   25.2230 O   0  0  0  0  0  0  0  0  0  0  0  0
    6.3950   -2.9940   26.5860 N   0  0  0  0  0  0  0  0  0  0  0  0
    6.7910   -1.6210   26.7570 C   0  0  0  0  0  0  0  0  0  0  0  0
    6.2120   -3.8470   27.7540 C   0  0  0  0  0  0  0  0  0  0  0  0
    6.0530   -5.1810   27.4220 C   0  0  0  0  0  0  0  0  0  0  0  0
    5.8170   -5.4780   26.0540 O   0  0  0  0  0  0  0  0  0  0  0  0
    6.1250   -6.1410   28.3880 N   0  0  0  0  0  0  0  0  0  0  0  0
    5.3210   -6.1120   29.4750 C   0  0  1  0  0  0  0  0  0  0  0  0
    4.5090   -4.9930   29.5770 C   0  0  0  0  0  0  0  0  0  0  0  0
    3.5600   -4.9560   30.5790 C   0  0  0  0  0  0  0  0  0  0  0  0
    3.5160   -6.0290   31.4250 C   0  0  0  0  0  0  0  0  0  0  0  0
    3.6300   -7.1590   30.6990 N   0  0  0  0  0  0  0  0  0  0  0  0
    2.4830   -7.9670   30.5520 C   0  0  0  0  0  0  0  0  0  0  0  0
    2.1420   -8.6570   31.8730 C   0  0  0  0  0  0  0  0  0  0  0  0
    4.6270   -7.2880   29.7050 C   0  0  0  0  0  0  0  0  0  0  0  0
    5.7790   -4.7900   23.3800 C   0  0  0  0  0  0  0  0  0  0  0  0
    6.4970   -5.2850   22.3180 C   0  0  0  0  0  0  0  0  0  0  0  0
  1  2  1  0
  2  3  2  0
  2  4  1  0
  4  5  1  0
  5  6  1  0
  6  7  1  0
  7  8  1  0
  8  9  2  0
  8 10  1  0
 10 11  1  0
 10 12  1  0
 12 13  1  0
 13 14  2  0
 13 15  1  0
 16 15  1  6
 16 17  1  0
 17 18  1  0
 18 19  1  0
 19 20  1  0
 20 21  1  0
 21 22  1  0
 16 23  1  0
 20 23  1  0
  7 24  1  0
  4 25  1  0
 24 25  1  0
M  END
