piperidine-amides-16188-covalent
     RDKit          3D

 19 20  0  0  0  0  0  0  0  0999 V2000
    7.0720   -3.3090   19.3030 C   0  0  0  0  0  0  0  0  0  0  0  0
    6.3640   -4.1560   20.2970 C   0  0  0  0  0  0  0  0  0  0  0  0
    5.3270   -4.7000   19.9350 O   0  0  0  0  0  0  0  0  0  0  0  0
    6.9060   -4.3520   21.5680 N   0  0  0  0  0  0  0  0  0  0  0  0
    6.6030   -5.5140   22.3520 C   0  0  0  0  0  0  0  0  0  0  0  0
    5.8320   -5.0790   23.5650 C   0  0  0  0  0  0  0  0  0  0  0  0
    6.6240   -4.0190   24.3480 C   0  0  0  0  0  0  0  0  0  0  0  0
    5.7750   -3.5790   25.4780 C   0  0  0  0  0  0  0  0  0  0  0  0
    4.5340   -3.5420   25.3830 O   0  0  0  0  0  0  0  0  0  0  0  0
    6.3570   -3.1730   26.6900 N   0  0  0  0  0  0  0  0  0  0  0  0
    7.7720   -3.3960   26.9100 C   0  0  0  0  0  0  0  0  0  0  0  0
    7.9230   -4.8710   27.1450 C   0  0  1  0  0  0  0  0  0  0  0  0
    8.5080   -5.4710   28.2080 C   0  0  0  0  0  0  0  0  0  0  0  0
    7.0720   -5.4430   28.1200 C   0  0  0  0  0  0  0  0  0  0  0  0
    6.0070   -4.6940   28.4960 C   0  0  2  0  0  0  0  0  0  0  0  0
    4.7970   -5.2520   28.2140 O   0  0  0  0  0  0  0  0  0  0  0  0
    5.9730   -3.2280   28.0970 C   0  0  0  0  0  0  0  0  0  0  0  0
    7.0560   -2.8650   23.4940 C   0  0  0  0  0  0  0  0  0  0  0  0
    7.6640   -3.2900   22.1950 C   0  0  0  0  0  0  0  0  0  0  0  0
  1  2  1  0
  2  3  2  0
  2  4  1  0
  4  5  1  0
  5  6  1  0
  6  7  1  0
  7  8  1  0
  8  9  2  0
  8 10  1  0
 10 11  1  0
 11 12  1  0
 12 13  1  1
 12 14  1  0
 14 15  1  0
 15 16  1  6
 10 17  1  0
 15 17  1  0
  7 18  1  0
  4 19  1  0
 18 19  1  0
M  END
