piperidine-amides-8887-covalent
     RDKit          3D

 22 23  0  0  0  0  0  0  0  0999 V2000
    7.0110   -3.3370   19.3390 C   0  0  0  0  0  0  0  0  0  0  0  0
    6.3580   -4.1720   20.3520 C   0  0  0  0  0  0  0  0  0  0  0  0
    5.3980   -4.8720   19.9850 O   0  0  0  0  0  0  0  0  0  0  0  0
    6.8240   -4.2090   21.6960 N   0  0  0  0  0  0  0  0  0  0  0  0
    7.7130   -3.1720   22.1760 C   0  0  0  0  0  0  0  0  0  0  0  0
    7.5990   -3.0360   23.6650 C   0  0  0  0  0  0  0  0  0  0  0  0
    6.2540   -3.6180   23.9960 C   0  0  0  0  0  0  0  0  0  0  0  0
    5.8800   -3.4180   25.4420 C   0  0  0  0  0  0  0  0  0  0  0  0
    4.6770   -3.5230   25.6760 O   0  0  0  0  0  0  0  0  0  0  0  0
    6.8480   -3.1140   26.4170 N   0  0  0  0  0  0  0  0  0  0  0  0
    6.6480   -1.8630   27.1230 C   0  0  0  0  0  0  0  0  0  0  0  0
    5.7030   -0.9370   26.7190 N   0  0  0  0  0  0  0  0  0  0  0  0
    5.2730    0.2930   27.1630 C   0  0  0  0  0  0  0  0  0  0  0  0
    6.1220    0.4220   28.2900 C   0  0  0  0  0  0  0  0  0  0  0  0
    7.1220   -0.3400   28.8910 C   0  0  0  0  0  0  0  0  0  0  0  0
    7.4730   -1.6260   28.2800 C   0  0  0  0  0  0  0  0  0  0  0  0
    8.4330   -2.3320   28.8480 N   0  0  0  0  0  0  0  0  0  0  0  0
    7.5680   -4.2270   27.0340 C   0  0  0  0  0  0  0  0  0  0  0  0
    8.5800   -4.8080   26.1150 C   0  0  0  0  0  0  0  0  0  0  0  0
    6.6560   -5.3430   27.4880 C   0  0  0  0  0  0  0  0  0  0  0  0
    6.0640   -5.0380   23.6610 C   0  0  0  0  0  0  0  0  0  0  0  0
    6.7030   -5.4150   22.4950 C   0  0  0  0  0  0  0  0  0  0  0  0
  1  2  1  0
  2  3  2  0
  2  4  1  0
  4  5  1  0
  5  6  1  0
  6  7  1  0
  7  8  1  0
  8  9  2  0
  8 10  1  0
 10 11  1  0
 11 12  2  0
 12 13  1  0
 13 14  2  0
 14 15  1  0
 11 16  1  0
 15 16  2  0
 16 17  1  0
 10 18  1  0
 18 19  1  0
 18 20  1  0
  7 21  1  0
  4 22  1  0
 21 22  1  0
M  END
