piperidine-amides-27363-covalent
     RDKit          3D

 25 27  0  0  0  0  0  0  0  0999 V2000
    7.1630   -3.3400   19.2570 C   0  0  0  0  0  0  0  0  0  0  0  0
    6.4110   -4.1270   20.2230 C   0  0  0  0  0  0  0  0  0  0  0  0
    5.2730   -4.5330   19.8800 O   0  0  0  0  0  0  0  0  0  0  0  0
    7.0160   -4.4520   21.4270 N   0  0  0  0  0  0  0  0  0  0  0  0
    6.6670   -5.6640   22.1030 C   0  0  0  0  0  0  0  0  0  0  0  0
    5.8080   -5.2420   23.2410 C   0  0  0  0  0  0  0  0  0  0  0  0
    6.3570   -4.0290   23.9360 C   0  0  0  0  0  0  0  0  0  0  0  0
    5.2890   -3.4760   24.7540 C   0  0  0  0  0  0  0  0  0  0  0  0
    4.3540   -2.8360   24.2430 O   0  0  0  0  0  0  0  0  0  0  0  0
    5.3230   -3.6610   26.1000 N   0  0  0  0  0  0  0  0  0  0  0  0
    4.2740   -3.2410   26.9770 C   0  0  0  0  0  0  0  0  0  0  0  0
    4.8050   -3.5660   28.3220 C   0  0  2  0  0  0  0  0  0  0  0  0
    3.9060   -4.3830   28.9770 F   0  0  0  0  0  0  0  0  0  0  0  0
    5.0590   -2.5630   29.2190 C   0  0  0  0  0  0  0  0  0  0  0  0
    6.4090   -2.5620   29.4170 C   0  0  0  0  0  0  0  0  0  0  0  0
    6.7820   -3.8660   29.0850 C   0  0  0  0  0  0  0  0  0  0  0  0
    6.0370   -4.1520   28.0670 C   0  0  1  0  0  0  0  0  0  0  0  0
    5.7060   -5.4610   27.8170 C   0  0  0  0  0  0  0  0  0  0  0  0
    5.9390   -6.1000   26.6000 O   0  0  0  0  0  0  0  0  0  0  0  0
    5.1220   -6.0500   28.8830 O   0  0  0  0  0  0  0  0  0  0  0  0
    5.8430   -7.1470   29.2760 C   0  0  0  0  0  0  0  0  0  0  0  0
    5.7000   -7.3950   30.7750 C   0  0  0  0  0  0  0  0  0  0  0  0
    6.2660   -3.2770   27.0510 C   0  0  0  0  0  0  0  0  0  0  0  0
    6.8500   -2.9230   23.0430 C   0  0  0  0  0  0  0  0  0  0  0  0
    7.7680   -3.4760   22.2030 C   0  0  0  0  0  0  0  0  0  0  0  0
  1  2  1  0
  2  3  2  0
  2  4  1  0
  4  5  1  0
  5  6  1  0
  6  7  1  0
  7  8  1  0
  8  9  2  0
  8 10  1  0
 10 11  1  0
 11 12  1  0
 12 13  1  1
 12 14  1  0
 14 15  1  0
 15 16  1  0
 12 17  1  0
 16 17  1  0
 17 18  1  6
 18 19  2  0
 18 20  1  0
 20 21  1  0
 21 22  1  0
 10 23  1  0
 17 23  1  0
  7 24  1  0
  4 25  1  0
 24 25  1  0
M  END
