piperidine-amides-14396-covalent
     RDKit          3D

 25 26  0  0  0  0  0  0  0  0999 V2000
    7.0930   -3.2980   19.2890 C   0  0  0  0  0  0  0  0  0  0  0  0
    6.3160   -4.0440   20.2810 C   0  0  0  0  0  0  0  0  0  0  0  0
    5.2810   -4.6130   19.9030 O   0  0  0  0  0  0  0  0  0  0  0  0
    6.7640   -4.1480   21.6220 N   0  0  0  0  0  0  0  0  0  0  0  0
    7.7020   -3.1870   22.1290 C   0  0  0  0  0  0  0  0  0  0  0  0
    7.5820   -3.1990   23.6070 C   0  0  0  0  0  0  0  0  0  0  0  0
    6.1390   -3.5700   23.8170 C   0  0  0  0  0  0  0  0  0  0  0  0
    5.7160   -3.2970   25.2240 C   0  0  0  0  0  0  0  0  0  0  0  0
    4.5670   -3.6120   25.5250 O   0  0  0  0  0  0  0  0  0  0  0  0
    6.6390   -2.7060   26.0710 N   0  0  0  0  0  0  0  0  0  0  0  0
    6.3500   -1.5030   26.7720 C   0  0  0  0  0  0  0  0  0  0  0  0
    6.2110   -0.3630   25.9590 C   0  0  0  0  0  0  0  0  0  0  0  0
    6.7440   -0.3160   24.6840 C   0  0  0  0  0  0  0  0  0  0  0  0
    6.6200    0.8060   23.8810 C   0  0  0  0  0  0  0  0  0  0  0  0
    7.1970    0.7620   22.6130 O   0  0  0  0  0  0  0  0  0  0  0  0
    8.5210    0.3850   22.6240 C   0  0  0  0  0  0  0  0  0  0  0  0
    5.9570    1.9070   24.3310 C   0  0  0  0  0  0  0  0  0  0  0  0
    5.3300    2.0060   25.6670 C   0  0  0  0  0  0  0  0  0  0  0  0
    5.5170    0.7450   26.4670 C   0  0  0  0  0  0  0  0  0  0  0  0
    5.0630    0.6120   27.6320 O   0  0  0  0  0  0  0  0  0  0  0  0
    4.2370    1.5680   28.2820 C   0  0  0  0  0  0  0  0  0  0  0  0
    3.7630    1.1680   29.5110 F   0  0  0  0  0  0  0  0  0  0  0  0
    3.1360    1.8970   27.4830 F   0  0  0  0  0  0  0  0  0  0  0  0
    5.9650   -5.0530   23.5590 C   0  0  0  0  0  0  0  0  0  0  0  0
    6.5990   -5.3830   22.3640 C   0  0  0  0  0  0  0  0  0  0  0  0
  1  2  1  0
  2  3  2  0
  2  4  1  0
  4  5  1  0
  5  6  1  0
  6  7  1  0
  7  8  1  0
  8  9  2  0
  8 10  1  0
 10 11  1  0
 11 12  1  0
 12 13  2  0
 13 14  1  0
 14 15  1  0
 15 16  1  0
 14 17  2  0
 17 18  1  0
 12 19  1  0
 18 19  2  0
 19 20  1  0
 20 21  1  0
 21 22  1  0
 21 23  1  0
  7 24  1  0
  4 25  1  0
 24 25  1  0
M  END
