piperidine-amides-29526-covalent
     RDKit          3D

 26 29  0  0  0  0  0  0  0  0999 V2000
    6.9950   -3.3670   19.4670 C   0  0  0  0  0  0  0  0  0  0  0  0
    6.3360   -4.2580   20.4240 C   0  0  0  0  0  0  0  0  0  0  0  0
    5.4210   -4.9800   20.0170 O   0  0  0  0  0  0  0  0  0  0  0  0
    6.7590   -4.3270   21.8100 N   0  0  0  0  0  0  0  0  0  0  0  0
    6.6380   -5.5840   22.5310 C   0  0  0  0  0  0  0  0  0  0  0  0
    6.2450   -5.3800   23.9820 C   0  0  0  0  0  0  0  0  0  0  0  0
    5.9870   -3.9070   24.1760 C   0  0  0  0  0  0  0  0  0  0  0  0
    5.3350   -3.5130   25.4940 C   0  0  0  0  0  0  0  0  0  0  0  0
    4.3300   -2.7840   25.4410 O   0  0  0  0  0  0  0  0  0  0  0  0
    5.7340   -3.8710   26.8360 N   0  0  0  0  0  0  0  0  0  0  0  0
    5.7300   -2.7920   27.8060 C   0  0  0  0  0  0  0  0  0  0  0  0
    5.3430   -3.3240   29.1710 C   0  0  0  0  0  0  0  0  0  0  0  0
    5.1360   -4.6650   29.3100 C   0  0  0  0  0  0  0  0  0  0  0  0
    4.4060   -5.1520   30.4570 N   0  0  0  0  0  0  0  0  0  0  0  0
    4.2880   -6.5630   30.4410 C   0  0  0  0  0  0  0  0  0  0  0  0
    3.6900   -7.4130   31.3440 C   0  0  0  0  0  0  0  0  0  0  0  0
    4.3420   -7.7870   32.5920 C   0  0  0  0  0  0  0  0  0  0  0  0
    3.7630   -8.6280   33.5030 C   0  0  0  0  0  0  0  0  0  0  0  0
    2.5150   -9.1470   33.2400 C   0  0  0  0  0  0  0  0  0  0  0  0
    1.8140   -8.8450   32.0690 C   0  0  0  0  0  0  0  0  0  0  0  0
    2.4370   -7.9380   31.0840 C   0  0  0  0  0  0  0  0  0  0  0  0
    5.0730   -7.2190   29.0090 S   0  0  0  0  0  0  0  0  0  0  0  0
    5.5680   -5.6050   28.4330 C   0  0  0  0  0  0  0  0  0  0  0  0
    6.2480   -5.1120   27.4000 C   0  0  0  0  0  0  0  0  0  0  0  0
    7.2280   -3.1130   23.8620 C   0  0  0  0  0  0  0  0  0  0  0  0
    7.6190   -3.2980   22.3790 C   0  0  0  0  0  0  0  0  0  0  0  0
  1  2  1  0
  2  3  2  0
  2  4  1  0
  4  5  1  0
  5  6  1  0
  6  7  1  0
  7  8  1  0
  8  9  2  0
  8 10  1  0
 10 11  1  0
 11 12  1  0
 12 13  1  0
 13 14  1  0
 14 15  2  0
 15 16  1  0
 16 17  2  0
 17 18  1  0
 18 19  2  0
 19 20  1  0
 16 21  1  0
 20 21  2  0
 15 22  1  0
 13 23  2  0
 22 23  1  0
 10 24  1  0
 23 24  1  0
  7 25  1  0
  4 26  1  0
 25 26  1  0
M  END
