piperidine-amides-11055-covalent
     RDKit          3D

 21 22  0  0  0  0  0  0  0  0999 V2000
    7.0890   -3.2890   19.2730 C   0  0  0  0  0  0  0  0  0  0  0  0
    6.3550   -4.0510   20.2850 C   0  0  0  0  0  0  0  0  0  0  0  0
    5.3440   -4.6900   19.9390 O   0  0  0  0  0  0  0  0  0  0  0  0
    6.7940   -4.1080   21.6210 N   0  0  0  0  0  0  0  0  0  0  0  0
    7.7130   -3.1210   22.1620 C   0  0  0  0  0  0  0  0  0  0  0  0
    7.3980   -2.9980   23.6250 C   0  0  0  0  0  0  0  0  0  0  0  0
    6.0780   -3.6230   23.9360 C   0  0  0  0  0  0  0  0  0  0  0  0
    5.5790   -3.3740   25.3100 C   0  0  0  0  0  0  0  0  0  0  0  0
    4.3470   -3.5050   25.5630 O   0  0  0  0  0  0  0  0  0  0  0  0
    6.3990   -2.9770   26.3870 N   0  0  0  0  0  0  0  0  0  0  0  0
    6.6000   -1.5430   26.6740 C   0  0  0  0  0  0  0  0  0  0  0  0
    6.3570   -1.3140   28.1150 C   0  0  0  0  0  0  0  0  0  0  0  0
    7.2470   -1.3200   29.2400 C   0  0  0  0  0  0  0  0  0  0  0  0
    6.4840   -1.0260   30.4460 N   0  0  0  0  0  0  0  0  0  0  0  0
    5.2160   -0.8650   30.0130 N   0  0  0  0  0  0  0  0  0  0  0  0
    4.3150   -0.5760   31.0040 C   0  0  0  0  0  0  0  0  0  0  0  0
    4.7100    0.6470   31.8040 C   0  0  0  0  0  0  0  0  0  0  0  0
    3.6940    0.7910   32.7780 O   0  0  0  0  0  0  0  0  0  0  0  0
    5.0190   -1.0090   28.6720 C   0  0  0  0  0  0  0  0  0  0  0  0
    6.1510   -5.1050   23.6320 C   0  0  0  0  0  0  0  0  0  0  0  0
    6.6170   -5.3570   22.3320 C   0  0  0  0  0  0  0  0  0  0  0  0
  1  2  1  0
  2  3  2  0
  2  4  1  0
  4  5  1  0
  5  6  1  0
  6  7  1  0
  7  8  1  0
  8  9  2  0
  8 10  1  0
 10 11  1  0
 11 12  1  0
 12 13  1  0
 13 14  2  0
 14 15  1  0
 15 16  1  0
 16 17  1  0
 17 18  1  0
 12 19  2  0
 15 19  1  0
  7 20  1  0
  4 21  1  0
 20 21  1  0
M  END
