piperidine-amides-1354-covalent
     RDKit          3D

 22 22  0  0  0  0  0  0  0  0999 V2000
    7.1030   -3.2570   19.2220 C   0  0  0  0  0  0  0  0  0  0  0  0
    6.3210   -4.0200   20.2350 C   0  0  0  0  0  0  0  0  0  0  0  0
    5.2680   -4.5780   19.8900 O   0  0  0  0  0  0  0  0  0  0  0  0
    6.8140   -4.1350   21.5500 N   0  0  0  0  0  0  0  0  0  0  0  0
    7.6700   -3.1140   22.1130 C   0  0  0  0  0  0  0  0  0  0  0  0
    7.4360   -3.1340   23.6200 C   0  0  0  0  0  0  0  0  0  0  0  0
    6.0490   -3.6490   23.8110 C   0  0  0  0  0  0  0  0  0  0  0  0
    5.4810   -3.3300   25.1410 C   0  0  0  0  0  0  0  0  0  0  0  0
    4.4270   -2.6830   25.1480 O   0  0  0  0  0  0  0  0  0  0  0  0
    6.1190   -3.7530   26.3060 N   0  0  0  0  0  0  0  0  0  0  0  0
    6.0740   -5.0390   26.9060 C   0  0  1  0  0  0  0  0  0  0  0  0
    6.8030   -5.2570   28.0100 C   0  0  0  0  0  0  0  0  0  0  0  0
    8.3450   -4.5150   27.6100 S   0  0  0  0  0  0  0  0  0  0  0  0
    9.4470   -5.7790   27.0800 C   0  0  0  0  0  0  0  0  0  0  0  0
    8.9330   -3.7500   28.7590 O   0  0  0  0  0  0  0  0  0  0  0  0
    8.1380   -3.5820   26.4630 O   0  0  0  0  0  0  0  0  0  0  0  0
    4.8640   -5.6620   27.2540 C   0  0  0  0  0  0  0  0  0  0  0  0
    4.4260   -6.4570   26.0730 C   0  0  0  0  0  0  0  0  0  0  0  0
    5.0750   -6.6220   28.2350 C   0  0  0  0  0  0  0  0  0  0  0  0
    3.9100   -4.8640   27.8420 C   0  0  0  0  0  0  0  0  0  0  0  0
    6.0100   -5.1600   23.5640 C   0  0  0  0  0  0  0  0  0  0  0  0
    6.5540   -5.3960   22.2020 C   0  0  0  0  0  0  0  0  0  0  0  0
  1  2  1  0
  2  3  2  0
  2  4  1  0
  4  5  1  0
  5  6  1  0
  6  7  1  0
  7  8  1  0
  8  9  2  0
  8 10  1  0
 10 11  1  0
 11 12  1  1
 13 12  1  0
 13 14  1  0
 13 15  2  0
 13 16  2  0
 11 17  1  0
 17 18  1  0
 17 19  1  0
 17 20  1  0
  7 21  1  0
  4 22  1  0
 21 22  1  0
M  END
