piperidine-amides-30577-covalent
     RDKit          3D

 23 25  0  0  0  0  0  0  0  0999 V2000
    7.0920   -3.2670   19.2390 C   0  0  0  0  0  0  0  0  0  0  0  0
    6.3340   -4.0430   20.2240 C   0  0  0  0  0  0  0  0  0  0  0  0
    5.2510   -4.5330   19.8780 O   0  0  0  0  0  0  0  0  0  0  0  0
    6.8110   -4.3190   21.5180 N   0  0  0  0  0  0  0  0  0  0  0  0
    6.5280   -5.5690   22.1670 C   0  0  0  0  0  0  0  0  0  0  0  0
    5.7690   -5.1680   23.3920 C   0  0  0  0  0  0  0  0  0  0  0  0
    6.4810   -4.0780   24.1280 C   0  0  0  0  0  0  0  0  0  0  0  0
    5.8170   -3.7780   25.4280 C   0  0  0  0  0  0  0  0  0  0  0  0
    5.2660   -2.6580   25.6510 O   0  0  0  0  0  0  0  0  0  0  0  0
    5.7520   -4.7630   26.4560 N   0  0  0  0  0  0  0  0  0  0  0  0
    4.6690   -5.7050   26.5520 C   0  0  0  0  0  0  0  0  0  0  0  0
    4.8760   -5.6240   28.0070 C   0  0  0  0  0  0  0  0  0  0  0  0
    5.3910   -6.8860   28.5790 C   0  0  0  0  0  0  0  0  0  0  0  0
    4.7090   -7.2670   29.8650 C   0  0  0  0  0  0  0  0  0  0  0  0
    3.2250   -7.5380   29.7620 C   0  0  0  0  0  0  0  0  0  0  0  0
    2.5630   -7.9200   31.0290 C   0  0  0  0  0  0  0  0  0  0  0  0
    3.1970   -8.0360   32.2400 C   0  0  0  0  0  0  0  0  0  0  0  0
    4.5750   -7.7830   32.3320 C   0  0  0  0  0  0  0  0  0  0  0  0
    5.4230   -7.9610   34.0470 Br  0  0  0  0  0  0  0  0  0  0  0  0
    5.3220   -7.3870   31.0780 C   0  0  0  0  0  0  0  0  0  0  0  0
    5.9100   -4.5150   27.9020 C   0  0  0  0  0  0  0  0  0  0  0  0
    6.6520   -2.8780   23.1740 C   0  0  0  0  0  0  0  0  0  0  0  0
    7.4120   -3.2240   22.2930 C   0  0  0  0  0  0  0  0  0  0  0  0
  1  2  1  0
  2  3  2  0
  2  4  1  0
  4  5  1  0
  5  6  1  0
  6  7  1  0
  7  8  1  0
  8  9  2  0
  8 10  1  0
 10 11  1  0
 11 12  1  0
 12 13  1  0
 13 14  1  0
 14 15  2  0
 15 16  1  0
 16 17  2  0
 17 18  1  0
 18 19  1  0
 14 20  1  0
 18 20  2  0
 10 21  1  0
 12 21  1  0
  7 22  1  0
  4 23  1  0
 22 23  1  0
M  END
