piperidine-amides-28768-covalent
     RDKit          3D

 26 27  0  0  0  0  0  0  0  0999 V2000
    7.0770   -3.2810   19.2380 C   0  0  0  0  0  0  0  0  0  0  0  0
    6.3530   -4.0620   20.2470 C   0  0  0  0  0  0  0  0  0  0  0  0
    5.3010   -4.6220   19.9050 O   0  0  0  0  0  0  0  0  0  0  0  0
    6.8650   -4.2090   21.5580 N   0  0  0  0  0  0  0  0  0  0  0  0
    7.6780   -3.1510   22.1090 C   0  0  0  0  0  0  0  0  0  0  0  0
    7.6440   -3.1780   23.6110 C   0  0  0  0  0  0  0  0  0  0  0  0
    6.2690   -3.6580   24.0020 C   0  0  0  0  0  0  0  0  0  0  0  0
    6.0050   -3.4790   25.4680 C   0  0  0  0  0  0  0  0  0  0  0  0
    4.8190   -3.4770   25.7930 O   0  0  0  0  0  0  0  0  0  0  0  0
    7.0840   -3.3230   26.3500 N   0  0  0  0  0  0  0  0  0  0  0  0
    7.6290   -4.4030   27.1180 C   0  0  0  0  0  0  0  0  0  0  0  0
    6.7930   -5.5130   27.3430 C   0  0  0  0  0  0  0  0  0  0  0  0
    6.1070   -5.5530   28.3890 O   0  0  0  0  0  0  0  0  0  0  0  0
    7.2960   -1.9860   26.8910 C   0  0  0  0  0  0  0  0  0  0  0  0
    6.1300   -1.4500   27.4050 C   0  0  0  0  0  0  0  0  0  0  0  0
    6.1840   -1.3700   28.8810 C   0  0  0  0  0  0  0  0  0  0  0  0
    4.9960   -0.8060   29.6700 C   0  0  0  0  0  0  0  0  0  0  0  0
    3.8760   -0.3880   28.7830 C   0  0  0  0  0  0  0  0  0  0  0  0
    2.7420    0.1390   29.3570 O   0  0  0  0  0  0  0  0  0  0  0  0
    2.2940   -0.3180   30.6140 C   0  0  0  0  0  0  0  0  0  0  0  0
    3.9150   -0.4990   27.3950 C   0  0  0  0  0  0  0  0  0  0  0  0
    2.8060   -0.0740   26.6870 O   0  0  0  0  0  0  0  0  0  0  0  0
    2.3590   -0.8960   25.6230 C   0  0  0  0  0  0  0  0  0  0  0  0
    5.0160   -1.0180   26.7340 C   0  0  0  0  0  0  0  0  0  0  0  0
    6.0440   -5.0860   23.6420 C   0  0  0  0  0  0  0  0  0  0  0  0
    6.6280   -5.4170   22.3010 C   0  0  0  0  0  0  0  0  0  0  0  0
  1  2  1  0
  2  3  2  0
  2  4  1  0
  4  5  1  0
  5  6  1  0
  6  7  1  0
  7  8  1  0
  8  9  2  0
  8 10  1  0
 10 11  1  0
 11 12  1  0
 12 13  1  0
 10 14  1  0
 14 15  1  0
 15 16  2  0
 16 17  1  0
 17 18  2  0
 18 19  1  0
 19 20  1  0
 18 21  1  0
 21 22  1  0
 22 23  1  0
 15 24  1  0
 21 24  2  0
  7 25  1  0
  4 26  1  0
 25 26  1  0
M  END
