piperidine-amides-13325-covalent
     RDKit          3D

 25 28  0  0  0  0  0  0  0  0999 V2000
    7.1000   -3.2890   19.2090 C   0  0  0  0  0  0  0  0  0  0  0  0
    6.2920   -4.0100   20.2170 C   0  0  0  0  0  0  0  0  0  0  0  0
    5.2010   -4.4640   19.8360 O   0  0  0  0  0  0  0  0  0  0  0  0
    6.7600   -4.2260   21.5160 N   0  0  0  0  0  0  0  0  0  0  0  0
    7.5350   -3.2300   22.1710 C   0  0  0  0  0  0  0  0  0  0  0  0
    7.3370   -3.1160   23.6210 C   0  0  0  0  0  0  0  0  0  0  0  0
    6.5740   -4.1880   24.3110 C   0  0  0  0  0  0  0  0  0  0  0  0
    5.6430   -3.5820   25.2960 C   0  0  0  0  0  0  0  0  0  0  0  0
    4.6340   -2.9870   24.8650 O   0  0  0  0  0  0  0  0  0  0  0  0
    5.8630   -3.6690   26.6820 N   0  0  0  0  0  0  0  0  0  0  0  0
    5.2640   -2.6930   27.6230 C   0  0  0  0  0  0  0  0  0  0  0  0
    6.1610   -1.5400   27.7790 C   0  0  1  0  0  0  0  0  0  0  0  0
    5.5130   -0.2480   27.6900 C   0  0  0  0  0  0  0  0  0  0  0  0
    6.4160    0.7190   27.9860 C   0  0  1  0  0  0  0  0  0  0  0  0
    6.9000    0.6110   29.2660 C   0  0  0  0  0  0  0  0  0  0  0  0
    7.5690   -0.5850   29.3650 C   0  0  1  0  0  0  0  0  0  0  0  0
    6.7200   -1.6600   29.1960 C   0  0  0  0  0  0  0  0  0  0  0  0
    8.6090   -0.6700   28.4620 C   0  0  0  0  0  0  0  0  0  0  0  0
    8.2050   -0.4350   27.1520 C   0  0  2  0  0  0  0  0  0  0  0  0
    9.0040   -0.5250   26.2180 O   0  0  0  0  0  0  0  0  0  0  0  0
    8.8330   -1.3240   25.2080 C   0  0  0  0  0  0  0  0  0  0  0  0
    7.4050    0.6910   27.0370 C   0  0  0  0  0  0  0  0  0  0  0  0
    7.3180   -1.6010   26.9330 C   0  0  0  0  0  0  0  0  0  0  0  0
    5.8460   -5.1570   23.4700 C   0  0  0  0  0  0  0  0  0  0  0  0
    6.5680   -5.4870   22.1910 C   0  0  0  0  0  0  0  0  0  0  0  0
  1  2  1  0
  2  3  2  0
  2  4  1  0
  4  5  1  0
  5  6  1  0
  6  7  1  0
  7  8  1  0
  8  9  2  0
  8 10  1  0
 10 11  1  0
 12 11  1  6
 12 13  1  0
 14 13  1  6
 14 15  1  0
 16 15  1  6
 12 17  1  0
 16 17  1  0
 16 18  1  0
 18 19  1  0
 19 20  1  6
 20 21  1  0
 14 22  1  0
 19 22  1  0
 12 23  1  0
 19 23  1  0
  7 24  1  0
  4 25  1  0
 24 25  1  0
M  END
