piperidine-amides-13137-covalent
     RDKit          3D

 20 20  0  0  0  0  0  0  0  0999 V2000
    7.0910   -3.2940   19.1650 C   0  0  0  0  0  0  0  0  0  0  0  0
    6.3590   -4.0310   20.2200 C   0  0  0  0  0  0  0  0  0  0  0  0
    5.2840   -4.5630   19.8880 O   0  0  0  0  0  0  0  0  0  0  0  0
    6.8980   -4.1550   21.5100 N   0  0  0  0  0  0  0  0  0  0  0  0
    7.5250   -3.0280   22.1000 C   0  0  0  0  0  0  0  0  0  0  0  0
    6.9100   -2.6670   23.3660 C   0  0  0  0  0  0  0  0  0  0  0  0
    6.6170   -3.8380   24.2130 C   0  0  0  0  0  0  0  0  0  0  0  0
    5.8770   -3.3980   25.4160 C   0  0  0  0  0  0  0  0  0  0  0  0
    4.7380   -2.9120   25.2580 O   0  0  0  0  0  0  0  0  0  0  0  0
    6.4330   -3.5140   26.7060 N   0  0  0  0  0  0  0  0  0  0  0  0
    6.5670   -4.8030   27.4360 C   0  0  2  0  0  0  0  0  0  0  0  0
    7.1480   -4.5800   28.7650 C   0  0  0  0  0  0  0  0  0  0  0  0
    7.4200   -5.7510   26.7320 C   0  0  0  0  0  0  0  0  0  0  0  0
    8.5530   -5.9990   27.2500 O   0  0  0  0  0  0  0  0  0  0  0  0
    9.4800   -6.3460   26.2740 C   0  0  0  0  0  0  0  0  0  0  0  0
    5.3310   -5.5620   27.5180 C   0  0  0  0  0  0  0  0  0  0  0  0
    4.3110   -5.6380   26.5080 N   0  0  0  0  0  0  0  0  0  0  0  0
    5.0680   -6.3120   28.6740 O   0  0  0  0  0  0  0  0  0  0  0  0
    5.9550   -4.9590   23.4610 C   0  0  0  0  0  0  0  0  0  0  0  0
    6.6100   -5.3010   22.3090 C   0  0  0  0  0  0  0  0  0  0  0  0
  1  2  1  0
  2  3  2  0
  2  4  1  0
  4  5  1  0
  5  6  1  0
  6  7  1  0
  7  8  1  0
  8  9  2  0
  8 10  1  0
 10 11  1  0
 11 12  1  1
 11 13  1  0
 13 14  1  0
 14 15  1  0
 11 16  1  0
 16 17  1  0
 16 18  2  0
  7 19  1  0
  4 20  1  0
 19 20  1  0
M  END
