piperidine-amides-33733-covalent
     RDKit          3D

 30 33  0  0  0  0  0  0  0  0999 V2000
    7.0990   -3.3680   19.2990 C   0  0  0  0  0  0  0  0  0  0  0  0
    6.4530   -4.2030   20.3200 C   0  0  0  0  0  0  0  0  0  0  0  0
    5.4000   -4.7980   19.9790 O   0  0  0  0  0  0  0  0  0  0  0  0
    7.0420   -4.3730   21.6000 N   0  0  0  0  0  0  0  0  0  0  0  0
    6.5210   -5.3900   22.4310 C   0  0  0  0  0  0  0  0  0  0  0  0
    5.9670   -4.9110   23.7050 C   0  0  0  0  0  0  0  0  0  0  0  0
    6.5280   -3.6590   24.3110 C   0  0  0  0  0  0  0  0  0  0  0  0
    5.5860   -3.1090   25.3440 C   0  0  0  0  0  0  0  0  0  0  0  0
    4.6120   -2.4480   24.9550 O   0  0  0  0  0  0  0  0  0  0  0  0
    5.7450   -3.3250   26.7290 N   0  0  0  0  0  0  0  0  0  0  0  0
    4.8140   -2.9920   27.7090 C   0  0  0  0  0  0  0  0  0  0  0  0
    4.5900   -4.1220   28.6080 C   0  0  2  0  0  0  0  0  0  0  0  0
    3.8150   -3.5900   29.8550 C   0  0  0  0  0  0  0  0  0  0  0  0
    3.8820   -2.2140   29.9840 O   0  0  0  0  0  0  0  0  0  0  0  0
    3.1600   -4.6650   30.6330 N   0  0  0  0  0  0  0  0  0  0  0  0
    2.0810   -4.0970   31.3870 C   0  0  0  0  0  0  0  0  0  0  0  0
    1.6060   -5.3260   32.1670 C   0  0  0  0  0  0  0  0  0  0  0  0
    2.6520   -6.2570   32.4420 N   0  0  0  0  0  0  0  0  0  0  0  0
    3.8110   -5.9160   33.0490 C   0  0  0  0  0  0  0  0  0  0  0  0
    3.0380   -6.9720   31.2310 C   0  0  0  0  0  0  0  0  0  0  0  0
    2.8970   -5.9540   30.1200 C   0  0  0  0  0  0  0  0  0  0  0  0
    5.7360   -4.9020   28.8780 O   0  0  0  0  0  0  0  0  0  0  0  0
    6.4140   -5.6930   27.8840 C   0  0  0  0  0  0  0  0  0  0  0  0
    6.3480   -6.4490   29.1490 C   0  0  0  0  0  0  0  0  0  0  0  0
    5.6990   -5.6230   30.0860 C   0  0  0  0  0  0  0  0  0  0  0  0
    5.3160   -4.3630   29.6340 C   0  0  0  0  0  0  0  0  0  0  0  0
    5.5220   -3.8870   28.3110 C   0  0  0  0  0  0  0  0  0  0  0  0
    6.1850   -4.6130   27.1140 C   0  0  0  0  0  0  0  0  0  0  0  0
    6.9130   -2.6320   23.2980 C   0  0  0  0  0  0  0  0  0  0  0  0
    7.7100   -3.2570   22.1850 C   0  0  0  0  0  0  0  0  0  0  0  0
  1  2  1  0
  2  3  2  0
  2  4  1  0
  4  5  1  0
  5  6  1  0
  6  7  1  0
  7  8  1  0
  8  9  2  0
  8 10  1  0
 10 11  1  0
 11 12  1  0
 12 13  1  1
 13 14  2  0
 13 15  1  0
 15 16  1  0
 16 17  1  0
 17 18  1  0
 18 19  1  0
 18 20  1  0
 15 21  1  0
 20 21  1  0
 12 22  1  0
 22 23  1  0
 23 24  2  0
 24 25  1  0
 25 26  2  0
 26 27  1  0
 10 28  1  0
 23 28  1  0
 27 28  2  0
  7 29  1  0
  4 30  1  0
 29 30  1  0
M  END
