piperidine-amides-6264-covalent
     RDKit          3D

 26 28  0  0  0  0  0  0  0  0999 V2000
    7.1330   -3.0960   18.9730 C   0  0  0  0  0  0  0  0  0  0  0  0
    6.1520   -3.5710   19.9660 C   0  0  0  0  0  0  0  0  0  0  0  0
    5.1080   -4.1460   19.6220 O   0  0  0  0  0  0  0  0  0  0  0  0
    6.3220   -3.4470   21.3330 N   0  0  0  0  0  0  0  0  0  0  0  0
    7.2260   -2.4560   21.9170 C   0  0  0  0  0  0  0  0  0  0  0  0
    6.5850   -1.8320   23.1940 C   0  0  0  0  0  0  0  0  0  0  0  0
    5.9550   -2.9330   24.0470 C   0  0  0  0  0  0  0  0  0  0  0  0
    5.1760   -2.4440   25.2450 C   0  0  0  0  0  0  0  0  0  0  0  0
    3.9340   -2.4920   25.1110 O   0  0  0  0  0  0  0  0  0  0  0  0
    5.7250   -1.9540   26.5070 N   0  0  0  0  0  0  0  0  0  0  0  0
    6.7080   -2.6830   27.2900 C   0  0  0  0  0  0  0  0  0  0  0  0
    6.2530   -3.4390   28.5550 C   0  0  0  0  0  0  0  0  0  0  0  0
    6.7280   -4.7170   28.7120 C   0  0  0  0  0  0  0  0  0  0  0  0
    6.2710   -5.5860   27.7600 C   0  0  0  0  0  0  0  0  0  0  0  0
    5.4730   -4.8940   26.8080 N   0  0  0  0  0  0  0  0  0  0  0  0
    5.9520   -4.0170   25.8600 C   0  0  0  0  0  0  0  0  0  0  0  0
    6.2250   -4.6350   24.6710 C   0  0  0  0  0  0  0  0  0  0  0  0
    5.5150   -5.8500   24.2650 C   0  0  0  0  0  0  0  0  0  0  0  0
    6.2200   -6.0050   22.9620 C   0  0  0  0  0  0  0  0  0  0  0  0
    7.2700   -5.3510   22.1140 C   0  0  0  0  0  0  0  0  0  0  0  0
    7.8830   -4.0890   22.7140 C   0  0  0  0  0  0  0  0  0  0  0  0
    7.2160   -3.9770   23.9300 C   0  0  0  0  0  0  0  0  0  0  0  0
    4.3980   -4.3180   27.5420 C   0  0  0  0  0  0  0  0  0  0  0  0
    4.9180   -3.5010   28.6730 C   0  0  0  0  0  0  0  0  0  0  0  0
    4.9360   -3.7070   23.2150 C   0  0  0  0  0  0  0  0  0  0  0  0
    5.6950   -4.4570   22.1230 C   0  0  0  0  0  0  0  0  0  0  0  0
  1  2  1  0
  2  3  2  0
  2  4  1  0
  4  5  1  0
  5  6  1  0
  6  7  1  0
  7  8  1  0
  8  9  2  0
  8 10  1  0
 10 11  1  0
 11 12  1  0
 12 13  1  0
 13 14  1  0
 14 15  1  0
 15 16  1  0
 16 17  1  0
 17 18  2  0
 18 19  1  0
 19 20  2  0
 20 21  1  0
 17 22  1  0
 21 22  2  0
 15 23  1  0
 12 24  1  0
 23 24  1  0
  7 25  1  0
  4 26  1  0
 25 26  1  0
M  END
