piperidine-amides-9853-covalent
     RDKit          3D

 27 29  0  0  0  0  0  0  0  0999 V2000
    7.1100   -3.3310   19.2840 C   0  0  0  0  0  0  0  0  0  0  0  0
    6.3660   -4.0990   20.2780 C   0  0  0  0  0  0  0  0  0  0  0  0
    5.2820   -4.6170   19.9050 O   0  0  0  0  0  0  0  0  0  0  0  0
    6.9010   -4.2740   21.5480 N   0  0  0  0  0  0  0  0  0  0  0  0
    7.6790   -3.2210   22.1510 C   0  0  0  0  0  0  0  0  0  0  0  0
    6.8940   -2.6980   23.3120 C   0  0  0  0  0  0  0  0  0  0  0  0
    6.5240   -3.8060   24.2510 C   0  0  0  0  0  0  0  0  0  0  0  0
    5.8010   -3.2330   25.3980 C   0  0  0  0  0  0  0  0  0  0  0  0
    4.5580   -3.1060   25.3040 O   0  0  0  0  0  0  0  0  0  0  0  0
    6.4390   -2.8300   26.5810 N   0  0  0  0  0  0  0  0  0  0  0  0
    6.3250   -1.4700   27.0680 C   0  0  0  0  0  0  0  0  0  0  0  0
    5.6630   -0.3330   26.3280 C   0  0  0  0  0  0  0  0  0  0  0  0
    5.4830    1.0040   26.7030 C   0  0  0  0  0  0  0  0  0  0  0  0
    4.8630    2.0120   25.9930 C   0  0  0  0  0  0  0  0  0  0  0  0
    3.9260    1.7430   25.0130 C   0  0  0  0  0  0  0  0  0  0  0  0
    3.2970    2.7440   24.2910 C   0  0  0  0  0  0  0  0  0  0  0  0
    3.5470    4.0840   24.4880 C   0  0  0  0  0  0  0  0  0  0  0  0
    2.8370    5.1430   23.6730 C   0  0  0  0  0  0  0  0  0  0  0  0
    2.1060    6.1790   24.3410 N   0  0  0  0  0  0  0  0  0  0  0  0
    4.4630    4.4180   25.4470 C   0  0  0  0  0  0  0  0  0  0  0  0
    5.1640    3.3320   26.2480 C   0  0  0  0  0  0  0  0  0  0  0  0
    6.0860    1.2740   28.0970 C   0  0  0  0  0  0  0  0  0  0  0  0
    6.7200    0.3530   28.8900 C   0  0  0  0  0  0  0  0  0  0  0  0
    6.8240   -1.0150   28.3440 C   0  0  0  0  0  0  0  0  0  0  0  0
    7.5170   -1.9060   29.2920 C   0  0  0  0  0  0  0  0  0  0  0  0
    5.7860   -4.9040   23.5620 C   0  0  0  0  0  0  0  0  0  0  0  0
    6.4500   -5.3790   22.3300 C   0  0  0  0  0  0  0  0  0  0  0  0
  1  2  1  0
  2  3  2  0
  2  4  1  0
  4  5  1  0
  5  6  1  0
  6  7  1  0
  7  8  1  0
  8  9  2  0
  8 10  1  0
 10 11  1  0
 11 12  2  0
 12 13  1  0
 13 14  1  0
 14 15  2  0
 15 16  1  0
 16 17  2  0
 17 18  1  0
 18 19  3  0
 17 20  1  0
 14 21  1  0
 20 21  2  0
 13 22  2  0
 22 23  1  0
 11 24  1  0
 23 24  2  0
 24 25  1  0
  7 26  1  0
  4 27  1  0
 26 27  1  0
M  END
