piperidine-amides-29794-covalent
     RDKit          3D

 25 26  0  0  0  0  0  0  0  0999 V2000
    7.1240   -3.2850   19.1430 C   0  0  0  0  0  0  0  0  0  0  0  0
    6.2090   -3.9440   20.0830 C   0  0  0  0  0  0  0  0  0  0  0  0
    5.1110   -4.3390   19.7410 O   0  0  0  0  0  0  0  0  0  0  0  0
    6.5940   -4.1790   21.4200 N   0  0  0  0  0  0  0  0  0  0  0  0
    7.4270   -3.2190   22.0610 C   0  0  0  0  0  0  0  0  0  0  0  0
    6.7680   -2.7830   23.3150 C   0  0  0  0  0  0  0  0  0  0  0  0
    6.4370   -4.0630   24.0460 C   0  0  0  0  0  0  0  0  0  0  0  0
    5.9510   -3.7190   25.3890 C   0  0  0  0  0  0  0  0  0  0  0  0
    4.7530   -3.7670   25.7390 O   0  0  0  0  0  0  0  0  0  0  0  0
    6.9490   -3.2810   26.2770 N   0  0  0  0  0  0  0  0  0  0  0  0
    7.2250   -1.8800   26.1330 C   0  0  0  0  0  0  0  0  0  0  0  0
    7.9490   -4.2720   26.6830 C   0  0  0  0  0  0  0  0  0  0  0  0
    9.0900   -4.5400   25.9040 C   0  0  1  0  0  0  0  0  0  0  0  0
    8.9590   -5.2420   24.8820 O   0  0  0  0  0  0  0  0  0  0  0  0
   10.2020   -3.6650   25.7550 C   0  0  0  0  0  0  0  0  0  0  0  0
   10.4430   -2.9700   24.5320 N   0  0  0  0  0  0  0  0  0  0  0  0
    9.8240   -3.4260   23.3910 C   0  0  0  0  0  0  0  0  0  0  0  0
   10.1650   -2.5940   22.2640 C   0  0  0  0  0  0  0  0  0  0  0  0
   11.6080   -1.8020   21.9110 S   0  0  0  0  0  0  0  0  0  0  0  0
   12.1190   -1.5050   23.4960 C   0  0  0  0  0  0  0  0  0  0  0  0
   13.0700   -2.4480   23.7870 C   0  0  0  0  0  0  0  0  0  0  0  0
   12.7180   -0.1380   23.6640 C   0  0  0  0  0  0  0  0  0  0  0  0
   10.9480   -1.6900   24.4500 C   0  0  0  0  0  0  0  0  0  0  0  0
    5.4950   -4.9530   23.2620 C   0  0  0  0  0  0  0  0  0  0  0  0
    6.1670   -5.3670   22.1160 C   0  0  0  0  0  0  0  0  0  0  0  0
  1  2  1  0
  2  3  2  0
  2  4  1  0
  4  5  1  0
  5  6  1  0
  6  7  1  0
  7  8  1  0
  8  9  2  0
  8 10  1  0
 10 11  1  0
 10 12  1  0
 12 13  1  0
 13 14  1  6
 13 15  1  0
 15 16  1  0
 16 17  1  0
 17 18  1  0
 18 19  1  0
 19 20  1  0
 20 21  1  0
 20 22  1  0
 16 23  1  0
 20 23  1  0
  7 24  1  0
  4 25  1  0
 24 25  1  0
M  END
