piperidine-amides-33684-covalent
     RDKit          3D

 30 32  0  0  0  0  0  0  0  0999 V2000
    7.1360   -3.2750   19.2250 C   0  0  0  0  0  0  0  0  0  0  0  0
    6.3780   -4.0710   20.2040 C   0  0  0  0  0  0  0  0  0  0  0  0
    5.2580   -4.4980   19.8560 O   0  0  0  0  0  0  0  0  0  0  0  0
    6.9130   -4.4020   21.4620 N   0  0  0  0  0  0  0  0  0  0  0  0
    7.5200   -3.3250   22.1770 C   0  0  0  0  0  0  0  0  0  0  0  0
    6.6820   -2.7790   23.2380 C   0  0  0  0  0  0  0  0  0  0  0  0
    6.1270   -3.8160   24.1280 C   0  0  0  0  0  0  0  0  0  0  0  0
    5.2830   -3.2550   25.2330 C   0  0  0  0  0  0  0  0  0  0  0  0
    4.1230   -2.8620   25.0080 O   0  0  0  0  0  0  0  0  0  0  0  0
    5.8160   -3.1880   26.5320 N   0  0  0  0  0  0  0  0  0  0  0  0
    6.4220   -4.3720   27.0780 C   0  0  1  0  0  0  0  0  0  0  0  0
    5.9000   -5.1010   28.2250 C   0  0  0  0  0  0  0  0  0  0  0  0
    6.4350   -5.4500   26.0030 C   0  0  0  0  0  0  0  0  0  0  0  0
    7.4020   -5.3310   25.0210 C   0  0  0  0  0  0  0  0  0  0  0  0
    7.8510   -4.4690   26.1280 C   0  0  0  0  0  0  0  0  0  0  0  0
    7.7560   -3.0480   25.6650 C   0  0  0  0  0  0  0  0  0  0  0  0
    8.2010   -2.2390   26.8890 C   0  0  0  0  0  0  0  0  0  0  0  0
    8.6520   -2.6820   28.2510 C   0  0  0  0  0  0  0  0  0  0  0  0
    8.6810   -4.1550   28.4900 C   0  0  0  0  0  0  0  0  0  0  0  0
    8.2670   -5.0690   27.4040 C   0  0  0  0  0  0  0  0  0  0  0  0
    6.2380   -1.8220   26.9310 C   0  0  2  0  0  0  0  0  0  0  0  0
    6.2750   -1.8020   28.3310 C   0  0  0  0  0  0  0  0  0  0  0  0
    6.9730   -0.8170   29.0190 C   0  0  0  0  0  0  0  0  0  0  0  0
    6.3210    0.5490   29.0270 C   0  0  0  0  0  0  0  0  0  0  0  0
    5.8580    1.0440   27.8160 C   0  0  0  0  0  0  0  0  0  0  0  0
    4.9560    0.3250   27.1860 N   0  0  0  0  0  0  0  0  0  0  0  0
    5.3660   -0.8210   26.4550 C   0  0  0  0  0  0  0  0  0  0  0  0
    4.7960   -0.8710   25.1550 O   0  0  0  0  0  0  0  0  0  0  0  0
    5.4700   -4.8890   23.3560 C   0  0  0  0  0  0  0  0  0  0  0  0
    6.2980   -5.4270   22.2550 C   0  0  0  0  0  0  0  0  0  0  0  0
  1  2  1  0
  2  3  2  0
  2  4  1  0
  4  5  1  0
  5  6  1  0
  6  7  1  0
  7  8  1  0
  8  9  2  0
  8 10  1  0
 10 11  1  0
 11 12  1  1
 11 13  1  0
 13 14  1  0
 14 15  1  0
 15 16  2  0
 16 17  1  0
 17 18  2  0
 18 19  1  0
 15 20  1  0
 19 20  2  0
 21 10  1  1
 21 22  1  0
 22 23  1  0
 23 24  1  0
 24 25  1  0
 25 26  1  0
 21 27  1  0
 26 27  1  0
 27 28  2  0
  7 29  1  0
  4 30  1  0
 29 30  1  0
M  END
