piperidine-amides-25411-covalent
     RDKit          3D

 25 27  0  0  0  0  0  0  0  0999 V2000
    7.1310   -3.3460   19.2810 C   0  0  0  0  0  0  0  0  0  0  0  0
    6.3880   -4.1440   20.2800 C   0  0  0  0  0  0  0  0  0  0  0  0
    5.3220   -4.6370   19.9210 O   0  0  0  0  0  0  0  0  0  0  0  0
    6.9410   -4.3550   21.5440 N   0  0  0  0  0  0  0  0  0  0  0  0
    6.5180   -5.4620   22.3430 C   0  0  0  0  0  0  0  0  0  0  0  0
    5.7390   -4.9150   23.5090 C   0  0  0  0  0  0  0  0  0  0  0  0
    6.5720   -3.8590   24.2520 C   0  0  0  0  0  0  0  0  0  0  0  0
    5.7510   -3.3180   25.3570 C   0  0  0  0  0  0  0  0  0  0  0  0
    5.0300   -2.3380   25.1470 O   0  0  0  0  0  0  0  0  0  0  0  0
    5.7390   -3.8990   26.6300 N   0  0  0  0  0  0  0  0  0  0  0  0
    6.3120   -3.2450   27.7490 C   0  0  0  0  0  0  0  0  0  0  0  0
    6.6970   -4.4430   28.5660 C   0  0  0  0  0  0  0  0  0  0  0  0
    5.8460   -5.1780   29.2880 C   0  0  0  0  0  0  0  0  0  0  0  0
    4.7410   -4.6980   29.9070 C   0  0  0  0  0  0  0  0  0  0  0  0
    4.2710   -5.6090   30.8240 C   0  0  0  0  0  0  0  0  0  0  0  0
    2.8580   -5.5180   31.4190 C   0  0  0  0  0  0  0  0  0  0  0  0
    2.5000   -6.6000   32.4110 C   0  0  0  0  0  0  0  0  0  0  0  0
    3.5010   -7.6550   32.7480 C   0  0  0  0  0  0  0  0  0  0  0  0
    3.0160   -8.6610   33.7370 C   0  0  0  0  0  0  0  0  0  0  0  0
    4.8780   -7.7660   32.1910 C   0  0  0  0  0  0  0  0  0  0  0  0
    5.2530   -6.7020   31.1970 C   0  0  0  0  0  0  0  0  0  0  0  0
    5.1480   -5.7460   28.0630 C   0  0  0  0  0  0  0  0  0  0  0  0
    4.6300   -4.6050   27.2040 C   0  0  0  0  0  0  0  0  0  0  0  0
    6.9350   -2.7370   23.3260 C   0  0  0  0  0  0  0  0  0  0  0  0
    7.6630   -3.2620   22.1290 C   0  0  0  0  0  0  0  0  0  0  0  0
  1  2  1  0
  2  3  2  0
  2  4  1  0
  4  5  1  0
  5  6  1  0
  6  7  1  0
  7  8  1  0
  8  9  2  0
  8 10  1  0
 10 11  1  0
 11 12  1  0
 12 13  1  0
 13 14  1  0
 14 15  1  0
 15 16  2  0
 16 17  1  0
 17 18  2  0
 18 19  1  0
 18 20  1  0
 15 21  1  0
 20 21  2  0
 13 22  1  0
 10 23  1  0
 22 23  1  0
  7 24  1  0
  4 25  1  0
 24 25  1  0
M  END
