piperidine-amides-14187-covalent
     RDKit          3D

 24 26  0  0  0  0  0  0  0  0999 V2000
    7.0360   -3.3290   19.3470 C   0  0  0  0  0  0  0  0  0  0  0  0
    6.3610   -4.1860   20.3630 C   0  0  0  0  0  0  0  0  0  0  0  0
    5.4080   -4.8990   19.9970 O   0  0  0  0  0  0  0  0  0  0  0  0
    6.8370   -4.1980   21.7020 N   0  0  0  0  0  0  0  0  0  0  0  0
    7.7150   -3.1490   22.1960 C   0  0  0  0  0  0  0  0  0  0  0  0
    7.5240   -3.0550   23.7120 C   0  0  0  0  0  0  0  0  0  0  0  0
    6.1630   -3.5900   23.9600 C   0  0  0  0  0  0  0  0  0  0  0  0
    5.5930   -3.2720   25.2980 C   0  0  0  0  0  0  0  0  0  0  0  0
    4.3630   -3.3570   25.3790 O   0  0  0  0  0  0  0  0  0  0  0  0
    6.3950   -2.8960   26.3850 N   0  0  0  0  0  0  0  0  0  0  0  0
    6.7050   -1.5810   26.8490 C   0  0  2  0  0  0  0  0  0  0  0  0
    7.0560   -1.3810   28.1700 C   0  0  0  0  0  0  0  0  0  0  0  0
    6.4300   -0.2620   28.7190 C   0  0  0  0  0  0  0  0  0  0  0  0
    5.6100    0.2930   27.7640 C   0  0  2  0  0  0  0  0  0  0  0  0
    4.2160    0.6500   28.1520 C   0  0  0  0  0  0  0  0  0  0  0  0
    3.4510   -0.2710   28.8320 N   0  0  0  0  0  0  0  0  0  0  0  0
    2.2610    0.4740   28.9770 C   0  0  0  0  0  0  0  0  0  0  0  0
    1.0490   -0.1300   29.6920 C   0  0  0  0  0  0  0  0  0  0  0  0
    0.3150   -0.9810   28.8880 C   0  0  0  0  0  0  0  0  0  0  0  0
    2.3830    1.7100   28.4150 N   0  0  0  0  0  0  0  0  0  0  0  0
    3.6090    1.8140   27.8990 O   0  0  0  0  0  0  0  0  0  0  0  0
    5.7340   -0.4960   26.6370 C   0  0  0  0  0  0  0  0  0  0  0  0
    6.0180   -5.0550   23.6830 C   0  0  0  0  0  0  0  0  0  0  0  0
    6.6830   -5.3750   22.5180 C   0  0  0  0  0  0  0  0  0  0  0  0
  1  2  1  0
  2  3  2  0
  2  4  1  0
  4  5  1  0
  5  6  1  0
  6  7  1  0
  7  8  1  0
  8  9  2  0
  8 10  1  0
 11 10  1  1
 11 12  1  0
 12 13  1  0
 13 14  1  0
 14 15  1  1
 15 16  2  0
 16 17  1  0
 17 18  1  0
 18 19  1  0
 17 20  2  0
 15 21  1  0
 20 21  1  0
 11 22  1  0
 14 22  1  0
  7 23  1  0
  4 24  1  0
 23 24  1  0
M  END
