piperidine-amides-4294-covalent
     RDKit          3D

 26 27  0  0  0  0  0  0  0  0999 V2000
    7.0460   -3.1720   19.1100 C   0  0  0  0  0  0  0  0  0  0  0  0
    6.2140   -3.8420   20.1310 C   0  0  0  0  0  0  0  0  0  0  0  0
    5.1460   -4.3710   19.7670 O   0  0  0  0  0  0  0  0  0  0  0  0
    6.5940   -3.9300   21.4750 N   0  0  0  0  0  0  0  0  0  0  0  0
    7.3350   -2.8750   22.0450 C   0  0  0  0  0  0  0  0  0  0  0  0
    6.8230   -2.4260   23.3310 C   0  0  0  0  0  0  0  0  0  0  0  0
    5.6520   -3.1620   23.8770 C   0  0  0  0  0  0  0  0  0  0  0  0
    5.7030   -3.2770   25.3800 C   0  0  0  0  0  0  0  0  0  0  0  0
    4.6200   -3.2980   26.0000 O   0  0  0  0  0  0  0  0  0  0  0  0
    6.9080   -3.3500   26.1250 N   0  0  0  0  0  0  0  0  0  0  0  0
    7.4130   -4.4260   26.9060 C   0  0  0  0  0  0  0  0  0  0  0  0
    8.6280   -5.1510   26.5150 C   0  0  0  0  0  0  0  0  0  0  0  0
    9.1870   -4.3480   25.3340 C   0  0  0  0  0  0  0  0  0  0  0  0
    8.8150   -3.9060   24.1370 C   0  0  0  0  0  0  0  0  0  0  0  0
    7.5780   -4.2330   23.7060 O   0  0  0  0  0  0  0  0  0  0  0  0
    7.4780   -5.6100   23.8240 C   0  0  0  0  0  0  0  0  0  0  0  0
    9.8230   -3.0640   23.3210 C   0  0  0  0  0  0  0  0  0  0  0  0
   11.2040   -2.8480   23.9880 C   0  0  0  0  0  0  0  0  0  0  0  0
   12.1190   -2.2060   23.4610 O   0  0  0  0  0  0  0  0  0  0  0  0
   13.4640   -2.3150   23.9350 C   0  0  0  0  0  0  0  0  0  0  0  0
   11.5530   -3.4240   25.3580 C   0  0  0  0  0  0  0  0  0  0  0  0
   10.4460   -4.2050   26.0460 C   0  0  0  0  0  0  0  0  0  0  0  0
   10.6960   -4.7210   27.2700 O   0  0  0  0  0  0  0  0  0  0  0  0
    9.5860   -4.9770   28.0250 C   0  0  0  0  0  0  0  0  0  0  0  0
    5.2160   -4.4810   23.2490 C   0  0  0  0  0  0  0  0  0  0  0  0
    6.0860   -4.9880   22.2820 C   0  0  0  0  0  0  0  0  0  0  0  0
  1  2  1  0
  2  3  2  0
  2  4  1  0
  4  5  1  0
  5  6  1  0
  6  7  1  0
  7  8  1  0
  8  9  2  0
  8 10  1  0
 10 11  1  0
 11 12  1  0
 12 13  1  0
 13 14  2  0
 14 15  1  0
 15 16  1  0
 14 17  1  0
 17 18  2  0
 18 19  1  0
 19 20  1  0
 18 21  1  0
 13 22  1  0
 21 22  2  0
 22 23  1  0
 23 24  1  0
  7 25  1  0
  4 26  1  0
 25 26  1  0
M  END
