piperidine-amides-8183-covalent
     RDKit          3D

 25 27  0  0  0  0  0  0  0  0999 V2000
    7.0380   -3.2980   19.2890 C   0  0  0  0  0  0  0  0  0  0  0  0
    6.3480   -4.0950   20.3080 C   0  0  0  0  0  0  0  0  0  0  0  0
    5.3520   -4.7500   19.9490 O   0  0  0  0  0  0  0  0  0  0  0  0
    6.8090   -4.1520   21.6520 N   0  0  0  0  0  0  0  0  0  0  0  0
    7.7140   -3.1450   22.1470 C   0  0  0  0  0  0  0  0  0  0  0  0
    7.4770   -2.9840   23.6110 C   0  0  0  0  0  0  0  0  0  0  0  0
    6.0970   -3.5450   23.8220 C   0  0  0  0  0  0  0  0  0  0  0  0
    5.5960   -3.3030   25.2130 C   0  0  0  0  0  0  0  0  0  0  0  0
    4.3870   -3.4260   25.3740 O   0  0  0  0  0  0  0  0  0  0  0  0
    6.4980   -2.9550   26.2110 N   0  0  0  0  0  0  0  0  0  0  0  0
    6.5790   -1.6290   26.7110 C   0  0  0  0  0  0  0  0  0  0  0  0
    6.1800   -1.4660   28.0480 C   0  0  0  0  0  0  0  0  0  0  0  0
    4.9750   -1.6100   28.6450 C   0  0  0  0  0  0  0  0  0  0  0  0
    5.2270   -1.2980   29.9710 N   0  0  0  0  0  0  0  0  0  0  0  0
    4.2280   -1.3110   30.9710 C   0  0  0  0  0  0  0  0  0  0  0  0
    4.1400   -0.0720   31.8040 C   0  0  0  0  0  0  0  0  0  0  0  0
    3.0710   -0.0180   32.9110 C   0  0  0  0  0  0  0  0  0  0  0  0
    2.1630   -1.1630   33.1340 C   0  0  0  0  0  0  0  0  0  0  0  0
    2.2750   -2.3960   32.2820 C   0  0  0  0  0  0  0  0  0  0  0  0
    3.3690   -2.4030   31.1770 C   0  0  0  0  0  0  0  0  0  0  0  0
    3.5090   -3.9730   30.0840 Br  0  0  0  0  0  0  0  0  0  0  0  0
    6.4660   -0.9730   30.2780 N   0  0  0  0  0  0  0  0  0  0  0  0
    7.1290   -1.0610   29.0980 N   0  0  0  0  0  0  0  0  0  0  0  0
    6.1180   -5.0470   23.6210 C   0  0  0  0  0  0  0  0  0  0  0  0
    6.6780   -5.3820   22.3990 C   0  0  0  0  0  0  0  0  0  0  0  0
  1  2  1  0
  2  3  2  0
  2  4  1  0
  4  5  1  0
  5  6  1  0
  6  7  1  0
  7  8  1  0
  8  9  2  0
  8 10  1  0
 10 11  1  0
 11 12  1  0
 12 13  2  0
 13 14  1  0
 14 15  1  0
 15 16  2  0
 16 17  1  0
 17 18  2  0
 18 19  1  0
 15 20  1  0
 19 20  2  0
 20 21  1  0
 14 22  1  0
 12 23  1  0
 22 23  2  0
  7 24  1  0
  4 25  1  0
 24 25  1  0
M  END
