piperidine-amides-7370-covalent
     RDKit          3D

 20 20  0  0  0  0  0  0  0  0999 V2000
    7.0710   -3.2780   19.2360 C   0  0  0  0  0  0  0  0  0  0  0  0
    6.3400   -4.0300   20.2660 C   0  0  0  0  0  0  0  0  0  0  0  0
    5.2850   -4.6010   19.9000 O   0  0  0  0  0  0  0  0  0  0  0  0
    6.8310   -4.1270   21.5750 N   0  0  0  0  0  0  0  0  0  0  0  0
    7.7210   -3.1280   22.1290 C   0  0  0  0  0  0  0  0  0  0  0  0
    7.4030   -2.9750   23.5870 C   0  0  0  0  0  0  0  0  0  0  0  0
    6.0090   -3.4490   23.9000 C   0  0  0  0  0  0  0  0  0  0  0  0
    5.6350   -3.1800   25.3090 C   0  0  0  0  0  0  0  0  0  0  0  0
    4.4300   -3.2960   25.6180 O   0  0  0  0  0  0  0  0  0  0  0  0
    6.5480   -2.7970   26.3160 N   0  0  0  0  0  0  0  0  0  0  0  0
    6.7370   -3.6060   27.4940 C   0  0  0  0  0  0  0  0  0  0  0  0
    7.9340   -4.5050   27.3340 C   0  0  0  0  0  0  0  0  0  0  0  0
    8.3190   -5.3520   28.3190 C   0  0  0  0  0  0  0  0  0  0  0  0
    7.5280   -5.4480   26.2520 C   0  0  0  0  0  0  0  0  0  0  0  0
    8.9660   -3.8950   26.9900 O   0  0  0  0  0  0  0  0  0  0  0  0
    9.9880   -4.3120   26.3380 C   0  0  0  0  0  0  0  0  0  0  0  0
   10.4430   -3.5600   25.2710 C   0  0  0  0  0  0  0  0  0  0  0  0
    9.8340   -5.6040   25.9980 C   0  0  0  0  0  0  0  0  0  0  0  0
    5.8510   -4.9550   23.6160 C   0  0  0  0  0  0  0  0  0  0  0  0
    6.5870   -5.3280   22.3270 C   0  0  0  0  0  0  0  0  0  0  0  0
  1  2  1  0
  2  3  2  0
  2  4  1  0
  4  5  1  0
  5  6  1  0
  6  7  1  0
  7  8  1  0
  8  9  2  0
  8 10  1  0
 10 11  1  0
 11 12  1  0
 12 13  1  0
 12 14  1  0
 12 15  1  0
 15 16  1  0
 16 17  1  0
 16 18  1  0
  7 19  1  0
  4 20  1  0
 19 20  1  0
M  END
