piperidine-amides-2729-covalent
     RDKit          3D

 25 26  0  0  0  0  0  0  0  0999 V2000
    7.1010   -3.1940   19.1220 C   0  0  0  0  0  0  0  0  0  0  0  0
    6.2890   -3.8330   20.1490 C   0  0  0  0  0  0  0  0  0  0  0  0
    5.2550   -4.4200   19.8320 O   0  0  0  0  0  0  0  0  0  0  0  0
    6.6720   -3.8450   21.5320 N   0  0  0  0  0  0  0  0  0  0  0  0
    5.9270   -4.6990   22.3660 C   0  0  0  0  0  0  0  0  0  0  0  0
    4.9710   -3.8760   23.1770 C   0  0  0  0  0  0  0  0  0  0  0  0
    5.7100   -2.7950   23.9570 C   0  0  0  0  0  0  0  0  0  0  0  0
    5.5020   -3.0140   25.4430 C   0  0  0  0  0  0  0  0  0  0  0  0
    4.3540   -3.1930   25.8900 O   0  0  0  0  0  0  0  0  0  0  0  0
    6.5810   -2.9940   26.3830 N   0  0  0  0  0  0  0  0  0  0  0  0
    6.5910   -3.8090   27.6190 C   0  0  0  0  0  0  0  0  0  0  0  0
    5.2210   -4.1410   28.1690 C   0  0  0  0  0  0  0  0  0  0  0  0
    4.7640   -5.3350   27.6640 O   0  0  0  0  0  0  0  0  0  0  0  0
    5.0490   -5.6340   26.3970 C   0  0  0  0  0  0  0  0  0  0  0  0
    6.3570   -5.2280   25.9580 N   0  0  0  0  0  0  0  0  0  0  0  0
    6.7160   -5.4880   24.6000 C   0  0  0  0  0  0  0  0  0  0  0  0
    5.8240   -6.1120   23.7610 C   0  0  0  0  0  0  0  0  0  0  0  0
    6.3200   -6.4310   21.9880 Br  0  0  0  0  0  0  0  0  0  0  0  0
    4.5440   -6.4890   24.3080 C   0  0  0  0  0  0  0  0  0  0  0  0
    4.1510   -6.2660   25.5800 C   0  0  0  0  0  0  0  0  0  0  0  0
    2.8740   -6.7010   25.8880 N   0  0  0  0  0  0  0  0  0  0  0  0
    1.9550   -6.5030   25.0810 O   0  0  0  0  0  0  0  0  0  0  0  0
    2.5360   -7.0090   27.1740 O   0  0  0  0  0  0  0  0  0  0  0  0
    7.1750   -2.7200   23.5110 C   0  0  0  0  0  0  0  0  0  0  0  0
    7.2750   -2.6620   22.1040 C   0  0  0  0  0  0  0  0  0  0  0  0
  1  2  1  0
  2  3  2  0
  2  4  1  0
  4  5  1  0
  5  6  1  0
  6  7  1  0
  7  8  1  0
  8  9  2  0
  8 10  1  0
 10 11  1  0
 11 12  1  0
 12 13  1  0
 13 14  1  0
 14 15  2  0
 15 16  1  0
 16 17  2  0
 17 18  1  0
 17 19  1  0
 14 20  1  0
 19 20  2  0
 20 21  1  0
 21 22  2  0
 21 23  1  0
  7 24  1  0
  4 25  1  0
 24 25  1  0
M  CHG  2  21   1  23  -1
M  END
