piperidine-amides-34380-covalent
     RDKit          3D

 30 33  0  0  0  0  0  0  0  0999 V2000
    7.0930   -3.3460   19.2970 C   0  0  0  0  0  0  0  0  0  0  0  0
    6.4310   -4.1910   20.3020 C   0  0  0  0  0  0  0  0  0  0  0  0
    5.4030   -4.8360   19.9890 O   0  0  0  0  0  0  0  0  0  0  0  0
    6.9860   -4.3230   21.5900 N   0  0  0  0  0  0  0  0  0  0  0  0
    7.8050   -3.2690   22.1340 C   0  0  0  0  0  0  0  0  0  0  0  0
    6.9370   -2.5760   23.1650 C   0  0  0  0  0  0  0  0  0  0  0  0
    6.6230   -3.6280   24.1980 C   0  0  0  0  0  0  0  0  0  0  0  0
    5.7300   -3.0100   25.1890 C   0  0  0  0  0  0  0  0  0  0  0  0
    4.6650   -2.5370   24.7520 O   0  0  0  0  0  0  0  0  0  0  0  0
    6.0420   -2.9380   26.5730 N   0  0  0  0  0  0  0  0  0  0  0  0
    5.6350   -4.0890   27.3520 C   0  0  0  0  0  0  0  0  0  0  0  0
    6.5080   -4.6480   28.4810 C   0  0  0  0  0  0  0  0  0  0  0  0
    6.1320   -5.7520   29.2190 C   0  0  0  0  0  0  0  0  0  0  0  0
    4.9280   -6.4460   29.0020 N   0  0  0  0  0  0  0  0  0  0  0  0
    4.1330   -5.9480   27.9860 C   0  0  0  0  0  0  0  0  0  0  0  0
    2.9520   -6.6000   27.7450 C   0  0  0  0  0  0  0  0  0  0  0  0
    2.0590   -6.1990   26.7520 C   0  0  0  0  0  0  0  0  0  0  0  0
    0.6120   -7.1800   26.6180 Cl  0  0  0  0  0  0  0  0  0  0  0  0
    2.1480   -5.0160   25.7430 C   0  0  0  0  0  0  0  0  0  0  0  0
    3.4940   -4.4160   26.1460 C   0  0  0  0  0  0  0  0  0  0  0  0
    4.3760   -4.9150   27.2190 C   0  0  0  0  0  0  0  0  0  0  0  0
    5.9880   -1.7250   27.3910 C   0  0  2  0  0  0  0  0  0  0  0  0
    5.8130   -0.5410   26.6630 C   0  0  0  0  0  0  0  0  0  0  0  0
    5.9250    0.5940   27.4310 C   0  0  0  0  0  0  0  0  0  0  0  0
    5.9660    0.3780   28.9310 C   0  0  2  0  0  0  0  0  0  0  0  0
    6.4740    1.5100   29.8010 C   0  0  0  0  0  0  0  0  0  0  0  0
    6.7890   -0.6650   29.2990 C   0  0  0  0  0  0  0  0  0  0  0  0
    7.0290   -1.5690   28.2940 C   0  0  0  0  0  0  0  0  0  0  0  0
    5.9470   -4.8600   23.6450 C   0  0  0  0  0  0  0  0  0  0  0  0
    6.5500   -5.3380   22.4910 C   0  0  0  0  0  0  0  0  0  0  0  0
  1  2  1  0
  2  3  2  0
  2  4  1  0
  4  5  1  0
  5  6  1  0
  6  7  1  0
  7  8  1  0
  8  9  2  0
  8 10  1  0
 10 11  1  0
 11 12  2  0
 12 13  1  0
 13 14  2  0
 14 15  1  0
 15 16  1  0
 16 17  2  0
 17 18  1  0
 17 19  1  0
 19 20  2  0
 11 21  1  0
 15 21  2  0
 20 21  1  0
 22 10  1  6
 22 23  1  0
 23 24  1  0
 24 25  1  0
 25 26  1  1
 25 27  1  0
 22 28  1  0
 27 28  1  0
  7 29  1  0
  4 30  1  0
 29 30  1  0
M  END
