piperidine-amides-2695-covalent
     RDKit          3D

 25 27  0  0  0  0  0  0  0  0999 V2000
    7.0190   -3.3570   19.3130 C   0  0  0  0  0  0  0  0  0  0  0  0
    6.3410   -4.1800   20.3100 C   0  0  0  0  0  0  0  0  0  0  0  0
    5.3660   -4.8550   19.9830 O   0  0  0  0  0  0  0  0  0  0  0  0
    6.8330   -4.2410   21.6570 N   0  0  0  0  0  0  0  0  0  0  0  0
    6.6050   -5.4340   22.4410 C   0  0  0  0  0  0  0  0  0  0  0  0
    5.9110   -5.0660   23.7180 C   0  0  0  0  0  0  0  0  0  0  0  0
    6.0800   -3.5720   23.8680 C   0  0  0  0  0  0  0  0  0  0  0  0
    5.6860   -3.1050   25.2170 C   0  0  0  0  0  0  0  0  0  0  0  0
    4.5250   -3.1960   25.6600 O   0  0  0  0  0  0  0  0  0  0  0  0
    6.7140   -2.5430   25.9940 N   0  0  0  0  0  0  0  0  0  0  0  0
    6.4840   -1.4160   26.8700 C   0  0  0  0  0  0  0  0  0  0  0  0
    6.0390   -0.1450   26.1820 C   0  0  0  0  0  0  0  0  0  0  0  0
    5.8000    1.0100   26.9210 C   0  0  0  0  0  0  0  0  0  0  0  0
    5.3790    2.1690   26.1760 N   0  0  0  0  0  0  0  0  0  0  0  0
    4.5840    1.8660   25.0180 C   0  0  0  0  0  0  0  0  0  0  0  0
    3.8090    2.9430   24.6230 C   0  0  0  0  0  0  0  0  0  0  0  0
    3.7160    3.7300   25.8380 N   0  0  0  0  0  0  0  0  0  0  0  0
    4.8550    3.4240   26.5990 C   0  0  0  0  0  0  0  0  0  0  0  0
    5.3830    4.1200   27.5280 O   0  0  0  0  0  0  0  0  0  0  0  0
    5.9940    0.9210   28.2770 C   0  0  0  0  0  0  0  0  0  0  0  0
    6.3930   -0.2390   28.8770 C   0  0  0  0  0  0  0  0  0  0  0  0
    6.6380   -1.4100   28.2020 C   0  0  0  0  0  0  0  0  0  0  0  0
    7.0460   -2.5760   28.9230 C   0  0  0  0  0  0  0  0  0  0  0  0
    7.4970   -3.1410   23.5540 C   0  0  0  0  0  0  0  0  0  0  0  0
    7.6500   -3.1650   22.1760 C   0  0  0  0  0  0  0  0  0  0  0  0
  1  2  1  0
  2  3  2  0
  2  4  1  0
  4  5  1  0
  5  6  1  0
  6  7  1  0
  7  8  1  0
  8  9  2  0
  8 10  1  0
 10 11  1  0
 11 12  2  0
 12 13  1  0
 13 14  1  0
 14 15  1  0
 15 16  1  0
 16 17  1  0
 14 18  1  0
 17 18  1  0
 18 19  2  0
 13 20  2  0
 20 21  1  0
 11 22  1  0
 21 22  2  0
 22 23  1  0
  7 24  1  0
  4 25  1  0
 24 25  1  0
M  END
