piperidine-amides-26101-covalent
     RDKit          3D

 25 27  0  0  0  0  0  0  0  0999 V2000
    7.0690   -3.3970   19.4580 C   0  0  0  0  0  0  0  0  0  0  0  0
    6.3750   -4.2650   20.4070 C   0  0  0  0  0  0  0  0  0  0  0  0
    5.3870   -4.9020   20.0030 O   0  0  0  0  0  0  0  0  0  0  0  0
    6.8320   -4.4370   21.7320 N   0  0  0  0  0  0  0  0  0  0  0  0
    6.7030   -5.6960   22.4370 C   0  0  0  0  0  0  0  0  0  0  0  0
    6.1540   -5.3190   23.7860 C   0  0  0  0  0  0  0  0  0  0  0  0
    6.1110   -3.8380   23.8750 C   0  0  0  0  0  0  0  0  0  0  0  0
    5.5100   -3.2670   25.1160 C   0  0  0  0  0  0  0  0  0  0  0  0
    4.8290   -2.2150   25.0220 O   0  0  0  0  0  0  0  0  0  0  0  0
    5.5930   -3.7930   26.4200 N   0  0  0  0  0  0  0  0  0  0  0  0
    6.4030   -3.0420   27.3440 C   0  0  0  0  0  0  0  0  0  0  0  0
    6.7250   -4.0140   28.3910 C   0  0  0  0  0  0  0  0  0  0  0  0
    5.5830   -4.1930   29.2170 C   0  0  0  0  0  0  0  0  0  0  0  0
    5.2570   -3.0280   29.5580 O   0  0  0  0  0  0  0  0  0  0  0  0
    4.2800   -2.8330   30.5460 C   0  0  0  0  0  0  0  0  0  0  0  0
    3.5620   -4.0760   30.8300 N   0  0  0  0  0  0  0  0  0  0  0  0
    2.5300   -3.9230   31.8690 C   0  0  0  0  0  0  0  0  0  0  0  0
    2.3670   -2.5900   32.4560 C   0  0  0  0  0  0  0  0  0  0  0  0
    1.6640   -1.8520   33.3720 C   0  0  0  0  0  0  0  0  0  0  0  0
    3.1400   -1.3780   32.1060 C   0  0  0  0  0  0  0  0  0  0  0  0
    4.0620   -1.5600   31.1640 N   0  0  0  0  0  0  0  0  0  0  0  0
    4.6150   -4.7930   28.4770 C   0  0  0  0  0  0  0  0  0  0  0  0
    4.3420   -4.2050   27.0710 C   0  0  0  0  0  0  0  0  0  0  0  0
    7.5160   -3.3350   23.5340 C   0  0  0  0  0  0  0  0  0  0  0  0
    7.5840   -3.3020   22.3200 C   0  0  0  0  0  0  0  0  0  0  0  0
  1  2  1  0
  2  3  2  0
  2  4  1  0
  4  5  1  0
  5  6  1  0
  6  7  1  0
  7  8  1  0
  8  9  2  0
  8 10  1  0
 10 11  1  0
 11 12  1  0
 12 13  1  0
 13 14  1  0
 14 15  1  0
 15 16  2  0
 16 17  1  0
 17 18  2  0
 18 19  1  0
 18 20  1  0
 15 21  1  0
 20 21  2  0
 13 22  1  0
 10 23  1  0
 22 23  1  0
  7 24  1  0
  4 25  1  0
 24 25  1  0
M  END
