piperidine-amides-3480-covalent
     RDKit          3D

 21 22  0  0  0  0  0  0  0  0999 V2000
    7.1080   -3.2790   19.1790 C   0  0  0  0  0  0  0  0  0  0  0  0
    6.3480   -4.0140   20.1850 C   0  0  0  0  0  0  0  0  0  0  0  0
    5.2760   -4.5340   19.8800 O   0  0  0  0  0  0  0  0  0  0  0  0
    6.8720   -4.1900   21.5070 N   0  0  0  0  0  0  0  0  0  0  0  0
    6.5450   -5.3900   22.2370 C   0  0  0  0  0  0  0  0  0  0  0  0
    5.9840   -5.0600   23.5990 C   0  0  0  0  0  0  0  0  0  0  0  0
    5.8150   -3.5520   23.7280 C   0  0  0  0  0  0  0  0  0  0  0  0
    5.1690   -3.2160   25.0310 C   0  0  0  0  0  0  0  0  0  0  0  0
    3.9490   -3.3590   25.2160 O   0  0  0  0  0  0  0  0  0  0  0  0
    5.9410   -2.7140   26.0950 N   0  0  0  0  0  0  0  0  0  0  0  0
    6.2430   -3.5730   27.2080 C   0  0  1  0  0  0  0  0  0  0  0  0
    5.6460   -4.9560   27.0380 C   0  0  0  0  0  0  0  0  0  0  0  0
    4.4320   -5.0220   27.7010 O   0  0  0  0  0  0  0  0  0  0  0  0
    7.6730   -3.7290   27.2050 C   0  0  1  0  0  0  0  0  0  0  0  0
    8.0950   -4.5540   28.2460 C   0  0  0  0  0  0  0  0  0  0  0  0
    8.7130   -5.6810   27.8710 C   0  0  0  0  0  0  0  0  0  0  0  0
    9.1910   -5.8820   26.5560 C   0  0  0  0  0  0  0  0  0  0  0  0
    9.0540   -4.9600   25.5860 C   0  0  0  0  0  0  0  0  0  0  0  0
    8.2860   -3.8630   25.9470 C   0  0  0  0  0  0  0  0  0  0  0  0
    6.9990   -2.7210   23.3880 C   0  0  0  0  0  0  0  0  0  0  0  0
    7.5900   -3.1240   22.1200 C   0  0  0  0  0  0  0  0  0  0  0  0
  1  2  1  0
  2  3  2  0
  2  4  1  0
  4  5  1  0
  5  6  1  0
  6  7  1  0
  7  8  1  0
  8  9  2  0
  8 10  1  0
 10 11  1  0
 11 12  1  6
 12 13  1  0
 11 14  1  0
 14 15  1  1
 15 16  1  0
 16 17  2  0
 17 18  1  0
 14 19  1  0
 18 19  1  0
  7 20  1  0
  4 21  1  0
 20 21  1  0
M  END
