piperidine-amides-31320-covalent
     RDKit          3D

 27 30  0  0  0  0  0  0  0  0999 V2000
    7.1420   -3.3720   19.4560 C   0  0  0  0  0  0  0  0  0  0  0  0
    6.4330   -4.1840   20.4190 C   0  0  0  0  0  0  0  0  0  0  0  0
    5.4580   -4.8970   20.0030 O   0  0  0  0  0  0  0  0  0  0  0  0
    6.8190   -4.2220   21.7820 N   0  0  0  0  0  0  0  0  0  0  0  0
    7.7470   -3.1830   22.2720 C   0  0  0  0  0  0  0  0  0  0  0  0
    6.7940   -2.5280   23.3350 C   0  0  0  0  0  0  0  0  0  0  0  0
    6.4770   -3.6260   24.3270 C   0  0  0  0  0  0  0  0  0  0  0  0
    5.4640   -3.1070   25.4550 C   0  0  0  0  0  0  0  0  0  0  0  0
    4.3210   -3.2810   25.0560 O   0  0  0  0  0  0  0  0  0  0  0  0
    6.0490   -2.6360   26.5060 N   0  0  0  0  0  0  0  0  0  0  0  0
    6.6120   -2.4650   27.7400 C   0  0  0  0  0  0  0  0  0  0  0  0
    6.2690   -1.8490   28.9280 C   0  0  0  0  0  0  0  0  0  0  0  0
    4.9110   -1.8330   29.3500 C   0  0  0  0  0  0  0  0  0  0  0  0
    4.4550   -1.1820   30.6110 C   0  0  0  0  0  0  0  0  0  0  0  0
    5.7770   -0.6300   31.1840 C   0  0  0  0  0  0  0  0  0  0  0  0
    7.1440   -1.0150   30.1300 S   0  0  0  0  0  0  0  0  0  0  0  0
    6.0590   -1.1720   26.7910 C   0  0  0  0  0  0  0  0  0  0  0  0
    6.4520   -0.5440   27.9740 N   0  0  0  0  0  0  0  0  0  0  0  0
    6.4450    0.8890   28.2500 C   0  0  0  0  0  0  0  0  0  0  0  0
    6.0010    1.8430   27.2490 N   0  0  0  0  0  0  0  0  0  0  0  0
    5.5550    1.3870   25.9510 C   0  0  0  0  0  0  0  0  0  0  0  0
    5.1450    2.3340   25.0320 N   0  0  0  0  0  0  0  0  0  0  0  0
    5.1800    1.1800   24.9010 N   0  0  0  0  0  0  0  0  0  0  0  0
    5.6800    0.8350   26.1750 C   0  0  0  0  0  0  0  0  0  0  0  0
    5.5870   -0.2580   25.7040 C   0  0  0  0  0  0  0  0  0  0  0  0
    5.9730   -4.9660   23.7490 C   0  0  0  0  0  0  0  0  0  0  0  0
    6.6160   -5.3720   22.6110 C   0  0  0  0  0  0  0  0  0  0  0  0
  1  2  1  0
  2  3  2  0
  2  4  1  0
  4  5  1  0
  5  6  1  0
  6  7  1  0
  7  8  1  0
  8  9  2  0
  8 10  1  0
 10 11  1  0
 11 12  1  0
 12 13  2  0
 13 14  1  0
 14 15  2  0
 12 16  1  0
 15 16  1  0
 10 17  1  0
 17 18  2  0
 18 19  1  0
 19 20  2  0
 20 21  1  0
 21 22  1  0
 22 23  1  0
 23 24  2  0
 17 25  1  0
 21 25  2  0
 24 25  1  0
  7 26  1  0
  4 27  1  0
 26 27  1  0
M  END
