piperidine-amides-10910-covalent
     RDKit          3D

 21 22  0  0  0  0  0  0  0  0999 V2000
    7.1490   -3.2970   19.2320 C   0  0  0  0  0  0  0  0  0  0  0  0
    6.3540   -4.0180   20.2220 C   0  0  0  0  0  0  0  0  0  0  0  0
    5.2740   -4.5290   19.8830 O   0  0  0  0  0  0  0  0  0  0  0  0
    6.8320   -4.1930   21.5330 N   0  0  0  0  0  0  0  0  0  0  0  0
    7.7450   -3.2590   22.1470 C   0  0  0  0  0  0  0  0  0  0  0  0
    7.0270   -2.7430   23.3570 C   0  0  0  0  0  0  0  0  0  0  0  0
    6.4620   -3.8450   24.1970 C   0  0  0  0  0  0  0  0  0  0  0  0
    5.6980   -3.3440   25.3720 C   0  0  0  0  0  0  0  0  0  0  0  0
    4.4330   -3.2650   25.3200 O   0  0  0  0  0  0  0  0  0  0  0  0
    6.3110   -2.9400   26.5790 N   0  0  0  0  0  0  0  0  0  0  0  0
    6.4560   -1.5090   26.9520 C   0  0  0  0  0  0  0  0  0  0  0  0
    5.5540   -0.6720   26.1120 C   0  0  2  0  0  0  0  0  0  0  0  0
    6.0310   -0.5830   24.7120 C   0  0  0  0  0  0  0  0  0  0  0  0
    5.8490    0.8010   24.2110 C   0  0  0  0  0  0  0  0  0  0  0  0
    5.3270    1.4980   25.4160 C   0  0  2  0  0  0  0  0  0  0  0  0
    3.9210    1.8760   25.1340 C   0  0  0  0  0  0  0  0  0  0  0  0
    6.0610    2.7730   25.8740 C   0  0  0  0  0  0  0  0  0  0  0  0
    6.6730    2.7550   27.1340 C   0  0  0  0  0  0  0  0  0  0  0  0
    5.3890    0.5560   26.4880 O   0  0  0  0  0  0  0  0  0  0  0  0
    5.5520   -4.8060   23.4090 C   0  0  0  0  0  0  0  0  0  0  0  0
    6.4210   -5.3570   22.2740 C   0  0  0  0  0  0  0  0  0  0  0  0
  1  2  1  0
  2  3  2  0
  2  4  1  0
  4  5  1  0
  5  6  1  0
  6  7  1  0
  7  8  1  0
  8  9  2  0
  8 10  1  0
 10 11  1  0
 12 11  1  1
 12 13  1  0
 13 14  1  0
 14 15  1  0
 15 16  1  6
 15 17  1  0
 17 18  1  0
 12 19  1  0
 15 19  1  0
  7 20  1  0
  4 21  1  0
 20 21  1  0
M  END
