piperidine-amides-1813-covalent
     RDKit          3D

 19 20  0  0  0  0  0  0  0  0999 V2000
    7.1040   -3.2640   19.2290 C   0  0  0  0  0  0  0  0  0  0  0  0
    6.3560   -4.0490   20.2430 C   0  0  0  0  0  0  0  0  0  0  0  0
    5.2970   -4.5640   19.8900 O   0  0  0  0  0  0  0  0  0  0  0  0
    6.8900   -4.2120   21.5220 N   0  0  0  0  0  0  0  0  0  0  0  0
    7.6530   -3.1650   22.1480 C   0  0  0  0  0  0  0  0  0  0  0  0
    6.8980   -2.6970   23.3500 C   0  0  0  0  0  0  0  0  0  0  0  0
    6.6530   -3.8990   24.2590 C   0  0  0  0  0  0  0  0  0  0  0  0
    5.8970   -3.3920   25.4160 C   0  0  0  0  0  0  0  0  0  0  0  0
    4.6640   -3.2740   25.3570 O   0  0  0  0  0  0  0  0  0  0  0  0
    6.5890   -3.0260   26.5860 N   0  0  0  0  0  0  0  0  0  0  0  0
    6.3240   -3.7140   27.8280 C   0  0  0  0  0  0  0  0  0  0  0  0
    6.6810   -5.1860   27.6950 C   0  0  0  0  0  0  0  0  0  0  0  0
    7.7130   -5.7490   27.0220 C   0  0  0  0  0  0  0  0  0  0  0  0
    7.7710   -5.8420   28.3440 C   0  0  0  0  0  0  0  0  0  0  0  0
    5.5310   -6.1710   27.5960 C   0  0  0  0  0  0  0  0  0  0  0  0
    5.5780   -5.4850   28.8970 C   0  0  0  0  0  0  0  0  0  0  0  0
    5.2010   -6.8850   28.9210 C   0  0  0  0  0  0  0  0  0  0  0  0
    5.9120   -4.9960   23.5990 C   0  0  0  0  0  0  0  0  0  0  0  0
    6.4670   -5.3650   22.2630 C   0  0  0  0  0  0  0  0  0  0  0  0
  1  2  1  0
  2  3  2  0
  2  4  1  0
  4  5  1  0
  5  6  1  0
  6  7  1  0
  7  8  1  0
  8  9  2  0
  8 10  1  0
 10 11  1  0
 12 11  1  0
 12 13  1  0
 12 14  1  0
 12 15  1  0
 15 16  1  0
 15 17  1  0
 16 17  1  0
  7 18  1  0
  4 19  1  0
 18 19  1  0
M  END
