piperidine-amides-3095-covalent
     RDKit          3D

 23 24  0  0  0  0  0  0  0  0999 V2000
    7.1220   -3.2990   19.2080 C   0  0  0  0  0  0  0  0  0  0  0  0
    6.3200   -3.9860   20.2100 C   0  0  0  0  0  0  0  0  0  0  0  0
    5.2770   -4.5520   19.8850 O   0  0  0  0  0  0  0  0  0  0  0  0
    6.7750   -4.0430   21.5670 N   0  0  0  0  0  0  0  0  0  0  0  0
    7.7330   -3.0780   22.0480 C   0  0  0  0  0  0  0  0  0  0  0  0
    7.4300   -2.7280   23.4660 C   0  0  0  0  0  0  0  0  0  0  0  0
    6.0520   -3.2800   23.7530 C   0  0  0  0  0  0  0  0  0  0  0  0
    5.5910   -2.8230   25.0930 C   0  0  0  0  0  0  0  0  0  0  0  0
    4.5660   -3.2810   25.6330 O   0  0  0  0  0  0  0  0  0  0  0  0
    6.3400   -1.8140   25.7600 N   0  0  0  0  0  0  0  0  0  0  0  0
    6.0210   -1.5170   27.1370 C   0  0  0  0  0  0  0  0  0  0  0  0
    6.0390   -2.8360   27.7940 C   0  0  0  0  0  0  0  0  0  0  0  0
    5.3700   -3.3610   28.8470 C   0  0  0  0  0  0  0  0  0  0  0  0
    5.8330   -4.7330   29.0040 N   0  0  0  0  0  0  0  0  0  0  0  0
    6.7580   -4.9470   28.0300 N   0  0  0  0  0  0  0  0  0  0  0  0
    7.5410   -6.0770   27.6980 C   0  0  0  0  0  0  0  0  0  0  0  0
    8.7990   -5.7180   27.2890 C   0  0  0  0  0  0  0  0  0  0  0  0
    9.4090   -6.6830   26.5700 F   0  0  0  0  0  0  0  0  0  0  0  0
    8.7380   -4.5920   26.4420 F   0  0  0  0  0  0  0  0  0  0  0  0
    9.5200   -5.4110   28.3600 F   0  0  0  0  0  0  0  0  0  0  0  0
    6.8440   -3.7710   27.3260 C   0  0  0  0  0  0  0  0  0  0  0  0
    5.9320   -4.7840   23.6060 C   0  0  0  0  0  0  0  0  0  0  0  0
    6.5200   -5.2050   22.4220 C   0  0  0  0  0  0  0  0  0  0  0  0
  1  2  1  0
  2  3  2  0
  2  4  1  0
  4  5  1  0
  5  6  1  0
  6  7  1  0
  7  8  1  0
  8  9  2  0
  8 10  1  0
 10 11  1  0
 11 12  1  0
 12 13  1  0
 13 14  2  0
 14 15  1  0
 15 16  1  0
 16 17  1  0
 17 18  1  0
 17 19  1  0
 17 20  1  0
 12 21  2  0
 15 21  1  0
  7 22  1  0
  4 23  1  0
 22 23  1  0
M  END
