piperidine-amides-950-covalent
     RDKit          3D

 24 26  0  0  0  0  0  0  0  0999 V2000
    7.1690   -3.2760   19.1810 C   0  0  0  0  0  0  0  0  0  0  0  0
    6.4010   -4.0490   20.1950 C   0  0  0  0  0  0  0  0  0  0  0  0
    5.3030   -4.5370   19.8790 O   0  0  0  0  0  0  0  0  0  0  0  0
    6.9800   -4.2570   21.4580 N   0  0  0  0  0  0  0  0  0  0  0  0
    7.8020   -3.2630   22.1010 C   0  0  0  0  0  0  0  0  0  0  0  0
    6.9200   -2.6190   23.1540 C   0  0  0  0  0  0  0  0  0  0  0  0
    6.5030   -3.7290   24.0480 C   0  0  0  0  0  0  0  0  0  0  0  0
    5.7100   -3.2490   25.1740 C   0  0  0  0  0  0  0  0  0  0  0  0
    4.5200   -2.9810   24.9630 O   0  0  0  0  0  0  0  0  0  0  0  0
    6.3110   -3.1290   26.4060 N   0  0  0  0  0  0  0  0  0  0  0  0
    6.0220   -3.9270   27.5190 C   0  0  0  0  0  0  0  0  0  0  0  0
    6.4960   -3.6540   28.7500 C   0  0  0  0  0  0  0  0  0  0  0  0
    6.6300   -2.3180   29.1800 C   0  0  0  0  0  0  0  0  0  0  0  0
    5.4890   -1.6300   29.7790 N   0  0  0  0  0  0  0  0  0  0  0  0
    5.8120   -0.3840   30.1250 C   0  0  0  0  0  0  0  0  0  0  0  0
    5.1170    0.7700   30.7540 C   0  0  0  0  0  0  0  0  0  0  0  0
    4.1160    1.7390   30.1550 C   0  0  0  0  0  0  0  0  0  0  0  0
    3.8190    2.6360   31.3040 C   0  0  0  0  0  0  0  0  0  0  0  0
    4.5290    2.2670   32.4170 C   0  0  0  0  0  0  0  0  0  0  0  0
    5.3040    1.1390   32.0570 O   0  0  0  0  0  0  0  0  0  0  0  0
    7.1520   -0.3520   29.7210 N   0  0  0  0  0  0  0  0  0  0  0  0
    7.6690   -1.4240   29.1770 N   0  0  0  0  0  0  0  0  0  0  0  0
    5.7480   -4.8330   23.3950 C   0  0  0  0  0  0  0  0  0  0  0  0
    6.5420   -5.3920   22.2350 C   0  0  0  0  0  0  0  0  0  0  0  0
  1  2  1  0
  2  3  2  0
  2  4  1  0
  4  5  1  0
  5  6  1  0
  6  7  1  0
  7  8  1  0
  8  9  2  0
  8 10  1  0
 10 11  1  0
 11 12  1  0
 12 13  1  0
 13 14  2  0
 14 15  1  0
 15 16  1  0
 16 17  2  0
 17 18  1  0
 18 19  2  0
 16 20  1  0
 19 20  1  0
 15 21  2  0
 13 22  1  0
 21 22  1  0
  7 23  1  0
  4 24  1  0
 23 24  1  0
M  END
