piperidine-amides-13416-covalent
     RDKit          3D

 23 25  0  0  0  0  0  0  0  0999 V2000
    7.1360   -3.2600   19.2260 C   0  0  0  0  0  0  0  0  0  0  0  0
    6.3740   -4.0550   20.2290 C   0  0  0  0  0  0  0  0  0  0  0  0
    5.2950   -4.5640   19.8890 O   0  0  0  0  0  0  0  0  0  0  0  0
    6.9110   -4.2680   21.5160 N   0  0  0  0  0  0  0  0  0  0  0  0
    7.7110   -3.2750   22.1920 C   0  0  0  0  0  0  0  0  0  0  0  0
    6.7940   -2.5780   23.2000 C   0  0  0  0  0  0  0  0  0  0  0  0
    6.0840   -3.6420   23.9760 C   0  0  0  0  0  0  0  0  0  0  0  0
    5.0650   -3.0760   24.9060 C   0  0  0  0  0  0  0  0  0  0  0  0
    4.8870   -1.8590   24.8460 O   0  0  0  0  0  0  0  0  0  0  0  0
    4.3470   -3.8930   25.7910 N   0  0  0  0  0  0  0  0  0  0  0  0
    4.8760   -4.9930   26.4790 C   0  0  0  0  0  0  0  0  0  0  0  0
    4.1330   -6.0020   27.0560 C   0  0  0  0  0  0  0  0  0  0  0  0
    2.9430   -5.3330   27.5590 O   0  0  0  0  0  0  0  0  0  0  0  0
    5.7330   -4.4200   27.5880 C   0  0  0  0  0  0  0  0  0  0  0  0
    6.8850   -4.6580   26.8830 C   0  0  0  0  0  0  0  0  0  0  0  0
    7.5000   -3.4140   26.3920 C   0  0  0  0  0  0  0  0  0  0  0  0
    8.2310   -2.7770   27.5400 C   0  0  0  0  0  0  0  0  0  0  0  0
    8.8130   -3.6780   28.3850 O   0  0  0  0  0  0  0  0  0  0  0  0
    8.3040   -5.0300   28.5040 C   0  0  0  0  0  0  0  0  0  0  0  0
    7.7440   -5.5630   27.3760 C   0  0  0  0  0  0  0  0  0  0  0  0
    6.1720   -5.4110   25.9960 C   0  0  0  0  0  0  0  0  0  0  0  0
    5.4360   -4.7090   23.1410 C   0  0  0  0  0  0  0  0  0  0  0  0
    6.3660   -5.3020   22.3320 C   0  0  0  0  0  0  0  0  0  0  0  0
  1  2  1  0
  2  3  2  0
  2  4  1  0
  4  5  1  0
  5  6  1  0
  6  7  1  0
  7  8  1  0
  8  9  2  0
  8 10  1  0
 11 10  1  0
 11 12  1  0
 12 13  1  0
 11 14  1  0
 15 14  1  0
 15 16  1  0
 16 17  1  0
 17 18  1  0
 18 19  1  0
 15 20  1  0
 19 20  1  0
 11 21  1  0
 15 21  1  0
  7 22  1  0
  4 23  1  0
 22 23  1  0
M  END
