piperidine-amides-2163-covalent
     RDKit          3D

 32 34  0  0  0  0  0  0  0  0999 V2000
    7.1130   -3.2510   19.2020 C   0  0  0  0  0  0  0  0  0  0  0  0
    6.3670   -4.0330   20.2240 C   0  0  0  0  0  0  0  0  0  0  0  0
    5.2990   -4.5350   19.8770 O   0  0  0  0  0  0  0  0  0  0  0  0
    6.8970   -4.2110   21.4970 N   0  0  0  0  0  0  0  0  0  0  0  0
    7.6730   -3.1750   22.1330 C   0  0  0  0  0  0  0  0  0  0  0  0
    6.9150   -2.6790   23.3200 C   0  0  0  0  0  0  0  0  0  0  0  0
    6.4940   -3.8720   24.1720 C   0  0  0  0  0  0  0  0  0  0  0  0
    5.8060   -3.3400   25.3640 C   0  0  0  0  0  0  0  0  0  0  0  0
    4.5680   -3.2990   25.3920 O   0  0  0  0  0  0  0  0  0  0  0  0
    6.5440   -2.8700   26.4670 N   0  0  0  0  0  0  0  0  0  0  0  0
    6.0510   -3.1140   27.8010 C   0  0  0  0  0  0  0  0  0  0  0  0
    6.5350   -4.4710   28.2380 C   0  0  0  0  0  0  0  0  0  0  0  0
    5.8960   -5.2890   29.1020 C   0  0  0  0  0  0  0  0  0  0  0  0
    6.4480   -6.5190   29.2700 C   0  0  0  0  0  0  0  0  0  0  0  0
    5.8970   -7.4390   30.1260 C   0  0  0  0  0  0  0  0  0  0  0  0
    4.6520   -7.1950   30.9550 C   0  0  0  0  0  0  0  0  0  0  0  0
    4.1860   -8.1830   31.7840 O   0  0  0  0  0  0  0  0  0  0  0  0
    3.7860   -7.8260   33.0770 C   0  0  0  0  0  0  0  0  0  0  0  0
    2.3310   -7.4380   33.0570 C   0  0  0  0  0  0  0  0  0  0  0  0
    1.6120   -8.3990   32.5900 N   0  0  0  0  0  0  0  0  0  0  0  0
    1.5430   -9.4460   33.5930 C   0  0  0  0  0  0  0  0  0  0  0  0
    0.4820  -10.4810   33.4390 C   0  0  0  0  0  0  0  0  0  0  0  0
   -0.7320   -9.6780   33.1300 N   0  0  0  0  0  0  0  0  0  0  0  0
   -2.0030  -10.2100   33.4210 C   0  0  0  0  0  0  0  0  0  0  0  0
   -2.9040   -9.5050   34.3780 C   0  0  0  0  0  0  0  0  0  0  0  0
   -2.4200  -11.3360   32.8570 O   0  0  0  0  0  0  0  0  0  0  0  0
   -0.5840   -8.2310   33.0230 C   0  0  0  0  0  0  0  0  0  0  0  0
    0.3610   -8.0530   32.0400 C   0  0  0  0  0  0  0  0  0  0  0  0
    4.1220   -5.9320   30.7510 C   0  0  0  0  0  0  0  0  0  0  0  0
    4.7640   -4.9460   29.7930 C   0  0  0  0  0  0  0  0  0  0  0  0
    5.6390   -4.7980   23.3210 C   0  0  0  0  0  0  0  0  0  0  0  0
    6.4530   -5.2880   22.3480 C   0  0  0  0  0  0  0  0  0  0  0  0
  1  2  1  0
  2  3  2  0
  2  4  1  0
  4  5  1  0
  5  6  1  0
  6  7  1  0
  7  8  1  0
  8  9  2  0
  8 10  1  0
 10 11  1  0
 11 12  1  0
 12 13  1  0
 13 14  2  0
 14 15  1  0
 15 16  2  0
 16 17  1  0
 17 18  1  0
 18 19  1  0
 19 20  1  0
 20 21  1  0
 21 22  1  0
 22 23  1  0
 23 24  1  0
 24 25  1  0
 24 26  2  0
 23 27  1  0
 20 28  1  0
 27 28  1  0
 16 29  1  0
 13 30  1  0
 29 30  2  0
  7 31  1  0
  4 32  1  0
 31 32  1  0
M  END
