piperidine-amides-32749-covalent
     RDKit          3D

 29 31  0  0  0  0  0  0  0  0999 V2000
    7.1020   -3.2590   19.2380 C   0  0  0  0  0  0  0  0  0  0  0  0
    6.3380   -4.0630   20.2340 C   0  0  0  0  0  0  0  0  0  0  0  0
    5.2650   -4.5770   19.8880 O   0  0  0  0  0  0  0  0  0  0  0  0
    6.8620   -4.2740   21.5270 N   0  0  0  0  0  0  0  0  0  0  0  0
    6.5000   -5.4570   22.2580 C   0  0  0  0  0  0  0  0  0  0  0  0
    5.6350   -4.9650   23.4220 C   0  0  0  0  0  0  0  0  0  0  0  0
    6.4670   -4.0090   24.2070 C   0  0  0  0  0  0  0  0  0  0  0  0
    5.7250   -3.4340   25.3630 C   0  0  0  0  0  0  0  0  0  0  0  0
    4.5090   -3.2890   25.1940 O   0  0  0  0  0  0  0  0  0  0  0  0
    6.3590   -3.0680   26.5600 N   0  0  0  0  0  0  0  0  0  0  0  0
    6.7750   -1.7280   26.8050 C   0  0  0  0  0  0  0  0  0  0  0  0
    6.1910   -3.8610   27.7520 C   0  0  0  0  0  0  0  0  0  0  0  0
    5.8860   -5.2340   27.6660 C   0  0  0  0  0  0  0  0  0  0  0  0
    5.2010   -5.8070   28.7110 C   0  0  0  0  0  0  0  0  0  0  0  0
    4.0230   -6.6600   28.4300 C   0  0  0  0  0  0  0  0  0  0  0  0
    3.3590   -7.1120   27.1450 C   0  0  0  0  0  0  0  0  0  0  0  0
    2.2680   -7.9220   27.7150 C   0  0  0  0  0  0  0  0  0  0  0  0
    1.2730   -8.6340   27.0710 C   0  0  0  0  0  0  0  0  0  0  0  0
    1.5490   -9.6520   26.0450 C   0  0  0  0  0  0  0  0  0  0  0  0
    0.2510  -10.3050   25.4870 C   0  0  0  0  0  0  0  0  0  0  0  0
   -1.1590  -10.2480   25.6380 C   0  0  0  0  0  0  0  0  0  0  0  0
   -2.2070  -10.8880   25.0750 F   0  0  0  0  0  0  0  0  0  0  0  0
   -1.1220   -9.1460   26.7230 C   0  0  0  0  0  0  0  0  0  0  0  0
   -0.0040   -8.4200   27.3660 C   0  0  0  0  0  0  0  0  0  0  0  0
    2.2990   -7.9350   29.0510 N   0  0  0  0  0  0  0  0  0  0  0  0
    1.3290   -8.6700   29.8260 C   0  0  0  0  0  0  0  0  0  0  0  0
    3.3470   -7.1800   29.5200 N   0  0  0  0  0  0  0  0  0  0  0  0
    6.9460   -2.8030   23.4150 C   0  0  0  0  0  0  0  0  0  0  0  0
    7.4770   -3.1720   22.1880 C   0  0  0  0  0  0  0  0  0  0  0  0
  1  2  1  0
  2  3  2  0
  2  4  1  0
  4  5  1  0
  5  6  1  0
  6  7  1  0
  7  8  1  0
  8  9  2  0
  8 10  1  0
 10 11  1  0
 10 12  1  0
 12 13  1  0
 13 14  1  0
 14 15  1  0
 15 16  1  0
 16 17  2  0
 17 18  1  0
 18 19  2  0
 19 20  1  0
 20 21  2  0
 21 22  1  0
 21 23  1  0
 18 24  1  0
 23 24  2  0
 17 25  1  0
 25 26  1  0
 15 27  2  0
 25 27  1  0
  7 28  1  0
  4 29  1  0
 28 29  1  0
M  END
