piperidine-amides-21667-covalent
     RDKit          3D

 23 25  0  0  0  0  0  0  0  0999 V2000
    7.0550   -3.3590   19.3750 C   0  0  0  0  0  0  0  0  0  0  0  0
    6.4020   -4.2290   20.3580 C   0  0  0  0  0  0  0  0  0  0  0  0
    5.3580   -4.8130   19.9710 O   0  0  0  0  0  0  0  0  0  0  0  0
    6.9520   -4.4280   21.6300 N   0  0  0  0  0  0  0  0  0  0  0  0
    6.6050   -5.5650   22.4360 C   0  0  0  0  0  0  0  0  0  0  0  0
    5.7880   -5.0640   23.5960 C   0  0  0  0  0  0  0  0  0  0  0  0
    6.4040   -3.8720   24.3010 C   0  0  0  0  0  0  0  0  0  0  0  0
    5.4580   -3.3600   25.3230 C   0  0  0  0  0  0  0  0  0  0  0  0
    4.3370   -2.9950   24.9230 O   0  0  0  0  0  0  0  0  0  0  0  0
    5.7100   -3.2580   26.7120 N   0  0  0  0  0  0  0  0  0  0  0  0
    4.7430   -3.6830   27.6970 C   0  0  0  0  0  0  0  0  0  0  0  0
    5.4530   -3.2450   28.9300 C   0  0  0  0  0  0  0  0  0  0  0  0
    6.5930   -2.6150   28.5700 C   0  0  0  0  0  0  0  0  0  0  0  0
    6.9880   -2.9220   27.3070 C   0  0  1  0  0  0  0  0  0  0  0  0
    7.6970   -4.0250   27.3250 C   0  0  0  0  0  0  0  0  0  0  0  0
    7.7690   -4.9070   28.3690 C   0  0  0  0  0  0  0  0  0  0  0  0
    8.5780   -5.9270   28.0430 N   0  0  0  0  0  0  0  0  0  0  0  0
    8.9570   -5.6110   26.8030 N   0  0  0  0  0  0  0  0  0  0  0  0
    9.7730   -6.4090   26.1160 C   0  0  0  0  0  0  0  0  0  0  0  0
    8.4320   -4.4590   26.3560 C   0  0  0  0  0  0  0  0  0  0  0  0
    8.7540   -3.9390   24.9640 C   0  0  0  0  0  0  0  0  0  0  0  0
    6.7810   -2.7450   23.3090 C   0  0  0  0  0  0  0  0  0  0  0  0
    7.7150   -3.3760   22.2910 C   0  0  0  0  0  0  0  0  0  0  0  0
  1  2  1  0
  2  3  2  0
  2  4  1  0
  4  5  1  0
  5  6  1  0
  6  7  1  0
  7  8  1  0
  8  9  2  0
  8 10  1  0
 10 11  1  0
 11 12  1  0
 12 13  1  0
 10 14  1  0
 13 14  1  0
 14 15  1  1
 15 16  1  0
 16 17  2  0
 17 18  1  0
 18 19  1  0
 15 20  2  0
 18 20  1  0
 20 21  1  0
  7 22  1  0
  4 23  1  0
 22 23  1  0
M  END
