piperidine-amides-35585-covalent
     RDKit          3D

 37 41  0  0  0  0  0  0  0  0999 V2000
    7.0980   -3.3300   19.3050 C   0  0  0  0  0  0  0  0  0  0  0  0
    6.3590   -4.1250   20.3140 C   0  0  0  0  0  0  0  0  0  0  0  0
    5.3400   -4.7090   19.9450 O   0  0  0  0  0  0  0  0  0  0  0  0
    6.8690   -4.2240   21.6110 N   0  0  0  0  0  0  0  0  0  0  0  0
    6.6160   -5.3860   22.4280 C   0  0  0  0  0  0  0  0  0  0  0  0
    5.9480   -4.9530   23.7090 C   0  0  0  0  0  0  0  0  0  0  0  0
    6.1850   -3.4520   23.9190 C   0  0  0  0  0  0  0  0  0  0  0  0
    5.6500   -3.0610   25.2350 C   0  0  0  0  0  0  0  0  0  0  0  0
    4.4240   -2.9420   25.3730 O   0  0  0  0  0  0  0  0  0  0  0  0
    6.5010   -2.8310   26.3280 N   0  0  0  0  0  0  0  0  0  0  0  0
    6.6610   -3.9780   27.1700 C   0  0  0  0  0  0  0  0  0  0  0  0
    5.8340   -4.3190   28.1730 N   0  0  0  0  0  0  0  0  0  0  0  0
    6.1220   -5.4200   28.8520 C   0  0  0  0  0  0  0  0  0  0  0  0
    5.3190   -5.8130   29.8850 C   0  0  0  0  0  0  0  0  0  0  0  0
    4.2030   -5.0680   30.2170 C   0  0  0  0  0  0  0  0  0  0  0  0
    3.4140   -5.4730   31.2610 C   0  0  0  0  0  0  0  0  0  0  0  0
    3.7670   -6.7050   32.0260 C   0  0  0  0  0  0  0  0  0  0  0  0
    2.7860   -6.9740   33.1250 C   0  0  0  0  0  0  0  0  0  0  0  0
    1.4670   -6.3750   32.6560 C   0  0  0  0  0  0  0  0  0  0  0  0
    0.3540   -6.5640   33.6650 C   0  0  0  0  0  0  0  0  0  0  0  0
    0.6380   -7.2780   34.9460 C   0  0  0  0  0  0  0  0  0  0  0  0
    2.0030   -7.8150   35.2620 C   0  0  0  0  0  0  0  0  0  0  0  0
    3.0950   -7.6390   34.2940 C   0  0  0  0  0  0  0  0  0  0  0  0
    4.9740   -7.4630   31.6230 C   0  0  0  0  0  0  0  0  0  0  0  0
    5.7010   -6.9800   30.5590 C   0  0  0  0  0  0  0  0  0  0  0  0
    7.2610   -6.1420   28.4740 C   0  0  0  0  0  0  0  0  0  0  0  0
    7.8920   -5.2320   27.1730 S   0  0  0  0  0  0  0  0  0  0  0  0
    6.4560   -1.5950   27.0720 C   0  0  0  0  0  0  0  0  0  0  0  0
    7.1420   -1.6580   28.4310 C   0  0  0  0  0  0  0  0  0  0  0  0
    7.1690   -0.5690   29.2340 C   0  0  0  0  0  0  0  0  0  0  0  0
    6.5190    0.7440   28.7990 C   0  0  0  0  0  0  0  0  0  0  0  0
    5.8510    0.7990   27.4660 C   0  0  0  0  0  0  0  0  0  0  0  0
    5.8420   -0.4550   26.5910 C   0  0  0  0  0  0  0  0  0  0  0  0
    5.2330   -0.4440   25.3540 O   0  0  0  0  0  0  0  0  0  0  0  0
    5.8640    0.0160   24.1800 C   0  0  0  0  0  0  0  0  0  0  0  0
    7.5930   -3.1170   23.6090 C   0  0  0  0  0  0  0  0  0  0  0  0
    7.7650   -3.1990   22.1020 C   0  0  0  0  0  0  0  0  0  0  0  0
  1  2  1  0
  2  3  2  0
  2  4  1  0
  4  5  1  0
  5  6  1  0
  6  7  1  0
  7  8  1  0
  8  9  2  0
  8 10  1  0
 10 11  1  0
 11 12  2  0
 12 13  1  0
 13 14  1  0
 14 15  2  0
 15 16  1  0
 16 17  2  0
 17 18  1  0
 18 19  2  0
 19 20  1  0
 20 21  2  0
 21 22  1  0
 18 23  1  0
 22 23  2  0
 17 24  1  0
 14 25  1  0
 24 25  2  0
 13 26  2  0
 11 27  1  0
 26 27  1  0
 10 28  1  0
 28 29  2  0
 29 30  1  0
 30 31  2  0
 31 32  1  0
 28 33  1  0
 32 33  2  0
 33 34  1  0
 34 35  1  0
  7 36  1  0
  4 37  1  0
 36 37  1  0
M  END
