piperidine-amides-26177-covalent
     RDKit          3D

 25 27  0  0  0  0  0  0  0  0999 V2000
    7.0190   -3.3890   19.3390 C   0  0  0  0  0  0  0  0  0  0  0  0
    6.3410   -4.2720   20.2930 C   0  0  0  0  0  0  0  0  0  0  0  0
    5.3040   -4.8500   19.9560 O   0  0  0  0  0  0  0  0  0  0  0  0
    6.8660   -4.5210   21.5600 N   0  0  0  0  0  0  0  0  0  0  0  0
    6.5230   -5.7030   22.3180 C   0  0  0  0  0  0  0  0  0  0  0  0
    5.7330   -5.2310   23.5260 C   0  0  0  0  0  0  0  0  0  0  0  0
    6.4090   -4.1210   24.2960 C   0  0  0  0  0  0  0  0  0  0  0  0
    5.6400   -3.6990   25.5070 C   0  0  0  0  0  0  0  0  0  0  0  0
    4.4790   -3.2140   25.3360 O   0  0  0  0  0  0  0  0  0  0  0  0
    6.0620   -3.7830   26.8750 N   0  0  0  0  0  0  0  0  0  0  0  0
    5.0690   -3.4050   27.8890 C   0  0  0  0  0  0  0  0  0  0  0  0
    5.5380   -3.9220   29.1810 C   0  0  0  0  0  0  0  0  0  0  0  0
    5.8180   -5.3610   29.2190 C   0  0  0  0  0  0  0  0  0  0  0  0
    6.9160   -5.7700   28.2790 C   0  0  0  0  0  0  0  0  0  0  0  0
    7.9840   -4.7270   28.0480 C   0  0  0  0  0  0  0  0  0  0  0  0
    7.4250   -3.6130   27.2350 C   0  0  1  0  0  0  0  0  0  0  0  0
    8.0140   -3.4200   26.0500 C   0  0  0  0  0  0  0  0  0  0  0  0
    7.8780   -2.3690   25.2020 C   0  0  0  0  0  0  0  0  0  0  0  0
    6.9650   -1.1950   25.5000 C   0  0  0  0  0  0  0  0  0  0  0  0
    8.6170   -2.5140   24.1120 N   0  0  0  0  0  0  0  0  0  0  0  0
    9.2710   -3.6830   24.1780 N   0  0  0  0  0  0  0  0  0  0  0  0
    8.9860   -4.4110   25.4150 C   0  0  0  0  0  0  0  0  0  0  0  0
    9.3590   -5.7030   26.1060 C   0  0  0  0  0  0  0  0  0  0  0  0
    6.6060   -2.9820   23.3430 C   0  0  0  0  0  0  0  0  0  0  0  0
    7.4270   -3.3890   22.1920 C   0  0  0  0  0  0  0  0  0  0  0  0
  1  2  1  0
  2  3  2  0
  2  4  1  0
  4  5  1  0
  5  6  1  0
  6  7  1  0
  7  8  1  0
  8  9  2  0
  8 10  1  0
 10 11  1  0
 11 12  1  0
 12 13  1  0
 13 14  1  0
 14 15  1  0
 10 16  1  0
 15 16  1  0
 16 17  1  6
 17 18  1  0
 18 19  1  0
 18 20  2  0
 20 21  1  0
 17 22  2  0
 21 22  1  0
 22 23  1  0
  7 24  1  0
  4 25  1  0
 24 25  1  0
M  END
