piperidine-amides-27822-covalent
     RDKit          3D

 25 26  0  0  0  0  0  0  0  0999 V2000
    7.0900   -3.2720   19.2410 C   0  0  0  0  0  0  0  0  0  0  0  0
    6.3550   -4.0490   20.2710 C   0  0  0  0  0  0  0  0  0  0  0  0
    5.3010   -4.5990   19.9010 O   0  0  0  0  0  0  0  0  0  0  0  0
    6.8500   -4.1870   21.5790 N   0  0  0  0  0  0  0  0  0  0  0  0
    6.2450   -5.1220   22.4660 C   0  0  0  0  0  0  0  0  0  0  0  0
    5.5090   -4.5240   23.6000 C   0  0  0  0  0  0  0  0  0  0  0  0
    6.0910   -3.2870   24.2010 C   0  0  0  0  0  0  0  0  0  0  0  0
    5.0590   -2.5390   25.0150 C   0  0  0  0  0  0  0  0  0  0  0  0
    3.9540   -3.0920   25.1480 O   0  0  0  0  0  0  0  0  0  0  0  0
    5.2750   -1.2590   25.6460 N   0  0  0  0  0  0  0  0  0  0  0  0
    5.8900   -0.1510   24.9010 C   0  0  0  0  0  0  0  0  0  0  0  0
    5.7390   -1.3340   26.9620 C   0  0  0  0  0  0  0  0  0  0  0  0
    6.6620   -2.3410   26.8850 C   0  0  0  0  0  0  0  0  0  0  0  0
    7.4990   -2.3040   25.8200 C   0  0  0  0  0  0  0  0  0  0  0  0
    8.4160   -3.2110   25.5490 C   0  0  0  0  0  0  0  0  0  0  0  0
    8.4410   -4.1810   26.4480 C   0  0  0  0  0  0  0  0  0  0  0  0
    9.3610   -5.0940   26.1570 O   0  0  0  0  0  0  0  0  0  0  0  0
    9.1140   -6.1090   26.9860 C   0  0  0  0  0  0  0  0  0  0  0  0
    9.8680   -7.1200   26.5150 F   0  0  0  0  0  0  0  0  0  0  0  0
    7.7920   -6.4180   26.9450 F   0  0  0  0  0  0  0  0  0  0  0  0
    9.5440   -5.7570   28.2160 F   0  0  0  0  0  0  0  0  0  0  0  0
    7.6550   -4.3180   27.5890 C   0  0  0  0  0  0  0  0  0  0  0  0
    6.7340   -3.3380   27.7830 C   0  0  0  0  0  0  0  0  0  0  0  0
    6.7900   -2.4050   23.2280 C   0  0  0  0  0  0  0  0  0  0  0  0
    7.6360   -3.1470   22.2270 C   0  0  0  0  0  0  0  0  0  0  0  0
  1  2  1  0
  2  3  2  0
  2  4  1  0
  4  5  1  0
  5  6  1  0
  6  7  1  0
  7  8  1  0
  8  9  2  0
  8 10  1  0
 10 11  1  0
 10 12  1  0
 12 13  1  0
 13 14  2  0
 14 15  1  0
 15 16  2  0
 16 17  1  0
 17 18  1  0
 18 19  1  0
 18 20  1  0
 18 21  1  0
 16 22  1  0
 13 23  1  0
 22 23  2  0
  7 24  1  0
  4 25  1  0
 24 25  1  0
M  END
