piperidine-amides-25815-covalent
     RDKit          3D

 24 27  0  0  0  0  0  0  0  0999 V2000
    7.0590   -3.3400   19.3040 C   0  0  0  0  0  0  0  0  0  0  0  0
    6.3050   -4.1650   20.2850 C   0  0  0  0  0  0  0  0  0  0  0  0
    5.2660   -4.6920   19.9140 O   0  0  0  0  0  0  0  0  0  0  0  0
    6.8190   -4.3410   21.5600 N   0  0  0  0  0  0  0  0  0  0  0  0
    6.6310   -5.5580   22.3140 C   0  0  0  0  0  0  0  0  0  0  0  0
    6.0450   -5.2530   23.6740 C   0  0  0  0  0  0  0  0  0  0  0  0
    6.0400   -3.7430   23.9060 C   0  0  0  0  0  0  0  0  0  0  0  0
    5.6270   -3.3900   25.2850 C   0  0  0  0  0  0  0  0  0  0  0  0
    4.5540   -2.7940   25.4240 O   0  0  0  0  0  0  0  0  0  0  0  0
    6.3690   -3.6970   26.4500 N   0  0  0  0  0  0  0  0  0  0  0  0
    5.7080   -3.2660   27.6270 C   0  0  2  0  0  0  0  0  0  0  0  0
    6.7380   -3.6490   28.6310 C   0  0  0  0  0  0  0  0  0  0  0  0
    7.0820   -4.8830   29.0610 C   0  0  0  0  0  0  0  0  0  0  0  0
    5.9800   -5.5720   29.4940 C   0  0  0  0  0  0  0  0  0  0  0  0
    4.7770   -5.1690   29.9220 C   0  0  0  0  0  0  0  0  0  0  0  0
    3.7180   -6.1570   30.3590 C   0  0  0  0  0  0  0  0  0  0  0  0
    4.4140   -7.4960   30.1630 C   0  0  0  0  0  0  0  0  0  0  0  0
    6.0070   -7.2580   29.5700 S   0  0  0  0  0  0  0  0  0  0  0  0
    7.2580   -5.6130   27.7770 C   0  0  0  0  0  0  0  0  0  0  0  0
    6.4190   -5.0700   26.6590 C   0  0  1  0  0  0  0  0  0  0  0  0
    5.0090   -5.1030   27.1470 C   0  0  0  0  0  0  0  0  0  0  0  0
    4.4070   -3.9650   28.0650 C   0  0  0  0  0  0  0  0  0  0  0  0
    7.3990   -3.2300   23.6130 C   0  0  0  0  0  0  0  0  0  0  0  0
    7.6100   -3.2850   22.1460 C   0  0  0  0  0  0  0  0  0  0  0  0
  1  2  1  0
  2  3  2  0
  2  4  1  0
  4  5  1  0
  5  6  1  0
  6  7  1  0
  7  8  1  0
  8  9  2  0
  8 10  1  0
 10 11  1  0
 11 12  1  1
 12 13  2  0
 13 14  1  0
 14 15  2  0
 15 16  1  0
 16 17  2  0
 14 18  1  0
 17 18  1  0
 13 19  1  0
 10 20  1  0
 20 19  1  1
 20 21  1  0
 11 22  1  0
 21 22  1  0
  7 23  1  0
  4 24  1  0
 23 24  1  0
M  END
