piperidine-amides-33095-covalent
     RDKit          3D

 29 31  0  0  0  0  0  0  0  0999 V2000
    7.0140   -3.3760   19.3830 C   0  0  0  0  0  0  0  0  0  0  0  0
    6.3950   -4.2430   20.4010 C   0  0  0  0  0  0  0  0  0  0  0  0
    5.4140   -4.9230   20.0080 O   0  0  0  0  0  0  0  0  0  0  0  0
    6.9100   -4.3420   21.7330 N   0  0  0  0  0  0  0  0  0  0  0  0
    6.6490   -5.5350   22.4800 C   0  0  0  0  0  0  0  0  0  0  0  0
    6.2350   -5.2660   23.8550 C   0  0  0  0  0  0  0  0  0  0  0  0
    6.1580   -3.8230   24.1140 C   0  0  0  0  0  0  0  0  0  0  0  0
    5.6420   -3.4030   25.4840 C   0  0  0  0  0  0  0  0  0  0  0  0
    4.6650   -2.6340   25.4760 O   0  0  0  0  0  0  0  0  0  0  0  0
    6.1120   -3.7830   26.7790 N   0  0  0  0  0  0  0  0  0  0  0  0
    5.8860   -2.9820   27.9260 C   0  0  0  0  0  0  0  0  0  0  0  0
    5.2590   -3.6410   29.0610 C   0  0  0  0  0  0  0  0  0  0  0  0
    5.4550   -4.9430   29.2390 N   0  0  0  0  0  0  0  0  0  0  0  0
    4.5020   -5.9380   29.6940 C   0  0  0  0  0  0  0  0  0  0  0  0
    3.8360   -6.6360   28.7130 O   0  0  0  0  0  0  0  0  0  0  0  0
    4.2820   -6.1650   31.0420 C   0  0  1  0  0  0  0  0  0  0  0  0
    3.3350   -4.9640   31.0670 C   0  0  0  0  0  0  0  0  0  0  0  0
    3.6710   -7.2210   31.2390 O   0  0  0  0  0  0  0  0  0  0  0  0
    3.8060   -7.9580   32.3040 C   0  0  0  0  0  0  0  0  0  0  0  0
    5.2330   -8.1460   32.8170 C   0  0  0  0  0  0  0  0  0  0  0  0
    5.6520   -8.9520   34.0270 C   0  0  0  0  0  0  0  0  0  0  0  0
    4.4650   -9.5980   34.7360 C   0  0  0  0  0  0  0  0  0  0  0  0
    3.0320   -9.3990   34.2090 C   0  0  0  0  0  0  0  0  0  0  0  0
    2.7880   -8.5720   32.9960 C   0  0  0  0  0  0  0  0  0  0  0  0
    1.4600   -8.4830   32.6410 F   0  0  0  0  0  0  0  0  0  0  0  0
    6.4570   -5.4320   28.4000 C   0  0  0  0  0  0  0  0  0  0  0  0
    5.9560   -5.1960   27.1090 C   0  0  0  0  0  0  0  0  0  0  0  0
    7.4300   -3.1510   23.7150 C   0  0  0  0  0  0  0  0  0  0  0  0
    7.6920   -3.2710   22.3410 C   0  0  0  0  0  0  0  0  0  0  0  0
  1  2  1  0
  2  3  2  0
  2  4  1  0
  4  5  1  0
  5  6  1  0
  6  7  1  0
  7  8  1  0
  8  9  2  0
  8 10  1  0
 10 11  1  0
 11 12  1  0
 12 13  1  0
 13 14  1  0
 14 15  2  0
 14 16  1  0
 16 17  1  6
 16 18  1  0
 18 19  1  0
 19 20  2  0
 20 21  1  0
 21 22  2  0
 22 23  1  0
 19 24  1  0
 23 24  2  0
 24 25  1  0
 13 26  1  0
 10 27  1  0
 26 27  1  0
  7 28  1  0
  4 29  1  0
 28 29  1  0
M  END
