piperidine-amides-30006-covalent
     RDKit          3D

 27 29  0  0  0  0  0  0  0  0999 V2000
    7.0160   -3.3770   19.3890 C   0  0  0  0  0  0  0  0  0  0  0  0
    6.3530   -4.2410   20.3640 C   0  0  0  0  0  0  0  0  0  0  0  0
    5.3840   -4.9060   19.9980 O   0  0  0  0  0  0  0  0  0  0  0  0
    6.8410   -4.3670   21.7210 N   0  0  0  0  0  0  0  0  0  0  0  0
    7.6000   -3.3160   22.3470 C   0  0  0  0  0  0  0  0  0  0  0  0
    6.8170   -2.6840   23.4760 C   0  0  0  0  0  0  0  0  0  0  0  0
    6.2470   -3.7640   24.3940 C   0  0  0  0  0  0  0  0  0  0  0  0
    5.1790   -3.1900   25.3170 C   0  0  0  0  0  0  0  0  0  0  0  0
    4.3310   -2.3940   24.8950 O   0  0  0  0  0  0  0  0  0  0  0  0
    5.1250   -3.5630   26.7030 N   0  0  0  0  0  0  0  0  0  0  0  0
    4.5920   -2.6620   27.6840 C   0  0  0  0  0  0  0  0  0  0  0  0
    4.5460   -3.3900   29.0240 C   0  0  0  0  0  0  0  0  0  0  0  0
    5.3460   -4.4080   29.3820 N   0  0  0  0  0  0  0  0  0  0  0  0
    4.6050   -5.4500   29.8000 C   0  0  0  0  0  0  0  0  0  0  0  0
    5.1070   -6.7020   30.1670 C   0  0  0  0  0  0  0  0  0  0  0  0
    4.4720   -7.3930   31.1700 C   0  0  0  0  0  0  0  0  0  0  0  0
    3.0970   -7.7580   31.0470 C   0  0  0  0  0  0  0  0  0  0  0  0
    2.5010   -8.4390   32.0530 C   0  0  0  0  0  0  0  0  0  0  0  0
    3.2650   -8.7530   33.1670 C   0  0  0  0  0  0  0  0  0  0  0  0
    4.6260   -8.4780   33.4630 C   0  0  0  0  0  0  0  0  0  0  0  0
    5.2710   -8.8500   34.6080 O   0  0  0  0  0  0  0  0  0  0  0  0
    6.1700   -9.8890   34.4170 C   0  0  0  0  0  0  0  0  0  0  0  0
    5.2300   -7.7020   32.2720 C   0  0  0  0  0  0  0  0  0  0  0  0
    6.3410   -4.6450   28.4150 C   0  0  0  0  0  0  0  0  0  0  0  0
    6.2240   -4.3000   26.9820 C   0  0  0  0  0  0  0  0  0  0  0  0
    5.6300   -4.9400   23.6800 C   0  0  0  0  0  0  0  0  0  0  0  0
    6.4640   -5.4820   22.5280 C   0  0  0  0  0  0  0  0  0  0  0  0
  1  2  1  0
  2  3  2  0
  2  4  1  0
  4  5  1  0
  5  6  1  0
  6  7  1  0
  7  8  1  0
  8  9  2  0
  8 10  1  0
 10 11  1  0
 11 12  1  0
 12 13  1  0
 13 14  1  0
 14 15  1  0
 15 16  1  0
 16 17  2  0
 17 18  1  0
 18 19  2  0
 19 20  1  0
 20 21  1  0
 21 22  1  0
 16 23  1  0
 20 23  2  0
 13 24  1  0
 10 25  1  0
 24 25  1  0
  7 26  1  0
  4 27  1  0
 26 27  1  0
M  END
