piperidine-amides-29436-covalent
     RDKit          3D

 24 26  0  0  0  0  0  0  0  0999 V2000
    7.1350   -3.3550   19.3080 C   0  0  0  0  0  0  0  0  0  0  0  0
    6.4280   -4.1890   20.2610 C   0  0  0  0  0  0  0  0  0  0  0  0
    5.3260   -4.6570   19.9360 O   0  0  0  0  0  0  0  0  0  0  0  0
    7.0560   -4.5130   21.4870 N   0  0  0  0  0  0  0  0  0  0  0  0
    6.6910   -5.7380   22.1090 C   0  0  0  0  0  0  0  0  0  0  0  0
    5.7680   -5.4110   23.2300 C   0  0  0  0  0  0  0  0  0  0  0  0
    6.5050   -4.4960   24.1810 C   0  0  0  0  0  0  0  0  0  0  0  0
    5.5410   -4.1990   25.2650 C   0  0  0  0  0  0  0  0  0  0  0  0
    4.3530   -4.1820   24.9640 O   0  0  0  0  0  0  0  0  0  0  0  0
    6.0170   -3.9260   26.5090 N   0  0  0  0  0  0  0  0  0  0  0  0
    5.1090   -4.1070   27.5940 C   0  0  0  0  0  0  0  0  0  0  0  0
    5.5240   -3.7040   28.8490 C   0  0  0  0  0  0  0  0  0  0  0  0
    6.1440   -2.4990   28.8870 C   0  0  0  0  0  0  0  0  0  0  0  0
    6.2120   -1.8020   30.0600 C   0  0  0  0  0  0  0  0  0  0  0  0
    6.9100   -0.4760   30.1180 C   0  0  0  0  0  0  0  0  0  0  0  0
    6.9710    0.3670   31.6670 Cl  0  0  0  0  0  0  0  0  0  0  0  0
    7.5540    0.1380   28.8680 C   0  0  0  0  0  0  0  0  0  0  0  0
    8.3770    1.6900   28.9240 Cl  0  0  0  0  0  0  0  0  0  0  0  0
    7.4230   -0.6430   27.6280 C   0  0  0  0  0  0  0  0  0  0  0  0
    6.6860   -1.9460   27.7750 C   0  0  0  0  0  0  0  0  0  0  0  0
    6.5670   -2.6080   26.4200 C   0  0  2  0  0  0  0  0  0  0  0  0
    5.9060   -1.7720   25.5430 C   0  0  0  0  0  0  0  0  0  0  0  0
    6.8200   -3.2030   23.4720 C   0  0  0  0  0  0  0  0  0  0  0  0
    7.6140   -3.4170   22.2240 C   0  0  0  0  0  0  0  0  0  0  0  0
  1  2  1  0
  2  3  2  0
  2  4  1  0
  4  5  1  0
  5  6  1  0
  6  7  1  0
  7  8  1  0
  8  9  2  0
  8 10  1  0
 10 11  1  0
 11 12  1  0
 12 13  1  0
 13 14  2  0
 14 15  1  0
 15 16  1  0
 15 17  2  0
 17 18  1  0
 17 19  1  0
 13 20  1  0
 19 20  2  0
 10 21  1  0
 20 21  1  0
 21 22  1  6
  7 23  1  0
  4 24  1  0
 23 24  1  0
M  END
