piperidine-amides-14114-covalent
     RDKit          3D

 25 26  0  0  0  0  0  0  0  0999 V2000
    7.0910   -3.2770   19.2430 C   0  0  0  0  0  0  0  0  0  0  0  0
    6.3440   -4.0620   20.2700 C   0  0  0  0  0  0  0  0  0  0  0  0
    5.3220   -4.6800   19.9310 O   0  0  0  0  0  0  0  0  0  0  0  0
    6.8380   -4.1140   21.5910 N   0  0  0  0  0  0  0  0  0  0  0  0
    7.7290   -3.0840   22.0950 C   0  0  0  0  0  0  0  0  0  0  0  0
    7.5250   -2.9860   23.6010 C   0  0  0  0  0  0  0  0  0  0  0  0
    6.1630   -3.5160   23.8640 C   0  0  0  0  0  0  0  0  0  0  0  0
    5.7020   -3.2240   25.2340 C   0  0  0  0  0  0  0  0  0  0  0  0
    4.5100   -3.4350   25.4780 O   0  0  0  0  0  0  0  0  0  0  0  0
    6.6130   -2.7290   26.1680 N   0  0  0  0  0  0  0  0  0  0  0  0
    6.4780   -1.5430   26.9310 C   0  0  0  0  0  0  0  0  0  0  0  0
    5.6550   -1.4370   28.0220 C   0  0  0  0  0  0  0  0  0  0  0  0
    4.9690   -2.5640   28.5030 C   0  0  0  0  0  0  0  0  0  0  0  0
    4.1330   -2.5040   29.5930 C   0  0  0  0  0  0  0  0  0  0  0  0
    3.9340   -1.2180   30.3000 C   0  0  0  0  0  0  0  0  0  0  0  0
    4.6500    0.0450   29.8300 C   0  0  0  0  0  0  0  0  0  0  0  0
    4.4870    1.6360   30.5930 S   0  0  0  0  0  0  0  0  0  0  0  0
    5.1290    2.6480   29.6620 O   0  0  0  0  0  0  0  0  0  0  0  0
    5.2460    1.6140   31.8810 O   0  0  0  0  0  0  0  0  0  0  0  0
    2.8310    2.0410   30.7790 N   0  0  0  0  0  0  0  0  0  0  0  0
    2.0480    1.3730   29.8020 C   0  0  0  0  0  0  0  0  0  0  0  0
    2.5500    3.3550   30.7790 C   0  0  0  0  0  0  0  0  0  0  0  0
    5.5200   -0.2210   28.6220 C   0  0  0  0  0  0  0  0  0  0  0  0
    5.9970   -4.9720   23.5700 C   0  0  0  0  0  0  0  0  0  0  0  0
    6.6380   -5.2900   22.3980 C   0  0  0  0  0  0  0  0  0  0  0  0
  1  2  1  0
  2  3  2  0
  2  4  1  0
  4  5  1  0
  5  6  1  0
  6  7  1  0
  7  8  1  0
  8  9  2  0
  8 10  1  0
 10 11  1  0
 11 12  1  0
 12 13  2  0
 13 14  1  0
 14 15  2  0
 15 16  1  0
 16 17  1  0
 17 18  2  0
 17 19  2  0
 17 20  1  0
 20 21  1  0
 20 22  1  0
 12 23  1  0
 16 23  2  0
  7 24  1  0
  4 25  1  0
 24 25  1  0
M  END
