piperidine-amides-4035-covalent
     RDKit          3D

 28 29  0  0  0  0  0  0  0  0999 V2000
    7.1720   -3.2640   19.1870 C   0  0  0  0  0  0  0  0  0  0  0  0
    6.4140   -4.0150   20.1990 C   0  0  0  0  0  0  0  0  0  0  0  0
    5.2980   -4.4770   19.8600 O   0  0  0  0  0  0  0  0  0  0  0  0
    6.9630   -4.2590   21.4770 N   0  0  0  0  0  0  0  0  0  0  0  0
    7.6710   -3.2030   22.1080 C   0  0  0  0  0  0  0  0  0  0  0  0
    7.1890   -2.9030   23.4430 C   0  0  0  0  0  0  0  0  0  0  0  0
    5.8960   -3.5330   23.7840 C   0  0  0  0  0  0  0  0  0  0  0  0
    5.5690   -3.2540   25.2060 C   0  0  0  0  0  0  0  0  0  0  0  0
    4.6890   -2.4220   25.5000 O   0  0  0  0  0  0  0  0  0  0  0  0
    6.2480   -3.9330   26.2110 N   0  0  0  0  0  0  0  0  0  0  0  0
    5.7440   -4.5080   27.3860 C   0  0  0  0  0  0  0  0  0  0  0  0
    6.2560   -5.7680   27.8660 C   0  0  2  0  0  0  0  0  0  0  0  0
    5.9780   -5.9230   29.3670 C   0  0  0  0  0  0  0  0  0  0  0  0
    4.8470   -6.6370   29.6970 C   0  0  0  0  0  0  0  0  0  0  0  0
    4.8550   -7.1270   31.1260 C   0  0  0  0  0  0  0  0  0  0  0  0
    3.5680   -7.9000   31.4040 C   0  0  0  0  0  0  0  0  0  0  0  0
    2.5070   -8.0560   30.2420 C   0  0  0  0  0  0  0  0  0  0  0  0
    1.3130   -8.7500   30.4240 O   0  0  0  0  0  0  0  0  0  0  0  0
    0.3100   -8.2660   31.3120 C   0  0  0  0  0  0  0  0  0  0  0  0
    2.5820   -7.5200   28.8030 C   0  0  0  0  0  0  0  0  0  0  0  0
    1.6580   -7.6610   27.8050 F   0  0  0  0  0  0  0  0  0  0  0  0
    3.8610   -6.7730   28.5890 C   0  0  0  0  0  0  0  0  0  0  0  0
    7.7430   -5.8430   27.5690 C   0  0  0  0  0  0  0  0  0  0  0  0
    8.6360   -5.9250   28.5910 O   0  0  0  0  0  0  0  0  0  0  0  0
    8.3180   -5.8120   26.3050 N   0  0  0  0  0  0  0  0  0  0  0  0
    9.6150   -6.3080   26.1730 C   0  0  0  0  0  0  0  0  0  0  0  0
    5.7770   -4.9930   23.4670 C   0  0  0  0  0  0  0  0  0  0  0  0
    6.5320   -5.4020   22.2230 C   0  0  0  0  0  0  0  0  0  0  0  0
  1  2  1  0
  2  3  2  0
  2  4  1  0
  4  5  1  0
  5  6  1  0
  6  7  1  0
  7  8  1  0
  8  9  2  0
  8 10  1  0
 10 11  1  0
 12 11  1  1
 12 13  1  0
 13 14  1  0
 14 15  2  0
 15 16  1  0
 16 17  2  0
 17 18  1  0
 18 19  1  0
 17 20  1  0
 20 21  1  0
 14 22  1  0
 20 22  2  0
 12 23  1  0
 23 24  2  0
 23 25  1  0
 25 26  1  0
  7 27  1  0
  4 28  1  0
 27 28  1  0
M  END
