piperidine-amides-15171-covalent
     RDKit          3D

 19 20  0  0  0  0  0  0  0  0999 V2000
    7.1080   -3.2760   19.2200 C   0  0  0  0  0  0  0  0  0  0  0  0
    6.3670   -4.0430   20.2210 C   0  0  0  0  0  0  0  0  0  0  0  0
    5.2840   -4.5470   19.8860 O   0  0  0  0  0  0  0  0  0  0  0  0
    6.9070   -4.2550   21.5140 N   0  0  0  0  0  0  0  0  0  0  0  0
    7.6480   -3.1910   22.1340 C   0  0  0  0  0  0  0  0  0  0  0  0
    6.8530   -2.6450   23.2750 C   0  0  0  0  0  0  0  0  0  0  0  0
    6.5530   -3.8170   24.1750 C   0  0  0  0  0  0  0  0  0  0  0  0
    5.8130   -3.3370   25.3810 C   0  0  0  0  0  0  0  0  0  0  0  0
    4.6040   -3.1520   25.2400 O   0  0  0  0  0  0  0  0  0  0  0  0
    6.5220   -3.1340   26.5620 N   0  0  0  0  0  0  0  0  0  0  0  0
    6.0000   -3.5150   27.8290 C   0  0  1  0  0  0  0  0  0  0  0  0
    6.6330   -4.5660   28.5190 C   0  0  0  0  0  0  0  0  0  0  0  0
    6.1760   -2.3270   28.6880 C   0  0  0  0  0  0  0  0  0  0  0  0
    5.3250   -1.8370   29.6880 N   0  0  0  0  0  0  0  0  0  0  0  0
    5.7840   -0.7520   30.2610 N   0  0  0  0  0  0  0  0  0  0  0  0
    6.9420   -0.5340   29.6340 N   0  0  0  0  0  0  0  0  0  0  0  0
    7.1960   -1.4490   28.6990 N   0  0  0  0  0  0  0  0  0  0  0  0
    5.8270   -4.9340   23.5100 C   0  0  0  0  0  0  0  0  0  0  0  0
    6.4870   -5.4170   22.2620 C   0  0  0  0  0  0  0  0  0  0  0  0
  1  2  1  0
  2  3  2  0
  2  4  1  0
  4  5  1  0
  5  6  1  0
  6  7  1  0
  7  8  1  0
  8  9  2  0
  8 10  1  0
 10 11  1  0
 11 12  1  1
 11 13  1  0
 13 14  2  0
 14 15  1  0
 15 16  2  0
 13 17  1  0
 16 17  1  0
  7 18  1  0
  4 19  1  0
 18 19  1  0
M  END
