piperidine-amides-30690-covalent
     RDKit          3D

 27 29  0  0  0  0  0  0  0  0999 V2000
    7.1000   -3.3610   19.3090 C   0  0  0  0  0  0  0  0  0  0  0  0
    6.4520   -4.2050   20.3090 C   0  0  0  0  0  0  0  0  0  0  0  0
    5.4280   -4.8370   19.9910 O   0  0  0  0  0  0  0  0  0  0  0  0
    7.0160   -4.3470   21.5910 N   0  0  0  0  0  0  0  0  0  0  0  0
    7.8450   -3.3120   22.1800 C   0  0  0  0  0  0  0  0  0  0  0  0
    6.9560   -2.6350   23.1780 C   0  0  0  0  0  0  0  0  0  0  0  0
    6.0740   -3.6360   23.8500 C   0  0  0  0  0  0  0  0  0  0  0  0
    5.7450   -3.2420   25.2430 C   0  0  0  0  0  0  0  0  0  0  0  0
    4.7100   -2.5410   25.4350 O   0  0  0  0  0  0  0  0  0  0  0  0
    6.4690   -3.5620   26.4110 N   0  0  0  0  0  0  0  0  0  0  0  0
    6.0080   -2.8960   27.6480 C   0  0  0  0  0  0  0  0  0  0  0  0
    5.6850   -4.0620   28.4670 C   0  0  0  0  0  0  0  0  0  0  0  0
    6.2300   -5.2500   27.7980 C   0  0  1  0  0  0  0  0  0  0  0  0
    7.1250   -5.9110   28.7810 C   0  0  0  0  0  0  0  0  0  0  0  0
    6.1620   -6.7190   29.6500 C   0  0  0  0  0  0  0  0  0  0  0  0
    4.9890   -6.9600   28.7700 C   0  0  0  0  0  0  0  0  0  0  0  0
    5.2620   -6.3210   27.5370 N   0  0  0  0  0  0  0  0  0  0  0  0
    4.2020   -6.2070   26.6950 C   0  0  0  0  0  0  0  0  0  0  0  0
    3.7990   -7.1920   25.9890 O   0  0  0  0  0  0  0  0  0  0  0  0
    3.6610   -5.0840   26.6630 O   0  0  0  0  0  0  0  0  0  0  0  0
    2.7420   -4.8560   25.6420 C   0  0  0  0  0  0  0  0  0  0  0  0
    1.4870   -5.6960   25.5860 C   0  0  0  0  0  0  0  0  0  0  0  0
    3.4670   -5.0940   24.3560 C   0  0  0  0  0  0  0  0  0  0  0  0
    2.3780   -3.4020   25.5740 C   0  0  0  0  0  0  0  0  0  0  0  0
    6.7990   -4.9690   26.5520 C   0  0  0  0  0  0  0  0  0  0  0  0
    6.4950   -5.0510   23.7350 C   0  0  0  0  0  0  0  0  0  0  0  0
    6.7300   -5.4550   22.4400 C   0  0  0  0  0  0  0  0  0  0  0  0
  1  2  1  0
  2  3  2  0
  2  4  1  0
  4  5  1  0
  5  6  1  0
  6  7  1  0
  7  8  1  0
  8  9  2  0
  8 10  1  0
 10 11  1  0
 11 12  1  0
 13 12  1  1
 13 14  1  0
 14 15  1  0
 15 16  1  0
 13 17  1  0
 16 17  1  0
 17 18  1  0
 18 19  2  0
 18 20  1  0
 21 20  1  0
 21 22  1  0
 21 23  1  0
 21 24  1  0
 10 25  1  0
 13 25  1  0
  7 26  1  0
  4 27  1  0
 26 27  1  0
M  END
