piperidine-amides-33705-covalent
     RDKit          3D

 27 29  0  0  0  0  0  0  0  0999 V2000
    7.0090   -3.3740   19.4350 C   0  0  0  0  0  0  0  0  0  0  0  0
    6.3760   -4.2620   20.4350 C   0  0  0  0  0  0  0  0  0  0  0  0
    5.4190   -4.9560   20.0070 O   0  0  0  0  0  0  0  0  0  0  0  0
    6.8290   -4.3700   21.7910 N   0  0  0  0  0  0  0  0  0  0  0  0
    7.6070   -3.3170   22.3590 C   0  0  0  0  0  0  0  0  0  0  0  0
    7.1740   -2.9820   23.7030 C   0  0  0  0  0  0  0  0  0  0  0  0
    5.9100   -3.6580   24.0400 C   0  0  0  0  0  0  0  0  0  0  0  0
    5.1840   -3.0620   25.2590 C   0  0  0  0  0  0  0  0  0  0  0  0
    4.5460   -2.0250   25.0540 O   0  0  0  0  0  0  0  0  0  0  0  0
    5.1410   -3.5530   26.5970 N   0  0  0  0  0  0  0  0  0  0  0  0
    4.1910   -3.3110   27.6050 C   0  0  0  0  0  0  0  0  0  0  0  0
    4.3990   -3.9670   28.9000 C   0  0  0  0  0  0  0  0  0  0  0  0
    5.5700   -4.4960   29.2720 N   0  0  0  0  0  0  0  0  0  0  0  0
    5.3280   -6.1510   29.2040 S   0  0  0  0  0  0  0  0  0  0  0  0
    6.6390   -6.8050   28.8890 O   0  0  0  0  0  0  0  0  0  0  0  0
    4.3040   -6.5610   28.2070 O   0  0  0  0  0  0  0  0  0  0  0  0
    4.8180   -6.4600   30.8640 C   0  0  0  0  0  0  0  0  0  0  0  0
    5.5960   -7.4860   31.3540 C   0  0  0  0  0  0  0  0  0  0  0  0
    5.3020   -7.9330   32.8430 C   0  0  0  0  0  0  0  0  0  0  0  0
    4.2210   -7.2960   33.7440 C   0  0  0  0  0  0  0  0  0  0  0  0
    3.9010   -7.7950   35.3910 Cl  0  0  0  0  0  0  0  0  0  0  0  0
    3.5110   -6.1960   32.9720 C   0  0  0  0  0  0  0  0  0  0  0  0
    3.7750   -5.7760   31.6020 C   0  0  0  0  0  0  0  0  0  0  0  0
    6.6130   -4.0820   28.5900 C   0  0  0  0  0  0  0  0  0  0  0  0
    6.3390   -4.0130   27.0830 C   0  0  0  0  0  0  0  0  0  0  0  0
    6.0850   -5.1490   23.9570 C   0  0  0  0  0  0  0  0  0  0  0  0
    6.4810   -5.5140   22.6330 C   0  0  0  0  0  0  0  0  0  0  0  0
  1  2  1  0
  2  3  2  0
  2  4  1  0
  4  5  1  0
  5  6  1  0
  6  7  1  0
  7  8  1  0
  8  9  2  0
  8 10  1  0
 10 11  1  0
 11 12  1  0
 12 13  1  0
 13 14  1  0
 14 15  2  0
 14 16  2  0
 14 17  1  0
 17 18  2  0
 18 19  1  0
 19 20  2  0
 20 21  1  0
 20 22  1  0
 17 23  1  0
 22 23  2  0
 13 24  1  0
 10 25  1  0
 24 25  1  0
  7 26  1  0
  4 27  1  0
 26 27  1  0
M  END
