piperidine-amides-3664-covalent
     RDKit          3D

 24 27  0  0  0  0  0  0  0  0999 V2000
    7.1190   -3.3090   19.2380 C   0  0  0  0  0  0  0  0  0  0  0  0
    6.4080   -4.1000   20.2550 C   0  0  0  0  0  0  0  0  0  0  0  0
    5.3280   -4.6390   19.9190 O   0  0  0  0  0  0  0  0  0  0  0  0
    6.9670   -4.2860   21.5410 N   0  0  0  0  0  0  0  0  0  0  0  0
    7.6530   -3.1750   22.1060 C   0  0  0  0  0  0  0  0  0  0  0  0
    7.0760   -2.6700   23.3380 C   0  0  0  0  0  0  0  0  0  0  0  0
    6.6160   -3.7170   24.2560 C   0  0  0  0  0  0  0  0  0  0  0  0
    5.9220   -3.1180   25.4420 C   0  0  0  0  0  0  0  0  0  0  0  0
    4.7380   -3.4430   25.6690 O   0  0  0  0  0  0  0  0  0  0  0  0
    6.5500   -2.1830   26.3020 N   0  0  0  0  0  0  0  0  0  0  0  0
    5.9060   -1.3600   27.2670 C   0  0  1  0  0  0  0  0  0  0  0  0
    6.6060   -0.6760   28.3570 C   0  0  0  0  0  0  0  0  0  0  0  0
    7.5850   -1.5150   29.0260 C   0  0  0  0  0  0  0  0  0  0  0  0
    8.3310   -1.0800   30.0440 C   0  0  0  0  0  0  0  0  0  0  0  0
    8.1780    0.3360   30.6170 C   0  0  0  0  0  0  0  0  0  0  0  0
    7.1670    1.2420   29.9480 C   0  0  0  0  0  0  0  0  0  0  0  0
    6.3580    0.6880   28.7450 C   0  0  0  0  0  0  0  0  0  0  0  0
    5.3500    1.4130   27.9490 C   0  0  1  0  0  0  0  0  0  0  0  0
    5.9710    1.8090   26.6180 C   0  0  0  0  0  0  0  0  0  0  0  0
    5.8870    0.6020   25.6880 C   0  0  0  0  0  0  0  0  0  0  0  0
    5.1010   -0.3260   26.5190 C   0  0  2  0  0  0  0  0  0  0  0  0
    4.3510    0.3350   27.5040 C   0  0  0  0  0  0  0  0  0  0  0  0
    5.8500   -4.8330   23.6190 C   0  0  0  0  0  0  0  0  0  0  0  0
    6.4960   -5.3660   22.3630 C   0  0  0  0  0  0  0  0  0  0  0  0
  1  2  1  0
  2  3  2  0
  2  4  1  0
  4  5  1  0
  5  6  1  0
  6  7  1  0
  7  8  1  0
  8  9  2  0
  8 10  1  0
 11 10  1  6
 11 12  1  0
 12 13  2  0
 13 14  1  0
 14 15  2  0
 15 16  1  0
 12 17  1  0
 16 17  2  0
 17 18  1  0
 18 19  1  6
 19 20  1  0
 11 21  1  0
 21 20  1  1
 18 22  1  0
 21 22  1  0
  7 23  1  0
  4 24  1  0
 23 24  1  0
M  END
