piperidine-amides-29962-covalent
     RDKit          3D

 27 30  0  0  0  0  0  0  0  0999 V2000
    6.9790   -3.3910   19.4220 C   0  0  0  0  0  0  0  0  0  0  0  0
    6.3460   -4.2770   20.3990 C   0  0  0  0  0  0  0  0  0  0  0  0
    5.4150   -4.9850   20.0160 O   0  0  0  0  0  0  0  0  0  0  0  0
    6.8140   -4.3650   21.7740 N   0  0  0  0  0  0  0  0  0  0  0  0
    7.6480   -3.3250   22.3500 C   0  0  0  0  0  0  0  0  0  0  0  0
    7.2100   -2.9860   23.7590 C   0  0  0  0  0  0  0  0  0  0  0  0
    5.8400   -3.6110   23.9380 C   0  0  0  0  0  0  0  0  0  0  0  0
    5.0420   -3.0510   25.1090 C   0  0  0  0  0  0  0  0  0  0  0  0
    4.2530   -2.1270   24.8990 O   0  0  0  0  0  0  0  0  0  0  0  0
    5.0940   -3.4870   26.4680 N   0  0  0  0  0  0  0  0  0  0  0  0
    6.2790   -4.1380   26.7980 C   0  0  0  0  0  0  0  0  0  0  0  0
    6.5610   -4.3590   28.2750 C   0  0  0  0  0  0  0  0  0  0  0  0
    5.7720   -3.7290   29.1380 C   0  0  0  0  0  0  0  0  0  0  0  0
    6.1390   -2.3930   29.4490 C   0  0  0  0  0  0  0  0  0  0  0  0
    7.2770   -1.7220   28.8810 N   0  0  0  0  0  0  0  0  0  0  0  0
    7.3250   -0.5070   29.3940 O   0  0  0  0  0  0  0  0  0  0  0  0
    6.2080   -0.4660   30.2640 C   0  0  0  0  0  0  0  0  0  0  0  0
    5.8560    0.6890   31.0570 C   0  0  0  0  0  0  0  0  0  0  0  0
    4.7460    0.6440   31.8840 C   0  0  0  0  0  0  0  0  0  0  0  0
    4.3870    1.7000   32.6340 F   0  0  0  0  0  0  0  0  0  0  0  0
    3.9900   -0.5320   31.9270 C   0  0  0  0  0  0  0  0  0  0  0  0
    4.2940   -1.6780   31.1760 C   0  0  0  0  0  0  0  0  0  0  0  0
    5.4720   -1.5770   30.3220 C   0  0  0  0  0  0  0  0  0  0  0  0
    4.5190   -3.5740   28.6940 C   0  0  0  0  0  0  0  0  0  0  0  0
    4.4240   -2.7970   27.5590 C   0  0  0  0  0  0  0  0  0  0  0  0
    5.9560   -5.1120   23.9100 C   0  0  0  0  0  0  0  0  0  0  0  0
    6.5700   -5.5630   22.5600 C   0  0  0  0  0  0  0  0  0  0  0  0
  1  2  1  0
  2  3  2  0
  2  4  1  0
  4  5  1  0
  5  6  1  0
  6  7  1  0
  7  8  1  0
  8  9  2  0
  8 10  1  0
 10 11  1  0
 11 12  1  0
 12 13  1  0
 13 14  1  0
 14 15  2  0
 15 16  1  0
 16 17  1  0
 17 18  1  0
 18 19  2  0
 19 20  1  0
 19 21  1  0
 21 22  2  0
 14 23  1  0
 17 23  2  0
 22 23  1  0
 13 24  1  0
 10 25  1  0
 24 25  1  0
  7 26  1  0
  4 27  1  0
 26 27  1  0
M  END
