piperidine-amides-29745-covalent
     RDKit          3D

 27 30  0  0  0  0  0  0  0  0999 V2000
    7.1090   -3.3350   19.3030 C   0  0  0  0  0  0  0  0  0  0  0  0
    6.4150   -4.1800   20.2610 C   0  0  0  0  0  0  0  0  0  0  0  0
    5.3670   -4.7520   19.9560 O   0  0  0  0  0  0  0  0  0  0  0  0
    7.0030   -4.3920   21.5450 N   0  0  0  0  0  0  0  0  0  0  0  0
    7.7750   -3.3410   22.1570 C   0  0  0  0  0  0  0  0  0  0  0  0
    7.0050   -2.7660   23.2910 C   0  0  0  0  0  0  0  0  0  0  0  0
    6.6670   -3.9180   24.2050 C   0  0  0  0  0  0  0  0  0  0  0  0
    5.8210   -3.4030   25.3020 C   0  0  0  0  0  0  0  0  0  0  0  0
    4.8470   -2.6590   25.0830 O   0  0  0  0  0  0  0  0  0  0  0  0
    6.0940   -3.7590   26.6350 N   0  0  0  0  0  0  0  0  0  0  0  0
    5.4150   -4.9790   27.0170 C   0  0  0  0  0  0  0  0  0  0  0  0
    5.6070   -5.2840   28.4680 C   0  0  0  0  0  0  0  0  0  0  0  0
    5.6320   -4.3030   29.3230 N   0  0  0  0  0  0  0  0  0  0  0  0
    4.3810   -3.7780   29.4490 C   0  0  0  0  0  0  0  0  0  0  0  0
    3.2350   -4.2630   28.7930 C   0  0  0  0  0  0  0  0  0  0  0  0
    2.5990   -4.5860   29.9210 N   0  0  0  0  0  0  0  0  0  0  0  0
    2.2020   -5.8100   30.2560 C   0  0  0  0  0  0  0  0  0  0  0  0
    2.9880   -6.8460   30.9060 C   0  0  0  0  0  0  0  0  0  0  0  0
    2.4490   -8.0680   31.1930 C   0  0  0  0  0  0  0  0  0  0  0  0
    1.1330   -8.2500   30.8300 C   0  0  0  0  0  0  0  0  0  0  0  0
    0.3880   -7.2470   30.2050 C   0  0  0  0  0  0  0  0  0  0  0  0
    0.9150   -6.0090   29.9090 N   0  0  0  0  0  0  0  0  0  0  0  0
    3.7540   -4.0630   30.6540 C   0  0  0  0  0  0  0  0  0  0  0  0
    6.5650   -3.3630   28.8680 C   0  0  0  0  0  0  0  0  0  0  0  0
    6.2640   -2.7530   27.6610 C   0  0  0  0  0  0  0  0  0  0  0  0
    5.8740   -5.0080   23.5120 C   0  0  0  0  0  0  0  0  0  0  0  0
    6.6770   -5.5460   22.3280 C   0  0  0  0  0  0  0  0  0  0  0  0
  1  2  1  0
  2  3  2  0
  2  4  1  0
  4  5  1  0
  5  6  1  0
  6  7  1  0
  7  8  1  0
  8  9  2  0
  8 10  1  0
 10 11  1  0
 11 12  1  0
 12 13  1  0
 13 14  1  0
 14 15  1  0
 15 16  1  0
 16 17  1  0
 17 18  2  0
 18 19  1  0
 19 20  2  0
 20 21  1  0
 17 22  1  0
 21 22  2  0
 14 23  1  0
 16 23  1  0
 13 24  1  0
 10 25  1  0
 24 25  1  0
  7 26  1  0
  4 27  1  0
 26 27  1  0
M  END
