piperidine-amides-7360-covalent
     RDKit          3D

 20 21  0  0  0  0  0  0  0  0999 V2000
    7.1130   -3.2800   19.2180 C   0  0  0  0  0  0  0  0  0  0  0  0
    6.3670   -4.0410   20.2260 C   0  0  0  0  0  0  0  0  0  0  0  0
    5.2630   -4.5190   19.8680 O   0  0  0  0  0  0  0  0  0  0  0  0
    6.9120   -4.2580   21.4930 N   0  0  0  0  0  0  0  0  0  0  0  0
    6.5170   -5.3840   22.2950 C   0  0  0  0  0  0  0  0  0  0  0  0
    5.8620   -4.8450   23.5380 C   0  0  0  0  0  0  0  0  0  0  0  0
    6.6770   -3.7490   24.1750 C   0  0  0  0  0  0  0  0  0  0  0  0
    5.9430   -3.1930   25.3230 C   0  0  0  0  0  0  0  0  0  0  0  0
    4.7240   -3.4620   25.4420 O   0  0  0  0  0  0  0  0  0  0  0  0
    6.5580   -2.3660   26.2760 N   0  0  0  0  0  0  0  0  0  0  0  0
    6.3010   -2.5330   27.6760 C   0  0  0  0  0  0  0  0  0  0  0  0
    6.6940   -1.3100   28.5100 C   0  0  0  0  0  0  0  0  0  0  0  0
    5.9570    0.2200   28.0140 S   0  0  0  0  0  0  0  0  0  0  0  0
    4.4540    0.3920   28.9640 C   0  0  0  0  0  0  0  0  0  0  0  0
    5.6330    0.2050   26.5660 O   0  0  0  0  0  0  0  0  0  0  0  0
    6.9300    1.2870   28.3820 O   0  0  0  0  0  0  0  0  0  0  0  0
    6.3670   -1.5920   29.9530 C   0  0  0  0  0  0  0  0  0  0  0  0
    7.6170   -1.1870   29.4640 C   0  0  0  0  0  0  0  0  0  0  0  0
    6.9950   -2.6920   23.1710 C   0  0  0  0  0  0  0  0  0  0  0  0
    7.6780   -3.2320   22.1190 C   0  0  0  0  0  0  0  0  0  0  0  0
  1  2  1  0
  2  3  2  0
  2  4  1  0
  4  5  1  0
  5  6  1  0
  6  7  1  0
  7  8  1  0
  8  9  2  0
  8 10  1  0
 10 11  1  0
 12 11  1  0
 12 13  1  0
 13 14  1  0
 13 15  2  0
 13 16  2  0
 12 17  1  0
 12 18  1  0
 17 18  1  0
  7 19  1  0
  4 20  1  0
 19 20  1  0
M  END
