piperidine-amides-23412-covalent
     RDKit          3D

 24 26  0  0  0  0  0  0  0  0999 V2000
    7.0190   -3.3290   19.3110 C   0  0  0  0  0  0  0  0  0  0  0  0
    6.3820   -4.1930   20.3230 C   0  0  0  0  0  0  0  0  0  0  0  0
    5.3650   -4.8330   19.9690 O   0  0  0  0  0  0  0  0  0  0  0  0
    6.9220   -4.3350   21.6270 N   0  0  0  0  0  0  0  0  0  0  0  0
    6.6370   -5.5200   22.3580 C   0  0  0  0  0  0  0  0  0  0  0  0
    6.1530   -5.2170   23.6910 C   0  0  0  0  0  0  0  0  0  0  0  0
    6.2940   -3.7860   23.9880 C   0  0  0  0  0  0  0  0  0  0  0  0
    5.9600   -3.4220   25.4140 C   0  0  0  0  0  0  0  0  0  0  0  0
    4.8640   -2.8520   25.6010 O   0  0  0  0  0  0  0  0  0  0  0  0
    6.7550   -3.6810   26.5670 N   0  0  0  0  0  0  0  0  0  0  0  0
    6.1520   -3.5210   27.8380 C   0  0  0  0  0  0  0  0  0  0  0  0
    5.9250   -4.7200   28.6010 C   0  0  0  0  0  0  0  0  0  0  0  0
    6.3640   -5.7420   28.0080 O   0  0  0  0  0  0  0  0  0  0  0  0
    7.6700   -5.5450   27.6310 C   0  0  0  0  0  0  0  0  0  0  0  0
    7.7250   -4.7730   26.4720 C   0  0  2  0  0  0  0  0  0  0  0  0
    9.1880   -4.5860   26.9300 C   0  0  0  0  0  0  0  0  0  0  0  0
    9.5690   -3.5370   25.9300 C   0  0  0  0  0  0  0  0  0  0  0  0
   11.0310   -3.8760   25.7230 C   0  0  0  0  0  0  0  0  0  0  0  0
   11.9110   -3.0970   24.7990 C   0  0  0  0  0  0  0  0  0  0  0  0
   11.2380   -1.9450   24.0720 C   0  0  0  0  0  0  0  0  0  0  0  0
    9.7330   -1.6270   24.3060 C   0  0  0  0  0  0  0  0  0  0  0  0
    8.9800   -2.4930   25.2700 C   0  0  0  0  0  0  0  0  0  0  0  0
    7.5910   -3.2140   23.5230 C   0  0  0  0  0  0  0  0  0  0  0  0
    7.8020   -3.3210   22.1550 C   0  0  0  0  0  0  0  0  0  0  0  0
  1  2  1  0
  2  3  2  0
  2  4  1  0
  4  5  1  0
  5  6  1  0
  6  7  1  0
  7  8  1  0
  8  9  2  0
  8 10  1  0
 10 11  1  0
 11 12  1  0
 12 13  1  0
 13 14  1  0
 10 15  1  0
 14 15  1  0
 15 16  1  1
 16 17  1  0
 17 18  2  0
 18 19  1  0
 19 20  2  0
 20 21  1  0
 17 22  1  0
 21 22  2  0
  7 23  1  0
  4 24  1  0
 23 24  1  0
M  END
