piperidine-amides-25593-covalent
     RDKit          3D

 24 26  0  0  0  0  0  0  0  0999 V2000
    7.0450   -3.3840   19.4270 C   0  0  0  0  0  0  0  0  0  0  0  0
    6.3690   -4.2520   20.4250 C   0  0  0  0  0  0  0  0  0  0  0  0
    5.4260   -4.9280   20.0050 O   0  0  0  0  0  0  0  0  0  0  0  0
    6.8290   -4.3130   21.7580 N   0  0  0  0  0  0  0  0  0  0  0  0
    6.5420   -5.4220   22.6210 C   0  0  0  0  0  0  0  0  0  0  0  0
    5.8320   -4.9390   23.8770 C   0  0  0  0  0  0  0  0  0  0  0  0
    6.4370   -3.6410   24.4720 C   0  0  0  0  0  0  0  0  0  0  0  0
    5.4600   -3.1190   25.5000 C   0  0  0  0  0  0  0  0  0  0  0  0
    4.4490   -2.5760   25.0580 O   0  0  0  0  0  0  0  0  0  0  0  0
    5.5890   -3.2060   26.9410 N   0  0  0  0  0  0  0  0  0  0  0  0
    4.4400   -2.9870   27.6740 C   0  0  0  0  0  0  0  0  0  0  0  0
    3.9580   -4.3710   27.5270 C   0  0  0  0  0  0  0  0  0  0  0  0
    4.4620   -5.1140   28.6530 N   0  0  0  0  0  0  0  0  0  0  0  0
    3.5190   -5.7770   29.5870 N   0  0  0  0  0  0  0  0  0  0  0  0
    4.4720   -6.2250   30.2870 C   0  0  0  0  0  0  0  0  0  0  0  0
    4.7630   -6.9750   31.3870 C   0  0  0  0  0  0  0  0  0  0  0  0
    3.9180   -8.0780   31.5030 F   0  0  0  0  0  0  0  0  0  0  0  0
    4.5430   -6.3110   32.6090 F   0  0  0  0  0  0  0  0  0  0  0  0
    6.0490   -7.4560   31.3680 F   0  0  0  0  0  0  0  0  0  0  0  0
    4.9810   -5.4700   29.2100 C   0  0  0  0  0  0  0  0  0  0  0  0
    6.1440   -5.0940   28.7130 C   0  0  0  0  0  0  0  0  0  0  0  0
    6.3400   -4.2610   27.4350 C   0  0  0  0  0  0  0  0  0  0  0  0
    6.7320   -2.5960   23.4660 C   0  0  0  0  0  0  0  0  0  0  0  0
    7.4860   -3.1610   22.3050 C   0  0  0  0  0  0  0  0  0  0  0  0
  1  2  1  0
  2  3  2  0
  2  4  1  0
  4  5  1  0
  5  6  1  0
  6  7  1  0
  7  8  1  0
  8  9  2  0
  8 10  1  0
 10 11  1  0
 11 12  1  0
 12 13  1  0
 13 14  1  0
 14 15  2  0
 15 16  1  0
 16 17  1  0
 16 18  1  0
 16 19  1  0
 15 20  1  0
 13 21  1  0
 20 21  2  0
 10 22  1  0
 21 22  1  0
  7 23  1  0
  4 24  1  0
 23 24  1  0
M  END
