piperidine-amides-14884-covalent
     RDKit          3D

 21 21  0  0  0  0  0  0  0  0999 V2000
    7.1880   -3.2850   19.2000 C   0  0  0  0  0  0  0  0  0  0  0  0
    6.3930   -3.9980   20.1910 C   0  0  0  0  0  0  0  0  0  0  0  0
    5.2880   -4.4550   19.8540 O   0  0  0  0  0  0  0  0  0  0  0  0
    6.9280   -4.2160   21.4810 N   0  0  0  0  0  0  0  0  0  0  0  0
    7.7390   -3.1850   22.0710 C   0  0  0  0  0  0  0  0  0  0  0  0
    7.0080   -2.5710   23.2150 C   0  0  0  0  0  0  0  0  0  0  0  0
    6.5090   -3.7220   24.0450 C   0  0  0  0  0  0  0  0  0  0  0  0
    5.8060   -3.1670   25.2300 C   0  0  0  0  0  0  0  0  0  0  0  0
    4.7680   -2.5450   25.0190 O   0  0  0  0  0  0  0  0  0  0  0  0
    6.3660   -3.4020   26.4730 N   0  0  0  0  0  0  0  0  0  0  0  0
    5.6700   -4.1920   27.4090 C   0  0  0  0  0  0  0  0  0  0  0  0
    6.1080   -4.1650   28.7110 C   0  0  0  0  0  0  0  0  0  0  0  0
    7.2160   -4.9630   28.9440 F   0  0  0  0  0  0  0  0  0  0  0  0
    6.3720   -2.8600   29.0640 F   0  0  0  0  0  0  0  0  0  0  0  0
    5.0240   -4.6800   29.4230 F   0  0  0  0  0  0  0  0  0  0  0  0
    5.7940   -5.6050   27.0180 C   0  0  0  0  0  0  0  0  0  0  0  0
    6.6860   -6.2980   27.7650 F   0  0  0  0  0  0  0  0  0  0  0  0
    4.5320   -6.1840   27.2030 F   0  0  0  0  0  0  0  0  0  0  0  0
    6.0630   -5.7050   25.6840 F   0  0  0  0  0  0  0  0  0  0  0  0
    5.6490   -4.6900   23.3060 C   0  0  0  0  0  0  0  0  0  0  0  0
    6.4520   -5.3470   22.2390 C   0  0  0  0  0  0  0  0  0  0  0  0
  1  2  1  0
  2  3  2  0
  2  4  1  0
  4  5  1  0
  5  6  1  0
  6  7  1  0
  7  8  1  0
  8  9  2  0
  8 10  1  0
 10 11  1  0
 11 12  1  0
 12 13  1  0
 12 14  1  0
 12 15  1  0
 11 16  1  0
 16 17  1  0
 16 18  1  0
 16 19  1  0
  7 20  1  0
  4 21  1  0
 20 21  1  0
M  END
