piperidine-amides-5092-covalent
     RDKit          3D

 22 23  0  0  0  0  0  0  0  0999 V2000
    7.1150   -3.2690   19.1880 C   0  0  0  0  0  0  0  0  0  0  0  0
    6.3640   -4.0310   20.2130 C   0  0  0  0  0  0  0  0  0  0  0  0
    5.2790   -4.5340   19.8700 O   0  0  0  0  0  0  0  0  0  0  0  0
    6.8980   -4.2070   21.4900 N   0  0  0  0  0  0  0  0  0  0  0  0
    7.5910   -3.1250   22.0900 C   0  0  0  0  0  0  0  0  0  0  0  0
    6.9670   -2.6880   23.3230 C   0  0  0  0  0  0  0  0  0  0  0  0
    6.5900   -3.8080   24.2110 C   0  0  0  0  0  0  0  0  0  0  0  0
    5.8420   -3.2840   25.3690 C   0  0  0  0  0  0  0  0  0  0  0  0
    4.6010   -3.1620   25.2720 O   0  0  0  0  0  0  0  0  0  0  0  0
    6.5100   -2.9350   26.5510 N   0  0  0  0  0  0  0  0  0  0  0  0
    6.2110   -3.5590   27.8510 C   0  0  2  0  0  0  0  0  0  0  0  0
    6.0990   -2.4630   28.8660 C   0  0  0  0  0  0  0  0  0  0  0  0
    7.1710   -1.5770   29.2690 C   0  0  0  0  0  0  0  0  0  0  0  0
    6.9080   -0.6280   30.2040 C   0  0  0  0  0  0  0  0  0  0  0  0
    5.6640   -0.4790   30.7770 C   0  0  0  0  0  0  0  0  0  0  0  0
    4.6130   -1.2930   30.4280 C   0  0  0  0  0  0  0  0  0  0  0  0
    4.7200   -2.3050   29.4940 C   0  0  0  0  0  0  0  0  0  0  0  0
    6.8740   -4.7590   28.2220 C   0  0  0  0  0  0  0  0  0  0  0  0
    5.9650   -5.5250   28.9090 F   0  0  0  0  0  0  0  0  0  0  0  0
    7.1980   -5.5160   27.1100 F   0  0  0  0  0  0  0  0  0  0  0  0
    5.8050   -4.8470   23.4470 C   0  0  0  0  0  0  0  0  0  0  0  0
    6.6140   -5.3630   22.3130 C   0  0  0  0  0  0  0  0  0  0  0  0
  1  2  1  0
  2  3  2  0
  2  4  1  0
  4  5  1  0
  5  6  1  0
  6  7  1  0
  7  8  1  0
  8  9  2  0
  8 10  1  0
 11 10  1  6
 11 12  1  0
 12 13  2  0
 13 14  1  0
 14 15  2  0
 15 16  1  0
 12 17  1  0
 16 17  2  0
 11 18  1  0
 18 19  1  0
 18 20  1  0
  7 21  1  0
  4 22  1  0
 21 22  1  0
M  END
