piperidine-amides-27048-covalent
     RDKit          3D

 25 27  0  0  0  0  0  0  0  0999 V2000
    6.9900   -3.3870   19.4400 C   0  0  0  0  0  0  0  0  0  0  0  0
    6.3620   -4.2710   20.4320 C   0  0  0  0  0  0  0  0  0  0  0  0
    5.4030   -4.9650   20.0060 O   0  0  0  0  0  0  0  0  0  0  0  0
    6.8360   -4.3490   21.7540 N   0  0  0  0  0  0  0  0  0  0  0  0
    6.6910   -5.5780   22.5190 C   0  0  0  0  0  0  0  0  0  0  0  0
    6.1210   -5.2430   23.8780 C   0  0  0  0  0  0  0  0  0  0  0  0
    5.9670   -3.7570   24.0260 C   0  0  0  0  0  0  0  0  0  0  0  0
    5.5190   -3.2800   25.3830 C   0  0  0  0  0  0  0  0  0  0  0  0
    5.0620   -2.1250   25.4060 O   0  0  0  0  0  0  0  0  0  0  0  0
    5.5320   -3.9610   26.6370 N   0  0  0  0  0  0  0  0  0  0  0  0
    6.5300   -3.6320   27.5970 C   0  0  0  0  0  0  0  0  0  0  0  0
    7.0080   -4.9340   28.1930 C   0  0  0  0  0  0  0  0  0  0  0  0
    6.1540   -5.5620   28.9480 C   0  0  0  0  0  0  0  0  0  0  0  0
    4.9170   -5.0240   28.8580 C   0  0  0  0  0  0  0  0  0  0  0  0
    4.0070   -5.2740   29.8750 C   0  0  0  0  0  0  0  0  0  0  0  0
    2.7360   -4.7590   29.8600 C   0  0  0  0  0  0  0  0  0  0  0  0
    2.3420   -3.9740   28.8110 C   0  0  0  0  0  0  0  0  0  0  0  0
    3.2970   -3.6760   27.6760 C   0  0  0  0  0  0  0  0  0  0  0  0
    2.8210   -2.8860   26.6610 O   0  0  0  0  0  0  0  0  0  0  0  0
    1.5360   -2.4240   26.4890 C   0  0  0  0  0  0  0  0  0  0  0  0
    1.0050   -3.0380   25.3790 F   0  0  0  0  0  0  0  0  0  0  0  0
    1.4230   -1.0410   26.3220 F   0  0  0  0  0  0  0  0  0  0  0  0
    4.5770   -4.2260   27.7430 C   0  0  0  0  0  0  0  0  0  0  0  0
    7.2280   -3.0320   23.6400 C   0  0  0  0  0  0  0  0  0  0  0  0
    7.6650   -3.2840   22.3560 C   0  0  0  0  0  0  0  0  0  0  0  0
  1  2  1  0
  2  3  2  0
  2  4  1  0
  4  5  1  0
  5  6  1  0
  6  7  1  0
  7  8  1  0
  8  9  2  0
  8 10  1  0
 10 11  1  0
 11 12  1  0
 12 13  1  0
 13 14  1  0
 14 15  2  0
 15 16  1  0
 16 17  2  0
 17 18  1  0
 18 19  1  0
 19 20  1  0
 20 21  1  0
 20 22  1  0
 10 23  1  0
 14 23  1  0
 18 23  2  0
  7 24  1  0
  4 25  1  0
 24 25  1  0
M  END
