piperidine-amides-27712-covalent
     RDKit          3D

 26 28  0  0  0  0  0  0  0  0999 V2000
    7.1060   -3.3830   19.3340 C   0  0  0  0  0  0  0  0  0  0  0  0
    6.4130   -4.2010   20.3450 C   0  0  0  0  0  0  0  0  0  0  0  0
    5.3660   -4.7690   19.9710 O   0  0  0  0  0  0  0  0  0  0  0  0
    6.9650   -4.3660   21.6250 N   0  0  0  0  0  0  0  0  0  0  0  0
    6.6280   -5.5180   22.3960 C   0  0  0  0  0  0  0  0  0  0  0  0
    5.9830   -5.1580   23.6550 C   0  0  0  0  0  0  0  0  0  0  0  0
    5.8970   -3.6920   23.8240 C   0  0  0  0  0  0  0  0  0  0  0  0
    5.2400   -3.3110   25.0960 C   0  0  0  0  0  0  0  0  0  0  0  0
    4.4040   -2.3950   25.0560 O   0  0  0  0  0  0  0  0  0  0  0  0
    5.5170   -3.9390   26.3120 N   0  0  0  0  0  0  0  0  0  0  0  0
    6.6590   -3.6590   27.0880 C   0  0  0  0  0  0  0  0  0  0  0  0
    7.2110   -2.3590   27.1140 C   0  0  0  0  0  0  0  0  0  0  0  0
    8.2600   -2.4370   27.9830 C   0  0  0  0  0  0  0  0  0  0  0  0
    8.5620   -3.6430   28.5950 C   0  0  0  0  0  0  0  0  0  0  0  0
    8.0950   -4.9860   28.6360 C   0  0  0  0  0  0  0  0  0  0  0  0
    7.0780   -4.7990   27.7800 C   0  0  0  0  0  0  0  0  0  0  0  0
    6.2220   -5.8580   27.4800 N   0  0  0  0  0  0  0  0  0  0  0  0
    4.8730   -5.5190   27.8450 C   0  0  0  0  0  0  0  0  0  0  0  0
    4.0770   -6.1510   28.5600 O   0  0  0  0  0  0  0  0  0  0  0  0
    4.4740   -4.2970   27.2990 C   0  0  1  0  0  0  0  0  0  0  0  0
    4.4010   -3.3020   28.2830 C   0  0  0  0  0  0  0  0  0  0  0  0
    5.0650   -3.6200   29.5620 C   0  0  0  0  0  0  0  0  0  0  0  0
    4.6020   -2.0010   27.8450 C   0  0  0  0  0  0  0  0  0  0  0  0
    2.9570   -3.3450   28.6800 C   0  0  0  0  0  0  0  0  0  0  0  0
    7.1390   -2.9570   23.5600 C   0  0  0  0  0  0  0  0  0  0  0  0
    7.7880   -3.3310   22.2490 C   0  0  0  0  0  0  0  0  0  0  0  0
  1  2  1  0
  2  3  2  0
  2  4  1  0
  4  5  1  0
  5  6  1  0
  6  7  1  0
  7  8  1  0
  8  9  2  0
  8 10  1  0
 10 11  1  0
 11 12  2  0
 12 13  1  0
 13 14  2  0
 14 15  1  0
 11 16  1  0
 15 16  2  0
 16 17  1  0
 17 18  1  0
 18 19  2  0
 10 20  1  0
 18 20  1  0
 20 21  1  1
 21 22  1  0
 21 23  1  0
 21 24  1  0
  7 25  1  0
  4 26  1  0
 25 26  1  0
M  END
