piperidine-amides-4218-covalent
     RDKit          3D

 26 28  0  0  0  0  0  0  0  0999 V2000
    7.0680   -3.3350   19.3330 C   0  0  0  0  0  0  0  0  0  0  0  0
    6.3790   -4.1740   20.3310 C   0  0  0  0  0  0  0  0  0  0  0  0
    5.3470   -4.7800   19.9580 O   0  0  0  0  0  0  0  0  0  0  0  0
    6.8870   -4.3350   21.6470 N   0  0  0  0  0  0  0  0  0  0  0  0
    7.7200   -3.2990   22.1610 C   0  0  0  0  0  0  0  0  0  0  0  0
    7.5570   -3.1340   23.5810 C   0  0  0  0  0  0  0  0  0  0  0  0
    6.3370   -3.8030   24.0380 C   0  0  0  0  0  0  0  0  0  0  0  0
    6.1160   -3.5270   25.4880 C   0  0  0  0  0  0  0  0  0  0  0  0
    5.0900   -3.9510   26.0560 O   0  0  0  0  0  0  0  0  0  0  0  0
    7.0610   -2.7630   26.1940 N   0  0  0  0  0  0  0  0  0  0  0  0
    6.8340   -1.6220   27.0030 C   0  0  0  0  0  0  0  0  0  0  0  0
    7.2340   -1.5470   28.4240 C   0  0  0  0  0  0  0  0  0  0  0  0
    7.0160   -0.3620   29.3220 C   0  0  0  0  0  0  0  0  0  0  0  0
    6.4170    0.6690   28.7590 C   0  0  0  0  0  0  0  0  0  0  0  0
    6.3050    1.7370   29.8460 C   0  0  0  0  0  0  0  0  0  0  0  0
    5.9330    0.7950   27.3320 C   0  0  0  0  0  0  0  0  0  0  0  0
    6.1000   -0.3590   26.2960 C   0  0  0  0  0  0  0  0  0  0  0  0
    5.8320   -0.7410   24.8490 C   0  0  0  0  0  0  0  0  0  0  0  0
    4.8320   -1.8520   24.6910 C   0  0  0  0  0  0  0  0  0  0  0  0
    4.4470   -2.3940   23.3190 C   0  0  0  0  0  0  0  0  0  0  0  0
    5.1530   -1.7060   22.1990 C   0  0  0  0  0  0  0  0  0  0  0  0
    6.0690   -0.6650   22.4140 C   0  0  0  0  0  0  0  0  0  0  0  0
    6.3970   -0.1960   23.6870 C   0  0  0  0  0  0  0  0  0  0  0  0
    7.3100    0.8330   23.7740 F   0  0  0  0  0  0  0  0  0  0  0  0
    6.3420   -5.2610   23.7330 C   0  0  0  0  0  0  0  0  0  0  0  0
    6.6830   -5.5590   22.4020 C   0  0  0  0  0  0  0  0  0  0  0  0
  1  2  1  0
  2  3  2  0
  2  4  1  0
  4  5  1  0
  5  6  1  0
  6  7  1  0
  7  8  1  0
  8  9  2  0
  8 10  1  0
 10 11  1  0
 11 12  2  0
 12 13  1  0
 13 14  2  0
 14 15  1  0
 14 16  1  0
 11 17  1  0
 16 17  2  0
 17 18  1  0
 18 19  2  0
 19 20  1  0
 20 21  2  0
 21 22  1  0
 18 23  1  0
 22 23  2  0
 23 24  1  0
  7 25  1  0
  4 26  1  0
 25 26  1  0
M  END
