piperidine-amides-6783-covalent
     RDKit          3D

 23 25  0  0  0  0  0  0  0  0999 V2000
    7.0830   -3.2770   19.1910 C   0  0  0  0  0  0  0  0  0  0  0  0
    6.3640   -4.0560   20.2150 C   0  0  0  0  0  0  0  0  0  0  0  0
    5.3110   -4.6600   19.9220 O   0  0  0  0  0  0  0  0  0  0  0  0
    6.8690   -4.1750   21.5130 N   0  0  0  0  0  0  0  0  0  0  0  0
    7.7070   -3.1210   22.0450 C   0  0  0  0  0  0  0  0  0  0  0  0
    7.0510   -2.6690   23.3450 C   0  0  0  0  0  0  0  0  0  0  0  0
    6.8970   -3.9120   24.1960 C   0  0  0  0  0  0  0  0  0  0  0  0
    6.3510   -3.5120   25.5040 C   0  0  0  0  0  0  0  0  0  0  0  0
    5.1230   -3.2650   25.5990 O   0  0  0  0  0  0  0  0  0  0  0  0
    7.2500   -3.4110   26.6030 N   0  0  0  0  0  0  0  0  0  0  0  0
    7.5360   -4.5440   27.4500 C   0  0  2  0  0  0  0  0  0  0  0  0
    8.6530   -5.3670   26.8320 C   0  0  0  0  0  0  0  0  0  0  0  0
    6.2950   -5.3530   27.6120 C   0  0  0  0  0  0  0  0  0  0  0  0
    5.4700   -5.7650   26.6370 C   0  0  0  0  0  0  0  0  0  0  0  0
    4.3720   -6.4910   26.9830 C   0  0  0  0  0  0  0  0  0  0  0  0
    4.1370   -6.7830   28.2990 C   0  0  0  0  0  0  0  0  0  0  0  0
    4.8810   -6.4630   29.5490 C   0  0  0  0  0  0  0  0  0  0  0  0
    6.0420   -5.6630   28.9200 C   0  0  0  0  0  0  0  0  0  0  0  0
    4.3800   -6.9180   30.7780 C   0  0  0  0  0  0  0  0  0  0  0  0
    3.1920   -7.5430   30.1530 C   0  0  0  0  0  0  0  0  0  0  0  0
    3.0770   -7.4950   28.8380 O   0  0  0  0  0  0  0  0  0  0  0  0
    5.9530   -4.8680   23.5180 C   0  0  0  0  0  0  0  0  0  0  0  0
    6.4410   -5.2750   22.3090 C   0  0  0  0  0  0  0  0  0  0  0  0
  1  2  1  0
  2  3  2  0
  2  4  1  0
  4  5  1  0
  5  6  1  0
  6  7  1  0
  7  8  1  0
  8  9  2  0
  8 10  1  0
 10 11  1  0
 11 12  1  6
 11 13  1  0
 13 14  2  0
 14 15  1  0
 15 16  2  0
 16 17  1  0
 13 18  1  0
 17 18  2  0
 17 19  1  0
 19 20  1  0
 16 21  1  0
 20 21  1  0
  7 22  1  0
  4 23  1  0
 22 23  1  0
M  END
