piperidine-amides-23368-covalent
     RDKit          3D

 24 26  0  0  0  0  0  0  0  0999 V2000
    7.0250   -3.3520   19.3270 C   0  0  0  0  0  0  0  0  0  0  0  0
    6.3760   -4.1880   20.3530 C   0  0  0  0  0  0  0  0  0  0  0  0
    5.3670   -4.8370   19.9780 O   0  0  0  0  0  0  0  0  0  0  0  0
    6.8850   -4.3020   21.6750 N   0  0  0  0  0  0  0  0  0  0  0  0
    6.5150   -5.4190   22.4610 C   0  0  0  0  0  0  0  0  0  0  0  0
    6.4770   -5.1770   23.9130 C   0  0  0  0  0  0  0  0  0  0  0  0
    6.5880   -3.7630   24.3830 C   0  0  0  0  0  0  0  0  0  0  0  0
    5.4300   -3.4220   25.3050 C   0  0  0  0  0  0  0  0  0  0  0  0
    4.3410   -3.1990   24.7360 O   0  0  0  0  0  0  0  0  0  0  0  0
    5.5050   -3.3390   26.7670 N   0  0  0  0  0  0  0  0  0  0  0  0
    4.5350   -3.6790   27.7560 C   0  0  0  0  0  0  0  0  0  0  0  0
    4.9950   -4.0080   29.1060 C   0  0  0  0  0  0  0  0  0  0  0  0
    5.8070   -5.3190   29.0780 C   0  0  0  0  0  0  0  0  0  0  0  0
    6.1010   -5.6920   27.8090 C   0  0  0  0  0  0  0  0  0  0  0  0
    6.6550   -4.2790   27.7170 C   0  0  0  0  0  0  0  0  0  0  0  0
    5.3150   -4.7380   27.0910 C   0  0  0  0  0  0  0  0  0  0  0  0
    4.5160   -3.6060   26.3310 C   0  0  0  0  0  0  0  0  0  0  0  0
    4.8180   -2.1360   26.0810 C   0  0  0  0  0  0  0  0  0  0  0  0
    3.9780   -1.2550   25.3810 O   0  0  0  0  0  0  0  0  0  0  0  0
    2.6820   -1.0650   25.9030 C   0  0  0  0  0  0  0  0  0  0  0  0
    6.0980   -1.7960   26.6820 C   0  0  0  0  0  0  0  0  0  0  0  0
    6.7110   -2.9270   27.3540 C   0  0  0  0  0  0  0  0  0  0  0  0
    6.7180   -2.7750   23.2710 C   0  0  0  0  0  0  0  0  0  0  0  0
    7.5970   -3.2240   22.3040 C   0  0  0  0  0  0  0  0  0  0  0  0
  1  2  1  0
  2  3  2  0
  2  4  1  0
  4  5  1  0
  5  6  1  0
  6  7  1  0
  7  8  1  0
  8  9  2  0
  8 10  1  0
 10 11  1  0
 11 12  1  0
 12 13  1  0
 13 14  1  0
 14 15  1  0
 15 16  1  0
 16 17  2  0
 17 18  1  0
 18 19  1  0
 19 20  1  0
 18 21  2  0
 10 22  1  0
 15 22  2  0
 21 22  1  0
  7 23  1  0
  4 24  1  0
 23 24  1  0
M  END
