piperidine-amides-15291-covalent
     RDKit          3D

 16 16  0  0  0  0  0  0  0  0999 V2000
    7.1410   -3.2830   19.2630 C   0  0  0  0  0  0  0  0  0  0  0  0
    6.3390   -4.0370   20.2330 C   0  0  0  0  0  0  0  0  0  0  0  0
    5.2610   -4.5680   19.8890 O   0  0  0  0  0  0  0  0  0  0  0  0
    6.8080   -4.2190   21.5360 N   0  0  0  0  0  0  0  0  0  0  0  0
    7.5870   -3.1730   22.1650 C   0  0  0  0  0  0  0  0  0  0  0  0
    6.7300   -2.6460   23.3120 C   0  0  0  0  0  0  0  0  0  0  0  0
    6.4800   -3.8450   24.1990 C   0  0  0  0  0  0  0  0  0  0  0  0
    5.7570   -3.4130   25.4140 C   0  0  0  0  0  0  0  0  0  0  0  0
    4.5080   -3.4700   25.4080 O   0  0  0  0  0  0  0  0  0  0  0  0
    6.4710   -2.9380   26.5420 N   0  0  0  0  0  0  0  0  0  0  0  0
    6.8450   -1.5550   26.5470 C   0  0  0  0  0  0  0  0  0  0  0  0
    6.2820   -3.5660   27.8370 C   0  0  0  0  0  0  0  0  0  0  0  0
    6.2800   -4.9230   27.6760 C   0  0  0  0  0  0  0  0  0  0  0  0
    6.5140   -5.6570   28.8530 N   0  0  0  0  0  0  0  0  0  0  0  0
    5.7100   -4.8660   23.4270 C   0  0  0  0  0  0  0  0  0  0  0  0
    6.4220   -5.3390   22.3290 C   0  0  0  0  0  0  0  0  0  0  0  0
  1  2  1  0
  2  3  2  0
  2  4  1  0
  4  5  1  0
  5  6  1  0
  6  7  1  0
  7  8  1  0
  8  9  2  0
  8 10  1  0
 10 11  1  0
 10 12  1  0
 12 13  1  0
 13 14  3  0
  7 15  1  0
  4 16  1  0
 15 16  1  0
M  END
