piperidine-amides-33602-covalent
     RDKit          3D

 25 26  0  0  0  0  0  0  0  0999 V2000
    7.0810   -3.3400   19.3300 C   0  0  0  0  0  0  0  0  0  0  0  0
    6.4240   -4.1730   20.3490 C   0  0  0  0  0  0  0  0  0  0  0  0
    5.3990   -4.8060   19.9810 O   0  0  0  0  0  0  0  0  0  0  0  0
    6.9640   -4.2950   21.6600 N   0  0  0  0  0  0  0  0  0  0  0  0
    6.6690   -5.4660   22.4140 C   0  0  0  0  0  0  0  0  0  0  0  0
    6.1850   -5.1350   23.7380 C   0  0  0  0  0  0  0  0  0  0  0  0
    6.2860   -3.6880   23.9760 C   0  0  0  0  0  0  0  0  0  0  0  0
    5.6480   -3.2150   25.2640 C   0  0  0  0  0  0  0  0  0  0  0  0
    4.5030   -2.7400   25.1650 O   0  0  0  0  0  0  0  0  0  0  0  0
    6.1960   -3.2490   26.5740 N   0  0  0  0  0  0  0  0  0  0  0  0
    6.3340   -2.0180   27.3090 C   0  0  0  0  0  0  0  0  0  0  0  0
    6.9980   -1.9450   28.5290 C   0  0  0  0  0  0  0  0  0  0  0  0
    7.0660   -0.5950   29.2220 C   0  0  0  0  0  0  0  0  0  0  0  0
    6.4540    0.5330   28.5980 C   0  0  0  0  0  0  0  0  0  0  0  0
    6.4980    2.2640   29.4310 Br  0  0  0  0  0  0  0  0  0  0  0  0
    5.6900    0.4850   27.1960 C   0  0  0  0  0  0  0  0  0  0  0  0
    5.8250   -0.9050   26.8580 N   0  0  0  0  0  0  0  0  0  0  0  0
    5.6750   -4.2650   27.4960 C   0  0  1  0  0  0  0  0  0  0  0  0
    5.1260   -5.4240   26.6720 C   0  0  0  0  0  0  0  0  0  0  0  0
    3.7450   -5.6520   26.6380 O   0  0  0  0  0  0  0  0  0  0  0  0
    6.1730   -5.5770   27.7810 C   0  0  0  0  0  0  0  0  0  0  0  0
    7.0270   -5.5060   28.9970 C   0  0  0  0  0  0  0  0  0  0  0  0
    5.1610   -6.6660   28.0830 C   0  0  0  0  0  0  0  0  0  0  0  0
    7.6770   -3.2420   23.6810 C   0  0  0  0  0  0  0  0  0  0  0  0
    7.7200   -3.1910   22.2720 C   0  0  0  0  0  0  0  0  0  0  0  0
  1  2  1  0
  2  3  2  0
  2  4  1  0
  4  5  1  0
  5  6  1  0
  6  7  1  0
  7  8  1  0
  8  9  2  0
  8 10  1  0
 10 11  1  0
 11 12  2  0
 12 13  1  0
 13 14  2  0
 14 15  1  0
 14 16  1  0
 11 17  1  0
 16 17  2  0
 10 18  1  0
 18 19  1  6
 19 20  1  0
 18 21  1  0
 21 22  1  0
 21 23  1  0
  7 24  1  0
  4 25  1  0
 24 25  1  0
M  END
