piperidine-amides-27089-covalent
     RDKit          3D

 26 29  0  0  0  0  0  0  0  0999 V2000
    7.0220   -3.3680   19.3740 C   0  0  0  0  0  0  0  0  0  0  0  0
    6.3940   -4.2360   20.3800 C   0  0  0  0  0  0  0  0  0  0  0  0
    5.3940   -4.8940   19.9920 O   0  0  0  0  0  0  0  0  0  0  0  0
    6.9220   -4.3440   21.6800 N   0  0  0  0  0  0  0  0  0  0  0  0
    6.6070   -5.4640   22.5310 C   0  0  0  0  0  0  0  0  0  0  0  0
    5.7450   -4.9750   23.6800 C   0  0  0  0  0  0  0  0  0  0  0  0
    6.2850   -3.7530   24.4010 C   0  0  0  0  0  0  0  0  0  0  0  0
    5.2840   -3.2020   25.3860 C   0  0  0  0  0  0  0  0  0  0  0  0
    4.3690   -2.4970   24.9330 O   0  0  0  0  0  0  0  0  0  0  0  0
    5.3200   -3.4580   26.7870 N   0  0  0  0  0  0  0  0  0  0  0  0
    6.3430   -4.2490   27.2310 C   0  0  0  0  0  0  0  0  0  0  0  0
    6.0080   -5.1470   28.3530 C   0  0  0  0  0  0  0  0  0  0  0  0
    6.4380   -6.4300   28.4580 C   0  0  0  0  0  0  0  0  0  0  0  0
    6.0670   -7.2170   29.5200 C   0  0  0  0  0  0  0  0  0  0  0  0
    5.2570   -6.7740   30.5160 C   0  0  0  0  0  0  0  0  0  0  0  0
    4.8410   -5.4730   30.3870 C   0  0  0  0  0  0  0  0  0  0  0  0
    5.2150   -4.6640   29.3250 C   0  0  0  0  0  0  0  0  0  0  0  0
    4.7180   -3.2410   29.2840 C   0  0  0  0  0  0  0  0  0  0  0  0
    4.6660   -2.7200   27.8230 C   0  0  1  0  0  0  0  0  0  0  0  0
    5.0620   -1.2630   27.6860 C   0  0  0  0  0  0  0  0  0  0  0  0
    4.2990   -0.3330   27.0570 N   0  0  0  0  0  0  0  0  0  0  0  0
    5.0290    0.9000   27.1530 C   0  0  0  0  0  0  0  0  0  0  0  0
    6.1740    0.6870   27.8210 C   0  0  0  0  0  0  0  0  0  0  0  0
    6.2080   -0.6380   28.1560 N   0  0  0  0  0  0  0  0  0  0  0  0
    6.6590   -2.6930   23.3720 C   0  0  0  0  0  0  0  0  0  0  0  0
    7.6230   -3.2680   22.3400 C   0  0  0  0  0  0  0  0  0  0  0  0
  1  2  1  0
  2  3  2  0
  2  4  1  0
  4  5  1  0
  5  6  1  0
  6  7  1  0
  7  8  1  0
  8  9  2  0
  8 10  1  0
 10 11  1  0
 11 12  1  0
 12 13  2  0
 13 14  1  0
 14 15  2  0
 15 16  1  0
 12 17  1  0
 16 17  2  0
 17 18  1  0
 10 19  1  0
 18 19  1  0
 19 20  1  1
 20 21  2  0
 21 22  1  0
 22 23  2  0
 20 24  1  0
 23 24  1  0
  7 25  1  0
  4 26  1  0
 25 26  1  0
M  END
