piperidine-amides-27304-covalent
     RDKit          3D

 25 27  0  0  0  0  0  0  0  0999 V2000
    7.0090   -3.3460   19.3490 C   0  0  0  0  0  0  0  0  0  0  0  0
    6.3590   -4.1930   20.3580 C   0  0  0  0  0  0  0  0  0  0  0  0
    5.3620   -4.8560   19.9750 O   0  0  0  0  0  0  0  0  0  0  0  0
    6.8580   -4.2820   21.6630 N   0  0  0  0  0  0  0  0  0  0  0  0
    6.7050   -5.4960   22.4270 C   0  0  0  0  0  0  0  0  0  0  0  0
    6.0700   -5.1380   23.7490 C   0  0  0  0  0  0  0  0  0  0  0  0
    6.6780   -3.9100   24.3850 C   0  0  0  0  0  0  0  0  0  0  0  0
    5.8190   -3.4930   25.5540 C   0  0  0  0  0  0  0  0  0  0  0  0
    4.6200   -3.2820   25.2650 O   0  0  0  0  0  0  0  0  0  0  0  0
    6.1720   -3.2770   26.9370 N   0  0  0  0  0  0  0  0  0  0  0  0
    5.0860   -2.8610   27.8140 C   0  0  0  0  0  0  0  0  0  0  0  0
    4.4070   -3.9880   28.6580 C   0  0  0  0  0  0  0  0  0  0  0  0
    4.9500   -5.3410   28.4080 N   0  0  0  0  0  0  0  0  0  0  0  0
    4.4120   -6.3970   28.9990 C   0  0  0  0  0  0  0  0  0  0  0  0
    3.9450   -6.2800   30.3010 C   0  0  1  0  0  0  0  0  0  0  0  0
    2.7060   -5.8830   30.1470 O   0  0  0  0  0  0  0  0  0  0  0  0
    4.1190   -7.3790   31.1300 C   0  0  1  0  0  0  0  0  0  0  0  0
    5.3470   -7.4540   31.7910 C   0  0  0  0  0  0  0  0  0  0  0  0
    5.1760   -7.9200   33.0570 C   0  0  0  0  0  0  0  0  0  0  0  0
    3.7040   -8.0810   33.1960 C   0  0  0  0  0  0  0  0  0  0  0  0
    3.0930   -7.6530   32.0690 O   0  0  0  0  0  0  0  0  0  0  0  0
    6.2830   -5.3930   28.0250 C   0  0  0  0  0  0  0  0  0  0  0  0
    6.5840   -3.9420   28.1610 C   0  0  0  0  0  0  0  0  0  0  0  0
    6.7440   -2.7890   23.3860 C   0  0  0  0  0  0  0  0  0  0  0  0
    7.5460   -3.1760   22.3280 C   0  0  0  0  0  0  0  0  0  0  0  0
  1  2  1  0
  2  3  2  0
  2  4  1  0
  4  5  1  0
  5  6  1  0
  6  7  1  0
  7  8  1  0
  8  9  2  0
  8 10  1  0
 10 11  1  0
 11 12  1  0
 12 13  1  0
 13 14  1  0
 14 15  1  0
 15 16  1  6
 15 17  1  0
 17 18  1  1
 18 19  1  0
 19 20  1  0
 17 21  1  0
 20 21  1  0
 13 22  1  0
 10 23  1  0
 22 23  1  0
  7 24  1  0
  4 25  1  0
 24 25  1  0
M  END
