piperidine-amides-27691-covalent
     RDKit          3D

 26 29  0  0  0  0  0  0  0  0999 V2000
    7.0900   -3.3670   19.3580 C   0  0  0  0  0  0  0  0  0  0  0  0
    6.3820   -4.1850   20.3400 C   0  0  0  0  0  0  0  0  0  0  0  0
    5.3180   -4.7300   19.9500 O   0  0  0  0  0  0  0  0  0  0  0  0
    6.9170   -4.3840   21.6170 N   0  0  0  0  0  0  0  0  0  0  0  0
    6.6340   -5.5570   22.3990 C   0  0  0  0  0  0  0  0  0  0  0  0
    5.8980   -5.1160   23.6360 C   0  0  0  0  0  0  0  0  0  0  0  0
    6.5730   -3.9550   24.3290 C   0  0  0  0  0  0  0  0  0  0  0  0
    5.7600   -3.5340   25.5080 C   0  0  0  0  0  0  0  0  0  0  0  0
    4.6430   -3.0360   25.2540 O   0  0  0  0  0  0  0  0  0  0  0  0
    6.1300   -3.6450   26.8800 N   0  0  0  0  0  0  0  0  0  0  0  0
    5.7880   -2.5810   27.7840 C   0  0  0  0  0  0  0  0  0  0  0  0
    5.4400   -3.0990   29.1840 C   0  0  0  0  0  0  0  0  0  0  0  0
    4.5870   -4.2920   29.0800 N   0  0  0  0  0  0  0  0  0  0  0  0
    3.6380   -4.5630   29.9740 C   0  0  0  0  0  0  0  0  0  0  0  0
    3.1320   -3.5930   30.8340 C   0  0  0  0  0  0  0  0  0  0  0  0
    2.1660   -3.7210   31.7970 N   0  0  0  0  0  0  0  0  0  0  0  0
    1.6350   -5.0500   31.8900 C   0  0  0  0  0  0  0  0  0  0  0  0
    2.1280   -6.0170   31.0430 C   0  0  0  0  0  0  0  0  0  0  0  0
    1.7950   -7.3050   30.9440 N   0  0  0  0  0  0  0  0  0  0  0  0
    2.5980   -7.8130   29.9330 C   0  0  0  0  0  0  0  0  0  0  0  0
    3.3520   -6.7940   29.5030 N   0  0  0  0  0  0  0  0  0  0  0  0
    3.0430   -5.7270   30.1920 N   0  0  0  0  0  0  0  0  0  0  0  0
    5.1130   -5.3070   28.4220 C   0  0  0  0  0  0  0  0  0  0  0  0
    6.2460   -4.8870   27.5640 C   0  0  0  0  0  0  0  0  0  0  0  0
    6.8020   -2.7870   23.3660 C   0  0  0  0  0  0  0  0  0  0  0  0
    7.6880   -3.3260   22.2640 C   0  0  0  0  0  0  0  0  0  0  0  0
  1  2  1  0
  2  3  2  0
  2  4  1  0
  4  5  1  0
  5  6  1  0
  6  7  1  0
  7  8  1  0
  8  9  2  0
  8 10  1  0
 10 11  1  0
 11 12  1  0
 12 13  1  0
 13 14  1  0
 14 15  2  0
 15 16  1  0
 16 17  2  0
 17 18  1  0
 18 19  2  0
 19 20  1  0
 20 21  2  0
 14 22  1  0
 18 22  1  0
 21 22  1  0
 13 23  1  0
 10 24  1  0
 23 24  1  0
  7 25  1  0
  4 26  1  0
 25 26  1  0
M  END
