piperidine-amides-23322-covalent
     RDKit          3D

 24 26  0  0  0  0  0  0  0  0999 V2000
    7.0540   -3.3270   19.2770 C   0  0  0  0  0  0  0  0  0  0  0  0
    6.3780   -4.1270   20.3130 C   0  0  0  0  0  0  0  0  0  0  0  0
    5.3460   -4.7490   19.9560 O   0  0  0  0  0  0  0  0  0  0  0  0
    6.8940   -4.2420   21.6350 N   0  0  0  0  0  0  0  0  0  0  0  0
    7.6820   -3.1820   22.1840 C   0  0  0  0  0  0  0  0  0  0  0  0
    7.4420   -2.9680   23.5980 C   0  0  0  0  0  0  0  0  0  0  0  0
    6.2510   -3.6830   24.0750 C   0  0  0  0  0  0  0  0  0  0  0  0
    5.8810   -3.3630   25.4930 C   0  0  0  0  0  0  0  0  0  0  0  0
    4.6700   -3.3480   25.7920 O   0  0  0  0  0  0  0  0  0  0  0  0
    6.8310   -3.0630   26.5040 N   0  0  0  0  0  0  0  0  0  0  0  0
    7.5650   -4.0430   27.2470 C   0  0  0  0  0  0  0  0  0  0  0  0
    8.4290   -5.0280   26.5930 C   0  0  0  0  0  0  0  0  0  0  0  0
    6.6720   -1.7710   27.1760 C   0  0  0  0  0  0  0  0  0  0  0  0
    7.2410   -1.7560   28.4720 C   0  0  0  0  0  0  0  0  0  0  0  0
    7.1300   -0.4490   29.3100 C   0  0  0  0  0  0  0  0  0  0  0  0
    6.4090    0.5780   28.5310 C   0  0  0  0  0  0  0  0  0  0  0  0
    6.1770    1.7870   29.0200 N   0  0  0  0  0  0  0  0  0  0  0  0
    5.5270    2.5140   28.1090 C   0  0  0  0  0  0  0  0  0  0  0  0
    5.1630    3.8430   28.3360 O   0  0  0  0  0  0  0  0  0  0  0  0
    5.2920    1.7720   26.9800 N   0  0  0  0  0  0  0  0  0  0  0  0
    5.8580    0.5730   27.2690 C   0  0  0  0  0  0  0  0  0  0  0  0
    5.9950   -0.7100   26.5130 C   0  0  0  0  0  0  0  0  0  0  0  0
    6.3980   -5.1940   23.8480 C   0  0  0  0  0  0  0  0  0  0  0  0
    6.5500   -5.4670   22.3830 C   0  0  0  0  0  0  0  0  0  0  0  0
  1  2  1  0
  2  3  2  0
  2  4  1  0
  4  5  1  0
  5  6  1  0
  6  7  1  0
  7  8  1  0
  8  9  2  0
  8 10  1  0
 10 11  1  0
 11 12  1  0
 10 13  1  0
 13 14  2  0
 14 15  1  0
 15 16  2  0
 16 17  1  0
 17 18  1  0
 18 19  2  0
 18 20  1  0
 16 21  1  0
 20 21  1  0
 13 22  1  0
 21 22  2  0
  7 23  1  0
  4 24  1  0
 23 24  1  0
M  END
