piperidine-amides-27472-covalent
     RDKit          3D

 26 28  0  0  0  0  0  0  0  0999 V2000
    7.1030   -3.3200   19.2480 C   0  0  0  0  0  0  0  0  0  0  0  0
    6.4100   -4.1130   20.2640 C   0  0  0  0  0  0  0  0  0  0  0  0
    5.3300   -4.6640   19.9240 O   0  0  0  0  0  0  0  0  0  0  0  0
    6.9780   -4.2710   21.5180 N   0  0  0  0  0  0  0  0  0  0  0  0
    6.6400   -5.3990   22.3490 C   0  0  0  0  0  0  0  0  0  0  0  0
    5.9110   -4.8730   23.5500 C   0  0  0  0  0  0  0  0  0  0  0  0
    6.6680   -3.7500   24.2190 C   0  0  0  0  0  0  0  0  0  0  0  0
    5.9150   -3.1970   25.3560 C   0  0  0  0  0  0  0  0  0  0  0  0
    4.8910   -2.5270   25.0920 O   0  0  0  0  0  0  0  0  0  0  0  0
    6.2570   -3.3880   26.7020 N   0  0  0  0  0  0  0  0  0  0  0  0
    5.8350   -2.3590   27.6470 C   0  0  0  0  0  0  0  0  0  0  0  0
    6.7770   -1.9900   28.7870 C   0  0  0  0  0  0  0  0  0  0  0  0
    6.4910   -1.0480   29.7250 C   0  0  0  0  0  0  0  0  0  0  0  0
    7.2930   -0.5050   30.7190 C   0  0  0  0  0  0  0  0  0  0  0  0
    6.8160    0.4690   31.6080 C   0  0  0  0  0  0  0  0  0  0  0  0
    5.5090    0.9440   31.5360 C   0  0  0  0  0  0  0  0  0  0  0  0
    4.6860    0.4360   30.5670 C   0  0  0  0  0  0  0  0  0  0  0  0
    5.2100   -0.6000   29.6310 C   0  0  0  0  0  0  0  0  0  0  0  0
    4.1240   -1.0160   28.6390 C   0  0  0  0  0  0  0  0  0  0  0  0
    2.9050   -0.7680   28.7620 O   0  0  0  0  0  0  0  0  0  0  0  0
    4.6130   -1.7340   27.5230 N   0  0  0  0  0  0  0  0  0  0  0  0
    5.9470   -4.4460   27.6430 C   0  0  0  0  0  0  0  0  0  0  0  0
    6.8740   -4.6860   28.7920 C   0  0  0  0  0  0  0  0  0  0  0  0
    5.7990   -5.6860   26.8770 C   0  0  0  0  0  0  0  0  0  0  0  0
    6.9080   -2.6500   23.2220 C   0  0  0  0  0  0  0  0  0  0  0  0
    7.7700   -3.2240   22.1310 C   0  0  0  0  0  0  0  0  0  0  0  0
  1  2  1  0
  2  3  2  0
  2  4  1  0
  4  5  1  0
  5  6  1  0
  6  7  1  0
  7  8  1  0
  8  9  2  0
  8 10  1  0
 10 11  1  0
 11 12  2  0
 12 13  1  0
 13 14  2  0
 14 15  1  0
 15 16  2  0
 16 17  1  0
 13 18  1  0
 17 18  2  0
 18 19  1  0
 19 20  2  0
 11 21  1  0
 19 21  1  0
 10 22  1  0
 22 23  1  0
 22 24  1  0
  7 25  1  0
  4 26  1  0
 25 26  1  0
M  END
