piperidine-amides-23878-covalent
     RDKit          3D

 24 26  0  0  0  0  0  0  0  0999 V2000
    7.0400   -3.3860   19.3900 C   0  0  0  0  0  0  0  0  0  0  0  0
    6.4090   -4.2540   20.4010 C   0  0  0  0  0  0  0  0  0  0  0  0
    5.4180   -4.9200   20.0050 O   0  0  0  0  0  0  0  0  0  0  0  0
    6.9270   -4.3650   21.7250 N   0  0  0  0  0  0  0  0  0  0  0  0
    6.6480   -5.5530   22.4790 C   0  0  0  0  0  0  0  0  0  0  0  0
    6.1510   -5.2450   23.8080 C   0  0  0  0  0  0  0  0  0  0  0  0
    6.1490   -3.7970   24.0120 C   0  0  0  0  0  0  0  0  0  0  0  0
    5.4890   -3.3050   25.2850 C   0  0  0  0  0  0  0  0  0  0  0  0
    4.5600   -2.4970   25.1350 O   0  0  0  0  0  0  0  0  0  0  0  0
    5.7790   -3.6530   26.6310 N   0  0  0  0  0  0  0  0  0  0  0  0
    6.4130   -2.7390   27.4710 C   0  0  0  0  0  0  0  0  0  0  0  0
    6.8470   -3.1760   28.7710 C   0  0  0  0  0  0  0  0  0  0  0  0
    6.7440   -4.6910   28.7800 C   0  0  0  0  0  0  0  0  0  0  0  0
    5.6180   -5.0830   29.4030 C   0  0  0  0  0  0  0  0  0  0  0  0
    5.1620   -5.6570   28.0620 C   0  0  0  0  0  0  0  0  0  0  0  0
    4.7420   -4.3560   27.3940 C   0  0  1  0  0  0  0  0  0  0  0  0
    4.2990   -3.7500   28.7520 C   0  0  0  0  0  0  0  0  0  0  0  0
    4.5050   -2.3110   29.2030 C   0  0  0  0  0  0  0  0  0  0  0  0
    3.9080   -2.2510   30.5470 C   0  0  0  0  0  0  0  0  0  0  0  0
    3.3860   -3.6390   30.8110 C   0  0  0  0  0  0  0  0  0  0  0  0
    2.7060   -3.9980   32.0810 C   0  0  0  0  0  0  0  0  0  0  0  0
    3.6030   -4.4570   29.8140 O   0  0  0  0  0  0  0  0  0  0  0  0
    7.4660   -3.1660   23.6860 C   0  0  0  0  0  0  0  0  0  0  0  0
    7.6720   -3.2610   22.3100 C   0  0  0  0  0  0  0  0  0  0  0  0
  1  2  1  0
  2  3  2  0
  2  4  1  0
  4  5  1  0
  5  6  1  0
  6  7  1  0
  7  8  1  0
  8  9  2  0
  8 10  1  0
 10 11  1  0
 11 12  1  0
 12 13  1  0
 13 14  1  0
 14 15  1  0
 10 16  1  0
 15 16  1  0
 16 17  1  1
 17 18  2  0
 18 19  1  0
 19 20  2  0
 20 21  1  0
 17 22  1  0
 20 22  1  0
  7 23  1  0
  4 24  1  0
 23 24  1  0
M  END
