piperidine-amides-15014-covalent
     RDKit          3D

 21 21  0  0  0  0  0  0  0  0999 V2000
    7.0110   -3.3190   19.3760 C   0  0  0  0  0  0  0  0  0  0  0  0
    6.3520   -4.1680   20.3710 C   0  0  0  0  0  0  0  0  0  0  0  0
    5.3840   -4.8480   19.9820 O   0  0  0  0  0  0  0  0  0  0  0  0
    6.8120   -4.2480   21.7210 N   0  0  0  0  0  0  0  0  0  0  0  0
    7.5770   -3.1870   22.3230 C   0  0  0  0  0  0  0  0  0  0  0  0
    6.8030   -2.5570   23.4560 C   0  0  0  0  0  0  0  0  0  0  0  0
    6.2380   -3.6600   24.3400 C   0  0  0  0  0  0  0  0  0  0  0  0
    5.1100   -3.0970   25.1920 C   0  0  0  0  0  0  0  0  0  0  0  0
    4.3010   -2.4140   24.5820 O   0  0  0  0  0  0  0  0  0  0  0  0
    5.0050   -3.3470   26.5880 N   0  0  0  0  0  0  0  0  0  0  0  0
    6.0040   -4.0530   27.2820 C   0  0  1  0  0  0  0  0  0  0  0  0
    6.5890   -3.4480   28.4030 C   0  0  0  0  0  0  0  0  0  0  0  0
    5.5030   -5.3610   27.7670 C   0  0  0  0  0  0  0  0  0  0  0  0
    4.8960   -6.2570   26.9090 C   0  0  0  0  0  0  0  0  0  0  0  0
    6.6390   -6.2710   28.3270 C   0  0  0  0  0  0  0  0  0  0  0  0
    4.4330   -5.2570   28.8460 C   0  0  0  0  0  0  0  0  0  0  0  0
    4.3040   -6.3860   29.6850 N   0  0  0  0  0  0  0  0  0  0  0  0
    5.3940   -6.5740   30.6000 C   0  0  0  0  0  0  0  0  0  0  0  0
    3.9290   -7.6060   29.0070 C   0  0  0  0  0  0  0  0  0  0  0  0
    5.7180   -4.8570   23.6350 C   0  0  0  0  0  0  0  0  0  0  0  0
    6.4690   -5.3500   22.5830 C   0  0  0  0  0  0  0  0  0  0  0  0
  1  2  1  0
  2  3  2  0
  2  4  1  0
  4  5  1  0
  5  6  1  0
  6  7  1  0
  7  8  1  0
  8  9  2  0
  8 10  1  0
 10 11  1  0
 11 12  1  1
 11 13  1  0
 13 14  1  0
 13 15  1  0
 13 16  1  0
 16 17  1  0
 17 18  1  0
 17 19  1  0
  7 20  1  0
  4 21  1  0
 20 21  1  0
M  END
