piperidine-amides-10183-covalent
     RDKit          3D

 25 27  0  0  0  0  0  0  0  0999 V2000
    7.1060   -3.2770   19.2330 C   0  0  0  0  0  0  0  0  0  0  0  0
    6.3870   -4.0280   20.2690 C   0  0  0  0  0  0  0  0  0  0  0  0
    5.3200   -4.5940   19.9070 O   0  0  0  0  0  0  0  0  0  0  0  0
    6.9010   -4.1390   21.5690 N   0  0  0  0  0  0  0  0  0  0  0  0
    7.7860   -3.1220   22.1120 C   0  0  0  0  0  0  0  0  0  0  0  0
    7.4770   -2.9580   23.5680 C   0  0  0  0  0  0  0  0  0  0  0  0
    6.1260   -3.5240   23.8650 C   0  0  0  0  0  0  0  0  0  0  0  0
    5.6750   -3.1630   25.2220 C   0  0  0  0  0  0  0  0  0  0  0  0
    4.4640   -3.3300   25.4660 O   0  0  0  0  0  0  0  0  0  0  0  0
    6.5250   -2.6390   26.2250 N   0  0  0  0  0  0  0  0  0  0  0  0
    6.0170   -2.1470   27.4920 C   0  0  0  0  0  0  0  0  0  0  0  0
    4.8700   -3.0890   27.9120 C   0  0  0  0  0  0  0  0  0  0  0  0
    4.9300   -3.6860   29.1620 C   0  0  0  0  0  0  0  0  0  0  0  0
    4.0560   -3.3220   30.1750 C   0  0  0  0  0  0  0  0  0  0  0  0
    2.7980   -2.9480   29.7520 C   0  0  0  0  0  0  0  0  0  0  0  0
    2.6540   -2.3980   28.5030 C   0  0  0  0  0  0  0  0  0  0  0  0
    3.5900   -2.7100   27.5380 C   0  0  0  0  0  0  0  0  0  0  0  0
    5.8140   -0.7490   27.5340 C   0  0  0  0  0  0  0  0  0  0  0  0
    6.9480   -1.2980   28.3980 C   0  0  0  0  0  0  0  0  0  0  0  0
    6.9450   -0.8380   29.8330 C   0  0  0  0  0  0  0  0  0  0  0  0
    5.9670    0.2560   30.2100 C   0  0  0  0  0  0  0  0  0  0  0  0
    4.6940    0.1110   29.6930 C   0  0  0  0  0  0  0  0  0  0  0  0
    4.7540   -0.0770   28.1780 C   0  0  0  0  0  0  0  0  0  0  0  0
    6.1340   -5.0160   23.6880 C   0  0  0  0  0  0  0  0  0  0  0  0
    6.6830   -5.3760   22.3000 C   0  0  0  0  0  0  0  0  0  0  0  0
  1  2  1  0
  2  3  2  0
  2  4  1  0
  4  5  1  0
  5  6  1  0
  6  7  1  0
  7  8  1  0
  8  9  2  0
  8 10  1  0
 10 11  1  0
 11 12  1  0
 12 13  1  0
 13 14  1  0
 14 15  1  0
 15 16  1  0
 12 17  1  0
 16 17  1  0
 11 18  1  0
 18 19  1  0
 19 20  1  0
 20 21  1  0
 21 22  1  0
 18 23  1  0
 22 23  1  0
  7 24  1  0
  4 25  1  0
 24 25  1  0
M  END
