piperidine-amides-24840-covalent
     RDKit          3D

 24 25  0  0  0  0  0  0  0  0999 V2000
    7.1000   -3.3280   19.3140 C   0  0  0  0  0  0  0  0  0  0  0  0
    6.4240   -4.2070   20.2730 C   0  0  0  0  0  0  0  0  0  0  0  0
    5.3610   -4.7870   19.9640 O   0  0  0  0  0  0  0  0  0  0  0  0
    7.0040   -4.4600   21.5200 N   0  0  0  0  0  0  0  0  0  0  0  0
    6.6570   -5.6770   22.1870 C   0  0  0  0  0  0  0  0  0  0  0  0
    5.7100   -5.2420   23.2940 C   0  0  0  0  0  0  0  0  0  0  0  0
    6.4440   -4.2450   24.1720 C   0  0  0  0  0  0  0  0  0  0  0  0
    5.4390   -3.7130   25.0960 C   0  0  0  0  0  0  0  0  0  0  0  0
    4.4330   -3.1490   24.6180 O   0  0  0  0  0  0  0  0  0  0  0  0
    5.5980   -3.8170   26.4790 N   0  0  0  0  0  0  0  0  0  0  0  0
    4.4790   -4.3350   27.2140 C   0  0  0  0  0  0  0  0  0  0  0  0
    4.9020   -4.7500   28.6030 C   0  0  0  0  0  0  0  0  0  0  0  0
    5.7630   -3.9530   29.2570 C   0  0  0  0  0  0  0  0  0  0  0  0
    6.5120   -3.1560   28.4650 C   0  0  2  0  0  0  0  0  0  0  0  0
    7.1670   -2.0740   28.9360 C   0  0  0  0  0  0  0  0  0  0  0  0
    8.3530   -2.4490   28.5320 C   0  0  0  0  0  0  0  0  0  0  0  0
    8.2550   -3.8860   27.9730 C   0  0  0  0  0  0  0  0  0  0  0  0
    8.2340   -4.9290   28.6310 O   0  0  0  0  0  0  0  0  0  0  0  0
    8.1850   -3.9630   26.6010 O   0  0  0  0  0  0  0  0  0  0  0  0
    8.8280   -5.0450   26.0230 C   0  0  0  0  0  0  0  0  0  0  0  0
    9.1930   -6.1000   27.0000 C   0  0  0  0  0  0  0  0  0  0  0  0
    6.0690   -2.7550   27.2610 C   0  0  0  0  0  0  0  0  0  0  0  0
    6.9970   -3.0680   23.3940 C   0  0  0  0  0  0  0  0  0  0  0  0
    7.6110   -3.3880   22.2230 C   0  0  0  0  0  0  0  0  0  0  0  0
  1  2  1  0
  2  3  2  0
  2  4  1  0
  4  5  1  0
  5  6  1  0
  6  7  1  0
  7  8  1  0
  8  9  2  0
  8 10  1  0
 10 11  1  0
 11 12  1  0
 12 13  1  0
 13 14  1  0
 14 15  1  1
 15 16  1  0
 16 17  1  0
 17 18  2  0
 17 19  1  0
 19 20  1  0
 20 21  1  0
 10 22  1  0
 14 22  1  0
  7 23  1  0
  4 24  1  0
 23 24  1  0
M  END
