piperidine-amides-19845-covalent
     RDKit          3D

 22 24  0  0  0  0  0  0  0  0999 V2000
    7.0340   -3.3580   19.3960 C   0  0  0  0  0  0  0  0  0  0  0  0
    6.4050   -4.2670   20.3930 C   0  0  0  0  0  0  0  0  0  0  0  0
    5.4270   -4.9090   20.0000 O   0  0  0  0  0  0  0  0  0  0  0  0
    6.9390   -4.4070   21.6910 N   0  0  0  0  0  0  0  0  0  0  0  0
    6.6730   -5.5740   22.5100 C   0  0  0  0  0  0  0  0  0  0  0  0
    6.0550   -5.1690   23.8340 C   0  0  0  0  0  0  0  0  0  0  0  0
    5.9580   -3.6480   23.8810 C   0  0  0  0  0  0  0  0  0  0  0  0
    5.1730   -3.1800   25.0540 C   0  0  0  0  0  0  0  0  0  0  0  0
    4.2050   -2.4520   24.8340 O   0  0  0  0  0  0  0  0  0  0  0  0
    5.4220   -3.4990   26.3950 N   0  0  0  0  0  0  0  0  0  0  0  0
    4.6130   -2.8600   27.3920 C   0  0  0  0  0  0  0  0  0  0  0  0
    4.0310   -3.9480   28.2550 C   0  0  0  0  0  0  0  0  0  0  0  0
    5.0970   -4.4570   29.0870 N   0  0  0  0  0  0  0  0  0  0  0  0
    6.2940   -4.3620   28.2570 C   0  0  0  0  0  0  0  0  0  0  0  0
    6.6890   -5.5280   28.9070 N   0  0  0  0  0  0  0  0  0  0  0  0
    5.9030   -6.1190   29.8440 N   0  0  0  0  0  0  0  0  0  0  0  0
    6.1160   -7.5350   29.8050 C   0  0  0  0  0  0  0  0  0  0  0  0
    4.7160   -5.6560   29.6610 C   0  0  0  0  0  0  0  0  0  0  0  0
    3.4650   -6.1200   29.9210 O   0  0  0  0  0  0  0  0  0  0  0  0
    6.4740   -3.2410   27.2700 C   0  0  0  0  0  0  0  0  0  0  0  0
    7.2840   -3.0150   23.6630 C   0  0  0  0  0  0  0  0  0  0  0  0
    7.7350   -3.3270   22.2690 C   0  0  0  0  0  0  0  0  0  0  0  0
  1  2  1  0
  2  3  2  0
  2  4  1  0
  4  5  1  0
  5  6  1  0
  6  7  1  0
  7  8  1  0
  8  9  2  0
  8 10  1  0
 10 11  1  0
 11 12  1  0
 12 13  1  0
 13 14  1  0
 14 15  2  0
 15 16  1  0
 16 17  1  0
 13 18  1  0
 16 18  1  0
 18 19  2  0
 10 20  1  0
 14 20  1  0
  7 21  1  0
  4 22  1  0
 21 22  1  0
M  END
