piperidine-amides-6766-covalent
     RDKit          3D

 23 25  0  0  0  0  0  0  0  0999 V2000
    7.1220   -3.2510   19.2040 C   0  0  0  0  0  0  0  0  0  0  0  0
    6.3410   -4.0080   20.1980 C   0  0  0  0  0  0  0  0  0  0  0  0
    5.2790   -4.5780   19.8840 O   0  0  0  0  0  0  0  0  0  0  0  0
    6.8210   -4.1240   21.5000 N   0  0  0  0  0  0  0  0  0  0  0  0
    7.6430   -3.0540   22.0210 C   0  0  0  0  0  0  0  0  0  0  0  0
    7.1690   -2.7020   23.4320 C   0  0  0  0  0  0  0  0  0  0  0  0
    5.7320   -3.1440   23.5720 C   0  0  0  0  0  0  0  0  0  0  0  0
    5.1730   -2.6690   24.8710 C   0  0  0  0  0  0  0  0  0  0  0  0
    4.5250   -3.4760   25.5660 O   0  0  0  0  0  0  0  0  0  0  0  0
    5.3590   -1.3130   25.2930 N   0  0  0  0  0  0  0  0  0  0  0  0
    6.1200   -1.0540   26.4750 C   0  0  0  0  0  0  0  0  0  0  0  0
    6.9010   -2.2780   26.4970 C   0  0  0  0  0  0  0  0  0  0  0  0
    7.9580   -2.5150   25.6780 C   0  0  0  0  0  0  0  0  0  0  0  0
    8.3580   -3.7610   25.9890 N   0  0  0  0  0  0  0  0  0  0  0  0
    9.3830   -4.3490   25.3660 C   0  0  0  0  0  0  0  0  0  0  0  0
    9.5120   -5.5280   25.9630 C   0  0  0  0  0  0  0  0  0  0  0  0
    8.7610   -6.0590   26.9440 C   0  0  0  0  0  0  0  0  0  0  0  0
    7.5360   -5.5770   27.7450 C   0  0  0  0  0  0  0  0  0  0  0  0
    6.3710   -6.2450   29.1120 Br  0  0  0  0  0  0  0  0  0  0  0  0
    7.5600   -4.2650   27.0020 C   0  0  0  0  0  0  0  0  0  0  0  0
    6.6470   -3.3370   27.3250 N   0  0  0  0  0  0  0  0  0  0  0  0
    5.5660   -4.6080   23.4620 C   0  0  0  0  0  0  0  0  0  0  0  0
    6.3410   -5.1550   22.3530 C   0  0  0  0  0  0  0  0  0  0  0  0
  1  2  1  0
  2  3  2  0
  2  4  1  0
  4  5  1  0
  5  6  1  0
  6  7  1  0
  7  8  1  0
  8  9  2  0
  8 10  1  0
 10 11  1  0
 11 12  1  0
 12 13  2  0
 13 14  1  0
 14 15  1  0
 15 16  2  0
 16 17  1  0
 17 18  2  0
 18 19  1  0
 14 20  1  0
 18 20  1  0
 12 21  1  0
 20 21  2  0
  7 22  1  0
  4 23  1  0
 22 23  1  0
M  END
