piperidine-amides-461-covalent
     RDKit          3D

 27 29  0  0  0  0  0  0  0  0999 V2000
    7.0430   -3.3330   19.2420 C   0  0  0  0  0  0  0  0  0  0  0  0
    6.3200   -4.0410   20.2830 C   0  0  0  0  0  0  0  0  0  0  0  0
    5.2690   -4.6470   19.9210 O   0  0  0  0  0  0  0  0  0  0  0  0
    6.7170   -4.1630   21.6350 N   0  0  0  0  0  0  0  0  0  0  0  0
    7.7450   -3.2020   22.1600 C   0  0  0  0  0  0  0  0  0  0  0  0
    7.3180   -2.8370   23.6550 C   0  0  0  0  0  0  0  0  0  0  0  0
    6.3250   -3.8690   24.1280 C   0  0  0  0  0  0  0  0  0  0  0  0
    5.8800   -3.7190   25.6450 C   0  0  0  0  0  0  0  0  0  0  0  0
    5.3400   -4.7440   25.9990 O   0  0  0  0  0  0  0  0  0  0  0  0
    6.1450   -2.5750   26.1190 N   0  0  0  0  0  0  0  0  0  0  0  0
    6.1850   -1.3470   26.6990 C   0  0  0  0  0  0  0  0  0  0  0  0
    5.7830   -0.0580   26.3460 C   0  0  0  0  0  0  0  0  0  0  0  0
    5.9190    1.0800   27.1790 C   0  0  0  0  0  0  0  0  0  0  0  0
    6.5100    0.9310   28.4860 C   0  0  0  0  0  0  0  0  0  0  0  0
    6.8030    1.9220   29.6230 C   0  0  0  0  0  0  0  0  0  0  0  0
    6.9900   -0.3990   28.9780 C   0  0  0  0  0  0  0  0  0  0  0  0
    7.5580   -0.4910   30.2480 C   0  0  0  0  0  0  0  0  0  0  0  0
    8.8480   -0.3480   30.6250 O   0  0  0  0  0  0  0  0  0  0  0  0
    6.1110   -0.7490   30.6600 C   0  0  0  0  0  0  0  0  0  0  0  0
    5.2340   -1.8920   30.0880 C   0  0  0  0  0  0  0  0  0  0  0  0
    3.9530   -2.0700   30.4960 C   0  0  0  0  0  0  0  0  0  0  0  0
    3.3710   -1.2520   31.4300 C   0  0  0  0  0  0  0  0  0  0  0  0
    4.1440   -0.2400   31.9390 C   0  0  0  0  0  0  0  0  0  0  0  0
    5.4580    0.0280   31.5910 C   0  0  0  0  0  0  0  0  0  0  0  0
    6.8140   -1.4760   28.0790 C   0  0  0  0  0  0  0  0  0  0  0  0
    6.5500   -5.2840   23.7510 C   0  0  0  0  0  0  0  0  0  0  0  0
    6.6620   -5.4380   22.2830 C   0  0  0  0  0  0  0  0  0  0  0  0
  1  2  1  0
  2  3  2  0
  2  4  1  0
  4  5  1  0
  5  6  1  0
  6  7  1  0
  7  8  1  0
  8  9  2  0
  8 10  1  0
 10 11  1  0
 11 12  2  0
 12 13  1  0
 13 14  2  0
 14 15  1  0
 14 16  1  0
 16 17  1  0
 17 18  2  0
 17 19  1  0
 19 20  2  0
 20 21  1  0
 21 22  2  0
 22 23  1  0
 19 24  1  0
 23 24  2  0
 11 25  1  0
 16 25  2  0
  7 26  1  0
  4 27  1  0
 26 27  1  0
M  END
