piperidine-amides-279-covalent
     RDKit          3D

 30 32  0  0  0  0  0  0  0  0999 V2000
    7.1580   -3.3420   19.1440 C   0  0  0  0  0  0  0  0  0  0  0  0
    6.3990   -3.9570   20.1990 C   0  0  0  0  0  0  0  0  0  0  0  0
    5.3070   -4.5260   19.8900 O   0  0  0  0  0  0  0  0  0  0  0  0
    6.8780   -3.9960   21.5210 N   0  0  0  0  0  0  0  0  0  0  0  0
    6.4150   -5.0980   22.3860 C   0  0  0  0  0  0  0  0  0  0  0  0
    5.4400   -4.2630   23.2950 C   0  0  0  0  0  0  0  0  0  0  0  0
    6.3500   -3.3550   24.1000 C   0  0  0  0  0  0  0  0  0  0  0  0
    5.5760   -2.7260   25.3330 C   0  0  0  0  0  0  0  0  0  0  0  0
    5.4350   -1.5230   25.2480 O   0  0  0  0  0  0  0  0  0  0  0  0
    5.3030   -3.6930   26.0810 N   0  0  0  0  0  0  0  0  0  0  0  0
    4.9840   -4.8030   26.7750 C   0  0  1  0  0  0  0  0  0  0  0  0
    4.2620   -5.9260   26.4560 C   0  0  0  0  0  0  0  0  0  0  0  0
    3.3990   -6.4250   27.4420 C   0  0  0  0  0  0  0  0  0  0  0  0
    2.5150   -7.6190   27.3240 C   0  0  0  0  0  0  0  0  0  0  0  0
    2.6650   -8.2800   25.9120 C   0  0  0  0  0  0  0  0  0  0  0  0
    3.5750   -7.6480   25.0450 C   0  0  0  0  0  0  0  0  0  0  0  0
    4.3400   -6.5300   25.2960 C   0  0  0  0  0  0  0  0  0  0  0  0
    6.2850   -5.3220   27.1270 C   0  0  0  0  0  0  0  0  0  0  0  0
    6.8300   -5.3600   25.6830 C   0  0  0  0  0  0  0  0  0  0  0  0
    8.0920   -5.7940   25.5690 C   0  0  0  0  0  0  0  0  0  0  0  0
    8.7880   -6.1660   26.6680 C   0  0  0  0  0  0  0  0  0  0  0  0
    8.3040   -6.1290   27.9360 C   0  0  0  0  0  0  0  0  0  0  0  0
    7.0220   -5.7020   28.2110 C   0  0  0  0  0  0  0  0  0  0  0  0
    6.6250   -5.6740   29.4380 O   0  0  0  0  0  0  0  0  0  0  0  0
    5.3900   -6.3030   29.8310 C   0  0  0  0  0  0  0  0  0  0  0  0
    5.6060   -7.1030   30.9260 F   0  0  0  0  0  0  0  0  0  0  0  0
    5.0240   -7.1730   28.8620 F   0  0  0  0  0  0  0  0  0  0  0  0
    4.3380   -5.4740   29.9740 F   0  0  0  0  0  0  0  0  0  0  0  0
    7.2170   -2.4190   23.3430 C   0  0  0  0  0  0  0  0  0  0  0  0
    7.7750   -3.0290   22.0990 C   0  0  0  0  0  0  0  0  0  0  0  0
  1  2  1  0
  2  3  2  0
  2  4  1  0
  4  5  1  0
  5  6  1  0
  6  7  1  0
  7  8  1  0
  8  9  2  0
  8 10  1  0
 11 10  1  6
 11 12  1  0
 12 13  2  0
 13 14  1  0
 14 15  2  0
 15 16  1  0
 12 17  1  0
 16 17  2  0
 11 18  1  0
 18 19  2  0
 19 20  1  0
 20 21  2  0
 21 22  1  0
 18 23  1  0
 22 23  2  0
 23 24  1  0
 24 25  1  0
 25 26  1  0
 25 27  1  0
 25 28  1  0
  7 29  1  0
  4 30  1  0
 29 30  1  0
M  END
