piperidine-amides-12715-covalent
     RDKit          3D

 22 23  0  0  0  0  0  0  0  0999 V2000
    7.1580   -3.2700   19.2050 C   0  0  0  0  0  0  0  0  0  0  0  0
    6.3410   -3.9890   20.2070 C   0  0  0  0  0  0  0  0  0  0  0  0
    5.2420   -4.4360   19.8300 O   0  0  0  0  0  0  0  0  0  0  0  0
    6.8220   -4.1970   21.4970 N   0  0  0  0  0  0  0  0  0  0  0  0
    7.5990   -3.1830   22.1300 C   0  0  0  0  0  0  0  0  0  0  0  0
    7.2040   -2.8740   23.5050 C   0  0  0  0  0  0  0  0  0  0  0  0
    6.4890   -3.9470   24.2320 C   0  0  0  0  0  0  0  0  0  0  0  0
    5.7700   -3.3800   25.4030 C   0  0  0  0  0  0  0  0  0  0  0  0
    4.5370   -3.2150   25.3080 O   0  0  0  0  0  0  0  0  0  0  0  0
    6.4530   -3.0230   26.5840 N   0  0  0  0  0  0  0  0  0  0  0  0
    6.2820   -3.7220   27.8850 C   0  0  2  0  0  0  0  0  0  0  0  0
    5.8460   -5.1480   27.7260 C   0  0  0  0  0  0  0  0  0  0  0  0
    4.7700   -5.5890   28.2120 O   0  0  0  0  0  0  0  0  0  0  0  0
    5.4290   -2.9090   28.7810 C   0  0  0  0  0  0  0  0  0  0  0  0
    4.0930   -3.1670   28.9400 C   0  0  0  0  0  0  0  0  0  0  0  0
    3.2260   -2.4730   29.7440 C   0  0  0  0  0  0  0  0  0  0  0  0
    3.7260   -1.4300   30.4530 C   0  0  0  0  0  0  0  0  0  0  0  0
    5.0540   -1.1230   30.3350 C   0  0  0  0  0  0  0  0  0  0  0  0
    5.8210    0.4920   31.4370 I   0  0  0  0  0  0  0  0  0  0  0  0
    5.9030   -1.8400   29.5190 C   0  0  0  0  0  0  0  0  0  0  0  0
    5.5700   -4.7320   23.3380 C   0  0  0  0  0  0  0  0  0  0  0  0
    6.4250   -5.3280   22.2940 C   0  0  0  0  0  0  0  0  0  0  0  0
  1  2  1  0
  2  3  2  0
  2  4  1  0
  4  5  1  0
  5  6  1  0
  6  7  1  0
  7  8  1  0
  8  9  2  0
  8 10  1  0
 10 11  1  0
 11 12  1  6
 12 13  1  0
 11 14  1  0
 14 15  2  0
 15 16  1  0
 16 17  2  0
 17 18  1  0
 18 19  1  0
 14 20  1  0
 18 20  2  0
  7 21  1  0
  4 22  1  0
 21 22  1  0
M  END
