piperidine-amides-8153-covalent
     RDKit          3D

 26 28  0  0  0  0  0  0  0  0999 V2000
    7.0580   -3.3580   19.3660 C   0  0  0  0  0  0  0  0  0  0  0  0
    6.3460   -4.1700   20.3470 C   0  0  0  0  0  0  0  0  0  0  0  0
    5.3490   -4.8050   19.9670 O   0  0  0  0  0  0  0  0  0  0  0  0
    6.8150   -4.2620   21.6800 N   0  0  0  0  0  0  0  0  0  0  0  0
    7.6530   -3.2100   22.1950 C   0  0  0  0  0  0  0  0  0  0  0  0
    7.4890   -3.1010   23.6820 C   0  0  0  0  0  0  0  0  0  0  0  0
    6.1070   -3.6240   23.9950 C   0  0  0  0  0  0  0  0  0  0  0  0
    5.6170   -3.1950   25.3460 C   0  0  0  0  0  0  0  0  0  0  0  0
    4.4010   -3.2070   25.5070 O   0  0  0  0  0  0  0  0  0  0  0  0
    6.5490   -2.8250   26.3090 N   0  0  0  0  0  0  0  0  0  0  0  0
    6.4570   -1.5860   27.0130 C   0  0  0  0  0  0  0  0  0  0  0  0
    5.8920   -0.3970   26.5480 C   0  0  0  0  0  0  0  0  0  0  0  0
    5.8330    0.7700   27.2790 C   0  0  0  0  0  0  0  0  0  0  0  0
    6.3260    0.9220   28.5700 C   0  0  0  0  0  0  0  0  0  0  0  0
    6.9460   -0.3200   29.1200 C   0  0  0  0  0  0  0  0  0  0  0  0
    7.5100   -0.1880   30.5540 C   0  0  0  0  0  0  0  0  0  0  0  0
    6.6770   -0.1910   31.6850 N   0  0  0  0  0  0  0  0  0  0  0  0
    5.2580   -0.0920   31.4410 C   0  0  0  0  0  0  0  0  0  0  0  0
    4.3520   -0.0680   32.6440 C   0  0  0  0  0  0  0  0  0  0  0  0
    5.1310   -0.1470   33.9700 C   0  0  0  0  0  0  0  0  0  0  0  0
    6.4790    0.0800   33.9600 C   0  0  0  0  0  0  0  0  0  0  0  0
    7.2540    0.3820   32.8640 C   0  0  0  0  0  0  0  0  0  0  0  0
    8.3010    1.0710   32.9660 O   0  0  0  0  0  0  0  0  0  0  0  0
    7.0080   -1.5000   28.3950 C   0  0  0  0  0  0  0  0  0  0  0  0
    6.1210   -5.1450   23.8240 C   0  0  0  0  0  0  0  0  0  0  0  0
    6.6350   -5.4660   22.4350 C   0  0  0  0  0  0  0  0  0  0  0  0
  1  2  1  0
  2  3  2  0
  2  4  1  0
  4  5  1  0
  5  6  1  0
  6  7  1  0
  7  8  1  0
  8  9  2  0
  8 10  1  0
 10 11  1  0
 11 12  2  0
 12 13  1  0
 13 14  2  0
 14 15  1  0
 15 16  1  0
 16 17  1  0
 17 18  1  0
 18 19  2  0
 19 20  1  0
 20 21  2  0
 17 22  1  0
 21 22  1  0
 22 23  2  0
 11 24  1  0
 15 24  2  0
  7 25  1  0
  4 26  1  0
 25 26  1  0
M  END
