piperidine-amides-12657-covalent
     RDKit          3D

 22 23  0  0  0  0  0  0  0  0999 V2000
    7.1120   -3.2650   19.1400 C   0  0  0  0  0  0  0  0  0  0  0  0
    6.3350   -3.9850   20.1770 C   0  0  0  0  0  0  0  0  0  0  0  0
    5.2300   -4.4360   19.8290 O   0  0  0  0  0  0  0  0  0  0  0  0
    6.8430   -4.2060   21.4570 N   0  0  0  0  0  0  0  0  0  0  0  0
    7.5950   -3.1700   22.0930 C   0  0  0  0  0  0  0  0  0  0  0  0
    7.1230   -2.7930   23.4210 C   0  0  0  0  0  0  0  0  0  0  0  0
    6.4920   -3.8730   24.2060 C   0  0  0  0  0  0  0  0  0  0  0  0
    5.7960   -3.3160   25.3900 C   0  0  0  0  0  0  0  0  0  0  0  0
    4.5690   -3.1170   25.3180 O   0  0  0  0  0  0  0  0  0  0  0  0
    6.5140   -3.0030   26.5610 N   0  0  0  0  0  0  0  0  0  0  0  0
    6.2100   -3.5570   27.9060 C   0  0  0  0  0  0  0  0  0  0  0  0
    6.0580   -5.0450   27.9770 C   0  0  2  0  0  0  0  0  0  0  0  0
    5.5780   -5.8690   26.8710 C   0  0  0  0  0  0  0  0  0  0  0  0
    4.8300   -5.7930   28.2600 C   0  0  0  0  0  0  0  0  0  0  0  0
    4.8100   -6.9040   29.0260 C   0  0  0  0  0  0  0  0  0  0  0  0
    5.9290   -7.4220   29.5950 C   0  0  0  0  0  0  0  0  0  0  0  0
    3.4520   -7.3140   29.0610 N   0  0  0  0  0  0  0  0  0  0  0  0
    2.7150   -6.4860   28.3530 O   0  0  0  0  0  0  0  0  0  0  0  0
    3.5640   -5.4730   27.8090 C   0  0  0  0  0  0  0  0  0  0  0  0
    3.1240   -4.4430   27.0220 C   0  0  0  0  0  0  0  0  0  0  0  0
    5.5960   -4.7390   23.3650 C   0  0  0  0  0  0  0  0  0  0  0  0
    6.4050   -5.3120   22.2730 C   0  0  0  0  0  0  0  0  0  0  0  0
  1  2  1  0
  2  3  2  0
  2  4  1  0
  4  5  1  0
  5  6  1  0
  6  7  1  0
  7  8  1  0
  8  9  2  0
  8 10  1  0
 10 11  1  0
 11 12  1  0
 12 13  1  6
 12 14  1  0
 14 15  1  0
 15 16  1  0
 15 17  2  0
 17 18  1  0
 14 19  2  0
 18 19  1  0
 19 20  1  0
  7 21  1  0
  4 22  1  0
 21 22  1  0
M  END
