piperidine-amides-23487-covalent
     RDKit          3D

 24 26  0  0  0  0  0  0  0  0999 V2000
    7.0360   -3.3660   19.3710 C   0  0  0  0  0  0  0  0  0  0  0  0
    6.4150   -4.2430   20.3770 C   0  0  0  0  0  0  0  0  0  0  0  0
    5.3960   -4.8700   19.9930 O   0  0  0  0  0  0  0  0  0  0  0  0
    6.9620   -4.4240   21.6820 N   0  0  0  0  0  0  0  0  0  0  0  0
    6.4430   -5.4610   22.4870 C   0  0  0  0  0  0  0  0  0  0  0  0
    6.3150   -5.1270   23.9120 C   0  0  0  0  0  0  0  0  0  0  0  0
    6.4940   -3.7090   24.3570 C   0  0  0  0  0  0  0  0  0  0  0  0
    5.3190   -3.2820   25.2290 C   0  0  0  0  0  0  0  0  0  0  0  0
    4.2240   -3.1360   24.6660 O   0  0  0  0  0  0  0  0  0  0  0  0
    5.3470   -3.0330   26.6350 N   0  0  0  0  0  0  0  0  0  0  0  0
    4.3400   -2.4500   27.4050 C   0  0  0  0  0  0  0  0  0  0  0  0
    3.8700   -3.1260   28.5990 C   0  0  0  0  0  0  0  0  0  0  0  0
    5.0590   -3.4800   29.4750 C   0  0  0  0  0  0  0  0  0  0  0  0
    5.4030   -4.7390   28.8920 N   0  0  0  0  0  0  0  0  0  0  0  0
    5.2550   -5.7260   29.8980 C   0  0  0  0  0  0  0  0  0  0  0  0
    4.0530   -5.4530   30.7870 C   0  0  0  0  0  0  0  0  0  0  0  0
    3.9960   -6.5390   31.8230 C   0  0  0  0  0  0  0  0  0  0  0  0
    4.8260   -7.6030   31.9980 N   0  0  0  0  0  0  0  0  0  0  0  0
    5.9570   -7.7790   31.0780 C   0  0  0  0  0  0  0  0  0  0  0  0
    6.1130   -6.7570   30.0060 C   0  0  0  0  0  0  0  0  0  0  0  0
    6.4940   -4.6920   28.1720 C   0  0  0  0  0  0  0  0  0  0  0  0
    6.5080   -3.3950   27.3100 C   0  0  0  0  0  0  0  0  0  0  0  0
    6.7050   -2.7580   23.2080 C   0  0  0  0  0  0  0  0  0  0  0  0
    7.6570   -3.3790   22.3960 C   0  0  0  0  0  0  0  0  0  0  0  0
  1  2  1  0
  2  3  2  0
  2  4  1  0
  4  5  1  0
  5  6  1  0
  6  7  1  0
  7  8  1  0
  8  9  2  0
  8 10  1  0
 10 11  1  0
 11 12  1  0
 12 13  1  0
 13 14  1  0
 14 15  1  0
 15 16  2  0
 16 17  1  0
 17 18  2  0
 18 19  1  0
 15 20  1  0
 19 20  2  0
 14 21  1  0
 10 22  1  0
 21 22  1  0
  7 23  1  0
  4 24  1  0
 23 24  1  0
M  END
