piperidine-amides-6959-covalent
     RDKit          3D

 22 24  0  0  0  0  0  0  0  0999 V2000
    7.0390   -3.3450   19.3100 C   0  0  0  0  0  0  0  0  0  0  0  0
    6.3870   -4.1950   20.3180 C   0  0  0  0  0  0  0  0  0  0  0  0
    5.3890   -4.8750   19.9920 O   0  0  0  0  0  0  0  0  0  0  0  0
    6.8970   -4.2960   21.6250 N   0  0  0  0  0  0  0  0  0  0  0  0
    7.6820   -3.2170   22.1910 C   0  0  0  0  0  0  0  0  0  0  0  0
    6.8400   -2.6290   23.3210 C   0  0  0  0  0  0  0  0  0  0  0  0
    6.5150   -3.7680   24.2580 C   0  0  0  0  0  0  0  0  0  0  0  0
    5.7020   -3.2810   25.4020 C   0  0  0  0  0  0  0  0  0  0  0  0
    4.4660   -3.2160   25.2410 O   0  0  0  0  0  0  0  0  0  0  0  0
    6.3000   -2.9010   26.6390 N   0  0  0  0  0  0  0  0  0  0  0  0
    6.6930   -1.5280   26.8730 C   0  0  2  0  0  0  0  0  0  0  0  0
    7.1060   -1.3530   28.3210 C   0  0  0  0  0  0  0  0  0  0  0  0
    7.2220    0.0010   28.2610 O   0  0  0  0  0  0  0  0  0  0  0  0
    6.1390    0.4800   27.6510 C   0  0  0  0  0  0  0  0  0  0  0  0
    6.2120    1.7720   27.2240 C   0  0  0  0  0  0  0  0  0  0  0  0
    5.9110    2.6330   28.2780 C   0  0  0  0  0  0  0  0  0  0  0  0
    5.2550    1.9630   29.3070 C   0  0  0  0  0  0  0  0  0  0  0  0
    5.8730    0.7470   30.0040 C   0  0  0  0  0  0  0  0  0  0  0  0
    5.2670    0.4920   28.6600 C   0  0  0  0  0  0  0  0  0  0  0  0
    5.6310   -0.4000   26.6920 C   0  0  0  0  0  0  0  0  0  0  0  0
    5.7450   -4.8560   23.5280 C   0  0  0  0  0  0  0  0  0  0  0  0
    6.5350   -5.3830   22.4930 C   0  0  0  0  0  0  0  0  0  0  0  0
  1  2  1  0
  2  3  2  0
  2  4  1  0
  4  5  1  0
  5  6  1  0
  6  7  1  0
  7  8  1  0
  8  9  2  0
  8 10  1  0
 11 10  1  1
 11 12  1  0
 12 13  1  0
 14 13  1  0
 14 15  1  0
 15 16  1  0
 16 17  1  0
 17 18  1  0
 14 19  1  0
 18 19  1  0
 11 20  1  0
 14 20  1  0
  7 21  1  0
  4 22  1  0
 21 22  1  0
M  END
