piperidine-amides-3081-covalent
     RDKit          3D

 23 24  0  0  0  0  0  0  0  0999 V2000
    7.0590   -3.3690   19.3200 C   0  0  0  0  0  0  0  0  0  0  0  0
    6.3400   -4.1580   20.3130 C   0  0  0  0  0  0  0  0  0  0  0  0
    5.3530   -4.8070   19.9730 O   0  0  0  0  0  0  0  0  0  0  0  0
    6.8050   -4.2220   21.6700 N   0  0  0  0  0  0  0  0  0  0  0  0
    7.7280   -3.2140   22.1440 C   0  0  0  0  0  0  0  0  0  0  0  0
    7.5800   -3.0430   23.6210 C   0  0  0  0  0  0  0  0  0  0  0  0
    6.2330   -3.6250   23.9770 C   0  0  0  0  0  0  0  0  0  0  0  0
    5.9080   -3.2760   25.3880 C   0  0  0  0  0  0  0  0  0  0  0  0
    4.7460   -3.3530   25.8340 O   0  0  0  0  0  0  0  0  0  0  0  0
    6.9620   -2.8450   26.2370 N   0  0  0  0  0  0  0  0  0  0  0  0
    6.7770   -1.6650   27.0700 C   0  0  0  0  0  0  0  0  0  0  0  0
    7.2910   -1.5550   28.4810 C   0  0  0  0  0  0  0  0  0  0  0  0
    7.0820   -0.4020   29.2370 C   0  0  0  0  0  0  0  0  0  0  0  0
    7.6780   -0.2800   30.8790 Cl  0  0  0  0  0  0  0  0  0  0  0  0
    6.3880    0.6830   28.6840 C   0  0  0  0  0  0  0  0  0  0  0  0
    5.8760    0.7070   27.4170 C   0  0  0  0  0  0  0  0  0  0  0  0
    6.0400   -0.4450   26.5670 C   0  0  0  0  0  0  0  0  0  0  0  0
    5.5410   -0.3800   25.4130 O   0  0  0  0  0  0  0  0  0  0  0  0
    4.2120   -0.0120   25.5490 C   0  0  0  0  0  0  0  0  0  0  0  0
    4.0520    0.9010   24.5310 C   0  0  0  0  0  0  0  0  0  0  0  0
    3.2020   -1.1430   25.5110 C   0  0  0  0  0  0  0  0  0  0  0  0
    6.0410   -5.0410   23.6920 C   0  0  0  0  0  0  0  0  0  0  0  0
    6.6200   -5.4070   22.4770 C   0  0  0  0  0  0  0  0  0  0  0  0
  1  2  1  0
  2  3  2  0
  2  4  1  0
  4  5  1  0
  5  6  1  0
  6  7  1  0
  7  8  1  0
  8  9  2  0
  8 10  1  0
 10 11  1  0
 11 12  2  0
 12 13  1  0
 13 14  1  0
 13 15  2  0
 15 16  1  0
 11 17  1  0
 16 17  2  0
 17 18  1  0
 18 19  1  0
 19 20  1  0
 19 21  1  0
  7 22  1  0
  4 23  1  0
 22 23  1  0
M  END
