piperidine-amides-14216-covalent
     RDKit          3D

 24 26  0  0  0  0  0  0  0  0999 V2000
    7.0420   -3.3270   19.3320 C   0  0  0  0  0  0  0  0  0  0  0  0
    6.3500   -4.1870   20.3310 C   0  0  0  0  0  0  0  0  0  0  0  0
    5.3500   -4.8300   19.9740 O   0  0  0  0  0  0  0  0  0  0  0  0
    6.8730   -4.2880   21.6410 N   0  0  0  0  0  0  0  0  0  0  0  0
    7.6370   -3.2030   22.2300 C   0  0  0  0  0  0  0  0  0  0  0  0
    7.4750   -3.2460   23.7580 C   0  0  0  0  0  0  0  0  0  0  0  0
    6.0850   -3.7060   24.0490 C   0  0  0  0  0  0  0  0  0  0  0  0
    5.5240   -3.2070   25.3340 C   0  0  0  0  0  0  0  0  0  0  0  0
    4.2930   -3.1260   25.3870 O   0  0  0  0  0  0  0  0  0  0  0  0
    6.3380   -2.8540   26.4140 N   0  0  0  0  0  0  0  0  0  0  0  0
    6.7270   -1.5500   26.8480 C   0  0  2  0  0  0  0  0  0  0  0  0
    7.1560   -1.4190   28.1760 C   0  0  0  0  0  0  0  0  0  0  0  0
    6.5660   -0.5700   29.1570 C   0  0  0  0  0  0  0  0  0  0  0  0
    6.0890    0.6850   28.8130 C   0  0  0  0  0  0  0  0  0  0  0  0
    5.6210    0.8530   27.4370 C   0  0  0  0  0  0  0  0  0  0  0  0
    4.8470    1.9570   26.7220 C   0  0  0  0  0  0  0  0  0  0  0  0
    4.4800    3.0640   27.5070 F   0  0  0  0  0  0  0  0  0  0  0  0
    4.6040    1.6560   25.2310 C   0  0  0  0  0  0  0  0  0  0  0  0
    5.0490    0.4900   24.6020 C   0  0  0  0  0  0  0  0  0  0  0  0
    4.6470    0.5590   23.2350 F   0  0  0  0  0  0  0  0  0  0  0  0
    5.8100   -0.6570   25.1960 C   0  0  0  0  0  0  0  0  0  0  0  0
    6.0030   -0.2870   26.6440 C   0  0  0  0  0  0  0  0  0  0  0  0
    6.0900   -5.1510   23.8360 C   0  0  0  0  0  0  0  0  0  0  0  0
    6.6120   -5.4710   22.4220 C   0  0  0  0  0  0  0  0  0  0  0  0
  1  2  1  0
  2  3  2  0
  2  4  1  0
  4  5  1  0
  5  6  1  0
  6  7  1  0
  7  8  1  0
  8  9  2  0
  8 10  1  0
 11 10  1  1
 11 12  1  0
 12 13  1  0
 13 14  1  0
 14 15  1  0
 15 16  2  0
 16 17  1  0
 16 18  1  0
 18 19  2  0
 19 20  1  0
 19 21  1  0
 11 22  1  0
 15 22  1  0
 21 22  2  0
  7 23  1  0
  4 24  1  0
 23 24  1  0
M  END
