piperidine-amides-19109-covalent
     RDKit          3D

 17 18  0  0  0  0  0  0  0  0999 V2000
    7.0860   -3.3570   19.2750 C   0  0  0  0  0  0  0  0  0  0  0  0
    6.3670   -4.0730   20.3020 C   0  0  0  0  0  0  0  0  0  0  0  0
    5.3040   -4.6710   19.9400 O   0  0  0  0  0  0  0  0  0  0  0  0
    6.8180   -4.1910   21.6380 N   0  0  0  0  0  0  0  0  0  0  0  0
    6.5340   -5.4300   22.3720 C   0  0  0  0  0  0  0  0  0  0  0  0
    5.4750   -4.8590   23.3840 C   0  0  0  0  0  0  0  0  0  0  0  0
    6.1480   -3.7340   24.1550 C   0  0  0  0  0  0  0  0  0  0  0  0
    5.1010   -3.1350   25.1980 C   0  0  0  0  0  0  0  0  0  0  0  0
    3.9810   -3.1880   24.7260 O   0  0  0  0  0  0  0  0  0  0  0  0
    5.6720   -2.7510   26.2630 N   0  0  0  0  0  0  0  0  0  0  0  0
    6.5120   -2.5020   27.2880 C   0  0  0  0  0  0  0  0  0  0  0  0
    5.8540   -1.8710   28.1330 C   0  0  0  0  0  0  0  0  0  0  0  0
    6.0260   -1.2950   29.4160 C   0  0  0  0  0  0  0  0  0  0  0  0
    4.6380   -0.3900   30.3430 Br  0  0  0  0  0  0  0  0  0  0  0  0
    4.6640   -1.9420   27.2050 C   0  0  0  0  0  0  0  0  0  0  0  0
    6.7940   -2.6160   23.3360 C   0  0  0  0  0  0  0  0  0  0  0  0
    7.5830   -3.1660   22.3200 C   0  0  0  0  0  0  0  0  0  0  0  0
  1  2  1  0
  2  3  2  0
  2  4  1  0
  4  5  1  0
  5  6  1  0
  6  7  1  0
  7  8  1  0
  8  9  2  0
  8 10  1  0
 10 11  1  0
 11 12  1  0
 12 13  2  3
 13 14  1  0
 10 15  1  0
 12 15  1  0
  7 16  1  0
  4 17  1  0
 16 17  1  0
M  END
