piperidine-amides-26995-covalent
     RDKit          3D

 25 27  0  0  0  0  0  0  0  0999 V2000
    7.0560   -3.3380   19.3100 C   0  0  0  0  0  0  0  0  0  0  0  0
    6.3880   -4.1830   20.3030 C   0  0  0  0  0  0  0  0  0  0  0  0
    5.3180   -4.7330   19.9400 O   0  0  0  0  0  0  0  0  0  0  0  0
    6.9500   -4.4100   21.5590 N   0  0  0  0  0  0  0  0  0  0  0  0
    6.5340   -5.5500   22.3300 C   0  0  0  0  0  0  0  0  0  0  0  0
    5.5860   -5.0420   23.3750 C   0  0  0  0  0  0  0  0  0  0  0  0
    6.2570   -4.0260   24.2570 C   0  0  0  0  0  0  0  0  0  0  0  0
    5.2820   -3.4600   25.2180 C   0  0  0  0  0  0  0  0  0  0  0  0
    4.3640   -2.7620   24.7580 O   0  0  0  0  0  0  0  0  0  0  0  0
    5.3350   -3.6550   26.6120 N   0  0  0  0  0  0  0  0  0  0  0  0
    6.5430   -3.3540   27.2770 C   0  0  0  0  0  0  0  0  0  0  0  0
    6.8210   -4.4600   28.2880 C   0  0  0  0  0  0  0  0  0  0  0  0
    5.8970   -4.5930   29.2150 C   0  0  0  0  0  0  0  0  0  0  0  0
    5.8020   -5.8290   29.9150 O   0  0  0  0  0  0  0  0  0  0  0  0
    4.6680   -6.3130   30.4680 C   0  0  0  0  0  0  0  0  0  0  0  0
    4.7910   -7.5510   31.0750 C   0  0  0  0  0  0  0  0  0  0  0  0
    4.5470   -7.4700   32.3970 N   0  0  0  0  0  0  0  0  0  0  0  0
    5.3200   -8.0610   33.3150 C   0  0  0  0  0  0  0  0  0  0  0  0
    4.5840   -8.7760   34.2200 C   0  0  0  0  0  0  0  0  0  0  0  0
    3.1020   -8.6880   33.9510 C   0  0  0  0  0  0  0  0  0  0  0  0
    3.1950   -7.7940   32.7010 C   0  0  0  0  0  0  0  0  0  0  0  0
    4.6540   -4.2310   28.8320 C   0  0  0  0  0  0  0  0  0  0  0  0
    4.6270   -3.1250   27.7770 C   0  0  0  0  0  0  0  0  0  0  0  0
    6.9290   -2.9180   23.5180 C   0  0  0  0  0  0  0  0  0  0  0  0
    7.6250   -3.3380   22.2430 C   0  0  0  0  0  0  0  0  0  0  0  0
  1  2  1  0
  2  3  2  0
  2  4  1  0
  4  5  1  0
  5  6  1  0
  6  7  1  0
  7  8  1  0
  8  9  2  0
  8 10  1  0
 10 11  1  0
 11 12  1  0
 12 13  1  0
 13 14  1  0
 14 15  1  0
 15 16  1  0
 16 17  1  0
 17 18  1  0
 18 19  1  0
 19 20  1  0
 17 21  1  0
 20 21  1  0
 13 22  1  0
 10 23  1  0
 22 23  1  0
  7 24  1  0
  4 25  1  0
 24 25  1  0
M  END
