piperidine-amides-27792-covalent
     RDKit          3D

 26 28  0  0  0  0  0  0  0  0999 V2000
    7.1050   -3.3310   19.2580 C   0  0  0  0  0  0  0  0  0  0  0  0
    6.4350   -4.1700   20.2720 C   0  0  0  0  0  0  0  0  0  0  0  0
    5.3660   -4.7240   19.9450 O   0  0  0  0  0  0  0  0  0  0  0  0
    7.0360   -4.3590   21.5180 N   0  0  0  0  0  0  0  0  0  0  0  0
    6.6620   -5.4490   22.3510 C   0  0  0  0  0  0  0  0  0  0  0  0
    6.1730   -5.0530   23.6750 C   0  0  0  0  0  0  0  0  0  0  0  0
    6.6480   -3.7490   24.2020 C   0  0  0  0  0  0  0  0  0  0  0  0
    5.7290   -3.3160   25.2690 C   0  0  0  0  0  0  0  0  0  0  0  0
    4.7330   -2.6540   24.9320 O   0  0  0  0  0  0  0  0  0  0  0  0
    5.9200   -3.6360   26.6110 N   0  0  0  0  0  0  0  0  0  0  0  0
    4.9130   -4.4960   27.2380 C   0  0  0  0  0  0  0  0  0  0  0  0
    5.4710   -5.3970   28.2670 C   0  0  0  0  0  0  0  0  0  0  0  0
    5.5200   -4.8910   29.6050 C   0  0  0  0  0  0  0  0  0  0  0  0
    5.7660   -3.4900   29.4340 N   0  0  0  0  0  0  0  0  0  0  0  0
    4.8500   -2.4210   29.6090 C   0  0  0  0  0  0  0  0  0  0  0  0
    4.0450   -2.4140   30.7280 C   0  0  0  0  0  0  0  0  0  0  0  0
    3.0920   -3.3780   30.8900 C   0  0  0  0  0  0  0  0  0  0  0  0
    2.2640   -3.4020   31.9960 C   0  0  0  0  0  0  0  0  0  0  0  0
    2.3390   -2.4640   33.0060 C   0  0  0  0  0  0  0  0  0  0  0  0
    3.2920   -1.4580   32.8960 C   0  0  0  0  0  0  0  0  0  0  0  0
    4.1410   -1.4780   31.7100 C   0  0  0  0  0  0  0  0  0  0  0  0
    5.1830   -0.3890   31.5770 C   0  0  0  0  0  0  0  0  0  0  0  0
    6.8910   -3.1400   28.6710 C   0  0  0  0  0  0  0  0  0  0  0  0
    6.4560   -2.5990   27.4480 C   0  0  0  0  0  0  0  0  0  0  0  0
    6.9800   -2.7510   23.2040 C   0  0  0  0  0  0  0  0  0  0  0  0
    7.8290   -3.3130   22.1420 C   0  0  0  0  0  0  0  0  0  0  0  0
  1  2  1  0
  2  3  2  0
  2  4  1  0
  4  5  1  0
  5  6  1  0
  6  7  1  0
  7  8  1  0
  8  9  2  0
  8 10  1  0
 10 11  1  0
 11 12  1  0
 12 13  1  0
 13 14  1  0
 14 15  1  0
 15 16  1  0
 16 17  2  0
 17 18  1  0
 18 19  2  0
 19 20  1  0
 16 21  1  0
 20 21  2  0
 21 22  1  0
 14 23  1  0
 10 24  1  0
 23 24  1  0
  7 25  1  0
  4 26  1  0
 25 26  1  0
M  END
