piperidine-amides-32293-covalent
     RDKit          3D

 24 26  0  0  0  0  0  0  0  0999 V2000
    6.9560   -3.3360   19.3140 C   0  0  0  0  0  0  0  0  0  0  0  0
    6.2270   -4.1810   20.3070 C   0  0  0  0  0  0  0  0  0  0  0  0
    5.2890   -4.8960   19.9530 O   0  0  0  0  0  0  0  0  0  0  0  0
    6.6400   -4.1610   21.6360 N   0  0  0  0  0  0  0  0  0  0  0  0
    6.6460   -5.3750   22.4310 C   0  0  0  0  0  0  0  0  0  0  0  0
    6.1130   -5.0780   23.8500 C   0  0  0  0  0  0  0  0  0  0  0  0
    5.8800   -3.5990   24.0160 C   0  0  0  0  0  0  0  0  0  0  0  0
    5.2060   -3.2370   25.3020 C   0  0  0  0  0  0  0  0  0  0  0  0
    3.9910   -3.0850   25.1990 O   0  0  0  0  0  0  0  0  0  0  0  0
    5.8370   -3.0750   26.5550 N   0  0  0  0  0  0  0  0  0  0  0  0
    5.1010   -3.2500   27.7550 C   0  0  0  0  0  0  0  0  0  0  0  0
    5.2000   -4.4140   28.4540 C   0  0  0  0  0  0  0  0  0  0  0  0
    6.5290   -4.7820   28.0670 O   0  0  0  0  0  0  0  0  0  0  0  0
    7.2960   -3.6460   27.9420 C   0  0  0  0  0  0  0  0  0  0  0  0
    7.1980   -2.8520   26.7750 C   0  0  1  0  0  0  0  0  0  0  0  0
    8.1030   -2.8760   25.5710 C   0  0  0  0  0  0  0  0  0  0  0  0
    7.7090   -3.6020   24.3180 C   0  0  0  0  0  0  0  0  0  0  0  0
    8.6720   -3.5610   23.1730 C   0  0  0  0  0  0  0  0  0  0  0  0
    9.8690   -2.9160   23.2250 C   0  0  0  0  0  0  0  0  0  0  0  0
   10.4600   -2.1640   24.3410 C   0  0  0  0  0  0  0  0  0  0  0  0
   12.1960   -1.3970   24.0930 Br  0  0  0  0  0  0  0  0  0  0  0  0
    9.4490   -2.1970   25.5280 C   0  0  0  0  0  0  0  0  0  0  0  0
    7.0980   -2.8650   23.6520 C   0  0  0  0  0  0  0  0  0  0  0  0
    7.2230   -2.9430   22.1240 C   0  0  0  0  0  0  0  0  0  0  0  0
  1  2  1  0
  2  3  2  0
  2  4  1  0
  4  5  1  0
  5  6  1  0
  6  7  1  0
  7  8  1  0
  8  9  2  0
  8 10  1  0
 10 11  1  0
 11 12  1  0
 12 13  1  0
 13 14  1  0
 10 15  1  0
 14 15  1  0
 15 16  1  6
 16 17  2  0
 17 18  1  0
 18 19  2  0
 19 20  1  0
 20 21  1  0
 16 22  1  0
 20 22  2  0
  7 23  1  0
  4 24  1  0
 23 24  1  0
M  END
