piperidine-amides-30256-covalent
     RDKit          3D

 27 29  0  0  0  0  0  0  0  0999 V2000
    7.1030   -3.1750   19.0920 C   0  0  0  0  0  0  0  0  0  0  0  0
    6.2880   -3.8700   20.0800 C   0  0  0  0  0  0  0  0  0  0  0  0
    5.2050   -4.3590   19.7810 O   0  0  0  0  0  0  0  0  0  0  0  0
    6.7690   -4.0470   21.4030 N   0  0  0  0  0  0  0  0  0  0  0  0
    6.2020   -5.1050   22.1760 C   0  0  0  0  0  0  0  0  0  0  0  0
    5.3240   -4.5060   23.2280 C   0  0  0  0  0  0  0  0  0  0  0  0
    6.2220   -3.6360   24.0790 C   0  0  0  0  0  0  0  0  0  0  0  0
    5.4530   -3.1170   25.2500 C   0  0  0  0  0  0  0  0  0  0  0  0
    4.2070   -3.0710   25.2710 O   0  0  0  0  0  0  0  0  0  0  0  0
    6.1640   -2.6520   26.3770 N   0  0  0  0  0  0  0  0  0  0  0  0
    6.8430   -1.4070   26.1940 C   0  0  0  0  0  0  0  0  0  0  0  0
    6.4260   -3.5760   27.4710 C   0  0  0  0  0  0  0  0  0  0  0  0
    7.2070   -4.6640   27.1960 C   0  0  2  0  0  0  0  0  0  0  0  0
    8.1690   -5.0800   28.0930 C   0  0  0  0  0  0  0  0  0  0  0  0
    9.4250   -5.1940   27.6040 C   0  0  0  0  0  0  0  0  0  0  0  0
    9.6420   -5.7420   26.2880 C   0  0  0  0  0  0  0  0  0  0  0  0
    8.7910   -5.2090   25.4140 N   0  0  0  0  0  0  0  0  0  0  0  0
    9.1790   -4.2360   24.4290 C   0  0  0  0  0  0  0  0  0  0  0  0
    7.4420   -4.9610   25.8860 C   0  0  1  0  0  0  0  0  0  0  0  0
    6.5360   -5.8630   25.3640 C   0  0  0  0  0  0  0  0  0  0  0  0
    5.1700   -5.9790   25.7790 C   0  0  0  0  0  0  0  0  0  0  0  0
    4.4930   -6.9110   25.1290 N   0  0  0  0  0  0  0  0  0  0  0  0
    5.4150   -7.4130   24.2770 C   0  0  0  0  0  0  0  0  0  0  0  0
    6.6610   -6.8240   24.3820 N   0  0  0  0  0  0  0  0  0  0  0  0
    7.8120   -7.1590   23.6220 C   0  0  0  0  0  0  0  0  0  0  0  0
    6.7470   -2.4720   23.2650 C   0  0  0  0  0  0  0  0  0  0  0  0
    7.5370   -3.0220   22.0650 C   0  0  0  0  0  0  0  0  0  0  0  0
  1  2  1  0
  2  3  2  0
  2  4  1  0
  4  5  1  0
  5  6  1  0
  6  7  1  0
  7  8  1  0
  8  9  2  0
  8 10  1  0
 10 11  1  0
 10 12  1  0
 13 12  1  6
 13 14  1  0
 14 15  1  0
 15 16  1  0
 16 17  1  0
 17 18  1  0
 13 19  1  0
 17 19  1  0
 19 20  1  1
 20 21  2  0
 21 22  1  0
 22 23  2  0
 20 24  1  0
 23 24  1  0
 24 25  1  0
  7 26  1  0
  4 27  1  0
 26 27  1  0
M  END
