piperidine-amides-9303-covalent
     RDKit          3D

 20 22  0  0  0  0  0  0  0  0999 V2000
    7.0940   -3.3150   19.2680 C   0  0  0  0  0  0  0  0  0  0  0  0
    6.3840   -4.1130   20.2640 C   0  0  0  0  0  0  0  0  0  0  0  0
    5.3470   -4.7160   19.9460 O   0  0  0  0  0  0  0  0  0  0  0  0
    6.8890   -4.2490   21.5570 N   0  0  0  0  0  0  0  0  0  0  0  0
    7.7090   -3.2420   22.1960 C   0  0  0  0  0  0  0  0  0  0  0  0
    6.9100   -2.7680   23.3700 C   0  0  0  0  0  0  0  0  0  0  0  0
    6.5610   -3.9200   24.2560 C   0  0  0  0  0  0  0  0  0  0  0  0
    5.7970   -3.4900   25.4510 C   0  0  0  0  0  0  0  0  0  0  0  0
    4.5300   -3.5470   25.4300 O   0  0  0  0  0  0  0  0  0  0  0  0
    6.3720   -2.9820   26.6380 N   0  0  0  0  0  0  0  0  0  0  0  0
    5.7350   -1.7740   27.1950 C   0  0  2  0  0  0  0  0  0  0  0  0
    6.4050   -0.7820   26.5860 C   0  0  0  0  0  0  0  0  0  0  0  0
    6.4870   -0.6340   28.0710 C   0  0  0  0  0  0  0  0  0  0  0  0
    7.4630   -1.3880   28.8990 C   0  0  0  0  0  0  0  0  0  0  0  0
    7.3450   -0.6620   30.2190 C   0  0  0  0  0  0  0  0  0  0  0  0
    7.6210    0.6870   29.8920 O   0  0  0  0  0  0  0  0  0  0  0  0
    6.5370    1.2710   29.2650 C   0  0  0  0  0  0  0  0  0  0  0  0
    5.7390    0.3300   28.6870 C   0  0  0  0  0  0  0  0  0  0  0  0
    5.7860   -4.9910   23.5290 C   0  0  0  0  0  0  0  0  0  0  0  0
    6.5810   -5.4350   22.3270 C   0  0  0  0  0  0  0  0  0  0  0  0
  1  2  1  0
  2  3  2  0
  2  4  1  0
  4  5  1  0
  5  6  1  0
  6  7  1  0
  7  8  1  0
  8  9  2  0
  8 10  1  0
 11 10  1  1
 11 12  1  0
 11 13  1  0
 13 12  1  0
 13 14  1  0
 14 15  1  0
 15 16  1  0
 16 17  1  0
 13 18  1  0
 17 18  1  0
  7 19  1  0
  4 20  1  0
 19 20  1  0
M  END
