piperidine-amides-27506-covalent
     RDKit          3D

 26 29  0  0  0  0  0  0  0  0999 V2000
    7.1300   -3.2940   19.2080 C   0  0  0  0  0  0  0  0  0  0  0  0
    6.4150   -4.0920   20.2060 C   0  0  0  0  0  0  0  0  0  0  0  0
    5.2890   -4.5460   19.8780 O   0  0  0  0  0  0  0  0  0  0  0  0
    7.0150   -4.3780   21.4260 N   0  0  0  0  0  0  0  0  0  0  0  0
    6.7000   -5.5880   22.1260 C   0  0  0  0  0  0  0  0  0  0  0  0
    5.8240   -5.1960   23.2680 C   0  0  0  0  0  0  0  0  0  0  0  0
    6.4870   -4.1500   24.1100 C   0  0  0  0  0  0  0  0  0  0  0  0
    5.5080   -3.6650   25.0760 C   0  0  0  0  0  0  0  0  0  0  0  0
    4.4620   -3.1400   24.6500 O   0  0  0  0  0  0  0  0  0  0  0  0
    5.6770   -3.7370   26.4400 N   0  0  0  0  0  0  0  0  0  0  0  0
    4.4720   -3.6550   27.2600 C   0  0  0  0  0  0  0  0  0  0  0  0
    4.6430   -4.2740   28.6300 C   0  0  0  0  0  0  0  0  0  0  0  0
    5.7170   -3.8750   29.2750 C   0  0  0  0  0  0  0  0  0  0  0  0
    5.6830   -2.6050   29.8370 C   0  0  0  0  0  0  0  0  0  0  0  0
    6.6840   -1.6840   29.6170 N   0  0  0  0  0  0  0  0  0  0  0  0
    6.4240   -0.5320   30.2670 N   0  0  0  0  0  0  0  0  0  0  0  0
    5.2040   -0.7550   30.9120 C   0  0  0  0  0  0  0  0  0  0  0  0
    4.5870    0.1850   31.6880 C   0  0  0  0  0  0  0  0  0  0  0  0
    3.4070   -0.1350   32.2720 C   0  0  0  0  0  0  0  0  0  0  0  0
    2.7670   -1.4840   32.0890 C   0  0  0  0  0  0  0  0  0  0  0  0
    3.5690   -2.4520   31.1850 C   0  0  0  0  0  0  0  0  0  0  0  0
    4.7680   -1.9910   30.6520 N   0  0  0  0  0  0  0  0  0  0  0  0
    6.7490   -3.7980   28.4700 C   0  0  0  0  0  0  0  0  0  0  0  0
    6.3880   -2.8760   27.3330 C   0  0  0  0  0  0  0  0  0  0  0  0
    7.0350   -2.9820   23.3840 C   0  0  0  0  0  0  0  0  0  0  0  0
    7.7360   -3.3300   22.1030 C   0  0  0  0  0  0  0  0  0  0  0  0
  1  2  1  0
  2  3  2  0
  2  4  1  0
  4  5  1  0
  5  6  1  0
  6  7  1  0
  7  8  1  0
  8  9  2  0
  8 10  1  0
 10 11  1  0
 11 12  1  0
 12 13  1  0
 13 14  1  0
 14 15  2  0
 15 16  1  0
 16 17  2  0
 17 18  1  0
 18 19  2  0
 19 20  1  0
 20 21  2  0
 14 22  1  0
 17 22  1  0
 21 22  1  0
 13 23  1  0
 10 24  1  0
 23 24  1  0
  7 25  1  0
  4 26  1  0
 25 26  1  0
M  END
