piperidine-amides-6720-covalent
     RDKit          3D

 24 26  0  0  0  0  0  0  0  0999 V2000
    7.0540   -3.3280   19.3780 C   0  0  0  0  0  0  0  0  0  0  0  0
    6.3990   -4.1940   20.3750 C   0  0  0  0  0  0  0  0  0  0  0  0
    5.4480   -4.9240   20.0110 O   0  0  0  0  0  0  0  0  0  0  0  0
    6.8560   -4.2340   21.7140 N   0  0  0  0  0  0  0  0  0  0  0  0
    7.7430   -3.2240   22.2400 C   0  0  0  0  0  0  0  0  0  0  0  0
    7.0570   -2.5690   23.4480 C   0  0  0  0  0  0  0  0  0  0  0  0
    6.4840   -3.6550   24.3530 C   0  0  0  0  0  0  0  0  0  0  0  0
    5.5830   -3.0230   25.3950 C   0  0  0  0  0  0  0  0  0  0  0  0
    4.3960   -2.8380   25.0100 O   0  0  0  0  0  0  0  0  0  0  0  0
    6.0090   -2.6060   26.7570 N   0  0  0  0  0  0  0  0  0  0  0  0
    6.6640   -1.3300   26.7760 C   0  0  0  0  0  0  0  0  0  0  0  0
    6.8960   -1.9280   28.0760 C   0  0  0  0  0  0  0  0  0  0  0  0
    6.1530   -3.0900   27.8570 N   0  0  0  0  0  0  0  0  0  0  0  0
    5.6350   -3.0160   26.5960 N   0  0  0  0  0  0  0  0  0  0  0  0
    4.8980   -4.1860   26.4730 C   0  0  0  0  0  0  0  0  0  0  0  0
    5.3130   -5.4110   26.0770 C   0  0  0  0  0  0  0  0  0  0  0  0
    4.3920   -6.4020   26.0460 C   0  0  0  0  0  0  0  0  0  0  0  0
    3.0940   -6.2400   26.3840 C   0  0  0  0  0  0  0  0  0  0  0  0
    2.3330   -5.0060   26.8620 C   0  0  0  0  0  0  0  0  0  0  0  0
    3.5540   -4.0450   26.8180 C   0  0  0  0  0  0  0  0  0  0  0  0
    3.2300   -2.7860   27.2040 F   0  0  0  0  0  0  0  0  0  0  0  0
    5.9020   -1.7910   25.6250 C   0  0  0  0  0  0  0  0  0  0  0  0
    5.6590   -4.6380   23.5210 C   0  0  0  0  0  0  0  0  0  0  0  0
    6.4960   -5.3020   22.6090 C   0  0  0  0  0  0  0  0  0  0  0  0
  1  2  1  0
  2  3  2  0
  2  4  1  0
  4  5  1  0
  5  6  1  0
  6  7  1  0
  7  8  1  0
  8  9  2  0
  8 10  1  0
 10 11  1  0
 11 12  1  0
 12 13  2  0
 13 14  1  0
 14 15  1  0
 15 16  2  0
 16 17  1  0
 17 18  2  0
 18 19  1  0
 15 20  1  0
 19 20  2  0
 20 21  1  0
 11 22  2  0
 14 22  1  0
  7 23  1  0
  4 24  1  0
 23 24  1  0
M  END
