piperidine-amides-6663-covalent
     RDKit          3D

 24 25  0  0  0  0  0  0  0  0999 V2000
    7.0810   -3.3050   19.2620 C   0  0  0  0  0  0  0  0  0  0  0  0
    6.3440   -4.1600   20.2050 C   0  0  0  0  0  0  0  0  0  0  0  0
    5.2400   -4.6370   19.8970 O   0  0  0  0  0  0  0  0  0  0  0  0
    6.9020   -4.4900   21.4330 N   0  0  0  0  0  0  0  0  0  0  0  0
    6.3240   -5.6090   22.1290 C   0  0  0  0  0  0  0  0  0  0  0  0
    5.8560   -5.0640   23.4860 C   0  0  0  0  0  0  0  0  0  0  0  0
    5.2830   -3.6720   23.2570 C   0  0  0  0  0  0  0  0  0  0  0  0
    4.7800   -3.1090   24.5100 C   0  0  0  0  0  0  0  0  0  0  0  0
    3.6280   -3.3480   24.9160 O   0  0  0  0  0  0  0  0  0  0  0  0
    5.6770   -2.3350   25.2150 N   0  0  0  0  0  0  0  0  0  0  0  0
    6.8700   -3.0270   25.3980 C   0  0  0  0  0  0  0  0  0  0  0  0
    7.9930   -2.4290   24.5520 C   0  0  0  0  0  0  0  0  0  0  0  0
    9.0140   -3.2060   24.0130 C   0  0  0  0  0  0  0  0  0  0  0  0
   10.0600   -2.6770   23.3070 C   0  0  0  0  0  0  0  0  0  0  0  0
   10.1340   -1.3340   23.0930 C   0  0  0  0  0  0  0  0  0  0  0  0
   11.0690   -0.5590   22.4720 C   0  0  0  0  0  0  0  0  0  0  0  0
   10.7990    0.7320   22.1920 O   0  0  0  0  0  0  0  0  0  0  0  0
   12.3250   -0.9670   22.1470 N   0  0  0  0  0  0  0  0  0  0  0  0
   12.6650   -2.0460   22.8750 C   0  0  0  0  0  0  0  0  0  0  0  0
   12.8370   -1.6270   24.3180 C   0  0  0  0  0  0  0  0  0  0  0  0
    9.1630   -0.5240   23.5490 C   0  0  0  0  0  0  0  0  0  0  0  0
    8.0520   -1.0890   24.3040 C   0  0  0  0  0  0  0  0  0  0  0  0
    6.3510   -2.7360   22.7480 C   0  0  0  0  0  0  0  0  0  0  0  0
    7.3750   -3.4030   22.1790 C   0  0  0  0  0  0  0  0  0  0  0  0
  1  2  1  0
  2  3  2  0
  2  4  1  0
  4  5  1  0
  5  6  1  0
  6  7  1  0
  7  8  1  0
  8  9  2  0
  8 10  1  0
 10 11  1  0
 11 12  1  0
 12 13  2  0
 13 14  1  0
 14 15  2  0
 15 16  1  0
 16 17  2  0
 16 18  1  0
 18 19  1  0
 19 20  1  0
 15 21  1  0
 12 22  1  0
 21 22  2  0
  7 23  1  0
  4 24  1  0
 23 24  1  0
M  END
