piperidine-amides-6579-covalent
     RDKit          3D

 24 25  0  0  0  0  0  0  0  0999 V2000
    7.1050   -3.2600   19.1650 C   0  0  0  0  0  0  0  0  0  0  0  0
    6.3380   -3.9990   20.1850 C   0  0  0  0  0  0  0  0  0  0  0  0
    5.2740   -4.5740   19.8850 O   0  0  0  0  0  0  0  0  0  0  0  0
    6.8170   -4.1070   21.4930 N   0  0  0  0  0  0  0  0  0  0  0  0
    7.7040   -3.0890   22.0080 C   0  0  0  0  0  0  0  0  0  0  0  0
    7.5730   -3.1240   23.5210 C   0  0  0  0  0  0  0  0  0  0  0  0
    6.1190   -3.4210   23.7820 C   0  0  0  0  0  0  0  0  0  0  0  0
    5.8300   -3.1880   25.1950 C   0  0  0  0  0  0  0  0  0  0  0  0
    4.6440   -3.0120   25.5530 O   0  0  0  0  0  0  0  0  0  0  0  0
    6.9240   -3.1740   26.0830 N   0  0  0  0  0  0  0  0  0  0  0  0
    7.7400   -4.3460   26.1940 C   0  0  0  0  0  0  0  0  0  0  0  0
    7.4730   -4.8900   27.5580 C   0  0  0  0  0  0  0  0  0  0  0  0
    7.4780   -4.0040   28.5660 C   0  0  0  0  0  0  0  0  0  0  0  0
    8.5980   -5.8470   27.8360 C   0  0  0  0  0  0  0  0  0  0  0  0
    6.2670   -5.7000   27.6570 C   0  0  0  0  0  0  0  0  0  0  0  0
    5.6540   -5.9380   28.8700 C   0  0  0  0  0  0  0  0  0  0  0  0
    5.9650   -7.1410   29.7420 C   0  0  0  0  0  0  0  0  0  0  0  0
    5.0260   -6.8960   30.9130 C   0  0  0  0  0  0  0  0  0  0  0  0
    3.9830   -5.9520   31.4610 C   0  0  0  0  0  0  0  0  0  0  0  0
    3.9410   -4.9530   30.4020 C   0  0  0  0  0  0  0  0  0  0  0  0
    2.8250   -3.6260   30.6330 Cl  0  0  0  0  0  0  0  0  0  0  0  0
    4.7050   -4.9740   29.2500 C   0  0  0  0  0  0  0  0  0  0  0  0
    5.8580   -4.8980   23.4950 C   0  0  0  0  0  0  0  0  0  0  0  0
    6.5990   -5.3180   22.2500 C   0  0  0  0  0  0  0  0  0  0  0  0
  1  2  1  0
  2  3  2  0
  2  4  1  0
  4  5  1  0
  5  6  1  0
  6  7  1  0
  7  8  1  0
  8  9  2  0
  8 10  1  0
 10 11  1  0
 12 11  1  0
 12 13  1  0
 12 14  1  0
 12 15  1  0
 15 16  1  0
 16 17  2  0
 17 18  1  0
 18 19  2  0
 19 20  1  0
 20 21  1  0
 16 22  1  0
 20 22  2  0
  7 23  1  0
  4 24  1  0
 23 24  1  0
M  END
