piperidine-amides-33826-covalent
     RDKit          3D

 30 32  0  0  0  0  0  0  0  0999 V2000
    7.0970   -3.3290   19.2810 C   0  0  0  0  0  0  0  0  0  0  0  0
    6.4120   -4.1390   20.3030 C   0  0  0  0  0  0  0  0  0  0  0  0
    5.3610   -4.7280   19.9520 O   0  0  0  0  0  0  0  0  0  0  0  0
    6.9580   -4.2860   21.6030 N   0  0  0  0  0  0  0  0  0  0  0  0
    7.6480   -3.1660   22.1490 C   0  0  0  0  0  0  0  0  0  0  0  0
    6.9900   -2.5460   23.2900 C   0  0  0  0  0  0  0  0  0  0  0  0
    6.6040   -3.4720   24.3620 C   0  0  0  0  0  0  0  0  0  0  0  0
    5.6700   -2.8040   25.3310 C   0  0  0  0  0  0  0  0  0  0  0  0
    4.6160   -2.3050   24.9040 O   0  0  0  0  0  0  0  0  0  0  0  0
    5.9630   -2.7650   26.7130 N   0  0  0  0  0  0  0  0  0  0  0  0
    6.1910   -3.9930   27.3840 C   0  0  0  0  0  0  0  0  0  0  0  0
    5.3080   -4.7160   28.2550 C   0  0  0  0  0  0  0  0  0  0  0  0
    6.2210   -5.5090   29.2050 C   0  0  0  0  0  0  0  0  0  0  0  0
    4.1880   -4.1260   28.9880 C   0  0  0  0  0  0  0  0  0  0  0  0
    4.7460   -5.8710   27.3350 C   0  0  0  0  0  0  0  0  0  0  0  0
    3.7890   -6.7920   27.8620 N   0  0  0  0  0  0  0  0  0  0  0  0
    3.1530   -7.4180   26.6940 C   0  0  0  0  0  0  0  0  0  0  0  0
    4.2020   -7.5290   28.9080 C   0  0  0  0  0  0  0  0  0  0  0  0
    6.4220   -1.6500   27.5320 C   0  0  2  0  0  0  0  0  0  0  0  0
    6.6530   -2.1740   28.9390 C   0  0  0  0  0  0  0  0  0  0  0  0
    7.0620   -0.9640   29.5920 C   0  0  0  0  0  0  0  0  0  0  0  0
    7.0000   -0.4270   28.4540 O   0  0  0  0  0  0  0  0  0  0  0  0
    6.0910    0.5390   28.1370 C   0  0  0  0  0  0  0  0  0  0  0  0
    6.9320    0.6370   28.9090 C   0  0  0  0  0  0  0  0  0  0  0  0
    6.3750   -0.4340   27.9560 C   0  0  0  0  0  0  0  0  0  0  0  0
    5.0420   -0.3460   26.8290 C   0  0  0  0  0  0  0  0  0  0  0  0
    5.0210    0.8750   27.3190 C   0  0  0  0  0  0  0  0  0  0  0  0
    5.6270   -0.4410   27.3170 C   0  0  0  0  0  0  0  0  0  0  0  0
    6.0540   -4.7590   23.8520 C   0  0  0  0  0  0  0  0  0  0  0  0
    6.5190   -5.2740   22.5420 C   0  0  0  0  0  0  0  0  0  0  0  0
  1  2  1  0
  2  3  2  0
  2  4  1  0
  4  5  1  0
  5  6  1  0
  6  7  1  0
  7  8  1  0
  8  9  2  0
  8 10  1  0
 10 11  1  0
 12 11  1  0
 12 13  1  0
 12 14  1  0
 12 15  1  0
 15 16  1  0
 16 17  1  0
 16 18  1  0
 19 10  1  6
 19 20  1  0
 20 21  1  0
 21 22  1  0
 22 23  1  0
 23 24  2  0
 24 25  1  0
 25 26  2  0
 26 27  1  0
 19 28  1  0
 23 28  1  0
 27 28  2  0
  7 29  1  0
  4 30  1  0
 29 30  1  0
M  END
