piperidine-amides-29437-covalent
     RDKit          3D

 24 26  0  0  0  0  0  0  0  0999 V2000
    7.0150   -3.3510   19.3810 C   0  0  0  0  0  0  0  0  0  0  0  0
    6.3710   -4.2380   20.3490 C   0  0  0  0  0  0  0  0  0  0  0  0
    5.3560   -4.8520   19.9770 O   0  0  0  0  0  0  0  0  0  0  0  0
    6.9090   -4.4350   21.6480 N   0  0  0  0  0  0  0  0  0  0  0  0
    6.6120   -5.6740   22.3160 C   0  0  0  0  0  0  0  0  0  0  0  0
    6.2430   -5.4430   23.7600 C   0  0  0  0  0  0  0  0  0  0  0  0
    5.8320   -4.0000   23.9120 C   0  0  0  0  0  0  0  0  0  0  0  0
    5.2090   -3.7500   25.2650 C   0  0  0  0  0  0  0  0  0  0  0  0
    4.4160   -2.8160   25.3260 O   0  0  0  0  0  0  0  0  0  0  0  0
    5.5650   -4.5700   26.3320 N   0  0  0  0  0  0  0  0  0  0  0  0
    4.7230   -4.8810   27.4700 C   0  0  0  0  0  0  0  0  0  0  0  0
    5.2220   -4.5230   28.7490 C   0  0  0  0  0  0  0  0  0  0  0  0
    5.6770   -3.2600   28.7110 C   0  0  0  0  0  0  0  0  0  0  0  0
    5.2830   -2.2740   29.6100 C   0  0  0  0  0  0  0  0  0  0  0  0
    5.8340   -0.8920   29.4310 C   0  0  0  0  0  0  0  0  0  0  0  0
    5.3390    0.3520   30.5820 Cl  0  0  0  0  0  0  0  0  0  0  0  0
    6.7930   -0.5670   28.2740 C   0  0  0  0  0  0  0  0  0  0  0  0
    7.4460    1.0460   28.0300 Cl  0  0  0  0  0  0  0  0  0  0  0  0
    7.1410   -1.6760   27.3680 C   0  0  0  0  0  0  0  0  0  0  0  0
    6.5200   -3.0080   27.7070 C   0  0  0  0  0  0  0  0  0  0  0  0
    6.8350   -4.2430   26.8190 C   0  0  1  0  0  0  0  0  0  0  0  0
    7.4700   -5.3430   27.3930 C   0  0  0  0  0  0  0  0  0  0  0  0
    7.0910   -3.2180   23.7300 C   0  0  0  0  0  0  0  0  0  0  0  0
    7.5360   -3.3020   22.2980 C   0  0  0  0  0  0  0  0  0  0  0  0
  1  2  1  0
  2  3  2  0
  2  4  1  0
  4  5  1  0
  5  6  1  0
  6  7  1  0
  7  8  1  0
  8  9  2  0
  8 10  1  0
 10 11  1  0
 11 12  1  0
 12 13  1  0
 13 14  2  0
 14 15  1  0
 15 16  1  0
 15 17  2  0
 17 18  1  0
 17 19  1  0
 13 20  1  0
 19 20  2  0
 10 21  1  0
 20 21  1  0
 21 22  1  1
  7 23  1  0
  4 24  1  0
 23 24  1  0
M  END
