piperidine-amides-31225-covalent
     RDKit          3D

 27 30  0  0  0  0  0  0  0  0999 V2000
    7.0450   -3.3590   19.3830 C   0  0  0  0  0  0  0  0  0  0  0  0
    6.3780   -4.2240   20.3590 C   0  0  0  0  0  0  0  0  0  0  0  0
    5.3810   -4.8710   19.9880 O   0  0  0  0  0  0  0  0  0  0  0  0
    6.8530   -4.3890   21.6800 N   0  0  0  0  0  0  0  0  0  0  0  0
    7.6850   -3.4200   22.3590 C   0  0  0  0  0  0  0  0  0  0  0  0
    6.9450   -2.9700   23.6040 C   0  0  0  0  0  0  0  0  0  0  0  0
    6.1990   -4.0540   24.3510 C   0  0  0  0  0  0  0  0  0  0  0  0
    5.2920   -3.4680   25.3940 C   0  0  0  0  0  0  0  0  0  0  0  0
    4.4250   -2.6280   25.0330 O   0  0  0  0  0  0  0  0  0  0  0  0
    5.3190   -3.7570   26.7960 N   0  0  0  0  0  0  0  0  0  0  0  0
    6.5170   -3.4810   27.5000 C   0  0  0  0  0  0  0  0  0  0  0  0
    6.7730   -4.7110   28.2850 C   0  0  0  0  0  0  0  0  0  0  0  0
    5.6400   -5.1620   29.0430 C   0  0  0  0  0  0  0  0  0  0  0  0
    5.8410   -6.1990   30.0820 N   0  0  0  0  0  0  0  0  0  0  0  0
    4.5140   -6.4640   30.6810 C   0  0  0  0  0  0  0  0  0  0  0  0
    4.0940   -7.4100   31.7890 C   0  0  0  0  0  0  0  0  0  0  0  0
    2.7170   -7.9880   31.7200 C   0  0  0  0  0  0  0  0  0  0  0  0
    2.2580   -8.8500   32.6890 C   0  0  0  0  0  0  0  0  0  0  0  0
    3.0210   -9.2450   33.7860 C   0  0  0  0  0  0  0  0  0  0  0  0
    2.5630  -10.1900   34.8800 C   0  0  0  0  0  0  0  0  0  0  0  0
    4.4080   -8.7360   33.9590 C   0  0  0  0  0  0  0  0  0  0  0  0
    4.9950   -7.7880   32.9510 C   0  0  0  0  0  0  0  0  0  0  0  0
    3.2480   -5.4710   29.9450 S   0  0  0  0  0  0  0  0  0  0  0  0
    4.3300   -4.6480   28.8170 C   0  0  0  0  0  0  0  0  0  0  0  0
    4.2740   -3.6070   27.7290 C   0  0  0  0  0  0  0  0  0  0  0  0
    5.4800   -5.0300   23.4320 C   0  0  0  0  0  0  0  0  0  0  0  0
    6.4790   -5.5570   22.4040 C   0  0  0  0  0  0  0  0  0  0  0  0
  1  2  1  0
  2  3  2  0
  2  4  1  0
  4  5  1  0
  5  6  1  0
  6  7  1  0
  7  8  1  0
  8  9  2  0
  8 10  1  0
 10 11  1  0
 11 12  1  0
 12 13  1  0
 13 14  1  0
 14 15  2  0
 15 16  1  0
 16 17  2  0
 17 18  1  0
 18 19  2  0
 19 20  1  0
 19 21  1  0
 16 22  1  0
 21 22  2  0
 15 23  1  0
 13 24  2  0
 23 24  1  0
 10 25  1  0
 24 25  1  0
  7 26  1  0
  4 27  1  0
 26 27  1  0
M  END
