piperidine-amides-25903-covalent
     RDKit          3D

 25 27  0  0  0  0  0  0  0  0999 V2000
    7.1230   -3.3300   19.2810 C   0  0  0  0  0  0  0  0  0  0  0  0
    6.4460   -4.1990   20.2690 C   0  0  0  0  0  0  0  0  0  0  0  0
    5.3730   -4.7090   19.9460 O   0  0  0  0  0  0  0  0  0  0  0  0
    7.0720   -4.4590   21.4870 N   0  0  0  0  0  0  0  0  0  0  0  0
    6.6800   -5.5760   22.2860 C   0  0  0  0  0  0  0  0  0  0  0  0
    5.8160   -5.0580   23.3920 C   0  0  0  0  0  0  0  0  0  0  0  0
    6.5130   -3.8980   24.1150 C   0  0  0  0  0  0  0  0  0  0  0  0
    5.5660   -3.4090   25.1050 C   0  0  0  0  0  0  0  0  0  0  0  0
    4.6860   -2.6050   24.7890 O   0  0  0  0  0  0  0  0  0  0  0  0
    5.6470   -3.8550   26.4040 N   0  0  0  0  0  0  0  0  0  0  0  0
    6.3790   -3.0640   27.2950 C   0  0  0  0  0  0  0  0  0  0  0  0
    6.6820   -4.0320   28.4010 C   0  0  0  0  0  0  0  0  0  0  0  0
    5.7970   -4.1230   29.3810 C   0  0  0  0  0  0  0  0  0  0  0  0
    5.4180   -2.9050   29.8550 C   0  0  0  0  0  0  0  0  0  0  0  0
    6.2520   -1.8480   29.7300 C   0  0  0  0  0  0  0  0  0  0  0  0
    6.0850   -0.4090   30.1700 C   0  0  0  0  0  0  0  0  0  0  0  0
    4.7450   -0.1880   30.8520 C   0  0  0  0  0  0  0  0  0  0  0  0
    4.3910    1.0350   31.3340 O   0  0  0  0  0  0  0  0  0  0  0  0
    4.6830    1.2350   32.6820 C   0  0  0  0  0  0  0  0  0  0  0  0
    3.8040   -1.3210   31.0020 N   0  0  0  0  0  0  0  0  0  0  0  0
    4.2450   -2.5960   30.4750 C   0  0  0  0  0  0  0  0  0  0  0  0
    4.9720   -4.7970   28.5310 C   0  0  0  0  0  0  0  0  0  0  0  0
    4.4970   -4.1770   27.2400 C   0  0  0  0  0  0  0  0  0  0  0  0
    6.8940   -2.7770   23.1830 C   0  0  0  0  0  0  0  0  0  0  0  0
    7.7850   -3.4080   22.1740 C   0  0  0  0  0  0  0  0  0  0  0  0
  1  2  1  0
  2  3  2  0
  2  4  1  0
  4  5  1  0
  5  6  1  0
  6  7  1  0
  7  8  1  0
  8  9  2  0
  8 10  1  0
 10 11  1  0
 11 12  1  0
 12 13  1  0
 13 14  1  0
 14 15  2  0
 15 16  1  0
 16 17  2  0
 17 18  1  0
 18 19  1  0
 17 20  1  0
 14 21  1  0
 20 21  2  0
 13 22  1  0
 10 23  1  0
 22 23  1  0
  7 24  1  0
  4 25  1  0
 24 25  1  0
M  END
