piperidine-amides-8433-covalent
     RDKit          3D

 24 26  0  0  0  0  0  0  0  0999 V2000
    7.1160   -3.2900   19.2340 C   0  0  0  0  0  0  0  0  0  0  0  0
    6.4060   -4.0790   20.2370 C   0  0  0  0  0  0  0  0  0  0  0  0
    5.3240   -4.5960   19.9110 O   0  0  0  0  0  0  0  0  0  0  0  0
    6.9800   -4.2920   21.5190 N   0  0  0  0  0  0  0  0  0  0  0  0
    6.5230   -5.4080   22.2740 C   0  0  0  0  0  0  0  0  0  0  0  0
    5.6860   -4.8810   23.3980 C   0  0  0  0  0  0  0  0  0  0  0  0
    6.5470   -3.9530   24.2410 C   0  0  0  0  0  0  0  0  0  0  0  0
    5.7010   -3.4420   25.3600 C   0  0  0  0  0  0  0  0  0  0  0  0
    4.8670   -2.5870   25.0750 O   0  0  0  0  0  0  0  0  0  0  0  0
    5.9020   -3.9650   26.6240 N   0  0  0  0  0  0  0  0  0  0  0  0
    6.4610   -5.2540   26.8400 C   0  0  0  0  0  0  0  0  0  0  0  0
    5.6730   -6.0480   27.6770 C   0  0  0  0  0  0  0  0  0  0  0  0
    4.6800   -6.8850   27.2410 C   0  0  0  0  0  0  0  0  0  0  0  0
    4.0710   -7.5400   28.3240 N   0  0  0  0  0  0  0  0  0  0  0  0
    4.7390   -7.0660   29.4550 C   0  0  0  0  0  0  0  0  0  0  0  0
    4.3540   -7.5550   30.8160 C   0  0  0  0  0  0  0  0  0  0  0  0
    2.9010   -7.9900   31.0950 C   0  0  0  0  0  0  0  0  0  0  0  0
    2.5000   -8.4800   32.4330 C   0  0  0  0  0  0  0  0  0  0  0  0
    3.5160   -8.5560   33.5350 C   0  0  0  0  0  0  0  0  0  0  0  0
    4.9560   -8.1000   33.1790 C   0  0  0  0  0  0  0  0  0  0  0  0
    5.3590   -7.6390   31.9410 C   0  0  0  0  0  0  0  0  0  0  0  0
    5.7150   -6.1530   29.0380 N   0  0  0  0  0  0  0  0  0  0  0  0
    6.9640   -2.7710   23.4110 C   0  0  0  0  0  0  0  0  0  0  0  0
    7.6470   -3.1700   22.1350 C   0  0  0  0  0  0  0  0  0  0  0  0
  1  2  1  0
  2  3  2  0
  2  4  1  0
  4  5  1  0
  5  6  1  0
  6  7  1  0
  7  8  1  0
  8  9  2  0
  8 10  1  0
 10 11  1  0
 11 12  1  0
 12 13  2  0
 13 14  1  0
 14 15  1  0
 15 16  1  0
 16 17  2  0
 17 18  1  0
 18 19  2  0
 19 20  1  0
 16 21  1  0
 20 21  2  0
 12 22  1  0
 15 22  2  0
  7 23  1  0
  4 24  1  0
 23 24  1  0
M  END
