piperidine-amides-11443-covalent
     RDKit          3D

 21 23  0  0  0  0  0  0  0  0999 V2000
    7.1090   -3.2930   19.2520 C   0  0  0  0  0  0  0  0  0  0  0  0
    6.3200   -4.0080   20.2570 C   0  0  0  0  0  0  0  0  0  0  0  0
    5.2830   -4.5920   19.9060 O   0  0  0  0  0  0  0  0  0  0  0  0
    6.7490   -4.0880   21.5960 N   0  0  0  0  0  0  0  0  0  0  0  0
    7.7170   -3.1550   22.1410 C   0  0  0  0  0  0  0  0  0  0  0  0
    7.3920   -2.9760   23.5990 C   0  0  0  0  0  0  0  0  0  0  0  0
    6.0870   -3.6230   23.9470 C   0  0  0  0  0  0  0  0  0  0  0  0
    5.6440   -3.3590   25.3360 C   0  0  0  0  0  0  0  0  0  0  0  0
    4.4380   -3.5710   25.6560 O   0  0  0  0  0  0  0  0  0  0  0  0
    6.4920   -2.8660   26.3540 N   0  0  0  0  0  0  0  0  0  0  0  0
    6.5090   -1.4240   26.6830 C   0  0  0  0  0  0  0  0  0  0  0  0
    5.1020   -0.9620   26.7640 C   0  0  2  0  0  0  0  0  0  0  0  0
    4.5310   -0.5300   25.4670 C   0  0  0  0  0  0  0  0  0  0  0  0
    3.8240    0.7450   25.7360 C   0  0  2  0  0  0  0  0  0  0  0  0
    4.7900    1.9220   25.7280 C   0  0  0  0  0  0  0  0  0  0  0  0
    4.3200    2.7840   26.7130 O   0  0  0  0  0  0  0  0  0  0  0  0
    3.3850    2.0210   27.3390 C   0  0  0  0  0  0  0  0  0  0  0  0
    3.7150    0.6860   27.2600 C   0  0  2  0  0  0  0  0  0  0  0  0
    4.7980    0.1390   27.5860 O   0  0  0  0  0  0  0  0  0  0  0  0
    6.1280   -5.1080   23.6920 C   0  0  0  0  0  0  0  0  0  0  0  0
    6.6230   -5.3650   22.2830 C   0  0  0  0  0  0  0  0  0  0  0  0
  1  2  1  0
  2  3  2  0
  2  4  1  0
  4  5  1  0
  5  6  1  0
  6  7  1  0
  7  8  1  0
  8  9  2  0
  8 10  1  0
 10 11  1  0
 12 11  1  6
 12 13  1  0
 14 13  1  1
 14 15  1  0
 15 16  1  0
 16 17  1  0
 14 18  1  0
 18 17  1  1
 12 19  1  0
 18 19  1  0
  7 20  1  0
  4 21  1  0
 20 21  1  0
M  END
