piperidine-amides-5244-covalent
     RDKit          3D

 21 23  0  0  0  0  0  0  0  0999 V2000
    7.1260   -3.2910   19.1710 C   0  0  0  0  0  0  0  0  0  0  0  0
    6.3260   -3.9880   20.2000 C   0  0  0  0  0  0  0  0  0  0  0  0
    5.2280   -4.4460   19.8370 O   0  0  0  0  0  0  0  0  0  0  0  0
    6.8220   -4.1730   21.4910 N   0  0  0  0  0  0  0  0  0  0  0  0
    7.5960   -3.1510   22.1190 C   0  0  0  0  0  0  0  0  0  0  0  0
    7.2380   -2.8700   23.5100 C   0  0  0  0  0  0  0  0  0  0  0  0
    6.4870   -3.9380   24.2060 C   0  0  0  0  0  0  0  0  0  0  0  0
    5.7630   -3.3690   25.3700 C   0  0  0  0  0  0  0  0  0  0  0  0
    4.5220   -3.2990   25.3090 O   0  0  0  0  0  0  0  0  0  0  0  0
    6.4410   -2.9120   26.5210 N   0  0  0  0  0  0  0  0  0  0  0  0
    6.4660   -1.4900   26.9290 C   0  0  0  0  0  0  0  0  0  0  0  0
    5.2140   -1.1080   27.6560 C   0  0  0  0  0  0  0  0  0  0  0  0
    4.1770   -2.0500   28.0760 C   0  0  0  0  0  0  0  0  0  0  0  0
    3.2210   -1.1990   28.7090 N   0  0  0  0  0  0  0  0  0  0  0  0
    3.7200    0.1080   28.6330 C   0  0  0  0  0  0  0  0  0  0  0  0
    3.1020    1.2410   29.1290 C   0  0  0  0  0  0  0  0  0  0  0  0
    2.1150    1.0800   29.7980 C   0  0  0  0  0  0  0  0  0  0  0  0
    1.8090    1.3800   28.3780 C   0  0  0  0  0  0  0  0  0  0  0  0
    4.8230    0.0560   28.0350 O   0  0  0  0  0  0  0  0  0  0  0  0
    5.6440   -4.8080   23.3520 C   0  0  0  0  0  0  0  0  0  0  0  0
    6.3780   -5.2930   22.2750 C   0  0  0  0  0  0  0  0  0  0  0  0
  1  2  1  0
  2  3  2  0
  2  4  1  0
  4  5  1  0
  5  6  1  0
  6  7  1  0
  7  8  1  0
  8  9  2  0
  8 10  1  0
 10 11  1  0
 11 12  1  0
 12 13  2  0
 13 14  1  0
 14 15  2  0
 15 16  1  0
 16 17  1  0
 16 18  1  0
 17 18  1  0
 12 19  1  0
 15 19  1  0
  7 20  1  0
  4 21  1  0
 20 21  1  0
M  END
