piperidine-amides-2175-covalent
     RDKit          3D

 28 30  0  0  0  0  0  0  0  0999 V2000
    7.1250   -3.2690   19.2010 C   0  0  0  0  0  0  0  0  0  0  0  0
    6.3090   -3.9970   20.2050 C   0  0  0  0  0  0  0  0  0  0  0  0
    5.2350   -4.4650   19.8390 O   0  0  0  0  0  0  0  0  0  0  0  0
    6.8040   -4.1650   21.4890 N   0  0  0  0  0  0  0  0  0  0  0  0
    7.6740   -3.1820   22.0910 C   0  0  0  0  0  0  0  0  0  0  0  0
    7.0470   -2.6890   23.3510 C   0  0  0  0  0  0  0  0  0  0  0  0
    6.6120   -3.8990   24.1680 C   0  0  0  0  0  0  0  0  0  0  0  0
    5.8740   -3.4250   25.3520 C   0  0  0  0  0  0  0  0  0  0  0  0
    4.6340   -3.4410   25.3600 O   0  0  0  0  0  0  0  0  0  0  0  0
    6.5850   -2.9490   26.4670 N   0  0  0  0  0  0  0  0  0  0  0  0
    6.0140   -3.0740   27.7840 C   0  0  1  0  0  0  0  0  0  0  0  0
    6.4890   -4.3630   28.4390 C   0  0  0  0  0  0  0  0  0  0  0  0
    6.4000   -1.9430   28.6830 C   0  0  2  0  0  0  0  0  0  0  0  0
    5.1370   -1.9950   29.1830 C   0  0  0  0  0  0  0  0  0  0  0  0
    4.7350   -0.9690   30.1050 N   0  0  0  0  0  0  0  0  0  0  0  0
    3.9780   -1.3440   31.2800 C   0  0  0  0  0  0  0  0  0  0  0  0
    3.7480   -0.2600   32.3130 C   0  0  0  0  0  0  0  0  0  0  0  0
    2.5060    0.4840   32.0520 C   0  0  0  0  0  0  0  0  0  0  0  0
    2.4180    1.4110   33.0400 N   0  0  0  0  0  0  0  0  0  0  0  0
    1.4240    2.3910   33.2770 C   0  0  0  0  0  0  0  0  0  0  0  0
    3.4800    1.3060   33.8730 N   0  0  0  0  0  0  0  0  0  0  0  0
    4.3690    0.3080   33.5220 C   0  0  0  0  0  0  0  0  0  0  0  0
    5.6540   -0.2260   34.0650 C   0  0  0  0  0  0  0  0  0  0  0  0
    5.8510   -0.1570   30.4000 C   0  0  0  0  0  0  0  0  0  0  0  0
    6.5540    0.2720   29.1530 C   0  0  0  0  0  0  0  0  0  0  0  0
    6.6710   -0.7840   28.2230 O   0  0  0  0  0  0  0  0  0  0  0  0
    5.7250   -4.8380   23.3640 C   0  0  0  0  0  0  0  0  0  0  0  0
    6.4300   -5.3210   22.2860 C   0  0  0  0  0  0  0  0  0  0  0  0
  1  2  1  0
  2  3  2  0
  2  4  1  0
  4  5  1  0
  5  6  1  0
  6  7  1  0
  7  8  1  0
  8  9  2  0
  8 10  1  0
 10 11  1  0
 11 12  1  1
 11 13  1  0
 13 14  1  1
 14 15  1  0
 15 16  1  0
 16 17  1  0
 17 18  2  0
 18 19  1  0
 19 20  1  0
 19 21  1  0
 17 22  1  0
 21 22  2  0
 22 23  1  0
 15 24  1  0
 24 25  1  0
 13 26  1  0
 25 26  1  0
  7 27  1  0
  4 28  1  0
 27 28  1  0
M  END
