piperidine-amides-5478-covalent
     RDKit          3D

 20 21  0  0  0  0  0  0  0  0999 V2000
    7.1590   -3.2620   19.1560 C   0  0  0  0  0  0  0  0  0  0  0  0
    6.3820   -3.9900   20.1610 C   0  0  0  0  0  0  0  0  0  0  0  0
    5.2830   -4.4810   19.8550 O   0  0  0  0  0  0  0  0  0  0  0  0
    6.8910   -4.1930   21.4440 N   0  0  0  0  0  0  0  0  0  0  0  0
    7.7540   -3.2330   22.0930 C   0  0  0  0  0  0  0  0  0  0  0  0
    6.9850   -2.7750   23.2900 C   0  0  0  0  0  0  0  0  0  0  0  0
    6.5080   -3.9380   24.1030 C   0  0  0  0  0  0  0  0  0  0  0  0
    5.7490   -3.4910   25.2760 C   0  0  0  0  0  0  0  0  0  0  0  0
    4.4830   -3.5360   25.3000 O   0  0  0  0  0  0  0  0  0  0  0  0
    6.3990   -2.9870   26.3960 N   0  0  0  0  0  0  0  0  0  0  0  0
    6.1210   -3.5210   27.7310 C   0  0  0  0  0  0  0  0  0  0  0  0
    6.7040   -2.5170   28.6180 C   0  0  0  0  0  0  0  0  0  0  0  0
    5.8440   -1.8060   29.5800 C   0  0  0  0  0  0  0  0  0  0  0  0
    5.4750   -0.4120   29.1490 C   0  0  0  0  0  0  0  0  0  0  0  0
    4.4670    0.0520   28.2080 C   0  0  0  0  0  0  0  0  0  0  0  0
    4.5330    1.5060   28.1640 N   0  0  0  0  0  0  0  0  0  0  0  0
    5.5210    1.8940   29.0300 N   0  0  0  0  0  0  0  0  0  0  0  0
    6.1430    0.8380   29.6660 C   0  0  0  0  0  0  0  0  0  0  0  0
    5.6960   -4.8890   23.2620 C   0  0  0  0  0  0  0  0  0  0  0  0
    6.4490   -5.3480   22.1800 C   0  0  0  0  0  0  0  0  0  0  0  0
  1  2  1  0
  2  3  2  0
  2  4  1  0
  4  5  1  0
  5  6  1  0
  6  7  1  0
  7  8  1  0
  8  9  2  0
  8 10  1  0
 10 11  1  0
 11 12  1  0
 12 13  1  0
 13 14  1  0
 14 15  1  0
 15 16  2  0
 16 17  1  0
 14 18  2  0
 17 18  1  0
  7 19  1  0
  4 20  1  0
 19 20  1  0
M  END
