piperidine-amides-10064-covalent
     RDKit          3D

 26 28  0  0  0  0  0  0  0  0999 V2000
    7.1040   -3.2920   19.2440 C   0  0  0  0  0  0  0  0  0  0  0  0
    6.3140   -4.0080   20.2480 C   0  0  0  0  0  0  0  0  0  0  0  0
    5.2340   -4.5190   19.8610 O   0  0  0  0  0  0  0  0  0  0  0  0
    6.7840   -4.1400   21.5510 N   0  0  0  0  0  0  0  0  0  0  0  0
    7.6440   -3.1390   22.1430 C   0  0  0  0  0  0  0  0  0  0  0  0
    7.0190   -2.6790   23.4240 C   0  0  0  0  0  0  0  0  0  0  0  0
    6.5960   -3.8580   24.2550 C   0  0  0  0  0  0  0  0  0  0  0  0
    5.8150   -3.4110   25.4370 C   0  0  0  0  0  0  0  0  0  0  0  0
    4.5660   -3.4360   25.3500 O   0  0  0  0  0  0  0  0  0  0  0  0
    6.4090   -2.9480   26.6390 N   0  0  0  0  0  0  0  0  0  0  0  0
    6.2470   -3.6000   27.9320 C   0  0  2  0  0  0  0  0  0  0  0  0
    5.9030   -5.0820   27.8010 C   0  0  0  0  0  0  0  0  0  0  0  0
    6.4640   -6.0570   28.5900 C   0  0  0  0  0  0  0  0  0  0  0  0
    5.3740   -7.2680   29.3200 S   0  0  0  0  0  0  0  0  0  0  0  0
    5.6360   -7.4380   31.0780 C   0  0  0  0  0  0  0  0  0  0  0  0
    5.4130   -2.7650   28.8490 C   0  0  0  0  0  0  0  0  0  0  0  0
    5.8770   -1.6740   29.4830 N   0  0  0  0  0  0  0  0  0  0  0  0
    4.8960   -1.1690   30.2170 N   0  0  0  0  0  0  0  0  0  0  0  0
    3.7020   -1.9690   30.0660 C   0  0  0  0  0  0  0  0  0  0  0  0
    2.4210   -1.8580   30.6190 C   0  0  0  0  0  0  0  0  0  0  0  0
    1.2560   -2.7870   30.3610 C   0  0  0  0  0  0  0  0  0  0  0  0
    1.7180   -3.8540   29.4040 C   0  0  0  0  0  0  0  0  0  0  0  0
    3.1270   -3.8480   28.8900 C   0  0  0  0  0  0  0  0  0  0  0  0
    4.0980   -2.9430   29.2010 N   0  0  0  0  0  0  0  0  0  0  0  0
    5.7560   -4.8200   23.4640 C   0  0  0  0  0  0  0  0  0  0  0  0
    6.4460   -5.3000   22.3750 C   0  0  0  0  0  0  0  0  0  0  0  0
  1  2  1  0
  2  3  2  0
  2  4  1  0
  4  5  1  0
  5  6  1  0
  6  7  1  0
  7  8  1  0
  8  9  2  0
  8 10  1  0
 10 11  1  0
 11 12  1  6
 12 13  1  0
 13 14  1  0
 14 15  1  0
 11 16  1  0
 16 17  2  0
 17 18  1  0
 18 19  2  0
 19 20  1  0
 20 21  2  0
 21 22  1  0
 22 23  2  0
 16 24  1  0
 19 24  1  0
 23 24  1  0
  7 25  1  0
  4 26  1  0
 25 26  1  0
M  END
