piperidine-amides-27484-covalent
     RDKit          3D

 26 29  0  0  0  0  0  0  0  0999 V2000
    7.1620   -3.2800   19.1610 C   0  0  0  0  0  0  0  0  0  0  0  0
    6.4060   -4.0560   20.1390 C   0  0  0  0  0  0  0  0  0  0  0  0
    5.2480   -4.4280   19.8290 O   0  0  0  0  0  0  0  0  0  0  0  0
    7.0160   -4.4110   21.3290 N   0  0  0  0  0  0  0  0  0  0  0  0
    6.6910   -5.6740   21.9370 C   0  0  0  0  0  0  0  0  0  0  0  0
    5.7500   -5.3730   23.0420 C   0  0  0  0  0  0  0  0  0  0  0  0
    6.3550   -4.3670   23.9530 C   0  0  0  0  0  0  0  0  0  0  0  0
    5.4220   -4.0970   25.0200 C   0  0  0  0  0  0  0  0  0  0  0  0
    4.3670   -3.4630   24.8040 O   0  0  0  0  0  0  0  0  0  0  0  0
    5.7340   -4.5220   26.2760 N   0  0  0  0  0  0  0  0  0  0  0  0
    6.6690   -3.6600   26.7840 C   0  0  0  0  0  0  0  0  0  0  0  0
    7.6170   -3.0300   25.8060 C   0  0  0  0  0  0  0  0  0  0  0  0
    8.5100   -2.1580   26.2570 C   0  0  0  0  0  0  0  0  0  0  0  0
    8.4870   -1.9020   27.6070 C   0  0  0  0  0  0  0  0  0  0  0  0
    7.6480   -2.4660   28.4730 C   0  0  0  0  0  0  0  0  0  0  0  0
    6.7310   -3.3550   28.0970 C   0  0  0  0  0  0  0  0  0  0  0  0
    5.8750   -3.9250   28.9580 C   0  0  1  0  0  0  0  0  0  0  0  0
    4.8260   -2.9430   29.4390 C   0  0  0  0  0  0  0  0  0  0  0  0
    5.4020   -5.0760   28.4640 C   0  0  1  0  0  0  0  0  0  0  0  0
    4.3740   -5.9410   29.1520 C   0  0  0  0  0  0  0  0  0  0  0  0
    4.5250   -6.1210   30.5390 O   0  0  0  0  0  0  0  0  0  0  0  0
    3.4700   -6.3980   28.2960 N   0  0  0  0  0  0  0  0  0  0  0  0
    3.8000   -5.7380   27.0240 C   0  0  0  0  0  0  0  0  0  0  0  0
    4.6960   -4.6850   27.1990 C   0  0  2  0  0  0  0  0  0  0  0  0
    6.6700   -3.0790   23.2050 C   0  0  0  0  0  0  0  0  0  0  0  0
    7.6790   -3.4250   22.1470 C   0  0  0  0  0  0  0  0  0  0  0  0
  1  2  1  0
  2  3  2  0
  2  4  1  0
  4  5  1  0
  5  6  1  0
  6  7  1  0
  7  8  1  0
  8  9  2  0
  8 10  1  0
 10 11  1  0
 11 12  2  0
 12 13  1  0
 13 14  2  0
 14 15  1  0
 11 16  1  0
 15 16  2  0
 16 17  1  0
 17 18  1  6
 17 19  1  0
 19 20  1  1
 20 21  2  0
 20 22  1  0
 22 23  1  0
 10 24  1  0
 19 24  1  0
 24 23  1  6
  7 25  1  0
  4 26  1  0
 25 26  1  0
M  END
