piperidine-amides-12662-covalent
     RDKit          3D

 23 24  0  0  0  0  0  0  0  0999 V2000
    7.0470   -3.3300   19.3400 C   0  0  0  0  0  0  0  0  0  0  0  0
    6.3880   -4.1770   20.3620 C   0  0  0  0  0  0  0  0  0  0  0  0
    5.3870   -4.8150   19.9800 O   0  0  0  0  0  0  0  0  0  0  0  0
    6.9020   -4.2870   21.6750 N   0  0  0  0  0  0  0  0  0  0  0  0
    7.6770   -3.2330   22.2550 C   0  0  0  0  0  0  0  0  0  0  0  0
    7.2640   -2.9130   23.6130 C   0  0  0  0  0  0  0  0  0  0  0  0
    6.0000   -3.5770   23.9730 C   0  0  0  0  0  0  0  0  0  0  0  0
    5.5530   -3.1940   25.3380 C   0  0  0  0  0  0  0  0  0  0  0  0
    4.3310   -3.0310   25.5100 O   0  0  0  0  0  0  0  0  0  0  0  0
    6.4350   -3.0120   26.4170 N   0  0  0  0  0  0  0  0  0  0  0  0
    6.5970   -1.7120   27.1180 C   0  0  0  0  0  0  0  0  0  0  0  0
    6.2270   -0.3660   26.5870 C   0  0  0  0  0  0  0  0  0  0  0  0
    6.4200    0.8800   27.3360 C   0  0  0  0  0  0  0  0  0  0  0  0
    6.9740    0.8420   28.6050 C   0  0  0  0  0  0  0  0  0  0  0  0
    7.1950    1.9760   29.3640 C   0  0  0  0  0  0  0  0  0  0  0  0
    8.4720    2.2750   29.4030 O   0  0  0  0  0  0  0  0  0  0  0  0
    9.4470    1.8250   30.2900 C   0  0  0  0  0  0  0  0  0  0  0  0
   10.5070    2.6820   30.4020 C   0  0  0  0  0  0  0  0  0  0  0  0
    9.9030    0.5550   29.9930 C   0  0  0  0  0  0  0  0  0  0  0  0
    7.3350   -0.3570   29.1620 C   0  0  0  0  0  0  0  0  0  0  0  0
    7.1910   -1.6670   28.5170 C   0  0  0  0  0  0  0  0  0  0  0  0
    6.0220   -5.0640   23.8110 C   0  0  0  0  0  0  0  0  0  0  0  0
    6.6460   -5.4640   22.4900 C   0  0  0  0  0  0  0  0  0  0  0  0
  1  2  1  0
  2  3  2  0
  2  4  1  0
  4  5  1  0
  5  6  1  0
  6  7  1  0
  7  8  1  0
  8  9  2  0
  8 10  1  0
 10 11  1  0
 11 12  2  0
 12 13  1  0
 13 14  2  0
 14 15  1  0
 15 16  1  0
 16 17  1  0
 17 18  1  0
 17 19  1  0
 14 20  1  0
 11 21  1  0
 20 21  2  0
  7 22  1  0
  4 23  1  0
 22 23  1  0
M  END
