piperidine-amides-26861-covalent
     RDKit          3D

 24 26  0  0  0  0  0  0  0  0999 V2000
    7.0320   -3.3290   19.3320 C   0  0  0  0  0  0  0  0  0  0  0  0
    6.3640   -4.1760   20.3250 C   0  0  0  0  0  0  0  0  0  0  0  0
    5.3200   -4.7640   19.9500 O   0  0  0  0  0  0  0  0  0  0  0  0
    6.8970   -4.3450   21.6010 N   0  0  0  0  0  0  0  0  0  0  0  0
    6.6350   -5.5580   22.3350 C   0  0  0  0  0  0  0  0  0  0  0  0
    5.8670   -5.1800   23.5660 C   0  0  0  0  0  0  0  0  0  0  0  0
    6.5530   -4.0600   24.2910 C   0  0  0  0  0  0  0  0  0  0  0  0
    5.6910   -3.5900   25.4200 C   0  0  0  0  0  0  0  0  0  0  0  0
    4.6600   -2.9610   25.0960 O   0  0  0  0  0  0  0  0  0  0  0  0
    5.9210   -3.7890   26.8160 N   0  0  0  0  0  0  0  0  0  0  0  0
    6.1020   -2.6580   27.7120 C   0  0  0  0  0  0  0  0  0  0  0  0
    5.4990   -2.8450   29.0890 C   0  0  0  0  0  0  0  0  0  0  0  0
    4.9660   -4.0060   29.4800 C   0  0  0  0  0  0  0  0  0  0  0  0
    4.0260   -4.0900   30.4820 C   0  0  0  0  0  0  0  0  0  0  0  0
    3.5040   -5.3050   30.8510 C   0  0  0  0  0  0  0  0  0  0  0  0
    2.5710   -5.3640   31.8550 O   0  0  0  0  0  0  0  0  0  0  0  0
    2.9380   -4.9820   33.1640 C   0  0  0  0  0  0  0  0  0  0  0  0
    3.9010   -6.4550   30.2360 C   0  0  0  0  0  0  0  0  0  0  0  0
    3.1860   -7.9530   30.7700 Cl  0  0  0  0  0  0  0  0  0  0  0  0
    4.9260   -6.4780   29.1200 C   0  0  0  0  0  0  0  0  0  0  0  0
    5.4190   -5.0580   28.8130 C   0  0  0  0  0  0  0  0  0  0  0  0
    6.4120   -4.7910   27.7700 C   0  0  0  0  0  0  0  0  0  0  0  0
    6.8400   -2.9100   23.3710 C   0  0  0  0  0  0  0  0  0  0  0  0
    7.6290   -3.2820   22.3030 C   0  0  0  0  0  0  0  0  0  0  0  0
  1  2  1  0
  2  3  2  0
  2  4  1  0
  4  5  1  0
  5  6  1  0
  6  7  1  0
  7  8  1  0
  8  9  2  0
  8 10  1  0
 10 11  1  0
 11 12  1  0
 12 13  1  0
 13 14  2  0
 14 15  1  0
 15 16  1  0
 16 17  1  0
 15 18  2  0
 18 19  1  0
 18 20  1  0
 13 21  1  0
 20 21  2  0
 10 22  1  0
 21 22  1  0
  7 23  1  0
  4 24  1  0
 23 24  1  0
M  END
