piperidine-amides-34910-covalent
     RDKit          3D

 24 26  0  0  0  0  0  0  0  0999 V2000
    7.0500   -3.3380   19.3490 C   0  0  0  0  0  0  0  0  0  0  0  0
    6.3980   -4.2170   20.3540 C   0  0  0  0  0  0  0  0  0  0  0  0
    5.4040   -4.8450   19.9830 O   0  0  0  0  0  0  0  0  0  0  0  0
    6.9400   -4.3410   21.6410 N   0  0  0  0  0  0  0  0  0  0  0  0
    6.7480   -5.5570   22.4040 C   0  0  0  0  0  0  0  0  0  0  0  0
    6.1850   -5.2150   23.7550 C   0  0  0  0  0  0  0  0  0  0  0  0
    6.2250   -3.7010   23.9100 C   0  0  0  0  0  0  0  0  0  0  0  0
    5.5930   -3.2810   25.1760 C   0  0  0  0  0  0  0  0  0  0  0  0
    4.7400   -2.3930   25.1290 O   0  0  0  0  0  0  0  0  0  0  0  0
    5.8800   -3.8440   26.4250 N   0  0  0  0  0  0  0  0  0  0  0  0
    4.9780   -4.9210   26.7830 C   0  0  0  0  0  0  0  0  0  0  0  0
    4.7430   -4.9630   28.2790 C   0  0  0  0  0  0  0  0  0  0  0  0
    5.6980   -4.5290   29.0980 C   0  0  0  0  0  0  0  0  0  0  0  0
    6.6980   -4.1310   28.3910 C   0  0  0  0  0  0  0  0  0  0  0  0
    6.3210   -3.1390   27.5460 C   0  0  2  0  0  0  0  0  0  0  0  0
    5.2940   -2.0890   27.9360 C   0  0  0  0  0  0  0  0  0  0  0  0
    4.0860   -2.1410   27.2800 N   0  0  0  0  0  0  0  0  0  0  0  0
    3.3270   -1.1830   27.7240 N   0  0  0  0  0  0  0  0  0  0  0  0
    2.0000   -1.0060   27.2020 C   0  0  0  0  0  0  0  0  0  0  0  0
    4.0220   -0.4800   28.6860 C   0  0  0  0  0  0  0  0  0  0  0  0
    5.3900   -0.9610   28.9630 C   0  0  0  0  0  0  0  0  0  0  0  0
    6.9040   -0.3070   30.2980 I   0  0  0  0  0  0  0  0  0  0  0  0
    7.5890   -3.1550   23.6580 C   0  0  0  0  0  0  0  0  0  0  0  0
    7.7880   -3.2740   22.1620 C   0  0  0  0  0  0  0  0  0  0  0  0
  1  2  1  0
  2  3  2  0
  2  4  1  0
  4  5  1  0
  5  6  1  0
  6  7  1  0
  7  8  1  0
  8  9  2  0
  8 10  1  0
 10 11  1  0
 11 12  1  0
 12 13  1  0
 13 14  1  0
 10 15  1  0
 14 15  1  0
 15 16  1  1
 16 17  2  0
 17 18  1  0
 18 19  1  0
 18 20  1  0
 16 21  1  0
 20 21  2  0
 21 22  1  0
  7 23  1  0
  4 24  1  0
 23 24  1  0
M  END
