piperidine-amides-1596-covalent
     RDKit          3D

 21 22  0  0  0  0  0  0  0  0999 V2000
    7.0810   -3.3320   19.3100 C   0  0  0  0  0  0  0  0  0  0  0  0
    6.3880   -4.2010   20.3040 C   0  0  0  0  0  0  0  0  0  0  0  0
    5.3410   -4.7770   19.9600 O   0  0  0  0  0  0  0  0  0  0  0  0
    6.9470   -4.4100   21.5870 N   0  0  0  0  0  0  0  0  0  0  0  0
    6.4800   -5.5110   22.3850 C   0  0  0  0  0  0  0  0  0  0  0  0
    5.6610   -4.8830   23.5210 C   0  0  0  0  0  0  0  0  0  0  0  0
    6.5130   -3.8160   24.1260 C   0  0  0  0  0  0  0  0  0  0  0  0
    5.9680   -3.2210   25.3610 C   0  0  0  0  0  0  0  0  0  0  0  0
    4.7790   -3.4320   25.6330 O   0  0  0  0  0  0  0  0  0  0  0  0
    6.8410   -2.4450   26.1230 N   0  0  0  0  0  0  0  0  0  0  0  0
    6.5380   -1.4480   27.0780 C   0  0  0  0  0  0  0  0  0  0  0  0
    5.8460   -0.3190   26.7890 C   0  0  0  0  0  0  0  0  0  0  0  0
    5.7860    0.3750   28.0100 N   0  0  0  0  0  0  0  0  0  0  0  0
    6.4510   -0.4870   28.7620 N   0  0  0  0  0  0  0  0  0  0  0  0
    6.4880    0.0870   30.0980 C   0  0  0  0  0  0  0  0  0  0  0  0
    5.5130   -0.5630   30.8200 C   0  0  0  0  0  0  0  0  0  0  0  0
    7.7890   -0.3030   30.7050 C   0  0  0  0  0  0  0  0  0  0  0  0
    6.4470    1.4520   29.9600 C   0  0  0  0  0  0  0  0  0  0  0  0
    7.0150   -1.6920   28.4110 C   0  0  0  0  0  0  0  0  0  0  0  0
    6.7740   -2.6780   23.1450 C   0  0  0  0  0  0  0  0  0  0  0  0
    7.6810   -3.3170   22.1790 C   0  0  0  0  0  0  0  0  0  0  0  0
  1  2  1  0
  2  3  2  0
  2  4  1  0
  4  5  1  0
  5  6  1  0
  6  7  1  0
  7  8  1  0
  8  9  2  0
  8 10  1  0
 10 11  1  0
 11 12  1  0
 12 13  2  0
 13 14  1  0
 14 15  1  0
 15 16  1  0
 15 17  1  0
 15 18  1  0
 11 19  2  0
 14 19  1  0
  7 20  1  0
  4 21  1  0
 20 21  1  0
M  END
