piperidine-amides-25700-covalent
     RDKit          3D

 25 27  0  0  0  0  0  0  0  0999 V2000
    7.1000   -3.2890   19.3010 C   0  0  0  0  0  0  0  0  0  0  0  0
    6.3440   -4.0700   20.3140 C   0  0  0  0  0  0  0  0  0  0  0  0
    5.3230   -4.6360   19.9220 O   0  0  0  0  0  0  0  0  0  0  0  0
    6.8140   -4.1750   21.6350 N   0  0  0  0  0  0  0  0  0  0  0  0
    6.6530   -5.3890   22.3890 C   0  0  0  0  0  0  0  0  0  0  0  0
    5.9580   -5.0630   23.6770 C   0  0  0  0  0  0  0  0  0  0  0  0
    6.0290   -3.5510   23.9070 C   0  0  0  0  0  0  0  0  0  0  0  0
    5.6250   -3.2860   25.3130 C   0  0  0  0  0  0  0  0  0  0  0  0
    4.6980   -3.9540   25.7810 O   0  0  0  0  0  0  0  0  0  0  0  0
    6.2050   -2.3020   26.1440 N   0  0  0  0  0  0  0  0  0  0  0  0
    6.0770   -2.5660   27.5730 C   0  0  0  0  0  0  0  0  0  0  0  0
    5.7950   -1.1490   27.5750 C   0  0  0  0  0  0  0  0  0  0  0  0
    6.6630   -0.5210   28.4540 O   0  0  0  0  0  0  0  0  0  0  0  0
    6.3480    0.3890   29.3830 C   0  0  0  0  0  0  0  0  0  0  0  0
    6.4100   -0.1970   30.6070 C   0  0  0  0  0  0  0  0  0  0  0  0
    7.5280    0.1270   31.3320 C   0  0  0  0  0  0  0  0  0  0  0  0
    8.2730    1.4470   31.2000 C   0  0  0  0  0  0  0  0  0  0  0  0
    9.7460    1.1410   31.3280 C   0  0  0  0  0  0  0  0  0  0  0  0
   10.7290    2.3010   31.2220 C   0  0  0  0  0  0  0  0  0  0  0  0
   10.1600    3.6660   31.0040 C   0  0  0  0  0  0  0  0  0  0  0  0
    8.7000    3.9050   30.8920 C   0  0  0  0  0  0  0  0  0  0  0  0
    7.6760    2.8070   30.9810 C   0  0  0  0  0  0  0  0  0  0  0  0
    5.9410   -0.8290   26.2740 C   0  0  0  0  0  0  0  0  0  0  0  0
    7.4180   -3.0270   23.5880 C   0  0  0  0  0  0  0  0  0  0  0  0
    7.6600   -3.1310   22.2260 C   0  0  0  0  0  0  0  0  0  0  0  0
  1  2  1  0
  2  3  2  0
  2  4  1  0
  4  5  1  0
  5  6  1  0
  6  7  1  0
  7  8  1  0
  8  9  2  0
  8 10  1  0
 10 11  1  0
 11 12  1  0
 12 13  1  0
 13 14  1  0
 14 15  1  0
 15 16  1  0
 16 17  1  0
 17 18  2  0
 18 19  1  0
 19 20  2  0
 20 21  1  0
 17 22  1  0
 21 22  2  0
 10 23  1  0
 12 23  1  0
  7 24  1  0
  4 25  1  0
 24 25  1  0
M  END
