piperidine-amides-21542-covalent
     RDKit          3D

 23 24  0  0  0  0  0  0  0  0999 V2000
    7.0540   -3.2970   19.3190 C   0  0  0  0  0  0  0  0  0  0  0  0
    6.3600   -4.0920   20.3390 C   0  0  0  0  0  0  0  0  0  0  0  0
    5.3380   -4.7120   19.9490 O   0  0  0  0  0  0  0  0  0  0  0  0
    6.8510   -4.1790   21.6570 N   0  0  0  0  0  0  0  0  0  0  0  0
    6.7100   -5.4130   22.3980 C   0  0  0  0  0  0  0  0  0  0  0  0
    6.0380   -5.0930   23.7050 C   0  0  0  0  0  0  0  0  0  0  0  0
    6.0160   -3.6100   23.9320 C   0  0  0  0  0  0  0  0  0  0  0  0
    5.5850   -3.2720   25.3200 C   0  0  0  0  0  0  0  0  0  0  0  0
    4.3550   -3.1560   25.5010 O   0  0  0  0  0  0  0  0  0  0  0  0
    6.4150   -3.0470   26.4460 N   0  0  0  0  0  0  0  0  0  0  0  0
    6.8520   -1.6860   26.6510 C   0  0  0  0  0  0  0  0  0  0  0  0
    6.1820   -3.8960   27.6140 C   0  0  0  0  0  0  0  0  0  0  0  0
    5.5860   -5.0800   27.2280 C   0  0  0  0  0  0  0  0  0  0  0  0
    4.2420   -5.2670   26.9520 C   0  0  0  0  0  0  0  0  0  0  0  0
    3.5500   -6.4080   26.5570 C   0  0  0  0  0  0  0  0  0  0  0  0
    3.6140   -6.9200   25.2650 C   0  0  0  0  0  0  0  0  0  0  0  0
    2.9060   -8.0510   24.8470 C   0  0  0  0  0  0  0  0  0  0  0  0
    1.9760   -8.8760   25.7340 C   0  0  0  0  0  0  0  0  0  0  0  0
    1.2830   -9.9700   25.3340 F   0  0  0  0  0  0  0  0  0  0  0  0
    1.9750   -8.2470   27.1200 C   0  0  0  0  0  0  0  0  0  0  0  0
    2.7650   -7.0340   27.4780 C   0  0  0  0  0  0  0  0  0  0  0  0
    7.3520   -3.0060   23.6030 C   0  0  0  0  0  0  0  0  0  0  0  0
    7.6870   -3.1250   22.2620 C   0  0  0  0  0  0  0  0  0  0  0  0
  1  2  1  0
  2  3  2  0
  2  4  1  0
  4  5  1  0
  5  6  1  0
  6  7  1  0
  7  8  1  0
  8  9  2  0
  8 10  1  0
 10 11  1  0
 10 12  1  0
 12 13  1  0
 13 14  2  3
 14 15  1  0
 15 16  2  0
 16 17  1  0
 17 18  2  0
 18 19  1  0
 18 20  1  0
 15 21  1  0
 20 21  2  0
  7 22  1  0
  4 23  1  0
 22 23  1  0
M  END
