piperidine-amides-2656-covalent
     RDKit          3D

 25 26  0  0  0  0  0  0  0  0999 V2000
    7.0960   -3.2850   19.2660 C   0  0  0  0  0  0  0  0  0  0  0  0
    6.3870   -4.0940   20.2920 C   0  0  0  0  0  0  0  0  0  0  0  0
    5.3470   -4.6470   19.9310 O   0  0  0  0  0  0  0  0  0  0  0  0
    6.9190   -4.2450   21.5830 N   0  0  0  0  0  0  0  0  0  0  0  0
    6.6190   -5.4010   22.3760 C   0  0  0  0  0  0  0  0  0  0  0  0
    5.8850   -4.9660   23.6200 C   0  0  0  0  0  0  0  0  0  0  0  0
    6.5680   -3.7600   24.2870 C   0  0  0  0  0  0  0  0  0  0  0  0
    5.6460   -3.2770   25.3410 C   0  0  0  0  0  0  0  0  0  0  0  0
    4.8040   -2.4230   25.0340 O   0  0  0  0  0  0  0  0  0  0  0  0
    5.6700   -3.7420   26.6740 N   0  0  0  0  0  0  0  0  0  0  0  0
    6.7450   -4.5720   27.1430 C   0  0  0  0  0  0  0  0  0  0  0  0
    6.1810   -5.8880   27.6030 C   0  0  0  0  0  0  0  0  0  0  0  0
    4.8640   -6.2660   27.5090 C   0  0  0  0  0  0  0  0  0  0  0  0
    3.9760   -6.7920   26.4300 N   0  0  0  0  0  0  0  0  0  0  0  0
    2.5810   -7.2380   26.1900 C   0  0  0  0  0  0  0  0  0  0  0  0
    1.7740   -7.1780   27.2350 C   0  0  0  0  0  0  0  0  0  0  0  0
    2.4930   -6.6760   28.3720 C   0  0  0  0  0  0  0  0  0  0  0  0
    1.5660   -6.6080   29.5470 C   0  0  0  0  0  0  0  0  0  0  0  0
    2.0940   -6.3060   30.7680 O   0  0  0  0  0  0  0  0  0  0  0  0
    0.2160   -6.8380   29.3920 O   0  0  0  0  0  0  0  0  0  0  0  0
   -0.7460   -5.9990   30.0490 C   0  0  0  0  0  0  0  0  0  0  0  0
   -1.5100   -6.8260   31.0270 C   0  0  0  0  0  0  0  0  0  0  0  0
    3.8240   -6.3070   28.4060 N   0  0  0  0  0  0  0  0  0  0  0  0
    6.8770   -2.6510   23.3130 C   0  0  0  0  0  0  0  0  0  0  0  0
    7.7170   -3.2010   22.1820 C   0  0  0  0  0  0  0  0  0  0  0  0
  1  2  1  0
  2  3  2  0
  2  4  1  0
  4  5  1  0
  5  6  1  0
  6  7  1  0
  7  8  1  0
  8  9  2  0
  8 10  1  0
 10 11  1  0
 11 12  1  0
 12 13  1  0
 13 14  2  0
 14 15  1  0
 15 16  2  0
 16 17  1  0
 17 18  1  0
 18 19  2  0
 18 20  1  0
 20 21  1  0
 21 22  1  0
 13 23  1  0
 17 23  2  0
  7 24  1  0
  4 25  1  0
 24 25  1  0
M  END
