piperidine-amides-3546-covalent
     RDKit          3D

 19 21  0  0  0  0  0  0  0  0999 V2000
    7.1050   -3.3430   19.2940 C   0  0  0  0  0  0  0  0  0  0  0  0
    6.4230   -4.1810   20.2680 C   0  0  0  0  0  0  0  0  0  0  0  0
    5.3870   -4.7750   19.9680 O   0  0  0  0  0  0  0  0  0  0  0  0
    7.0130   -4.3540   21.5630 N   0  0  0  0  0  0  0  0  0  0  0  0
    7.7670   -3.2640   22.1120 C   0  0  0  0  0  0  0  0  0  0  0  0
    7.0360   -2.7490   23.2990 C   0  0  0  0  0  0  0  0  0  0  0  0
    6.6750   -3.9390   24.1630 C   0  0  0  0  0  0  0  0  0  0  0  0
    6.0110   -3.4090   25.3730 C   0  0  0  0  0  0  0  0  0  0  0  0
    4.8910   -3.7850   25.7590 O   0  0  0  0  0  0  0  0  0  0  0  0
    6.7280   -2.4110   26.0700 N   0  0  0  0  0  0  0  0  0  0  0  0
    6.4800   -2.1600   27.4600 C   0  0  0  0  0  0  0  0  0  0  0  0
    5.6240   -3.2200   28.1140 C   0  0  0  0  0  0  0  0  0  0  0  0
    5.9250   -4.5120   28.5130 C   0  0  0  0  0  0  0  0  0  0  0  0
    4.6430   -2.6160   29.0530 C   0  0  0  0  0  0  0  0  0  0  0  0
    4.0860   -3.0190   27.7960 C   0  0  0  0  0  0  0  0  0  0  0  0
    5.7050   -0.7970   27.3460 C   0  0  0  0  0  0  0  0  0  0  0  0
    6.6560   -0.8750   28.1180 C   0  0  0  0  0  0  0  0  0  0  0  0
    5.7390   -4.8710   23.4000 C   0  0  0  0  0  0  0  0  0  0  0  0
    6.5030   -5.4340   22.3800 C   0  0  0  0  0  0  0  0  0  0  0  0
  1  2  1  0
  2  3  2  0
  2  4  1  0
  4  5  1  0
  5  6  1  0
  6  7  1  0
  7  8  1  0
  8  9  2  0
  8 10  1  0
 11 10  1  0
 11 12  1  0
 12 13  1  0
 12 14  1  0
 12 15  1  0
 14 15  1  0
 11 16  1  0
 11 17  1  0
 16 17  1  0
  7 18  1  0
  4 19  1  0
 18 19  1  0
M  END
