piperidine-amides-24155-covalent
     RDKit          3D

 24 26  0  0  0  0  0  0  0  0999 V2000
    7.0540   -3.3180   19.3730 C   0  0  0  0  0  0  0  0  0  0  0  0
    6.3610   -4.1870   20.3380 C   0  0  0  0  0  0  0  0  0  0  0  0
    5.3610   -4.8450   19.9770 O   0  0  0  0  0  0  0  0  0  0  0  0
    6.8340   -4.3270   21.6510 N   0  0  0  0  0  0  0  0  0  0  0  0
    6.7390   -5.6370   22.2710 C   0  0  0  0  0  0  0  0  0  0  0  0
    6.2080   -5.4330   23.6880 C   0  0  0  0  0  0  0  0  0  0  0  0
    6.1710   -3.9490   23.8910 C   0  0  0  0  0  0  0  0  0  0  0  0
    5.5820   -3.6100   25.2030 C   0  0  0  0  0  0  0  0  0  0  0  0
    4.3880   -3.2450   25.2030 O   0  0  0  0  0  0  0  0  0  0  0  0
    6.2890   -3.7020   26.4240 N   0  0  0  0  0  0  0  0  0  0  0  0
    5.5510   -3.3970   27.6250 C   0  0  0  0  0  0  0  0  0  0  0  0
    5.6420   -4.5840   28.5400 C   0  0  0  0  0  0  0  0  0  0  0  0
    7.0220   -4.7410   28.6910 O   0  0  0  0  0  0  0  0  0  0  0  0
    7.9210   -4.0440   27.9330 C   0  0  0  0  0  0  0  0  0  0  0  0
    7.4640   -3.1120   26.9990 C   0  0  2  0  0  0  0  0  0  0  0  0
    6.9920   -1.8030   27.2910 C   0  0  0  0  0  0  0  0  0  0  0  0
    7.1070   -0.9640   28.3610 C   0  0  0  0  0  0  0  0  0  0  0  0
    7.8360   -1.2260   29.6460 C   0  0  0  0  0  0  0  0  0  0  0  0
    6.4700    0.2100   28.1720 N   0  0  0  0  0  0  0  0  0  0  0  0
    5.8610    0.3290   26.9920 N   0  0  0  0  0  0  0  0  0  0  0  0
    6.1630   -0.9580   26.3570 C   0  0  0  0  0  0  0  0  0  0  0  0
    5.5900   -1.1020   24.9800 C   0  0  0  0  0  0  0  0  0  0  0  0
    7.5460   -3.3780   23.6560 C   0  0  0  0  0  0  0  0  0  0  0  0
    7.6640   -3.2910   22.2600 C   0  0  0  0  0  0  0  0  0  0  0  0
  1  2  1  0
  2  3  2  0
  2  4  1  0
  4  5  1  0
  5  6  1  0
  6  7  1  0
  7  8  1  0
  8  9  2  0
  8 10  1  0
 10 11  1  0
 11 12  1  0
 12 13  1  0
 13 14  1  0
 10 15  1  0
 14 15  1  0
 15 16  1  1
 16 17  1  0
 17 18  1  0
 17 19  2  0
 19 20  1  0
 16 21  2  0
 20 21  1  0
 21 22  1  0
  7 23  1  0
  4 24  1  0
 23 24  1  0
M  END
