piperidine-amides-4129-covalent
     RDKit          3D

 27 28  0  0  0  0  0  0  0  0999 V2000
    7.0430   -3.2410   19.1240 C   0  0  0  0  0  0  0  0  0  0  0  0
    6.2510   -3.9300   20.1560 C   0  0  0  0  0  0  0  0  0  0  0  0
    5.1790   -4.4700   19.8170 O   0  0  0  0  0  0  0  0  0  0  0  0
    6.7000   -4.0180   21.4760 N   0  0  0  0  0  0  0  0  0  0  0  0
    7.0920   -2.7690   22.0260 C   0  0  0  0  0  0  0  0  0  0  0  0
    6.6010   -2.4870   23.3720 C   0  0  0  0  0  0  0  0  0  0  0  0
    6.2260   -3.6460   24.2140 C   0  0  0  0  0  0  0  0  0  0  0  0
    5.5960   -3.1650   25.4760 C   0  0  0  0  0  0  0  0  0  0  0  0
    4.3750   -2.9130   25.5040 O   0  0  0  0  0  0  0  0  0  0  0  0
    6.3740   -3.0030   26.6340 N   0  0  0  0  0  0  0  0  0  0  0  0
    6.8690   -4.0280   27.4570 C   0  0  0  0  0  0  0  0  0  0  0  0
    8.1220   -4.7090   27.1870 C   0  0  0  0  0  0  0  0  0  0  0  0
    7.8540   -6.1020   26.7200 C   0  0  0  0  0  0  0  0  0  0  0  0
    9.1760   -4.7820   28.1430 C   0  0  0  0  0  0  0  0  0  0  0  0
    8.7030   -4.0940   25.8480 C   0  0  0  0  0  0  0  0  0  0  0  0
    8.0170   -4.4830   24.5710 C   0  0  0  0  0  0  0  0  0  0  0  0
    8.7490   -3.7350   23.4370 C   0  0  0  0  0  0  0  0  0  0  0  0
    9.9140   -2.8000   23.5140 C   0  0  0  0  0  0  0  0  0  0  0  0
   10.4380   -2.2020   22.3700 O   0  0  0  0  0  0  0  0  0  0  0  0
   11.2150   -1.0470   22.5910 C   0  0  0  0  0  0  0  0  0  0  0  0
   12.7140   -1.3080   22.4310 C   0  0  0  0  0  0  0  0  0  0  0  0
   13.1270   -2.1170   23.6140 C   0  0  0  0  0  0  0  0  0  0  0  0
   13.0280   -1.9150   21.2370 C   0  0  0  0  0  0  0  0  0  0  0  0
   10.4130   -2.5800   24.7430 C   0  0  0  0  0  0  0  0  0  0  0  0
    9.7720   -3.2550   25.8900 C   0  0  0  0  0  0  0  0  0  0  0  0
    5.4080   -4.6520   23.4590 C   0  0  0  0  0  0  0  0  0  0  0  0
    6.2420   -5.1080   22.2750 C   0  0  0  0  0  0  0  0  0  0  0  0
  1  2  1  0
  2  3  2  0
  2  4  1  0
  4  5  1  0
  5  6  1  0
  6  7  1  0
  7  8  1  0
  8  9  2  0
  8 10  1  0
 10 11  1  0
 12 11  1  0
 12 13  1  0
 12 14  1  0
 12 15  1  0
 15 16  2  0
 16 17  1  0
 17 18  2  0
 18 19  1  0
 19 20  1  0
 20 21  1  0
 21 22  1  0
 21 23  1  0
 18 24  1  0
 15 25  1  0
 24 25  2  0
  7 26  1  0
  4 27  1  0
 26 27  1  0
M  END
