piperidine-amides-137-covalent
     RDKit          3D

 19 20  0  0  0  0  0  0  0  0999 V2000
    7.0320   -3.3270   19.2290 C   0  0  0  0  0  0  0  0  0  0  0  0
    6.2490   -4.0370   20.2250 C   0  0  0  0  0  0  0  0  0  0  0  0
    5.1580   -4.5380   19.8490 O   0  0  0  0  0  0  0  0  0  0  0  0
    6.6370   -4.2490   21.5580 N   0  0  0  0  0  0  0  0  0  0  0  0
    7.5610   -3.2820   22.1780 C   0  0  0  0  0  0  0  0  0  0  0  0
    6.8750   -3.0610   23.5810 C   0  0  0  0  0  0  0  0  0  0  0  0
    5.6590   -3.9720   23.6500 C   0  0  0  0  0  0  0  0  0  0  0  0
    4.7660   -3.6830   24.9420 C   0  0  0  0  0  0  0  0  0  0  0  0
    3.6340   -4.1120   24.8710 O   0  0  0  0  0  0  0  0  0  0  0  0
    5.5280   -3.0620   25.6920 N   0  0  0  0  0  0  0  0  0  0  0  0
    6.4730   -2.3950   26.2990 C   0  0  1  0  0  0  0  0  0  0  0  0
    6.8530   -1.3640   27.0720 C   0  0  0  0  0  0  0  0  0  0  0  0
    8.1000   -1.9320   27.0070 C   0  0  2  0  0  0  0  0  0  0  0  0
    8.7850   -2.0430   25.6720 C   0  0  0  0  0  0  0  0  0  0  0  0
   10.1420   -1.7420   25.8000 O   0  0  0  0  0  0  0  0  0  0  0  0
   10.7070   -1.6470   24.5340 C   0  0  0  0  0  0  0  0  0  0  0  0
    7.6210   -3.2970   26.8330 C   0  0  0  0  0  0  0  0  0  0  0  0
    6.0170   -5.4290   23.5120 C   0  0  0  0  0  0  0  0  0  0  0  0
    6.5490   -5.5990   22.0940 C   0  0  0  0  0  0  0  0  0  0  0  0
  1  2  1  0
  2  3  2  0
  2  4  1  0
  4  5  1  0
  5  6  1  0
  6  7  1  0
  7  8  1  0
  8  9  2  0
  8 10  1  0
 11 10  1  1
 11 12  1  0
 12 13  1  0
 13 14  1  6
 14 15  1  0
 15 16  1  0
 11 17  1  0
 13 17  1  0
  7 18  1  0
  4 19  1  0
 18 19  1  0
M  END
