piperidine-amides-8681-covalent
     RDKit          3D

 23 24  0  0  0  0  0  0  0  0999 V2000
    7.1440   -3.2810   19.1980 C   0  0  0  0  0  0  0  0  0  0  0  0
    6.4280   -4.0490   20.2120 C   0  0  0  0  0  0  0  0  0  0  0  0
    5.3380   -4.5590   19.8980 O   0  0  0  0  0  0  0  0  0  0  0  0
    7.0050   -4.2510   21.4900 N   0  0  0  0  0  0  0  0  0  0  0  0
    6.4870   -5.3130   22.2860 C   0  0  0  0  0  0  0  0  0  0  0  0
    5.6610   -4.7030   23.3760 C   0  0  0  0  0  0  0  0  0  0  0  0
    6.5650   -3.7470   24.1340 C   0  0  0  0  0  0  0  0  0  0  0  0
    5.8220   -3.1860   25.2920 C   0  0  0  0  0  0  0  0  0  0  0  0
    4.8950   -2.4200   25.0440 O   0  0  0  0  0  0  0  0  0  0  0  0
    6.2190   -3.5830   26.5480 N   0  0  0  0  0  0  0  0  0  0  0  0
    5.6620   -4.7580   27.0950 C   0  0  1  0  0  0  0  0  0  0  0  0
    5.9930   -5.9670   26.5140 C   0  0  0  0  0  0  0  0  0  0  0  0
    6.1530   -4.8870   28.4500 C   0  0  0  0  0  0  0  0  0  0  0  0
    5.0800   -4.7120   29.7350 S   0  0  0  0  0  0  0  0  0  0  0  0
    5.1680   -2.9730   29.8010 C   0  0  0  0  0  0  0  0  0  0  0  0
    4.1690   -2.1080   30.5100 C   0  0  0  0  0  0  0  0  0  0  0  0
    4.2500   -0.5730   30.5740 C   0  0  0  0  0  0  0  0  0  0  0  0
    5.4290   -0.0610   29.8530 C   0  0  0  0  0  0  0  0  0  0  0  0
    5.5200    1.4360   29.9050 C   0  0  0  0  0  0  0  0  0  0  0  0
    6.3120   -0.8980   29.2220 C   0  0  0  0  0  0  0  0  0  0  0  0
    6.2200   -2.2720   29.1780 C   0  0  0  0  0  0  0  0  0  0  0  0
    6.9250   -2.6170   23.2290 C   0  0  0  0  0  0  0  0  0  0  0  0
    7.7070   -3.1220   22.0580 C   0  0  0  0  0  0  0  0  0  0  0  0
  1  2  1  0
  2  3  2  0
  2  4  1  0
  4  5  1  0
  5  6  1  0
  6  7  1  0
  7  8  1  0
  8  9  2  0
  8 10  1  0
 10 11  1  0
 11 12  1  6
 11 13  1  0
 13 14  1  0
 14 15  1  0
 15 16  2  0
 16 17  1  0
 17 18  2  0
 18 19  1  0
 18 20  1  0
 15 21  1  0
 20 21  2  0
  7 22  1  0
  4 23  1  0
 22 23  1  0
M  END
