piperidine-amides-3997-covalent
     RDKit          3D

 29 31  0  0  0  0  0  0  0  0999 V2000
    7.1620   -3.2890   19.2220 C   0  0  0  0  0  0  0  0  0  0  0  0
    6.3690   -4.0130   20.2250 C   0  0  0  0  0  0  0  0  0  0  0  0
    5.2680   -4.4890   19.8620 O   0  0  0  0  0  0  0  0  0  0  0  0
    6.8740   -4.2130   21.5280 N   0  0  0  0  0  0  0  0  0  0  0  0
    6.3690   -5.2930   22.2910 C   0  0  0  0  0  0  0  0  0  0  0  0
    5.8450   -4.9040   23.6000 C   0  0  0  0  0  0  0  0  0  0  0  0
    6.5290   -3.7700   24.2730 C   0  0  0  0  0  0  0  0  0  0  0  0
    5.7590   -3.2810   25.4660 C   0  0  0  0  0  0  0  0  0  0  0  0
    4.5460   -3.0360   25.3290 O   0  0  0  0  0  0  0  0  0  0  0  0
    6.3600   -3.0880   26.7300 N   0  0  0  0  0  0  0  0  0  0  0  0
    6.2600   -3.9050   27.8920 C   0  0  2  0  0  0  0  0  0  0  0  0
    5.8420   -5.2980   27.7440 C   0  0  0  0  0  0  0  0  0  0  0  0
    6.3100   -6.0560   29.0020 C   0  0  0  0  0  0  0  0  0  0  0  0
    5.3060   -6.6270   29.7640 C   0  0  0  0  0  0  0  0  0  0  0  0
    4.4210   -7.0730   28.5790 C   0  0  0  0  0  0  0  0  0  0  0  0
    3.1500   -7.7700   29.0360 C   0  0  0  0  0  0  0  0  0  0  0  0
    3.0310   -7.8800   30.5650 C   0  0  0  0  0  0  0  0  0  0  0  0
    3.9320   -7.4280   31.6600 C   0  0  0  0  0  0  0  0  0  0  0  0
    5.1410   -6.7570   31.1110 C   0  0  0  0  0  0  0  0  0  0  0  0
    5.3780   -3.2460   28.9210 C   0  0  0  0  0  0  0  0  0  0  0  0
    5.9230   -1.9900   29.4850 C   0  0  0  0  0  0  0  0  0  0  0  0
    5.2640   -1.2330   30.4480 C   0  0  0  0  0  0  0  0  0  0  0  0
    4.0370   -1.6570   30.9180 C   0  0  0  0  0  0  0  0  0  0  0  0
    3.1430   -0.7500   32.1380 Cl  0  0  0  0  0  0  0  0  0  0  0  0
    3.4460   -2.9390   30.3660 C   0  0  0  0  0  0  0  0  0  0  0  0
    1.9000   -3.5310   30.9110 Cl  0  0  0  0  0  0  0  0  0  0  0  0
    4.1620   -3.6470   29.4020 C   0  0  0  0  0  0  0  0  0  0  0  0
    6.7280   -2.6520   23.2880 C   0  0  0  0  0  0  0  0  0  0  0  0
    7.6060   -3.1540   22.1690 C   0  0  0  0  0  0  0  0  0  0  0  0
  1  2  1  0
  2  3  2  0
  2  4  1  0
  4  5  1  0
  5  6  1  0
  6  7  1  0
  7  8  1  0
  8  9  2  0
  8 10  1  0
 10 11  1  0
 11 12  1  6
 12 13  1  0
 13 14  1  0
 14 15  2  0
 15 16  1  0
 16 17  2  0
 17 18  1  0
 14 19  1  0
 18 19  2  0
 11 20  1  0
 20 21  2  0
 21 22  1  0
 22 23  2  0
 23 24  1  0
 23 25  1  0
 25 26  1  0
 20 27  1  0
 25 27  2  0
  7 28  1  0
  4 29  1  0
 28 29  1  0
M  END
