piperidine-amides-13837-covalent
     RDKit          3D

 26 28  0  0  0  0  0  0  0  0999 V2000
    7.3130   -3.1050   18.8450 C   0  0  0  0  0  0  0  0  0  0  0  0
    6.3780   -3.5940   19.8840 C   0  0  0  0  0  0  0  0  0  0  0  0
    5.2560   -4.0360   19.5910 O   0  0  0  0  0  0  0  0  0  0  0  0
    6.7860   -3.5950   21.2050 N   0  0  0  0  0  0  0  0  0  0  0  0
    7.7990   -2.6860   21.7210 C   0  0  0  0  0  0  0  0  0  0  0  0
    7.1920   -1.7770   22.8020 C   0  0  0  0  0  0  0  0  0  0  0  0
    6.4770   -2.6230   23.7910 C   0  0  0  0  0  0  0  0  0  0  0  0
    5.9120   -1.8730   24.9480 C   0  0  0  0  0  0  0  0  0  0  0  0
    4.6940   -1.6620   24.8860 O   0  0  0  0  0  0  0  0  0  0  0  0
    6.6920   -1.4730   26.0550 N   0  0  0  0  0  0  0  0  0  0  0  0
    6.5960   -2.0950   27.3120 C   0  0  0  0  0  0  0  0  0  0  0  0
    6.4650   -3.4500   27.3050 C   0  0  1  0  0  0  0  0  0  0  0  0
    6.8420   -4.3270   28.3510 C   0  0  0  0  0  0  0  0  0  0  0  0
    6.0220   -4.4230   29.3960 C   0  0  0  0  0  0  0  0  0  0  0  0
    4.5910   -4.4920   29.1620 C   0  0  0  0  0  0  0  0  0  0  0  0
    4.1660   -3.6090   28.0090 C   0  0  0  0  0  0  0  0  0  0  0  0
    5.1170   -3.6650   26.9670 N   0  0  0  0  0  0  0  0  0  0  0  0
    4.6940   -3.8790   25.6390 C   0  0  0  0  0  0  0  0  0  0  0  0
    5.5480   -4.4300   24.6790 C   0  0  0  0  0  0  0  0  0  0  0  0
    5.0740   -5.6000   23.9330 C   0  0  0  0  0  0  0  0  0  0  0  0
    6.0250   -6.1520   22.8670 C   0  0  0  0  0  0  0  0  0  0  0  0
    7.2790   -5.8570   22.3720 C   0  0  0  0  0  0  0  0  0  0  0  0
    7.5970   -4.6350   23.2770 C   0  0  0  0  0  0  0  0  0  0  0  0
    6.7900   -3.9700   24.3520 C   0  0  0  0  0  0  0  0  0  0  0  0
    5.3350   -3.3390   23.0830 C   0  0  0  0  0  0  0  0  0  0  0  0
    5.8810   -4.2780   22.0850 C   0  0  0  0  0  0  0  0  0  0  0  0
  1  2  1  0
  2  3  2  0
  2  4  1  0
  4  5  1  0
  5  6  1  0
  6  7  1  0
  7  8  1  0
  8  9  2  0
  8 10  1  0
 10 11  1  0
 12 11  1  1
 12 13  1  0
 13 14  1  0
 14 15  1  0
 15 16  1  0
 12 17  1  0
 16 17  1  0
 17 18  1  0
 18 19  1  0
 19 20  2  0
 20 21  1  0
 21 22  2  0
 22 23  1  0
 19 24  1  0
 23 24  2  0
  7 25  1  0
  4 26  1  0
 25 26  1  0
M  END
