piperidine-amides-5056-covalent
     RDKit          3D

 22 24  0  0  0  0  0  0  0  0999 V2000
    7.0880   -3.3260   19.2470 C   0  0  0  0  0  0  0  0  0  0  0  0
    6.3330   -4.0800   20.2690 C   0  0  0  0  0  0  0  0  0  0  0  0
    5.2590   -4.5890   19.8980 O   0  0  0  0  0  0  0  0  0  0  0  0
    6.8460   -4.2550   21.5610 N   0  0  0  0  0  0  0  0  0  0  0  0
    7.5510   -3.1800   22.1870 C   0  0  0  0  0  0  0  0  0  0  0  0
    7.0440   -2.8140   23.5080 C   0  0  0  0  0  0  0  0  0  0  0  0
    6.4720   -3.9280   24.2900 C   0  0  0  0  0  0  0  0  0  0  0  0
    5.7310   -3.4130   25.4750 C   0  0  0  0  0  0  0  0  0  0  0  0
    4.4940   -3.2510   25.4250 O   0  0  0  0  0  0  0  0  0  0  0  0
    6.4170   -3.1260   26.6650 N   0  0  0  0  0  0  0  0  0  0  0  0
    6.4340   -1.8030   27.3330 C   0  0  0  0  0  0  0  0  0  0  0  0
    5.8580   -0.6120   26.6350 C   0  0  0  0  0  0  0  0  0  0  0  0
    5.8480    0.7130   27.2690 C   0  0  0  0  0  0  0  0  0  0  0  0
    6.3970    0.7900   28.5340 C   0  0  0  0  0  0  0  0  0  0  0  0
    6.5380    1.8400   29.3770 C   0  0  0  0  0  0  0  0  0  0  0  0
    7.1760    1.2480   30.5050 N   0  0  0  0  0  0  0  0  0  0  0  0
    7.5790    1.7830   31.6720 C   0  0  0  0  0  0  0  0  0  0  0  0
    7.4410   -0.0400   30.4540 N   0  0  0  0  0  0  0  0  0  0  0  0
    6.9040   -0.3460   29.1000 C   0  0  0  0  0  0  0  0  0  0  0  0
    6.9670   -1.6050   28.6150 C   0  0  0  0  0  0  0  0  0  0  0  0
    5.6550   -4.8560   23.4320 C   0  0  0  0  0  0  0  0  0  0  0  0
    6.5310   -5.4050   22.3770 C   0  0  0  0  0  0  0  0  0  0  0  0
  1  2  1  0
  2  3  2  0
  2  4  1  0
  4  5  1  0
  5  6  1  0
  6  7  1  0
  7  8  1  0
  8  9  2  0
  8 10  1  0
 10 11  1  0
 11 12  1  0
 12 13  2  0
 13 14  1  0
 14 15  2  0
 15 16  1  0
 16 17  1  0
 16 18  1  0
 14 19  1  0
 18 19  2  0
 11 20  2  0
 19 20  1  0
  7 21  1  0
  4 22  1  0
 21 22  1  0
M  END
