piperidine-amides-359-covalent
     RDKit          3D

 28 31  0  0  0  0  0  0  0  0999 V2000
    7.0850   -3.3160   19.4580 C   0  0  0  0  0  0  0  0  0  0  0  0
    6.3740   -4.1380   20.4170 C   0  0  0  0  0  0  0  0  0  0  0  0
    5.4140   -4.8550   19.9850 O   0  0  0  0  0  0  0  0  0  0  0  0
    6.7150   -4.2030   21.7910 N   0  0  0  0  0  0  0  0  0  0  0  0
    7.7170   -3.2040   22.2870 C   0  0  0  0  0  0  0  0  0  0  0  0
    7.2460   -2.8480   23.7650 C   0  0  0  0  0  0  0  0  0  0  0  0
    6.1410   -3.8200   24.0560 C   0  0  0  0  0  0  0  0  0  0  0  0
    5.2840   -3.5830   25.3910 C   0  0  0  0  0  0  0  0  0  0  0  0
    4.3250   -4.3290   25.3510 O   0  0  0  0  0  0  0  0  0  0  0  0
    5.7300   -2.6900   26.1920 N   0  0  0  0  0  0  0  0  0  0  0  0
    6.0340   -1.7640   27.1540 C   0  0  1  0  0  0  0  0  0  0  0  0
    7.0610   -1.4400   28.0180 C   0  0  0  0  0  0  0  0  0  0  0  0
    6.6890   -0.6570   29.1240 C   0  0  0  0  0  0  0  0  0  0  0  0
    5.9060    0.4600   28.6580 C   0  0  0  0  0  0  0  0  0  0  0  0
    5.3780    1.5330   29.3170 N   0  0  0  0  0  0  0  0  0  0  0  0
    4.7370    2.2880   28.4400 N   0  0  0  0  0  0  0  0  0  0  0  0
    4.8460    1.7160   27.2360 C   0  0  0  0  0  0  0  0  0  0  0  0
    4.2390    2.3530   26.1410 C   0  0  0  0  0  0  0  0  0  0  0  0
    3.4520    3.5010   26.5720 C   0  0  0  0  0  0  0  0  0  0  0  0
    2.9610    3.9360   25.1630 C   0  0  0  0  0  0  0  0  0  0  0  0
    3.2400    3.3220   23.7810 C   0  0  0  0  0  0  0  0  0  0  0  0
    2.6860    3.8840   22.6260 F   0  0  0  0  0  0  0  0  0  0  0  0
    4.0120    2.2570   23.7330 C   0  0  0  0  0  0  0  0  0  0  0  0
    4.5050    1.7790   24.8900 C   0  0  0  0  0  0  0  0  0  0  0  0
    5.5830    0.5650   27.3900 N   0  0  0  0  0  0  0  0  0  0  0  0
    5.9610   -0.3480   26.4690 C   0  0  0  0  0  0  0  0  0  0  0  0
    6.4490   -5.2560   23.8130 C   0  0  0  0  0  0  0  0  0  0  0  0
    6.6250   -5.4770   22.4520 C   0  0  0  0  0  0  0  0  0  0  0  0
  1  2  1  0
  2  3  2  0
  2  4  1  0
  4  5  1  0
  5  6  1  0
  6  7  1  0
  7  8  1  0
  8  9  2  0
  8 10  1  0
 11 10  1  6
 11 12  1  0
 12 13  1  0
 13 14  1  0
 14 15  2  0
 15 16  1  0
 16 17  2  0
 17 18  1  0
 18 19  2  0
 19 20  1  0
 20 21  2  0
 21 22  1  0
 21 23  1  0
 18 24  1  0
 23 24  2  0
 14 25  1  0
 17 25  1  0
 11 26  1  0
 25 26  1  0
  7 27  1  0
  4 28  1  0
 27 28  1  0
M  END
