piperidine-amides-28680-covalent
     RDKit          3D

 26 28  0  0  0  0  0  0  0  0999 V2000
    7.0290   -3.3500   19.3690 C   0  0  0  0  0  0  0  0  0  0  0  0
    6.3780   -4.2150   20.3540 C   0  0  0  0  0  0  0  0  0  0  0  0
    5.3940   -4.8810   19.9860 O   0  0  0  0  0  0  0  0  0  0  0  0
    6.8880   -4.3040   21.6740 N   0  0  0  0  0  0  0  0  0  0  0  0
    6.6480   -5.5110   22.4280 C   0  0  0  0  0  0  0  0  0  0  0  0
    6.1760   -5.1940   23.8270 C   0  0  0  0  0  0  0  0  0  0  0  0
    6.0700   -3.6870   23.9350 C   0  0  0  0  0  0  0  0  0  0  0  0
    5.3850   -3.1770   25.1770 C   0  0  0  0  0  0  0  0  0  0  0  0
    4.7490   -2.1460   25.0200 O   0  0  0  0  0  0  0  0  0  0  0  0
    5.4600   -3.8310   26.3970 N   0  0  0  0  0  0  0  0  0  0  0  0
    4.2900   -4.0780   27.1320 C   0  0  0  0  0  0  0  0  0  0  0  0
    4.4750   -4.7440   28.3430 C   0  0  0  0  0  0  0  0  0  0  0  0
    5.7080   -4.7120   28.9240 C   0  0  0  0  0  0  0  0  0  0  0  0
    5.9360   -5.8960   29.6850 N   0  0  0  0  0  0  0  0  0  0  0  0
    4.8000   -6.3000   30.4300 C   0  0  0  0  0  0  0  0  0  0  0  0
    3.6030   -5.5960   30.4350 O   0  0  0  0  0  0  0  0  0  0  0  0
    4.9070   -7.5420   31.2530 C   0  0  0  0  0  0  0  0  0  0  0  0
    4.7900   -7.3540   32.7850 C   0  0  0  0  0  0  0  0  0  0  0  0
    3.3450   -7.6010   33.1040 C   0  0  0  0  0  0  0  0  0  0  0  0
    3.3360   -8.6990   34.1340 C   0  0  0  0  0  0  0  0  0  0  0  0
    4.8220   -9.0410   34.2840 C   0  0  0  0  0  0  0  0  0  0  0  0
    5.5850   -8.3080   33.4270 C   0  0  0  0  0  0  0  0  0  0  0  0
    6.8070   -4.5740   28.1680 C   0  0  0  0  0  0  0  0  0  0  0  0
    6.4920   -3.4170   27.2480 C   0  0  0  0  0  0  0  0  0  0  0  0
    7.4500   -3.0800   23.6960 C   0  0  0  0  0  0  0  0  0  0  0  0
    7.7020   -3.2550   22.2250 C   0  0  0  0  0  0  0  0  0  0  0  0
  1  2  1  0
  2  3  2  0
  2  4  1  0
  4  5  1  0
  5  6  1  0
  6  7  1  0
  7  8  1  0
  8  9  2  0
  8 10  1  0
 10 11  1  0
 11 12  1  0
 12 13  1  0
 13 14  1  0
 14 15  1  0
 15 16  2  0
 15 17  1  0
 17 18  1  0
 18 19  1  0
 19 20  1  0
 20 21  1  0
 18 22  1  0
 21 22  1  0
 13 23  1  0
 10 24  1  0
 23 24  1  0
  7 25  1  0
  4 26  1  0
 25 26  1  0
M  END
