piperidine-amides-2277-covalent
     RDKit          3D

 28 30  0  0  0  0  0  0  0  0999 V2000
    7.1090   -3.3220   19.2370 C   0  0  0  0  0  0  0  0  0  0  0  0
    6.4220   -4.1560   20.2510 C   0  0  0  0  0  0  0  0  0  0  0  0
    5.3530   -4.6720   19.9330 O   0  0  0  0  0  0  0  0  0  0  0  0
    7.0290   -4.3810   21.4870 N   0  0  0  0  0  0  0  0  0  0  0  0
    7.7990   -3.3650   22.1510 C   0  0  0  0  0  0  0  0  0  0  0  0
    6.9480   -2.7500   23.2040 C   0  0  0  0  0  0  0  0  0  0  0  0
    6.3950   -3.8500   24.1010 C   0  0  0  0  0  0  0  0  0  0  0  0
    5.5790   -3.1490   25.0770 C   0  0  0  0  0  0  0  0  0  0  0  0
    4.4650   -2.7000   24.7870 O   0  0  0  0  0  0  0  0  0  0  0  0
    6.0950   -3.0310   26.3380 N   0  0  0  0  0  0  0  0  0  0  0  0
    6.1190   -1.7830   27.0330 C   0  0  0  0  0  0  0  0  0  0  0  0
    5.6800   -0.4090   26.6190 C   0  0  0  0  0  0  0  0  0  0  0  0
    5.7370    0.7520   27.3580 C   0  0  0  0  0  0  0  0  0  0  0  0
    6.2510    0.6890   28.6380 C   0  0  0  0  0  0  0  0  0  0  0  0
    6.2930    1.8660   29.3500 O   0  0  0  0  0  0  0  0  0  0  0  0
    5.7450    1.7340   30.6050 C   0  0  0  0  0  0  0  0  0  0  0  0
    4.9370    2.9870   30.8900 C   0  0  0  0  0  0  0  0  0  0  0  0
    5.1620    3.2910   32.3450 C   0  0  0  0  0  0  0  0  0  0  0  0
    4.4310    4.5310   32.8430 C   0  0  0  0  0  0  0  0  0  0  0  0
    3.5770    5.3220   31.8900 C   0  0  0  0  0  0  0  0  0  0  0  0
    3.4050    4.9530   30.4660 C   0  0  0  0  0  0  0  0  0  0  0  0
    2.3890    5.9360   29.4220 Cl  0  0  0  0  0  0  0  0  0  0  0  0
    4.0970    3.7430   29.9060 C   0  0  0  0  0  0  0  0  0  0  0  0
    6.7550   -0.5960   29.2610 C   0  0  0  0  0  0  0  0  0  0  0  0
    6.6820   -1.8420   28.4300 C   0  0  0  0  0  0  0  0  0  0  0  0
    7.0830   -3.0860   28.7970 C   0  0  0  0  0  0  0  0  0  0  0  0
    5.6540   -4.8980   23.3280 C   0  0  0  0  0  0  0  0  0  0  0  0
    6.6020   -5.5140   22.3030 C   0  0  0  0  0  0  0  0  0  0  0  0
  1  2  1  0
  2  3  2  0
  2  4  1  0
  4  5  1  0
  5  6  1  0
  6  7  1  0
  7  8  1  0
  8  9  2  0
  8 10  1  0
 10 11  1  0
 11 12  2  0
 12 13  1  0
 13 14  2  0
 14 15  1  0
 15 16  1  0
 16 17  1  0
 17 18  2  0
 18 19  1  0
 19 20  2  0
 20 21  1  0
 21 22  1  0
 17 23  1  0
 21 23  2  0
 14 24  1  0
 11 25  1  0
 24 25  2  0
 25 26  1  0
  7 27  1  0
  4 28  1  0
 27 28  1  0
M  END
