piperidine-amides-16099-covalent
     RDKit          3D

 19 20  0  0  0  0  0  0  0  0999 V2000
    7.0640   -3.3210   19.3010 C   0  0  0  0  0  0  0  0  0  0  0  0
    6.3810   -4.1830   20.3000 C   0  0  0  0  0  0  0  0  0  0  0  0
    5.3450   -4.7380   19.9460 O   0  0  0  0  0  0  0  0  0  0  0  0
    6.9410   -4.3760   21.5620 N   0  0  0  0  0  0  0  0  0  0  0  0
    6.5970   -5.5140   22.3740 C   0  0  0  0  0  0  0  0  0  0  0  0
    5.8160   -5.0330   23.5630 C   0  0  0  0  0  0  0  0  0  0  0  0
    6.6160   -3.9670   24.3200 C   0  0  0  0  0  0  0  0  0  0  0  0
    5.7880   -3.5010   25.4480 C   0  0  0  0  0  0  0  0  0  0  0  0
    4.5580   -3.3950   25.3360 O   0  0  0  0  0  0  0  0  0  0  0  0
    6.4290   -3.1770   26.6460 N   0  0  0  0  0  0  0  0  0  0  0  0
    5.7150   -3.1890   27.9170 C   0  0  0  0  0  0  0  0  0  0  0  0
    5.7410   -4.5950   28.4770 C   0  0  0  0  0  0  0  0  0  0  0  0
    6.9010   -5.2990   28.5130 C   0  0  0  0  0  0  0  0  0  0  0  0
    7.6940   -5.0000   27.4780 C   0  0  2  0  0  0  0  0  0  0  0  0
    8.9720   -5.4780   27.6170 O   0  0  0  0  0  0  0  0  0  0  0  0
    9.3950   -6.0190   26.4230 C   0  0  0  0  0  0  0  0  0  0  0  0
    7.6830   -3.5990   27.1920 C   0  0  0  0  0  0  0  0  0  0  0  0
    7.0550   -2.8340   23.4440 C   0  0  0  0  0  0  0  0  0  0  0  0
    7.6910   -3.2970   22.1770 C   0  0  0  0  0  0  0  0  0  0  0  0
  1  2  1  0
  2  3  2  0
  2  4  1  0
  4  5  1  0
  5  6  1  0
  6  7  1  0
  7  8  1  0
  8  9  2  0
  8 10  1  0
 10 11  1  0
 11 12  1  0
 12 13  1  0
 13 14  1  0
 14 15  1  1
 15 16  1  0
 10 17  1  0
 14 17  1  0
  7 18  1  0
  4 19  1  0
 18 19  1  0
M  END
