piperidine-amides-12788-covalent
     RDKit          3D

 22 24  0  0  0  0  0  0  0  0999 V2000
    7.0680   -3.3640   19.3180 C   0  0  0  0  0  0  0  0  0  0  0  0
    6.3740   -4.1670   20.3450 C   0  0  0  0  0  0  0  0  0  0  0  0
    5.3500   -4.7680   19.9640 O   0  0  0  0  0  0  0  0  0  0  0  0
    6.8840   -4.2830   21.6530 N   0  0  0  0  0  0  0  0  0  0  0  0
    7.6610   -3.2300   22.2340 C   0  0  0  0  0  0  0  0  0  0  0  0
    7.2480   -2.9300   23.5960 C   0  0  0  0  0  0  0  0  0  0  0  0
    6.0220   -3.6530   23.9760 C   0  0  0  0  0  0  0  0  0  0  0  0
    5.6200   -3.2660   25.3490 C   0  0  0  0  0  0  0  0  0  0  0  0
    4.4060   -3.2710   25.6470 O   0  0  0  0  0  0  0  0  0  0  0  0
    6.5850   -2.8850   26.2890 N   0  0  0  0  0  0  0  0  0  0  0  0
    6.5070   -1.6540   27.1130 C   0  0  0  0  0  0  0  0  0  0  0  0
    5.8970   -0.3940   26.5690 C   0  0  0  0  0  0  0  0  0  0  0  0
    5.8070    0.8310   27.3590 C   0  0  0  0  0  0  0  0  0  0  0  0
    6.3200    0.7330   28.6170 C   0  0  0  0  0  0  0  0  0  0  0  0
    6.3210    1.8000   29.5210 N   0  0  0  0  0  0  0  0  0  0  0  0
    6.9700    1.1570   30.6660 C   0  0  0  0  0  0  0  0  0  0  0  0
    7.1010    2.2960   31.9700 S   0  0  0  0  0  0  0  0  0  0  0  0
    7.3010   -0.1030   30.4680 O   0  0  0  0  0  0  0  0  0  0  0  0
    6.9250   -0.4630   29.1910 C   0  0  0  0  0  0  0  0  0  0  0  0
    7.0330   -1.6260   28.5050 C   0  0  0  0  0  0  0  0  0  0  0  0
    6.0550   -5.1170   23.7280 C   0  0  0  0  0  0  0  0  0  0  0  0
    6.5780   -5.4420   22.4600 C   0  0  0  0  0  0  0  0  0  0  0  0
  1  2  1  0
  2  3  2  0
  2  4  1  0
  4  5  1  0
  5  6  1  0
  6  7  1  0
  7  8  1  0
  8  9  2  0
  8 10  1  0
 10 11  1  0
 11 12  2  0
 12 13  1  0
 13 14  2  0
 14 15  1  0
 15 16  2  0
 16 17  1  0
 16 18  1  0
 14 19  1  0
 18 19  1  0
 11 20  1  0
 19 20  2  0
  7 21  1  0
  4 22  1  0
 21 22  1  0
M  END
