piperidine-amides-3028-covalent
     RDKit          3D

 23 25  0  0  0  0  0  0  0  0999 V2000
    7.1550   -3.2780   19.2380 C   0  0  0  0  0  0  0  0  0  0  0  0
    6.3450   -3.9880   20.2150 C   0  0  0  0  0  0  0  0  0  0  0  0
    5.2930   -4.5330   19.8810 O   0  0  0  0  0  0  0  0  0  0  0  0
    6.8030   -4.0990   21.5640 N   0  0  0  0  0  0  0  0  0  0  0  0
    7.7010   -3.1010   22.0880 C   0  0  0  0  0  0  0  0  0  0  0  0
    7.2960   -2.7930   23.4900 C   0  0  0  0  0  0  0  0  0  0  0  0
    5.9700   -3.4950   23.6930 C   0  0  0  0  0  0  0  0  0  0  0  0
    5.3610   -3.1120   24.9880 C   0  0  0  0  0  0  0  0  0  0  0  0
    4.2350   -3.5160   25.3400 O   0  0  0  0  0  0  0  0  0  0  0  0
    6.0640   -2.2450   25.8500 N   0  0  0  0  0  0  0  0  0  0  0  0
    5.4590   -1.9800   27.1250 C   0  0  0  0  0  0  0  0  0  0  0  0
    5.8280   -3.1450   27.9630 C   0  0  0  0  0  0  0  0  0  0  0  0
    5.3730   -3.7860   29.0680 N   0  0  0  0  0  0  0  0  0  0  0  0
    6.2670   -4.7620   29.1940 N   0  0  0  0  0  0  0  0  0  0  0  0
    7.2990   -4.7590   28.1790 C   0  0  0  0  0  0  0  0  0  0  0  0
    8.3680   -5.5100   27.9050 N   0  0  0  0  0  0  0  0  0  0  0  0
    8.4470   -6.2080   26.6660 C   0  0  0  0  0  0  0  0  0  0  0  0
    9.2700   -5.4520   25.9110 C   0  0  0  0  0  0  0  0  0  0  0  0
    9.9590   -4.6430   26.8160 C   0  0  0  0  0  0  0  0  0  0  0  0
    9.6980   -5.0380   28.1040 C   0  0  0  0  0  0  0  0  0  0  0  0
    6.9390   -3.7930   27.5370 O   0  0  0  0  0  0  0  0  0  0  0  0
    6.2270   -5.0000   23.6500 C   0  0  0  0  0  0  0  0  0  0  0  0
    6.3910   -5.2900   22.2880 C   0  0  0  0  0  0  0  0  0  0  0  0
  1  2  1  0
  2  3  2  0
  2  4  1  0
  4  5  1  0
  5  6  1  0
  6  7  1  0
  7  8  1  0
  8  9  2  0
  8 10  1  0
 10 11  1  0
 11 12  1  0
 12 13  2  0
 13 14  1  0
 14 15  2  0
 15 16  1  0
 16 17  1  0
 17 18  1  0
 18 19  1  0
 16 20  1  0
 19 20  1  0
 12 21  1  0
 15 21  1  0
  7 22  1  0
  4 23  1  0
 22 23  1  0
M  END
