piperidine-amides-35271-covalent
     RDKit          3D

 34 38  0  0  0  0  0  0  0  0999 V2000
    6.9880   -3.3650   19.4120 C   0  0  0  0  0  0  0  0  0  0  0  0
    6.3600   -4.2610   20.4170 C   0  0  0  0  0  0  0  0  0  0  0  0
    5.4190   -4.9420   20.0060 O   0  0  0  0  0  0  0  0  0  0  0  0
    6.8430   -4.3470   21.7410 N   0  0  0  0  0  0  0  0  0  0  0  0
    6.6000   -5.5170   22.5510 C   0  0  0  0  0  0  0  0  0  0  0  0
    5.9510   -5.1180   23.8590 C   0  0  0  0  0  0  0  0  0  0  0  0
    5.7330   -3.6000   23.8770 C   0  0  0  0  0  0  0  0  0  0  0  0
    4.8640   -3.1510   25.0300 C   0  0  0  0  0  0  0  0  0  0  0  0
    3.7060   -2.8390   24.7570 O   0  0  0  0  0  0  0  0  0  0  0  0
    5.2380   -3.0520   26.3890 N   0  0  0  0  0  0  0  0  0  0  0  0
    6.4140   -3.6660   26.6710 C   0  0  0  0  0  0  0  0  0  0  0  0
    6.5250   -3.7940   28.1600 C   0  0  0  0  0  0  0  0  0  0  0  0
    6.0580   -2.8370   28.9600 C   0  0  1  0  0  0  0  0  0  0  0  0
    6.2080   -1.5150   28.7000 C   0  0  0  0  0  0  0  0  0  0  0  0
    6.4530   -0.7100   29.7480 C   0  0  0  0  0  0  0  0  0  0  0  0
    6.6560    0.7750   29.8370 C   0  0  0  0  0  0  0  0  0  0  0  0
    6.5520    1.4210   28.4760 C   0  0  0  0  0  0  0  0  0  0  0  0
    6.2790    0.5640   27.2380 C   0  0  0  0  0  0  0  0  0  0  0  0
    6.1250   -0.9070   27.4750 C   0  0  0  0  0  0  0  0  0  0  0  0
    4.8020   -3.3790   28.8080 C   0  0  2  0  0  0  0  0  0  0  0  0
    4.4530   -4.8440   28.9650 C   0  0  0  0  0  0  0  0  0  0  0  0
    4.7210   -5.4920   27.7780 O   0  0  0  0  0  0  0  0  0  0  0  0
    3.6790   -6.0630   27.1260 C   0  0  0  0  0  0  0  0  0  0  0  0
    2.2850   -5.5420   27.4130 C   0  0  0  0  0  0  0  0  0  0  0  0
    1.2060   -6.0930   26.7740 C   0  0  0  0  0  0  0  0  0  0  0  0
    1.4060   -7.2120   25.7900 C   0  0  0  0  0  0  0  0  0  0  0  0
    2.7600   -7.7470   25.4870 C   0  0  0  0  0  0  0  0  0  0  0  0
    3.8790   -7.0680   26.2450 C   0  0  0  0  0  0  0  0  0  0  0  0
    2.7120   -8.7540   24.5730 O   0  0  0  0  0  0  0  0  0  0  0  0
    1.2910   -8.8990   24.2820 C   0  0  0  0  0  0  0  0  0  0  0  0
    0.5130   -7.9020   25.0420 O   0  0  0  0  0  0  0  0  0  0  0  0
    4.2490   -3.0360   27.4590 C   0  0  0  0  0  0  0  0  0  0  0  0
    7.0870   -2.9530   23.7570 C   0  0  0  0  0  0  0  0  0  0  0  0
    7.6030   -3.2460   22.3460 C   0  0  0  0  0  0  0  0  0  0  0  0
  1  2  1  0
  2  3  2  0
  2  4  1  0
  4  5  1  0
  5  6  1  0
  6  7  1  0
  7  8  1  0
  8  9  2  0
  8 10  1  0
 10 11  1  0
 11 12  1  0
 12 13  1  0
 13 14  1  6
 14 15  2  0
 15 16  1  0
 16 17  2  0
 17 18  1  0
 14 19  1  0
 18 19  2  0
 13 20  1  0
 20 21  1  6
 21 22  1  0
 22 23  1  0
 23 24  2  0
 24 25  1  0
 25 26  2  0
 26 27  1  0
 23 28  1  0
 27 28  2  0
 27 29  1  0
 29 30  1  0
 26 31  1  0
 30 31  1  0
 10 32  1  0
 20 32  1  0
  7 33  1  0
  4 34  1  0
 33 34  1  0
M  END
