piperidine-amides-9849-covalent
     RDKit          3D

 28 30  0  0  0  0  0  0  0  0999 V2000
    7.1290   -3.2700   19.1780 C   0  0  0  0  0  0  0  0  0  0  0  0
    6.3730   -4.0220   20.1910 C   0  0  0  0  0  0  0  0  0  0  0  0
    5.2500   -4.4710   19.8440 O   0  0  0  0  0  0  0  0  0  0  0  0
    6.9180   -4.2690   21.4450 N   0  0  0  0  0  0  0  0  0  0  0  0
    6.4930   -5.4100   22.2180 C   0  0  0  0  0  0  0  0  0  0  0  0
    5.7700   -4.8880   23.4270 C   0  0  0  0  0  0  0  0  0  0  0  0
    6.5830   -3.8280   24.1220 C   0  0  0  0  0  0  0  0  0  0  0  0
    5.8770   -3.3120   25.2990 C   0  0  0  0  0  0  0  0  0  0  0  0
    4.6240   -3.3320   25.3200 O   0  0  0  0  0  0  0  0  0  0  0  0
    6.5760   -2.7870   26.3870 N   0  0  0  0  0  0  0  0  0  0  0  0
    6.2190   -3.0720   27.7380 C   0  0  0  0  0  0  0  0  0  0  0  0
    5.9170   -4.5280   28.0750 C   0  0  0  0  0  0  0  0  0  0  0  0
    5.5340   -5.5040   27.1900 C   0  0  0  0  0  0  0  0  0  0  0  0
    5.2760   -6.7940   27.5870 C   0  0  0  0  0  0  0  0  0  0  0  0
    5.4070   -7.1320   28.9210 C   0  0  0  0  0  0  0  0  0  0  0  0
    5.7880   -6.1910   29.8490 C   0  0  0  0  0  0  0  0  0  0  0  0
    5.9370   -6.4810   31.2340 O   0  0  0  0  0  0  0  0  0  0  0  0
    4.7580   -6.6940   32.0030 C   0  0  0  0  0  0  0  0  0  0  0  0
    4.5280   -8.0810   32.5430 C   0  0  0  0  0  0  0  0  0  0  0  0
    4.0800   -8.2630   33.8920 N   0  0  0  0  0  0  0  0  0  0  0  0
    4.7220   -9.2350   34.6920 C   0  0  0  0  0  0  0  0  0  0  0  0
    3.7330   -9.7960   35.6810 C   0  0  0  0  0  0  0  0  0  0  0  0
    2.7280   -8.8770   35.8220 O   0  0  0  0  0  0  0  0  0  0  0  0
    3.0680   -7.5600   35.8100 C   0  0  0  0  0  0  0  0  0  0  0  0
    3.7120   -7.1290   34.6630 C   0  0  0  0  0  0  0  0  0  0  0  0
    6.0210   -4.9290   29.3560 C   0  0  0  0  0  0  0  0  0  0  0  0
    6.8800   -2.6790   23.2180 C   0  0  0  0  0  0  0  0  0  0  0  0
    7.7120   -3.2270   22.0730 C   0  0  0  0  0  0  0  0  0  0  0  0
  1  2  1  0
  2  3  2  0
  2  4  1  0
  4  5  1  0
  5  6  1  0
  6  7  1  0
  7  8  1  0
  8  9  2  0
  8 10  1  0
 10 11  1  0
 11 12  1  0
 12 13  2  0
 13 14  1  0
 14 15  2  0
 15 16  1  0
 16 17  1  0
 17 18  1  0
 18 19  1  0
 19 20  1  0
 20 21  1  0
 21 22  1  0
 22 23  1  0
 23 24  1  0
 20 25  1  0
 24 25  1  0
 12 26  1  0
 16 26  2  0
  7 27  1  0
  4 28  1  0
 27 28  1  0
M  END
