piperidine-amides-5013-covalent
     RDKit          3D

 23 24  0  0  0  0  0  0  0  0999 V2000
    7.0700   -3.2770   19.2780 C   0  0  0  0  0  0  0  0  0  0  0  0
    6.3450   -4.0670   20.3050 C   0  0  0  0  0  0  0  0  0  0  0  0
    5.3150   -4.6530   19.9200 O   0  0  0  0  0  0  0  0  0  0  0  0
    6.8140   -4.1790   21.6290 N   0  0  0  0  0  0  0  0  0  0  0  0
    7.5770   -3.1370   22.2300 C   0  0  0  0  0  0  0  0  0  0  0  0
    7.3160   -2.8900   23.6600 C   0  0  0  0  0  0  0  0  0  0  0  0
    6.7370   -4.0090   24.4570 C   0  0  0  0  0  0  0  0  0  0  0  0
    5.9000   -3.4490   25.5630 C   0  0  0  0  0  0  0  0  0  0  0  0
    4.6790   -3.3230   25.3440 O   0  0  0  0  0  0  0  0  0  0  0  0
    6.4240   -3.0450   26.8270 N   0  0  0  0  0  0  0  0  0  0  0  0
    7.3030   -3.8640   27.7160 C   0  0  0  0  0  0  0  0  0  0  0  0
    6.6290   -4.9960   28.4560 C   0  0  0  0  0  0  0  0  0  0  0  0
    5.3620   -4.9050   29.1350 C   0  0  0  0  0  0  0  0  0  0  0  0
    4.7830   -5.9760   29.8030 C   0  0  0  0  0  0  0  0  0  0  0  0
    5.3790   -7.2420   29.8660 C   0  0  0  0  0  0  0  0  0  0  0  0
    6.5840   -7.4290   29.2410 C   0  0  0  0  0  0  0  0  0  0  0  0
    7.4210   -8.6480   29.0980 O   0  0  0  0  0  0  0  0  0  0  0  0
    7.5960   -9.9470   29.6770 C   0  0  0  0  0  0  0  0  0  0  0  0
    8.7800  -10.7660   29.4210 C   0  0  0  0  0  0  0  0  0  0  0  0
    8.9870  -11.8960   30.1430 C   0  0  0  0  0  0  0  0  0  0  0  0
    7.1740   -6.2220   28.5400 C   0  0  0  0  0  0  0  0  0  0  0  0
    5.8910   -4.9660   23.6690 C   0  0  0  0  0  0  0  0  0  0  0  0
    6.6020   -5.3730   22.4060 C   0  0  0  0  0  0  0  0  0  0  0  0
  1  2  1  0
  2  3  2  0
  2  4  1  0
  4  5  1  0
  5  6  1  0
  6  7  1  0
  7  8  1  0
  8  9  2  0
  8 10  1  0
 10 11  1  0
 11 12  1  0
 12 13  2  0
 13 14  1  0
 14 15  2  0
 15 16  1  0
 16 17  1  0
 17 18  1  0
 18 19  1  0
 19 20  1  0
 12 21  1  0
 16 21  2  0
  7 22  1  0
  4 23  1  0
 22 23  1  0
M  END
