piperidine-amides-1702-covalent
     RDKit          3D

 20 21  0  0  0  0  0  0  0  0999 V2000
    7.1060   -3.2680   19.2290 C   0  0  0  0  0  0  0  0  0  0  0  0
    6.3450   -4.0600   20.2380 C   0  0  0  0  0  0  0  0  0  0  0  0
    5.2750   -4.5860   19.8930 O   0  0  0  0  0  0  0  0  0  0  0  0
    6.8690   -4.2500   21.5380 N   0  0  0  0  0  0  0  0  0  0  0  0
    6.5980   -5.4540   22.2870 C   0  0  0  0  0  0  0  0  0  0  0  0
    5.8110   -5.0190   23.5240 C   0  0  0  0  0  0  0  0  0  0  0  0
    6.5150   -3.8310   24.0810 C   0  0  0  0  0  0  0  0  0  0  0  0
    5.8330   -3.2680   25.2670 C   0  0  0  0  0  0  0  0  0  0  0  0
    4.6090   -3.1100   25.1750 O   0  0  0  0  0  0  0  0  0  0  0  0
    6.5600   -2.9480   26.4130 N   0  0  0  0  0  0  0  0  0  0  0  0
    6.2510   -3.3030   27.7520 C   0  0  0  0  0  0  0  0  0  0  0  0
    6.0010   -2.3750   28.7320 C   0  0  0  0  0  0  0  0  0  0  0  0
    4.7060   -2.3080   29.2960 C   0  0  0  0  0  0  0  0  0  0  0  0
    4.4100   -1.3440   30.3330 N   0  0  0  0  0  0  0  0  0  0  0  0
    5.2770   -0.4670   30.8350 C   0  0  0  0  0  0  0  0  0  0  0  0
    6.6340   -0.4970   30.2770 C   0  0  0  0  0  0  0  0  0  0  0  0
    7.5660    0.3960   30.7660 F   0  0  0  0  0  0  0  0  0  0  0  0
    7.0230   -1.4970   29.1730 C   0  0  0  0  0  0  0  0  0  0  0  0
    6.7550   -2.7100   23.1150 C   0  0  0  0  0  0  0  0  0  0  0  0
    7.6280   -3.2050   22.1690 C   0  0  0  0  0  0  0  0  0  0  0  0
  1  2  1  0
  2  3  2  0
  2  4  1  0
  4  5  1  0
  5  6  1  0
  6  7  1  0
  7  8  1  0
  8  9  2  0
  8 10  1  0
 10 11  1  0
 11 12  1  0
 12 13  2  0
 13 14  1  0
 14 15  2  0
 15 16  1  0
 16 17  1  0
 12 18  1  0
 16 18  2  0
  7 19  1  0
  4 20  1  0
 19 20  1  0
M  END
