piperidine-amides-31388-covalent
     RDKit          3D

 28 31  0  0  0  0  0  0  0  0999 V2000
    7.0580   -3.4300   19.4120 C   0  0  0  0  0  0  0  0  0  0  0  0
    6.3590   -4.2340   20.3830 C   0  0  0  0  0  0  0  0  0  0  0  0
    5.3340   -4.8650   19.9850 O   0  0  0  0  0  0  0  0  0  0  0  0
    6.7940   -4.3940   21.7130 N   0  0  0  0  0  0  0  0  0  0  0  0
    6.2240   -5.5340   22.4660 C   0  0  0  0  0  0  0  0  0  0  0  0
    5.3960   -4.7410   23.5550 C   0  0  0  0  0  0  0  0  0  0  0  0
    6.4690   -4.1980   24.4560 C   0  0  0  0  0  0  0  0  0  0  0  0
    5.9620   -3.1260   25.5400 C   0  0  0  0  0  0  0  0  0  0  0  0
    6.3080   -2.0200   25.1820 O   0  0  0  0  0  0  0  0  0  0  0  0
    5.2920   -3.6320   26.5180 N   0  0  0  0  0  0  0  0  0  0  0  0
    4.1980   -3.9770   27.2240 C   0  0  0  0  0  0  0  0  0  0  0  0
    3.9400   -4.3870   28.4880 C   0  0  0  0  0  0  0  0  0  0  0  0
    4.9960   -5.3070   28.7600 N   0  0  0  0  0  0  0  0  0  0  0  0
    5.0850   -6.4720   29.3710 C   0  0  0  0  0  0  0  0  0  0  0  0
    3.7800   -6.9590   29.8870 C   0  0  0  0  0  0  0  0  0  0  0  0
    4.1670   -6.7240   31.3620 C   0  0  0  0  0  0  0  0  0  0  0  0
    3.1450   -5.8680   31.8300 C   0  0  0  0  0  0  0  0  0  0  0  0
    2.9210   -5.2830   33.1370 C   0  0  0  0  0  0  0  0  0  0  0  0
    4.1540   -5.8890   33.8780 C   0  0  0  0  0  0  0  0  0  0  0  0
    5.2840   -6.8300   33.3710 C   0  0  0  0  0  0  0  0  0  0  0  0
    5.2230   -7.2030   32.1030 C   0  0  0  0  0  0  0  0  0  0  0  0
    6.1770   -8.0200   31.5970 F   0  0  0  0  0  0  0  0  0  0  0  0
    6.3330   -6.9600   29.3790 N   0  0  0  0  0  0  0  0  0  0  0  0
    7.1040   -6.0550   28.7190 N   0  0  0  0  0  0  0  0  0  0  0  0
    6.2580   -4.9550   28.2900 C   0  0  0  0  0  0  0  0  0  0  0  0
    6.2820   -3.7440   27.6070 C   0  0  0  0  0  0  0  0  0  0  0  0
    7.7130   -3.7520   23.7400 C   0  0  0  0  0  0  0  0  0  0  0  0
    7.4320   -3.3250   22.4340 C   0  0  0  0  0  0  0  0  0  0  0  0
  1  2  1  0
  2  3  2  0
  2  4  1  0
  4  5  1  0
  5  6  1  0
  6  7  1  0
  7  8  1  0
  8  9  2  0
  8 10  1  0
 10 11  1  0
 11 12  1  0
 12 13  1  0
 13 14  1  0
 14 15  1  0
 15 16  1  0
 16 17  2  0
 17 18  1  0
 18 19  2  0
 19 20  1  0
 16 21  1  0
 20 21  2  0
 21 22  1  0
 14 23  2  0
 23 24  1  0
 13 25  1  0
 24 25  2  0
 10 26  1  0
 25 26  1  0
  7 27  1  0
  4 28  1  0
 27 28  1  0
M  END
