piperidine-amides-19374-covalent
     RDKit          3D

 21 22  0  0  0  0  0  0  0  0999 V2000
    7.0310   -3.4070   19.3380 C   0  0  0  0  0  0  0  0  0  0  0  0
    6.3610   -4.1860   20.3600 C   0  0  0  0  0  0  0  0  0  0  0  0
    5.3750   -4.8940   19.9900 O   0  0  0  0  0  0  0  0  0  0  0  0
    6.7740   -4.2260   21.7080 N   0  0  0  0  0  0  0  0  0  0  0  0
    6.7250   -5.5610   22.3800 C   0  0  0  0  0  0  0  0  0  0  0  0
    6.0550   -5.2280   23.7800 C   0  0  0  0  0  0  0  0  0  0  0  0
    6.2890   -3.7610   23.9640 C   0  0  0  0  0  0  0  0  0  0  0  0
    5.6580   -3.0570   25.2480 C   0  0  0  0  0  0  0  0  0  0  0  0
    5.4350   -1.8950   24.9800 O   0  0  0  0  0  0  0  0  0  0  0  0
    5.4950   -3.8330   26.2460 N   0  0  0  0  0  0  0  0  0  0  0  0
    4.9470   -4.7590   27.0830 C   0  0  0  0  0  0  0  0  0  0  0  0
    4.6060   -4.8810   28.3970 C   0  0  0  0  0  0  0  0  0  0  0  0
    5.7120   -4.5840   29.1430 C   0  0  0  0  0  0  0  0  0  0  0  0
    6.8240   -4.5230   28.2720 C   0  0  2  0  0  0  0  0  0  0  0  0
    6.5550   -5.4760   27.2910 O   0  0  0  0  0  0  0  0  0  0  0  0
    6.7180   -2.9640   28.3750 C   0  0  0  0  0  0  0  0  0  0  0  0
    5.5180   -2.5720   28.9830 F   0  0  0  0  0  0  0  0  0  0  0  0
    6.6970   -2.3640   27.1100 F   0  0  0  0  0  0  0  0  0  0  0  0
    6.0170   -3.4090   27.5740 C   0  0  0  0  0  0  0  0  0  0  0  0
    7.7060   -3.3560   23.6790 C   0  0  0  0  0  0  0  0  0  0  0  0
    7.7080   -3.1950   22.1730 C   0  0  0  0  0  0  0  0  0  0  0  0
  1  2  1  0
  2  3  2  0
  2  4  1  0
  4  5  1  0
  5  6  1  0
  6  7  1  0
  7  8  1  0
  8  9  2  0
  8 10  1  0
 10 11  1  0
 11 12  1  0
 12 13  1  0
 13 14  1  0
 14 15  1  1
 14 16  1  0
 16 17  1  0
 16 18  1  0
 10 19  1  0
 14 19  1  0
  7 20  1  0
  4 21  1  0
 20 21  1  0
M  END
