piperidine-amides-13249-covalent
     RDKit          3D

 18 18  0  0  0  0  0  0  0  0999 V2000
    7.1260   -3.2520   19.2040 C   0  0  0  0  0  0  0  0  0  0  0  0
    6.3570   -4.0000   20.2230 C   0  0  0  0  0  0  0  0  0  0  0  0
    5.2720   -4.4930   19.8550 O   0  0  0  0  0  0  0  0  0  0  0  0
    6.8490   -4.1870   21.5180 N   0  0  0  0  0  0  0  0  0  0  0  0
    7.5840   -3.1320   22.1430 C   0  0  0  0  0  0  0  0  0  0  0  0
    7.1600   -2.8200   23.5130 C   0  0  0  0  0  0  0  0  0  0  0  0
    6.4330   -3.9060   24.2120 C   0  0  0  0  0  0  0  0  0  0  0  0
    5.6880   -3.3630   25.3870 C   0  0  0  0  0  0  0  0  0  0  0  0
    4.5450   -2.9160   25.1850 O   0  0  0  0  0  0  0  0  0  0  0  0
    6.2330   -3.3470   26.6940 N   0  0  0  0  0  0  0  0  0  0  0  0
    6.2150   -4.5440   27.5820 C   0  0  2  0  0  0  0  0  0  0  0  0
    5.8300   -5.7770   26.8400 C   0  0  0  0  0  0  0  0  0  0  0  0
    5.4380   -6.8300   27.4210 O   0  0  0  0  0  0  0  0  0  0  0  0
    5.3670   -4.4060   28.7430 C   0  0  0  0  0  0  0  0  0  0  0  0
    5.1230   -5.4870   29.5590 O   0  0  0  0  0  0  0  0  0  0  0  0
    6.0040   -6.6210   29.6150 C   0  0  0  0  0  0  0  0  0  0  0  0
    5.5690   -4.7330   23.3180 C   0  0  0  0  0  0  0  0  0  0  0  0
    6.2710   -5.2460   22.2730 C   0  0  0  0  0  0  0  0  0  0  0  0
  1  2  1  0
  2  3  2  0
  2  4  1  0
  4  5  1  0
  5  6  1  0
  6  7  1  0
  7  8  1  0
  8  9  2  0
  8 10  1  0
 10 11  1  0
 11 12  1  6
 12 13  1  0
 11 14  1  0
 14 15  1  0
 15 16  1  0
  7 17  1  0
  4 18  1  0
 17 18  1  0
M  END
