piperidine-amides-6775-covalent
     RDKit          3D

 23 24  0  0  0  0  0  0  0  0999 V2000
    7.0980   -3.2870   19.2400 C   0  0  0  0  0  0  0  0  0  0  0  0
    6.2970   -4.0360   20.2200 C   0  0  0  0  0  0  0  0  0  0  0  0
    5.2210   -4.5610   19.8790 O   0  0  0  0  0  0  0  0  0  0  0  0
    6.7530   -4.2270   21.5230 N   0  0  0  0  0  0  0  0  0  0  0  0
    7.5700   -3.2170   22.1540 C   0  0  0  0  0  0  0  0  0  0  0  0
    6.7480   -2.6930   23.3240 C   0  0  0  0  0  0  0  0  0  0  0  0
    6.4780   -3.9050   24.1900 C   0  0  0  0  0  0  0  0  0  0  0  0
    5.7940   -3.4690   25.4190 C   0  0  0  0  0  0  0  0  0  0  0  0
    4.5940   -3.1230   25.3500 O   0  0  0  0  0  0  0  0  0  0  0  0
    6.5020   -3.4520   26.6460 N   0  0  0  0  0  0  0  0  0  0  0  0
    7.4050   -4.5160   26.9690 C   0  0  0  0  0  0  0  0  0  0  0  0
    8.7380   -4.1550   26.3680 C   0  0  0  0  0  0  0  0  0  0  0  0
    9.9460   -4.7370   26.5450 C   0  0  0  0  0  0  0  0  0  0  0  0
   11.0730   -4.2610   25.9110 C   0  0  0  0  0  0  0  0  0  0  0  0
   11.1300   -3.1650   25.0320 C   0  0  0  0  0  0  0  0  0  0  0  0
   12.2860   -2.7650   24.4440 O   0  0  0  0  0  0  0  0  0  0  0  0
   12.3520   -2.1410   23.2140 C   0  0  0  0  0  0  0  0  0  0  0  0
   11.1400   -1.6080   22.7990 F   0  0  0  0  0  0  0  0  0  0  0  0
   13.2830   -1.1290   23.3520 F   0  0  0  0  0  0  0  0  0  0  0  0
    9.9420   -2.5850   24.8530 N   0  0  0  0  0  0  0  0  0  0  0  0
    8.8080   -2.9810   25.4310 C   0  0  0  0  0  0  0  0  0  0  0  0
    5.7190   -4.9670   23.4570 C   0  0  0  0  0  0  0  0  0  0  0  0
    6.4840   -5.4490   22.2580 C   0  0  0  0  0  0  0  0  0  0  0  0
  1  2  1  0
  2  3  2  0
  2  4  1  0
  4  5  1  0
  5  6  1  0
  6  7  1  0
  7  8  1  0
  8  9  2  0
  8 10  1  0
 10 11  1  0
 11 12  1  0
 12 13  2  0
 13 14  1  0
 14 15  2  0
 15 16  1  0
 16 17  1  0
 17 18  1  0
 17 19  1  0
 15 20  1  0
 12 21  1  0
 20 21  2  0
  7 22  1  0
  4 23  1  0
 22 23  1  0
M  END
