piperidine-amides-29687-covalent
     RDKit          3D

 27 30  0  0  0  0  0  0  0  0999 V2000
    7.0380   -3.3700   19.3050 C   0  0  0  0  0  0  0  0  0  0  0  0
    6.3710   -4.2090   20.2970 C   0  0  0  0  0  0  0  0  0  0  0  0
    5.3620   -4.8370   19.9780 O   0  0  0  0  0  0  0  0  0  0  0  0
    6.9130   -4.3500   21.6230 N   0  0  0  0  0  0  0  0  0  0  0  0
    7.7270   -3.3020   22.1870 C   0  0  0  0  0  0  0  0  0  0  0  0
    7.1060   -2.7720   23.4450 C   0  0  0  0  0  0  0  0  0  0  0  0
    6.5520   -3.9290   24.2590 C   0  0  0  0  0  0  0  0  0  0  0  0
    5.7460   -3.3510   25.3820 C   0  0  0  0  0  0  0  0  0  0  0  0
    5.0960   -2.3010   25.2190 O   0  0  0  0  0  0  0  0  0  0  0  0
    5.6400   -3.9720   26.6570 N   0  0  0  0  0  0  0  0  0  0  0  0
    4.2820   -4.0450   27.1300 C   0  0  0  0  0  0  0  0  0  0  0  0
    4.2630   -4.6630   28.5080 C   0  0  0  0  0  0  0  0  0  0  0  0
    5.2520   -5.4110   28.9820 N   0  0  0  0  0  0  0  0  0  0  0  0
    4.9390   -5.8920   30.2230 C   0  0  0  0  0  0  0  0  0  0  0  0
    5.5350   -6.9530   30.8850 C   0  0  0  0  0  0  0  0  0  0  0  0
    5.1080   -7.3320   32.1520 C   0  0  0  0  0  0  0  0  0  0  0  0
    5.6050   -8.3970   33.0110 C   0  0  0  0  0  0  0  0  0  0  0  0
    4.0000   -6.5730   32.7410 N   0  0  0  0  0  0  0  0  0  0  0  0
    3.4720   -5.5540   32.0180 C   0  0  0  0  0  0  0  0  0  0  0  0
    2.3640   -4.6510   32.3860 N   0  0  0  0  0  0  0  0  0  0  0  0
    2.2510   -3.7780   31.2450 C   0  0  0  0  0  0  0  0  0  0  0  0
    3.1850   -4.1980   30.4170 N   0  0  0  0  0  0  0  0  0  0  0  0
    3.9300   -5.2060   30.7720 N   0  0  0  0  0  0  0  0  0  0  0  0
    6.4360   -4.9240   28.5750 C   0  0  0  0  0  0  0  0  0  0  0  0
    6.3480   -3.6370   27.8580 C   0  0  0  0  0  0  0  0  0  0  0  0
    5.7370   -4.9200   23.4360 C   0  0  0  0  0  0  0  0  0  0  0  0
    6.5530   -5.4610   22.4480 C   0  0  0  0  0  0  0  0  0  0  0  0
  1  2  1  0
  2  3  2  0
  2  4  1  0
  4  5  1  0
  5  6  1  0
  6  7  1  0
  7  8  1  0
  8  9  2  0
  8 10  1  0
 10 11  1  0
 11 12  1  0
 12 13  1  0
 13 14  1  0
 14 15  2  0
 15 16  1  0
 16 17  1  0
 16 18  2  0
 18 19  1  0
 19 20  2  0
 20 21  1  0
 21 22  2  0
 14 23  1  0
 19 23  1  0
 22 23  1  0
 13 24  1  0
 10 25  1  0
 24 25  1  0
  7 26  1  0
  4 27  1  0
 26 27  1  0
M  END
