piperidine-amides-27992-covalent
     RDKit          3D

 26 28  0  0  0  0  0  0  0  0999 V2000
    7.0720   -3.3460   19.2580 C   0  0  0  0  0  0  0  0  0  0  0  0
    6.4140   -4.1690   20.2940 C   0  0  0  0  0  0  0  0  0  0  0  0
    5.3620   -4.7480   19.9570 O   0  0  0  0  0  0  0  0  0  0  0  0
    6.9890   -4.3260   21.5650 N   0  0  0  0  0  0  0  0  0  0  0  0
    6.6400   -5.4520   22.3690 C   0  0  0  0  0  0  0  0  0  0  0  0
    5.9520   -5.0740   23.6000 C   0  0  0  0  0  0  0  0  0  0  0  0
    6.1200   -3.6410   23.9240 C   0  0  0  0  0  0  0  0  0  0  0  0
    5.4870   -3.2960   25.2190 C   0  0  0  0  0  0  0  0  0  0  0  0
    4.5490   -2.4870   25.1950 O   0  0  0  0  0  0  0  0  0  0  0  0
    5.8840   -3.8510   26.4320 N   0  0  0  0  0  0  0  0  0  0  0  0
    6.8510   -4.9580   26.3040 C   0  0  0  0  0  0  0  0  0  0  0  0
    7.0830   -5.6900   27.5330 C   0  0  0  0  0  0  0  0  0  0  0  0
    6.1420   -5.5100   28.5930 C   0  0  0  0  0  0  0  0  0  0  0  0
    6.2230   -6.3300   29.6700 C   0  0  0  0  0  0  0  0  0  0  0  0
    5.3750   -6.2670   30.7460 C   0  0  0  0  0  0  0  0  0  0  0  0
    5.6570   -7.1140   31.6910 O   0  0  0  0  0  0  0  0  0  0  0  0
    4.3770   -5.3510   30.7300 C   0  0  0  0  0  0  0  0  0  0  0  0
    4.2760   -4.5190   29.6680 C   0  0  0  0  0  0  0  0  0  0  0  0
    5.1360   -4.5730   28.6140 C   0  0  0  0  0  0  0  0  0  0  0  0
    4.9700   -3.6560   27.5490 C   0  0  1  0  0  0  0  0  0  0  0  0
    4.9180   -2.2310   28.0050 C   0  0  0  0  0  0  0  0  0  0  0  0
    5.6180   -2.1980   29.3510 C   0  0  0  0  0  0  0  0  0  0  0  0
    3.5270   -1.7010   28.3490 C   0  0  0  0  0  0  0  0  0  0  0  0
    5.5220   -1.2290   27.0660 C   0  0  0  0  0  0  0  0  0  0  0  0
    7.4590   -3.1550   23.6330 C   0  0  0  0  0  0  0  0  0  0  0  0
    7.7960   -3.2660   22.1850 C   0  0  0  0  0  0  0  0  0  0  0  0
  1  2  1  0
  2  3  2  0
  2  4  1  0
  4  5  1  0
  5  6  1  0
  6  7  1  0
  7  8  1  0
  8  9  2  0
  8 10  1  0
 10 11  1  0
 11 12  1  0
 12 13  1  0
 13 14  2  0
 14 15  1  0
 15 16  1  0
 15 17  2  0
 17 18  1  0
 13 19  1  0
 18 19  2  0
 10 20  1  0
 19 20  1  0
 20 21  1  1
 21 22  1  0
 21 23  1  0
 21 24  1  0
  7 25  1  0
  4 26  1  0
 25 26  1  0
M  END
