piperidine-amides-24378-covalent
     RDKit          3D

 23 25  0  0  0  0  0  0  0  0999 V2000
    7.0340   -3.3440   19.4090 C   0  0  0  0  0  0  0  0  0  0  0  0
    6.3710   -4.2270   20.3840 C   0  0  0  0  0  0  0  0  0  0  0  0
    5.4140   -4.9430   20.0060 O   0  0  0  0  0  0  0  0  0  0  0  0
    6.8170   -4.3060   21.7200 N   0  0  0  0  0  0  0  0  0  0  0  0
    6.6980   -5.5720   22.4230 C   0  0  0  0  0  0  0  0  0  0  0  0
    6.1810   -5.2800   23.8420 C   0  0  0  0  0  0  0  0  0  0  0  0
    6.2140   -3.7780   23.9740 C   0  0  0  0  0  0  0  0  0  0  0  0
    5.7080   -3.2390   25.2650 C   0  0  0  0  0  0  0  0  0  0  0  0
    5.1110   -2.1470   25.2040 O   0  0  0  0  0  0  0  0  0  0  0  0
    5.8190   -3.8850   26.5260 N   0  0  0  0  0  0  0  0  0  0  0  0
    4.5920   -3.9440   27.2840 C   0  0  0  0  0  0  0  0  0  0  0  0
    4.8100   -4.1680   28.7750 C   0  0  0  0  0  0  0  0  0  0  0  0
    5.6980   -5.0970   29.2010 C   0  0  0  0  0  0  0  0  0  0  0  0
    5.2640   -6.3820   29.3930 C   0  0  0  0  0  0  0  0  0  0  0  0
    4.9930   -6.7170   30.7220 C   0  0  0  0  0  0  0  0  0  0  0  0
    5.7320   -7.7150   31.2710 N   0  0  0  0  0  0  0  0  0  0  0  0
    5.4520   -8.0350   32.6260 C   0  0  0  0  0  0  0  0  0  0  0  0
    4.3640   -7.1760   33.1590 C   0  0  0  0  0  0  0  0  0  0  0  0
    3.8300   -6.0690   31.8920 S   0  0  0  0  0  0  0  0  0  0  0  0
    6.7520   -4.9160   28.4320 C   0  0  0  0  0  0  0  0  0  0  0  0
    6.4010   -3.6040   27.7980 C   0  0  0  0  0  0  0  0  0  0  0  0
    7.5970   -3.2830   23.6520 C   0  0  0  0  0  0  0  0  0  0  0  0
    7.7070   -3.2750   22.2540 C   0  0  0  0  0  0  0  0  0  0  0  0
  1  2  1  0
  2  3  2  0
  2  4  1  0
  4  5  1  0
  5  6  1  0
  6  7  1  0
  7  8  1  0
  8  9  2  0
  8 10  1  0
 10 11  1  0
 11 12  1  0
 12 13  1  0
 13 14  1  0
 14 15  1  0
 15 16  2  0
 16 17  1  0
 17 18  2  0
 15 19  1  0
 18 19  1  0
 13 20  1  0
 10 21  1  0
 20 21  1  0
  7 22  1  0
  4 23  1  0
 22 23  1  0
M  END
