piperidine-amides-30548-covalent
     RDKit          3D

 23 25  0  0  0  0  0  0  0  0999 V2000
    7.0810   -3.2950   19.2740 C   0  0  0  0  0  0  0  0  0  0  0  0
    6.3500   -4.0810   20.2750 C   0  0  0  0  0  0  0  0  0  0  0  0
    5.3000   -4.6460   19.9220 O   0  0  0  0  0  0  0  0  0  0  0  0
    6.8180   -4.2740   21.5900 N   0  0  0  0  0  0  0  0  0  0  0  0
    6.6590   -5.5380   22.2720 C   0  0  0  0  0  0  0  0  0  0  0  0
    6.0510   -5.1780   23.5950 C   0  0  0  0  0  0  0  0  0  0  0  0
    6.0850   -3.7000   23.7920 C   0  0  0  0  0  0  0  0  0  0  0  0
    5.6310   -3.2800   25.1380 C   0  0  0  0  0  0  0  0  0  0  0  0
    4.8520   -2.2900   25.2690 O   0  0  0  0  0  0  0  0  0  0  0  0
    6.0040   -3.9520   26.3190 N   0  0  0  0  0  0  0  0  0  0  0  0
    5.8130   -3.3060   27.5910 C   0  0  0  0  0  0  0  0  0  0  0  0
    5.1430   -4.5500   27.9950 C   0  0  0  0  0  0  0  0  0  0  0  0
    5.7080   -5.2260   29.1710 C   0  0  0  0  0  0  0  0  0  0  0  0
    4.5550   -5.7690   29.9740 C   0  0  0  0  0  0  0  0  0  0  0  0
    4.2410   -7.2420   29.7490 C   0  0  0  0  0  0  0  0  0  0  0  0
    3.0960   -7.7850   30.5380 C   0  0  0  0  0  0  0  0  0  0  0  0
    2.3430   -7.0570   31.4240 C   0  0  0  0  0  0  0  0  0  0  0  0
    0.9150   -7.8680   32.3690 Br  0  0  0  0  0  0  0  0  0  0  0  0
    2.6680   -5.7150   31.5970 C   0  0  0  0  0  0  0  0  0  0  0  0
    3.7960   -5.0510   30.8560 C   0  0  0  0  0  0  0  0  0  0  0  0
    5.4130   -5.2510   26.6850 C   0  0  0  0  0  0  0  0  0  0  0  0
    7.4960   -3.2260   23.4220 C   0  0  0  0  0  0  0  0  0  0  0  0
    7.5600   -3.1660   22.2160 C   0  0  0  0  0  0  0  0  0  0  0  0
  1  2  1  0
  2  3  2  0
  2  4  1  0
  4  5  1  0
  5  6  1  0
  6  7  1  0
  7  8  1  0
  8  9  2  0
  8 10  1  0
 10 11  1  0
 11 12  1  0
 12 13  1  0
 13 14  1  0
 14 15  2  0
 15 16  1  0
 16 17  2  0
 17 18  1  0
 17 19  1  0
 14 20  1  0
 19 20  2  0
 10 21  1  0
 12 21  1  0
  7 22  1  0
  4 23  1  0
 22 23  1  0
M  END
