piperidine-amides-24724-covalent
     RDKit          3D

 24 25  0  0  0  0  0  0  0  0999 V2000
    7.0460   -3.3490   19.3550 C   0  0  0  0  0  0  0  0  0  0  0  0
    6.3840   -4.2310   20.3280 C   0  0  0  0  0  0  0  0  0  0  0  0
    5.3660   -4.8680   19.9860 O   0  0  0  0  0  0  0  0  0  0  0  0
    6.9060   -4.4170   21.6200 N   0  0  0  0  0  0  0  0  0  0  0  0
    6.4350   -5.5400   22.3860 C   0  0  0  0  0  0  0  0  0  0  0  0
    5.6280   -4.9270   23.5390 C   0  0  0  0  0  0  0  0  0  0  0  0
    6.6020   -4.0610   24.3100 C   0  0  0  0  0  0  0  0  0  0  0  0
    5.9210   -3.4100   25.4700 C   0  0  0  0  0  0  0  0  0  0  0  0
    5.4770   -2.2660   25.2680 O   0  0  0  0  0  0  0  0  0  0  0  0
    5.6960   -4.0000   26.7560 N   0  0  0  0  0  0  0  0  0  0  0  0
    4.4830   -3.5490   27.3470 C   0  0  0  0  0  0  0  0  0  0  0  0
    4.2110   -4.3880   28.5860 C   0  0  0  0  0  0  0  0  0  0  0  0
    5.0440   -4.3670   29.6640 C   0  0  0  0  0  0  0  0  0  0  0  0
    5.8160   -5.5190   29.7350 N   0  0  0  0  0  0  0  0  0  0  0  0
    5.2090   -6.7110   30.1530 C   0  0  0  0  0  0  0  0  0  0  0  0
    5.7730   -7.9730   30.1560 O   0  0  0  0  0  0  0  0  0  0  0  0
    3.9060   -6.5390   30.6190 C   0  0  0  0  0  0  0  0  0  0  0  0
    3.1500   -7.6710   30.4400 C   0  0  0  0  0  0  0  0  0  0  0  0
    2.4880   -8.3870   31.5970 C   0  0  0  0  0  0  0  0  0  0  0  0
    1.6780   -7.5820   30.5980 C   0  0  0  0  0  0  0  0  0  0  0  0
    6.4630   -5.4930   28.4430 C   0  0  0  0  0  0  0  0  0  0  0  0
    6.4410   -4.0910   27.9790 C   0  0  0  0  0  0  0  0  0  0  0  0
    7.0840   -2.9390   23.4310 C   0  0  0  0  0  0  0  0  0  0  0  0
    7.6240   -3.3540   22.2500 C   0  0  0  0  0  0  0  0  0  0  0  0
  1  2  1  0
  2  3  2  0
  2  4  1  0
  4  5  1  0
  5  6  1  0
  6  7  1  0
  7  8  1  0
  8  9  2  0
  8 10  1  0
 10 11  1  0
 11 12  1  0
 12 13  1  0
 13 14  1  0
 14 15  1  0
 15 16  2  0
 15 17  1  0
 17 18  1  0
 18 19  1  0
 18 20  1  0
 14 21  1  0
 10 22  1  0
 21 22  1  0
  7 23  1  0
  4 24  1  0
 23 24  1  0
M  END
