piperidine-amides-35258-covalent
     RDKit          3D

 34 37  0  0  0  0  0  0  0  0999 V2000
    7.1250   -3.2390   19.2350 C   0  0  0  0  0  0  0  0  0  0  0  0
    6.3630   -4.0160   20.2470 C   0  0  0  0  0  0  0  0  0  0  0  0
    5.3050   -4.5260   19.8820 O   0  0  0  0  0  0  0  0  0  0  0  0
    6.8720   -4.1830   21.5390 N   0  0  0  0  0  0  0  0  0  0  0  0
    6.6390   -5.3890   22.2860 C   0  0  0  0  0  0  0  0  0  0  0  0
    5.9080   -5.0590   23.5600 C   0  0  0  0  0  0  0  0  0  0  0  0
    6.1090   -3.5860   23.9430 C   0  0  0  0  0  0  0  0  0  0  0  0
    5.7760   -3.4190   25.3750 C   0  0  0  0  0  0  0  0  0  0  0  0
    4.5800   -3.4290   25.6940 O   0  0  0  0  0  0  0  0  0  0  0  0
    6.7690   -3.2260   26.3700 N   0  0  0  0  0  0  0  0  0  0  0  0
    7.2460   -1.8890   26.6160 C   0  0  0  0  0  0  0  0  0  0  0  0
    6.0250   -0.9950   26.6450 C   0  0  0  0  0  0  0  0  0  0  0  0
    5.4030   -0.2930   27.6840 C   0  0  0  0  0  0  0  0  0  0  0  0
    4.2850    0.4960   27.6000 C   0  0  0  0  0  0  0  0  0  0  0  0
    3.6270    0.6900   26.4360 C   0  0  0  0  0  0  0  0  0  0  0  0
    2.5160    1.4660   26.3230 O   0  0  0  0  0  0  0  0  0  0  0  0
    2.4060    2.3110   25.2700 C   0  0  0  0  0  0  0  0  0  0  0  0
    4.0180    0.1090   25.1980 C   0  0  0  0  0  0  0  0  0  0  0  0
    5.2350   -0.7380   25.3340 C   0  0  0  0  0  0  0  0  0  0  0  0
    7.4770   -4.3830   26.8950 C   0  0  2  0  0  0  0  0  0  0  0  0
    6.8780   -5.6700   26.4690 C   0  0  0  0  0  0  0  0  0  0  0  0
    5.6470   -5.8570   26.5470 O   0  0  0  0  0  0  0  0  0  0  0  0
    7.4850   -4.3570   28.3810 C   0  0  0  0  0  0  0  0  0  0  0  0
    6.4250   -5.1670   29.0680 C   0  0  0  0  0  0  0  0  0  0  0  0
    6.4560   -6.6000   29.3320 C   0  0  0  0  0  0  0  0  0  0  0  0
    5.3800   -6.9870   29.9560 N   0  0  0  0  0  0  0  0  0  0  0  0
    4.5490   -5.8100   30.1440 C   0  0  0  0  0  0  0  0  0  0  0  0
    3.1940   -5.5600   30.7830 C   0  0  0  0  0  0  0  0  0  0  0  0
    2.5990   -4.1540   30.8090 C   0  0  0  0  0  0  0  0  0  0  0  0
    3.3860   -3.0330   30.1860 C   0  0  0  0  0  0  0  0  0  0  0  0
    4.5940   -3.2500   29.6160 C   0  0  0  0  0  0  0  0  0  0  0  0
    5.2310   -4.6590   29.5710 C   0  0  0  0  0  0  0  0  0  0  0  0
    7.5250   -3.1840   23.6320 C   0  0  0  0  0  0  0  0  0  0  0  0
    7.7300   -3.1630   22.1300 C   0  0  0  0  0  0  0  0  0  0  0  0
  1  2  1  0
  2  3  2  0
  2  4  1  0
  4  5  1  0
  5  6  1  0
  6  7  1  0
  7  8  1  0
  8  9  2  0
  8 10  1  0
 10 11  1  0
 11 12  1  0
 12 13  2  0
 13 14  1  0
 14 15  2  0
 15 16  1  0
 16 17  1  0
 15 18  1  0
 12 19  1  0
 18 19  2  0
 10 20  1  0
 20 21  1  1
 21 22  1  0
 20 23  1  0
 23 24  1  0
 24 25  2  0
 25 26  1  0
 26 27  1  0
 27 28  1  0
 28 29  2  0
 29 30  1  0
 30 31  2  0
 24 32  1  0
 27 32  2  0
 31 32  1  0
  7 33  1  0
  4 34  1  0
 33 34  1  0
M  END
