piperidine-amides-34050-covalent
     RDKit          3D

 30 32  0  0  0  0  0  0  0  0999 V2000
    7.1050   -3.3240   19.2500 C   0  0  0  0  0  0  0  0  0  0  0  0
    6.4220   -4.1570   20.2500 C   0  0  0  0  0  0  0  0  0  0  0  0
    5.3670   -4.7570   19.9590 O   0  0  0  0  0  0  0  0  0  0  0  0
    6.9830   -4.3360   21.5170 N   0  0  0  0  0  0  0  0  0  0  0  0
    6.6400   -5.5140   22.2710 C   0  0  0  0  0  0  0  0  0  0  0  0
    5.7490   -5.0180   23.4090 C   0  0  0  0  0  0  0  0  0  0  0  0
    6.5860   -4.0290   24.1840 C   0  0  0  0  0  0  0  0  0  0  0  0
    5.8240   -3.5000   25.3240 C   0  0  0  0  0  0  0  0  0  0  0  0
    4.8180   -2.7980   25.0920 O   0  0  0  0  0  0  0  0  0  0  0  0
    6.2260   -3.8050   26.6320 N   0  0  0  0  0  0  0  0  0  0  0  0
    5.9120   -5.1020   27.1700 C   0  0  0  0  0  0  0  0  0  0  0  0
    6.0900   -5.0850   28.6660 C   0  0  0  0  0  0  0  0  0  0  0  0
    5.4020   -4.0900   29.2900 C   0  0  0  0  0  0  0  0  0  0  0  0
    4.2910   -4.4310   30.1190 N   0  0  0  0  0  0  0  0  0  0  0  0
    3.9030   -3.4430   30.9210 N   0  0  0  0  0  0  0  0  0  0  0  0
    2.8390   -3.9020   31.6460 N   0  0  0  0  0  0  0  0  0  0  0  0
    2.5990   -5.1940   31.2500 C   0  0  0  0  0  0  0  0  0  0  0  0
    1.5860   -6.0180   31.7490 C   0  0  0  0  0  0  0  0  0  0  0  0
    0.3000   -5.5870   31.6870 O   0  0  0  0  0  0  0  0  0  0  0  0
    1.8580   -7.2530   32.3110 O   0  0  0  0  0  0  0  0  0  0  0  0
    2.6100   -7.4020   33.5070 C   0  0  0  0  0  0  0  0  0  0  0  0
    3.5220   -5.5040   30.2880 C   0  0  0  0  0  0  0  0  0  0  0  0
    3.7130   -6.7760   29.5050 C   0  0  0  0  0  0  0  0  0  0  0  0
    4.2080   -6.8740   28.2140 O   0  0  0  0  0  0  0  0  0  0  0  0
    3.3420   -7.9790   30.1190 O   0  0  0  0  0  0  0  0  0  0  0  0
    2.0350   -8.4420   29.8680 C   0  0  0  0  0  0  0  0  0  0  0  0
    5.0620   -3.0280   28.4850 C   0  0  0  0  0  0  0  0  0  0  0  0
    6.2100   -2.8820   27.7470 C   0  0  0  0  0  0  0  0  0  0  0  0
    6.9100   -2.8290   23.3120 C   0  0  0  0  0  0  0  0  0  0  0  0
    7.7390   -3.2820   22.1510 C   0  0  0  0  0  0  0  0  0  0  0  0
  1  2  1  0
  2  3  2  0
  2  4  1  0
  4  5  1  0
  5  6  1  0
  6  7  1  0
  7  8  1  0
  8  9  2  0
  8 10  1  0
 10 11  1  0
 11 12  1  0
 12 13  1  0
 13 14  1  0
 14 15  1  0
 15 16  2  0
 16 17  1  0
 17 18  1  0
 18 19  2  0
 18 20  1  0
 20 21  1  0
 14 22  1  0
 17 22  2  0
 22 23  1  0
 23 24  2  0
 23 25  1  0
 25 26  1  0
 13 27  1  0
 10 28  1  0
 27 28  1  0
  7 29  1  0
  4 30  1  0
 29 30  1  0
M  END
