piperidine-amides-24215-covalent
     RDKit          3D

 23 25  0  0  0  0  0  0  0  0999 V2000
    7.0780   -3.3220   19.3140 C   0  0  0  0  0  0  0  0  0  0  0  0
    6.4190   -4.1640   20.3220 C   0  0  0  0  0  0  0  0  0  0  0  0
    5.4230   -4.8510   19.9940 O   0  0  0  0  0  0  0  0  0  0  0  0
    6.9230   -4.2420   21.6310 N   0  0  0  0  0  0  0  0  0  0  0  0
    7.7480   -3.1510   22.1330 C   0  0  0  0  0  0  0  0  0  0  0  0
    7.4530   -3.0020   23.6250 C   0  0  0  0  0  0  0  0  0  0  0  0
    6.0340   -3.4820   23.7660 C   0  0  0  0  0  0  0  0  0  0  0  0
    5.4130   -3.0470   25.0310 C   0  0  0  0  0  0  0  0  0  0  0  0
    4.1680   -3.0910   25.1070 O   0  0  0  0  0  0  0  0  0  0  0  0
    6.1820   -2.6030   26.1310 N   0  0  0  0  0  0  0  0  0  0  0  0
    6.5940   -3.6550   27.0000 C   0  0  0  0  0  0  0  0  0  0  0  0
    7.9130   -3.5470   27.6850 C   0  0  0  0  0  0  0  0  0  0  0  0
    8.1890   -4.6370   28.4590 C   0  0  0  0  0  0  0  0  0  0  0  0
    6.8800   -5.8000   28.4010 S   0  0  0  0  0  0  0  0  0  0  0  0
    5.8800   -4.8870   27.3130 C   0  0  0  0  0  0  0  0  0  0  0  0
    5.9000   -1.5960   27.1830 C   0  0  0  0  0  0  0  0  0  0  0  0
    7.0150   -1.6070   27.9860 C   0  0  0  0  0  0  0  0  0  0  0  0
    6.9890   -0.8200   29.2910 C   0  0  0  0  0  0  0  0  0  0  0  0
    5.8520   -0.5210   28.3390 C   0  0  0  0  0  0  0  0  0  0  0  0
    5.9860    0.7680   27.6020 C   0  0  0  0  0  0  0  0  0  0  0  0
    5.4560   -0.3400   26.7750 C   0  0  0  0  0  0  0  0  0  0  0  0
    6.0340   -4.9800   23.6550 C   0  0  0  0  0  0  0  0  0  0  0  0
    6.5470   -5.3570   22.4450 C   0  0  0  0  0  0  0  0  0  0  0  0
  1  2  1  0
  2  3  2  0
  2  4  1  0
  4  5  1  0
  5  6  1  0
  6  7  1  0
  7  8  1  0
  8  9  2  0
  8 10  1  0
 10 11  1  0
 11 12  1  0
 12 13  2  0
 13 14  1  0
 11 15  2  0
 14 15  1  0
 10 16  1  0
 16 17  1  0
 17 18  1  0
 18 19  1  0
 19 20  1  0
 16 21  1  0
 20 21  1  0
  7 22  1  0
  4 23  1  0
 22 23  1  0
M  END
