piperidine-amides-23993-covalent
     RDKit          3D

 24 25  0  0  0  0  0  0  0  0999 V2000
    7.1090   -3.3380   19.3860 C   0  0  0  0  0  0  0  0  0  0  0  0
    6.3830   -4.1420   20.3830 C   0  0  0  0  0  0  0  0  0  0  0  0
    5.3580   -4.7390   19.9620 O   0  0  0  0  0  0  0  0  0  0  0  0
    6.8320   -4.2850   21.7300 N   0  0  0  0  0  0  0  0  0  0  0  0
    7.6780   -3.2690   22.2920 C   0  0  0  0  0  0  0  0  0  0  0  0
    7.3000   -2.9190   23.6450 C   0  0  0  0  0  0  0  0  0  0  0  0
    6.1780   -3.7530   24.0680 C   0  0  0  0  0  0  0  0  0  0  0  0
    5.5700   -3.3920   25.4030 C   0  0  0  0  0  0  0  0  0  0  0  0
    4.3300   -3.2720   25.4360 O   0  0  0  0  0  0  0  0  0  0  0  0
    6.2680   -3.1460   26.6190 N   0  0  0  0  0  0  0  0  0  0  0  0
    6.2100   -4.0090   27.7620 C   0  0  0  0  0  0  0  0  0  0  0  0
    6.1390   -5.4650   27.6620 C   0  0  0  0  0  0  0  0  0  0  0  0
    4.8450   -5.9620   28.3340 C   0  0  0  0  0  0  0  0  0  0  0  0
    4.7950   -5.2810   29.5350 O   0  0  0  0  0  0  0  0  0  0  0  0
    3.5710   -4.6270   29.6370 C   0  0  0  0  0  0  0  0  0  0  0  0
    3.7430   -3.3310   30.4310 C   0  0  0  0  0  0  0  0  0  0  0  0
    6.3330   -1.7860   27.1200 C   0  0  0  0  0  0  0  0  0  0  0  0
    6.9390   -1.6280   28.4620 C   0  0  0  0  0  0  0  0  0  0  0  0
    7.2130   -0.5080   29.3780 C   0  0  0  0  0  0  0  0  0  0  0  0
    6.6680    0.5260   28.5110 N   0  0  0  0  0  0  0  0  0  0  0  0
    6.0630    0.9110   27.3250 C   0  0  0  0  0  0  0  0  0  0  0  0
    5.8960   -0.4460   26.5680 C   0  0  0  0  0  0  0  0  0  0  0  0
    6.5470   -5.1900   23.8800 C   0  0  0  0  0  0  0  0  0  0  0  0
    6.5040   -5.4840   22.4960 C   0  0  0  0  0  0  0  0  0  0  0  0
  1  2  1  0
  2  3  2  0
  2  4  1  0
  4  5  1  0
  5  6  1  0
  6  7  1  0
  7  8  1  0
  8  9  2  0
  8 10  1  0
 10 11  1  0
 11 12  1  0
 12 13  1  0
 13 14  1  0
 14 15  1  0
 15 16  1  0
 10 17  1  0
 17 18  2  0
 18 19  1  0
 19 20  2  0
 20 21  1  0
 17 22  1  0
 21 22  2  0
  7 23  1  0
  4 24  1  0
 23 24  1  0
M  END
