piperidine-amides-19125-covalent
     RDKit          3D

 22 24  0  0  0  0  0  0  0  0999 V2000
    7.1110   -3.4110   19.3530 C   0  0  0  0  0  0  0  0  0  0  0  0
    6.4190   -4.1660   20.3650 C   0  0  0  0  0  0  0  0  0  0  0  0
    5.3910   -4.8160   19.9920 O   0  0  0  0  0  0  0  0  0  0  0  0
    6.8690   -4.2590   21.7020 N   0  0  0  0  0  0  0  0  0  0  0  0
    7.7640   -3.2210   22.2520 C   0  0  0  0  0  0  0  0  0  0  0  0
    6.8120   -2.6790   23.3740 C   0  0  0  0  0  0  0  0  0  0  0  0
    6.5380   -3.8490   24.3010 C   0  0  0  0  0  0  0  0  0  0  0  0
    5.4790   -3.4350   25.4100 C   0  0  0  0  0  0  0  0  0  0  0  0
    4.3700   -3.7940   25.0420 O   0  0  0  0  0  0  0  0  0  0  0  0
    5.9780   -2.8250   26.4160 N   0  0  0  0  0  0  0  0  0  0  0  0
    6.2970   -1.7700   27.2340 C   0  0  0  0  0  0  0  0  0  0  0  0
    6.9540   -1.7370   28.4730 C   0  0  0  0  0  0  0  0  0  0  0  0
    7.1930   -0.6120   29.2290 C   0  0  0  0  0  0  0  0  0  0  0  0
    6.7130    0.5760   28.6550 C   0  0  0  0  0  0  0  0  0  0  0  0
    6.0860    0.4870   27.4350 N   0  0  0  0  0  0  0  0  0  0  0  0
    5.7020   -0.5340   26.4280 C   0  0  0  0  0  0  0  0  0  0  0  0
    5.3740    0.7990   26.1450 C   0  0  0  0  0  0  0  0  0  0  0  0
    5.9470   -3.6570   27.6050 C   0  0  0  0  0  0  0  0  0  0  0  0
    5.3500   -4.8770   27.2530 C   0  0  0  0  0  0  0  0  0  0  0  0
    6.8790   -4.9700   27.7370 C   0  0  0  0  0  0  0  0  0  0  0  0
    5.9260   -5.0660   23.5500 C   0  0  0  0  0  0  0  0  0  0  0  0
    6.7100   -5.4530   22.4930 C   0  0  0  0  0  0  0  0  0  0  0  0
  1  2  1  0
  2  3  2  0
  2  4  1  0
  4  5  1  0
  5  6  1  0
  6  7  1  0
  7  8  1  0
  8  9  2  0
  8 10  1  0
 10 11  1  0
 11 12  2  0
 12 13  1  0
 13 14  2  0
 14 15  1  0
 11 16  1  0
 15 16  2  0
 16 17  1  0
 10 18  1  0
 18 19  1  0
 18 20  1  0
 19 20  1  0
  7 21  1  0
  4 22  1  0
 21 22  1  0
M  END
