piperidine-amides-23386-covalent
     RDKit          3D

 24 26  0  0  0  0  0  0  0  0999 V2000
    7.0750   -3.3510   19.3540 C   0  0  0  0  0  0  0  0  0  0  0  0
    6.4110   -4.1960   20.3610 C   0  0  0  0  0  0  0  0  0  0  0  0
    5.3910   -4.8250   19.9810 O   0  0  0  0  0  0  0  0  0  0  0  0
    6.9340   -4.3340   21.6750 N   0  0  0  0  0  0  0  0  0  0  0  0
    6.4970   -5.4150   22.4860 C   0  0  0  0  0  0  0  0  0  0  0  0
    6.1220   -5.0360   23.8550 C   0  0  0  0  0  0  0  0  0  0  0  0
    6.5640   -3.6980   24.3240 C   0  0  0  0  0  0  0  0  0  0  0  0
    5.5810   -3.1180   25.3250 C   0  0  0  0  0  0  0  0  0  0  0  0
    4.5900   -2.5090   24.8980 O   0  0  0  0  0  0  0  0  0  0  0  0
    5.7490   -3.2680   26.7260 N   0  0  0  0  0  0  0  0  0  0  0  0
    4.8070   -3.2250   27.7640 C   0  0  0  0  0  0  0  0  0  0  0  0
    4.3990   -4.6090   28.2570 C   0  0  0  0  0  0  0  0  0  0  0  0
    5.3830   -5.3540   29.2870 C   0  0  0  0  0  0  0  0  0  0  0  0
    5.9240   -6.6070   28.9070 C   0  0  0  0  0  0  0  0  0  0  0  0
    6.2950   -5.7080   27.8520 C   0  0  0  0  0  0  0  0  0  0  0  0
    5.3240   -5.8710   29.0340 C   0  0  0  0  0  0  0  0  0  0  0  0
    5.6330   -7.1240   29.6050 O   0  0  0  0  0  0  0  0  0  0  0  0
    5.1770   -7.4650   30.8500 C   0  0  0  0  0  0  0  0  0  0  0  0
    4.3050   -5.1300   29.6150 C   0  0  0  0  0  0  0  0  0  0  0  0
    4.1300   -3.8850   28.9330 C   0  0  0  0  0  0  0  0  0  0  0  0
    5.0590   -3.6460   27.7500 C   0  0  0  0  0  0  0  0  0  0  0  0
    6.1830   -4.4770   27.1020 C   0  0  0  0  0  0  0  0  0  0  0  0
    6.8410   -2.7320   23.2180 C   0  0  0  0  0  0  0  0  0  0  0  0
    7.6990   -3.2840   22.2890 C   0  0  0  0  0  0  0  0  0  0  0  0
  1  2  1  0
  2  3  2  0
  2  4  1  0
  4  5  1  0
  5  6  1  0
  6  7  1  0
  7  8  1  0
  8  9  2  0
  8 10  1  0
 10 11  1  0
 11 12  1  0
 12 13  1  0
 13 14  1  0
 14 15  1  0
 15 16  1  0
 16 17  1  0
 17 18  1  0
 16 19  2  0
 19 20  1  0
 20 21  2  0
 10 22  1  0
 15 22  2  0
 21 22  1  0
  7 23  1  0
  4 24  1  0
 23 24  1  0
M  END
