piperidine-amides-31659-covalent
     RDKit          3D

 28 30  0  0  0  0  0  0  0  0999 V2000
    7.0490   -3.3800   19.2720 C   0  0  0  0  0  0  0  0  0  0  0  0
    6.3610   -4.1180   20.3050 C   0  0  0  0  0  0  0  0  0  0  0  0
    5.3490   -4.8030   19.9680 O   0  0  0  0  0  0  0  0  0  0  0  0
    6.8010   -4.1390   21.6360 N   0  0  0  0  0  0  0  0  0  0  0  0
    6.6210   -5.4050   22.3940 C   0  0  0  0  0  0  0  0  0  0  0  0
    5.6510   -4.9460   23.5640 C   0  0  0  0  0  0  0  0  0  0  0  0
    6.0920   -3.5520   23.9820 C   0  0  0  0  0  0  0  0  0  0  0  0
    5.3960   -2.9340   25.2830 C   0  0  0  0  0  0  0  0  0  0  0  0
    4.4290   -2.2900   24.9170 O   0  0  0  0  0  0  0  0  0  0  0  0
    5.9510   -3.2370   26.3940 N   0  0  0  0  0  0  0  0  0  0  0  0
    6.3110   -3.1780   27.6950 C   0  0  0  0  0  0  0  0  0  0  0  0
    5.7860   -3.7570   28.8200 C   0  0  0  0  0  0  0  0  0  0  0  0
    6.4700   -4.9350   29.1870 C   0  0  0  0  0  0  0  0  0  0  0  0
    6.0050   -6.1170   28.8300 N   0  0  0  0  0  0  0  0  0  0  0  0
    5.9740   -6.2680   27.4710 C   0  0  0  0  0  0  0  0  0  0  0  0
    7.2990   -5.8210   26.8420 C   0  0  0  0  0  0  0  0  0  0  0  0
    8.2370   -5.8500   27.8630 C   0  0  0  0  0  0  0  0  0  0  0  0
    9.6180   -5.5490   27.8930 C   0  0  0  0  0  0  0  0  0  0  0  0
    9.7730   -5.1820   26.4120 C   0  0  0  0  0  0  0  0  0  0  0  0
    8.7500   -5.1260   25.2550 C   0  0  0  0  0  0  0  0  0  0  0  0
    7.5320   -5.4610   25.5430 C   0  0  0  0  0  0  0  0  0  0  0  0
    4.7750   -6.3740   29.4770 C   0  0  0  0  0  0  0  0  0  0  0  0
    3.9860   -6.6050   28.4050 C   0  0  0  0  0  0  0  0  0  0  0  0
    4.6650   -6.6810   27.1950 O   0  0  0  0  0  0  0  0  0  0  0  0
    4.9860   -5.4900   26.4560 C   0  0  0  0  0  0  0  0  0  0  0  0
    6.0960   -4.6400   26.4620 C   0  0  0  0  0  0  0  0  0  0  0  0
    7.4550   -3.1080   23.6710 C   0  0  0  0  0  0  0  0  0  0  0  0
    7.7010   -3.1840   22.2090 C   0  0  0  0  0  0  0  0  0  0  0  0
  1  2  1  0
  2  3  2  0
  2  4  1  0
  4  5  1  0
  5  6  1  0
  6  7  1  0
  7  8  1  0
  8  9  2  0
  8 10  1  0
 10 11  1  0
 11 12  1  0
 12 13  1  0
 13 14  1  0
 14 15  1  0
 15 16  1  0
 16 17  2  0
 17 18  1  0
 18 19  2  0
 19 20  1  0
 16 21  1  0
 20 21  2  0
 14 22  1  0
 22 23  1  0
 23 24  1  0
 24 25  1  0
 10 26  1  0
 25 26  1  0
  7 27  1  0
  4 28  1  0
 27 28  1  0
M  END
