piperidine-amides-5371-covalent
     RDKit          3D

 21 22  0  0  0  0  0  0  0  0999 V2000
    7.1200   -3.2690   19.1890 C   0  0  0  0  0  0  0  0  0  0  0  0
    6.3740   -4.0130   20.2070 C   0  0  0  0  0  0  0  0  0  0  0  0
    5.3130   -4.5730   19.8930 O   0  0  0  0  0  0  0  0  0  0  0  0
    6.8710   -4.1410   21.5100 N   0  0  0  0  0  0  0  0  0  0  0  0
    7.7190   -3.1450   22.1160 C   0  0  0  0  0  0  0  0  0  0  0  0
    6.9590   -2.6510   23.3100 C   0  0  0  0  0  0  0  0  0  0  0  0
    6.5410   -3.7860   24.1950 C   0  0  0  0  0  0  0  0  0  0  0  0
    5.7750   -3.3280   25.3770 C   0  0  0  0  0  0  0  0  0  0  0  0
    4.5200   -3.1740   25.2920 O   0  0  0  0  0  0  0  0  0  0  0  0
    6.3730   -3.0460   26.6280 N   0  0  0  0  0  0  0  0  0  0  0  0
    6.3840   -1.6730   27.1820 C   0  0  0  0  0  0  0  0  0  0  0  0
    5.1020   -1.4640   27.9060 C   0  0  0  0  0  0  0  0  0  0  0  0
    5.0950   -0.3600   28.8990 C   0  0  0  0  0  0  0  0  0  0  0  0
    5.2310   -0.7960   30.3420 C   0  0  0  0  0  0  0  0  0  0  0  0
    3.6740   -1.6080   30.7230 S   0  0  0  0  0  0  0  0  0  0  0  0
    3.7070   -2.3250   32.0160 O   0  0  0  0  0  0  0  0  0  0  0  0
    2.5420   -0.6020   30.6970 O   0  0  0  0  0  0  0  0  0  0  0  0
    3.4520   -2.6840   29.3500 C   0  0  0  0  0  0  0  0  0  0  0  0
    4.6870   -2.7670   28.5290 C   0  0  0  0  0  0  0  0  0  0  0  0
    5.7430   -4.7930   23.3910 C   0  0  0  0  0  0  0  0  0  0  0  0
    6.4640   -5.2810   22.2950 C   0  0  0  0  0  0  0  0  0  0  0  0
  1  2  1  0
  2  3  2  0
  2  4  1  0
  4  5  1  0
  5  6  1  0
  6  7  1  0
  7  8  1  0
  8  9  2  0
  8 10  1  0
 10 11  1  0
 11 12  1  0
 12 13  1  0
 13 14  1  0
 15 14  1  0
 15 16  2  0
 15 17  2  0
 15 18  1  0
 12 19  1  0
 18 19  1  0
  7 20  1  0
  4 21  1  0
 20 21  1  0
M  END
