piperidine-amides-14714-covalent
     RDKit          3D

 22 24  0  0  0  0  0  0  0  0999 V2000
    7.1660   -3.3560   19.2870 C   0  0  0  0  0  0  0  0  0  0  0  0
    6.4120   -4.1420   20.2540 C   0  0  0  0  0  0  0  0  0  0  0  0
    5.3120   -4.6080   19.9110 O   0  0  0  0  0  0  0  0  0  0  0  0
    6.9800   -4.4140   21.5160 N   0  0  0  0  0  0  0  0  0  0  0  0
    7.6500   -3.3290   22.1750 C   0  0  0  0  0  0  0  0  0  0  0  0
    6.6930   -2.7100   23.1260 C   0  0  0  0  0  0  0  0  0  0  0  0
    6.3660   -3.7860   24.1290 C   0  0  0  0  0  0  0  0  0  0  0  0
    5.6110   -3.1580   25.2310 C   0  0  0  0  0  0  0  0  0  0  0  0
    4.3950   -3.0350   25.1160 O   0  0  0  0  0  0  0  0  0  0  0  0
    6.3840   -2.7790   26.2850 N   0  0  0  0  0  0  0  0  0  0  0  0
    6.3490   -1.5220   26.9220 C   0  0  0  0  0  0  0  0  0  0  0  0
    6.2130   -0.2210   26.3740 C   0  0  0  0  0  0  0  0  0  0  0  0
    6.2090    0.9370   27.1480 C   0  0  0  0  0  0  0  0  0  0  0  0
    6.3480    0.8540   28.5210 C   0  0  0  0  0  0  0  0  0  0  0  0
    6.3930    1.8360   29.5880 N   0  0  0  0  0  0  0  0  0  0  0  0
    6.5440    1.2330   30.7820 N   0  0  0  0  0  0  0  0  0  0  0  0
    6.6000   -0.1440   30.5150 C   0  0  0  0  0  0  0  0  0  0  0  0
    6.4720   -0.3860   29.0380 C   0  0  0  0  0  0  0  0  0  0  0  0
    6.4730   -1.6460   28.3000 C   0  0  0  0  0  0  0  0  0  0  0  0
    6.5960   -3.2380   28.9560 Cl  0  0  0  0  0  0  0  0  0  0  0  0
    5.6940   -4.9610   23.5220 C   0  0  0  0  0  0  0  0  0  0  0  0
    6.3940   -5.4910   22.2610 C   0  0  0  0  0  0  0  0  0  0  0  0
  1  2  1  0
  2  3  2  0
  2  4  1  0
  4  5  1  0
  5  6  1  0
  6  7  1  0
  7  8  1  0
  8  9  2  0
  8 10  1  0
 10 11  1  0
 11 12  2  0
 12 13  1  0
 13 14  2  0
 14 15  1  0
 15 16  1  0
 16 17  2  0
 14 18  1  0
 17 18  1  0
 11 19  1  0
 18 19  2  0
 19 20  1  0
  7 21  1  0
  4 22  1  0
 21 22  1  0
M  END
