piperidine-amides-19286-covalent
     RDKit          3D

 22 24  0  0  0  0  0  0  0  0999 V2000
    7.1520   -3.3350   19.3910 C   0  0  0  0  0  0  0  0  0  0  0  0
    6.4370   -4.1580   20.3370 C   0  0  0  0  0  0  0  0  0  0  0  0
    5.3810   -4.7600   19.9580 O   0  0  0  0  0  0  0  0  0  0  0  0
    6.9030   -4.3460   21.6490 N   0  0  0  0  0  0  0  0  0  0  0  0
    6.7850   -5.7280   22.1920 C   0  0  0  0  0  0  0  0  0  0  0  0
    6.2050   -5.4540   23.6290 C   0  0  0  0  0  0  0  0  0  0  0  0
    6.4000   -3.9870   23.8070 C   0  0  0  0  0  0  0  0  0  0  0  0
    5.5800   -3.3910   25.0020 C   0  0  0  0  0  0  0  0  0  0  0  0
    4.9080   -2.4450   24.6290 O   0  0  0  0  0  0  0  0  0  0  0  0
    5.7920   -4.0380   26.0590 N   0  0  0  0  0  0  0  0  0  0  0  0
    5.6260   -5.0320   26.9850 C   0  0  0  0  0  0  0  0  0  0  0  0
    5.8830   -5.3690   28.2870 C   0  0  0  0  0  0  0  0  0  0  0  0
    6.0230   -4.2650   29.1000 C   0  0  0  0  0  0  0  0  0  0  0  0
    6.3390   -3.0970   28.3310 C   0  0  0  0  0  0  0  0  0  0  0  0
    6.7430   -1.9900   29.3250 C   0  0  0  0  0  0  0  0  0  0  0  0
    6.8710   -0.7850   28.6100 C   0  0  0  0  0  0  0  0  0  0  0  0
    6.6620   -0.6650   27.2240 N   0  0  0  0  0  0  0  0  0  0  0  0
    6.6840   -1.7900   26.3130 C   0  0  0  0  0  0  0  0  0  0  0  0
    7.0540   -1.6200   25.0180 O   0  0  0  0  0  0  0  0  0  0  0  0
    6.2560   -3.0540   26.9560 C   0  0  0  0  0  0  0  0  0  0  0  0
    7.8050   -3.6030   23.5610 C   0  0  0  0  0  0  0  0  0  0  0  0
    7.8100   -3.3660   22.2200 C   0  0  0  0  0  0  0  0  0  0  0  0
  1  2  1  0
  2  3  2  0
  2  4  1  0
  4  5  1  0
  5  6  1  0
  6  7  1  0
  7  8  1  0
  8  9  2  0
  8 10  1  0
 10 11  1  0
 11 12  1  0
 12 13  1  0
 13 14  1  0
 14 15  1  0
 15 16  2  0
 16 17  1  0
 17 18  1  0
 18 19  2  0
 10 20  1  0
 14 20  2  0
 18 20  1  0
  7 21  1  0
  4 22  1  0
 21 22  1  0
M  END
