piperidine-amides-9263-covalent
     RDKit          3D

 20 21  0  0  0  0  0  0  0  0999 V2000
    7.0350   -3.3510   19.3800 C   0  0  0  0  0  0  0  0  0  0  0  0
    6.3830   -4.2070   20.3760 C   0  0  0  0  0  0  0  0  0  0  0  0
    5.4110   -4.8920   20.0010 O   0  0  0  0  0  0  0  0  0  0  0  0
    6.8420   -4.3170   21.7130 N   0  0  0  0  0  0  0  0  0  0  0  0
    6.6470   -5.5220   22.5000 C   0  0  0  0  0  0  0  0  0  0  0  0
    6.0290   -5.0830   23.8090 C   0  0  0  0  0  0  0  0  0  0  0  0
    5.8280   -3.6000   23.8180 C   0  0  0  0  0  0  0  0  0  0  0  0
    5.0660   -3.0240   24.9670 C   0  0  0  0  0  0  0  0  0  0  0  0
    3.9920   -2.4080   24.7410 O   0  0  0  0  0  0  0  0  0  0  0  0
    5.4130   -3.0980   26.3260 N   0  0  0  0  0  0  0  0  0  0  0  0
    5.9910   -4.3620   26.8650 C   0  0  0  0  0  0  0  0  0  0  0  0
    5.5680   -1.8430   27.1270 C   0  0  0  0  0  0  0  0  0  0  0  0
    5.8520   -0.5530   26.3670 C   0  0  0  0  0  0  0  0  0  0  0  0
    6.0870    0.7920   27.0800 C   0  0  0  0  0  0  0  0  0  0  0  0
    6.0340    0.8070   28.5800 C   0  0  0  0  0  0  0  0  0  0  0  0
    6.2380    1.9650   29.4470 N   0  0  0  0  0  0  0  0  0  0  0  0
    5.7420   -0.5400   28.9780 C   0  0  0  0  0  0  0  0  0  0  0  0
    5.5180   -1.7280   28.5110 N   0  0  0  0  0  0  0  0  0  0  0  0
    7.1670   -2.9550   23.5780 C   0  0  0  0  0  0  0  0  0  0  0  0
    7.6270   -3.2270   22.2830 C   0  0  0  0  0  0  0  0  0  0  0  0
  1  2  1  0
  2  3  2  0
  2  4  1  0
  4  5  1  0
  5  6  1  0
  6  7  1  0
  7  8  1  0
  8  9  2  0
  8 10  1  0
 10 11  1  0
 10 12  1  0
 12 13  2  0
 13 14  1  0
 14 15  2  0
 15 16  1  0
 15 17  1  0
 12 18  1  0
 17 18  2  0
  7 19  1  0
  4 20  1  0
 19 20  1  0
M  END
