piperidine-amides-28056-covalent
     RDKit          3D

 26 28  0  0  0  0  0  0  0  0999 V2000
    7.0730   -3.3610   19.2840 C   0  0  0  0  0  0  0  0  0  0  0  0
    6.4240   -4.1930   20.3180 C   0  0  0  0  0  0  0  0  0  0  0  0
    5.3840   -4.7960   19.9730 O   0  0  0  0  0  0  0  0  0  0  0  0
    6.9950   -4.3300   21.5920 N   0  0  0  0  0  0  0  0  0  0  0  0
    6.7120   -5.4880   22.3800 C   0  0  0  0  0  0  0  0  0  0  0  0
    6.1550   -5.1360   23.6790 C   0  0  0  0  0  0  0  0  0  0  0  0
    6.2280   -3.6840   23.8960 C   0  0  0  0  0  0  0  0  0  0  0  0
    5.7470   -3.2590   25.2230 C   0  0  0  0  0  0  0  0  0  0  0  0
    4.8350   -2.4150   25.2430 O   0  0  0  0  0  0  0  0  0  0  0  0
    6.2460   -3.7720   26.4270 N   0  0  0  0  0  0  0  0  0  0  0  0
    5.6820   -5.0790   26.9050 C   0  0  0  0  0  0  0  0  0  0  0  0
    5.5080   -5.2030   28.4190 C   0  0  0  0  0  0  0  0  0  0  0  0
    5.2230   -4.0390   29.2610 N   0  0  0  0  0  0  0  0  0  0  0  0
    3.8720   -3.9360   29.8460 C   0  0  0  0  0  0  0  0  0  0  0  0
    6.0230   -2.9580   28.8350 C   0  0  0  0  0  0  0  0  0  0  0  0
    6.5150   -1.8540   29.4170 C   0  0  0  0  0  0  0  0  0  0  0  0
    6.7380   -2.1610   28.1150 C   0  0  0  0  0  0  0  0  0  0  0  0
    5.9550   -3.1400   28.7630 C   0  0  0  0  0  0  0  0  0  0  0  0
    5.2100   -4.3080   28.9010 C   0  0  0  0  0  0  0  0  0  0  0  0
    5.6230   -5.3420   29.7200 O   0  0  0  0  0  0  0  0  0  0  0  0
    4.0000   -4.4300   28.1900 O   0  0  0  0  0  0  0  0  0  0  0  0
    3.5640   -3.3200   27.4700 C   0  0  0  0  0  0  0  0  0  0  0  0
    5.6450   -4.2090   27.7020 C   0  0  0  0  0  0  0  0  0  0  0  0
    6.4060   -2.9850   27.5350 C   0  0  0  0  0  0  0  0  0  0  0  0
    7.6240   -3.1860   23.5550 C   0  0  0  0  0  0  0  0  0  0  0  0
    7.8130   -3.2510   22.1610 C   0  0  0  0  0  0  0  0  0  0  0  0
  1  2  1  0
  2  3  2  0
  2  4  1  0
  4  5  1  0
  5  6  1  0
  6  7  1  0
  7  8  1  0
  8  9  2  0
  8 10  1  0
 10 11  1  0
 11 12  1  0
 12 13  1  0
 13 14  1  0
 13 15  1  0
 15 16  2  0
 16 17  1  0
 17 18  2  0
 18 19  1  0
 19 20  2  0
 19 21  1  0
 21 22  1  0
 18 23  1  0
 10 24  1  0
 15 24  1  0
 23 24  2  0
  7 25  1  0
  4 26  1  0
 25 26  1  0
M  END
