piperidine-amides-12637-covalent
     RDKit          3D

 23 24  0  0  0  0  0  0  0  0999 V2000
    7.0660   -3.3700   19.3170 C   0  0  0  0  0  0  0  0  0  0  0  0
    6.3760   -4.1730   20.3480 C   0  0  0  0  0  0  0  0  0  0  0  0
    5.3510   -4.7760   19.9690 O   0  0  0  0  0  0  0  0  0  0  0  0
    6.8820   -4.2950   21.6560 N   0  0  0  0  0  0  0  0  0  0  0  0
    7.6770   -3.2600   22.2410 C   0  0  0  0  0  0  0  0  0  0  0  0
    7.3070   -2.9710   23.6200 C   0  0  0  0  0  0  0  0  0  0  0  0
    6.0570   -3.6460   24.0140 C   0  0  0  0  0  0  0  0  0  0  0  0
    5.6410   -3.2840   25.3920 C   0  0  0  0  0  0  0  0  0  0  0  0
    4.4240   -3.3270   25.6490 O   0  0  0  0  0  0  0  0  0  0  0  0
    6.5550   -2.9000   26.3860 N   0  0  0  0  0  0  0  0  0  0  0  0
    6.4470   -1.6100   27.0990 C   0  0  0  0  0  0  0  0  0  0  0  0
    5.8550   -0.4240   26.4550 C   0  0  0  0  0  0  0  0  0  0  0  0
    5.7600    0.8240   27.1890 C   0  0  0  0  0  0  0  0  0  0  0  0
    6.2360    0.8530   28.4840 C   0  0  0  0  0  0  0  0  0  0  0  0
    6.8010   -0.2480   29.1190 C   0  0  0  0  0  0  0  0  0  0  0  0
    7.2440   -0.1330   30.3930 C   0  0  0  0  0  0  0  0  0  0  0  0
    8.5640    0.3140   30.4180 O   0  0  0  0  0  0  0  0  0  0  0  0
    6.5030   -0.3810   31.5610 N   0  0  0  0  0  0  0  0  0  0  0  0
    6.9720    0.2570   32.7480 C   0  0  0  0  0  0  0  0  0  0  0  0
    5.0500   -0.3230   31.2210 C   0  0  0  0  0  0  0  0  0  0  0  0
    6.9260   -1.4700   28.4810 C   0  0  0  0  0  0  0  0  0  0  0  0
    6.0190   -5.1150   23.7890 C   0  0  0  0  0  0  0  0  0  0  0  0
    6.6790   -5.4910   22.4750 C   0  0  0  0  0  0  0  0  0  0  0  0
  1  2  1  0
  2  3  2  0
  2  4  1  0
  4  5  1  0
  5  6  1  0
  6  7  1  0
  7  8  1  0
  8  9  2  0
  8 10  1  0
 10 11  1  0
 11 12  2  0
 12 13  1  0
 13 14  2  0
 14 15  1  0
 15 16  1  0
 16 17  2  0
 16 18  1  0
 18 19  1  0
 18 20  1  0
 11 21  1  0
 15 21  2  0
  7 22  1  0
  4 23  1  0
 22 23  1  0
M  END
