piperidine-amides-6826-covalent
     RDKit          3D

 23 24  0  0  0  0  0  0  0  0999 V2000
    7.0100   -3.3370   19.3780 C   0  0  0  0  0  0  0  0  0  0  0  0
    6.3230   -4.2170   20.3440 C   0  0  0  0  0  0  0  0  0  0  0  0
    5.3550   -4.9100   19.9820 O   0  0  0  0  0  0  0  0  0  0  0  0
    6.7590   -4.3220   21.6730 N   0  0  0  0  0  0  0  0  0  0  0  0
    7.6550   -3.3240   22.2150 C   0  0  0  0  0  0  0  0  0  0  0  0
    7.2350   -3.0140   23.6540 C   0  0  0  0  0  0  0  0  0  0  0  0
    5.9340   -3.7170   23.9380 C   0  0  0  0  0  0  0  0  0  0  0  0
    5.3460   -3.3590   25.2630 C   0  0  0  0  0  0  0  0  0  0  0  0
    4.1070   -3.4310   25.3630 O   0  0  0  0  0  0  0  0  0  0  0  0
    6.1300   -2.9450   26.3780 N   0  0  0  0  0  0  0  0  0  0  0  0
    6.3580   -1.5390   26.6470 C   0  0  0  0  0  0  0  0  0  0  0  0
    7.0880   -1.0590   25.4130 C   0  0  0  0  0  0  0  0  0  0  0  0
    6.5570    0.0510   24.6350 N   0  0  0  0  0  0  0  0  0  0  0  0
    8.2890   -1.6800   25.0020 O   0  0  0  0  0  0  0  0  0  0  0  0
    5.1020   -0.7460   26.7590 C   0  0  0  0  0  0  0  0  0  0  0  0
    5.2110    0.5910   27.0810 C   0  0  0  0  0  0  0  0  0  0  0  0
    5.8360    0.7680   28.7090 S   0  0  0  0  0  0  0  0  0  0  0  0
    4.7360    0.9630   29.7130 O   0  0  0  0  0  0  0  0  0  0  0  0
    6.7660    1.9400   28.7070 O   0  0  0  0  0  0  0  0  0  0  0  0
    6.6540   -0.7380   29.0350 C   0  0  0  0  0  0  0  0  0  0  0  0
    7.1420   -1.4570   27.9560 C   0  0  0  0  0  0  0  0  0  0  0  0
    6.1750   -5.2260   23.8450 C   0  0  0  0  0  0  0  0  0  0  0  0
    6.6140   -5.5430   22.4350 C   0  0  0  0  0  0  0  0  0  0  0  0
  1  2  1  0
  2  3  2  0
  2  4  1  0
  4  5  1  0
  5  6  1  0
  6  7  1  0
  7  8  1  0
  8  9  2  0
  8 10  1  0
 10 11  1  0
 11 12  1  0
 12 13  1  0
 12 14  2  0
 11 15  1  0
 15 16  1  0
 17 16  1  0
 17 18  2  0
 17 19  2  0
 17 20  1  0
 11 21  1  0
 20 21  1  0
  7 22  1  0
  4 23  1  0
 22 23  1  0
M  END
