piperidine-amides-32382-covalent
     RDKit          3D

 28 29  0  0  0  0  0  0  0  0999 V2000
    7.0880   -3.3420   19.3290 C   0  0  0  0  0  0  0  0  0  0  0  0
    6.3430   -4.1500   20.3290 C   0  0  0  0  0  0  0  0  0  0  0  0
    5.3420   -4.7900   19.9660 O   0  0  0  0  0  0  0  0  0  0  0  0
    6.8290   -4.2010   21.6510 N   0  0  0  0  0  0  0  0  0  0  0  0
    7.7000   -3.1630   22.1720 C   0  0  0  0  0  0  0  0  0  0  0  0
    7.6650   -3.2060   23.7050 C   0  0  0  0  0  0  0  0  0  0  0  0
    6.2970   -3.6430   24.0930 C   0  0  0  0  0  0  0  0  0  0  0  0
    5.9230   -3.3600   25.5010 C   0  0  0  0  0  0  0  0  0  0  0  0
    4.7140   -3.4480   25.7540 O   0  0  0  0  0  0  0  0  0  0  0  0
    6.8870   -2.9950   26.4660 N   0  0  0  0  0  0  0  0  0  0  0  0
    7.5740   -3.9460   27.2990 C   0  0  0  0  0  0  0  0  0  0  0  0
    8.3310   -5.0000   26.8300 C   0  0  0  0  0  0  0  0  0  0  0  0
    7.1550   -1.6540   26.9370 C   0  0  2  0  0  0  0  0  0  0  0  0
    7.3640   -1.6330   28.3030 C   0  0  0  0  0  0  0  0  0  0  0  0
    7.0730   -0.4580   29.1710 C   0  0  0  0  0  0  0  0  0  0  0  0
    7.2360    0.9590   28.6010 C   0  0  0  0  0  0  0  0  0  0  0  0
    6.2900    1.3250   27.5980 N   0  0  0  0  0  0  0  0  0  0  0  0
    5.8570    2.6650   27.4490 C   0  0  0  0  0  0  0  0  0  0  0  0
    5.5360    3.3980   28.5780 O   0  0  0  0  0  0  0  0  0  0  0  0
    5.7360    3.3010   26.2270 O   0  0  0  0  0  0  0  0  0  0  0  0
    6.8590    3.3770   25.3870 C   0  0  0  0  0  0  0  0  0  0  0  0
    7.2950    1.9980   25.0540 C   0  0  0  0  0  0  0  0  0  0  0  0
    7.8360    4.3480   25.6170 C   0  0  0  0  0  0  0  0  0  0  0  0
    6.3760    3.4820   23.9370 C   0  0  0  0  0  0  0  0  0  0  0  0
    5.4590    0.2080   27.3340 C   0  0  0  0  0  0  0  0  0  0  0  0
    6.2210   -0.7470   26.4400 C   0  0  0  0  0  0  0  0  0  0  0  0
    6.1130   -5.1160   23.8060 C   0  0  0  0  0  0  0  0  0  0  0  0
    6.5910   -5.4170   22.4300 C   0  0  0  0  0  0  0  0  0  0  0  0
  1  2  1  0
  2  3  2  0
  2  4  1  0
  4  5  1  0
  5  6  1  0
  6  7  1  0
  7  8  1  0
  8  9  2  0
  8 10  1  0
 10 11  1  0
 11 12  1  0
 13 10  1  1
 13 14  1  0
 14 15  1  0
 15 16  1  0
 16 17  1  0
 17 18  1  0
 18 19  2  0
 18 20  1  0
 21 20  1  0
 21 22  1  0
 21 23  1  0
 21 24  1  0
 17 25  1  0
 13 26  1  0
 25 26  1  0
  7 27  1  0
  4 28  1  0
 27 28  1  0
M  END
