piperidine-amides-33872-covalent
     RDKit          3D

 30 32  0  0  0  0  0  0  0  0999 V2000
    7.0650   -3.3340   19.2420 C   0  0  0  0  0  0  0  0  0  0  0  0
    6.3730   -4.1190   20.2760 C   0  0  0  0  0  0  0  0  0  0  0  0
    5.3180   -4.7010   19.9370 O   0  0  0  0  0  0  0  0  0  0  0  0
    6.9150   -4.2540   21.5770 N   0  0  0  0  0  0  0  0  0  0  0  0
    7.4900   -3.0910   22.1580 C   0  0  0  0  0  0  0  0  0  0  0  0
    6.8070   -2.6120   23.3480 C   0  0  0  0  0  0  0  0  0  0  0  0
    6.6150   -3.6420   24.3760 C   0  0  0  0  0  0  0  0  0  0  0  0
    5.7380   -3.1660   25.5030 C   0  0  0  0  0  0  0  0  0  0  0  0
    4.5420   -2.9290   25.2420 O   0  0  0  0  0  0  0  0  0  0  0  0
    6.1910   -2.9790   26.8410 N   0  0  0  0  0  0  0  0  0  0  0  0
    6.2290   -3.9940   27.8540 C   0  0  0  0  0  0  0  0  0  0  0  0
    6.0920   -5.4380   27.5890 C   0  0  1  0  0  0  0  0  0  0  0  0
    6.7880   -6.1910   28.3410 O   0  0  0  0  0  0  0  0  0  0  0  0
    4.6270   -5.8330   27.8520 C   0  0  0  0  0  0  0  0  0  0  0  0
    4.1110   -5.7890   28.9880 O   0  0  0  0  0  0  0  0  0  0  0  0
    6.0570   -1.6180   27.3570 C   0  0  2  0  0  0  0  0  0  0  0  0
    5.8530   -0.5780   26.2370 C   0  0  0  0  0  0  0  0  0  0  0  0
    5.3840    0.3440   27.3130 C   0  0  2  0  0  0  0  0  0  0  0  0
    6.2490    1.4800   26.7520 C   0  0  0  0  0  0  0  0  0  0  0  0
    6.0900    0.9090   28.3880 C   0  0  0  0  0  0  0  0  0  0  0  0
    6.6480   -0.2800   29.1410 C   0  0  1  0  0  0  0  0  0  0  0  0
    5.7720   -0.5960   30.3660 C   0  0  0  0  0  0  0  0  0  0  0  0
    4.7820   -1.7030   30.1880 C   0  0  0  0  0  0  0  0  0  0  0  0
    3.9160   -2.0900   31.2280 C   0  0  0  0  0  0  0  0  0  0  0  0
    3.9430   -1.4610   32.4630 C   0  0  0  0  0  0  0  0  0  0  0  0
    4.9470   -0.3520   32.6170 C   0  0  0  0  0  0  0  0  0  0  0  0
    5.7840    0.0100   31.5880 C   0  0  0  0  0  0  0  0  0  0  0  0
    7.0380   -1.3320   28.3010 C   0  0  0  0  0  0  0  0  0  0  0  0
    6.1160   -4.9250   23.8110 C   0  0  0  0  0  0  0  0  0  0  0  0
    6.6010   -5.3300   22.4710 C   0  0  0  0  0  0  0  0  0  0  0  0
  1  2  1  0
  2  3  2  0
  2  4  1  0
  4  5  1  0
  5  6  1  0
  6  7  1  0
  7  8  1  0
  8  9  2  0
  8 10  1  0
 10 11  1  0
 11 12  1  0
 12 13  1  1
 12 14  1  0
 14 15  1  0
 16 10  1  6
 16 17  1  0
 17 18  1  0
 18 19  1  6
 18 20  1  0
 20 21  1  0
 21 22  1  1
 22 23  2  0
 23 24  1  0
 24 25  2  0
 25 26  1  0
 22 27  1  0
 26 27  2  0
 16 28  1  0
 21 28  1  0
  7 29  1  0
  4 30  1  0
 29 30  1  0
M  END
