piperidine-amides-32745-covalent
     RDKit          3D

 29 31  0  0  0  0  0  0  0  0999 V2000
    7.1260   -3.2970   19.2710 C   0  0  0  0  0  0  0  0  0  0  0  0
    6.3420   -4.0780   20.2620 C   0  0  0  0  0  0  0  0  0  0  0  0
    5.2680   -4.5880   19.9000 O   0  0  0  0  0  0  0  0  0  0  0  0
    6.8570   -4.2730   21.5640 N   0  0  0  0  0  0  0  0  0  0  0  0
    6.5690   -5.4880   22.2910 C   0  0  0  0  0  0  0  0  0  0  0  0
    6.0290   -5.1010   23.6780 C   0  0  0  0  0  0  0  0  0  0  0  0
    5.8760   -3.6160   23.7210 C   0  0  0  0  0  0  0  0  0  0  0  0
    5.3980   -3.1040   25.0190 C   0  0  0  0  0  0  0  0  0  0  0  0
    5.0050   -3.9400   25.8340 O   0  0  0  0  0  0  0  0  0  0  0  0
    5.3900   -1.7300   25.2800 N   0  0  0  0  0  0  0  0  0  0  0  0
    4.2890   -0.9140   25.0730 C   0  0  0  0  0  0  0  0  0  0  0  0
    4.3380    0.2490   24.3490 C   0  0  0  0  0  0  0  0  0  0  0  0
    5.2050    0.3170   23.2280 C   0  0  0  0  0  0  0  0  0  0  0  0
    5.3480    1.4310   22.4190 C   0  0  0  0  0  0  0  0  0  0  0  0
    4.5670    2.6520   22.7030 C   0  0  0  0  0  0  0  0  0  0  0  0
    4.7070    3.7650   21.8970 F   0  0  0  0  0  0  0  0  0  0  0  0
    3.6190    2.6520   23.8840 C   0  0  0  0  0  0  0  0  0  0  0  0
    3.5900    1.3440   24.6610 C   0  0  0  0  0  0  0  0  0  0  0  0
    6.3390   -1.3560   26.2020 C   0  0  0  0  0  0  0  0  0  0  0  0
    6.2100   -0.0880   26.9740 C   0  0  0  0  0  0  0  0  0  0  0  0
    6.1580   -0.3920   28.3700 C   0  0  0  0  0  0  0  0  0  0  0  0
    6.0610    0.6460   29.1330 N   0  0  0  0  0  0  0  0  0  0  0  0
    5.9980    0.7630   30.4580 C   0  0  0  0  0  0  0  0  0  0  0  0
    7.1010    0.1610   31.3640 C   0  0  0  0  0  0  0  0  0  0  0  0
    6.0340    1.7310   28.2720 N   0  0  0  0  0  0  0  0  0  0  0  0
    6.1300    1.2720   26.9110 C   0  0  0  0  0  0  0  0  0  0  0  0
    6.1490    2.1540   25.6650 C   0  0  0  0  0  0  0  0  0  0  0  0
    7.1690   -2.8880   23.4480 C   0  0  0  0  0  0  0  0  0  0  0  0
    7.5720   -3.1910   22.1690 C   0  0  0  0  0  0  0  0  0  0  0  0
  1  2  1  0
  2  3  2  0
  2  4  1  0
  4  5  1  0
  5  6  1  0
  6  7  1  0
  7  8  1  0
  8  9  2  0
  8 10  1  0
 10 11  1  0
 11 12  1  0
 12 13  2  0
 13 14  1  0
 14 15  2  0
 15 16  1  0
 15 17  1  0
 12 18  1  0
 17 18  2  0
 10 19  1  0
 19 20  1  0
 20 21  2  0
 21 22  1  0
 22 23  1  0
 23 24  1  0
 22 25  1  0
 20 26  1  0
 25 26  2  0
 26 27  1  0
  7 28  1  0
  4 29  1  0
 28 29  1  0
M  END
