piperidine-amides-27844-covalent
     RDKit          3D

 26 29  0  0  0  0  0  0  0  0999 V2000
    7.0840   -3.2890   19.2750 C   0  0  0  0  0  0  0  0  0  0  0  0
    6.3910   -4.0900   20.3130 C   0  0  0  0  0  0  0  0  0  0  0  0
    5.3580   -4.6890   19.9420 O   0  0  0  0  0  0  0  0  0  0  0  0
    6.9000   -4.1970   21.6260 N   0  0  0  0  0  0  0  0  0  0  0  0
    6.6230   -5.3700   22.3950 C   0  0  0  0  0  0  0  0  0  0  0  0
    6.0620   -5.0670   23.7130 C   0  0  0  0  0  0  0  0  0  0  0  0
    6.0450   -3.6220   24.0030 C   0  0  0  0  0  0  0  0  0  0  0  0
    5.5200   -3.3440   25.3730 C   0  0  0  0  0  0  0  0  0  0  0  0
    4.2910   -3.4470   25.5180 O   0  0  0  0  0  0  0  0  0  0  0  0
    6.3100   -2.9650   26.4810 N   0  0  0  0  0  0  0  0  0  0  0  0
    6.7170   -1.5420   26.5820 C   0  0  0  0  0  0  0  0  0  0  0  0
    6.5630   -0.9310   27.9410 C   0  0  0  0  0  0  0  0  0  0  0  0
    7.3100   -1.3120   29.1400 C   0  0  0  0  0  0  0  0  0  0  0  0
    7.0570   -0.6500   30.3150 C   0  0  0  0  0  0  0  0  0  0  0  0
    6.1190    0.3520   30.3680 C   0  0  0  0  0  0  0  0  0  0  0  0
    5.4120    0.7230   29.2680 C   0  0  0  0  0  0  0  0  0  0  0  0
    5.5260    0.1840   28.0200 C   0  0  0  0  0  0  0  0  0  0  0  0
    4.5430    1.7640   29.6490 O   0  0  0  0  0  0  0  0  0  0  0  0
    4.7700    1.9740   30.9730 C   0  0  0  0  0  0  0  0  0  0  0  0
    5.7300    1.1290   31.4660 O   0  0  0  0  0  0  0  0  0  0  0  0
    6.2560   -3.7230   27.6940 C   0  0  0  0  0  0  0  0  0  0  0  0
    4.9080   -3.7740   28.2950 C   0  0  0  0  0  0  0  0  0  0  0  0
    4.1920   -4.7610   27.6450 C   0  0  0  0  0  0  0  0  0  0  0  0
    4.4030   -5.0140   29.1610 C   0  0  0  0  0  0  0  0  0  0  0  0
    7.2740   -2.9010   23.6500 C   0  0  0  0  0  0  0  0  0  0  0  0
    7.7340   -3.1530   22.2220 C   0  0  0  0  0  0  0  0  0  0  0  0
  1  2  1  0
  2  3  2  0
  2  4  1  0
  4  5  1  0
  5  6  1  0
  6  7  1  0
  7  8  1  0
  8  9  2  0
  8 10  1  0
 10 11  1  0
 11 12  1  0
 12 13  2  0
 13 14  1  0
 14 15  2  0
 15 16  1  0
 12 17  1  0
 16 17  2  0
 16 18  1  0
 18 19  1  0
 15 20  1  0
 19 20  1  0
 10 21  1  0
 21 22  1  0
 22 23  1  0
 22 24  1  0
 23 24  1  0
  7 25  1  0
  4 26  1  0
 25 26  1  0
M  END
