piperidine-amides-25636-covalent
     RDKit          3D

 25 27  0  0  0  0  0  0  0  0999 V2000
    7.0710   -3.3560   19.3560 C   0  0  0  0  0  0  0  0  0  0  0  0
    6.3760   -4.2020   20.3590 C   0  0  0  0  0  0  0  0  0  0  0  0
    5.3800   -4.8200   19.9760 O   0  0  0  0  0  0  0  0  0  0  0  0
    6.8840   -4.3010   21.6580 N   0  0  0  0  0  0  0  0  0  0  0  0
    6.6720   -5.4770   22.4720 C   0  0  0  0  0  0  0  0  0  0  0  0
    6.0670   -5.0780   23.7920 C   0  0  0  0  0  0  0  0  0  0  0  0
    6.0090   -3.5520   23.8930 C   0  0  0  0  0  0  0  0  0  0  0  0
    5.4240   -3.1220   25.1870 C   0  0  0  0  0  0  0  0  0  0  0  0
    4.9910   -1.9770   25.3120 O   0  0  0  0  0  0  0  0  0  0  0  0
    5.3320   -3.9990   26.2670 N   0  0  0  0  0  0  0  0  0  0  0  0
    6.1850   -3.8820   27.3200 C   0  0  0  0  0  0  0  0  0  0  0  0
    6.0860   -5.3080   27.8610 C   0  0  2  0  0  0  0  0  0  0  0  0
    5.0130   -6.1520   27.6560 C   0  0  0  0  0  0  0  0  0  0  0  0
    4.5070   -6.8370   28.5930 O   0  0  0  0  0  0  0  0  0  0  0  0
    4.4920   -6.2670   26.3930 O   0  0  0  0  0  0  0  0  0  0  0  0
    3.5870   -7.3020   26.0110 C   0  0  0  0  0  0  0  0  0  0  0  0
    6.0440   -5.1140   29.2950 C   0  0  0  0  0  0  0  0  0  0  0  0
    4.6860   -4.6570   28.6690 C   0  0  0  0  0  0  0  0  0  0  0  0
    3.6500   -4.8230   29.7580 C   0  0  0  0  0  0  0  0  0  0  0  0
    2.1920   -4.4560   29.4750 C   0  0  0  0  0  0  0  0  0  0  0  0
    1.8240   -3.9380   28.1140 C   0  0  0  0  0  0  0  0  0  0  0  0
    2.8730   -3.7950   27.0760 C   0  0  0  0  0  0  0  0  0  0  0  0
    4.3190   -4.1350   27.2810 C   0  0  0  0  0  0  0  0  0  0  0  0
    7.3990   -3.0050   23.6730 C   0  0  0  0  0  0  0  0  0  0  0  0
    7.7110   -3.2420   22.2240 C   0  0  0  0  0  0  0  0  0  0  0  0
  1  2  1  0
  2  3  2  0
  2  4  1  0
  4  5  1  0
  5  6  1  0
  6  7  1  0
  7  8  1  0
  8  9  2  0
  8 10  1  0
 10 11  1  0
 11 12  1  0
 12 13  1  6
 13 14  2  0
 13 15  1  0
 15 16  1  0
 12 17  1  0
 17 18  1  0
 18 19  2  0
 19 20  1  0
 20 21  2  0
 21 22  1  0
 10 23  1  0
 18 23  1  0
 22 23  2  0
  7 24  1  0
  4 25  1  0
 24 25  1  0
M  END
