piperidine-amides-29869-covalent
     RDKit          3D

 27 29  0  0  0  0  0  0  0  0999 V2000
    7.0860   -3.3240   19.3120 C   0  0  0  0  0  0  0  0  0  0  0  0
    6.3770   -4.1660   20.2630 C   0  0  0  0  0  0  0  0  0  0  0  0
    5.3280   -4.7190   19.9430 O   0  0  0  0  0  0  0  0  0  0  0  0
    6.9400   -4.4140   21.5560 N   0  0  0  0  0  0  0  0  0  0  0  0
    7.6930   -3.3810   22.2240 C   0  0  0  0  0  0  0  0  0  0  0  0
    6.9930   -2.9440   23.4750 C   0  0  0  0  0  0  0  0  0  0  0  0
    6.5200   -4.1790   24.2270 C   0  0  0  0  0  0  0  0  0  0  0  0
    5.6110   -3.7690   25.3310 C   0  0  0  0  0  0  0  0  0  0  0  0
    4.5890   -3.0940   25.0990 O   0  0  0  0  0  0  0  0  0  0  0  0
    5.8850   -4.1250   26.6700 N   0  0  0  0  0  0  0  0  0  0  0  0
    4.8730   -4.8530   27.3160 C   0  0  0  0  0  0  0  0  0  0  0  0
    4.8130   -4.0500   28.5220 C   0  0  2  0  0  0  0  0  0  0  0  0
    3.5860   -3.5900   28.9880 C   0  0  0  0  0  0  0  0  0  0  0  0
    2.5280   -3.6670   28.0730 C   0  0  0  0  0  0  0  0  0  0  0  0
    1.3580   -3.0280   28.4560 C   0  0  0  0  0  0  0  0  0  0  0  0
    0.8130   -3.3510   29.5240 O   0  0  0  0  0  0  0  0  0  0  0  0
    0.7420   -2.0330   27.7260 O   0  0  0  0  0  0  0  0  0  0  0  0
    0.6160   -2.1360   26.3840 C   0  0  0  0  0  0  0  0  0  0  0  0
    5.7950   -3.1020   28.5050 C   0  0  0  0  0  0  0  0  0  0  0  0
    5.9680   -2.1750   29.6700 C   0  0  0  0  0  0  0  0  0  0  0  0
    6.9020   -1.0890   29.9970 C   0  0  0  0  0  0  0  0  0  0  0  0
    7.2250   -0.1070   31.0330 C   0  0  0  0  0  0  0  0  0  0  0  0
    7.5510   -1.3020   28.7470 C   0  0  0  0  0  0  0  0  0  0  0  0
    6.8010   -2.2600   28.3330 C   0  0  0  0  0  0  0  0  0  0  0  0
    6.6360   -3.0730   27.2690 C   0  0  0  0  0  0  0  0  0  0  0  0
    5.7380   -5.1710   23.4330 C   0  0  0  0  0  0  0  0  0  0  0  0
    6.5830   -5.5950   22.2620 C   0  0  0  0  0  0  0  0  0  0  0  0
  1  2  1  0
  2  3  2  0
  2  4  1  0
  4  5  1  0
  5  6  1  0
  6  7  1  0
  7  8  1  0
  8  9  2  0
  8 10  1  0
 10 11  1  0
 11 12  1  0
 12 13  1  6
 13 14  1  0
 14 15  1  0
 15 16  2  0
 15 17  1  0
 17 18  1  0
 12 19  1  0
 19 20  1  0
 20 21  2  0
 21 22  1  0
 21 23  1  0
 23 24  2  0
 10 25  1  0
 19 25  2  0
 24 25  1  0
  7 26  1  0
  4 27  1  0
 26 27  1  0
M  END
