piperidine-amides-30673-covalent
     RDKit          3D

 27 29  0  0  0  0  0  0  0  0999 V2000
    7.0600   -3.3460   19.3380 C   0  0  0  0  0  0  0  0  0  0  0  0
    6.3800   -4.1860   20.3270 C   0  0  0  0  0  0  0  0  0  0  0  0
    5.3770   -4.8310   19.9760 O   0  0  0  0  0  0  0  0  0  0  0  0
    6.8720   -4.3100   21.6400 N   0  0  0  0  0  0  0  0  0  0  0  0
    7.6890   -3.2760   22.2420 C   0  0  0  0  0  0  0  0  0  0  0  0
    6.8810   -2.7310   23.3850 C   0  0  0  0  0  0  0  0  0  0  0  0
    6.4650   -3.8320   24.3070 C   0  0  0  0  0  0  0  0  0  0  0  0
    5.5130   -3.3680   25.3640 C   0  0  0  0  0  0  0  0  0  0  0  0
    4.6660   -2.4800   25.0800 O   0  0  0  0  0  0  0  0  0  0  0  0
    5.4530   -3.8580   26.7050 N   0  0  0  0  0  0  0  0  0  0  0  0
    6.4090   -3.5010   27.7010 C   0  0  1  0  0  0  0  0  0  0  0  0
    5.6370   -2.4760   28.4120 C   0  0  0  0  0  0  0  0  0  0  0  0
    4.2330   -2.7300   28.0800 C   0  0  0  0  0  0  0  0  0  0  0  0
    4.2370   -4.0720   27.3770 C   0  0  2  0  0  0  0  0  0  0  0  0
    4.3440   -5.1150   28.4940 C   0  0  0  0  0  0  0  0  0  0  0  0
    5.6340   -4.9130   29.2170 C   0  0  1  0  0  0  0  0  0  0  0  0
    5.9590   -6.1580   29.8560 N   0  0  0  0  0  0  0  0  0  0  0  0
    5.2090   -6.4980   30.9380 C   0  0  0  0  0  0  0  0  0  0  0  0
    3.9390   -6.3570   30.9610 O   0  0  0  0  0  0  0  0  0  0  0  0
    5.8720   -6.9530   31.9080 O   0  0  0  0  0  0  0  0  0  0  0  0
    5.1530   -7.5850   32.9230 C   0  0  0  0  0  0  0  0  0  0  0  0
    3.6730   -7.8610   32.7310 C   0  0  0  0  0  0  0  0  0  0  0  0
    5.2720   -6.6890   34.1110 C   0  0  0  0  0  0  0  0  0  0  0  0
    5.8430   -8.8300   33.4000 C   0  0  0  0  0  0  0  0  0  0  0  0
    6.7370   -4.6290   28.4810 C   0  0  0  0  0  0  0  0  0  0  0  0
    5.9170   -5.0440   23.6540 C   0  0  0  0  0  0  0  0  0  0  0  0
    6.5260   -5.4160   22.4710 C   0  0  0  0  0  0  0  0  0  0  0  0
  1  2  1  0
  2  3  2  0
  2  4  1  0
  4  5  1  0
  5  6  1  0
  6  7  1  0
  7  8  1  0
  8  9  2  0
  8 10  1  0
 10 11  1  0
 11 12  1  1
 12 13  1  0
 10 14  1  0
 14 13  1  1
 14 15  1  0
 15 16  1  0
 16 17  1  6
 17 18  1  0
 18 19  2  0
 18 20  1  0
 21 20  1  0
 21 22  1  0
 21 23  1  0
 21 24  1  0
 11 25  1  0
 16 25  1  0
  7 26  1  0
  4 27  1  0
 26 27  1  0
M  END
