piperidine-amides-1776-covalent
     RDKit          3D

 19 20  0  0  0  0  0  0  0  0999 V2000
    7.0860   -3.2590   19.2200 C   0  0  0  0  0  0  0  0  0  0  0  0
    6.3290   -4.0260   20.2530 C   0  0  0  0  0  0  0  0  0  0  0  0
    5.3100   -4.6480   19.9160 O   0  0  0  0  0  0  0  0  0  0  0  0
    6.8080   -4.0570   21.5810 N   0  0  0  0  0  0  0  0  0  0  0  0
    7.7160   -3.0600   22.1040 C   0  0  0  0  0  0  0  0  0  0  0  0
    7.4480   -2.9570   23.6030 C   0  0  0  0  0  0  0  0  0  0  0  0
    6.0230   -3.3530   23.7860 C   0  0  0  0  0  0  0  0  0  0  0  0
    5.4280   -2.9590   25.0950 C   0  0  0  0  0  0  0  0  0  0  0  0
    4.3280   -3.4550   25.3580 O   0  0  0  0  0  0  0  0  0  0  0  0
    6.0780   -2.0680   25.9660 N   0  0  0  0  0  0  0  0  0  0  0  0
    6.7860   -2.4490   27.1200 C   0  0  0  0  0  0  0  0  0  0  0  0
    7.5370   -3.5530   27.0650 C   0  0  0  0  0  0  0  0  0  0  0  0
    7.5380   -4.4290   28.1840 N   0  0  0  0  0  0  0  0  0  0  0  0
    8.3680   -5.4440   27.8380 C   0  0  0  0  0  0  0  0  0  0  0  0
    8.8230   -5.1880   26.6040 N   0  0  0  0  0  0  0  0  0  0  0  0
    9.6230   -6.0920   26.1690 C   0  0  0  0  0  0  0  0  0  0  0  0
    8.3400   -4.0680   26.1280 N   0  0  0  0  0  0  0  0  0  0  0  0
    5.7980   -4.8530   23.6260 C   0  0  0  0  0  0  0  0  0  0  0  0
    6.5990   -5.2550   22.3720 C   0  0  0  0  0  0  0  0  0  0  0  0
  1  2  1  0
  2  3  2  0
  2  4  1  0
  4  5  1  0
  5  6  1  0
  6  7  1  0
  7  8  1  0
  8  9  2  0
  8 10  1  0
 10 11  1  0
 11 12  1  0
 12 13  1  0
 13 14  2  0
 14 15  1  0
 15 16  1  0
 12 17  2  0
 15 17  1  0
  7 18  1  0
  4 19  1  0
 18 19  1  0
M  END
