piperidine-amides-5257-covalent
     RDKit          3D

 21 22  0  0  0  0  0  0  0  0999 V2000
    7.0820   -3.2960   19.2710 C   0  0  0  0  0  0  0  0  0  0  0  0
    6.3880   -4.1010   20.3020 C   0  0  0  0  0  0  0  0  0  0  0  0
    5.3460   -4.6860   19.9390 O   0  0  0  0  0  0  0  0  0  0  0  0
    6.9160   -4.2290   21.6020 N   0  0  0  0  0  0  0  0  0  0  0  0
    6.6010   -5.3590   22.4160 C   0  0  0  0  0  0  0  0  0  0  0  0
    6.0270   -5.0030   23.7210 C   0  0  0  0  0  0  0  0  0  0  0  0
    6.0330   -3.5470   23.9940 C   0  0  0  0  0  0  0  0  0  0  0  0
    5.5750   -3.2060   25.3720 C   0  0  0  0  0  0  0  0  0  0  0  0
    4.4800   -2.6290   25.4720 O   0  0  0  0  0  0  0  0  0  0  0  0
    6.3100   -3.4930   26.5400 N   0  0  0  0  0  0  0  0  0  0  0  0
    6.0560   -4.6790   27.4100 C   0  0  0  0  0  0  0  0  0  0  0  0
    4.6210   -4.9840   27.5630 C   0  0  0  0  0  0  0  0  0  0  0  0
    3.9340   -5.6150   26.4260 C   0  0  1  0  0  0  0  0  0  0  0  0
    3.9400   -6.9890   26.3340 C   0  0  0  0  0  0  0  0  0  0  0  0
    2.6960   -7.4490   26.0240 C   0  0  0  0  0  0  0  0  0  0  0  0
    1.9160   -6.3550   25.9060 C   0  0  0  0  0  0  0  0  0  0  0  0
    2.6310   -5.2060   26.1510 C   0  0  0  0  0  0  0  0  0  0  0  0
    2.3760   -4.2330   25.2140 C   0  0  0  0  0  0  0  0  0  0  0  0
    2.1940   -4.5520   27.2980 C   0  0  0  0  0  0  0  0  0  0  0  0
    7.2900   -2.8610   23.6230 C   0  0  0  0  0  0  0  0  0  0  0  0
    7.7450   -3.1860   22.2220 C   0  0  0  0  0  0  0  0  0  0  0  0
  1  2  1  0
  2  3  2  0
  2  4  1  0
  4  5  1  0
  5  6  1  0
  6  7  1  0
  7  8  1  0
  8  9  2  0
  8 10  1  0
 10 11  1  0
 11 12  1  0
 13 12  1  1
 13 14  1  0
 14 15  1  0
 15 16  1  0
 13 17  1  0
 16 17  1  0
 17 18  1  0
 17 19  1  0
  7 20  1  0
  4 21  1  0
 20 21  1  0
M  END
