piperidine-amides-27666-covalent
     RDKit          3D

 21 22  0  0  0  0  0  0  0  0999 V2000
    7.0640   -3.3310   19.3370 C   0  0  0  0  0  0  0  0  0  0  0  0
    6.3970   -4.1730   20.3350 C   0  0  0  0  0  0  0  0  0  0  0  0
    5.3440   -4.7500   19.9560 O   0  0  0  0  0  0  0  0  0  0  0  0
    6.9480   -4.3510   21.6130 N   0  0  0  0  0  0  0  0  0  0  0  0
    6.6240   -5.5130   22.4040 C   0  0  0  0  0  0  0  0  0  0  0  0
    5.9500   -5.0360   23.6610 C   0  0  0  0  0  0  0  0  0  0  0  0
    6.6790   -3.8830   24.3030 C   0  0  0  0  0  0  0  0  0  0  0  0
    5.8820   -3.3810   25.4380 C   0  0  0  0  0  0  0  0  0  0  0  0
    4.6710   -3.1250   25.2440 O   0  0  0  0  0  0  0  0  0  0  0  0
    6.4170   -3.1770   26.7230 N   0  0  0  0  0  0  0  0  0  0  0  0
    6.6330   -4.3240   27.5750 C   0  0  0  0  0  0  0  0  0  0  0  0
    6.2850   -1.8450   27.2900 C   0  0  0  0  0  0  0  0  0  0  0  0
    6.7740   -1.4100   28.6170 N   0  0  0  0  0  0  0  0  0  0  0  0
    6.6110   -0.1880   29.0910 C   0  0  0  0  0  0  0  0  0  0  0  0
    6.1020    0.8390   28.3330 C   0  0  0  0  0  0  0  0  0  0  0  0
    5.8990    2.5760   29.0940 Br  0  0  0  0  0  0  0  0  0  0  0  0
    5.7350    0.6190   27.0180 C   0  0  0  0  0  0  0  0  0  0  0  0
    5.4830    1.6380   26.1260 O   0  0  0  0  0  0  0  0  0  0  0  0
    5.6250   -0.7520   26.6340 N   0  0  0  0  0  0  0  0  0  0  0  0
    6.9020   -2.8090   23.2830 C   0  0  0  0  0  0  0  0  0  0  0  0
    7.6710   -3.3010   22.2640 C   0  0  0  0  0  0  0  0  0  0  0  0
  1  2  1  0
  2  3  2  0
  2  4  1  0
  4  5  1  0
  5  6  1  0
  6  7  1  0
  7  8  1  0
  8  9  2  0
  8 10  1  0
 10 11  1  0
 10 12  1  0
 12 13  2  0
 13 14  1  0
 14 15  2  0
 15 16  1  0
 15 17  1  0
 17 18  2  0
 12 19  1  0
 17 19  1  0
  7 20  1  0
  4 21  1  0
 20 21  1  0
M  END
