piperidine-amides-10615-covalent
     RDKit          3D

 23 25  0  0  0  0  0  0  0  0999 V2000
    7.0610   -3.2780   19.2610 C   0  0  0  0  0  0  0  0  0  0  0  0
    6.3230   -4.0340   20.2830 C   0  0  0  0  0  0  0  0  0  0  0  0
    5.2780   -4.6140   19.9000 O   0  0  0  0  0  0  0  0  0  0  0  0
    6.7930   -4.1260   21.6010 N   0  0  0  0  0  0  0  0  0  0  0  0
    7.7220   -3.1650   22.1410 C   0  0  0  0  0  0  0  0  0  0  0  0
    7.4490   -3.0600   23.6070 C   0  0  0  0  0  0  0  0  0  0  0  0
    6.0970   -3.6340   23.9210 C   0  0  0  0  0  0  0  0  0  0  0  0
    5.7090   -3.2970   25.3020 C   0  0  0  0  0  0  0  0  0  0  0  0
    4.4980   -3.3490   25.6010 O   0  0  0  0  0  0  0  0  0  0  0  0
    6.6440   -2.9240   26.2800 N   0  0  0  0  0  0  0  0  0  0  0  0
    6.2600   -2.6240   27.6310 C   0  0  0  0  0  0  0  0  0  0  0  0
    5.9500   -1.1330   27.7730 C   0  0  0  0  0  0  0  0  0  0  0  0
    5.1080   -0.4790   26.8970 C   0  0  0  0  0  0  0  0  0  0  0  0
    4.8030    0.8650   26.9890 C   0  0  0  0  0  0  0  0  0  0  0  0
    5.3630    1.6080   28.0050 C   0  0  0  0  0  0  0  0  0  0  0  0
    6.2090    1.0090   28.9040 C   0  0  0  0  0  0  0  0  0  0  0  0
    6.5000   -0.3600   28.7860 C   0  0  0  0  0  0  0  0  0  0  0  0
    7.3530   -0.8690   29.7290 O   0  0  0  0  0  0  0  0  0  0  0  0
    7.8820   -0.3130   30.7600 C   0  0  0  0  0  0  0  0  0  0  0  0
    7.3660    1.1010   30.6950 C   0  0  0  0  0  0  0  0  0  0  0  0
    6.7780    1.6600   29.8900 O   0  0  0  0  0  0  0  0  0  0  0  0
    6.0510   -5.1510   23.6730 C   0  0  0  0  0  0  0  0  0  0  0  0
    6.6700   -5.4030   22.3000 C   0  0  0  0  0  0  0  0  0  0  0  0
  1  2  1  0
  2  3  2  0
  2  4  1  0
  4  5  1  0
  5  6  1  0
  6  7  1  0
  7  8  1  0
  8  9  2  0
  8 10  1  0
 10 11  1  0
 11 12  1  0
 12 13  2  0
 13 14  1  0
 14 15  2  0
 15 16  1  0
 12 17  1  0
 16 17  2  0
 17 18  1  0
 18 19  1  0
 19 20  1  0
 16 21  1  0
 20 21  1  0
  7 22  1  0
  4 23  1  0
 22 23  1  0
M  END
