piperidine-amides-2543-covalent
     RDKit          3D

 26 27  0  0  0  0  0  0  0  0999 V2000
    6.9350   -3.3060   19.3430 C   0  0  0  0  0  0  0  0  0  0  0  0
    6.2390   -4.2140   20.2950 C   0  0  0  0  0  0  0  0  0  0  0  0
    5.2130   -4.7450   19.9110 O   0  0  0  0  0  0  0  0  0  0  0  0
    6.7620   -4.4720   21.5510 N   0  0  0  0  0  0  0  0  0  0  0  0
    7.2710   -3.4200   22.3600 C   0  0  0  0  0  0  0  0  0  0  0  0
    6.1470   -2.8620   23.1870 C   0  0  0  0  0  0  0  0  0  0  0  0
    5.4640   -4.0100   23.9160 C   0  0  0  0  0  0  0  0  0  0  0  0
    5.2990   -3.6270   25.3440 C   0  0  0  0  0  0  0  0  0  0  0  0
    4.2280   -3.8960   25.8970 O   0  0  0  0  0  0  0  0  0  0  0  0
    6.2810   -2.9470   26.1010 N   0  0  0  0  0  0  0  0  0  0  0  0
    7.5650   -3.5480   26.3260 C   0  0  0  0  0  0  0  0  0  0  0  0
    8.5400   -2.5250   25.7840 C   0  0  0  0  0  0  0  0  0  0  0  0
    8.6180   -2.0420   24.1620 S   0  0  0  0  0  0  0  0  0  0  0  0
    7.3080   -1.5340   23.6780 O   0  0  0  0  0  0  0  0  0  0  0  0
    9.0820   -3.2830   23.4580 O   0  0  0  0  0  0  0  0  0  0  0  0
    9.8170   -0.8810   23.7760 N   0  0  0  0  0  0  0  0  0  0  0  0
    9.2340   -0.1150   22.6720 C   0  0  0  0  0  0  0  0  0  0  0  0
    9.3230   -0.8980   21.5670 C   0  0  0  0  0  0  0  0  0  0  0  0
   11.1830   -1.2700   23.7030 C   0  0  0  0  0  0  0  0  0  0  0  0
   11.3950   -2.7390   23.4350 C   0  0  0  0  0  0  0  0  0  0  0  0
   12.8490   -2.5060   23.1900 C   0  0  0  0  0  0  0  0  0  0  0  0
   13.1830   -1.5650   24.2800 C   0  0  0  0  0  0  0  0  0  0  0  0
   13.0640   -0.3200   23.4780 C   0  0  0  0  0  0  0  0  0  0  0  0
   11.8140   -0.3570   22.7050 C   0  0  0  0  0  0  0  0  0  0  0  0
    6.0370   -5.3560   23.6650 C   0  0  0  0  0  0  0  0  0  0  0  0
    6.4290   -5.6880   22.2610 C   0  0  0  0  0  0  0  0  0  0  0  0
  1  2  1  0
  2  3  2  0
  2  4  1  0
  4  5  1  0
  5  6  1  0
  6  7  1  0
  7  8  1  0
  8  9  2  0
  8 10  1  0
 10 11  1  0
 11 12  1  0
 12 13  1  0
 13 14  2  0
 13 15  2  0
 13 16  1  0
 16 17  1  0
 17 18  1  0
 16 19  1  0
 19 20  1  0
 20 21  1  0
 21 22  1  0
 22 23  1  0
 19 24  1  0
 23 24  1  0
  7 25  1  0
  4 26  1  0
 25 26  1  0
M  END
