piperidine-amides-8679-covalent
     RDKit          3D

 23 23  0  0  0  0  0  0  0  0999 V2000
    7.1260   -3.2630   19.2100 C   0  0  0  0  0  0  0  0  0  0  0  0
    6.3860   -4.0410   20.2030 C   0  0  0  0  0  0  0  0  0  0  0  0
    5.2910   -4.5230   19.8730 O   0  0  0  0  0  0  0  0  0  0  0  0
    6.9390   -4.2860   21.4790 N   0  0  0  0  0  0  0  0  0  0  0  0
    7.5920   -3.1940   22.1460 C   0  0  0  0  0  0  0  0  0  0  0  0
    6.6800   -2.6490   23.2050 C   0  0  0  0  0  0  0  0  0  0  0  0
    6.4810   -3.7800   24.1800 C   0  0  0  0  0  0  0  0  0  0  0  0
    5.8400   -3.2910   25.4400 C   0  0  0  0  0  0  0  0  0  0  0  0
    4.6230   -3.1220   25.4070 O   0  0  0  0  0  0  0  0  0  0  0  0
    6.6700   -3.0570   26.5360 N   0  0  0  0  0  0  0  0  0  0  0  0
    6.3920   -3.5020   27.8610 C   0  0  0  0  0  0  0  0  0  0  0  0
    6.5990   -4.8660   28.1370 C   0  0  0  0  0  0  0  0  0  0  0  0
    5.6980   -5.5340   28.9230 C   0  0  0  0  0  0  0  0  0  0  0  0
    5.0710   -4.7200   29.8310 O   0  0  0  0  0  0  0  0  0  0  0  0
    5.4900   -6.9410   28.7570 N   0  0  0  0  0  0  0  0  0  0  0  0
    4.1310   -7.3230   28.7100 C   0  0  0  0  0  0  0  0  0  0  0  0
    3.1180   -6.3020   29.1380 C   0  0  0  0  0  0  0  0  0  0  0  0
    1.6660   -6.5840   28.6800 C   0  0  0  0  0  0  0  0  0  0  0  0
    1.1290   -5.9130   27.6890 O   0  0  0  0  0  0  0  0  0  0  0  0
    0.9240   -7.5690   29.3440 O   0  0  0  0  0  0  0  0  0  0  0  0
    1.4650   -8.8640   29.5340 C   0  0  0  0  0  0  0  0  0  0  0  0
    5.7860   -4.9230   23.5400 C   0  0  0  0  0  0  0  0  0  0  0  0
    6.3900   -5.3980   22.2090 C   0  0  0  0  0  0  0  0  0  0  0  0
  1  2  1  0
  2  3  2  0
  2  4  1  0
  4  5  1  0
  5  6  1  0
  6  7  1  0
  7  8  1  0
  8  9  2  0
  8 10  1  0
 10 11  1  0
 11 12  1  0
 12 13  1  0
 13 14  2  0
 13 15  1  0
 15 16  1  0
 16 17  1  0
 17 18  1  0
 18 19  2  0
 18 20  1  0
 20 21  1  0
  7 22  1  0
  4 23  1  0
 22 23  1  0
M  END
