piperidine-amides-8171-covalent
     RDKit          3D

 25 26  0  0  0  0  0  0  0  0999 V2000
    7.1550   -3.3200   19.2850 C   0  0  0  0  0  0  0  0  0  0  0  0
    6.4070   -4.0950   20.2670 C   0  0  0  0  0  0  0  0  0  0  0  0
    5.3230   -4.5970   19.9140 O   0  0  0  0  0  0  0  0  0  0  0  0
    6.9620   -4.3040   21.5540 N   0  0  0  0  0  0  0  0  0  0  0  0
    6.4900   -5.4080   22.3300 C   0  0  0  0  0  0  0  0  0  0  0  0
    5.7150   -4.8700   23.5000 C   0  0  0  0  0  0  0  0  0  0  0  0
    6.5970   -3.8940   24.2670 C   0  0  0  0  0  0  0  0  0  0  0  0
    5.8450   -3.3920   25.4570 C   0  0  0  0  0  0  0  0  0  0  0  0
    4.6850   -3.0340   25.2510 O   0  0  0  0  0  0  0  0  0  0  0  0
    6.4900   -3.3620   26.6870 N   0  0  0  0  0  0  0  0  0  0  0  0
    6.7130   -4.5440   27.4600 C   0  0  0  0  0  0  0  0  0  0  0  0
    5.5780   -5.3090   27.7010 C   0  0  0  0  0  0  0  0  0  0  0  0
    5.4490   -5.9440   28.9190 C   0  0  0  0  0  0  0  0  0  0  0  0
    6.2520   -6.8900   29.5170 C   0  0  0  0  0  0  0  0  0  0  0  0
    5.7990   -7.3690   30.8550 C   0  0  0  0  0  0  0  0  0  0  0  0
    4.5190   -6.8090   31.4830 C   0  0  0  0  0  0  0  0  0  0  0  0
    4.1580   -7.2250   32.6110 O   0  0  0  0  0  0  0  0  0  0  0  0
    5.1830   -7.7260   33.3680 C   0  0  0  0  0  0  0  0  0  0  0  0
    3.7300   -5.7770   30.7370 C   0  0  0  0  0  0  0  0  0  0  0  0
    2.6850   -5.2920   31.2170 O   0  0  0  0  0  0  0  0  0  0  0  0
    2.6580   -4.5940   32.4480 C   0  0  0  0  0  0  0  0  0  0  0  0
    4.1640   -5.3500   29.4980 C   0  0  0  0  0  0  0  0  0  0  0  0
    3.1670   -4.1430   28.7100 Cl  0  0  0  0  0  0  0  0  0  0  0  0
    6.8720   -2.7180   23.3720 C   0  0  0  0  0  0  0  0  0  0  0  0
    7.6230   -3.1820   22.1640 C   0  0  0  0  0  0  0  0  0  0  0  0
  1  2  1  0
  2  3  2  0
  2  4  1  0
  4  5  1  0
  5  6  1  0
  6  7  1  0
  7  8  1  0
  8  9  2  0
  8 10  1  0
 10 11  1  0
 11 12  1  0
 12 13  1  0
 13 14  2  0
 14 15  1  0
 15 16  2  0
 16 17  1  0
 17 18  1  0
 16 19  1  0
 19 20  1  0
 20 21  1  0
 13 22  1  0
 19 22  2  0
 22 23  1  0
  7 24  1  0
  4 25  1  0
 24 25  1  0
M  END
