piperidine-amides-2374-covalent
     RDKit          3D

 27 28  0  0  0  0  0  0  0  0999 V2000
    6.9990   -3.2650   19.2410 C   0  0  0  0  0  0  0  0  0  0  0  0
    6.2570   -4.0770   20.2440 C   0  0  0  0  0  0  0  0  0  0  0  0
    5.2160   -4.5960   19.8700 O   0  0  0  0  0  0  0  0  0  0  0  0
    6.7390   -4.2740   21.5350 N   0  0  0  0  0  0  0  0  0  0  0  0
    7.4070   -3.2270   22.2570 C   0  0  0  0  0  0  0  0  0  0  0  0
    6.4210   -2.6090   23.2070 C   0  0  0  0  0  0  0  0  0  0  0  0
    5.6660   -3.7340   23.9190 C   0  0  0  0  0  0  0  0  0  0  0  0
    5.5570   -3.4540   25.3870 C   0  0  0  0  0  0  0  0  0  0  0  0
    4.4460   -3.1530   25.8410 O   0  0  0  0  0  0  0  0  0  0  0  0
    6.6720   -3.5060   26.2690 N   0  0  0  0  0  0  0  0  0  0  0  0
    6.4980   -3.9250   27.6460 C   0  0  0  0  0  0  0  0  0  0  0  0
    7.3690   -5.1440   27.8370 C   0  0  1  0  0  0  0  0  0  0  0  0
    6.4990   -6.1970   28.0510 O   0  0  0  0  0  0  0  0  0  0  0  0
    8.2250   -5.5170   26.8670 C   0  0  0  0  0  0  0  0  0  0  0  0
    7.9440   -4.9540   25.6530 O   0  0  0  0  0  0  0  0  0  0  0  0
    8.8440   -4.0430   25.0580 C   0  0  0  0  0  0  0  0  0  0  0  0
    8.3510   -2.7900   24.8850 C   0  0  0  0  0  0  0  0  0  0  0  0
    8.9830   -1.5380   24.3070 C   0  0  0  0  0  0  0  0  0  0  0  0
   10.3880   -1.8460   23.9020 C   0  0  0  0  0  0  0  0  0  0  0  0
   11.1020   -0.6480   23.3380 C   0  0  0  0  0  0  0  0  0  0  0  0
   11.5750   -1.2610   22.0940 C   0  0  0  0  0  0  0  0  0  0  0  0
   11.4260   -2.6050   22.1930 O   0  0  0  0  0  0  0  0  0  0  0  0
   10.0290   -2.7210   21.9700 C   0  0  0  0  0  0  0  0  0  0  0  0
   10.9960   -3.1880   24.0420 C   0  0  0  0  0  0  0  0  0  0  0  0
   10.1980   -4.2730   24.6260 C   0  0  0  0  0  0  0  0  0  0  0  0
    6.3390   -5.0840   23.6620 C   0  0  0  0  0  0  0  0  0  0  0  0
    6.2480   -5.3960   22.3150 C   0  0  0  0  0  0  0  0  0  0  0  0
  1  2  1  0
  2  3  2  0
  2  4  1  0
  4  5  1  0
  5  6  1  0
  6  7  1  0
  7  8  1  0
  8  9  2  0
  8 10  1  0
 10 11  1  0
 11 12  1  0
 12 13  1  6
 12 14  1  0
 14 15  1  0
 15 16  1  0
 16 17  2  0
 17 18  1  0
 18 19  2  0
 19 20  1  0
 20 21  1  0
 21 22  1  0
 22 23  1  0
 19 24  1  0
 16 25  1  0
 24 25  2  0
  7 26  1  0
  4 27  1  0
 26 27  1  0
M  END
