piperidine-amides-30226-covalent
     RDKit          3D

 27 29  0  0  0  0  0  0  0  0999 V2000
    7.0580   -3.3660   19.3020 C   0  0  0  0  0  0  0  0  0  0  0  0
    6.3930   -4.2080   20.2870 C   0  0  0  0  0  0  0  0  0  0  0  0
    5.3640   -4.8070   19.9760 O   0  0  0  0  0  0  0  0  0  0  0  0
    6.9670   -4.3970   21.5930 N   0  0  0  0  0  0  0  0  0  0  0  0
    7.7080   -3.3420   22.2280 C   0  0  0  0  0  0  0  0  0  0  0  0
    6.9880   -2.8550   23.4530 C   0  0  0  0  0  0  0  0  0  0  0  0
    6.5260   -4.0270   24.3240 C   0  0  0  0  0  0  0  0  0  0  0  0
    5.5640   -3.5060   25.3370 C   0  0  0  0  0  0  0  0  0  0  0  0
    4.7170   -2.6370   25.0430 O   0  0  0  0  0  0  0  0  0  0  0  0
    5.5630   -3.9980   26.6700 N   0  0  0  0  0  0  0  0  0  0  0  0
    4.5440   -3.4080   27.5350 C   0  0  0  0  0  0  0  0  0  0  0  0
    4.2330   -4.3430   28.7030 C   0  0  0  0  0  0  0  0  0  0  0  0
    5.1160   -5.3450   28.9540 C   0  0  0  0  0  0  0  0  0  0  0  0
    6.2790   -5.1560   28.3240 C   0  0  2  0  0  0  0  0  0  0  0  0
    6.7960   -3.9650   28.5760 C   0  0  0  0  0  0  0  0  0  0  0  0
    6.1710   -2.7800   29.1080 N   0  0  0  0  0  0  0  0  0  0  0  0
    7.1740   -1.9630   29.0790 N   0  0  0  0  0  0  0  0  0  0  0  0
    7.1060   -0.6270   29.5030 C   0  0  0  0  0  0  0  0  0  0  0  0
    8.2100   -2.6260   28.5940 C   0  0  0  0  0  0  0  0  0  0  0  0
    8.0630   -3.9730   28.2400 C   0  0  0  0  0  0  0  0  0  0  0  0
    8.7130   -5.1080   27.7370 C   0  0  0  0  0  0  0  0  0  0  0  0
    9.6750   -5.5970   28.4930 O   0  0  0  0  0  0  0  0  0  0  0  0
    8.3530   -5.7400   26.6250 N   0  0  0  0  0  0  0  0  0  0  0  0
    8.9520   -5.4660   25.4910 C   0  0  0  0  0  0  0  0  0  0  0  0
    6.1500   -5.2600   26.9510 C   0  0  0  0  0  0  0  0  0  0  0  0
    5.8050   -5.1010   23.5390 C   0  0  0  0  0  0  0  0  0  0  0  0
    6.5680   -5.5290   22.3330 C   0  0  0  0  0  0  0  0  0  0  0  0
  1  2  1  0
  2  3  2  0
  2  4  1  0
  4  5  1  0
  5  6  1  0
  6  7  1  0
  7  8  1  0
  8  9  2  0
  8 10  1  0
 10 11  1  0
 11 12  1  0
 12 13  1  0
 13 14  1  0
 14 15  1  6
 15 16  2  0
 16 17  1  0
 17 18  1  0
 17 19  1  0
 15 20  1  0
 19 20  2  0
 20 21  1  0
 21 22  2  0
 21 23  1  0
 23 24  1  0
 10 25  1  0
 14 25  1  0
  7 26  1  0
  4 27  1  0
 26 27  1  0
M  END
