piperidine-amides-2466-covalent
     RDKit          3D

 26 29  0  0  0  0  0  0  0  0999 V2000
    7.0260   -3.3330   19.3550 C   0  0  0  0  0  0  0  0  0  0  0  0
    6.3650   -4.1880   20.3780 C   0  0  0  0  0  0  0  0  0  0  0  0
    5.4230   -4.8830   19.9910 O   0  0  0  0  0  0  0  0  0  0  0  0
    6.8320   -4.2060   21.6980 N   0  0  0  0  0  0  0  0  0  0  0  0
    7.7350   -3.1960   22.1980 C   0  0  0  0  0  0  0  0  0  0  0  0
    7.3550   -2.8420   23.5940 C   0  0  0  0  0  0  0  0  0  0  0  0
    5.9820   -3.4390   23.8850 C   0  0  0  0  0  0  0  0  0  0  0  0
    5.6200   -3.0870   25.2750 C   0  0  0  0  0  0  0  0  0  0  0  0
    4.4360   -3.0930   25.6350 O   0  0  0  0  0  0  0  0  0  0  0  0
    6.6430   -2.7550   26.1730 N   0  0  0  0  0  0  0  0  0  0  0  0
    6.5310   -1.6760   27.1370 C   0  0  0  0  0  0  0  0  0  0  0  0
    5.8970   -0.4180   26.6330 C   0  0  0  0  0  0  0  0  0  0  0  0
    5.6960    0.7070   27.3250 C   0  0  0  0  0  0  0  0  0  0  0  0
    6.1380    0.6120   28.5870 C   0  0  0  0  0  0  0  0  0  0  0  0
    6.0030    1.6830   29.4260 C   0  0  0  0  0  0  0  0  0  0  0  0
    5.7170    2.8450   28.8190 N   0  0  0  0  0  0  0  0  0  0  0  0
    5.6210    3.7630   29.7630 N   0  0  0  0  0  0  0  0  0  0  0  0
    5.8790    3.0290   30.9850 C   0  0  0  0  0  0  0  0  0  0  0  0
    6.1420    1.6510   30.8800 C   0  0  0  0  0  0  0  0  0  0  0  0
    6.4080    0.8800   32.1130 C   0  0  0  0  0  0  0  0  0  0  0  0
    6.2520    2.0830   33.0760 C   0  0  0  0  0  0  0  0  0  0  0  0
    5.9250    3.4260   32.3800 C   0  0  0  0  0  0  0  0  0  0  0  0
    6.7250   -0.5290   29.0870 C   0  0  0  0  0  0  0  0  0  0  0  0
    7.0530   -1.8990   28.5230 C   0  0  0  0  0  0  0  0  0  0  0  0
    6.0010   -4.9600   23.7250 C   0  0  0  0  0  0  0  0  0  0  0  0
    6.6140   -5.3700   22.5500 C   0  0  0  0  0  0  0  0  0  0  0  0
  1  2  1  0
  2  3  2  0
  2  4  1  0
  4  5  1  0
  5  6  1  0
  6  7  1  0
  7  8  1  0
  8  9  2  0
  8 10  1  0
 10 11  1  0
 11 12  2  0
 12 13  1  0
 13 14  2  0
 14 15  1  0
 15 16  1  0
 16 17  1  0
 17 18  2  0
 15 19  2  0
 18 19  1  0
 19 20  1  0
 20 21  1  0
 18 22  1  0
 21 22  1  0
 14 23  1  0
 11 24  1  0
 23 24  2  0
  7 25  1  0
  4 26  1  0
 25 26  1  0
M  END
