piperidine-amides-6703-covalent
     RDKit          3D

 24 26  0  0  0  0  0  0  0  0999 V2000
    7.0790   -3.3290   19.3460 C   0  0  0  0  0  0  0  0  0  0  0  0
    6.4060   -4.1850   20.3340 C   0  0  0  0  0  0  0  0  0  0  0  0
    5.4120   -4.8680   19.9940 O   0  0  0  0  0  0  0  0  0  0  0  0
    6.9060   -4.2730   21.6440 N   0  0  0  0  0  0  0  0  0  0  0  0
    7.6840   -3.1800   22.1730 C   0  0  0  0  0  0  0  0  0  0  0  0
    6.8360   -2.5870   23.2920 C   0  0  0  0  0  0  0  0  0  0  0  0
    6.6150   -3.7040   24.2810 C   0  0  0  0  0  0  0  0  0  0  0  0
    5.8490   -3.1760   25.4400 C   0  0  0  0  0  0  0  0  0  0  0  0
    4.6000   -3.1680   25.3520 O   0  0  0  0  0  0  0  0  0  0  0  0
    6.5110   -2.6880   26.6110 N   0  0  0  0  0  0  0  0  0  0  0  0
    6.3560   -1.3110   27.0520 C   0  0  0  0  0  0  0  0  0  0  0  0
    5.6980   -0.4200   26.0270 C   0  0  0  0  0  0  0  0  0  0  0  0
    5.2860   -0.9190   24.7740 O   0  0  0  0  0  0  0  0  0  0  0  0
    4.7130   -0.1630   23.7860 C   0  0  0  0  0  0  0  0  0  0  0  0
    5.5200    0.9960   26.4360 C   0  0  0  0  0  0  0  0  0  0  0  0
    5.9540    1.3630   27.6670 C   0  0  0  0  0  0  0  0  0  0  0  0
    6.5430    0.6060   28.6120 C   0  0  0  0  0  0  0  0  0  0  0  0
    6.8570    1.2630   29.7370 N   0  0  0  0  0  0  0  0  0  0  0  0
    7.4170    0.5020   30.6140 C   0  0  0  0  0  0  0  0  0  0  0  0
    7.6540   -0.9290   30.3440 C   0  0  0  0  0  0  0  0  0  0  0  0
    7.3630   -1.8030   29.1520 C   0  0  0  0  0  0  0  0  0  0  0  0
    6.7560   -0.7820   28.3050 C   0  0  0  0  0  0  0  0  0  0  0  0
    5.8240   -4.8190   23.6270 C   0  0  0  0  0  0  0  0  0  0  0  0
    6.4450   -5.3090   22.5050 C   0  0  0  0  0  0  0  0  0  0  0  0
  1  2  1  0
  2  3  2  0
  2  4  1  0
  4  5  1  0
  5  6  1  0
  6  7  1  0
  7  8  1  0
  8  9  2  0
  8 10  1  0
 10 11  1  0
 11 12  2  0
 12 13  1  0
 13 14  1  0
 12 15  1  0
 15 16  2  0
 16 17  1  0
 17 18  1  0
 18 19  2  0
 19 20  1  0
 20 21  2  0
 11 22  1  0
 17 22  2  0
 21 22  1  0
  7 23  1  0
  4 24  1  0
 23 24  1  0
M  END
