piperidine-amides-11147-covalent
     RDKit          3D

 20 22  0  0  0  0  0  0  0  0999 V2000
    7.1050   -3.3500   19.2780 C   0  0  0  0  0  0  0  0  0  0  0  0
    6.3720   -4.1320   20.2700 C   0  0  0  0  0  0  0  0  0  0  0  0
    5.3280   -4.7180   19.9420 O   0  0  0  0  0  0  0  0  0  0  0  0
    6.8720   -4.2750   21.5650 N   0  0  0  0  0  0  0  0  0  0  0  0
    7.7580   -3.2960   22.1570 C   0  0  0  0  0  0  0  0  0  0  0  0
    6.9790   -2.7270   23.2890 C   0  0  0  0  0  0  0  0  0  0  0  0
    6.5090   -3.8150   24.1920 C   0  0  0  0  0  0  0  0  0  0  0  0
    5.8310   -3.2680   25.3860 C   0  0  0  0  0  0  0  0  0  0  0  0
    4.5780   -3.4180   25.5830 O   0  0  0  0  0  0  0  0  0  0  0  0
    6.5810   -2.5230   26.3260 N   0  0  0  0  0  0  0  0  0  0  0  0
    5.9520   -1.7900   27.4410 C   0  0  1  0  0  0  0  0  0  0  0  0
    7.0060   -1.4270   28.4120 C   0  0  0  0  0  0  0  0  0  0  0  0
    6.6400   -0.4040   29.4130 C   0  0  0  0  0  0  0  0  0  0  0  0
    5.6370    0.6120   28.9070 C   0  0  2  0  0  0  0  0  0  0  0  0
    4.2130    0.0980   28.9610 C   0  0  0  0  0  0  0  0  0  0  0  0
    4.0740   -0.5130   27.6190 C   0  0  0  0  0  0  0  0  0  0  0  0
    5.3030   -0.4540   27.0140 C   0  0  1  0  0  0  0  0  0  0  0  0
    6.0150    0.6690   27.4500 C   0  0  0  0  0  0  0  0  0  0  0  0
    5.6180   -4.8580   23.4910 C   0  0  0  0  0  0  0  0  0  0  0  0
    6.4600   -5.4180   22.3400 C   0  0  0  0  0  0  0  0  0  0  0  0
  1  2  1  0
  2  3  2  0
  2  4  1  0
  4  5  1  0
  5  6  1  0
  6  7  1  0
  7  8  1  0
  8  9  2  0
  8 10  1  0
 11 10  1  6
 11 12  1  0
 12 13  1  0
 14 13  1  1
 14 15  1  0
 15 16  1  0
 11 17  1  0
 17 16  1  1
 14 18  1  0
 17 18  1  0
  7 19  1  0
  4 20  1  0
 19 20  1  0
M  END
