piperidine-amides-4925-covalent
     RDKit          3D

 20 21  0  0  0  0  0  0  0  0999 V2000
    7.1340   -3.2750   19.2180 C   0  0  0  0  0  0  0  0  0  0  0  0
    6.3220   -4.0040   20.2140 C   0  0  0  0  0  0  0  0  0  0  0  0
    5.2260   -4.4530   19.8350 O   0  0  0  0  0  0  0  0  0  0  0  0
    6.8080   -4.2240   21.5020 N   0  0  0  0  0  0  0  0  0  0  0  0
    6.3410   -5.3490   22.2380 C   0  0  0  0  0  0  0  0  0  0  0  0
    5.7880   -4.9880   23.5450 C   0  0  0  0  0  0  0  0  0  0  0  0
    6.4460   -3.8260   24.1850 C   0  0  0  0  0  0  0  0  0  0  0  0
    5.5930   -3.2530   25.2530 C   0  0  0  0  0  0  0  0  0  0  0  0
    4.4310   -2.9020   24.9790 O   0  0  0  0  0  0  0  0  0  0  0  0
    6.0940   -3.1290   26.5520 N   0  0  0  0  0  0  0  0  0  0  0  0
    7.0560   -4.1200   27.0350 C   0  0  0  0  0  0  0  0  0  0  0  0
    8.3800   -3.9540   26.3770 C   0  0  0  0  0  0  0  0  0  0  0  0
    8.7110   -3.0300   25.5250 O   0  0  0  0  0  0  0  0  0  0  0  0
    9.9560   -3.1670   25.1550 C   0  0  0  0  0  0  0  0  0  0  0  0
   10.7920   -2.4860   24.3040 C   0  0  0  0  0  0  0  0  0  0  0  0
   10.5760   -4.2650   25.7760 N   0  0  0  0  0  0  0  0  0  0  0  0
    9.4830   -4.7480   26.5680 C   0  0  0  0  0  0  0  0  0  0  0  0
    9.4660   -5.7960   27.3900 C   0  0  0  0  0  0  0  0  0  0  0  0
    6.9470   -2.7460   23.2720 C   0  0  0  0  0  0  0  0  0  0  0  0
    7.6260   -3.2840   22.2200 C   0  0  0  0  0  0  0  0  0  0  0  0
  1  2  1  0
  2  3  2  0
  2  4  1  0
  4  5  1  0
  5  6  1  0
  6  7  1  0
  7  8  1  0
  8  9  2  0
  8 10  1  0
 10 11  1  0
 11 12  1  0
 12 13  1  0
 13 14  1  0
 14 15  1  0
 14 16  2  0
 12 17  2  0
 16 17  1  0
 17 18  1  0
  7 19  1  0
  4 20  1  0
 19 20  1  0
M  END
