piperidine-amides-28119-covalent
     RDKit          3D

 24 25  0  0  0  0  0  0  0  0999 V2000
    7.0550   -3.3320   19.3420 C   0  0  0  0  0  0  0  0  0  0  0  0
    6.3790   -4.1870   20.3430 C   0  0  0  0  0  0  0  0  0  0  0  0
    5.3540   -4.7870   19.9620 O   0  0  0  0  0  0  0  0  0  0  0  0
    6.8990   -4.3460   21.6380 N   0  0  0  0  0  0  0  0  0  0  0  0
    7.6410   -3.2930   22.2370 C   0  0  0  0  0  0  0  0  0  0  0  0
    7.2840   -3.1250   23.6330 C   0  0  0  0  0  0  0  0  0  0  0  0
    5.9060   -3.5020   23.9230 C   0  0  0  0  0  0  0  0  0  0  0  0
    5.4490   -3.0650   25.2790 C   0  0  0  0  0  0  0  0  0  0  0  0
    4.2200   -2.9290   25.4250 O   0  0  0  0  0  0  0  0  0  0  0  0
    6.3000   -2.8060   26.3860 N   0  0  0  0  0  0  0  0  0  0  0  0
    6.2390   -3.7310   27.5180 C   0  0  0  0  0  0  0  0  0  0  0  0
    6.1650   -5.1120   27.0310 C   0  0  0  0  0  0  0  0  0  0  0  0
    6.6600   -6.1300   27.8300 N   0  0  0  0  0  0  0  0  0  0  0  0
    5.7040   -6.9230   28.5590 C   0  0  0  0  0  0  0  0  0  0  0  0
    8.0160   -6.0190   28.1030 C   0  0  0  0  0  0  0  0  0  0  0  0
    6.6700   -1.4260   26.7400 C   0  0  2  0  0  0  0  0  0  0  0  0
    7.0230   -1.3180   28.1010 C   0  0  0  0  0  0  0  0  0  0  0  0
    6.5160   -0.3210   28.8570 C   0  0  0  0  0  0  0  0  0  0  0  0
    5.5930    0.6910   27.8400 S   0  0  0  0  0  0  0  0  0  0  0  0
    4.1880    0.7450   28.3010 O   0  0  0  0  0  0  0  0  0  0  0  0
    6.2600    2.0020   27.6550 O   0  0  0  0  0  0  0  0  0  0  0  0
    5.8000   -0.3810   26.3740 C   0  0  0  0  0  0  0  0  0  0  0  0
    5.7090   -4.9780   23.6470 C   0  0  0  0  0  0  0  0  0  0  0  0
    6.5430   -5.4570   22.5000 C   0  0  0  0  0  0  0  0  0  0  0  0
  1  2  1  0
  2  3  2  0
  2  4  1  0
  4  5  1  0
  5  6  1  0
  6  7  1  0
  7  8  1  0
  8  9  2  0
  8 10  1  0
 10 11  1  0
 11 12  1  0
 12 13  1  0
 13 14  1  0
 13 15  1  0
 16 10  1  1
 16 17  1  0
 17 18  1  0
 19 18  1  0
 19 20  2  0
 19 21  2  0
 16 22  1  0
 19 22  1  0
  7 23  1  0
  4 24  1  0
 23 24  1  0
M  END
