piperidine-amides-14126-covalent
     RDKit          3D

 25 26  0  0  0  0  0  0  0  0999 V2000
    7.0970   -3.2620   19.2410 C   0  0  0  0  0  0  0  0  0  0  0  0
    6.3280   -4.0460   20.2480 C   0  0  0  0  0  0  0  0  0  0  0  0
    5.2690   -4.5870   19.8940 O   0  0  0  0  0  0  0  0  0  0  0  0
    6.8280   -4.2140   21.5590 N   0  0  0  0  0  0  0  0  0  0  0  0
    6.5860   -5.4340   22.2840 C   0  0  0  0  0  0  0  0  0  0  0  0
    5.7860   -5.0420   23.5280 C   0  0  0  0  0  0  0  0  0  0  0  0
    6.4990   -3.8870   24.1540 C   0  0  0  0  0  0  0  0  0  0  0  0
    5.7930   -3.3600   25.3520 C   0  0  0  0  0  0  0  0  0  0  0  0
    4.6190   -3.0060   25.1840 O   0  0  0  0  0  0  0  0  0  0  0  0
    6.4490   -3.2710   26.5890 N   0  0  0  0  0  0  0  0  0  0  0  0
    6.1700   -3.9510   27.8180 C   0  0  0  0  0  0  0  0  0  0  0  0
    5.7320   -5.2590   27.9830 C   0  0  2  0  0  0  0  0  0  0  0  0
    6.8800   -6.0500   28.3900 O   0  0  0  0  0  0  0  0  0  0  0  0
    5.0480   -5.9790   27.0090 C   0  0  0  0  0  0  0  0  0  0  0  0
    3.6940   -6.1730   27.1740 O   0  0  0  0  0  0  0  0  0  0  0  0
    2.9410   -7.1750   26.5040 C   0  0  0  0  0  0  0  0  0  0  0  0
    3.1730   -7.3550   25.0470 C   0  0  0  0  0  0  0  0  0  0  0  0
    2.4100   -8.3970   24.2410 C   0  0  0  0  0  0  0  0  0  0  0  0
    1.4270   -9.2010   25.0830 C   0  0  0  0  0  0  0  0  0  0  0  0
    1.2380   -9.0080   26.4360 C   0  0  0  0  0  0  0  0  0  0  0  0
    0.0700  -10.0080   27.2740 Cl  0  0  0  0  0  0  0  0  0  0  0  0
    2.0150   -7.9680   27.1620 C   0  0  0  0  0  0  0  0  0  0  0  0
    1.6210   -7.8800   28.8790 Cl  0  0  0  0  0  0  0  0  0  0  0  0
    6.7830   -2.7490   23.2220 C   0  0  0  0  0  0  0  0  0  0  0  0
    7.6090   -3.2040   22.2290 C   0  0  0  0  0  0  0  0  0  0  0  0
  1  2  1  0
  2  3  2  0
  2  4  1  0
  4  5  1  0
  5  6  1  0
  6  7  1  0
  7  8  1  0
  8  9  2  0
  8 10  1  0
 10 11  1  0
 11 12  1  0
 12 13  1  6
 12 14  1  0
 14 15  1  0
 15 16  1  0
 16 17  2  0
 17 18  1  0
 18 19  2  0
 19 20  1  0
 20 21  1  0
 16 22  1  0
 20 22  2  0
 22 23  1  0
  7 24  1  0
  4 25  1  0
 24 25  1  0
M  END
