piperidine-amides-4104-covalent
     RDKit          3D

 27 29  0  0  0  0  0  0  0  0999 V2000
    7.0790   -3.3110   19.2370 C   0  0  0  0  0  0  0  0  0  0  0  0
    6.3590   -4.0910   20.2580 C   0  0  0  0  0  0  0  0  0  0  0  0
    5.2820   -4.6230   19.9040 O   0  0  0  0  0  0  0  0  0  0  0  0
    6.8800   -4.2930   21.5580 N   0  0  0  0  0  0  0  0  0  0  0  0
    7.6190   -3.2220   22.1530 C   0  0  0  0  0  0  0  0  0  0  0  0
    7.3540   -2.9810   23.5680 C   0  0  0  0  0  0  0  0  0  0  0  0
    6.4860   -3.9650   24.2350 C   0  0  0  0  0  0  0  0  0  0  0  0
    5.6870   -3.2870   25.3070 C   0  0  0  0  0  0  0  0  0  0  0  0
    4.4510   -3.1860   25.1880 O   0  0  0  0  0  0  0  0  0  0  0  0
    6.3100   -2.7530   26.4570 N   0  0  0  0  0  0  0  0  0  0  0  0
    6.2570   -1.4230   26.9580 C   0  0  0  0  0  0  0  0  0  0  0  0
    5.8140   -0.2150   26.2820 C   0  0  0  0  0  0  0  0  0  0  0  0
    5.7460    1.2610   26.8360 C   0  0  0  0  0  0  0  0  0  0  0  0
    5.3290    2.4270   26.2240 C   0  0  2  0  0  0  0  0  0  0  0  0
    6.3240    3.3010   25.8420 O   0  0  0  0  0  0  0  0  0  0  0  0
    4.8320    2.8730   27.6020 C   0  0  0  0  0  0  0  0  0  0  0  0
    3.7830    1.8430   27.9110 C   0  0  0  0  0  0  0  0  0  0  0  0
    3.2080    2.1910   29.3020 C   0  0  0  0  0  0  0  0  0  0  0  0
    3.6840    3.3750   30.1150 C   0  0  0  0  0  0  0  0  0  0  0  0
    4.7710    4.2660   29.5550 C   0  0  0  0  0  0  0  0  0  0  0  0
    5.2900    3.9930   28.3580 N   0  0  0  0  0  0  0  0  0  0  0  0
    6.2740    1.1130   28.2780 C   0  0  0  0  0  0  0  0  0  0  0  0
    6.7120   -0.1340   28.9190 C   0  0  0  0  0  0  0  0  0  0  0  0
    6.7030   -1.3240   28.3050 C   0  0  0  0  0  0  0  0  0  0  0  0
    7.1190   -2.3830   28.9990 C   0  0  0  0  0  0  0  0  0  0  0  0
    5.5900   -4.6930   23.2910 C   0  0  0  0  0  0  0  0  0  0  0  0
    6.4000   -5.3620   22.3850 C   0  0  0  0  0  0  0  0  0  0  0  0
  1  2  1  0
  2  3  2  0
  2  4  1  0
  4  5  1  0
  5  6  1  0
  6  7  1  0
  7  8  1  0
  8  9  2  0
  8 10  1  0
 10 11  1  0
 11 12  2  0
 12 13  1  0
 13 14  1  0
 14 15  1  1
 14 16  1  0
 16 17  2  0
 17 18  1  0
 18 19  2  0
 19 20  1  0
 16 21  1  0
 20 21  2  0
 13 22  2  0
 22 23  1  0
 11 24  1  0
 23 24  2  0
 24 25  1  0
  7 26  1  0
  4 27  1  0
 26 27  1  0
M  END
