piperidine-amides-8659-covalent
     RDKit          3D

 23 25  0  0  0  0  0  0  0  0999 V2000
    7.0630   -3.3340   19.2920 C   0  0  0  0  0  0  0  0  0  0  0  0
    6.3890   -4.1600   20.2920 C   0  0  0  0  0  0  0  0  0  0  0  0
    5.3540   -4.7600   19.9570 O   0  0  0  0  0  0  0  0  0  0  0  0
    6.9440   -4.3030   21.5870 N   0  0  0  0  0  0  0  0  0  0  0  0
    7.7390   -3.2350   22.1300 C   0  0  0  0  0  0  0  0  0  0  0  0
    7.0420   -2.6760   23.3170 C   0  0  0  0  0  0  0  0  0  0  0  0
    6.7390   -3.8630   24.1860 C   0  0  0  0  0  0  0  0  0  0  0  0
    5.9850   -3.3910   25.3820 C   0  0  0  0  0  0  0  0  0  0  0  0
    4.8240   -3.7840   25.4990 O   0  0  0  0  0  0  0  0  0  0  0  0
    6.6340   -2.5280   26.2570 N   0  0  0  0  0  0  0  0  0  0  0  0
    5.8850   -1.4980   26.8720 C   0  0  2  0  0  0  0  0  0  0  0  0
    5.7210   -0.3230   26.1690 C   0  0  0  0  0  0  0  0  0  0  0  0
    5.7240    0.7150   27.0320 C   0  0  0  0  0  0  0  0  0  0  0  0
    6.3340    0.4460   28.2420 C   0  0  0  0  0  0  0  0  0  0  0  0
    6.4850   -1.0430   28.1690 C   0  0  0  0  0  0  0  0  0  0  0  0
    7.1140   -1.8050   29.2500 C   0  0  0  0  0  0  0  0  0  0  0  0
    7.5130   -0.8980   30.3130 C   0  0  0  0  0  0  0  0  0  0  0  0
    7.3050    0.5940   30.2890 C   0  0  0  0  0  0  0  0  0  0  0  0
    7.8670    1.4860   31.6940 Cl  0  0  0  0  0  0  0  0  0  0  0  0
    6.6420    1.4980   29.1590 C   0  0  0  0  0  0  0  0  0  0  0  0
    5.8820    2.3210   27.8070 Cl  0  0  0  0  0  0  0  0  0  0  0  0
    5.8510   -4.8400   23.4480 C   0  0  0  0  0  0  0  0  0  0  0  0
    6.5810   -5.4160   22.4300 C   0  0  0  0  0  0  0  0  0  0  0  0
  1  2  1  0
  2  3  2  0
  2  4  1  0
  4  5  1  0
  5  6  1  0
  6  7  1  0
  7  8  1  0
  8  9  2  0
  8 10  1  0
 11 10  1  6
 11 12  1  0
 12 13  1  0
 13 14  1  0
 11 15  1  0
 14 15  2  0
 15 16  1  0
 16 17  2  0
 17 18  1  0
 18 19  1  0
 14 20  1  0
 18 20  2  0
 20 21  1  0
  7 22  1  0
  4 23  1  0
 22 23  1  0
M  END
