piperidine-amides-10698-covalent
     RDKit          3D

 22 24  0  0  0  0  0  0  0  0999 V2000
    7.0630   -3.3390   19.3040 C   0  0  0  0  0  0  0  0  0  0  0  0
    6.3970   -4.1610   20.3180 C   0  0  0  0  0  0  0  0  0  0  0  0
    5.3540   -4.7680   19.9600 O   0  0  0  0  0  0  0  0  0  0  0  0
    6.9430   -4.2870   21.5980 N   0  0  0  0  0  0  0  0  0  0  0  0
    7.7630   -3.2440   22.1780 C   0  0  0  0  0  0  0  0  0  0  0  0
    7.0650   -2.7340   23.3980 C   0  0  0  0  0  0  0  0  0  0  0  0
    6.6120   -3.8520   24.2910 C   0  0  0  0  0  0  0  0  0  0  0  0
    5.8020   -3.3180   25.4080 C   0  0  0  0  0  0  0  0  0  0  0  0
    4.5790   -3.1420   25.2100 O   0  0  0  0  0  0  0  0  0  0  0  0
    6.3260   -3.0090   26.6780 N   0  0  0  0  0  0  0  0  0  0  0  0
    6.3070   -1.6520   27.1820 C   0  0  0  0  0  0  0  0  0  0  0  0
    6.9500   -1.5640   28.5500 C   0  0  0  0  0  0  0  0  0  0  0  0
    7.0380   -0.3890   29.2320 C   0  0  0  0  0  0  0  0  0  0  0  0
    6.5260    0.7560   28.6620 C   0  0  0  0  0  0  0  0  0  0  0  0
    6.5730    2.3210   29.4360 Cl  0  0  0  0  0  0  0  0  0  0  0  0
    5.9470    0.6420   27.4040 C   0  0  0  0  0  0  0  0  0  0  0  0
    5.3900    1.6100   26.6530 C   0  0  0  0  0  0  0  0  0  0  0  0
    4.9050    1.2090   25.4740 N   0  0  0  0  0  0  0  0  0  0  0  0
    5.1380   -0.1340   25.3910 N   0  0  0  0  0  0  0  0  0  0  0  0
    5.8120   -0.4850   26.6430 C   0  0  0  0  0  0  0  0  0  0  0  0
    5.7500   -4.8770   23.5360 C   0  0  0  0  0  0  0  0  0  0  0  0
    6.6090   -5.4280   22.4010 C   0  0  0  0  0  0  0  0  0  0  0  0
  1  2  1  0
  2  3  2  0
  2  4  1  0
  4  5  1  0
  5  6  1  0
  6  7  1  0
  7  8  1  0
  8  9  2  0
  8 10  1  0
 10 11  1  0
 11 12  2  0
 12 13  1  0
 13 14  2  0
 14 15  1  0
 14 16  1  0
 16 17  2  0
 17 18  1  0
 18 19  1  0
 11 20  1  0
 16 20  1  0
 19 20  2  0
  7 21  1  0
  4 22  1  0
 21 22  1  0
M  END
