piperidine-amides-30519-covalent
     RDKit          3D

 27 29  0  0  0  0  0  0  0  0999 V2000
    7.0340   -3.3640   19.3890 C   0  0  0  0  0  0  0  0  0  0  0  0
    6.3890   -4.2370   20.3710 C   0  0  0  0  0  0  0  0  0  0  0  0
    5.4060   -4.9060   20.0010 O   0  0  0  0  0  0  0  0  0  0  0  0
    6.8710   -4.3740   21.6930 N   0  0  0  0  0  0  0  0  0  0  0  0
    7.6670   -3.3770   22.3630 C   0  0  0  0  0  0  0  0  0  0  0  0
    6.8650   -2.8900   23.5550 C   0  0  0  0  0  0  0  0  0  0  0  0
    6.1250   -3.9680   24.3310 C   0  0  0  0  0  0  0  0  0  0  0  0
    5.1000   -3.3720   25.2650 C   0  0  0  0  0  0  0  0  0  0  0  0
    4.1510   -2.7110   24.7760 O   0  0  0  0  0  0  0  0  0  0  0  0
    5.1380   -3.4900   26.6890 N   0  0  0  0  0  0  0  0  0  0  0  0
    6.4700   -3.6870   27.1110 C   0  0  0  0  0  0  0  0  0  0  0  0
    6.7320   -3.1990   28.4390 C   0  0  0  0  0  0  0  0  0  0  0  0
    5.4950   -3.1620   29.1320 C   0  0  1  0  0  0  0  0  0  0  0  0
    4.8890   -1.7720   29.0370 C   0  0  0  0  0  0  0  0  0  0  0  0
    5.6490   -0.9480   30.0760 C   0  0  0  0  0  0  0  0  0  0  0  0
    4.8150   -0.9320   31.3140 C   0  0  0  0  0  0  0  0  0  0  0  0
    3.6920   -0.1760   31.1290 C   0  0  0  0  0  0  0  0  0  0  0  0
    2.9360   -0.6060   30.0490 C   0  0  0  0  0  0  0  0  0  0  0  0
    3.5340   -1.7230   29.2350 C   0  0  0  0  0  0  0  0  0  0  0  0
    4.6920   -4.1940   28.7580 C   0  0  0  0  0  0  0  0  0  0  0  0
    4.0750   -4.2620   27.3650 C   0  0  1  0  0  0  0  0  0  0  0  0
    3.2150   -4.3330   26.5270 C   0  0  0  0  0  0  0  0  0  0  0  0
    3.3850   -5.0540   25.5150 O   0  0  0  0  0  0  0  0  0  0  0  0
    2.1420   -3.7120   26.6610 O   0  0  0  0  0  0  0  0  0  0  0  0
    1.7560   -2.6680   25.7930 C   0  0  0  0  0  0  0  0  0  0  0  0
    5.5110   -5.0520   23.4530 C   0  0  0  0  0  0  0  0  0  0  0  0
    6.5410   -5.5440   22.4350 C   0  0  0  0  0  0  0  0  0  0  0  0
  1  2  1  0
  2  3  2  0
  2  4  1  0
  4  5  1  0
  5  6  1  0
  6  7  1  0
  7  8  1  0
  8  9  2  0
  8 10  1  0
 10 11  1  0
 11 12  1  0
 12 13  1  0
 13 14  1  6
 14 15  1  0
 15 16  1  0
 16 17  1  0
 17 18  1  0
 14 19  1  0
 18 19  1  0
 13 20  1  0
 10 21  1  0
 20 21  1  0
 21 22  1  1
 22 23  2  0
 22 24  1  0
 24 25  1  0
  7 26  1  0
  4 27  1  0
 26 27  1  0
M  END
