piperidine-amides-25174-covalent
     RDKit          3D

 24 24  0  0  0  0  0  0  0  0999 V2000
    7.0830   -3.2940   19.3000 C   0  0  0  0  0  0  0  0  0  0  0  0
    6.3310   -4.0770   20.3180 C   0  0  0  0  0  0  0  0  0  0  0  0
    5.3190   -4.6550   19.9260 O   0  0  0  0  0  0  0  0  0  0  0  0
    6.7960   -4.1680   21.6410 N   0  0  0  0  0  0  0  0  0  0  0  0
    7.6910   -3.1840   22.2260 C   0  0  0  0  0  0  0  0  0  0  0  0
    7.3160   -2.8930   23.6580 C   0  0  0  0  0  0  0  0  0  0  0  0
    6.0620   -3.6870   24.0140 C   0  0  0  0  0  0  0  0  0  0  0  0
    5.6200   -3.3960   25.4030 C   0  0  0  0  0  0  0  0  0  0  0  0
    4.4190   -3.5420   25.6570 O   0  0  0  0  0  0  0  0  0  0  0  0
    6.4820   -2.9500   26.4360 N   0  0  0  0  0  0  0  0  0  0  0  0
    6.7720   -1.5220   26.4690 C   0  0  0  0  0  0  0  0  0  0  0  0
    5.6090   -0.8030   27.1250 C   0  0  0  0  0  0  0  0  0  0  0  0
    4.7880    0.0520   26.4540 C   0  0  0  0  0  0  0  0  0  0  0  0
    3.3880   -0.1130   26.3600 N   0  0  0  0  0  0  0  0  0  0  0  0
    2.5060    0.9230   26.8390 C   0  0  0  0  0  0  0  0  0  0  0  0
    2.8390   -1.4090   26.0610 C   0  0  0  0  0  0  0  0  0  0  0  0
    6.4040   -2.9390   27.8930 C   0  0  0  0  0  0  0  0  0  0  0  0
    6.4370   -4.2990   28.5220 C   0  0  0  0  0  0  0  0  0  0  0  0
    5.6270   -5.1450   27.5870 C   0  0  0  0  0  0  0  0  0  0  0  0
    5.3190   -6.2420   28.3000 N   0  0  0  0  0  0  0  0  0  0  0  0
    4.4160   -7.2370   27.8040 C   0  0  0  0  0  0  0  0  0  0  0  0
    6.3610   -6.6230   29.2240 C   0  0  0  0  0  0  0  0  0  0  0  0
    6.1160   -5.1350   23.6970 C   0  0  0  0  0  0  0  0  0  0  0  0
    6.6620   -5.4270   22.3470 C   0  0  0  0  0  0  0  0  0  0  0  0
  1  2  1  0
  2  3  2  0
  2  4  1  0
  4  5  1  0
  5  6  1  0
  6  7  1  0
  7  8  1  0
  8  9  2  0
  8 10  1  0
 10 11  1  0
 11 12  1  0
 12 13  1  0
 13 14  1  0
 14 15  1  0
 14 16  1  0
 10 17  1  0
 17 18  1  0
 18 19  1  0
 19 20  1  0
 20 21  1  0
 20 22  1  0
  7 23  1  0
  4 24  1  0
 23 24  1  0
M  END
