piperidine-amides-4207-covalent
     RDKit          3D

 27 28  0  0  0  0  0  0  0  0999 V2000
    7.1010   -3.3370   19.2720 C   0  0  0  0  0  0  0  0  0  0  0  0
    6.3450   -4.0930   20.2800 C   0  0  0  0  0  0  0  0  0  0  0  0
    5.2650   -4.6040   19.9030 O   0  0  0  0  0  0  0  0  0  0  0  0
    6.8480   -4.2920   21.5860 N   0  0  0  0  0  0  0  0  0  0  0  0
    7.6040   -3.2370   22.1770 C   0  0  0  0  0  0  0  0  0  0  0  0
    7.3740   -3.0140   23.5970 C   0  0  0  0  0  0  0  0  0  0  0  0
    6.5360   -4.0270   24.2700 C   0  0  0  0  0  0  0  0  0  0  0  0
    5.7960   -3.4210   25.4310 C   0  0  0  0  0  0  0  0  0  0  0  0
    4.5560   -3.3140   25.3600 O   0  0  0  0  0  0  0  0  0  0  0  0
    6.4450   -2.9580   26.6020 N   0  0  0  0  0  0  0  0  0  0  0  0
    6.4560   -1.6100   27.0490 C   0  0  0  0  0  0  0  0  0  0  0  0
    6.0920   -0.4210   26.2960 C   0  0  0  0  0  0  0  0  0  0  0  0
    6.1560    0.9750   26.9680 C   0  0  0  0  0  0  0  0  0  0  0  0
    6.5500    1.1810   28.2860 C   0  0  0  0  0  0  0  0  0  0  0  0
    6.9140   -0.1110   28.9970 C   0  0  0  0  0  0  0  0  0  0  0  0
    7.3330    0.4410   30.5590 S   0  0  0  0  0  0  0  0  0  0  0  0
    6.2510    1.3500   31.0710 O   0  0  0  0  0  0  0  0  0  0  0  0
    7.4610   -0.7170   31.4520 O   0  0  0  0  0  0  0  0  0  0  0  0
    8.6400    1.2680   30.4880 N   0  0  0  0  0  0  0  0  0  0  0  0
    9.8940    0.6540   30.0380 C   0  0  0  0  0  0  0  0  0  0  0  0
    8.5490    2.5920   30.6950 C   0  0  0  0  0  0  0  0  0  0  0  0
    9.1910    3.1200   31.9580 C   0  0  0  0  0  0  0  0  0  0  0  0
   10.6810    2.8510   31.8270 C   0  0  0  0  0  0  0  0  0  0  0  0
   11.2490    3.4180   30.5220 C   0  0  0  0  0  0  0  0  0  0  0  0
    6.8850   -1.4010   28.4580 C   0  0  0  0  0  0  0  0  0  0  0  0
    5.6060   -4.7610   23.3630 C   0  0  0  0  0  0  0  0  0  0  0  0
    6.3680   -5.3730   22.3920 C   0  0  0  0  0  0  0  0  0  0  0  0
  1  2  1  0
  2  3  2  0
  2  4  1  0
  4  5  1  0
  5  6  1  0
  6  7  1  0
  7  8  1  0
  8  9  2  0
  8 10  1  0
 10 11  1  0
 11 12  2  0
 12 13  1  0
 13 14  2  0
 14 15  1  0
 15 16  1  0
 16 17  2  0
 16 18  2  0
 16 19  1  0
 19 20  1  0
 19 21  1  0
 21 22  1  0
 22 23  1  0
 23 24  1  0
 11 25  1  0
 15 25  2  0
  7 26  1  0
  4 27  1  0
 26 27  1  0
M  END
