piperidine-amides-17211-covalent
     RDKit          3D

 20 21  0  0  0  0  0  0  0  0999 V2000
    7.1650   -3.3340   19.2130 C   0  0  0  0  0  0  0  0  0  0  0  0
    6.4010   -4.0860   20.2100 C   0  0  0  0  0  0  0  0  0  0  0  0
    5.2790   -4.5340   19.8810 O   0  0  0  0  0  0  0  0  0  0  0  0
    6.9820   -4.3470   21.4640 N   0  0  0  0  0  0  0  0  0  0  0  0
    6.5200   -5.4600   22.2050 C   0  0  0  0  0  0  0  0  0  0  0  0
    5.9970   -5.1040   23.5140 C   0  0  0  0  0  0  0  0  0  0  0  0
    6.5970   -3.9030   24.1360 C   0  0  0  0  0  0  0  0  0  0  0  0
    5.7950   -3.4900   25.3200 C   0  0  0  0  0  0  0  0  0  0  0  0
    4.8250   -2.7310   25.1630 O   0  0  0  0  0  0  0  0  0  0  0  0
    6.0770   -3.9360   26.6130 N   0  0  0  0  0  0  0  0  0  0  0  0
    5.8400   -3.1210   27.7350 C   0  0  2  0  0  0  0  0  0  0  0  0
    6.5960   -1.8890   27.9410 C   0  0  0  0  0  0  0  0  0  0  0  0
    6.0440   -3.8850   28.9950 C   0  0  0  0  0  0  0  0  0  0  0  0
    6.4840   -5.2010   29.0000 C   0  0  0  0  0  0  0  0  0  0  0  0
    6.3570   -5.9060   30.1790 O   0  0  0  0  0  0  0  0  0  0  0  0
    5.2420   -5.5520   28.2190 C   0  0  0  0  0  0  0  0  0  0  0  0
    5.9750   -5.3320   26.9660 C   0  0  1  0  0  0  0  0  0  0  0  0
    4.7560   -5.9720   26.2890 C   0  0  0  0  0  0  0  0  0  0  0  0
    6.8450   -2.7490   23.2190 C   0  0  0  0  0  0  0  0  0  0  0  0
    7.7190   -3.2980   22.1300 C   0  0  0  0  0  0  0  0  0  0  0  0
  1  2  1  0
  2  3  2  0
  2  4  1  0
  4  5  1  0
  5  6  1  0
  6  7  1  0
  7  8  1  0
  8  9  2  0
  8 10  1  0
 10 11  1  0
 11 12  1  1
 11 13  1  0
 13 14  1  0
 14 15  1  0
 14 16  1  0
 10 17  1  0
 16 17  1  0
 17 18  1  6
  7 19  1  0
  4 20  1  0
 19 20  1  0
M  END
