piperidine-amides-25531-covalent
     RDKit          3D

 25 27  0  0  0  0  0  0  0  0999 V2000
    7.0220   -3.3610   19.3690 C   0  0  0  0  0  0  0  0  0  0  0  0
    6.3970   -4.2360   20.3970 C   0  0  0  0  0  0  0  0  0  0  0  0
    5.4410   -4.9160   20.0070 O   0  0  0  0  0  0  0  0  0  0  0  0
    6.9020   -4.2970   21.7120 N   0  0  0  0  0  0  0  0  0  0  0  0
    6.7150   -5.4790   22.5280 C   0  0  0  0  0  0  0  0  0  0  0  0
    6.0970   -5.0820   23.8420 C   0  0  0  0  0  0  0  0  0  0  0  0
    6.0970   -3.5580   23.8920 C   0  0  0  0  0  0  0  0  0  0  0  0
    5.5360   -3.0020   25.1550 C   0  0  0  0  0  0  0  0  0  0  0  0
    4.4960   -2.3470   25.0440 O   0  0  0  0  0  0  0  0  0  0  0  0
    6.0730   -3.1700   26.4540 N   0  0  0  0  0  0  0  0  0  0  0  0
    6.3170   -1.9420   27.2240 C   0  0  0  0  0  0  0  0  0  0  0  0
    5.7860   -0.6440   26.6260 C   0  0  0  0  0  0  0  0  0  0  0  0
    5.9180    0.5960   27.2310 C   0  0  0  0  0  0  0  0  0  0  0  0
    6.5610    0.6710   28.4350 C   0  0  0  0  0  0  0  0  0  0  0  0
    7.0630   -0.4530   29.0230 C   0  0  0  0  0  0  0  0  0  0  0  0
    6.9570   -1.8180   28.4280 C   0  0  0  0  0  0  0  0  0  0  0  0
    5.5160   -4.2700   27.1910 C   0  0  0  0  0  0  0  0  0  0  0  0
    4.2350   -4.9350   26.7380 C   0  0  0  0  0  0  0  0  0  0  0  0
    3.1630   -3.9170   27.0060 C   0  0  0  0  0  0  0  0  0  0  0  0
    3.1780   -3.6730   28.3910 N   0  0  0  0  0  0  0  0  0  0  0  0
    1.9670   -3.5110   29.1130 C   0  0  0  0  0  0  0  0  0  0  0  0
    4.3720   -3.1360   28.9120 C   0  0  0  0  0  0  0  0  0  0  0  0
    5.4930   -4.0480   28.5510 C   0  0  0  0  0  0  0  0  0  0  0  0
    7.4860   -3.0360   23.6030 C   0  0  0  0  0  0  0  0  0  0  0  0
    7.7470   -3.2160   22.2560 C   0  0  0  0  0  0  0  0  0  0  0  0
  1  2  1  0
  2  3  2  0
  2  4  1  0
  4  5  1  0
  5  6  1  0
  6  7  1  0
  7  8  1  0
  8  9  2  0
  8 10  1  0
 10 11  1  0
 11 12  2  0
 12 13  1  0
 13 14  2  0
 14 15  1  0
 11 16  1  0
 15 16  2  0
 10 17  1  0
 17 18  1  0
 18 19  1  0
 19 20  1  0
 20 21  1  0
 20 22  1  0
 17 23  1  0
 22 23  1  0
  7 24  1  0
  4 25  1  0
 24 25  1  0
M  END
