piperidine-amides-8308-covalent
     RDKit          3D

 25 27  0  0  0  0  0  0  0  0999 V2000
    7.1300   -3.2840   19.2540 C   0  0  0  0  0  0  0  0  0  0  0  0
    6.3660   -4.0410   20.2420 C   0  0  0  0  0  0  0  0  0  0  0  0
    5.2790   -4.5270   19.8820 O   0  0  0  0  0  0  0  0  0  0  0  0
    6.8890   -4.2580   21.5450 N   0  0  0  0  0  0  0  0  0  0  0  0
    7.6660   -3.2230   22.1710 C   0  0  0  0  0  0  0  0  0  0  0  0
    6.9600   -2.7360   23.4020 C   0  0  0  0  0  0  0  0  0  0  0  0
    6.6690   -3.9320   24.2890 C   0  0  0  0  0  0  0  0  0  0  0  0
    5.8550   -3.4880   25.4620 C   0  0  0  0  0  0  0  0  0  0  0  0
    4.7050   -3.1350   25.2060 O   0  0  0  0  0  0  0  0  0  0  0  0
    6.4390   -3.5140   26.7290 N   0  0  0  0  0  0  0  0  0  0  0  0
    7.0710   -2.3740   27.3050 C   0  0  0  0  0  0  0  0  0  0  0  0
    6.2030   -1.3560   27.7370 C   0  0  0  0  0  0  0  0  0  0  0  0
    6.4920   -0.2800   28.5910 C   0  0  0  0  0  0  0  0  0  0  0  0
    5.6180    0.7430   29.0090 C   0  0  0  0  0  0  0  0  0  0  0  0
    4.2190    0.6800   28.4870 C   0  0  0  0  0  0  0  0  0  0  0  0
    3.1540    1.7350   28.8600 C   0  0  0  0  0  0  0  0  0  0  0  0
    2.5430    2.4070   27.7850 N   0  0  0  0  0  0  0  0  0  0  0  0
    1.7320    1.7130   26.7380 C   0  0  0  0  0  0  0  0  0  0  0  0
    1.3080    2.7860   25.8440 C   0  0  0  0  0  0  0  0  0  0  0  0
    2.0150    3.7850   26.6640 C   0  0  0  0  0  0  0  0  0  0  0  0
    2.6440    3.7920   27.6060 N   0  0  0  0  0  0  0  0  0  0  0  0
    3.8240   -0.4270   27.5820 C   0  0  0  0  0  0  0  0  0  0  0  0
    4.7550   -1.3510   27.2520 C   0  0  0  0  0  0  0  0  0  0  0  0
    5.8950   -5.0090   23.5980 C   0  0  0  0  0  0  0  0  0  0  0  0
    6.5320   -5.4190   22.3040 C   0  0  0  0  0  0  0  0  0  0  0  0
  1  2  1  0
  2  3  2  0
  2  4  1  0
  4  5  1  0
  5  6  1  0
  6  7  1  0
  7  8  1  0
  8  9  2  0
  8 10  1  0
 10 11  1  0
 11 12  1  0
 12 13  2  0
 13 14  1  0
 14 15  2  0
 15 16  1  0
 16 17  1  0
 17 18  1  0
 18 19  2  0
 19 20  1  0
 17 21  1  0
 20 21  2  0
 15 22  1  0
 12 23  1  0
 22 23  2  0
  7 24  1  0
  4 25  1  0
 24 25  1  0
M  END
