piperidine-amides-34322-covalent
     RDKit          3D

 30 32  0  0  0  0  0  0  0  0999 V2000
    7.0510   -3.3310   19.3840 C   0  0  0  0  0  0  0  0  0  0  0  0
    6.3790   -4.1980   20.3660 C   0  0  0  0  0  0  0  0  0  0  0  0
    5.4160   -4.9130   20.0010 O   0  0  0  0  0  0  0  0  0  0  0  0
    6.8310   -4.2670   21.6980 N   0  0  0  0  0  0  0  0  0  0  0  0
    6.7020   -5.5330   22.4010 C   0  0  0  0  0  0  0  0  0  0  0  0
    6.2090   -5.2550   23.8320 C   0  0  0  0  0  0  0  0  0  0  0  0
    6.2170   -3.7580   23.9990 C   0  0  0  0  0  0  0  0  0  0  0  0
    5.7040   -3.2970   25.3170 C   0  0  0  0  0  0  0  0  0  0  0  0
    4.8020   -2.4380   25.2820 O   0  0  0  0  0  0  0  0  0  0  0  0
    6.1680   -3.7900   26.5700 N   0  0  0  0  0  0  0  0  0  0  0  0
    6.1000   -2.8990   27.6760 C   0  0  0  0  0  0  0  0  0  0  0  0
    5.4630   -3.7480   28.7340 C   0  0  1  0  0  0  0  0  0  0  0  0
    4.2170   -3.3120   29.1290 C   0  0  0  0  0  0  0  0  0  0  0  0
    3.6600   -3.5370   30.3410 C   0  0  0  0  0  0  0  0  0  0  0  0
    2.4210   -3.0250   30.5560 C   0  0  0  0  0  0  0  0  0  0  0  0
    1.7640   -2.3180   29.5970 C   0  0  0  0  0  0  0  0  0  0  0  0
    2.1560   -1.9280   28.1700 C   0  0  0  0  0  0  0  0  0  0  0  0
    3.5500   -2.5920   28.1480 C   0  0  0  0  0  0  0  0  0  0  0  0
    5.5170   -5.0790   28.3830 C   0  0  1  0  0  0  0  0  0  0  0  0
    6.3650   -5.9690   29.1680 C   0  0  0  0  0  0  0  0  0  0  0  0
    7.3000   -6.5980   28.6320 O   0  0  0  0  0  0  0  0  0  0  0  0
    6.1910   -6.1910   30.5320 O   0  0  0  0  0  0  0  0  0  0  0  0
    5.7930   -7.4620   30.9520 C   0  0  0  0  0  0  0  0  0  0  0  0
    4.1560   -5.7620   28.4880 C   0  0  0  0  0  0  0  0  0  0  0  0
    3.7260   -5.8360   29.7850 F   0  0  0  0  0  0  0  0  0  0  0  0
    3.2810   -5.0470   27.6990 F   0  0  0  0  0  0  0  0  0  0  0  0
    4.1820   -7.0440   28.0310 F   0  0  0  0  0  0  0  0  0  0  0  0
    5.8420   -5.1000   27.0170 C   0  0  0  0  0  0  0  0  0  0  0  0
    7.5690   -3.1660   23.7180 C   0  0  0  0  0  0  0  0  0  0  0  0
    7.7160   -3.2220   22.1950 C   0  0  0  0  0  0  0  0  0  0  0  0
  1  2  1  0
  2  3  2  0
  2  4  1  0
  4  5  1  0
  5  6  1  0
  6  7  1  0
  7  8  1  0
  8  9  2  0
  8 10  1  0
 10 11  1  0
 11 12  1  0
 12 13  1  6
 13 14  2  0
 14 15  1  0
 15 16  2  0
 16 17  1  0
 13 18  1  0
 17 18  2  0
 12 19  1  0
 19 20  1  1
 20 21  2  0
 20 22  1  0
 22 23  1  0
 19 24  1  0
 24 25  1  0
 24 26  1  0
 24 27  1  0
 10 28  1  0
 19 28  1  0
  7 29  1  0
  4 30  1  0
 29 30  1  0
M  END
