piperidine-amides-29206-covalent
     RDKit          3D

 27 30  0  0  0  0  0  0  0  0999 V2000
    7.0530   -3.3370   19.3450 C   0  0  0  0  0  0  0  0  0  0  0  0
    6.4190   -4.2060   20.3300 C   0  0  0  0  0  0  0  0  0  0  0  0
    5.3910   -4.8180   19.9800 O   0  0  0  0  0  0  0  0  0  0  0  0
    6.9940   -4.3930   21.6190 N   0  0  0  0  0  0  0  0  0  0  0  0
    7.6140   -3.2890   22.2880 C   0  0  0  0  0  0  0  0  0  0  0  0
    6.7430   -2.8280   23.4230 C   0  0  0  0  0  0  0  0  0  0  0  0
    6.5080   -4.0100   24.3530 C   0  0  0  0  0  0  0  0  0  0  0  0
    5.6720   -3.6220   25.5440 C   0  0  0  0  0  0  0  0  0  0  0  0
    4.4910   -3.9480   25.4660 O   0  0  0  0  0  0  0  0  0  0  0  0
    6.1920   -2.9010   26.6250 N   0  0  0  0  0  0  0  0  0  0  0  0
    6.1870   -3.3660   27.9910 C   0  0  0  0  0  0  0  0  0  0  0  0
    5.3730   -4.4410   28.3890 C   0  0  0  0  0  0  0  0  0  0  0  0
    5.5730   -5.7620   27.9940 C   0  0  0  0  0  0  0  0  0  0  0  0
    4.7920   -6.8730   28.3760 C   0  0  0  0  0  0  0  0  0  0  0  0
    3.6430   -6.5490   29.3020 C   0  0  0  0  0  0  0  0  0  0  0  0
    2.7460   -7.4240   29.8220 N   0  0  0  0  0  0  0  0  0  0  0  0
    2.0100   -8.2560   29.0750 C   0  0  0  0  0  0  0  0  0  0  0  0
    1.2150   -9.0070   29.7840 N   0  0  0  0  0  0  0  0  0  0  0  0
    1.4630   -8.6260   31.1040 C   0  0  0  0  0  0  0  0  0  0  0  0
    2.3960   -7.6620   31.0990 N   0  0  0  0  0  0  0  0  0  0  0  0
    3.3860   -5.1820   29.7460 C   0  0  0  0  0  0  0  0  0  0  0  0
    4.3370   -4.1140   29.2270 C   0  0  0  0  0  0  0  0  0  0  0  0
    5.8700   -1.6250   27.2280 C   0  0  0  0  0  0  0  0  0  0  0  0
    6.3760   -0.6830   26.6250 C   0  0  0  0  0  0  0  0  0  0  0  0
    6.9690   -0.8860   28.0610 C   0  0  0  0  0  0  0  0  0  0  0  0
    5.7730   -5.1190   23.5770 C   0  0  0  0  0  0  0  0  0  0  0  0
    6.6430   -5.5240   22.4070 C   0  0  0  0  0  0  0  0  0  0  0  0
  1  2  1  0
  2  3  2  0
  2  4  1  0
  4  5  1  0
  5  6  1  0
  6  7  1  0
  7  8  1  0
  8  9  2  0
  8 10  1  0
 10 11  1  0
 11 12  1  0
 12 13  2  0
 13 14  1  0
 14 15  2  0
 15 16  1  0
 16 17  1  0
 17 18  2  0
 18 19  1  0
 16 20  1  0
 19 20  2  0
 15 21  1  0
 12 22  1  0
 21 22  2  0
 10 23  1  0
 23 24  1  0
 23 25  1  0
 24 25  1  0
  7 26  1  0
  4 27  1  0
 26 27  1  0
M  END
