piperidine-amides-19023-covalent
     RDKit          3D

 20 22  0  0  0  0  0  0  0  0999 V2000
    7.1790   -3.2730   19.3150 C   0  0  0  0  0  0  0  0  0  0  0  0
    6.4150   -4.0370   20.2730 C   0  0  0  0  0  0  0  0  0  0  0  0
    5.3310   -4.5810   19.8990 O   0  0  0  0  0  0  0  0  0  0  0  0
    6.8740   -4.2220   21.5880 N   0  0  0  0  0  0  0  0  0  0  0  0
    6.5060   -5.4670   22.2890 C   0  0  0  0  0  0  0  0  0  0  0  0
    5.5490   -4.8410   23.3670 C   0  0  0  0  0  0  0  0  0  0  0  0
    6.3810   -3.8030   24.0850 C   0  0  0  0  0  0  0  0  0  0  0  0
    5.6250   -3.3200   25.3970 C   0  0  0  0  0  0  0  0  0  0  0  0
    4.8400   -4.1670   25.7860 O   0  0  0  0  0  0  0  0  0  0  0  0
    6.0340   -2.1540   25.6970 N   0  0  0  0  0  0  0  0  0  0  0  0
    6.6770   -1.0570   25.9170 C   0  0  0  0  0  0  0  0  0  0  0  0
    5.7740   -0.2910   26.4300 C   0  0  0  0  0  0  0  0  0  0  0  0
    4.8380   -1.4110   26.2910 C   0  0  0  0  0  0  0  0  0  0  0  0
    3.9730   -1.8650   27.4160 C   0  0  0  0  0  0  0  0  0  0  0  0
    2.6080   -1.4180   26.4490 S   0  0  0  0  0  0  0  0  0  0  0  0
    1.7490   -2.5310   26.0070 O   0  0  0  0  0  0  0  0  0  0  0  0
    1.9240   -0.2290   27.0490 O   0  0  0  0  0  0  0  0  0  0  0  0
    3.8200   -1.0040   25.2120 C   0  0  0  0  0  0  0  0  0  0  0  0
    7.0020   -2.6860   23.2720 C   0  0  0  0  0  0  0  0  0  0  0  0
    7.7310   -3.2570   22.2280 C   0  0  0  0  0  0  0  0  0  0  0  0
  1  2  1  0
  2  3  2  0
  2  4  1  0
  4  5  1  0
  5  6  1  0
  6  7  1  0
  7  8  1  0
  8  9  2  0
  8 10  1  0
 10 11  1  0
 11 12  1  0
 13 10  1  0
 12 13  1  0
 13 14  1  0
 15 14  1  0
 15 16  2  0
 15 17  2  0
 13 18  1  0
 15 18  1  0
  7 19  1  0
  4 20  1  0
 19 20  1  0
M  END
