piperidine-amides-12561-covalent
     RDKit          3D

 23 24  0  0  0  0  0  0  0  0999 V2000
    7.0340   -3.3550   19.2940 C   0  0  0  0  0  0  0  0  0  0  0  0
    6.3630   -4.1790   20.3270 C   0  0  0  0  0  0  0  0  0  0  0  0
    5.3440   -4.7960   19.9630 O   0  0  0  0  0  0  0  0  0  0  0  0
    6.8720   -4.3020   21.6300 N   0  0  0  0  0  0  0  0  0  0  0  0
    7.6640   -3.2560   22.1790 C   0  0  0  0  0  0  0  0  0  0  0  0
    7.3240   -2.9640   23.5570 C   0  0  0  0  0  0  0  0  0  0  0  0
    6.0690   -3.6040   23.9930 C   0  0  0  0  0  0  0  0  0  0  0  0
    5.8090   -3.2380   25.4030 C   0  0  0  0  0  0  0  0  0  0  0  0
    4.7030   -3.5030   25.9030 O   0  0  0  0  0  0  0  0  0  0  0  0
    6.8190   -2.5880   26.1260 N   0  0  0  0  0  0  0  0  0  0  0  0
    6.5440   -1.3880   26.9400 C   0  0  0  0  0  0  0  0  0  0  0  0
    6.9170   -1.3470   28.3780 C   0  0  0  0  0  0  0  0  0  0  0  0
    6.6700   -0.1850   29.2120 C   0  0  0  0  0  0  0  0  0  0  0  0
    6.9080    0.0990   30.5360 C   0  0  0  0  0  0  0  0  0  0  0  0
    6.9050    1.4130   30.8610 F   0  0  0  0  0  0  0  0  0  0  0  0
    6.0510   -0.4940   31.4160 F   0  0  0  0  0  0  0  0  0  0  0  0
    8.1260   -0.3770   30.9260 F   0  0  0  0  0  0  0  0  0  0  0  0
    5.9970    0.9820   28.4770 C   0  0  0  0  0  0  0  0  0  0  0  0
    5.6710    0.9010   27.1550 C   0  0  0  0  0  0  0  0  0  0  0  0
    5.8980   -0.1910   26.3570 C   0  0  0  0  0  0  0  0  0  0  0  0
    5.5450   -0.2010   25.0390 C   0  0  0  0  0  0  0  0  0  0  0  0
    6.0940   -5.0960   23.7720 C   0  0  0  0  0  0  0  0  0  0  0  0
    6.6700   -5.4840   22.4480 C   0  0  0  0  0  0  0  0  0  0  0  0
  1  2  1  0
  2  3  2  0
  2  4  1  0
  4  5  1  0
  5  6  1  0
  6  7  1  0
  7  8  1  0
  8  9  2  0
  8 10  1  0
 10 11  1  0
 11 12  2  0
 12 13  1  0
 13 14  1  0
 14 15  1  0
 14 16  1  0
 14 17  1  0
 13 18  2  0
 18 19  1  0
 11 20  1  0
 19 20  2  0
 20 21  1  0
  7 22  1  0
  4 23  1  0
 22 23  1  0
M  END
