piperidine-amides-27965-covalent
     RDKit          3D

 26 29  0  0  0  0  0  0  0  0999 V2000
    7.0550   -3.3400   19.2920 C   0  0  0  0  0  0  0  0  0  0  0  0
    6.4090   -4.1720   20.3320 C   0  0  0  0  0  0  0  0  0  0  0  0
    5.3910   -4.8000   19.9760 O   0  0  0  0  0  0  0  0  0  0  0  0
    6.9550   -4.2820   21.6240 N   0  0  0  0  0  0  0  0  0  0  0  0
    6.7150   -5.4710   22.3830 C   0  0  0  0  0  0  0  0  0  0  0  0
    6.1900   -5.1840   23.7120 C   0  0  0  0  0  0  0  0  0  0  0  0
    6.1370   -3.7360   23.9810 C   0  0  0  0  0  0  0  0  0  0  0  0
    5.5490   -3.4460   25.3130 C   0  0  0  0  0  0  0  0  0  0  0  0
    4.3470   -3.7440   25.4460 O   0  0  0  0  0  0  0  0  0  0  0  0
    6.2080   -2.8410   26.4020 N   0  0  0  0  0  0  0  0  0  0  0  0
    5.4500   -2.3780   27.5280 C   0  0  0  0  0  0  0  0  0  0  0  0
    6.3980   -2.7660   28.5630 C   0  0  0  0  0  0  0  0  0  0  0  0
    7.4990   -3.6430   28.1330 C   0  0  1  0  0  0  0  0  0  0  0  0
    7.0770   -4.9680   28.3780 N   0  0  0  0  0  0  0  0  0  0  0  0
    7.8120   -6.0930   28.0380 C   0  0  0  0  0  0  0  0  0  0  0  0
    9.0370   -6.0280   27.4030 C   0  0  0  0  0  0  0  0  0  0  0  0
    6.9970   -7.0940   28.4950 N   0  0  0  0  0  0  0  0  0  0  0  0
    5.7600   -6.6050   29.0950 C   0  0  0  0  0  0  0  0  0  0  0  0
    5.8280   -5.3020   29.0070 C   0  0  0  0  0  0  0  0  0  0  0  0
    4.8900   -4.4180   29.4300 C   0  0  0  0  0  0  0  0  0  0  0  0
    3.8670   -5.1220   30.1150 C   0  0  0  0  0  0  0  0  0  0  0  0
    4.3040   -6.3890   30.7930 C   0  0  0  0  0  0  0  0  0  0  0  0
    4.7350   -7.2830   29.6440 C   0  0  0  0  0  0  0  0  0  0  0  0
    7.5290   -3.3100   26.7430 C   0  0  0  0  0  0  0  0  0  0  0  0
    7.3580   -2.9960   23.6470 C   0  0  0  0  0  0  0  0  0  0  0  0
    7.7850   -3.2220   22.2110 C   0  0  0  0  0  0  0  0  0  0  0  0
  1  2  1  0
  2  3  2  0
  2  4  1  0
  4  5  1  0
  5  6  1  0
  6  7  1  0
  7  8  1  0
  8  9  2  0
  8 10  1  0
 10 11  1  0
 11 12  1  0
 12 13  1  0
 13 14  1  6
 14 15  1  0
 15 16  1  0
 15 17  2  0
 17 18  1  0
 14 19  1  0
 18 19  2  0
 19 20  1  0
 20 21  1  0
 21 22  1  0
 18 23  1  0
 22 23  1  0
 10 24  1  0
 13 24  1  0
  7 25  1  0
  4 26  1  0
 25 26  1  0
M  END
