piperidine-amides-27537-covalent
     RDKit          3D

 26 29  0  0  0  0  0  0  0  0999 V2000
    7.0710   -3.3400   19.3400 C   0  0  0  0  0  0  0  0  0  0  0  0
    6.4170   -4.1760   20.3520 C   0  0  0  0  0  0  0  0  0  0  0  0
    5.3960   -4.8130   19.9760 O   0  0  0  0  0  0  0  0  0  0  0  0
    6.9480   -4.2750   21.6430 N   0  0  0  0  0  0  0  0  0  0  0  0
    6.7510   -5.4870   22.4230 C   0  0  0  0  0  0  0  0  0  0  0  0
    6.3300   -5.1070   23.8170 C   0  0  0  0  0  0  0  0  0  0  0  0
    6.4010   -3.6190   24.0060 C   0  0  0  0  0  0  0  0  0  0  0  0
    5.9750   -3.2040   25.3590 C   0  0  0  0  0  0  0  0  0  0  0  0
    4.7450   -3.0020   25.4830 O   0  0  0  0  0  0  0  0  0  0  0  0
    6.7750   -3.0230   26.5210 N   0  0  0  0  0  0  0  0  0  0  0  0
    6.9850   -4.1900   27.2510 C   0  0  0  0  0  0  0  0  0  0  0  0
    7.9970   -5.2170   27.1810 C   0  0  0  0  0  0  0  0  0  0  0  0
    7.7010   -6.2000   28.1320 C   0  0  0  0  0  0  0  0  0  0  0  0
    6.5540   -6.1770   29.0540 C   0  0  0  0  0  0  0  0  0  0  0  0
    6.2090   -7.1650   29.9770 C   0  0  0  0  0  0  0  0  0  0  0  0
    5.5100   -5.0530   29.1560 C   0  0  0  0  0  0  0  0  0  0  0  0
    6.3180   -4.7130   28.2120 C   0  0  0  0  0  0  0  0  0  0  0  0
    5.4510   -3.4570   28.0460 C   0  0  1  0  0  0  0  0  0  0  0  0
    4.8890   -3.2770   29.4520 C   0  0  0  0  0  0  0  0  0  0  0  0
    5.0540   -1.9450   29.8990 N   0  0  0  0  0  0  0  0  0  0  0  0
    4.3080   -1.5560   31.0770 C   0  0  0  0  0  0  0  0  0  0  0  0
    6.3250   -1.2730   29.5550 C   0  0  0  0  0  0  0  0  0  0  0  0
    6.9610   -1.5070   28.3550 C   0  0  0  0  0  0  0  0  0  0  0  0
    6.0190   -2.2960   27.4750 C   0  0  1  0  0  0  0  0  0  0  0  0
    7.7550   -3.1260   23.6520 C   0  0  0  0  0  0  0  0  0  0  0  0
    7.8160   -3.1940   22.1270 C   0  0  0  0  0  0  0  0  0  0  0  0
  1  2  1  0
  2  3  2  0
  2  4  1  0
  4  5  1  0
  5  6  1  0
  6  7  1  0
  7  8  1  0
  8  9  2  0
  8 10  1  0
 10 11  1  0
 11 12  2  0
 12 13  1  0
 13 14  2  0
 14 15  1  0
 14 16  1  0
 11 17  1  0
 16 17  2  0
 17 18  1  0
 18 19  1  1
 19 20  1  0
 20 21  1  0
 20 22  1  0
 22 23  1  0
 10 24  1  0
 18 24  1  0
 24 23  1  1
  7 25  1  0
  4 26  1  0
 25 26  1  0
M  END
