piperidine-amides-24407-covalent
     RDKit          3D

 24 26  0  0  0  0  0  0  0  0999 V2000
    7.1150   -3.3330   19.2440 C   0  0  0  0  0  0  0  0  0  0  0  0
    6.4300   -4.1580   20.2440 C   0  0  0  0  0  0  0  0  0  0  0  0
    5.3720   -4.7610   19.9610 O   0  0  0  0  0  0  0  0  0  0  0  0
    7.0080   -4.3170   21.5040 N   0  0  0  0  0  0  0  0  0  0  0  0
    6.6910   -5.4730   22.2990 C   0  0  0  0  0  0  0  0  0  0  0  0
    5.8060   -4.9530   23.4310 C   0  0  0  0  0  0  0  0  0  0  0  0
    6.5960   -3.9040   24.2000 C   0  0  0  0  0  0  0  0  0  0  0  0
    5.7180   -3.2940   25.2060 C   0  0  0  0  0  0  0  0  0  0  0  0
    4.6530   -2.7680   24.8160 O   0  0  0  0  0  0  0  0  0  0  0  0
    6.0460   -3.3070   26.5690 N   0  0  0  0  0  0  0  0  0  0  0  0
    5.0070   -2.9230   27.4660 C   0  0  0  0  0  0  0  0  0  0  0  0
    5.2370   -3.6630   28.7340 C   0  0  0  0  0  0  0  0  0  0  0  0
    6.5080   -3.7030   29.1590 C   0  0  0  0  0  0  0  0  0  0  0  0
    7.5470   -3.5840   28.2610 C   0  0  1  0  0  0  0  0  0  0  0  0
    8.0180   -4.8230   27.8620 N   0  0  0  0  0  0  0  0  0  0  0  0
    8.5070   -4.9630   26.5980 C   0  0  1  0  0  0  0  0  0  0  0  0
    9.4640   -5.9350   26.6710 C   0  0  0  0  0  0  0  0  0  0  0  0
    7.3410   -5.5510   25.8760 C   0  0  0  0  0  0  0  0  0  0  0  0
    6.4290   -6.0660   26.9560 C   0  0  0  0  0  0  0  0  0  0  0  0
    7.1270   -5.9260   28.2840 C   0  0  2  0  0  0  0  0  0  0  0  0
    5.6700   -5.9770   28.1940 C   0  0  0  0  0  0  0  0  0  0  0  0
    7.2690   -2.8000   27.1730 C   0  0  0  0  0  0  0  0  0  0  0  0
    6.9770   -2.7530   23.2800 C   0  0  0  0  0  0  0  0  0  0  0  0
    7.7610   -3.2470   22.1120 C   0  0  0  0  0  0  0  0  0  0  0  0
  1  2  1  0
  2  3  2  0
  2  4  1  0
  4  5  1  0
  5  6  1  0
  6  7  1  0
  7  8  1  0
  8  9  2  0
  8 10  1  0
 10 11  1  0
 11 12  1  0
 12 13  1  0
 13 14  1  0
 14 15  1  6
 15 16  1  0
 16 17  1  1
 16 18  1  0
 18 19  1  0
 15 20  1  0
 19 20  1  0
 20 21  1  1
 10 22  1  0
 14 22  1  0
  7 23  1  0
  4 24  1  0
 23 24  1  0
M  END
