piperidine-amides-4285-covalent
     RDKit          3D

 26 28  0  0  0  0  0  0  0  0999 V2000
    7.0260   -3.3310   19.3110 C   0  0  0  0  0  0  0  0  0  0  0  0
    6.3470   -4.1490   20.3390 C   0  0  0  0  0  0  0  0  0  0  0  0
    5.3340   -4.7790   19.9620 O   0  0  0  0  0  0  0  0  0  0  0  0
    6.8260   -4.2680   21.6740 N   0  0  0  0  0  0  0  0  0  0  0  0
    7.6430   -3.2350   22.2150 C   0  0  0  0  0  0  0  0  0  0  0  0
    7.2960   -2.9450   23.5830 C   0  0  0  0  0  0  0  0  0  0  0  0
    6.0740   -3.6570   23.9670 C   0  0  0  0  0  0  0  0  0  0  0  0
    5.6120   -3.2740   25.3420 C   0  0  0  0  0  0  0  0  0  0  0  0
    4.4030   -3.3760   25.6220 O   0  0  0  0  0  0  0  0  0  0  0  0
    6.4950   -2.7900   26.3220 N   0  0  0  0  0  0  0  0  0  0  0  0
    6.4060   -1.5790   27.0520 C   0  0  0  0  0  0  0  0  0  0  0  0
    5.7860   -0.3430   26.5690 C   0  0  0  0  0  0  0  0  0  0  0  0
    5.7550    0.8960   27.4750 C   0  0  0  0  0  0  0  0  0  0  0  0
    6.3140    0.8200   28.7240 C   0  0  0  0  0  0  0  0  0  0  0  0
    6.9520   -0.3720   29.2690 C   0  0  0  0  0  0  0  0  0  0  0  0
    7.0050   -1.6080   28.4300 C   0  0  0  0  0  0  0  0  0  0  0  0
    7.4510   -0.0380   30.6960 C   0  0  0  0  0  0  0  0  0  0  0  0
    6.9540    1.3530   30.8280 N   0  0  0  0  0  0  0  0  0  0  0  0
    6.2910    1.4010   32.0670 C   0  0  0  0  0  0  0  0  0  0  0  0
    6.0860    2.7710   32.7000 C   0  0  0  0  0  0  0  0  0  0  0  0
    5.5710    2.6260   33.9550 F   0  0  0  0  0  0  0  0  0  0  0  0
    7.1950    3.5640   32.6090 F   0  0  0  0  0  0  0  0  0  0  0  0
    5.0920    3.4460   32.0660 F   0  0  0  0  0  0  0  0  0  0  0  0
    6.3190    1.9710   29.6770 C   0  0  0  0  0  0  0  0  0  0  0  0
    6.2330   -5.1380   23.7700 C   0  0  0  0  0  0  0  0  0  0  0  0
    6.6020   -5.4830   22.4470 C   0  0  0  0  0  0  0  0  0  0  0  0
  1  2  1  0
  2  3  2  0
  2  4  1  0
  4  5  1  0
  5  6  1  0
  6  7  1  0
  7  8  1  0
  8  9  2  0
  8 10  1  0
 10 11  1  0
 11 12  2  0
 12 13  1  0
 13 14  2  0
 14 15  1  0
 11 16  1  0
 15 16  2  0
 15 17  1  0
 17 18  1  0
 18 19  1  0
 19 20  1  0
 20 21  1  0
 20 22  1  0
 20 23  1  0
 14 24  1  0
 18 24  1  0
  7 25  1  0
  4 26  1  0
 25 26  1  0
M  END
