piperidine-amides-6252-covalent
     RDKit          3D

 26 28  0  0  0  0  0  0  0  0999 V2000
    7.0940   -3.3100   19.3130 C   0  0  0  0  0  0  0  0  0  0  0  0
    6.3370   -4.0910   20.2990 C   0  0  0  0  0  0  0  0  0  0  0  0
    5.3080   -4.7040   19.9420 O   0  0  0  0  0  0  0  0  0  0  0  0
    6.7740   -4.2140   21.6290 N   0  0  0  0  0  0  0  0  0  0  0  0
    6.4930   -5.4630   22.3040 C   0  0  0  0  0  0  0  0  0  0  0  0
    6.2760   -5.1700   23.8010 C   0  0  0  0  0  0  0  0  0  0  0  0
    6.0210   -3.6860   23.9390 C   0  0  0  0  0  0  0  0  0  0  0  0
    5.5670   -3.3460   25.3100 C   0  0  0  0  0  0  0  0  0  0  0  0
    4.3680   -3.5700   25.5730 O   0  0  0  0  0  0  0  0  0  0  0  0
    6.4390   -2.7780   26.2740 N   0  0  0  0  0  0  0  0  0  0  0  0
    6.4300   -3.1870   27.6620 C   0  0  0  0  0  0  0  0  0  0  0  0
    5.0430   -3.3570   28.2320 C   0  0  0  0  0  0  0  0  0  0  0  0
    3.9390   -2.6560   27.8010 C   0  0  0  0  0  0  0  0  0  0  0  0
    2.6900   -2.8520   28.3640 C   0  0  0  0  0  0  0  0  0  0  0  0
    2.4580   -3.7630   29.3980 C   0  0  0  0  0  0  0  0  0  0  0  0
    0.8690   -3.9930   30.0970 S   0  0  0  0  0  0  0  0  0  0  0  0
   -0.1010   -3.0450   29.4400 O   0  0  0  0  0  0  0  0  0  0  0  0
    1.0010   -3.7140   31.5670 O   0  0  0  0  0  0  0  0  0  0  0  0
    0.4010   -5.6400   29.8150 N   0  0  0  0  0  0  0  0  0  0  0  0
    1.4260   -6.5740   30.1540 C   0  0  0  0  0  0  0  0  0  0  0  0
    1.2100   -8.0600   29.8930 C   0  0  0  0  0  0  0  0  0  0  0  0
    2.1040   -7.2420   29.0050 C   0  0  0  0  0  0  0  0  0  0  0  0
    3.5450   -4.4670   29.8350 C   0  0  0  0  0  0  0  0  0  0  0  0
    4.8570   -4.2650   29.2460 C   0  0  0  0  0  0  0  0  0  0  0  0
    7.2700   -2.9570   23.5520 C   0  0  0  0  0  0  0  0  0  0  0  0
    7.5520   -3.1690   22.2330 C   0  0  0  0  0  0  0  0  0  0  0  0
  1  2  1  0
  2  3  2  0
  2  4  1  0
  4  5  1  0
  5  6  1  0
  6  7  1  0
  7  8  1  0
  8  9  2  0
  8 10  1  0
 10 11  1  0
 11 12  1  0
 12 13  2  0
 13 14  1  0
 14 15  2  0
 15 16  1  0
 16 17  2  0
 16 18  2  0
 16 19  1  0
 19 20  1  0
 20 21  1  0
 20 22  1  0
 21 22  1  0
 15 23  1  0
 12 24  1  0
 23 24  2  0
  7 25  1  0
  4 26  1  0
 25 26  1  0
M  END
