piperidine-amides-7210-covalent
     RDKit          3D

 21 22  0  0  0  0  0  0  0  0999 V2000
    7.0960   -3.3070   19.2380 C   0  0  0  0  0  0  0  0  0  0  0  0
    6.4000   -4.1050   20.2520 C   0  0  0  0  0  0  0  0  0  0  0  0
    5.3010   -4.6090   19.9070 O   0  0  0  0  0  0  0  0  0  0  0  0
    6.9840   -4.3320   21.5010 N   0  0  0  0  0  0  0  0  0  0  0  0
    7.8090   -3.3420   22.1420 C   0  0  0  0  0  0  0  0  0  0  0  0
    7.0850   -2.8650   23.3560 C   0  0  0  0  0  0  0  0  0  0  0  0
    6.6060   -3.9890   24.2310 C   0  0  0  0  0  0  0  0  0  0  0  0
    5.7680   -3.4380   25.3240 C   0  0  0  0  0  0  0  0  0  0  0  0
    4.5320   -3.6260   25.2740 O   0  0  0  0  0  0  0  0  0  0  0  0
    6.2780   -2.7090   26.4160 N   0  0  0  0  0  0  0  0  0  0  0  0
    6.6760   -1.3300   26.2770 C   0  0  0  0  0  0  0  0  0  0  0  0
    6.2140   -0.6600   24.9750 C   0  0  0  0  0  0  0  0  0  0  0  0
    4.8920   -0.0760   24.9370 N   0  0  0  0  0  0  0  0  0  0  0  0
    4.7580    0.4070   23.7320 C   0  0  0  0  0  0  0  0  0  0  0  0
    5.8600    0.2110   22.9530 N   0  0  0  0  0  0  0  0  0  0  0  0
    6.0060    0.5940   21.6580 C   0  0  0  0  0  0  0  0  0  0  0  0
    5.0180   -0.1170   20.9810 C   0  0  0  0  0  0  0  0  0  0  0  0
    5.7720    2.0750   21.4640 C   0  0  0  0  0  0  0  0  0  0  0  0
    6.7440   -0.4450   23.7470 N   0  0  0  0  0  0  0  0  0  0  0  0
    5.7330   -5.0020   23.4890 C   0  0  0  0  0  0  0  0  0  0  0  0
    6.4630   -5.4670   22.2560 C   0  0  0  0  0  0  0  0  0  0  0  0
  1  2  1  0
  2  3  2  0
  2  4  1  0
  4  5  1  0
  5  6  1  0
  6  7  1  0
  7  8  1  0
  8  9  2  0
  8 10  1  0
 10 11  1  0
 11 12  1  0
 12 13  1  0
 13 14  2  0
 14 15  1  0
 15 16  1  0
 16 17  1  0
 16 18  1  0
 12 19  2  0
 15 19  1  0
  7 20  1  0
  4 21  1  0
 20 21  1  0
M  END
