piperidine-amides-14290-covalent
     RDKit          3D

 24 25  0  0  0  0  0  0  0  0999 V2000
    7.1360   -3.2970   19.2360 C   0  0  0  0  0  0  0  0  0  0  0  0
    6.3690   -4.0300   20.2370 C   0  0  0  0  0  0  0  0  0  0  0  0
    5.2890   -4.5390   19.8900 O   0  0  0  0  0  0  0  0  0  0  0  0
    6.8970   -4.1970   21.5440 N   0  0  0  0  0  0  0  0  0  0  0  0
    7.7090   -3.1640   22.1140 C   0  0  0  0  0  0  0  0  0  0  0  0
    7.0120   -2.6040   23.3100 C   0  0  0  0  0  0  0  0  0  0  0  0
    6.6320   -3.7880   24.1640 C   0  0  0  0  0  0  0  0  0  0  0  0
    5.8090   -3.3130   25.3200 C   0  0  0  0  0  0  0  0  0  0  0  0
    4.6770   -2.9260   25.0480 O   0  0  0  0  0  0  0  0  0  0  0  0
    6.3580   -3.3460   26.5970 N   0  0  0  0  0  0  0  0  0  0  0  0
    5.6650   -3.9710   27.6640 C   0  0  1  0  0  0  0  0  0  0  0  0
    6.1590   -5.2060   28.1310 C   0  0  0  0  0  0  0  0  0  0  0  0
    6.5360   -6.1210   27.3780 O   0  0  0  0  0  0  0  0  0  0  0  0
    6.1940   -5.5040   29.4680 O   0  0  0  0  0  0  0  0  0  0  0  0
    5.8630   -6.6940   30.0710 C   0  0  0  0  0  0  0  0  0  0  0  0
    5.5700   -2.9460   28.7640 C   0  0  0  0  0  0  0  0  0  0  0  0
    6.6450   -1.8960   28.7340 C   0  0  0  0  0  0  0  0  0  0  0  0
    6.6790   -0.7600   29.7940 C   0  0  0  0  0  0  0  0  0  0  0  0
    5.6120   -0.7540   30.8260 C   0  0  0  0  0  0  0  0  0  0  0  0
    4.5670   -1.8240   30.8070 C   0  0  0  0  0  0  0  0  0  0  0  0
    4.5760   -2.9320   29.7400 C   0  0  0  0  0  0  0  0  0  0  0  0
    3.2050   -4.2710   29.7790 Br  0  0  0  0  0  0  0  0  0  0  0  0
    5.7480   -4.7420   23.3850 C   0  0  0  0  0  0  0  0  0  0  0  0
    6.4970   -5.3000   22.3710 C   0  0  0  0  0  0  0  0  0  0  0  0
  1  2  1  0
  2  3  2  0
  2  4  1  0
  4  5  1  0
  5  6  1  0
  6  7  1  0
  7  8  1  0
  8  9  2  0
  8 10  1  0
 11 10  1  6
 11 12  1  0
 12 13  2  0
 12 14  1  0
 14 15  1  0
 11 16  1  0
 16 17  2  0
 17 18  1  0
 18 19  2  0
 19 20  1  0
 16 21  1  0
 20 21  2  0
 21 22  1  0
  7 23  1  0
  4 24  1  0
 23 24  1  0
M  END
