piperidine-amides-19014-covalent
     RDKit          3D

 21 22  0  0  0  0  0  0  0  0999 V2000
    7.0990   -3.4090   19.3210 C   0  0  0  0  0  0  0  0  0  0  0  0
    6.4510   -4.1990   20.3350 C   0  0  0  0  0  0  0  0  0  0  0  0
    5.3920   -4.8140   19.9900 O   0  0  0  0  0  0  0  0  0  0  0  0
    6.9800   -4.3750   21.6350 N   0  0  0  0  0  0  0  0  0  0  0  0
    6.6650   -5.6050   22.3750 C   0  0  0  0  0  0  0  0  0  0  0  0
    5.5820   -4.9930   23.3280 C   0  0  0  0  0  0  0  0  0  0  0  0
    6.2970   -3.9730   24.1920 C   0  0  0  0  0  0  0  0  0  0  0  0
    5.2740   -3.4550   25.2930 C   0  0  0  0  0  0  0  0  0  0  0  0
    4.1670   -3.3740   24.7890 O   0  0  0  0  0  0  0  0  0  0  0  0
    5.8030   -3.2340   26.4280 N   0  0  0  0  0  0  0  0  0  0  0  0
    6.5610   -2.7960   27.4620 C   0  0  0  0  0  0  0  0  0  0  0  0
    6.3720   -2.4370   28.7480 C   0  0  2  0  0  0  0  0  0  0  0  0
    7.3210   -1.5600   29.3620 C   0  0  0  0  0  0  0  0  0  0  0  0
    7.2080   -0.2640   28.8200 O   0  0  0  0  0  0  0  0  0  0  0  0
    6.4060   -3.5800   29.4250 O   0  0  0  0  0  0  0  0  0  0  0  0
    5.6500   -4.4330   28.6700 C   0  0  2  0  0  0  0  0  0  0  0  0
    6.2620   -5.4720   28.0100 O   0  0  0  0  0  0  0  0  0  0  0  0
    5.3830   -6.4500   27.5450 C   0  0  0  0  0  0  0  0  0  0  0  0
    4.9610   -3.5290   27.6180 C   0  0  0  0  0  0  0  0  0  0  0  0
    6.9210   -2.8080   23.4350 C   0  0  0  0  0  0  0  0  0  0  0  0
    7.7780   -3.3480   22.2940 C   0  0  0  0  0  0  0  0  0  0  0  0
  1  2  1  0
  2  3  2  0
  2  4  1  0
  4  5  1  0
  5  6  1  0
  6  7  1  0
  7  8  1  0
  8  9  2  0
  8 10  1  0
 10 11  1  0
 11 12  1  0
 12 13  1  1
 13 14  1  0
 12 15  1  0
 15 16  1  0
 16 17  1  6
 17 18  1  0
 10 19  1  0
 16 19  1  0
  7 20  1  0
  4 21  1  0
 20 21  1  0
M  END
