piperidine-amides-28602-covalent
     RDKit          3D

 25 26  0  0  0  0  0  0  0  0999 V2000
    7.0660   -3.3430   19.3440 C   0  0  0  0  0  0  0  0  0  0  0  0
    6.4110   -4.2040   20.3250 C   0  0  0  0  0  0  0  0  0  0  0  0
    5.3840   -4.8140   19.9750 O   0  0  0  0  0  0  0  0  0  0  0  0
    6.9740   -4.3740   21.6140 N   0  0  0  0  0  0  0  0  0  0  0  0
    6.6580   -5.5520   22.3620 C   0  0  0  0  0  0  0  0  0  0  0  0
    5.7770   -5.1690   23.5130 C   0  0  0  0  0  0  0  0  0  0  0  0
    6.3850   -3.9340   24.1490 C   0  0  0  0  0  0  0  0  0  0  0  0
    5.3520   -3.2780   25.0120 C   0  0  0  0  0  0  0  0  0  0  0  0
    4.5380   -2.5690   24.4430 O   0  0  0  0  0  0  0  0  0  0  0  0
    5.3580   -3.4940   26.3740 N   0  0  0  0  0  0  0  0  0  0  0  0
    6.4300   -3.0850   27.1220 C   0  0  0  0  0  0  0  0  0  0  0  0
    6.6610   -3.9930   28.1460 C   0  0  0  0  0  0  0  0  0  0  0  0
    5.6780   -4.0240   29.0260 C   0  0  1  0  0  0  0  0  0  0  0  0
    5.4710   -2.7110   29.6040 N   0  0  0  0  0  0  0  0  0  0  0  0
    4.1650   -2.3810   30.0560 C   0  0  0  0  0  0  0  0  0  0  0  0
    3.1830   -3.3270   30.2990 O   0  0  0  0  0  0  0  0  0  0  0  0
    3.8510   -0.9280   30.3060 C   0  0  0  0  0  0  0  0  0  0  0  0
    2.7420   -0.4990   29.6530 F   0  0  0  0  0  0  0  0  0  0  0  0
    3.6890   -0.7830   31.6800 F   0  0  0  0  0  0  0  0  0  0  0  0
    5.0030   -0.2340   29.9380 F   0  0  0  0  0  0  0  0  0  0  0  0
    4.4530   -4.5380   28.3360 C   0  0  0  0  0  0  0  0  0  0  0  0
    4.1540   -3.7430   27.1080 C   0  0  1  0  0  0  0  0  0  0  0  0
    3.6230   -2.4290   27.6030 C   0  0  0  0  0  0  0  0  0  0  0  0
    6.8900   -2.8750   23.2630 C   0  0  0  0  0  0  0  0  0  0  0  0
    7.7300   -3.3440   22.2870 C   0  0  0  0  0  0  0  0  0  0  0  0
  1  2  1  0
  2  3  2  0
  2  4  1  0
  4  5  1  0
  5  6  1  0
  6  7  1  0
  7  8  1  0
  8  9  2  0
  8 10  1  0
 10 11  1  0
 11 12  1  0
 12 13  1  0
 13 14  1  6
 14 15  1  0
 15 16  2  0
 15 17  1  0
 17 18  1  0
 17 19  1  0
 17 20  1  0
 13 21  1  0
 10 22  1  0
 21 22  1  0
 22 23  1  1
  7 24  1  0
  4 25  1  0
 24 25  1  0
M  END
