piperidine-amides-4327-covalent
     RDKit          3D

 26 27  0  0  0  0  0  0  0  0999 V2000
    7.1520   -3.2860   19.1950 C   0  0  0  0  0  0  0  0  0  0  0  0
    6.3470   -3.9930   20.2000 C   0  0  0  0  0  0  0  0  0  0  0  0
    5.2380   -4.4400   19.8390 O   0  0  0  0  0  0  0  0  0  0  0  0
    6.8480   -4.2160   21.4970 N   0  0  0  0  0  0  0  0  0  0  0  0
    7.5960   -3.1730   22.1100 C   0  0  0  0  0  0  0  0  0  0  0  0
    7.3920   -3.0250   23.5420 C   0  0  0  0  0  0  0  0  0  0  0  0
    6.5110   -4.0250   24.1750 C   0  0  0  0  0  0  0  0  0  0  0  0
    5.7850   -3.3690   25.3050 C   0  0  0  0  0  0  0  0  0  0  0  0
    4.5550   -3.1810   25.2380 O   0  0  0  0  0  0  0  0  0  0  0  0
    6.4920   -2.9500   26.4410 N   0  0  0  0  0  0  0  0  0  0  0  0
    6.2430   -3.2630   27.7890 C   0  0  0  0  0  0  0  0  0  0  0  0
    6.2090   -4.6150   28.3350 C   0  0  1  0  0  0  0  0  0  0  0  0
    5.1310   -4.5080   29.4170 C   0  0  0  0  0  0  0  0  0  0  0  0
    5.4750   -5.4890   30.3120 O   0  0  0  0  0  0  0  0  0  0  0  0
    5.8930   -5.8280   27.5590 C   0  0  0  0  0  0  0  0  0  0  0  0
    4.7220   -6.6130   28.1550 C   0  0  0  0  0  0  0  0  0  0  0  0
    3.7780   -6.5120   26.9930 C   0  0  0  0  0  0  0  0  0  0  0  0
    2.5060   -7.2590   27.4620 C   0  0  0  0  0  0  0  0  0  0  0  0
    2.2190   -7.9500   28.7770 C   0  0  0  0  0  0  0  0  0  0  0  0
    1.0430   -8.5710   29.0640 O   0  0  0  0  0  0  0  0  0  0  0  0
   -0.1950   -7.9040   28.9010 C   0  0  0  0  0  0  0  0  0  0  0  0
    3.3540   -7.8930   29.7570 C   0  0  0  0  0  0  0  0  0  0  0  0
    3.3760   -8.4250   31.0110 O   0  0  0  0  0  0  0  0  0  0  0  0
    4.6100   -7.2150   29.4120 C   0  0  0  0  0  0  0  0  0  0  0  0
    5.5720   -4.7330   23.2520 C   0  0  0  0  0  0  0  0  0  0  0  0
    6.3590   -5.3070   22.2780 C   0  0  0  0  0  0  0  0  0  0  0  0
  1  2  1  0
  2  3  2  0
  2  4  1  0
  4  5  1  0
  5  6  1  0
  6  7  1  0
  7  8  1  0
  8  9  2  0
  8 10  1  0
 10 11  1  0
 12 11  1  6
 12 13  1  0
 13 14  1  0
 12 15  1  0
 15 16  1  0
 16 17  2  0
 17 18  1  0
 18 19  2  0
 19 20  1  0
 20 21  1  0
 19 22  1  0
 22 23  1  0
 16 24  1  0
 22 24  2  0
  7 25  1  0
  4 26  1  0
 25 26  1  0
M  END
