piperidine-amides-27040-covalent
     RDKit          3D

 24 24  0  0  0  0  0  0  0  0999 V2000
    7.1440   -3.2920   19.2030 C   0  0  0  0  0  0  0  0  0  0  0  0
    6.3490   -3.9870   20.2100 C   0  0  0  0  0  0  0  0  0  0  0  0
    5.2410   -4.4580   19.8430 O   0  0  0  0  0  0  0  0  0  0  0  0
    6.8590   -4.1490   21.4910 N   0  0  0  0  0  0  0  0  0  0  0  0
    7.7000   -3.1500   22.1060 C   0  0  0  0  0  0  0  0  0  0  0  0
    6.9970   -2.6380   23.3200 C   0  0  0  0  0  0  0  0  0  0  0  0
    6.5360   -3.7710   24.1960 C   0  0  0  0  0  0  0  0  0  0  0  0
    5.7700   -3.2710   25.3590 C   0  0  0  0  0  0  0  0  0  0  0  0
    4.5240   -3.2460   25.2500 O   0  0  0  0  0  0  0  0  0  0  0  0
    6.3380   -2.8140   26.5720 N   0  0  0  0  0  0  0  0  0  0  0  0
    6.7180   -1.4160   26.6180 C   0  0  0  0  0  0  0  0  0  0  0  0
    5.6170   -0.5680   27.2530 C   0  0  0  0  0  0  0  0  0  0  0  0
    5.2450    0.6970   26.8520 C   0  0  0  0  0  0  0  0  0  0  0  0
    5.8620    1.3490   25.7500 O   0  0  0  0  0  0  0  0  0  0  0  0
    4.2400    1.2450   27.6010 O   0  0  0  0  0  0  0  0  0  0  0  0
    3.0360    1.6790   27.0210 C   0  0  0  0  0  0  0  0  0  0  0  0
    5.7380   -3.4020   27.7480 C   0  0  0  0  0  0  0  0  0  0  0  0
    6.3770   -4.4220   28.4250 C   0  0  0  0  0  0  0  0  0  0  0  0
    5.9810   -5.7260   28.2290 C   0  0  0  0  0  0  0  0  0  0  0  0
    6.6200   -6.6620   28.9330 F   0  0  0  0  0  0  0  0  0  0  0  0
    6.0940   -6.2130   26.9810 F   0  0  0  0  0  0  0  0  0  0  0  0
    4.6510   -5.8380   28.5550 F   0  0  0  0  0  0  0  0  0  0  0  0
    5.6450   -4.7510   23.4180 C   0  0  0  0  0  0  0  0  0  0  0  0
    6.4670   -5.2980   22.2590 C   0  0  0  0  0  0  0  0  0  0  0  0
  1  2  1  0
  2  3  2  0
  2  4  1  0
  4  5  1  0
  5  6  1  0
  6  7  1  0
  7  8  1  0
  8  9  2  0
  8 10  1  0
 10 11  1  0
 11 12  1  0
 12 13  1  0
 13 14  2  0
 13 15  1  0
 15 16  1  0
 10 17  1  0
 17 18  1  0
 18 19  1  0
 19 20  1  0
 19 21  1  0
 19 22  1  0
  7 23  1  0
  4 24  1  0
 23 24  1  0
M  END
