piperidine-amides-3696-covalent
     RDKit          3D

 27 30  0  0  0  0  0  0  0  0999 V2000
    7.0860   -3.3400   19.3010 C   0  0  0  0  0  0  0  0  0  0  0  0
    6.4090   -4.1610   20.3140 C   0  0  0  0  0  0  0  0  0  0  0  0
    5.3470   -4.7230   19.9550 O   0  0  0  0  0  0  0  0  0  0  0  0
    6.9670   -4.3630   21.6060 N   0  0  0  0  0  0  0  0  0  0  0  0
    7.6620   -3.2730   22.2050 C   0  0  0  0  0  0  0  0  0  0  0  0
    7.2700   -3.0280   23.5840 C   0  0  0  0  0  0  0  0  0  0  0  0
    6.0100   -3.7070   23.9510 C   0  0  0  0  0  0  0  0  0  0  0  0
    5.4850   -3.2690   25.2810 C   0  0  0  0  0  0  0  0  0  0  0  0
    4.2570   -3.1320   25.4200 O   0  0  0  0  0  0  0  0  0  0  0  0
    6.3230   -3.0180   26.3690 N   0  0  0  0  0  0  0  0  0  0  0  0
    6.7010   -1.7810   26.9440 C   0  0  2  0  0  0  0  0  0  0  0  0
    6.9720   -1.7520   28.3620 C   0  0  0  0  0  0  0  0  0  0  0  0
    6.2320   -1.0100   29.1410 N   0  0  0  0  0  0  0  0  0  0  0  0
    5.2520   -1.4190   30.1050 C   0  0  0  0  0  0  0  0  0  0  0  0
    5.3660   -0.6140   31.2230 C   0  0  0  0  0  0  0  0  0  0  0  0
    6.8920   -0.3420   31.0970 C   0  0  0  0  0  0  0  0  0  0  0  0
    7.4180    0.5500   32.2100 C   0  0  0  0  0  0  0  0  0  0  0  0
    6.3260    0.9820   33.2040 C   0  0  0  0  0  0  0  0  0  0  0  0
    4.8650    0.6810   33.2620 C   0  0  0  0  0  0  0  0  0  0  0  0
    4.4490   -0.1980   32.1340 C   0  0  0  0  0  0  0  0  0  0  0  0
    5.8530   -0.0130   28.2470 C   0  0  0  0  0  0  0  0  0  0  0  0
    6.5770    1.2360   28.3810 C   0  0  0  0  0  0  0  0  0  0  0  0
    5.5160    1.8660   28.7960 C   0  0  0  0  0  0  0  0  0  0  0  0
    4.5920    0.8530   28.6370 C   0  0  0  0  0  0  0  0  0  0  0  0
    5.7490   -0.6130   26.8430 C   0  0  0  0  0  0  0  0  0  0  0  0
    6.1490   -5.1920   23.8020 C   0  0  0  0  0  0  0  0  0  0  0  0
    6.5580   -5.5080   22.3680 C   0  0  0  0  0  0  0  0  0  0  0  0
  1  2  1  0
  2  3  2  0
  2  4  1  0
  4  5  1  0
  5  6  1  0
  6  7  1  0
  7  8  1  0
  8  9  2  0
  8 10  1  0
 11 10  1  1
 11 12  1  0
 12 13  1  0
 13 14  1  0
 14 15  1  0
 15 16  2  0
 16 17  1  0
 17 18  2  0
 18 19  1  0
 15 20  1  0
 19 20  2  0
 21 13  1  0
 21 22  1  0
 22 23  1  0
 21 24  1  0
 23 24  1  0
 11 25  1  0
 21 25  1  0
  7 26  1  0
  4 27  1  0
 26 27  1  0
M  END
