piperidine-amides-28882-covalent
     RDKit          3D

 22 24  0  0  0  0  0  0  0  0999 V2000
    7.0770   -3.2830   19.2900 C   0  0  0  0  0  0  0  0  0  0  0  0
    6.3740   -4.0780   20.2980 C   0  0  0  0  0  0  0  0  0  0  0  0
    5.3560   -4.7040   19.9430 O   0  0  0  0  0  0  0  0  0  0  0  0
    6.8640   -4.1510   21.6290 N   0  0  0  0  0  0  0  0  0  0  0  0
    6.6490   -5.3580   22.3850 C   0  0  0  0  0  0  0  0  0  0  0  0
    6.0290   -5.0160   23.7070 C   0  0  0  0  0  0  0  0  0  0  0  0
    6.1330   -3.5150   23.8320 C   0  0  0  0  0  0  0  0  0  0  0  0
    5.8080   -3.0560   25.2210 C   0  0  0  0  0  0  0  0  0  0  0  0
    5.1100   -3.8130   25.8930 O   0  0  0  0  0  0  0  0  0  0  0  0
    6.2850   -1.8130   25.6440 N   0  0  0  0  0  0  0  0  0  0  0  0
    6.4180   -1.5050   26.9870 C   0  0  0  0  0  0  0  0  0  0  0  0
    5.5250   -0.4770   26.8400 C   0  0  0  0  0  0  0  0  0  0  0  0
    5.8700    0.7790   27.2880 C   0  0  0  0  0  0  0  0  0  0  0  0
    5.8130    1.8500   26.3750 C   0  0  0  0  0  0  0  0  0  0  0  0
    6.1960    3.2240   26.8710 C   0  0  0  0  0  0  0  0  0  0  0  0
    6.6300    3.4240   28.3290 C   0  0  0  0  0  0  0  0  0  0  0  0
    6.6580    2.2610   29.2050 C   0  0  0  0  0  0  0  0  0  0  0  0
    6.2620    0.9500   28.6150 C   0  0  0  0  0  0  0  0  0  0  0  0
    6.3260   -0.5470   29.8240 Br  0  0  0  0  0  0  0  0  0  0  0  0
    5.3570   -0.6610   25.4430 C   0  0  0  0  0  0  0  0  0  0  0  0
    7.5520   -3.1060   23.5400 C   0  0  0  0  0  0  0  0  0  0  0  0
    7.7210   -3.1140   22.1730 C   0  0  0  0  0  0  0  0  0  0  0  0
  1  2  1  0
  2  3  2  0
  2  4  1  0
  4  5  1  0
  5  6  1  0
  6  7  1  0
  7  8  1  0
  8  9  2  0
  8 10  1  0
 10 11  1  0
 11 12  1  0
 12 13  1  0
 13 14  2  0
 14 15  1  0
 15 16  2  0
 16 17  1  0
 13 18  1  0
 17 18  2  0
 18 19  1  0
 10 20  1  0
 12 20  1  0
  7 21  1  0
  4 22  1  0
 21 22  1  0
M  END
