piperidine-amides-15375-covalent
     RDKit          3D

 17 17  0  0  0  0  0  0  0  0999 V2000
    7.1310   -3.2560   19.2410 C   0  0  0  0  0  0  0  0  0  0  0  0
    6.3500   -4.0360   20.2140 C   0  0  0  0  0  0  0  0  0  0  0  0
    5.2710   -4.5640   19.8830 O   0  0  0  0  0  0  0  0  0  0  0  0
    6.8380   -4.2430   21.5040 N   0  0  0  0  0  0  0  0  0  0  0  0
    7.5570   -3.1800   22.1750 C   0  0  0  0  0  0  0  0  0  0  0  0
    6.6430   -2.6810   23.3010 C   0  0  0  0  0  0  0  0  0  0  0  0
    6.5420   -3.8440   24.2580 C   0  0  0  0  0  0  0  0  0  0  0  0
    5.7420   -3.4640   25.4400 C   0  0  0  0  0  0  0  0  0  0  0  0
    4.5830   -3.0360   25.2440 O   0  0  0  0  0  0  0  0  0  0  0  0
    6.2690   -3.5800   26.7540 N   0  0  0  0  0  0  0  0  0  0  0  0
    6.3450   -2.3860   27.5430 C   0  0  0  0  0  0  0  0  0  0  0  0
    6.6460   -1.2330   26.6160 C   0  0  0  0  0  0  0  0  0  0  0  0
    6.1540   -4.8610   27.4570 C   0  0  0  0  0  0  0  0  0  0  0  0
    6.8090   -4.9250   28.6600 C   0  0  0  0  0  0  0  0  0  0  0  0
    4.8910   -5.2890   27.3770 C   0  0  0  0  0  0  0  0  0  0  0  0
    5.9650   -5.0570   23.6270 C   0  0  0  0  0  0  0  0  0  0  0  0
    6.4730   -5.4160   22.2540 C   0  0  0  0  0  0  0  0  0  0  0  0
  1  2  1  0
  2  3  2  0
  2  4  1  0
  4  5  1  0
  5  6  1  0
  6  7  1  0
  7  8  1  0
  8  9  2  0
  8 10  1  0
 10 11  1  0
 11 12  1  0
 10 13  1  0
 13 14  1  0
 13 15  1  0
  7 16  1  0
  4 17  1  0
 16 17  1  0
M  END
