piperidine-amides-4409-covalent
     RDKit          3D

 25 26  0  0  0  0  0  0  0  0999 V2000
    7.1220   -3.3030   19.2860 C   0  0  0  0  0  0  0  0  0  0  0  0
    6.4090   -4.1180   20.2820 C   0  0  0  0  0  0  0  0  0  0  0  0
    5.3160   -4.6150   19.9160 O   0  0  0  0  0  0  0  0  0  0  0  0
    6.9670   -4.3880   21.5610 N   0  0  0  0  0  0  0  0  0  0  0  0
    6.4980   -5.4770   22.3160 C   0  0  0  0  0  0  0  0  0  0  0  0
    6.3090   -5.0950   23.7100 C   0  0  0  0  0  0  0  0  0  0  0  0
    5.8630   -3.6980   23.9270 C   0  0  0  0  0  0  0  0  0  0  0  0
    5.7070   -3.3610   25.3820 C   0  0  0  0  0  0  0  0  0  0  0  0
    4.7090   -2.7040   25.7360 O   0  0  0  0  0  0  0  0  0  0  0  0
    6.6520   -3.7640   26.3460 N   0  0  0  0  0  0  0  0  0  0  0  0
    6.4630   -4.5060   27.5430 C   0  0  2  0  0  0  0  0  0  0  0  0
    5.8830   -5.8350   27.4820 C   0  0  0  0  0  0  0  0  0  0  0  0
    4.6870   -5.9000   27.0620 O   0  0  0  0  0  0  0  0  0  0  0  0
    4.1370   -7.1480   27.2170 C   0  0  0  0  0  0  0  0  0  0  0  0
    5.6500   -3.7710   28.5660 C   0  0  0  0  0  0  0  0  0  0  0  0
    6.2050   -2.3560   28.8860 C   0  0  0  0  0  0  0  0  0  0  0  0
    5.4520   -1.5150   29.9190 C   0  0  0  0  0  0  0  0  0  0  0  0
    5.9730   -0.2400   30.1920 F   0  0  0  0  0  0  0  0  0  0  0  0
    4.2260   -2.2710   30.4730 C   0  0  0  0  0  0  0  0  0  0  0  0
    3.6140   -1.4310   31.3930 F   0  0  0  0  0  0  0  0  0  0  0  0
    3.7060   -3.6310   30.1560 C   0  0  0  0  0  0  0  0  0  0  0  0
    2.5700   -4.0860   30.7980 F   0  0  0  0  0  0  0  0  0  0  0  0
    4.5440   -4.3160   29.1390 C   0  0  0  0  0  0  0  0  0  0  0  0
    6.7250   -2.6260   23.2190 C   0  0  0  0  0  0  0  0  0  0  0  0
    7.6510   -3.2850   22.2540 C   0  0  0  0  0  0  0  0  0  0  0  0
  1  2  1  0
  2  3  2  0
  2  4  1  0
  4  5  1  0
  5  6  1  0
  6  7  1  0
  7  8  1  0
  8  9  2  0
  8 10  1  0
 10 11  1  0
 11 12  1  6
 12 13  1  0
 13 14  1  0
 11 15  1  0
 15 16  2  0
 16 17  1  0
 17 18  1  0
 17 19  2  0
 19 20  1  0
 19 21  1  0
 21 22  1  0
 15 23  1  0
 21 23  2  0
  7 24  1  0
  4 25  1  0
 24 25  1  0
M  END
