piperidine-amides-10830-covalent
     RDKit          3D

 22 23  0  0  0  0  0  0  0  0999 V2000
    7.0630   -3.2580   19.2490 C   0  0  0  0  0  0  0  0  0  0  0  0
    6.2940   -4.0070   20.2540 C   0  0  0  0  0  0  0  0  0  0  0  0
    5.2630   -4.5950   19.8940 O   0  0  0  0  0  0  0  0  0  0  0  0
    6.6970   -4.1280   21.5970 N   0  0  0  0  0  0  0  0  0  0  0  0
    6.5740   -5.3820   22.3080 C   0  0  0  0  0  0  0  0  0  0  0  0
    6.0090   -5.0440   23.6640 C   0  0  0  0  0  0  0  0  0  0  0  0
    5.8020   -3.5650   23.8630 C   0  0  0  0  0  0  0  0  0  0  0  0
    5.2070   -3.2130   25.1950 C   0  0  0  0  0  0  0  0  0  0  0  0
    4.0000   -3.5180   25.4170 O   0  0  0  0  0  0  0  0  0  0  0  0
    5.8540   -2.5400   26.2730 N   0  0  0  0  0  0  0  0  0  0  0  0
    6.8110   -3.2460   27.1410 C   0  0  1  0  0  0  0  0  0  0  0  0
    6.2910   -4.5930   27.4970 C   0  0  0  0  0  0  0  0  0  0  0  0
    8.0140   -3.4480   26.2660 C   0  0  0  0  0  0  0  0  0  0  0  0
    8.9200   -2.6180   26.4120 O   0  0  0  0  0  0  0  0  0  0  0  0
    7.9810   -4.4160   25.4340 O   0  0  0  0  0  0  0  0  0  0  0  0
    8.7940   -5.5050   25.5970 C   0  0  0  0  0  0  0  0  0  0  0  0
   10.1580   -4.8710   25.6390 C   0  0  0  0  0  0  0  0  0  0  0  0
   10.2400   -4.4830   27.0290 C   0  0  0  0  0  0  0  0  0  0  0  0
    9.3240   -5.1900   27.7350 C   0  0  0  0  0  0  0  0  0  0  0  0
    8.6410   -6.1130   26.9530 C   0  0  0  0  0  0  0  0  0  0  0  0
    7.0560   -2.7240   23.5610 C   0  0  0  0  0  0  0  0  0  0  0  0
    7.5420   -3.0840   22.1460 C   0  0  0  0  0  0  0  0  0  0  0  0
  1  2  1  0
  2  3  2  0
  2  4  1  0
  4  5  1  0
  5  6  1  0
  6  7  1  0
  7  8  1  0
  8  9  2  0
  8 10  1  0
 10 11  1  0
 11 12  1  6
 11 13  1  0
 13 14  2  0
 13 15  1  0
 15 16  1  0
 16 17  1  0
 17 18  1  0
 18 19  1  0
 16 20  1  0
 19 20  1  0
  7 21  1  0
  4 22  1  0
 21 22  1  0
M  END
