piperidine-amides-29201-covalent
     RDKit          3D

 27 30  0  0  0  0  0  0  0  0999 V2000
    7.0210   -3.3770   19.4430 C   0  0  0  0  0  0  0  0  0  0  0  0
    6.4090   -4.2850   20.4130 C   0  0  0  0  0  0  0  0  0  0  0  0
    5.4310   -4.9480   20.0140 O   0  0  0  0  0  0  0  0  0  0  0  0
    6.9430   -4.4350   21.7400 N   0  0  0  0  0  0  0  0  0  0  0  0
    7.5660   -3.3250   22.3870 C   0  0  0  0  0  0  0  0  0  0  0  0
    6.6150   -2.7470   23.4110 C   0  0  0  0  0  0  0  0  0  0  0  0
    6.1270   -3.8260   24.3800 C   0  0  0  0  0  0  0  0  0  0  0  0
    5.1590   -3.1990   25.3950 C   0  0  0  0  0  0  0  0  0  0  0  0
    4.4190   -2.3440   24.9400 O   0  0  0  0  0  0  0  0  0  0  0  0
    5.1540   -3.6160   26.7450 N   0  0  0  0  0  0  0  0  0  0  0  0
    6.2800   -4.2330   27.1170 C   0  0  0  0  0  0  0  0  0  0  0  0
    6.4010   -4.9060   28.3330 C   0  0  0  0  0  0  0  0  0  0  0  0
    5.4090   -4.6460   29.1950 C   0  0  0  0  0  0  0  0  0  0  0  0
    4.9450   -5.5830   30.1170 C   0  0  0  0  0  0  0  0  0  0  0  0
    5.5880   -6.9010   30.1430 C   0  0  0  0  0  0  0  0  0  0  0  0
    6.6350   -7.1890   29.3210 O   0  0  0  0  0  0  0  0  0  0  0  0
    4.9770   -7.6630   31.0620 N   0  0  0  0  0  0  0  0  0  0  0  0
    4.0240   -6.8890   31.6360 C   0  0  0  0  0  0  0  0  0  0  0  0
    3.1060   -7.3270   32.7440 C   0  0  0  0  0  0  0  0  0  0  0  0
    2.1280   -6.2540   33.2030 C   0  0  0  0  0  0  0  0  0  0  0  0
    2.2070   -4.8900   32.4850 C   0  0  0  0  0  0  0  0  0  0  0  0
    3.0960   -4.6380   31.4930 C   0  0  0  0  0  0  0  0  0  0  0  0
    3.9700   -5.5920   31.0800 C   0  0  0  0  0  0  0  0  0  0  0  0
    4.7990   -3.4150   29.1750 C   0  0  0  0  0  0  0  0  0  0  0  0
    4.5340   -2.8520   27.7870 C   0  0  0  0  0  0  0  0  0  0  0  0
    5.4390   -4.9530   23.5910 C   0  0  0  0  0  0  0  0  0  0  0  0
    6.4380   -5.5070   22.5500 C   0  0  0  0  0  0  0  0  0  0  0  0
  1  2  1  0
  2  3  2  0
  2  4  1  0
  4  5  1  0
  5  6  1  0
  6  7  1  0
  7  8  1  0
  8  9  2  0
  8 10  1  0
 10 11  1  0
 11 12  1  0
 12 13  1  0
 13 14  2  3
 14 15  1  0
 15 16  2  0
 15 17  1  0
 17 18  1  0
 18 19  1  0
 19 20  2  0
 20 21  1  0
 21 22  2  0
 14 23  1  0
 18 23  2  0
 22 23  1  0
 13 24  1  0
 10 25  1  0
 24 25  1  0
  7 26  1  0
  4 27  1  0
 26 27  1  0
M  END
