piperidine-amides-23489-covalent
     RDKit          3D

 24 26  0  0  0  0  0  0  0  0999 V2000
    7.0230   -3.3750   19.4080 C   0  0  0  0  0  0  0  0  0  0  0  0
    6.3930   -4.2410   20.4210 C   0  0  0  0  0  0  0  0  0  0  0  0
    5.4360   -4.9530   20.0120 O   0  0  0  0  0  0  0  0  0  0  0  0
    6.8630   -4.3030   21.7700 N   0  0  0  0  0  0  0  0  0  0  0  0
    6.5680   -5.4570   22.5550 C   0  0  0  0  0  0  0  0  0  0  0  0
    5.9770   -5.0990   23.8330 C   0  0  0  0  0  0  0  0  0  0  0  0
    5.9020   -3.6360   23.9940 C   0  0  0  0  0  0  0  0  0  0  0  0
    5.0370   -3.1920   25.1860 C   0  0  0  0  0  0  0  0  0  0  0  0
    3.8170   -3.1910   24.9920 O   0  0  0  0  0  0  0  0  0  0  0  0
    5.4610   -2.7950   26.4900 N   0  0  0  0  0  0  0  0  0  0  0  0
    6.5890   -3.2050   27.0660 C   0  0  0  0  0  0  0  0  0  0  0  0
    6.4430   -4.3140   28.0310 C   0  0  0  0  0  0  0  0  0  0  0  0
    5.3290   -4.3730   28.7760 N   0  0  0  0  0  0  0  0  0  0  0  0
    4.4100   -5.4830   28.8110 C   0  0  0  0  0  0  0  0  0  0  0  0
    3.2420   -5.1550   28.1630 C   0  0  0  0  0  0  0  0  0  0  0  0
    2.2960   -6.0790   28.1210 N   0  0  0  0  0  0  0  0  0  0  0  0
    2.3440   -7.4070   28.6820 C   0  0  0  0  0  0  0  0  0  0  0  0
    3.5690   -7.8640   29.4110 C   0  0  0  0  0  0  0  0  0  0  0  0
    4.6670   -6.7870   29.4530 C   0  0  0  0  0  0  0  0  0  0  0  0
    6.0210   -6.9210   30.1020 C   0  0  0  0  0  0  0  0  0  0  0  0
    4.7360   -3.1980   28.8710 C   0  0  0  0  0  0  0  0  0  0  0  0
    4.4490   -2.5720   27.4830 C   0  0  0  0  0  0  0  0  0  0  0  0
    7.2670   -3.0470   23.7950 C   0  0  0  0  0  0  0  0  0  0  0  0
    7.5340   -3.1560   22.4000 C   0  0  0  0  0  0  0  0  0  0  0  0
  1  2  1  0
  2  3  2  0
  2  4  1  0
  4  5  1  0
  5  6  1  0
  6  7  1  0
  7  8  1  0
  8  9  2  0
  8 10  1  0
 10 11  1  0
 11 12  1  0
 12 13  1  0
 13 14  1  0
 14 15  2  0
 15 16  1  0
 16 17  2  0
 17 18  1  0
 14 19  1  0
 18 19  2  0
 19 20  1  0
 13 21  1  0
 10 22  1  0
 21 22  1  0
  7 23  1  0
  4 24  1  0
 23 24  1  0
M  END
