piperidine-amides-10702-covalent
     RDKit          3D

 22 23  0  0  0  0  0  0  0  0999 V2000
    7.0320   -3.3340   19.3420 C   0  0  0  0  0  0  0  0  0  0  0  0
    6.3580   -4.1490   20.3600 C   0  0  0  0  0  0  0  0  0  0  0  0
    5.3640   -4.8190   19.9740 O   0  0  0  0  0  0  0  0  0  0  0  0
    6.8360   -4.1930   21.6770 N   0  0  0  0  0  0  0  0  0  0  0  0
    7.7280   -3.1810   22.1940 C   0  0  0  0  0  0  0  0  0  0  0  0
    7.4420   -3.0440   23.6530 C   0  0  0  0  0  0  0  0  0  0  0  0
    6.0930   -3.6170   23.9650 C   0  0  0  0  0  0  0  0  0  0  0  0
    5.6460   -3.2140   25.3170 C   0  0  0  0  0  0  0  0  0  0  0  0
    4.4140   -3.1410   25.5240 O   0  0  0  0  0  0  0  0  0  0  0  0
    6.5240   -2.9170   26.3740 N   0  0  0  0  0  0  0  0  0  0  0  0
    6.4910   -1.6580   27.0730 C   0  0  0  0  0  0  0  0  0  0  0  0
    7.0100   -1.6190   28.4970 C   0  0  0  0  0  0  0  0  0  0  0  0
    7.0290   -0.5010   29.2480 C   0  0  0  0  0  0  0  0  0  0  0  0
    6.5590    0.6600   28.7130 C   0  0  0  0  0  0  0  0  0  0  0  0
    6.0430    0.8570   27.4390 C   0  0  0  0  0  0  0  0  0  0  0  0
    5.5940    2.0740   26.9720 C   0  0  0  0  0  0  0  0  0  0  0  0
    6.4030    3.1930   27.0300 C   0  0  0  0  0  0  0  0  0  0  0  0
    5.3350    3.1600   28.0310 C   0  0  0  0  0  0  0  0  0  0  0  0
    4.5440    2.1740   26.0480 O   0  0  0  0  0  0  0  0  0  0  0  0
    5.9940   -0.3670   26.5410 C   0  0  0  0  0  0  0  0  0  0  0  0
    6.0570   -5.1440   23.7720 C   0  0  0  0  0  0  0  0  0  0  0  0
    6.7290   -5.4400   22.4310 C   0  0  0  0  0  0  0  0  0  0  0  0
  1  2  1  0
  2  3  2  0
  2  4  1  0
  4  5  1  0
  5  6  1  0
  6  7  1  0
  7  8  1  0
  8  9  2  0
  8 10  1  0
 10 11  1  0
 11 12  2  0
 12 13  1  0
 13 14  2  0
 14 15  1  0
 15 16  1  0
 16 17  1  0
 16 18  1  0
 16 19  1  0
 11 20  1  0
 15 20  2  0
  7 21  1  0
  4 22  1  0
 21 22  1  0
M  END
