piperidine-amides-31526-covalent
     RDKit          3D

 28 31  0  0  0  0  0  0  0  0999 V2000
    7.0950   -3.3380   19.4010 C   0  0  0  0  0  0  0  0  0  0  0  0
    6.4040   -4.1640   20.3670 C   0  0  0  0  0  0  0  0  0  0  0  0
    5.4190   -4.8730   19.9840 O   0  0  0  0  0  0  0  0  0  0  0  0
    6.8240   -4.2160   21.7080 N   0  0  0  0  0  0  0  0  0  0  0  0
    6.6770   -5.5130   22.4280 C   0  0  0  0  0  0  0  0  0  0  0  0
    6.0430   -5.1180   23.8370 C   0  0  0  0  0  0  0  0  0  0  0  0
    6.0840   -3.6110   23.9540 C   0  0  0  0  0  0  0  0  0  0  0  0
    5.2000   -3.0200   25.1460 C   0  0  0  0  0  0  0  0  0  0  0  0
    4.1330   -2.6290   24.6990 O   0  0  0  0  0  0  0  0  0  0  0  0
    5.7950   -3.0920   26.2690 N   0  0  0  0  0  0  0  0  0  0  0  0
    6.1660   -3.6470   27.4440 C   0  0  0  0  0  0  0  0  0  0  0  0
    5.8120   -4.7900   28.1000 C   0  0  0  0  0  0  0  0  0  0  0  0
    5.0930   -5.7380   27.3470 C   0  0  0  0  0  0  0  0  0  0  0  0
    4.5810   -7.0560   27.8420 C   0  0  0  0  0  0  0  0  0  0  0  0
    4.9630   -7.2370   29.3490 C   0  0  0  0  0  0  0  0  0  0  0  0
    5.6820   -6.2050   29.9320 C   0  0  0  0  0  0  0  0  0  0  0  0
    6.0900   -5.0280   29.3370 C   0  0  0  0  0  0  0  0  0  0  0  0
    5.9760   -6.3910   31.1410 O   0  0  0  0  0  0  0  0  0  0  0  0
    5.2860   -7.5510   31.4190 C   0  0  0  0  0  0  0  0  0  0  0  0
    4.7980   -8.0910   30.2460 O   0  0  0  0  0  0  0  0  0  0  0  0
    6.3490   -1.7730   26.6020 C   0  0  0  0  0  0  0  0  0  0  0  0
    7.1530   -1.4640   25.5480 C   0  0  0  0  0  0  0  0  0  0  0  0
    7.0330   -1.5970   27.9410 C   0  0  0  0  0  0  0  0  0  0  0  0
    6.5120   -0.5870   28.6580 C   0  0  0  0  0  0  0  0  0  0  0  0
    5.5760    0.0170   27.8890 C   0  0  0  0  0  0  0  0  0  0  0  0
    5.3640   -0.7960   26.7790 C   0  0  0  0  0  0  0  0  0  0  0  0
    7.3540   -2.9230   23.6200 C   0  0  0  0  0  0  0  0  0  0  0  0
    7.7610   -3.2740   22.2490 C   0  0  0  0  0  0  0  0  0  0  0  0
  1  2  1  0
  2  3  2  0
  2  4  1  0
  4  5  1  0
  5  6  1  0
  6  7  1  0
  7  8  1  0
  8  9  2  0
  8 10  1  0
 10 11  1  0
 11 12  1  0
 12 13  2  0
 13 14  1  0
 14 15  2  0
 15 16  1  0
 12 17  1  0
 16 17  2  0
 16 18  1  0
 18 19  1  0
 15 20  1  0
 19 20  1  0
 21 10  1  0
 21 22  1  0
 21 23  1  0
 23 24  1  0
 24 25  1  0
 21 26  1  0
 25 26  1  0
  7 27  1  0
  4 28  1  0
 27 28  1  0
M  END
