piperidine-amides-10363-covalent
     RDKit          3D

 24 26  0  0  0  0  0  0  0  0999 V2000
    7.0380   -3.3050   19.3300 C   0  0  0  0  0  0  0  0  0  0  0  0
    6.3620   -4.1210   20.3520 C   0  0  0  0  0  0  0  0  0  0  0  0
    5.3430   -4.7550   19.9630 O   0  0  0  0  0  0  0  0  0  0  0  0
    6.8510   -4.2180   21.6670 N   0  0  0  0  0  0  0  0  0  0  0  0
    6.6440   -5.4230   22.4410 C   0  0  0  0  0  0  0  0  0  0  0  0
    6.0640   -5.0650   23.7890 C   0  0  0  0  0  0  0  0  0  0  0  0
    6.0270   -3.5770   24.0260 C   0  0  0  0  0  0  0  0  0  0  0  0
    5.5610   -3.2810   25.4110 C   0  0  0  0  0  0  0  0  0  0  0  0
    4.3300   -3.3530   25.6060 O   0  0  0  0  0  0  0  0  0  0  0  0
    6.3840   -2.9210   26.5060 N   0  0  0  0  0  0  0  0  0  0  0  0
    6.3260   -3.6160   27.7820 C   0  0  0  0  0  0  0  0  0  0  0  0
    5.0150   -3.5200   28.5330 C   0  0  0  0  0  0  0  0  0  0  0  0
    4.1460   -2.4450   28.5250 C   0  0  0  0  0  0  0  0  0  0  0  0
    2.9540   -2.4380   29.2450 C   0  0  0  0  0  0  0  0  0  0  0  0
    2.6180   -3.5530   30.0030 C   0  0  0  0  0  0  0  0  0  0  0  0
    3.4860   -4.6120   30.0030 C   0  0  0  0  0  0  0  0  0  0  0  0
    4.6020   -4.5710   29.3080 C   0  0  0  0  0  0  0  0  0  0  0  0
    5.1480   -5.7530   29.5660 O   0  0  0  0  0  0  0  0  0  0  0  0
    4.5920   -6.7310   30.2460 C   0  0  0  0  0  0  0  0  0  0  0  0
    5.4940   -7.2910   31.3430 C   0  0  0  0  0  0  0  0  0  0  0  0
    4.0120   -7.7250   29.4840 C   0  0  0  0  0  0  0  0  0  0  0  0
    3.4330   -6.0010   30.7180 C   0  0  0  0  0  0  0  0  0  0  0  0
    7.3170   -2.9310   23.6890 C   0  0  0  0  0  0  0  0  0  0  0  0
    7.6650   -3.1600   22.2280 C   0  0  0  0  0  0  0  0  0  0  0  0
  1  2  1  0
  2  3  2  0
  2  4  1  0
  4  5  1  0
  5  6  1  0
  6  7  1  0
  7  8  1  0
  8  9  2  0
  8 10  1  0
 10 11  1  0
 11 12  1  0
 12 13  2  0
 13 14  1  0
 14 15  2  0
 15 16  1  0
 12 17  1  0
 16 17  2  0
 17 18  1  0
 18 19  1  0
 19 20  1  0
 19 21  1  0
 16 22  1  0
 19 22  1  0
  7 23  1  0
  4 24  1  0
 23 24  1  0
M  END
