piperidine-amides-11544-covalent
     RDKit          3D

 19 20  0  0  0  0  0  0  0  0999 V2000
    7.1380   -3.2940   19.1870 C   0  0  0  0  0  0  0  0  0  0  0  0
    6.3470   -4.0020   20.1920 C   0  0  0  0  0  0  0  0  0  0  0  0
    5.2690   -4.5250   19.8720 O   0  0  0  0  0  0  0  0  0  0  0  0
    6.8260   -4.1470   21.4990 N   0  0  0  0  0  0  0  0  0  0  0  0
    7.7170   -3.1840   22.1000 C   0  0  0  0  0  0  0  0  0  0  0  0
    6.9860   -2.6710   23.3000 C   0  0  0  0  0  0  0  0  0  0  0  0
    6.5270   -3.7940   24.1700 C   0  0  0  0  0  0  0  0  0  0  0  0
    5.8160   -3.3140   25.3750 C   0  0  0  0  0  0  0  0  0  0  0  0
    4.5500   -3.2680   25.4000 O   0  0  0  0  0  0  0  0  0  0  0  0
    6.5080   -2.8690   26.5220 N   0  0  0  0  0  0  0  0  0  0  0  0
    6.1800   -3.3710   27.8760 C   0  0  0  0  0  0  0  0  0  0  0  0
    5.6490   -4.7480   27.7770 C   0  0  1  0  0  0  0  0  0  0  0  0
    6.3780   -5.6930   28.6740 C   0  0  0  0  0  0  0  0  0  0  0  0
    5.4590   -6.3190   29.6840 C   0  0  2  0  0  0  0  0  0  0  0  0
    5.4200   -7.8240   29.5520 C   0  0  0  0  0  0  0  0  0  0  0  0
    4.1760   -5.7160   29.1620 C   0  0  0  0  0  0  0  0  0  0  0  0
    4.4240   -4.9020   28.1030 O   0  0  0  0  0  0  0  0  0  0  0  0
    5.6770   -4.7620   23.3690 C   0  0  0  0  0  0  0  0  0  0  0  0
    6.3810   -5.2740   22.2760 C   0  0  0  0  0  0  0  0  0  0  0  0
  1  2  1  0
  2  3  2  0
  2  4  1  0
  4  5  1  0
  5  6  1  0
  6  7  1  0
  7  8  1  0
  8  9  2  0
  8 10  1  0
 10 11  1  0
 12 11  1  1
 12 13  1  0
 13 14  1  0
 14 15  1  6
 14 16  1  0
 12 17  1  0
 16 17  1  0
  7 18  1  0
  4 19  1  0
 18 19  1  0
M  END
