piperidine-amides-17047-covalent
     RDKit          3D

 20 22  0  0  0  0  0  0  0  0999 V2000
    7.0720   -3.3840   19.3960 C   0  0  0  0  0  0  0  0  0  0  0  0
    6.4190   -4.2260   20.4150 C   0  0  0  0  0  0  0  0  0  0  0  0
    5.4360   -4.9000   20.0090 O   0  0  0  0  0  0  0  0  0  0  0  0
    6.9010   -4.3060   21.7630 N   0  0  0  0  0  0  0  0  0  0  0  0
    6.5430   -5.4600   22.5300 C   0  0  0  0  0  0  0  0  0  0  0  0
    5.9560   -5.1150   23.8220 C   0  0  0  0  0  0  0  0  0  0  0  0
    5.8400   -3.6590   24.0030 C   0  0  0  0  0  0  0  0  0  0  0  0
    4.9620   -3.2270   25.1810 C   0  0  0  0  0  0  0  0  0  0  0  0
    3.7450   -3.1970   24.9690 O   0  0  0  0  0  0  0  0  0  0  0  0
    5.3610   -2.8630   26.4980 N   0  0  0  0  0  0  0  0  0  0  0  0
    6.5590   -3.1530   27.0390 C   0  0  0  0  0  0  0  0  0  0  0  0
    6.4020   -4.1670   28.0820 C   0  0  2  0  0  0  0  0  0  0  0  0
    6.4370   -5.4210   27.7530 O   0  0  0  0  0  0  0  0  0  0  0  0
    5.3260   -6.0930   28.1550 C   0  0  0  0  0  0  0  0  0  0  0  0
    5.1150   -7.3180   28.0340 O   0  0  0  0  0  0  0  0  0  0  0  0
    4.5070   -5.1920   28.6980 O   0  0  0  0  0  0  0  0  0  0  0  0
    5.0690   -3.9040   28.6260 C   0  0  2  0  0  0  0  0  0  0  0  0
    4.3520   -3.0160   27.5840 C   0  0  0  0  0  0  0  0  0  0  0  0
    7.1270   -2.9370   23.8270 C   0  0  0  0  0  0  0  0  0  0  0  0
    7.5490   -3.1240   22.3430 C   0  0  0  0  0  0  0  0  0  0  0  0
  1  2  1  0
  2  3  2  0
  2  4  1  0
  4  5  1  0
  5  6  1  0
  6  7  1  0
  7  8  1  0
  8  9  2  0
  8 10  1  0
 10 11  1  0
 12 11  1  6
 12 13  1  0
 13 14  1  0
 14 15  2  0
 14 16  1  0
 12 17  1  0
 16 17  1  0
 10 18  1  0
 17 18  1  6
  7 19  1  0
  4 20  1  0
 19 20  1  0
M  END
