piperidine-amides-33298-covalent
     RDKit          3D

 29 31  0  0  0  0  0  0  0  0999 V2000
    7.0310   -3.3900   19.4530 C   0  0  0  0  0  0  0  0  0  0  0  0
    6.4160   -4.2990   20.4350 C   0  0  0  0  0  0  0  0  0  0  0  0
    5.4330   -4.9670   20.0160 O   0  0  0  0  0  0  0  0  0  0  0  0
    6.9320   -4.4500   21.7630 N   0  0  0  0  0  0  0  0  0  0  0  0
    6.4600   -5.5380   22.5550 C   0  0  0  0  0  0  0  0  0  0  0  0
    5.9760   -5.1450   23.8940 C   0  0  0  0  0  0  0  0  0  0  0  0
    5.9000   -3.6780   24.0860 C   0  0  0  0  0  0  0  0  0  0  0  0
    5.1210   -3.1650   25.3010 C   0  0  0  0  0  0  0  0  0  0  0  0
    4.4190   -2.1670   25.1080 O   0  0  0  0  0  0  0  0  0  0  0  0
    5.0960   -3.6950   26.6250 N   0  0  0  0  0  0  0  0  0  0  0  0
    4.1220   -3.4380   27.6180 C   0  0  0  0  0  0  0  0  0  0  0  0
    4.5130   -2.8250   28.8830 C   0  0  0  0  0  0  0  0  0  0  0  0
    5.9970   -2.5640   28.7200 C   0  0  0  0  0  0  0  0  0  0  0  0
    6.5340   -1.7000   29.6780 C   0  0  2  0  0  0  0  0  0  0  0  0
    5.6070   -0.5520   29.2000 C   0  0  0  0  0  0  0  0  0  0  0  0
    6.2720    0.3680   30.1790 C   0  0  0  0  0  0  0  0  0  0  0  0
    7.5510    0.0600   30.2840 N   0  0  0  0  0  0  0  0  0  0  0  0
    8.5260    0.9890   30.3180 C   0  0  0  0  0  0  0  0  0  0  0  0
    9.2220    1.3410   29.1640 O   0  0  0  0  0  0  0  0  0  0  0  0
    8.8660    1.6120   31.3620 O   0  0  0  0  0  0  0  0  0  0  0  0
   10.2440    1.8470   31.7540 C   0  0  0  0  0  0  0  0  0  0  0  0
   10.7740    0.6600   32.5370 C   0  0  0  0  0  0  0  0  0  0  0  0
   10.6230    3.0670   32.5620 C   0  0  0  0  0  0  0  0  0  0  0  0
   11.1120    1.9510   30.5280 C   0  0  0  0  0  0  0  0  0  0  0  0
    7.8600   -1.0690   29.5130 C   0  0  0  0  0  0  0  0  0  0  0  0
    6.5660   -3.7640   28.5730 C   0  0  0  0  0  0  0  0  0  0  0  0
    6.3190   -4.1170   27.1320 C   0  0  0  0  0  0  0  0  0  0  0  0
    7.2430   -3.0680   23.8210 C   0  0  0  0  0  0  0  0  0  0  0  0
    7.6300   -3.3400   22.3690 C   0  0  0  0  0  0  0  0  0  0  0  0
  1  2  1  0
  2  3  2  0
  2  4  1  0
  4  5  1  0
  5  6  1  0
  6  7  1  0
  7  8  1  0
  8  9  2  0
  8 10  1  0
 10 11  1  0
 11 12  1  0
 12 13  1  0
 14 13  1  6
 14 15  1  0
 15 16  1  0
 16 17  1  0
 17 18  1  0
 18 19  2  0
 18 20  1  0
 21 20  1  0
 21 22  1  0
 21 23  1  0
 21 24  1  0
 14 25  1  0
 17 25  1  0
 13 26  1  0
 10 27  1  0
 26 27  1  0
  7 28  1  0
  4 29  1  0
 28 29  1  0
M  END
