piperidine-amides-11667-covalent
     RDKit          3D

 30 32  0  0  0  0  0  0  0  0999 V2000
    7.0530   -3.3300   19.3410 C   0  0  0  0  0  0  0  0  0  0  0  0
    6.3620   -4.1730   20.3130 C   0  0  0  0  0  0  0  0  0  0  0  0
    5.3730   -4.8220   19.9710 O   0  0  0  0  0  0  0  0  0  0  0  0
    6.8510   -4.2820   21.6590 N   0  0  0  0  0  0  0  0  0  0  0  0
    7.7300   -3.2630   22.1890 C   0  0  0  0  0  0  0  0  0  0  0  0
    7.4810   -3.0620   23.6520 C   0  0  0  0  0  0  0  0  0  0  0  0
    6.0850   -3.5790   23.9370 C   0  0  0  0  0  0  0  0  0  0  0  0
    5.6900   -3.2200   25.3230 C   0  0  0  0  0  0  0  0  0  0  0  0
    4.5290   -3.3690   25.7530 O   0  0  0  0  0  0  0  0  0  0  0  0
    6.6820   -2.6750   26.1640 N   0  0  0  0  0  0  0  0  0  0  0  0
    6.4220   -1.4200   26.8300 C   0  0  0  0  0  0  0  0  0  0  0  0
    6.6670   -1.4000   28.3140 C   0  0  0  0  0  0  0  0  0  0  0  0
    6.4100   -0.2140   28.9510 C   0  0  0  0  0  0  0  0  0  0  0  0
    6.6580   -0.1940   30.7130 S   0  0  0  0  0  0  0  0  0  0  0  0
    6.7230    1.2380   31.1270 O   0  0  0  0  0  0  0  0  0  0  0  0
    7.9060   -0.8680   31.1030 O   0  0  0  0  0  0  0  0  0  0  0  0
    5.2750   -0.9910   31.4140 N   0  0  0  0  0  0  0  0  0  0  0  0
    4.0010   -0.3570   31.2480 C   0  0  0  0  0  0  0  0  0  0  0  0
    4.0250    1.0010   30.9800 C   0  0  0  0  0  0  0  0  0  0  0  0
    2.7690    1.6840   30.8040 C   0  0  0  0  0  0  0  0  0  0  0  0
    1.5790    1.0340   30.8960 C   0  0  0  0  0  0  0  0  0  0  0  0
    1.5590   -0.3160   31.1630 C   0  0  0  0  0  0  0  0  0  0  0  0
    0.0310   -1.1690   31.2850 Cl  0  0  0  0  0  0  0  0  0  0  0  0
    2.7740   -1.0040   31.3380 C   0  0  0  0  0  0  0  0  0  0  0  0
    5.9760    0.8800   28.2950 C   0  0  0  0  0  0  0  0  0  0  0  0
    5.7430    0.9060   26.9420 C   0  0  0  0  0  0  0  0  0  0  0  0
    5.9590   -0.2460   26.1920 C   0  0  0  0  0  0  0  0  0  0  0  0
    5.7410   -0.2570   24.9420 O   0  0  0  0  0  0  0  0  0  0  0  0
    6.0340   -5.0830   23.7670 C   0  0  0  0  0  0  0  0  0  0  0  0
    6.6630   -5.4920   22.4240 C   0  0  0  0  0  0  0  0  0  0  0  0
  1  2  1  0
  2  3  2  0
  2  4  1  0
  4  5  1  0
  5  6  1  0
  6  7  1  0
  7  8  1  0
  8  9  2  0
  8 10  1  0
 10 11  1  0
 11 12  2  0
 12 13  1  0
 13 14  1  0
 14 15  2  0
 14 16  2  0
 14 17  1  0
 17 18  1  0
 18 19  2  0
 19 20  1  0
 20 21  2  0
 21 22  1  0
 22 23  1  0
 18 24  1  0
 22 24  2  0
 13 25  2  0
 25 26  1  0
 11 27  1  0
 26 27  2  0
 27 28  1  0
  7 29  1  0
  4 30  1  0
 29 30  1  0
M  END
