piperidine-amides-19684-covalent
     RDKit          3D

 22 24  0  0  0  0  0  0  0  0999 V2000
    7.1000   -3.3000   19.2370 C   0  0  0  0  0  0  0  0  0  0  0  0
    6.3700   -4.1140   20.2410 C   0  0  0  0  0  0  0  0  0  0  0  0
    5.2970   -4.5960   19.8970 O   0  0  0  0  0  0  0  0  0  0  0  0
    6.9300   -4.3620   21.4910 N   0  0  0  0  0  0  0  0  0  0  0  0
    6.5570   -5.5270   22.2380 C   0  0  0  0  0  0  0  0  0  0  0  0
    5.7430   -5.0750   23.4060 C   0  0  0  0  0  0  0  0  0  0  0  0
    6.5610   -4.0590   24.2000 C   0  0  0  0  0  0  0  0  0  0  0  0
    5.6820   -3.5690   25.2770 C   0  0  0  0  0  0  0  0  0  0  0  0
    4.5980   -3.0650   24.9630 O   0  0  0  0  0  0  0  0  0  0  0  0
    6.0100   -3.6550   26.6370 N   0  0  0  0  0  0  0  0  0  0  0  0
    5.0620   -4.3920   27.4240 C   0  0  0  0  0  0  0  0  0  0  0  0
    5.8040   -4.9240   28.6140 C   0  0  0  0  0  0  0  0  0  0  0  0
    6.8530   -4.0930   28.8720 O   0  0  0  0  0  0  0  0  0  0  0  0
    6.8760   -2.7830   28.6480 C   0  0  2  0  0  0  0  0  0  0  0  0
    5.9280   -2.1220   29.3600 C   0  0  0  0  0  0  0  0  0  0  0  0
    6.2920   -1.1450   30.1700 C   0  0  0  0  0  0  0  0  0  0  0  0
    5.1210   -0.5800   30.8280 C   0  0  0  0  0  0  0  0  0  0  0  0
    4.0870   -1.3090   30.3240 N   0  0  0  0  0  0  0  0  0  0  0  0
    4.5550   -2.2590   29.4250 N   0  0  0  0  0  0  0  0  0  0  0  0
    6.4960   -2.4870   27.2390 C   0  0  0  0  0  0  0  0  0  0  0  0
    7.0750   -2.9090   23.4370 C   0  0  0  0  0  0  0  0  0  0  0  0
    7.6330   -3.2810   22.1200 C   0  0  0  0  0  0  0  0  0  0  0  0
  1  2  1  0
  2  3  2  0
  2  4  1  0
  4  5  1  0
  5  6  1  0
  6  7  1  0
  7  8  1  0
  8  9  2  0
  8 10  1  0
 10 11  1  0
 11 12  1  0
 12 13  1  0
 13 14  1  0
 14 15  1  1
 15 16  1  0
 16 17  2  0
 17 18  1  0
 15 19  2  0
 18 19  1  0
 10 20  1  0
 14 20  1  0
  7 21  1  0
  4 22  1  0
 21 22  1  0
M  END
