piperidine-amides-12562-covalent
     RDKit          3D

 23 25  0  0  0  0  0  0  0  0999 V2000
    7.1140   -3.2940   19.1890 C   0  0  0  0  0  0  0  0  0  0  0  0
    6.3160   -3.9960   20.2140 C   0  0  0  0  0  0  0  0  0  0  0  0
    5.2260   -4.4680   19.8460 O   0  0  0  0  0  0  0  0  0  0  0  0
    6.8030   -4.1750   21.5130 N   0  0  0  0  0  0  0  0  0  0  0  0
    7.5540   -3.1410   22.1540 C   0  0  0  0  0  0  0  0  0  0  0  0
    7.0790   -2.7680   23.4860 C   0  0  0  0  0  0  0  0  0  0  0  0
    6.4640   -3.8660   24.2610 C   0  0  0  0  0  0  0  0  0  0  0  0
    5.6870   -3.3300   25.4130 C   0  0  0  0  0  0  0  0  0  0  0  0
    4.4760   -3.1070   25.2330 O   0  0  0  0  0  0  0  0  0  0  0  0
    6.2700   -3.0700   26.6770 N   0  0  0  0  0  0  0  0  0  0  0  0
    6.2670   -4.0660   27.7850 C   0  0  0  0  0  0  0  0  0  0  0  0
    5.2290   -3.8230   28.8160 C   0  0  0  0  0  0  0  0  0  0  0  0
    4.1740   -4.7450   29.1830 C   0  0  0  0  0  0  0  0  0  0  0  0
    3.2580   -4.4500   30.1470 C   0  0  0  0  0  0  0  0  0  0  0  0
    3.3460   -3.2320   30.7890 C   0  0  0  0  0  0  0  0  0  0  0  0
    4.2860   -2.3580   30.4910 C   0  0  0  0  0  0  0  0  0  0  0  0
    5.2790   -2.4950   29.5540 C   0  0  0  0  0  0  0  0  0  0  0  0
    4.0780   -1.2850   31.3100 C   0  0  0  0  0  0  0  0  0  0  0  0
    3.0160   -1.8170   32.1220 C   0  0  2  0  0  0  0  0  0  0  0  0
    3.4290   -2.1080   33.5130 C   0  0  0  0  0  0  0  0  0  0  0  0
    2.5090   -2.9130   31.7060 O   0  0  0  0  0  0  0  0  0  0  0  0
    5.6180   -4.7920   23.4580 C   0  0  0  0  0  0  0  0  0  0  0  0
    6.4070   -5.3170   22.2980 C   0  0  0  0  0  0  0  0  0  0  0  0
  1  2  1  0
  2  3  2  0
  2  4  1  0
  4  5  1  0
  5  6  1  0
  6  7  1  0
  7  8  1  0
  8  9  2  0
  8 10  1  0
 10 11  1  0
 11 12  1  0
 12 13  2  0
 13 14  1  0
 14 15  2  0
 15 16  1  0
 12 17  1  0
 16 17  2  0
 16 18  1  0
 18 19  1  0
 19 20  1  1
 15 21  1  0
 19 21  1  0
  7 22  1  0
  4 23  1  0
 22 23  1  0
M  END
