piperidine-amides-24008-covalent
     RDKit          3D

 24 25  0  0  0  0  0  0  0  0999 V2000
    7.1080   -3.3310   19.2980 C   0  0  0  0  0  0  0  0  0  0  0  0
    6.4340   -4.1610   20.3070 C   0  0  0  0  0  0  0  0  0  0  0  0
    5.3760   -4.7440   19.9600 O   0  0  0  0  0  0  0  0  0  0  0  0
    7.0060   -4.3230   21.5900 N   0  0  0  0  0  0  0  0  0  0  0  0
    6.5350   -5.4020   22.3930 C   0  0  0  0  0  0  0  0  0  0  0  0
    5.8040   -4.9260   23.5480 C   0  0  0  0  0  0  0  0  0  0  0  0
    6.0790   -3.4980   23.7750 C   0  0  0  0  0  0  0  0  0  0  0  0
    5.5480   -3.0020   25.0770 C   0  0  0  0  0  0  0  0  0  0  0  0
    4.4080   -2.5070   25.1190 O   0  0  0  0  0  0  0  0  0  0  0  0
    6.2870   -3.0910   26.2560 N   0  0  0  0  0  0  0  0  0  0  0  0
    6.4270   -1.9760   27.1440 C   0  0  0  0  0  0  0  0  0  0  0  0
    7.2880   -1.9410   28.3030 C   0  0  0  0  0  0  0  0  0  0  0  0
    7.3810   -0.6850   29.2380 C   0  0  0  0  0  0  0  0  0  0  0  0
    6.5880    0.4460   28.9050 C   0  0  0  0  0  0  0  0  0  0  0  0
    5.7280    0.2750   27.6470 C   0  0  0  0  0  0  0  0  0  0  0  0
    5.7230   -0.9040   26.8890 N   0  0  0  0  0  0  0  0  0  0  0  0
    6.4730   -4.4320   26.7620 C   0  0  2  0  0  0  0  0  0  0  0  0
    6.7450   -4.6000   28.2570 C   0  0  0  0  0  0  0  0  0  0  0  0
    6.4820   -5.9820   28.8170 C   0  0  0  0  0  0  0  0  0  0  0  0
    7.5770   -5.3300   26.3400 C   0  0  0  0  0  0  0  0  0  0  0  0
    8.6540   -4.9520   26.7880 O   0  0  0  0  0  0  0  0  0  0  0  0
    9.0980   -5.6490   27.9020 C   0  0  0  0  0  0  0  0  0  0  0  0
    7.5340   -3.2570   23.5790 C   0  0  0  0  0  0  0  0  0  0  0  0
    7.7230   -3.1980   22.1960 C   0  0  0  0  0  0  0  0  0  0  0  0
  1  2  1  0
  2  3  2  0
  2  4  1  0
  4  5  1  0
  5  6  1  0
  6  7  1  0
  7  8  1  0
  8  9  2  0
  8 10  1  0
 10 11  1  0
 11 12  2  0
 12 13  1  0
 13 14  2  0
 14 15  1  0
 11 16  1  0
 15 16  2  0
 10 17  1  0
 17 18  1  1
 18 19  1  0
 17 20  1  0
 20 21  1  0
 21 22  1  0
  7 23  1  0
  4 24  1  0
 23 24  1  0
M  END
