piperidine-amides-25141-covalent
     RDKit          3D

 23 26  0  0  0  0  0  0  0  0999 V2000
    7.1120   -3.2950   19.1700 C   0  0  0  0  0  0  0  0  0  0  0  0
    6.4040   -4.0750   20.2180 C   0  0  0  0  0  0  0  0  0  0  0  0
    5.3420   -4.6130   19.9100 O   0  0  0  0  0  0  0  0  0  0  0  0
    6.9810   -4.2170   21.4740 N   0  0  0  0  0  0  0  0  0  0  0  0
    6.7450   -5.3790   22.2820 C   0  0  0  0  0  0  0  0  0  0  0  0
    6.1120   -4.9370   23.5660 C   0  0  0  0  0  0  0  0  0  0  0  0
    6.8710   -3.7320   24.1460 C   0  0  0  0  0  0  0  0  0  0  0  0
    6.0400   -3.1900   25.2180 C   0  0  0  0  0  0  0  0  0  0  0  0
    5.2130   -2.3000   24.9910 O   0  0  0  0  0  0  0  0  0  0  0  0
    6.1610   -3.7090   26.4860 N   0  0  0  0  0  0  0  0  0  0  0  0
    5.6970   -5.0660   26.5010 C   0  0  0  0  0  0  0  0  0  0  0  0
    4.4280   -4.7310   27.1330 C   0  0  2  0  0  0  0  0  0  0  0  0
    4.5270   -3.6120   27.9200 C   0  0  2  0  0  0  0  0  0  0  0  0
    5.6650   -2.9410   27.5870 C   0  0  0  0  0  0  0  0  0  0  0  0
    4.8020   -4.4750   29.0670 C   0  0  2  0  0  0  0  0  0  0  0  0
    6.2030   -4.8890   29.0250 C   0  0  0  0  0  0  0  0  0  0  0  0
    6.3730   -6.5260   29.4270 S   0  0  0  0  0  0  0  0  0  0  0  0
    7.4350   -7.1500   28.6330 O   0  0  0  0  0  0  0  0  0  0  0  0
    6.3980   -6.7510   30.9050 O   0  0  0  0  0  0  0  0  0  0  0  0
    4.7080   -6.8430   28.8620 C   0  0  0  0  0  0  0  0  0  0  0  0
    3.9970   -5.5460   28.4020 C   0  0  2  0  0  0  0  0  0  0  0  0
    7.2490   -2.6630   23.2260 C   0  0  0  0  0  0  0  0  0  0  0  0
    7.8320   -3.1700   21.9750 C   0  0  0  0  0  0  0  0  0  0  0  0
  1  2  1  0
  2  3  2  0
  2  4  1  0
  4  5  1  0
  5  6  1  0
  6  7  1  0
  7  8  1  0
  8  9  2  0
  8 10  1  0
 10 11  1  0
 12 11  1  1
 12 13  1  0
 10 14  1  0
 13 14  1  6
 13 15  1  0
 15 16  1  6
 17 16  1  0
 17 18  2  0
 17 19  2  0
 17 20  1  0
 12 21  1  0
 15 21  1  0
 21 20  1  6
  7 22  1  0
  4 23  1  0
 22 23  1  0
M  END
