piperidine-amides-34967-covalent
     RDKit          3D

 31 33  0  0  0  0  0  0  0  0999 V2000
    7.0960   -3.2740   19.1880 C   0  0  0  0  0  0  0  0  0  0  0  0
    6.3520   -4.0440   20.2220 C   0  0  0  0  0  0  0  0  0  0  0  0
    5.2870   -4.5530   19.8800 O   0  0  0  0  0  0  0  0  0  0  0  0
    6.8780   -4.2130   21.5010 N   0  0  0  0  0  0  0  0  0  0  0  0
    6.5510   -5.3500   22.3220 C   0  0  0  0  0  0  0  0  0  0  0  0
    5.8790   -4.8700   23.5790 C   0  0  0  0  0  0  0  0  0  0  0  0
    6.7560   -3.8080   24.2550 C   0  0  0  0  0  0  0  0  0  0  0  0
    6.0950   -3.3780   25.4960 C   0  0  0  0  0  0  0  0  0  0  0  0
    4.8590   -3.2460   25.5320 O   0  0  0  0  0  0  0  0  0  0  0  0
    6.8860   -3.1130   26.6320 N   0  0  0  0  0  0  0  0  0  0  0  0
    7.7130   -4.1730   27.1630 C   0  0  0  0  0  0  0  0  0  0  0  0
    6.8120   -5.3490   27.4640 C   0  0  0  0  0  0  0  0  0  0  0  0
    6.9780   -6.0880   28.5930 C   0  0  0  0  0  0  0  0  0  0  0  0
    6.9600   -1.8290   27.2390 C   0  0  0  0  0  0  0  0  0  0  0  0
    8.1310   -1.1460   27.0390 C   0  0  0  0  0  0  0  0  0  0  0  0
    7.7880    0.0690   26.6590 N   0  0  0  0  0  0  0  0  0  0  0  0
    7.4890    0.9610   28.1000 S   0  0  0  0  0  0  0  0  0  0  0  0
    8.7490    0.9970   28.8980 O   0  0  0  0  0  0  0  0  0  0  0  0
    6.3830    0.3300   28.8960 O   0  0  0  0  0  0  0  0  0  0  0  0
    7.0190    2.6320   27.7260 C   0  0  0  0  0  0  0  0  0  0  0  0
    7.0850    3.1100   26.2920 C   0  0  0  0  0  0  0  0  0  0  0  0
    6.6890    4.5370   25.9330 C   0  0  0  0  0  0  0  0  0  0  0  0
    6.2390    5.4210   27.0510 C   0  0  0  0  0  0  0  0  0  0  0  0
    6.1820    4.9300   28.4440 C   0  0  0  0  0  0  0  0  0  0  0  0
    5.7340    5.7670   29.6370 C   0  0  0  0  0  0  0  0  0  0  0  0
    5.6730    5.3440   30.9040 N   0  0  0  0  0  0  0  0  0  0  0  0
    6.0320    4.0840   31.1580 C   0  0  0  0  0  0  0  0  0  0  0  0
    6.4880    3.1910   30.0310 C   0  0  0  0  0  0  0  0  0  0  0  0
    6.5840    3.5290   28.7170 C   0  0  0  0  0  0  0  0  0  0  0  0
    7.0100   -2.6820   23.3060 C   0  0  0  0  0  0  0  0  0  0  0  0
    7.7580   -3.1900   22.0850 C   0  0  0  0  0  0  0  0  0  0  0  0
  1  2  1  0
  2  3  2  0
  2  4  1  0
  4  5  1  0
  5  6  1  0
  6  7  1  0
  7  8  1  0
  8  9  2  0
  8 10  1  0
 10 11  1  0
 11 12  1  0
 12 13  1  0
 10 14  1  0
 14 15  1  0
 15 16  1  0
 17 16  1  0
 17 18  2  0
 17 19  2  0
 17 20  1  0
 20 21  2  0
 21 22  1  0
 22 23  2  0
 23 24  1  0
 24 25  1  0
 25 26  2  0
 26 27  1  0
 27 28  2  0
 20 29  1  0
 24 29  2  0
 28 29  1  0
  7 30  1  0
  4 31  1  0
 30 31  1  0
M  END
