piperidine-amides-10526-covalent
     RDKit          3D

 23 24  0  0  0  0  0  0  0  0999 V2000
    7.0750   -3.2910   19.2590 C   0  0  0  0  0  0  0  0  0  0  0  0
    6.3510   -4.0750   20.2650 C   0  0  0  0  0  0  0  0  0  0  0  0
    5.2690   -4.5950   19.8980 O   0  0  0  0  0  0  0  0  0  0  0  0
    6.8940   -4.2560   21.5400 N   0  0  0  0  0  0  0  0  0  0  0  0
    7.6010   -3.2010   22.2040 C   0  0  0  0  0  0  0  0  0  0  0  0
    6.7190   -2.7230   23.3150 C   0  0  0  0  0  0  0  0  0  0  0  0
    6.2920   -3.8530   24.2250 C   0  0  0  0  0  0  0  0  0  0  0  0
    5.3510   -3.3380   25.2520 C   0  0  0  0  0  0  0  0  0  0  0  0
    4.1910   -3.0560   24.8910 O   0  0  0  0  0  0  0  0  0  0  0  0
    5.6750   -3.1440   26.6150 N   0  0  0  0  0  0  0  0  0  0  0  0
    6.7530   -3.8560   27.2190 C   0  0  0  0  0  0  0  0  0  0  0  0
    8.0260   -3.5730   26.4760 C   0  0  0  0  0  0  0  0  0  0  0  0
    8.3840   -2.6330   25.5390 C   0  0  0  0  0  0  0  0  0  0  0  0
    9.6680   -2.7840   25.1670 C   0  0  0  0  0  0  0  0  0  0  0  0
   10.4220   -2.0500   24.2510 C   0  0  0  0  0  0  0  0  0  0  0  0
    9.9590   -0.8610   23.8060 F   0  0  0  0  0  0  0  0  0  0  0  0
   10.6260   -2.7690   23.1220 F   0  0  0  0  0  0  0  0  0  0  0  0
   11.6450   -1.7440   24.8210 F   0  0  0  0  0  0  0  0  0  0  0  0
   10.0960   -3.8210   25.8800 N   0  0  0  0  0  0  0  0  0  0  0  0
   11.3070   -4.2700   25.7750 C   0  0  0  0  0  0  0  0  0  0  0  0
    9.2000   -4.3680   26.6960 N   0  0  0  0  0  0  0  0  0  0  0  0
    5.5380   -4.9530   23.4690 C   0  0  0  0  0  0  0  0  0  0  0  0
    6.3960   -5.4000   22.3040 C   0  0  0  0  0  0  0  0  0  0  0  0
  1  2  1  0
  2  3  2  0
  2  4  1  0
  4  5  1  0
  5  6  1  0
  6  7  1  0
  7  8  1  0
  8  9  2  0
  8 10  1  0
 10 11  1  0
 11 12  1  0
 12 13  1  0
 13 14  2  0
 14 15  1  0
 15 16  1  0
 15 17  1  0
 15 18  1  0
 14 19  1  0
 19 20  1  0
 12 21  2  0
 19 21  1  0
  7 22  1  0
  4 23  1  0
 22 23  1  0
M  END
