piperidine-amides-23263-covalent
     RDKit          3D

 24 26  0  0  0  0  0  0  0  0999 V2000
    7.0850   -3.3780   19.3470 C   0  0  0  0  0  0  0  0  0  0  0  0
    6.3860   -4.1770   20.3640 C   0  0  0  0  0  0  0  0  0  0  0  0
    5.3690   -4.8050   19.9770 O   0  0  0  0  0  0  0  0  0  0  0  0
    6.8750   -4.2750   21.6930 N   0  0  0  0  0  0  0  0  0  0  0  0
    6.6490   -5.4820   22.4170 C   0  0  0  0  0  0  0  0  0  0  0  0
    6.1850   -5.2020   23.7580 C   0  0  0  0  0  0  0  0  0  0  0  0
    6.2500   -3.7580   24.0090 C   0  0  0  0  0  0  0  0  0  0  0  0
    5.7910   -3.3450   25.3860 C   0  0  0  0  0  0  0  0  0  0  0  0
    4.9380   -2.4420   25.4650 O   0  0  0  0  0  0  0  0  0  0  0  0
    6.2310   -3.9280   26.5930 N   0  0  0  0  0  0  0  0  0  0  0  0
    6.0520   -3.3460   27.8540 C   0  0  0  0  0  0  0  0  0  0  0  0
    5.2060   -4.1000   28.7700 C   0  0  0  0  0  0  0  0  0  0  0  0
    5.8830   -5.4620   29.1310 C   0  0  0  0  0  0  0  0  0  0  0  0
    5.2380   -6.3190   30.0350 C   0  0  0  0  0  0  0  0  0  0  0  0
    3.7810   -5.9880   29.6620 C   0  0  0  0  0  0  0  0  0  0  0  0
    2.7770   -6.7770   30.4840 C   0  0  0  0  0  0  0  0  0  0  0  0
    3.4260   -7.7320   31.5140 C   0  0  0  0  0  0  0  0  0  0  0  0
    2.5510   -8.5820   32.4050 C   0  0  0  0  0  0  0  0  0  0  0  0
    4.8190   -7.8760   31.6950 N   0  0  0  0  0  0  0  0  0  0  0  0
    5.6640   -7.1910   30.9690 C   0  0  0  0  0  0  0  0  0  0  0  0
    5.1040   -5.4170   27.8490 C   0  0  0  0  0  0  0  0  0  0  0  0
    5.9790   -5.3280   26.6900 C   0  0  0  0  0  0  0  0  0  0  0  0
    7.5680   -3.1770   23.6170 C   0  0  0  0  0  0  0  0  0  0  0  0
    7.7220   -3.2180   22.2310 C   0  0  0  0  0  0  0  0  0  0  0  0
  1  2  1  0
  2  3  2  0
  2  4  1  0
  4  5  1  0
  5  6  1  0
  6  7  1  0
  7  8  1  0
  8  9  2  0
  8 10  1  0
 10 11  1  0
 11 12  1  0
 12 13  1  0
 13 14  1  0
 14 15  2  0
 15 16  1  0
 16 17  2  0
 17 18  1  0
 17 19  1  0
 14 20  1  0
 19 20  2  0
 13 21  1  0
 10 22  1  0
 21 22  1  0
  7 23  1  0
  4 24  1  0
 23 24  1  0
M  END
