piperidine-amides-19388-covalent
     RDKit          3D

 22 24  0  0  0  0  0  0  0  0999 V2000
    7.1150   -3.3570   19.4520 C   0  0  0  0  0  0  0  0  0  0  0  0
    6.4300   -4.2110   20.4010 C   0  0  0  0  0  0  0  0  0  0  0  0
    5.4200   -4.8750   19.9920 O   0  0  0  0  0  0  0  0  0  0  0  0
    6.8640   -4.3570   21.7430 N   0  0  0  0  0  0  0  0  0  0  0  0
    6.4760   -5.6100   22.4370 C   0  0  0  0  0  0  0  0  0  0  0  0
    6.6260   -5.1950   23.9610 C   0  0  0  0  0  0  0  0  0  0  0  0
    6.0820   -3.7950   24.0540 C   0  0  0  0  0  0  0  0  0  0  0  0
    5.2880   -3.5660   25.4250 C   0  0  0  0  0  0  0  0  0  0  0  0
    4.1930   -3.0780   25.1920 O   0  0  0  0  0  0  0  0  0  0  0  0
    5.9910   -3.9450   26.4170 N   0  0  0  0  0  0  0  0  0  0  0  0
    6.9650   -4.5330   27.1410 C   0  0  0  0  0  0  0  0  0  0  0  0
    7.1550   -5.6110   27.9380 C   0  0  0  0  0  0  0  0  0  0  0  0
    6.0320   -5.5360   28.7180 C   0  0  0  0  0  0  0  0  0  0  0  0
    5.1460   -4.3900   28.6260 C   0  0  0  0  0  0  0  0  0  0  0  0
    3.9820   -4.3350   29.4010 N   0  0  0  0  0  0  0  0  0  0  0  0
    3.4420   -5.5500   30.0090 C   0  0  0  0  0  0  0  0  0  0  0  0
    4.0930   -6.7100   29.8000 N   0  0  0  0  0  0  0  0  0  0  0  0
    5.3990   -6.4370   29.7220 C   0  0  0  0  0  0  0  0  0  0  0  0
    6.0770   -7.0020   30.6060 O   0  0  0  0  0  0  0  0  0  0  0  0
    5.5420   -3.2830   27.6490 C   0  0  0  0  0  0  0  0  0  0  0  0
    6.8630   -2.7430   23.4750 C   0  0  0  0  0  0  0  0  0  0  0  0
    7.7430   -3.4730   22.4170 C   0  0  0  0  0  0  0  0  0  0  0  0
  1  2  1  0
  2  3  2  0
  2  4  1  0
  4  5  1  0
  5  6  1  0
  6  7  1  0
  7  8  1  0
  8  9  2  0
  8 10  1  0
 10 11  1  0
 11 12  1  0
 12 13  1  0
 13 14  2  0
 14 15  1  0
 15 16  2  0
 16 17  1  0
 13 18  1  0
 17 18  1  0
 18 19  2  0
 10 20  1  0
 14 20  1  0
  7 21  1  0
  4 22  1  0
 21 22  1  0
M  END
