piperidine-amides-2873-covalent
     RDKit          3D

 24 25  0  0  0  0  0  0  0  0999 V2000
    7.1360   -3.2890   19.1570 C   0  0  0  0  0  0  0  0  0  0  0  0
    6.3090   -3.9670   20.1460 C   0  0  0  0  0  0  0  0  0  0  0  0
    5.2240   -4.4440   19.8360 O   0  0  0  0  0  0  0  0  0  0  0  0
    6.7990   -4.1340   21.4730 N   0  0  0  0  0  0  0  0  0  0  0  0
    7.6830   -3.1450   22.0280 C   0  0  0  0  0  0  0  0  0  0  0  0
    7.1510   -2.6860   23.3370 C   0  0  0  0  0  0  0  0  0  0  0  0
    6.7150   -3.9180   24.1020 C   0  0  0  0  0  0  0  0  0  0  0  0
    6.1430   -3.4740   25.3800 C   0  0  0  0  0  0  0  0  0  0  0  0
    4.9220   -3.2620   25.5570 O   0  0  0  0  0  0  0  0  0  0  0  0
    7.0720   -3.2820   26.4230 N   0  0  0  0  0  0  0  0  0  0  0  0
    6.8270   -3.9540   27.6610 C   0  0  1  0  0  0  0  0  0  0  0  0
    8.0450   -4.7700   28.0220 C   0  0  0  0  0  0  0  0  0  0  0  0
    8.7680   -5.0440   26.8760 O   0  0  0  0  0  0  0  0  0  0  0  0
    6.5270   -2.8960   28.6590 C   0  0  0  0  0  0  0  0  0  0  0  0
    7.5200   -1.9170   28.9370 C   0  0  0  0  0  0  0  0  0  0  0  0
    7.3340   -0.8860   29.8520 C   0  0  0  0  0  0  0  0  0  0  0  0
    6.0850   -0.7800   30.5620 C   0  0  0  0  0  0  0  0  0  0  0  0
    5.8130    0.2080   31.4840 O   0  0  0  0  0  0  0  0  0  0  0  0
    4.7030    1.0520   31.4930 C   0  0  0  0  0  0  0  0  0  0  0  0
    3.6220    0.2880   31.8790 C   0  0  0  0  0  0  0  0  0  0  0  0
    5.0790   -1.6620   30.3650 C   0  0  0  0  0  0  0  0  0  0  0  0
    5.3750   -2.7050   29.3890 C   0  0  0  0  0  0  0  0  0  0  0  0
    5.7580   -4.8210   23.3390 C   0  0  0  0  0  0  0  0  0  0  0  0
    6.4540   -5.2970   22.2370 C   0  0  0  0  0  0  0  0  0  0  0  0
  1  2  1  0
  2  3  2  0
  2  4  1  0
  4  5  1  0
  5  6  1  0
  6  7  1  0
  7  8  1  0
  8  9  2  0
  8 10  1  0
 10 11  1  0
 11 12  1  1
 12 13  1  0
 11 14  1  0
 14 15  2  0
 15 16  1  0
 16 17  2  0
 17 18  1  0
 18 19  1  0
 19 20  1  0
 17 21  1  0
 14 22  1  0
 21 22  2  0
  7 23  1  0
  4 24  1  0
 23 24  1  0
M  END
