piperidine-amides-24476-covalent
     RDKit          3D

 24 26  0  0  0  0  0  0  0  0999 V2000
    7.0900   -3.2580   19.2630 C   0  0  0  0  0  0  0  0  0  0  0  0
    6.3710   -4.0520   20.2720 C   0  0  0  0  0  0  0  0  0  0  0  0
    5.3590   -4.7120   19.9470 O   0  0  0  0  0  0  0  0  0  0  0  0
    6.8260   -4.1180   21.6040 N   0  0  0  0  0  0  0  0  0  0  0  0
    6.6310   -5.3490   22.3410 C   0  0  0  0  0  0  0  0  0  0  0  0
    6.0050   -5.0010   23.7060 C   0  0  0  0  0  0  0  0  0  0  0  0
    6.0860   -3.4990   23.8910 C   0  0  0  0  0  0  0  0  0  0  0  0
    5.7200   -3.1740   25.2870 C   0  0  0  0  0  0  0  0  0  0  0  0
    5.0210   -4.0040   25.9000 O   0  0  0  0  0  0  0  0  0  0  0  0
    6.1130   -1.9600   25.9040 N   0  0  0  0  0  0  0  0  0  0  0  0
    6.2210   -1.9720   27.3230 C   0  0  0  0  0  0  0  0  0  0  0  0
    5.1930   -0.9050   27.4160 C   0  0  0  0  0  0  0  0  0  0  0  0
    5.7040    0.1420   28.2250 O   0  0  0  0  0  0  0  0  0  0  0  0
    5.4180    0.2790   29.5590 C   0  0  0  0  0  0  0  0  0  0  0  0
    6.4780    0.3630   30.4260 C   0  0  0  0  0  0  0  0  0  0  0  0
    6.3410    0.1730   31.7970 N   0  0  0  0  0  0  0  0  0  0  0  0
    7.6100    0.3470   32.2170 C   0  0  0  0  0  0  0  0  0  0  0  0
    7.8690    0.2240   33.5640 C   0  0  0  0  0  0  0  0  0  0  0  0
    7.5080    1.3680   34.4840 C   0  0  0  0  0  0  0  0  0  0  0  0
    8.5180    0.6430   31.1300 N   0  0  0  0  0  0  0  0  0  0  0  0
    7.7640    0.6400   30.0330 O   0  0  0  0  0  0  0  0  0  0  0  0
    5.2670   -0.7480   25.8430 C   0  0  0  0  0  0  0  0  0  0  0  0
    7.3970   -2.9280   23.5610 C   0  0  0  0  0  0  0  0  0  0  0  0
    7.6800   -3.1040   22.1400 C   0  0  0  0  0  0  0  0  0  0  0  0
  1  2  1  0
  2  3  2  0
  2  4  1  0
  4  5  1  0
  5  6  1  0
  6  7  1  0
  7  8  1  0
  8  9  2  0
  8 10  1  0
 10 11  1  0
 11 12  1  0
 12 13  1  0
 13 14  1  0
 14 15  1  0
 15 16  2  0
 16 17  1  0
 17 18  1  0
 18 19  1  0
 17 20  2  0
 15 21  1  0
 20 21  1  0
 10 22  1  0
 12 22  1  0
  7 23  1  0
  4 24  1  0
 23 24  1  0
M  END
