piperidine-amides-2169-covalent
     RDKit          3D

 31 33  0  0  0  0  0  0  0  0999 V2000
    7.1380   -3.2540   19.1990 C   0  0  0  0  0  0  0  0  0  0  0  0
    6.3840   -4.0290   20.2180 C   0  0  0  0  0  0  0  0  0  0  0  0
    5.3110   -4.5230   19.8780 O   0  0  0  0  0  0  0  0  0  0  0  0
    6.9290   -4.2100   21.4860 N   0  0  0  0  0  0  0  0  0  0  0  0
    7.7250   -3.1690   22.0920 C   0  0  0  0  0  0  0  0  0  0  0  0
    7.3270   -3.0270   23.5230 C   0  0  0  0  0  0  0  0  0  0  0  0
    5.9420   -3.6450   23.7190 C   0  0  0  0  0  0  0  0  0  0  0  0
    5.5520   -3.3510   25.0870 C   0  0  0  0  0  0  0  0  0  0  0  0
    4.3580   -3.2700   25.4000 O   0  0  0  0  0  0  0  0  0  0  0  0
    6.5470   -3.1660   26.0360 N   0  0  0  0  0  0  0  0  0  0  0  0
    6.1850   -3.2630   27.4100 C   0  0  0  0  0  0  0  0  0  0  0  0
    6.3760   -1.8700   27.9290 C   0  0  0  0  0  0  0  0  0  0  0  0
    6.2890   -1.5120   29.5670 S   0  0  0  0  0  0  0  0  0  0  0  0
    7.6120   -1.1050   30.1180 O   0  0  0  0  0  0  0  0  0  0  0  0
    5.8070   -2.8190   30.0920 O   0  0  0  0  0  0  0  0  0  0  0  0
    5.0270   -0.4120   30.0170 N   0  0  0  0  0  0  0  0  0  0  0  0
    3.8800   -0.4970   29.1200 C   0  0  0  0  0  0  0  0  0  0  0  0
    2.9420    0.2580   29.7310 C   0  0  0  0  0  0  0  0  0  0  0  0
    3.2610    0.8690   30.8860 N   0  0  0  0  0  0  0  0  0  0  0  0
    2.6340    0.5510   32.1600 C   0  0  0  0  0  0  0  0  0  0  0  0
    1.1590    0.8690   32.4060 C   0  0  0  0  0  0  0  0  0  0  0  0
    0.6200    0.4870   33.7640 C   0  0  0  0  0  0  0  0  0  0  0  0
    1.4750   -0.1670   34.8200 C   0  0  0  0  0  0  0  0  0  0  0  0
    0.9510   -0.5050   36.0620 O   0  0  0  0  0  0  0  0  0  0  0  0
    1.6740   -1.1410   37.0730 C   0  0  0  0  0  0  0  0  0  0  0  0
    2.9210   -0.4620   34.5380 C   0  0  0  0  0  0  0  0  0  0  0  0
    3.5030   -0.1000   33.1980 C   0  0  0  0  0  0  0  0  0  0  0  0
    4.3500    1.6170   31.0400 C   0  0  0  0  0  0  0  0  0  0  0  0
    5.3720    0.9480   30.1370 C   0  0  0  0  0  0  0  0  0  0  0  0
    6.0530   -5.1350   23.5280 C   0  0  0  0  0  0  0  0  0  0  0  0
    6.6210   -5.4310   22.1690 C   0  0  0  0  0  0  0  0  0  0  0  0
  1  2  1  0
  2  3  2  0
  2  4  1  0
  4  5  1  0
  5  6  1  0
  6  7  1  0
  7  8  1  0
  8  9  2  0
  8 10  1  0
 10 11  1  0
 11 12  1  0
 13 12  1  0
 13 14  2  0
 13 15  2  0
 13 16  1  0
 16 17  1  0
 17 18  1  0
 18 19  1  0
 19 20  1  0
 20 21  2  0
 21 22  1  0
 22 23  2  0
 23 24  1  0
 24 25  1  0
 23 26  1  0
 20 27  1  0
 26 27  2  0
 19 28  1  0
 16 29  1  0
 28 29  1  0
  7 30  1  0
  4 31  1  0
 30 31  1  0
M  END
