piperidine-amides-4341-covalent
     RDKit          3D

 26 28  0  0  0  0  0  0  0  0999 V2000
    7.0580   -3.3070   19.3120 C   0  0  0  0  0  0  0  0  0  0  0  0
    6.3510   -4.1170   20.3260 C   0  0  0  0  0  0  0  0  0  0  0  0
    5.3220   -4.7240   19.9420 O   0  0  0  0  0  0  0  0  0  0  0  0
    6.8300   -4.2540   21.6560 N   0  0  0  0  0  0  0  0  0  0  0  0
    7.6560   -3.2340   22.2020 C   0  0  0  0  0  0  0  0  0  0  0  0
    7.3140   -2.9730   23.5740 C   0  0  0  0  0  0  0  0  0  0  0  0
    6.0780   -3.6700   23.9400 C   0  0  0  0  0  0  0  0  0  0  0  0
    5.6340   -3.2860   25.3160 C   0  0  0  0  0  0  0  0  0  0  0  0
    4.4340   -3.4040   25.6270 O   0  0  0  0  0  0  0  0  0  0  0  0
    6.5480   -2.7890   26.2530 N   0  0  0  0  0  0  0  0  0  0  0  0
    6.4710   -1.6060   27.0220 C   0  0  0  0  0  0  0  0  0  0  0  0
    6.9660   -1.6150   28.3910 C   0  0  0  0  0  0  0  0  0  0  0  0
    6.9020   -0.3470   29.2730 C   0  0  0  0  0  0  0  0  0  0  0  0
    6.3770    0.8710   28.8440 C   0  0  0  0  0  0  0  0  0  0  0  0
    5.8720    0.8200   27.4010 C   0  0  0  0  0  0  0  0  0  0  0  0
    5.2530    2.3680   27.0040 S   0  0  0  0  0  0  0  0  0  0  0  0
    3.8220    2.2440   26.5670 O   0  0  0  0  0  0  0  0  0  0  0  0
    5.3330    3.2370   28.2080 O   0  0  0  0  0  0  0  0  0  0  0  0
    6.0570    2.9590   25.8140 N   0  0  0  0  0  0  0  0  0  0  0  0
    7.3900    3.5650   25.9530 C   0  0  0  0  0  0  0  0  0  0  0  0
    7.1730    4.1700   24.7090 C   0  0  0  0  0  0  0  0  0  0  0  0
    8.4100    3.4870   24.6990 C   0  0  0  0  0  0  0  0  0  0  0  0
    5.9620   -0.4110   26.6080 C   0  0  0  0  0  0  0  0  0  0  0  0
    5.4140   -0.2910   25.1770 C   0  0  0  0  0  0  0  0  0  0  0  0
    6.2060   -5.1570   23.7600 C   0  0  0  0  0  0  0  0  0  0  0  0
    6.5910   -5.4630   22.4320 C   0  0  0  0  0  0  0  0  0  0  0  0
  1  2  1  0
  2  3  2  0
  2  4  1  0
  4  5  1  0
  5  6  1  0
  6  7  1  0
  7  8  1  0
  8  9  2  0
  8 10  1  0
 10 11  1  0
 11 12  2  0
 12 13  1  0
 13 14  2  0
 14 15  1  0
 15 16  1  0
 16 17  2  0
 16 18  2  0
 16 19  1  0
 19 20  1  0
 20 21  1  0
 20 22  1  0
 21 22  1  0
 11 23  1  0
 15 23  2  0
 23 24  1  0
  7 25  1  0
  4 26  1  0
 25 26  1  0
M  END
