piperidine-amides-35294-covalent
     RDKit          3D

 33 37  0  0  0  0  0  0  0  0999 V2000
    6.9990   -3.3690   19.4290 C   0  0  0  0  0  0  0  0  0  0  0  0
    6.3860   -4.2850   20.4320 C   0  0  0  0  0  0  0  0  0  0  0  0
    5.4500   -4.9760   20.0160 O   0  0  0  0  0  0  0  0  0  0  0  0
    6.8840   -4.3610   21.7540 N   0  0  0  0  0  0  0  0  0  0  0  0
    6.6170   -5.5320   22.5840 C   0  0  0  0  0  0  0  0  0  0  0  0
    5.9820   -5.1350   23.9080 C   0  0  0  0  0  0  0  0  0  0  0  0
    5.9480   -3.6150   23.9690 C   0  0  0  0  0  0  0  0  0  0  0  0
    5.1660   -3.0670   25.1290 C   0  0  0  0  0  0  0  0  0  0  0  0
    4.3520   -2.1900   24.8520 O   0  0  0  0  0  0  0  0  0  0  0  0
    5.2230   -3.4290   26.4980 N   0  0  0  0  0  0  0  0  0  0  0  0
    4.3080   -2.7100   27.4040 C   0  0  0  0  0  0  0  0  0  0  0  0
    4.3740   -3.3390   28.7860 C   0  0  0  0  0  0  0  0  0  0  0  0
    5.2230   -4.3380   28.8810 C   0  0  0  0  0  0  0  0  0  0  0  0
    6.2580   -4.5040   28.1850 C   0  0  0  0  0  0  0  0  0  0  0  0
    6.7990   -5.7770   28.6750 N   0  0  0  0  0  0  0  0  0  0  0  0
    5.8850   -6.2600   29.7500 C   0  0  0  0  0  0  0  0  0  0  0  0
    5.9690   -7.5130   30.5810 C   0  0  0  0  0  0  0  0  0  0  0  0
    4.8610   -7.6570   31.5940 C   0  0  0  0  0  0  0  0  0  0  0  0
    3.7520   -6.6340   31.7500 C   0  0  0  0  0  0  0  0  0  0  0  0
    2.4900   -6.8550   32.9380 Cl  0  0  0  0  0  0  0  0  0  0  0  0
    3.8170   -5.4580   30.8350 C   0  0  0  0  0  0  0  0  0  0  0  0
    4.8580   -5.2080   29.8140 C   0  0  0  0  0  0  0  0  0  0  0  0
    6.4230   -3.4550   27.2860 C   0  0  2  0  0  0  0  0  0  0  0  0
    6.4800   -2.1170   27.9330 C   0  0  0  0  0  0  0  0  0  0  0  0
    6.4530   -2.0120   29.4300 C   0  0  0  0  0  0  0  0  0  0  0  0
    6.5020   -0.7700   30.0010 C   0  0  0  0  0  0  0  0  0  0  0  0
    6.5760    0.4760   29.1790 C   0  0  0  0  0  0  0  0  0  0  0  0
    6.6300    1.7610   29.7070 O   0  0  0  0  0  0  0  0  0  0  0  0
    7.0640    2.8740   28.9880 C   0  0  0  0  0  0  0  0  0  0  0  0
    6.5910    0.2760   27.7870 C   0  0  0  0  0  0  0  0  0  0  0  0
    6.5470   -0.9520   27.1860 C   0  0  0  0  0  0  0  0  0  0  0  0
    7.2310   -2.9800   23.7130 C   0  0  0  0  0  0  0  0  0  0  0  0
    7.6910   -3.3180   22.3360 C   0  0  0  0  0  0  0  0  0  0  0  0
  1  2  1  0
  2  3  2  0
  2  4  1  0
  4  5  1  0
  5  6  1  0
  6  7  1  0
  7  8  1  0
  8  9  2  0
  8 10  1  0
 10 11  1  0
 11 12  1  0
 12 13  1  0
 13 14  2  0
 14 15  1  0
 15 16  1  0
 16 17  1  0
 17 18  2  0
 18 19  1  0
 19 20  1  0
 19 21  2  0
 13 22  1  0
 16 22  2  0
 21 22  1  0
 10 23  1  0
 14 23  1  0
 23 24  1  1
 24 25  2  0
 25 26  1  0
 26 27  2  0
 27 28  1  0
 28 29  1  0
 27 30  1  0
 24 31  1  0
 30 31  2  0
  7 32  1  0
  4 33  1  0
 32 33  1  0
M  END
