piperidine-amides-15444-covalent
     RDKit          3D

 18 20  0  0  0  0  0  0  0  0999 V2000
    6.9780   -3.3670   19.3630 C   0  0  0  0  0  0  0  0  0  0  0  0
    6.2960   -4.2500   20.3320 C   0  0  0  0  0  0  0  0  0  0  0  0
    5.3320   -4.9460   19.9780 O   0  0  0  0  0  0  0  0  0  0  0  0
    6.7340   -4.3430   21.6500 N   0  0  0  0  0  0  0  0  0  0  0  0
    6.6130   -5.6030   22.3680 C   0  0  0  0  0  0  0  0  0  0  0  0
    6.1730   -5.3330   23.8300 C   0  0  0  0  0  0  0  0  0  0  0  0
    6.0400   -3.8410   23.9930 C   0  0  0  0  0  0  0  0  0  0  0  0
    5.5980   -3.3500   25.3340 C   0  0  0  0  0  0  0  0  0  0  0  0
    4.6820   -2.5060   25.3060 O   0  0  0  0  0  0  0  0  0  0  0  0
    6.1010   -3.7580   26.6130 N   0  0  0  0  0  0  0  0  0  0  0  0
    5.0390   -3.9930   27.5760 C   0  0  2  0  0  0  0  0  0  0  0  0
    5.7400   -4.0760   28.8700 C   0  0  0  0  0  0  0  0  0  0  0  0
    6.9360   -4.5560   28.5600 C   0  0  0  0  0  0  0  0  0  0  0  0
    6.8730   -4.8790   27.2100 C   0  0  1  0  0  0  0  0  0  0  0  0
    5.9650   -5.8810   26.9330 C   0  0  0  0  0  0  0  0  0  0  0  0
    4.7330   -5.3880   27.2360 C   0  0  0  0  0  0  0  0  0  0  0  0
    7.3940   -3.2810   23.6960 C   0  0  0  0  0  0  0  0  0  0  0  0
    7.5820   -3.3310   22.2210 C   0  0  0  0  0  0  0  0  0  0  0  0
  1  2  1  0
  2  3  2  0
  2  4  1  0
  4  5  1  0
  5  6  1  0
  6  7  1  0
  7  8  1  0
  8  9  2  0
  8 10  1  0
 10 11  1  0
 11 12  1  1
 12 13  1  0
 10 14  1  0
 14 13  1  1
 14 15  1  0
 11 16  1  0
 15 16  1  0
  7 17  1  0
  4 18  1  0
 17 18  1  0
M  END
