piperidine-amides-35035-covalent
     RDKit          3D

 31 32  0  0  0  0  0  0  0  0999 V2000
    6.9920   -3.3520   19.3180 C   0  0  0  0  0  0  0  0  0  0  0  0
    6.3260   -4.2170   20.3330 C   0  0  0  0  0  0  0  0  0  0  0  0
    5.3460   -4.8560   19.9680 O   0  0  0  0  0  0  0  0  0  0  0  0
    6.8380   -4.3090   21.6260 N   0  0  0  0  0  0  0  0  0  0  0  0
    7.6350   -3.2660   22.2020 C   0  0  0  0  0  0  0  0  0  0  0  0
    7.3390   -3.2470   23.6580 C   0  0  0  0  0  0  0  0  0  0  0  0
    5.9310   -3.7440   23.8820 C   0  0  0  0  0  0  0  0  0  0  0  0
    5.5080   -3.5320   25.2990 C   0  0  0  0  0  0  0  0  0  0  0  0
    4.3700   -3.1080   25.5020 O   0  0  0  0  0  0  0  0  0  0  0  0
    6.3240   -3.8110   26.4220 N   0  0  0  0  0  0  0  0  0  0  0  0
    7.1130   -5.0350   26.2860 C   0  0  0  0  0  0  0  0  0  0  0  0
    7.3990   -5.6720   27.6300 C   0  0  0  0  0  0  0  0  0  0  0  0
    6.9060   -5.1390   28.7490 C   0  0  0  0  0  0  0  0  0  0  0  0
    5.7410   -4.5350   28.5070 C   0  0  1  0  0  0  0  0  0  0  0  0
    4.8640   -4.3830   29.6500 N   0  0  0  0  0  0  0  0  0  0  0  0
    4.5180   -5.5810   30.3930 C   0  0  0  0  0  0  0  0  0  0  0  0
    5.2800   -6.7060   30.4730 O   0  0  0  0  0  0  0  0  0  0  0  0
    3.2090   -5.6390   31.1610 C   0  0  0  0  0  0  0  0  0  0  0  0
    3.0560   -6.7760   31.9620 F   0  0  0  0  0  0  0  0  0  0  0  0
    2.9810   -4.5630   32.0310 F   0  0  0  0  0  0  0  0  0  0  0  0
    2.1760   -5.6310   30.2510 F   0  0  0  0  0  0  0  0  0  0  0  0
    5.8950   -3.3010   27.7170 C   0  0  2  0  0  0  0  0  0  0  0  0
    4.8390   -2.2500   27.9830 C   0  0  0  0  0  0  0  0  0  0  0  0
    4.1370   -2.5120   29.1580 O   0  0  0  0  0  0  0  0  0  0  0  0
    4.5690   -1.1370   27.1940 O   0  0  0  0  0  0  0  0  0  0  0  0
    3.4260   -0.9900   26.4060 C   0  0  0  0  0  0  0  0  0  0  0  0
    2.6680    0.2190   26.8540 C   0  0  0  0  0  0  0  0  0  0  0  0
    2.4060   -1.9840   25.9290 C   0  0  0  0  0  0  0  0  0  0  0  0
    3.8660   -0.1420   25.2270 C   0  0  0  0  0  0  0  0  0  0  0  0
    5.7920   -5.2170   23.4920 C   0  0  0  0  0  0  0  0  0  0  0  0
    6.6440   -5.5050   22.4360 C   0  0  0  0  0  0  0  0  0  0  0  0
  1  2  1  0
  2  3  2  0
  2  4  1  0
  4  5  1  0
  5  6  1  0
  6  7  1  0
  7  8  1  0
  8  9  2  0
  8 10  1  0
 10 11  1  0
 11 12  1  0
 12 13  1  0
 13 14  1  0
 14 15  1  1
 15 16  1  0
 16 17  2  0
 16 18  1  0
 18 19  1  0
 18 20  1  0
 18 21  1  0
 10 22  1  0
 14 22  1  0
 22 23  1  6
 23 24  2  0
 23 25  1  0
 26 25  1  0
 26 27  1  0
 26 28  1  0
 26 29  1  0
  7 30  1  0
  4 31  1  0
 30 31  1  0
M  END
