piperidine-amides-34928-covalent
     RDKit          3D

 31 33  0  0  0  0  0  0  0  0999 V2000
    6.9680   -3.3720   19.4190 C   0  0  0  0  0  0  0  0  0  0  0  0
    6.3350   -4.3280   20.3670 C   0  0  0  0  0  0  0  0  0  0  0  0
    5.3410   -4.9210   19.9750 O   0  0  0  0  0  0  0  0  0  0  0  0
    6.8670   -4.5630   21.6370 N   0  0  0  0  0  0  0  0  0  0  0  0
    7.4990   -3.5080   22.3470 C   0  0  0  0  0  0  0  0  0  0  0  0
    6.3890   -2.6940   22.9150 C   0  0  0  0  0  0  0  0  0  0  0  0
    5.3780   -3.6200   23.6290 C   0  0  0  0  0  0  0  0  0  0  0  0
    5.0710   -2.9430   24.9120 C   0  0  0  0  0  0  0  0  0  0  0  0
    4.0230   -3.1520   25.5350 O   0  0  0  0  0  0  0  0  0  0  0  0
    6.0480   -2.0710   25.3560 N   0  0  0  0  0  0  0  0  0  0  0  0
    7.2510   -2.7130   25.3680 C   0  0  0  0  0  0  0  0  0  0  0  0
    8.3650   -1.7950   24.8740 C   0  0  0  0  0  0  0  0  0  0  0  0
    8.5780   -0.5060   25.3470 C   0  0  0  0  0  0  0  0  0  0  0  0
    9.5910    0.3140   24.9120 C   0  0  0  0  0  0  0  0  0  0  0  0
   10.4820   -0.0960   23.9590 C   0  0  0  0  0  0  0  0  0  0  0  0
   11.5000    0.6610   23.5020 O   0  0  0  0  0  0  0  0  0  0  0  0
   12.6570    0.0250   23.1790 C   0  0  0  0  0  0  0  0  0  0  0  0
   12.9060   -0.9570   24.2840 C   0  0  0  0  0  0  0  0  0  0  0  0
   10.3410   -1.4440   23.3890 C   0  0  0  0  0  0  0  0  0  0  0  0
    9.2690   -2.3290   23.8430 C   0  0  0  0  0  0  0  0  0  0  0  0
    6.1420   -1.1180   26.4850 C   0  0  0  0  0  0  0  0  0  0  0  0
    5.6050    0.2400   26.2170 C   0  0  0  0  0  0  0  0  0  0  0  0
    5.6570    1.2730   27.2450 C   0  0  0  0  0  0  0  0  0  0  0  0
    6.2330    1.0920   28.6110 C   0  0  0  0  0  0  0  0  0  0  0  0
    6.2690    2.1030   29.5690 O   0  0  0  0  0  0  0  0  0  0  0  0
    5.5970    3.3180   29.3360 C   0  0  0  0  0  0  0  0  0  0  0  0
    6.7840   -0.3160   28.8700 C   0  0  0  0  0  0  0  0  0  0  0  0
    7.4850   -0.6610   30.4250 Cl  0  0  0  0  0  0  0  0  0  0  0  0
    6.6940   -1.3820   27.7320 C   0  0  0  0  0  0  0  0  0  0  0  0
    6.0000   -5.0190   23.7540 C   0  0  0  0  0  0  0  0  0  0  0  0
    6.2470   -5.5360   22.5060 C   0  0  0  0  0  0  0  0  0  0  0  0
  1  2  1  0
  2  3  2  0
  2  4  1  0
  4  5  1  0
  5  6  1  0
  6  7  1  0
  7  8  1  0
  8  9  2  0
  8 10  1  0
 10 11  1  0
 11 12  1  0
 12 13  2  0
 13 14  1  0
 14 15  2  0
 15 16  1  0
 16 17  1  0
 17 18  1  0
 15 19  1  0
 12 20  1  0
 19 20  2  0
 10 21  1  0
 21 22  2  0
 22 23  1  0
 23 24  2  0
 24 25  1  0
 25 26  1  0
 24 27  1  0
 27 28  1  0
 21 29  1  0
 27 29  2  0
  7 30  1  0
  4 31  1  0
 30 31  1  0
M  END
