piperidine-amides-15386-covalent
     RDKit          3D

 17 17  0  0  0  0  0  0  0  0999 V2000
    7.1470   -3.2710   19.2730 C   0  0  0  0  0  0  0  0  0  0  0  0
    6.3290   -4.0180   20.2380 C   0  0  0  0  0  0  0  0  0  0  0  0
    5.2540   -4.5370   19.8770 O   0  0  0  0  0  0  0  0  0  0  0  0
    6.7720   -4.1990   21.5500 N   0  0  0  0  0  0  0  0  0  0  0  0
    6.4690   -5.4230   22.2540 C   0  0  0  0  0  0  0  0  0  0  0  0
    5.6280   -4.9980   23.4580 C   0  0  0  0  0  0  0  0  0  0  0  0
    6.4700   -3.9880   24.1980 C   0  0  0  0  0  0  0  0  0  0  0  0
    5.7580   -3.5140   25.4160 C   0  0  0  0  0  0  0  0  0  0  0  0
    4.5060   -3.4730   25.4300 O   0  0  0  0  0  0  0  0  0  0  0  0
    6.4890   -3.0980   26.5560 N   0  0  0  0  0  0  0  0  0  0  0  0
    6.8580   -1.7120   26.6390 C   0  0  0  0  0  0  0  0  0  0  0  0
    6.3360   -3.8330   27.8070 C   0  0  0  0  0  0  0  0  0  0  0  0
    6.0810   -5.1560   27.5360 C   0  0  0  0  0  0  0  0  0  0  0  0
    5.0970   -5.7330   28.0790 O   0  0  0  0  0  0  0  0  0  0  0  0
    5.2710   -7.0550   28.3340 C   0  0  0  0  0  0  0  0  0  0  0  0
    6.8730   -2.8120   23.3590 C   0  0  0  0  0  0  0  0  0  0  0  0
    7.5730   -3.2130   22.2450 C   0  0  0  0  0  0  0  0  0  0  0  0
  1  2  1  0
  2  3  2  0
  2  4  1  0
  4  5  1  0
  5  6  1  0
  6  7  1  0
  7  8  1  0
  8  9  2  0
  8 10  1  0
 10 11  1  0
 10 12  1  0
 12 13  1  0
 13 14  1  0
 14 15  1  0
  7 16  1  0
  4 17  1  0
 16 17  1  0
M  END
