piperidine-amides-1438-covalent
     RDKit          3D

 21 21  0  0  0  0  0  0  0  0999 V2000
    7.0760   -3.2790   19.2760 C   0  0  0  0  0  0  0  0  0  0  0  0
    6.3000   -4.0640   20.2800 C   0  0  0  0  0  0  0  0  0  0  0  0
    5.2690   -4.6470   19.9120 O   0  0  0  0  0  0  0  0  0  0  0  0
    6.7620   -4.1650   21.6100 N   0  0  0  0  0  0  0  0  0  0  0  0
    6.6650   -5.4060   22.3480 C   0  0  0  0  0  0  0  0  0  0  0  0
    5.9850   -5.1110   23.6890 C   0  0  0  0  0  0  0  0  0  0  0  0
    6.0670   -3.6430   23.9080 C   0  0  0  0  0  0  0  0  0  0  0  0
    5.6130   -3.2220   25.2590 C   0  0  0  0  0  0  0  0  0  0  0  0
    4.4800   -2.7340   25.3170 O   0  0  0  0  0  0  0  0  0  0  0  0
    6.4220   -3.3820   26.3910 N   0  0  0  0  0  0  0  0  0  0  0  0
    6.1520   -4.1610   27.5550 C   0  0  0  0  0  0  0  0  0  0  0  0
    6.1110   -5.5460   27.6000 C   0  0  0  0  0  0  0  0  0  0  0  0
    4.4220   -6.1840   27.8120 S   0  0  0  0  0  0  0  0  0  0  0  0
    3.3470   -5.1210   27.9470 O   0  0  0  0  0  0  0  0  0  0  0  0
    4.2560   -7.4640   29.0410 C   0  0  0  0  0  0  0  0  0  0  0  0
    4.0480   -7.0300   30.3300 C   0  0  0  0  0  0  0  0  0  0  0  0
    5.2170   -7.0020   31.0380 F   0  0  0  0  0  0  0  0  0  0  0  0
    3.1160   -7.8110   30.9790 F   0  0  0  0  0  0  0  0  0  0  0  0
    3.4820   -5.7520   30.2340 F   0  0  0  0  0  0  0  0  0  0  0  0
    7.4630   -3.1010   23.6750 C   0  0  0  0  0  0  0  0  0  0  0  0
    7.6000   -3.0990   22.1500 C   0  0  0  0  0  0  0  0  0  0  0  0
  1  2  1  0
  2  3  2  0
  2  4  1  0
  4  5  1  0
  5  6  1  0
  6  7  1  0
  7  8  1  0
  8  9  2  0
  8 10  1  0
 10 11  1  0
 11 12  1  0
 13 12  1  1
 13 14  2  0
 13 15  1  0
 15 16  1  0
 16 17  1  0
 16 18  1  0
 16 19  1  0
  7 20  1  0
  4 21  1  0
 20 21  1  0
M  END
