piperidine-amides-6771-covalent
     RDKit          3D

 23 24  0  0  0  0  0  0  0  0999 V2000
    7.1050   -3.2700   19.2450 C   0  0  0  0  0  0  0  0  0  0  0  0
    6.3740   -4.0760   20.2400 C   0  0  0  0  0  0  0  0  0  0  0  0
    5.3170   -4.6720   19.9300 O   0  0  0  0  0  0  0  0  0  0  0  0
    6.8800   -4.2290   21.5360 N   0  0  0  0  0  0  0  0  0  0  0  0
    7.7020   -3.1920   22.1240 C   0  0  0  0  0  0  0  0  0  0  0  0
    6.9160   -2.6300   23.3020 C   0  0  0  0  0  0  0  0  0  0  0  0
    6.6260   -3.8090   24.1930 C   0  0  0  0  0  0  0  0  0  0  0  0
    5.8250   -3.3180   25.3260 C   0  0  0  0  0  0  0  0  0  0  0  0
    4.5740   -3.3080   25.2240 O   0  0  0  0  0  0  0  0  0  0  0  0
    6.4820   -2.8670   26.4960 N   0  0  0  0  0  0  0  0  0  0  0  0
    6.1490   -3.4310   27.7770 C   0  0  0  0  0  0  0  0  0  0  0  0
    5.3010   -2.4100   28.5100 C   0  0  0  0  0  0  0  0  0  0  0  0
    3.9380   -2.2630   28.4890 C   0  0  0  0  0  0  0  0  0  0  0  0
    3.2940   -1.2870   29.2090 C   0  0  0  0  0  0  0  0  0  0  0  0
    3.9330   -0.3490   30.0280 C   0  0  0  0  0  0  0  0  0  0  0  0
    3.2120    0.5790   30.7000 O   0  0  0  0  0  0  0  0  0  0  0  0
    3.7150    1.7710   31.1530 C   0  0  0  0  0  0  0  0  0  0  0  0
    5.2760   -0.4860   30.0520 N   0  0  0  0  0  0  0  0  0  0  0  0
    5.9990   -1.4000   29.3900 C   0  0  0  0  0  0  0  0  0  0  0  0
    7.3540   -1.5040   29.4420 O   0  0  0  0  0  0  0  0  0  0  0  0
    7.9000   -0.6560   30.3720 C   0  0  0  0  0  0  0  0  0  0  0  0
    5.9000   -4.9220   23.5420 C   0  0  0  0  0  0  0  0  0  0  0  0
    6.5400   -5.3680   22.3060 C   0  0  0  0  0  0  0  0  0  0  0  0
  1  2  1  0
  2  3  2  0
  2  4  1  0
  4  5  1  0
  5  6  1  0
  6  7  1  0
  7  8  1  0
  8  9  2  0
  8 10  1  0
 10 11  1  0
 11 12  1  0
 12 13  2  0
 13 14  1  0
 14 15  2  0
 15 16  1  0
 16 17  1  0
 15 18  1  0
 12 19  1  0
 18 19  2  0
 19 20  1  0
 20 21  1  0
  7 22  1  0
  4 23  1  0
 22 23  1  0
M  END
