piperidine-amides-19035-covalent
     RDKit          3D

 22 24  0  0  0  0  0  0  0  0999 V2000
    7.1350   -3.4070   19.5170 C   0  0  0  0  0  0  0  0  0  0  0  0
    6.4300   -4.2560   20.4510 C   0  0  0  0  0  0  0  0  0  0  0  0
    5.4520   -4.9440   20.0120 O   0  0  0  0  0  0  0  0  0  0  0  0
    6.8270   -4.3630   21.8060 N   0  0  0  0  0  0  0  0  0  0  0  0
    6.5660   -5.6120   22.5420 C   0  0  0  0  0  0  0  0  0  0  0  0
    5.7500   -5.0450   23.7780 C   0  0  0  0  0  0  0  0  0  0  0  0
    6.4620   -3.8200   24.3570 C   0  0  0  0  0  0  0  0  0  0  0  0
    5.4780   -2.9670   25.2900 C   0  0  0  0  0  0  0  0  0  0  0  0
    5.0270   -2.0610   24.6210 O   0  0  0  0  0  0  0  0  0  0  0  0
    5.3470   -3.3770   26.4940 N   0  0  0  0  0  0  0  0  0  0  0  0
    4.6770   -3.6800   27.6740 C   0  0  1  0  0  0  0  0  0  0  0  0
    3.4310   -4.1320   28.0120 C   0  0  0  0  0  0  0  0  0  0  0  0
    5.5420   -4.7140   28.2200 C   0  0  0  0  0  0  0  0  0  0  0  0
    5.1750   -5.9570   29.2090 C   0  0  0  0  0  0  0  0  0  0  0  0
    6.4950   -6.8880   29.5360 C   0  0  0  0  0  0  0  0  0  0  0  0
    7.1150   -6.0590   28.7880 C   0  0  0  0  0  0  0  0  0  0  0  0
    5.9120   -5.5810   28.7650 C   0  0  0  0  0  0  0  0  0  0  0  0
    6.9240   -4.9110   28.0150 C   0  0  0  0  0  0  0  0  0  0  0  0
    6.6090   -3.6250   27.1520 C   0  0  2  0  0  0  0  0  0  0  0  0
    6.8280   -2.4210   27.8000 C   0  0  0  0  0  0  0  0  0  0  0  0
    7.0560   -2.8270   23.3520 C   0  0  0  0  0  0  0  0  0  0  0  0
    7.7600   -3.4430   22.3880 C   0  0  0  0  0  0  0  0  0  0  0  0
  1  2  1  0
  2  3  2  0
  2  4  1  0
  4  5  1  0
  5  6  1  0
  6  7  1  0
  7  8  1  0
  8  9  2  0
  8 10  1  0
 10 11  1  0
 11 12  1  6
 11 13  1  0
 13 14  1  0
 14 15  2  0
 15 16  1  0
 16 17  2  0
 13 18  2  0
 17 18  1  0
 10 19  1  0
 18 19  1  0
 19 20  1  1
  7 21  1  0
  4 22  1  0
 21 22  1  0
M  END
