piperidine-amides-13982-covalent
     RDKit          3D

 25 26  0  0  0  0  0  0  0  0999 V2000
    7.0810   -3.3480   19.3640 C   0  0  0  0  0  0  0  0  0  0  0  0
    6.3320   -4.1720   20.3510 C   0  0  0  0  0  0  0  0  0  0  0  0
    5.3330   -4.8000   19.9670 O   0  0  0  0  0  0  0  0  0  0  0  0
    6.8020   -4.2520   21.6800 N   0  0  0  0  0  0  0  0  0  0  0  0
    6.6880   -5.4680   22.4600 C   0  0  0  0  0  0  0  0  0  0  0  0
    6.0850   -5.1310   23.8370 C   0  0  0  0  0  0  0  0  0  0  0  0
    6.1020   -3.6510   24.0240 C   0  0  0  0  0  0  0  0  0  0  0  0
    5.6830   -3.2030   25.3740 C   0  0  0  0  0  0  0  0  0  0  0  0
    4.5100   -3.4540   25.6720 O   0  0  0  0  0  0  0  0  0  0  0  0
    6.5560   -2.5280   26.2440 N   0  0  0  0  0  0  0  0  0  0  0  0
    6.1900   -1.5710   27.2400 C   0  0  1  0  0  0  0  0  0  0  0  0
    6.9280   -1.4380   28.3980 C   0  0  0  0  0  0  0  0  0  0  0  0
    6.7610   -0.3320   29.2360 C   0  0  0  0  0  0  0  0  0  0  0  0
    5.9550    0.6940   28.7980 C   0  0  1  0  0  0  0  0  0  0  0  0
    6.1320    2.0110   29.4720 C   0  0  0  0  0  0  0  0  0  0  0  0
    7.3500    2.5380   29.5710 O   0  0  0  0  0  0  0  0  0  0  0  0
    5.0330    2.6780   29.9830 O   0  0  0  0  0  0  0  0  0  0  0  0
    4.2750    3.5670   29.1810 C   0  0  0  0  0  0  0  0  0  0  0  0
    3.0860    2.7830   28.6160 C   0  0  0  0  0  0  0  0  0  0  0  0
    5.2070    4.0900   28.2690 C   0  0  0  0  0  0  0  0  0  0  0  0
    3.6300    4.7600   29.8510 C   0  0  0  0  0  0  0  0  0  0  0  0
    5.8080    0.7810   27.4350 C   0  0  0  0  0  0  0  0  0  0  0  0
    5.7720   -0.3640   26.6780 C   0  0  0  0  0  0  0  0  0  0  0  0
    7.3920   -2.9980   23.6620 C   0  0  0  0  0  0  0  0  0  0  0  0
    7.6870   -3.2160   22.2060 C   0  0  0  0  0  0  0  0  0  0  0  0
  1  2  1  0
  2  3  2  0
  2  4  1  0
  4  5  1  0
  5  6  1  0
  6  7  1  0
  7  8  1  0
  8  9  2  0
  8 10  1  0
 11 10  1  6
 11 12  1  0
 12 13  1  0
 13 14  1  0
 14 15  1  6
 15 16  2  0
 15 17  1  0
 18 17  1  0
 18 19  1  0
 18 20  1  0
 18 21  1  0
 14 22  1  0
 11 23  1  0
 22 23  1  0
  7 24  1  0
  4 25  1  0
 24 25  1  0
M  END
