piperidine-amides-11980-covalent
     RDKit          3D

 26 28  0  0  0  0  0  0  0  0999 V2000
    7.0490   -3.3500   19.2780 C   0  0  0  0  0  0  0  0  0  0  0  0
    6.3540   -4.1640   20.2690 C   0  0  0  0  0  0  0  0  0  0  0  0
    5.3320   -4.7690   19.9560 O   0  0  0  0  0  0  0  0  0  0  0  0
    6.8960   -4.3090   21.5880 N   0  0  0  0  0  0  0  0  0  0  0  0
    7.6330   -3.2280   22.1890 C   0  0  0  0  0  0  0  0  0  0  0  0
    6.8390   -2.6430   23.3180 C   0  0  0  0  0  0  0  0  0  0  0  0
    6.5310   -3.7860   24.2580 C   0  0  0  0  0  0  0  0  0  0  0  0
    5.7570   -3.2890   25.4330 C   0  0  0  0  0  0  0  0  0  0  0  0
    4.5070   -3.2340   25.4760 O   0  0  0  0  0  0  0  0  0  0  0  0
    6.4960   -2.8770   26.5630 N   0  0  0  0  0  0  0  0  0  0  0  0
    6.3910   -1.5330   27.1050 C   0  0  0  0  0  0  0  0  0  0  0  0
    5.8450   -0.4250   26.2360 C   0  0  0  0  0  0  0  0  0  0  0  0
    5.7290    0.8790   26.7340 C   0  0  0  0  0  0  0  0  0  0  0  0
    5.2170    1.9000   25.9210 C   0  0  0  0  0  0  0  0  0  0  0  0
    3.8140    1.8430   25.7460 N   0  0  0  0  0  0  0  0  0  0  0  0
    3.1350    2.5770   24.7530 C   0  0  0  0  0  0  0  0  0  0  0  0
    1.9130    1.9500   24.2740 C   0  0  0  0  0  0  0  0  0  0  0  0
    0.8430    1.0830   25.2620 S   0  0  0  0  0  0  0  0  0  0  0  0
    1.8280    1.0860   26.6490 C   0  0  0  0  0  0  0  0  0  0  0  0
    2.9930    0.6850   26.0210 C   0  0  0  0  0  0  0  0  0  0  0  0
    6.1300    1.1160   28.0280 C   0  0  0  0  0  0  0  0  0  0  0  0
    6.6580    0.0720   28.8850 C   0  0  0  0  0  0  0  0  0  0  0  0
    6.7610   -1.1870   28.3950 C   0  0  0  0  0  0  0  0  0  0  0  0
    7.2320   -2.1900   29.1590 C   0  0  0  0  0  0  0  0  0  0  0  0
    5.7370   -4.8770   23.5750 C   0  0  0  0  0  0  0  0  0  0  0  0
    6.5580   -5.4420   22.4060 C   0  0  0  0  0  0  0  0  0  0  0  0
  1  2  1  0
  2  3  2  0
  2  4  1  0
  4  5  1  0
  5  6  1  0
  6  7  1  0
  7  8  1  0
  8  9  2  0
  8 10  1  0
 10 11  1  0
 11 12  2  0
 12 13  1  0
 13 14  1  0
 14 15  1  0
 15 16  1  0
 16 17  1  0
 17 18  1  0
 18 19  1  0
 15 20  1  0
 19 20  1  0
 13 21  2  0
 21 22  1  0
 11 23  1  0
 22 23  2  0
 23 24  1  0
  7 25  1  0
  4 26  1  0
 25 26  1  0
M  END
