piperidine-amides-14559-covalent
     RDKit          3D

 23 24  0  0  0  0  0  0  0  0999 V2000
    7.1080   -3.3110   19.2760 C   0  0  0  0  0  0  0  0  0  0  0  0
    6.4270   -4.1210   20.2810 C   0  0  0  0  0  0  0  0  0  0  0  0
    5.3740   -4.7020   19.9490 O   0  0  0  0  0  0  0  0  0  0  0  0
    6.9970   -4.2710   21.5730 N   0  0  0  0  0  0  0  0  0  0  0  0
    7.7620   -3.1750   22.1230 C   0  0  0  0  0  0  0  0  0  0  0  0
    7.5480   -3.0790   23.6050 C   0  0  0  0  0  0  0  0  0  0  0  0
    6.1240   -3.5040   23.8180 C   0  0  0  0  0  0  0  0  0  0  0  0
    5.5850   -3.0650   25.1340 C   0  0  0  0  0  0  0  0  0  0  0  0
    4.3880   -2.7880   25.1240 O   0  0  0  0  0  0  0  0  0  0  0  0
    6.4220   -2.9910   26.2440 N   0  0  0  0  0  0  0  0  0  0  0  0
    6.1150   -3.7090   27.4410 C   0  0  0  0  0  0  0  0  0  0  0  0
    5.2670   -3.0570   28.3460 C   0  0  0  0  0  0  0  0  0  0  0  0
    4.8360   -3.7230   29.3060 O   0  0  0  0  0  0  0  0  0  0  0  0
    4.8240   -5.0910   29.2300 C   0  0  0  0  0  0  0  0  0  0  0  0
    6.0110   -5.8130   29.1330 C   0  0  0  0  0  0  0  0  0  0  0  0
    4.0460   -2.6010   27.5340 C   0  0  0  0  0  0  0  0  0  0  0  0
    2.7760   -2.2480   28.3560 C   0  0  0  0  0  0  0  0  0  0  0  0
    2.9260   -1.0100   29.1640 C   0  0  0  0  0  0  0  0  0  0  0  0
    3.7260   -1.4950   30.3350 C   0  0  0  0  0  0  0  0  0  0  0  0
    5.2130   -1.2510   29.9820 C   0  0  0  0  0  0  0  0  0  0  0  0
    5.7760   -1.8530   28.8690 C   0  0  0  0  0  0  0  0  0  0  0  0
    6.1120   -4.9920   23.7040 C   0  0  0  0  0  0  0  0  0  0  0  0
    6.5800   -5.4200   22.3450 C   0  0  0  0  0  0  0  0  0  0  0  0
  1  2  1  0
  2  3  2  0
  2  4  1  0
  4  5  1  0
  5  6  1  0
  6  7  1  0
  7  8  1  0
  8  9  2  0
  8 10  1  0
 10 11  1  0
 11 12  1  0
 12 13  1  0
 13 14  1  0
 14 15  1  0
 12 16  1  0
 16 17  1  0
 17 18  1  0
 18 19  1  0
 19 20  1  0
 12 21  1  0
 20 21  1  0
  7 22  1  0
  4 23  1  0
 22 23  1  0
M  END
