piperidine-amides-29851-covalent
     RDKit          3D

 27 29  0  0  0  0  0  0  0  0999 V2000
    6.9590   -3.4060   19.4750 C   0  0  0  0  0  0  0  0  0  0  0  0
    6.3590   -4.3350   20.4390 C   0  0  0  0  0  0  0  0  0  0  0  0
    5.4370   -5.0470   20.0280 O   0  0  0  0  0  0  0  0  0  0  0  0
    6.8350   -4.4640   21.8140 N   0  0  0  0  0  0  0  0  0  0  0  0
    7.5130   -3.3830   22.4900 C   0  0  0  0  0  0  0  0  0  0  0  0
    6.6970   -2.8800   23.6670 C   0  0  0  0  0  0  0  0  0  0  0  0
    6.0470   -4.0550   24.4070 C   0  0  0  0  0  0  0  0  0  0  0  0
    5.8760   -3.7380   25.8990 C   0  0  0  0  0  0  0  0  0  0  0  0
    5.2720   -2.6880   26.1920 O   0  0  0  0  0  0  0  0  0  0  0  0
    6.3020   -4.5700   27.0310 N   0  0  0  0  0  0  0  0  0  0  0  0
    5.4540   -4.5870   28.2460 C   0  0  0  0  0  0  0  0  0  0  0  0
    5.3090   -6.0170   28.8730 C   0  0  0  0  0  0  0  0  0  0  0  0
    6.3320   -6.9180   28.8570 N   0  0  0  0  0  0  0  0  0  0  0  0
    6.3870   -8.0470   29.8620 C   0  0  0  0  0  0  0  0  0  0  0  0
    6.0530   -7.8610   31.0610 O   0  0  0  0  0  0  0  0  0  0  0  0
    6.8430   -9.3920   29.4020 N   0  0  0  0  0  0  0  0  0  0  0  0
    7.6220  -10.6430   30.0810 C   0  0  0  0  0  0  0  0  0  0  0  0
    7.4470  -11.5540   31.4000 C   0  0  0  0  0  0  0  0  0  0  0  0
    8.3600  -12.5180   31.8630 C   0  0  0  0  0  0  0  0  0  0  0  0
    9.5090  -12.8970   31.3450 C   0  0  0  0  0  0  0  0  0  0  0  0
   10.3160  -13.8300   31.8720 C   0  0  0  0  0  0  0  0  0  0  0  0
    9.7720  -12.1380   30.0250 C   0  0  0  0  0  0  0  0  0  0  0  0
    8.8460  -11.0910   29.4790 C   0  0  0  0  0  0  0  0  0  0  0  0
    7.4590   -6.1290   28.3620 C   0  0  0  0  0  0  0  0  0  0  0  0
    7.2700   -5.6440   27.0140 C   0  0  0  0  0  0  0  0  0  0  0  0
    6.7850   -5.3320   24.0930 C   0  0  0  0  0  0  0  0  0  0  0  0
    6.6500   -5.6810   22.5800 C   0  0  0  0  0  0  0  0  0  0  0  0
  1  2  1  0
  2  3  2  0
  2  4  1  0
  4  5  1  0
  5  6  1  0
  6  7  1  0
  7  8  1  0
  8  9  2  0
  8 10  1  0
 10 11  1  0
 11 12  1  0
 12 13  1  0
 13 14  1  0
 14 15  2  0
 14 16  1  0
 16 17  1  0
 17 18  2  0
 18 19  1  0
 19 20  2  0
 20 21  1  0
 20 22  1  0
 17 23  1  0
 22 23  2  0
 13 24  1  0
 10 25  1  0
 24 25  1  0
  7 26  1  0
  4 27  1  0
 26 27  1  0
M  END
