piperidine-amides-27945-covalent
     RDKit          3D

 26 28  0  0  0  0  0  0  0  0999 V2000
    7.0490   -3.3530   19.3090 C   0  0  0  0  0  0  0  0  0  0  0  0
    6.3940   -4.1890   20.3400 C   0  0  0  0  0  0  0  0  0  0  0  0
    5.3750   -4.8100   19.9760 O   0  0  0  0  0  0  0  0  0  0  0  0
    6.9310   -4.3060   21.6360 N   0  0  0  0  0  0  0  0  0  0  0  0
    6.6840   -5.4790   22.4180 C   0  0  0  0  0  0  0  0  0  0  0  0
    6.2150   -5.1790   23.7700 C   0  0  0  0  0  0  0  0  0  0  0  0
    6.2110   -3.7330   24.0510 C   0  0  0  0  0  0  0  0  0  0  0  0
    5.5740   -3.4070   25.3540 C   0  0  0  0  0  0  0  0  0  0  0  0
    4.5550   -2.6950   25.3140 O   0  0  0  0  0  0  0  0  0  0  0  0
    6.0330   -3.8450   26.6060 N   0  0  0  0  0  0  0  0  0  0  0  0
    5.9130   -2.9530   27.7780 C   0  0  0  0  0  0  0  0  0  0  0  0
    6.2620   -3.6290   29.0530 C   0  0  0  0  0  0  0  0  0  0  0  0
    5.6870   -4.9210   29.3560 C   0  0  0  0  0  0  0  0  0  0  0  0
    4.5490   -5.2300   28.6840 C   0  0  2  0  0  0  0  0  0  0  0  0
    3.6260   -6.0940   29.2450 C   0  0  0  0  0  0  0  0  0  0  0  0
    2.3250   -6.0250   28.8170 C   0  0  0  0  0  0  0  0  0  0  0  0
    1.3630   -6.8550   29.3390 C   0  0  0  0  0  0  0  0  0  0  0  0
    1.6610   -7.7740   30.2990 C   0  0  0  0  0  0  0  0  0  0  0  0
    2.9530   -7.8940   30.7730 C   0  0  0  0  0  0  0  0  0  0  0  0
    3.9800   -7.0040   30.2100 C   0  0  0  0  0  0  0  0  0  0  0  0
    5.2820   -7.0870   30.6430 O   0  0  0  0  0  0  0  0  0  0  0  0
    6.1310   -7.8030   29.8170 C   0  0  0  0  0  0  0  0  0  0  0  0
    4.8280   -5.7110   27.3610 C   0  0  0  0  0  0  0  0  0  0  0  0
    6.0230   -5.2740   26.8550 C   0  0  0  0  0  0  0  0  0  0  0  0
    7.4640   -3.0920   23.6750 C   0  0  0  0  0  0  0  0  0  0  0  0
    7.7760   -3.2550   22.2260 C   0  0  0  0  0  0  0  0  0  0  0  0
  1  2  1  0
  2  3  2  0
  2  4  1  0
  4  5  1  0
  5  6  1  0
  6  7  1  0
  7  8  1  0
  8  9  2  0
  8 10  1  0
 10 11  1  0
 11 12  1  0
 12 13  1  0
 13 14  1  0
 14 15  1  1
 15 16  2  0
 16 17  1  0
 17 18  2  0
 18 19  1  0
 15 20  1  0
 19 20  2  0
 20 21  1  0
 21 22  1  0
 14 23  1  0
 10 24  1  0
 23 24  1  0
  7 25  1  0
  4 26  1  0
 25 26  1  0
M  END
