piperidine-amides-14117-covalent
     RDKit          3D

 25 27  0  0  0  0  0  0  0  0999 V2000
    7.0450   -3.3290   19.3820 C   0  0  0  0  0  0  0  0  0  0  0  0
    6.3500   -4.2000   20.3710 C   0  0  0  0  0  0  0  0  0  0  0  0
    5.3670   -4.8560   19.9860 O   0  0  0  0  0  0  0  0  0  0  0  0
    6.8380   -4.3050   21.7000 N   0  0  0  0  0  0  0  0  0  0  0  0
    6.7110   -5.5350   22.4600 C   0  0  0  0  0  0  0  0  0  0  0  0
    6.1300   -5.2300   23.8540 C   0  0  0  0  0  0  0  0  0  0  0  0
    5.9880   -3.7540   23.9780 C   0  0  0  0  0  0  0  0  0  0  0  0
    5.3950   -3.2900   25.2610 C   0  0  0  0  0  0  0  0  0  0  0  0
    4.1730   -3.1310   25.2380 O   0  0  0  0  0  0  0  0  0  0  0  0
    6.1530   -3.0420   26.4090 N   0  0  0  0  0  0  0  0  0  0  0  0
    6.1470   -1.8370   27.1680 C   0  0  0  0  0  0  0  0  0  0  0  0
    6.5270   -0.6050   26.6730 C   0  0  0  0  0  0  0  0  0  0  0  0
    6.5300    0.6040   27.4230 C   0  0  0  0  0  0  0  0  0  0  0  0
    6.1600    0.6430   28.7320 C   0  0  0  0  0  0  0  0  0  0  0  0
    5.7340   -0.6210   29.3250 C   0  0  0  0  0  0  0  0  0  0  0  0
    5.7140   -1.9010   28.5080 C   0  0  0  0  0  0  0  0  0  0  0  0
    5.2060   -3.0680   29.1990 N   0  0  0  0  0  0  0  0  0  0  0  0
    4.1230   -2.9060   29.9680 N   0  0  0  0  0  0  0  0  0  0  0  0
    3.6600   -3.9980   30.5830 C   0  0  0  0  0  0  0  0  0  0  0  0
    2.6010   -4.2240   31.4300 C   0  0  0  0  0  0  0  0  0  0  0  0
    4.5350   -5.1100   30.2050 C   0  0  0  0  0  0  0  0  0  0  0  0
    5.5490   -4.4510   29.2930 C   0  0  0  0  0  0  0  0  0  0  0  0
    6.5910   -5.0080   28.6650 C   0  0  0  0  0  0  0  0  0  0  0  0
    7.2380   -3.0080   23.6780 C   0  0  0  0  0  0  0  0  0  0  0  0
    7.6980   -3.2580   22.2640 C   0  0  0  0  0  0  0  0  0  0  0  0
  1  2  1  0
  2  3  2  0
  2  4  1  0
  4  5  1  0
  5  6  1  0
  6  7  1  0
  7  8  1  0
  8  9  2  0
  8 10  1  0
 10 11  1  0
 11 12  2  0
 12 13  1  0
 13 14  2  0
 14 15  1  0
 11 16  1  0
 15 16  2  0
 16 17  1  0
 17 18  1  0
 18 19  2  0
 19 20  1  0
 19 21  1  0
 17 22  1  0
 21 22  2  0
 22 23  1  0
  7 24  1  0
  4 25  1  0
 24 25  1  0
M  END
