piperidine-amides-11676-covalent
     RDKit          3D

 29 31  0  0  0  0  0  0  0  0999 V2000
    7.0700   -3.3080   19.3330 C   0  0  0  0  0  0  0  0  0  0  0  0
    6.3590   -4.1350   20.3050 C   0  0  0  0  0  0  0  0  0  0  0  0
    5.3530   -4.7550   19.9580 O   0  0  0  0  0  0  0  0  0  0  0  0
    6.8540   -4.2700   21.6490 N   0  0  0  0  0  0  0  0  0  0  0  0
    6.5310   -5.4370   22.4430 C   0  0  0  0  0  0  0  0  0  0  0  0
    5.9870   -5.0470   23.8000 C   0  0  0  0  0  0  0  0  0  0  0  0
    5.9420   -3.5340   23.8790 C   0  0  0  0  0  0  0  0  0  0  0  0
    5.4680   -3.0330   25.2040 C   0  0  0  0  0  0  0  0  0  0  0  0
    5.2650   -1.8270   25.4080 O   0  0  0  0  0  0  0  0  0  0  0  0
    5.2020   -3.9270   26.2710 N   0  0  0  0  0  0  0  0  0  0  0  0
    6.0610   -3.8970   27.4220 C   0  0  2  0  0  0  0  0  0  0  0  0
    6.1700   -5.3280   27.8980 C   0  0  0  0  0  0  0  0  0  0  0  0
    5.8360   -6.2410   26.9210 O   0  0  0  0  0  0  0  0  0  0  0  0
    6.5300   -5.8030   29.1320 O   0  0  0  0  0  0  0  0  0  0  0  0
    5.9860   -6.9480   29.7180 C   0  0  0  0  0  0  0  0  0  0  0  0
    5.6610   -3.0400   28.5460 C   0  0  0  0  0  0  0  0  0  0  0  0
    4.4940   -3.1810   29.2590 C   0  0  0  0  0  0  0  0  0  0  0  0
    4.2260   -2.2760   30.3520 C   0  0  0  0  0  0  0  0  0  0  0  0
    5.0090   -1.2470   30.8010 C   0  0  0  0  0  0  0  0  0  0  0  0
    4.7090   -0.4190   31.8590 C   0  0  0  0  0  0  0  0  0  0  0  0
    3.7460   -0.7770   32.8220 C   0  0  0  0  0  0  0  0  0  0  0  0
    3.4560    0.1300   33.9400 C   0  0  0  0  0  0  0  0  0  0  0  0
    4.0780    1.3370   34.1140 C   0  0  0  0  0  0  0  0  0  0  0  0
    5.0180    1.6830   33.1720 C   0  0  0  0  0  0  0  0  0  0  0  0
    5.3340    0.7820   32.0250 C   0  0  0  0  0  0  0  0  0  0  0  0
    6.1750   -1.1000   30.0880 C   0  0  0  0  0  0  0  0  0  0  0  0
    6.5180   -2.0190   28.9250 C   0  0  0  0  0  0  0  0  0  0  0  0
    7.2280   -2.8750   23.5140 C   0  0  0  0  0  0  0  0  0  0  0  0
    7.6280   -3.2080   22.2300 C   0  0  0  0  0  0  0  0  0  0  0  0
  1  2  1  0
  2  3  2  0
  2  4  1  0
  4  5  1  0
  5  6  1  0
  6  7  1  0
  7  8  1  0
  8  9  2  0
  8 10  1  0
 11 10  1  6
 11 12  1  0
 12 13  2  0
 12 14  1  0
 14 15  1  0
 11 16  1  0
 16 17  2  0
 17 18  1  0
 18 19  2  0
 19 20  1  0
 20 21  2  0
 21 22  1  0
 22 23  2  0
 23 24  1  0
 20 25  1  0
 24 25  2  0
 19 26  1  0
 16 27  1  0
 26 27  2  0
  7 28  1  0
  4 29  1  0
 28 29  1  0
M  END
