piperidine-amides-32192-covalent
     RDKit          3D

 28 30  0  0  0  0  0  0  0  0999 V2000
    7.1100   -3.3320   19.2840 C   0  0  0  0  0  0  0  0  0  0  0  0
    6.4110   -4.1930   20.2720 C   0  0  0  0  0  0  0  0  0  0  0  0
    5.3510   -4.7540   19.9520 O   0  0  0  0  0  0  0  0  0  0  0  0
    7.0100   -4.4000   21.5280 N   0  0  0  0  0  0  0  0  0  0  0  0
    6.6380   -5.5190   22.3460 C   0  0  0  0  0  0  0  0  0  0  0  0
    5.7390   -4.9400   23.4400 C   0  0  0  0  0  0  0  0  0  0  0  0
    6.5330   -3.9120   24.1840 C   0  0  0  0  0  0  0  0  0  0  0  0
    5.7800   -3.3060   25.2990 C   0  0  0  0  0  0  0  0  0  0  0  0
    4.9530   -2.4480   24.9820 O   0  0  0  0  0  0  0  0  0  0  0  0
    5.9820   -3.7140   26.6140 N   0  0  0  0  0  0  0  0  0  0  0  0
    5.5260   -4.9610   27.0420 C   0  0  0  0  0  0  0  0  0  0  0  0
    6.0760   -5.5750   28.1030 C   0  0  0  0  0  0  0  0  0  0  0  0
    6.6440   -4.7250   29.0010 C   0  0  0  0  0  0  0  0  0  0  0  0
    6.1090   -3.4930   28.9310 C   0  0  1  0  0  0  0  0  0  0  0  0
    6.1720   -2.7230   27.6330 C   0  0  2  0  0  0  0  0  0  0  0  0
    5.1070   -1.6220   27.4180 C   0  0  0  0  0  0  0  0  0  0  0  0
    4.5120   -1.2730   28.7860 C   0  0  0  0  0  0  0  0  0  0  0  0
    4.1270   -2.3780   29.5060 C   0  0  0  0  0  0  0  0  0  0  0  0
    4.9120   -3.4510   29.5560 N   0  0  0  0  0  0  0  0  0  0  0  0
    4.1740   -4.6310   29.8860 C   0  0  0  0  0  0  0  0  0  0  0  0
    3.0810   -5.0320   29.4340 O   0  0  0  0  0  0  0  0  0  0  0  0
    4.6600   -5.5270   30.8660 O   0  0  0  0  0  0  0  0  0  0  0  0
    4.9610   -6.9210   30.6670 C   0  0  0  0  0  0  0  0  0  0  0  0
    4.3740   -7.7750   29.7660 C   0  0  0  0  0  0  0  0  0  0  0  0
    5.9210   -7.4700   29.6840 C   0  0  0  0  0  0  0  0  0  0  0  0
    5.0660   -7.5660   31.8830 C   0  0  0  0  0  0  0  0  0  0  0  0
    6.9900   -2.7780   23.3040 C   0  0  0  0  0  0  0  0  0  0  0  0
    7.7410   -3.2990   22.1480 C   0  0  0  0  0  0  0  0  0  0  0  0
  1  2  1  0
  2  3  2  0
  2  4  1  0
  4  5  1  0
  5  6  1  0
  6  7  1  0
  7  8  1  0
  8  9  2  0
  8 10  1  0
 10 11  1  0
 11 12  1  0
 12 13  1  0
 14 13  1  6
 10 15  1  0
 14 15  1  0
 15 16  1  1
 16 17  1  0
 17 18  1  0
 14 19  1  0
 18 19  1  0
 19 20  1  0
 20 21  2  0
 20 22  1  0
 23 22  1  0
 23 24  1  0
 23 25  1  0
 23 26  1  0
  7 27  1  0
  4 28  1  0
 27 28  1  0
M  END
