piperidine-amides-31367-covalent
     RDKit          3D

 23 24  0  0  0  0  0  0  0  0999 V2000
    7.1820   -3.2950   19.3750 C   0  0  0  0  0  0  0  0  0  0  0  0
    6.4150   -4.0710   20.3170 C   0  0  0  0  0  0  0  0  0  0  0  0
    5.3330   -4.6160   19.9180 O   0  0  0  0  0  0  0  0  0  0  0  0
    6.8580   -4.2810   21.6390 N   0  0  0  0  0  0  0  0  0  0  0  0
    6.4560   -5.5140   22.3360 C   0  0  0  0  0  0  0  0  0  0  0  0
    5.4300   -4.8660   23.3330 C   0  0  0  0  0  0  0  0  0  0  0  0
    6.2620   -3.9660   24.2170 C   0  0  0  0  0  0  0  0  0  0  0  0
    5.3620   -3.3590   25.3850 C   0  0  0  0  0  0  0  0  0  0  0  0
    4.2810   -3.0490   24.9100 O   0  0  0  0  0  0  0  0  0  0  0  0
    5.9510   -3.3390   26.5230 N   0  0  0  0  0  0  0  0  0  0  0  0
    6.2590   -3.7390   27.8050 C   0  0  0  0  0  0  0  0  0  0  0  0
    6.6580   -4.8840   28.4500 C   0  0  0  0  0  0  0  0  0  0  0  0
    6.4550   -1.9620   26.4750 C   0  0  0  0  0  0  0  0  0  0  0  0
    5.5880   -0.9530   25.8180 C   0  0  0  0  0  0  0  0  0  0  0  0
    6.3110   -0.2230   24.7680 C   0  0  0  0  0  0  0  0  0  0  0  0
    5.3520    0.7060   24.2250 C   0  0  0  0  0  0  0  0  0  0  0  0
    6.1240    1.7670   22.8230 Br  0  0  0  0  0  0  0  0  0  0  0  0
    3.9240    1.0720   24.4530 C   0  0  0  0  0  0  0  0  0  0  0  0
    3.4460    0.1200   25.6280 C   0  0  0  0  0  0  0  0  0  0  0  0
    4.2980   -0.9330   26.3450 C   0  0  0  0  0  0  0  0  0  0  0  0
    3.7540   -1.7140   27.3730 F   0  0  0  0  0  0  0  0  0  0  0  0
    6.9420   -2.8420   23.4050 C   0  0  0  0  0  0  0  0  0  0  0  0
    7.6820   -3.3180   22.3530 C   0  0  0  0  0  0  0  0  0  0  0  0
  1  2  1  0
  2  3  2  0
  2  4  1  0
  4  5  1  0
  5  6  1  0
  6  7  1  0
  7  8  1  0
  8  9  2  0
  8 10  1  0
 10 11  1  0
 11 12  1  0
 10 13  1  0
 13 14  1  0
 14 15  2  0
 15 16  1  0
 16 17  1  0
 16 18  2  0
 18 19  1  0
 14 20  1  0
 19 20  2  0
 20 21  1  0
  7 22  1  0
  4 23  1  0
 22 23  1  0
M  END
