piperidine-amides-10842-covalent
     RDKit          3D

 22 23  0  0  0  0  0  0  0  0999 V2000
    7.0480   -3.3240   19.3110 C   0  0  0  0  0  0  0  0  0  0  0  0
    6.3570   -4.1260   20.3250 C   0  0  0  0  0  0  0  0  0  0  0  0
    5.3880   -4.8250   19.9790 O   0  0  0  0  0  0  0  0  0  0  0  0
    6.7890   -4.1580   21.6620 N   0  0  0  0  0  0  0  0  0  0  0  0
    7.7220   -3.1760   22.1910 C   0  0  0  0  0  0  0  0  0  0  0  0
    7.4110   -3.0200   23.6490 C   0  0  0  0  0  0  0  0  0  0  0  0
    6.0790   -3.6170   23.9710 C   0  0  0  0  0  0  0  0  0  0  0  0
    5.6240   -3.3090   25.3460 C   0  0  0  0  0  0  0  0  0  0  0  0
    4.3850   -3.3210   25.6320 O   0  0  0  0  0  0  0  0  0  0  0  0
    6.5120   -2.9800   26.3920 N   0  0  0  0  0  0  0  0  0  0  0  0
    6.4470   -1.6810   27.0960 C   0  0  0  0  0  0  0  0  0  0  0  0
    7.0360   -1.6240   28.4530 C   0  0  0  0  0  0  0  0  0  0  0  0
    7.0300   -0.3960   29.2570 C   0  0  0  0  0  0  0  0  0  0  0  0
    6.4130    0.8540   28.7070 C   0  0  0  0  0  0  0  0  0  0  0  0
    5.8030    0.8420   27.3270 C   0  0  0  0  0  0  0  0  0  0  0  0
    5.1230    2.4740   26.9040 S   0  0  0  0  0  0  0  0  0  0  0  0
    6.6950    3.2860   26.4360 C   0  0  0  0  0  0  0  0  0  0  0  0
    7.1580    4.0230   27.5230 F   0  0  0  0  0  0  0  0  0  0  0  0
    6.5230    4.0690   25.3330 F   0  0  0  0  0  0  0  0  0  0  0  0
    5.7930   -0.4270   26.4540 C   0  0  0  0  0  0  0  0  0  0  0  0
    6.0760   -5.1100   23.7500 C   0  0  0  0  0  0  0  0  0  0  0  0
    6.6800   -5.4130   22.3930 C   0  0  0  0  0  0  0  0  0  0  0  0
  1  2  1  0
  2  3  2  0
  2  4  1  0
  4  5  1  0
  5  6  1  0
  6  7  1  0
  7  8  1  0
  8  9  2  0
  8 10  1  0
 10 11  1  0
 11 12  2  0
 12 13  1  0
 13 14  2  0
 14 15  1  0
 15 16  1  0
 16 17  1  0
 17 18  1  0
 17 19  1  0
 11 20  1  0
 15 20  2  0
  7 21  1  0
  4 22  1  0
 21 22  1  0
M  END
