piperidine-amides-27000-covalent
     RDKit          3D

 25 26  0  0  0  0  0  0  0  0999 V2000
    7.0650   -3.3370   19.3090 C   0  0  0  0  0  0  0  0  0  0  0  0
    6.3900   -4.1630   20.3150 C   0  0  0  0  0  0  0  0  0  0  0  0
    5.3350   -4.7410   19.9510 O   0  0  0  0  0  0  0  0  0  0  0  0
    6.9520   -4.3260   21.5870 N   0  0  0  0  0  0  0  0  0  0  0  0
    6.7200   -5.5280   22.3680 C   0  0  0  0  0  0  0  0  0  0  0  0
    6.1560   -5.1480   23.7180 C   0  0  0  0  0  0  0  0  0  0  0  0
    6.0970   -3.6540   23.9070 C   0  0  0  0  0  0  0  0  0  0  0  0
    5.6370   -3.2910   25.2590 C   0  0  0  0  0  0  0  0  0  0  0  0
    4.5630   -2.6620   25.3440 O   0  0  0  0  0  0  0  0  0  0  0  0
    6.2970   -3.6160   26.4480 N   0  0  0  0  0  0  0  0  0  0  0  0
    5.7290   -3.3950   27.7430 C   0  0  0  0  0  0  0  0  0  0  0  0
    5.4220   -4.7190   28.3990 C   0  0  2  0  0  0  0  0  0  0  0  0
    4.5360   -4.7190   29.4500 C   0  0  0  0  0  0  0  0  0  0  0  0
    4.3630   -3.4720   30.1130 O   0  0  0  0  0  0  0  0  0  0  0  0
    3.8790   -5.8590   29.7900 N   0  0  0  0  0  0  0  0  0  0  0  0
    2.9000   -5.8540   30.7060 C   0  0  0  0  0  0  0  0  0  0  0  0
    3.4250   -5.6290   31.9730 C   0  0  0  0  0  0  0  0  0  0  0  0
    2.5700   -5.8770   33.0300 C   0  0  0  0  0  0  0  0  0  0  0  0
    1.2170   -5.7170   32.8340 C   0  0  0  0  0  0  0  0  0  0  0  0
    6.7350   -5.3700   28.9040 C   0  0  0  0  0  0  0  0  0  0  0  0
    7.5320   -5.1270   27.6150 C   0  0  0  0  0  0  0  0  0  0  0  0
    7.5980   -3.7410   27.0130 C   0  0  2  0  0  0  0  0  0  0  0  0
    7.9760   -2.5680   27.9150 C   0  0  0  0  0  0  0  0  0  0  0  0
    7.3780   -2.9940   23.5820 C   0  0  0  0  0  0  0  0  0  0  0  0
    7.7340   -3.2450   22.1460 C   0  0  0  0  0  0  0  0  0  0  0  0
  1  2  1  0
  2  3  2  0
  2  4  1  0
  4  5  1  0
  5  6  1  0
  6  7  1  0
  7  8  1  0
  8  9  2  0
  8 10  1  0
 10 11  1  0
 11 12  1  0
 12 13  1  1
 13 14  2  0
 13 15  1  0
 15 16  1  0
 16 17  1  0
 17 18  1  0
 18 19  1  0
 12 20  1  0
 20 21  1  0
 10 22  1  0
 21 22  1  0
 22 23  1  1
  7 24  1  0
  4 25  1  0
 24 25  1  0
M  END
