piperidine-amides-35552-covalent
     RDKit          3D

 37 41  0  0  0  0  0  0  0  0999 V2000
    7.0380   -3.3440   19.3450 C   0  0  0  0  0  0  0  0  0  0  0  0
    6.3780   -4.2020   20.3620 C   0  0  0  0  0  0  0  0  0  0  0  0
    5.3890   -4.8330   19.9850 O   0  0  0  0  0  0  0  0  0  0  0  0
    6.9000   -4.3240   21.6660 N   0  0  0  0  0  0  0  0  0  0  0  0
    6.6370   -5.4900   22.4680 C   0  0  0  0  0  0  0  0  0  0  0  0
    6.5060   -5.0980   23.9240 C   0  0  0  0  0  0  0  0  0  0  0  0
    5.9260   -3.6850   24.0440 C   0  0  0  0  0  0  0  0  0  0  0  0
    5.5170   -3.3780   25.4550 C   0  0  0  0  0  0  0  0  0  0  0  0
    4.3060   -3.2050   25.6450 O   0  0  0  0  0  0  0  0  0  0  0  0
    6.3810   -3.2560   26.5870 N   0  0  0  0  0  0  0  0  0  0  0  0
    6.3700   -4.3640   27.5260 C   0  0  0  0  0  0  0  0  0  0  0  0
    6.7740   -5.6510   26.8790 C   0  0  0  0  0  0  0  0  0  0  0  0
    5.9820   -6.6690   27.3670 O   0  0  0  0  0  0  0  0  0  0  0  0
    6.4670   -1.9700   27.1010 C   0  0  0  0  0  0  0  0  0  0  0  0
    7.3760   -1.5720   28.0780 N   0  0  0  0  0  0  0  0  0  0  0  0
    7.3360   -0.1900   28.5000 C   0  0  0  0  0  0  0  0  0  0  0  0
    8.2030    0.3570   29.4230 N   0  0  0  0  0  0  0  0  0  0  0  0
    8.6590   -0.2530   30.6400 C   0  0  0  0  0  0  0  0  0  0  0  0
    9.4430    0.6260   31.5980 C   0  0  0  0  0  0  0  0  0  0  0  0
    9.5310    1.9570   31.2150 N   0  0  0  0  0  0  0  0  0  0  0  0
   10.2400    2.9980   31.9760 C   0  0  0  0  0  0  0  0  0  0  0  0
   10.5190    4.4350   31.5420 C   0  0  0  0  0  0  0  0  0  0  0  0
   11.2640    5.3050   32.5290 C   0  0  0  0  0  0  0  0  0  0  0  0
   11.6670    4.7060   33.8320 C   0  0  0  0  0  0  0  0  0  0  0  0
   11.3570    3.2830   34.1800 C   0  0  0  0  0  0  0  0  0  0  0  0
   10.6330    2.4740   33.1960 C   0  0  0  0  0  0  0  0  0  0  0  0
    9.7660    2.0050   29.8160 C   0  0  0  0  0  0  0  0  0  0  0  0
    8.5950    1.7610   29.1180 C   0  0  0  0  0  0  0  0  0  0  0  0
    6.4090    0.6730   27.9750 N   0  0  0  0  0  0  0  0  0  0  0  0
    5.3980    0.5950   27.0420 C   0  0  0  0  0  0  0  0  0  0  0  0
    5.5260    1.9850   27.6670 C   0  0  0  0  0  0  0  0  0  0  0  0
    6.6080    1.9370   28.6620 C   0  0  0  0  0  0  0  0  0  0  0  0
    7.0720    0.7100   28.6400 C   0  0  0  0  0  0  0  0  0  0  0  0
    6.7790   -0.5620   27.9000 C   0  0  0  0  0  0  0  0  0  0  0  0
    5.7190   -0.7710   26.8440 C   0  0  0  0  0  0  0  0  0  0  0  0
    6.7650   -2.6490   23.3990 C   0  0  0  0  0  0  0  0  0  0  0  0
    7.5970   -3.2040   22.2730 C   0  0  0  0  0  0  0  0  0  0  0  0
  1  2  1  0
  2  3  2  0
  2  4  1  0
  4  5  1  0
  5  6  1  0
  6  7  1  0
  7  8  1  0
  8  9  2  0
  8 10  1  0
 10 11  1  0
 11 12  1  0
 12 13  1  0
 10 14  1  0
 14 15  2  0
 15 16  1  0
 16 17  1  0
 17 18  1  0
 18 19  1  0
 19 20  1  0
 20 21  1  0
 21 22  2  0
 22 23  1  0
 23 24  2  0
 24 25  1  0
 21 26  1  0
 25 26  2  0
 20 27  1  0
 17 28  1  0
 27 28  1  0
 16 29  2  0
 29 30  1  0
 30 31  1  0
 31 32  2  0
 32 33  1  0
 33 34  2  0
 14 35  1  0
 30 35  2  0
 34 35  1  0
  7 36  1  0
  4 37  1  0
 36 37  1  0
M  END
