piperidine-amides-34213-covalent
     RDKit          3D

 30 32  0  0  0  0  0  0  0  0999 V2000
    7.0730   -3.3250   19.2700 C   0  0  0  0  0  0  0  0  0  0  0  0
    6.3970   -4.1680   20.2630 C   0  0  0  0  0  0  0  0  0  0  0  0
    5.3510   -4.7820   19.9600 O   0  0  0  0  0  0  0  0  0  0  0  0
    6.9480   -4.3440   21.5350 N   0  0  0  0  0  0  0  0  0  0  0  0
    6.5910   -5.5260   22.2800 C   0  0  0  0  0  0  0  0  0  0  0  0
    5.7640   -5.0130   23.4590 C   0  0  0  0  0  0  0  0  0  0  0  0
    6.6390   -3.9980   24.1620 C   0  0  0  0  0  0  0  0  0  0  0  0
    5.8800   -3.4270   25.2940 C   0  0  0  0  0  0  0  0  0  0  0  0
    4.9170   -2.6750   25.0420 O   0  0  0  0  0  0  0  0  0  0  0  0
    6.2330   -3.7640   26.6210 N   0  0  0  0  0  0  0  0  0  0  0  0
    6.0900   -2.8010   27.6720 C   0  0  0  0  0  0  0  0  0  0  0  0
    5.5770   -3.6410   28.8230 C   0  0  1  0  0  0  0  0  0  0  0  0
    4.4860   -3.1130   29.4650 C   0  0  0  0  0  0  0  0  0  0  0  0
    4.8350   -1.8790   30.0600 N   0  0  0  0  0  0  0  0  0  0  0  0
    3.8260   -1.1200   30.6800 C   0  0  0  0  0  0  0  0  0  0  0  0
    3.9140   -0.7320   32.0100 O   0  0  0  0  0  0  0  0  0  0  0  0
    2.7200   -0.7360   29.9820 O   0  0  0  0  0  0  0  0  0  0  0  0
    1.5250   -1.3840   30.2270 C   0  0  0  0  0  0  0  0  0  0  0  0
    0.8690   -1.3190   29.0160 C   0  0  0  0  0  0  0  0  0  0  0  0
    0.5160   -0.8870   31.2750 C   0  0  0  0  0  0  0  0  0  0  0  0
    1.8780   -2.7990   30.5720 C   0  0  0  0  0  0  0  0  0  0  0  0
    5.4070   -4.9210   28.3580 C   0  0  0  0  0  0  0  0  0  0  0  0
    4.0330   -5.4800   28.4520 C   0  0  0  0  0  0  0  0  0  0  0  0
    4.0090   -6.8630   28.6440 C   0  0  0  0  0  0  0  0  0  0  0  0
    4.7830   -7.3530   29.6300 O   0  0  0  0  0  0  0  0  0  0  0  0
    5.8200   -6.6300   30.1600 C   0  0  0  0  0  0  0  0  0  0  0  0
    6.3270   -5.6890   29.0750 C   0  0  0  0  0  0  0  0  0  0  0  0
    5.8300   -5.0490   27.0760 C   0  0  0  0  0  0  0  0  0  0  0  0
    7.1560   -2.8590   23.3480 C   0  0  0  0  0  0  0  0  0  0  0  0
    7.6630   -3.2400   22.1350 C   0  0  0  0  0  0  0  0  0  0  0  0
  1  2  1  0
  2  3  2  0
  2  4  1  0
  4  5  1  0
  5  6  1  0
  6  7  1  0
  7  8  1  0
  8  9  2  0
  8 10  1  0
 10 11  1  0
 11 12  1  0
 12 13  1  6
 13 14  1  0
 14 15  1  0
 15 16  2  0
 15 17  1  0
 18 17  1  0
 18 19  1  0
 18 20  1  0
 18 21  1  0
 12 22  1  0
 22 23  1  0
 23 24  1  0
 24 25  1  0
 25 26  1  0
 22 27  1  0
 26 27  1  0
 10 28  1  0
 22 28  1  0
  7 29  1  0
  4 30  1  0
 29 30  1  0
M  END
