piperidine-amides-14553-covalent
     RDKit          3D

 23 23  0  0  0  0  0  0  0  0999 V2000
    7.0560   -3.2890   19.2720 C   0  0  0  0  0  0  0  0  0  0  0  0
    6.3500   -4.0720   20.2920 C   0  0  0  0  0  0  0  0  0  0  0  0
    5.3400   -4.7070   19.9380 O   0  0  0  0  0  0  0  0  0  0  0  0
    6.8180   -4.1390   21.6300 N   0  0  0  0  0  0  0  0  0  0  0  0
    7.7130   -3.1220   22.1220 C   0  0  0  0  0  0  0  0  0  0  0  0
    7.4770   -2.9450   23.5830 C   0  0  0  0  0  0  0  0  0  0  0  0
    6.1130   -3.5330   23.8230 C   0  0  0  0  0  0  0  0  0  0  0  0
    5.6160   -3.2340   25.2090 C   0  0  0  0  0  0  0  0  0  0  0  0
    4.4910   -2.7430   25.2720 O   0  0  0  0  0  0  0  0  0  0  0  0
    6.4210   -3.5140   26.3080 N   0  0  0  0  0  0  0  0  0  0  0  0
    6.1230   -4.5920   27.1980 C   0  0  2  0  0  0  0  0  0  0  0  0
    4.7800   -4.9030   27.2770 C   0  0  0  0  0  0  0  0  0  0  0  0
    3.9930   -4.1110   28.0880 C   0  0  2  0  0  0  0  0  0  0  0  0
    3.7380   -4.4430   29.4100 C   0  0  0  0  0  0  0  0  0  0  0  0
    2.5420   -4.0440   27.5040 C   0  0  0  0  0  0  0  0  0  0  0  0
    1.7990   -5.3510   27.1470 C   0  0  0  0  0  0  0  0  0  0  0  0
    6.5120   -4.3230   28.5250 C   0  0  0  0  0  0  0  0  0  0  0  0
    7.0540   -3.2380   28.8460 O   0  0  0  0  0  0  0  0  0  0  0  0
    6.2670   -5.2600   29.5060 O   0  0  0  0  0  0  0  0  0  0  0  0
    6.4870   -6.6310   29.2490 C   0  0  0  0  0  0  0  0  0  0  0  0
    5.2430   -7.2610   28.5730 C   0  0  0  0  0  0  0  0  0  0  0  0
    6.1610   -5.0390   23.6600 C   0  0  0  0  0  0  0  0  0  0  0  0
    6.6450   -5.3510   22.4010 C   0  0  0  0  0  0  0  0  0  0  0  0
  1  2  1  0
  2  3  2  0
  2  4  1  0
  4  5  1  0
  5  6  1  0
  6  7  1  0
  7  8  1  0
  8  9  2  0
  8 10  1  0
 10 11  1  0
 11 12  1  1
 12 13  1  0
 13 14  1  1
 13 15  1  0
 15 16  1  0
 11 17  1  0
 17 18  2  0
 17 19  1  0
 19 20  1  0
 20 21  1  0
  7 22  1  0
  4 23  1  0
 22 23  1  0
M  END
