piperidine-amides-21549-covalent
     RDKit          3D

 21 22  0  0  0  0  0  0  0  0999 V2000
    7.0540   -3.3310   19.3390 C   0  0  0  0  0  0  0  0  0  0  0  0
    6.3780   -4.1790   20.3270 C   0  0  0  0  0  0  0  0  0  0  0  0
    5.3230   -4.7490   19.9490 O   0  0  0  0  0  0  0  0  0  0  0  0
    6.9190   -4.3770   21.5990 N   0  0  0  0  0  0  0  0  0  0  0  0
    6.5560   -5.5240   22.3900 C   0  0  0  0  0  0  0  0  0  0  0  0
    5.8890   -5.0160   23.6390 C   0  0  0  0  0  0  0  0  0  0  0  0
    6.7190   -3.9530   24.3230 C   0  0  0  0  0  0  0  0  0  0  0  0
    5.9960   -3.4340   25.5050 C   0  0  0  0  0  0  0  0  0  0  0  0
    4.7520   -3.2850   25.4260 O   0  0  0  0  0  0  0  0  0  0  0  0
    6.6630   -3.1020   26.6990 N   0  0  0  0  0  0  0  0  0  0  0  0
    7.5690   -4.0860   27.2690 C   0  0  0  0  0  0  0  0  0  0  0  0
    6.8630   -1.6890   27.0000 C   0  0  2  0  0  0  0  0  0  0  0  0
    7.2140   -1.6040   28.3550 C   0  0  0  0  0  0  0  0  0  0  0  0
    6.4470   -0.2440   29.1610 S   0  0  0  0  0  0  0  0  0  0  0  0
    5.5030   -0.6490   30.2360 O   0  0  0  0  0  0  0  0  0  0  0  0
    7.3880    0.8560   29.4850 O   0  0  0  0  0  0  0  0  0  0  0  0
    5.6100    0.1320   27.6800 C   0  0  0  0  0  0  0  0  0  0  0  0
    5.7360   -0.8480   26.6890 C   0  0  1  0  0  0  0  0  0  0  0  0
    5.9170   -0.2160   25.4320 O   0  0  0  0  0  0  0  0  0  0  0  0
    7.0290   -2.8610   23.3500 C   0  0  0  0  0  0  0  0  0  0  0  0
    7.6690   -3.3430   22.2380 C   0  0  0  0  0  0  0  0  0  0  0  0
  1  2  1  0
  2  3  2  0
  2  4  1  0
  4  5  1  0
  5  6  1  0
  6  7  1  0
  7  8  1  0
  8  9  2  0
  8 10  1  0
 10 11  1  0
 12 10  1  1
 12 13  1  0
 14 13  1  0
 14 15  2  0
 14 16  2  0
 14 17  1  0
 12 18  1  0
 17 18  1  0
 18 19  1  6
  7 20  1  0
  4 21  1  0
 20 21  1  0
M  END
