piperidine-amides-8516-covalent
     RDKit          3D

 24 26  0  0  0  0  0  0  0  0999 V2000
    7.0790   -3.3490   19.3100 C   0  0  0  0  0  0  0  0  0  0  0  0
    6.4240   -4.1950   20.3000 C   0  0  0  0  0  0  0  0  0  0  0  0
    5.3770   -4.7800   19.9680 O   0  0  0  0  0  0  0  0  0  0  0  0
    7.0140   -4.3810   21.5750 N   0  0  0  0  0  0  0  0  0  0  0  0
    7.6760   -3.2640   22.1760 C   0  0  0  0  0  0  0  0  0  0  0  0
    6.7830   -2.7120   23.2360 C   0  0  0  0  0  0  0  0  0  0  0  0
    6.5710   -3.8250   24.2380 C   0  0  0  0  0  0  0  0  0  0  0  0
    5.7830   -3.2950   25.3910 C   0  0  0  0  0  0  0  0  0  0  0  0
    4.5920   -3.0780   25.1870 O   0  0  0  0  0  0  0  0  0  0  0  0
    6.4430   -3.0930   26.5960 N   0  0  0  0  0  0  0  0  0  0  0  0
    6.4440   -1.8390   27.2620 C   0  0  0  0  0  0  0  0  0  0  0  0
    7.0180   -1.4900   28.5000 C   0  0  0  0  0  0  0  0  0  0  0  0
    7.0080   -0.2710   29.1430 C   0  0  0  0  0  0  0  0  0  0  0  0
    6.4130    0.8980   28.6950 C   0  0  0  0  0  0  0  0  0  0  0  0
    5.7400    0.7380   27.3800 C   0  0  0  0  0  0  0  0  0  0  0  0
    5.1220    1.8150   26.8480 N   0  0  0  0  0  0  0  0  0  0  0  0
    4.3850    1.7440   25.7460 C   0  0  0  0  0  0  0  0  0  0  0  0
    3.7900    2.9770   25.2990 C   0  0  0  0  0  0  0  0  0  0  0  0
    4.3420    3.8080   26.3940 C   0  0  0  0  0  0  0  0  0  0  0  0
    3.9670    5.3080   26.3610 C   0  0  0  0  0  0  0  0  0  0  0  0
    5.1120    3.1100   27.2800 N   0  0  0  0  0  0  0  0  0  0  0  0
    5.7770   -0.6050   26.7120 C   0  0  0  0  0  0  0  0  0  0  0  0
    5.7800   -4.9180   23.5730 C   0  0  0  0  0  0  0  0  0  0  0  0
    6.4880   -5.4640   22.3630 C   0  0  0  0  0  0  0  0  0  0  0  0
  1  2  1  0
  2  3  2  0
  2  4  1  0
  4  5  1  0
  5  6  1  0
  6  7  1  0
  7  8  1  0
  8  9  2  0
  8 10  1  0
 10 11  1  0
 11 12  2  0
 12 13  1  0
 13 14  2  0
 14 15  1  0
 15 16  1  0
 16 17  1  0
 17 18  2  0
 18 19  1  0
 19 20  1  0
 16 21  1  0
 19 21  2  0
 11 22  1  0
 15 22  2  0
  7 23  1  0
  4 24  1  0
 23 24  1  0
M  END
