piperidine-amides-3517-covalent
     RDKit          3D

 20 21  0  0  0  0  0  0  0  0999 V2000
    7.0430   -3.3060   19.3000 C   0  0  0  0  0  0  0  0  0  0  0  0
    6.3240   -4.0870   20.3000 C   0  0  0  0  0  0  0  0  0  0  0  0
    5.3430   -4.7430   19.9570 O   0  0  0  0  0  0  0  0  0  0  0  0
    6.7690   -4.1380   21.6700 N   0  0  0  0  0  0  0  0  0  0  0  0
    7.6550   -3.1180   22.1950 C   0  0  0  0  0  0  0  0  0  0  0  0
    7.4190   -2.9140   23.6640 C   0  0  0  0  0  0  0  0  0  0  0  0
    6.1040   -3.6030   23.9670 C   0  0  0  0  0  0  0  0  0  0  0  0
    5.5860   -3.2870   25.3320 C   0  0  0  0  0  0  0  0  0  0  0  0
    4.3770   -3.0380   25.5120 O   0  0  0  0  0  0  0  0  0  0  0  0
    6.4480   -3.2660   26.4610 N   0  0  0  0  0  0  0  0  0  0  0  0
    5.8730   -3.6440   27.7400 C   0  0  1  0  0  0  0  0  0  0  0  0
    6.6670   -4.7360   28.4190 C   0  0  0  0  0  0  0  0  0  0  0  0
    5.7820   -2.4680   28.6520 C   0  0  0  0  0  0  0  0  0  0  0  0
    4.5870   -2.0530   29.2520 C   0  0  0  0  0  0  0  0  0  0  0  0
    4.8240   -0.9460   30.0390 C   0  0  0  0  0  0  0  0  0  0  0  0
    6.2320   -0.5830   29.9810 C   0  0  0  0  0  0  0  0  0  0  0  0
    6.7030    0.8280   30.9410 Cl  0  0  0  0  0  0  0  0  0  0  0  0
    7.2710   -1.5220   29.0180 S   0  0  0  0  0  0  0  0  0  0  0  0
    6.1220   -5.0880   23.7190 C   0  0  0  0  0  0  0  0  0  0  0  0
    6.6400   -5.3700   22.4650 C   0  0  0  0  0  0  0  0  0  0  0  0
  1  2  1  0
  2  3  2  0
  2  4  1  0
  4  5  1  0
  5  6  1  0
  6  7  1  0
  7  8  1  0
  8  9  2  0
  8 10  1  0
 10 11  1  0
 11 12  1  1
 11 13  1  0
 13 14  2  0
 14 15  1  0
 15 16  2  0
 16 17  1  0
 13 18  1  0
 16 18  1  0
  7 19  1  0
  4 20  1  0
 19 20  1  0
M  END
