piperidine-amides-24480-covalent
     RDKit          3D

 24 26  0  0  0  0  0  0  0  0999 V2000
    7.1200   -3.3250   19.2430 C   0  0  0  0  0  0  0  0  0  0  0  0
    6.4080   -4.1290   20.2360 C   0  0  0  0  0  0  0  0  0  0  0  0
    5.3380   -4.7050   19.9450 O   0  0  0  0  0  0  0  0  0  0  0  0
    6.9740   -4.3100   21.4930 N   0  0  0  0  0  0  0  0  0  0  0  0
    6.6540   -5.4890   22.2540 C   0  0  0  0  0  0  0  0  0  0  0  0
    5.8030   -4.9800   23.4150 C   0  0  0  0  0  0  0  0  0  0  0  0
    6.6560   -3.9500   24.1130 C   0  0  0  0  0  0  0  0  0  0  0  0
    5.8830   -3.3830   25.2240 C   0  0  0  0  0  0  0  0  0  0  0  0
    5.0470   -2.4870   24.9890 O   0  0  0  0  0  0  0  0  0  0  0  0
    6.0830   -3.8860   26.5040 N   0  0  0  0  0  0  0  0  0  0  0  0
    5.8270   -3.0240   27.6160 C   0  0  0  0  0  0  0  0  0  0  0  0
    6.4000   -3.6570   28.8460 C   0  0  0  0  0  0  0  0  0  0  0  0
    6.3360   -5.0120   28.9480 C   0  0  0  0  0  0  0  0  0  0  0  0
    5.4410   -5.5340   28.0930 C   0  0  2  0  0  0  0  0  0  0  0  0
    4.9600   -6.8380   28.2950 C   0  0  2  0  0  0  0  0  0  0  0  0
    3.6700   -6.7720   28.0140 N   0  0  0  0  0  0  0  0  0  0  0  0
    2.8700   -6.9840   29.1740 C   0  0  0  0  0  0  0  0  0  0  0  0
    1.5170   -6.9680   29.2640 O   0  0  0  0  0  0  0  0  0  0  0  0
    3.6810   -7.2190   30.2430 N   0  0  0  0  0  0  0  0  0  0  0  0
    4.9740   -7.1510   29.7910 C   0  0  0  0  0  0  0  0  0  0  0  0
    6.1120   -7.3270   30.5170 O   0  0  0  0  0  0  0  0  0  0  0  0
    5.7340   -5.2540   26.8020 C   0  0  0  0  0  0  0  0  0  0  0  0
    7.1130   -2.8240   23.2940 C   0  0  0  0  0  0  0  0  0  0  0  0
    7.7600   -3.2820   22.0850 C   0  0  0  0  0  0  0  0  0  0  0  0
  1  2  1  0
  2  3  2  0
  2  4  1  0
  4  5  1  0
  5  6  1  0
  6  7  1  0
  7  8  1  0
  8  9  2  0
  8 10  1  0
 10 11  1  0
 11 12  1  0
 12 13  1  0
 14 13  1  1
 14 15  1  0
 15 16  1  1
 16 17  1  0
 17 18  2  0
 17 19  1  0
 15 20  1  0
 19 20  1  0
 20 21  2  0
 10 22  1  0
 14 22  1  0
  7 23  1  0
  4 24  1  0
 23 24  1  0
M  END
