piperidine-amides-27027-covalent
     RDKit          3D

 24 26  0  0  0  0  0  0  0  0999 V2000
    6.9950   -3.3780   19.4540 C   0  0  0  0  0  0  0  0  0  0  0  0
    6.3770   -4.2770   20.4380 C   0  0  0  0  0  0  0  0  0  0  0  0
    5.4070   -4.9550   20.0060 O   0  0  0  0  0  0  0  0  0  0  0  0
    6.8640   -4.4030   21.7580 N   0  0  0  0  0  0  0  0  0  0  0  0
    6.5470   -5.5540   22.5830 C   0  0  0  0  0  0  0  0  0  0  0  0
    5.8820   -5.0980   23.8690 C   0  0  0  0  0  0  0  0  0  0  0  0
    5.7490   -3.5930   23.9400 C   0  0  0  0  0  0  0  0  0  0  0  0
    5.0710   -3.0590   25.1900 C   0  0  0  0  0  0  0  0  0  0  0  0
    4.4720   -1.9820   25.0630 O   0  0  0  0  0  0  0  0  0  0  0  0
    5.0420   -3.6440   26.4870 N   0  0  0  0  0  0  0  0  0  0  0  0
    6.1790   -4.3160   26.7620 C   0  0  0  0  0  0  0  0  0  0  0  0
    6.1330   -5.3070   27.9080 C   0  0  0  0  0  0  0  0  0  0  0  0
    4.9600   -4.9700   28.6960 N   0  0  0  0  0  0  0  0  0  0  0  0
    4.6860   -5.7660   29.7160 C   0  0  0  0  0  0  0  0  0  0  0  0
    5.6930   -6.6460   30.1200 C   0  0  0  0  0  0  0  0  0  0  0  0
    5.3130   -7.3970   31.1710 C   0  0  0  0  0  0  0  0  0  0  0  0
    4.0560   -7.0630   31.5060 C   0  0  0  0  0  0  0  0  0  0  0  0
    3.6180   -8.0720   32.8760 Cl  0  0  0  0  0  0  0  0  0  0  0  0
    3.1350   -6.4220   31.3120 N   0  0  0  0  0  0  0  0  0  0  0  0
    3.4170   -5.6100   30.2560 N   0  0  0  0  0  0  0  0  0  0  0  0
    4.7630   -3.6520   28.9260 C   0  0  0  0  0  0  0  0  0  0  0  0
    4.3900   -3.0320   27.5830 C   0  0  0  0  0  0  0  0  0  0  0  0
    7.0830   -2.9610   23.7180 C   0  0  0  0  0  0  0  0  0  0  0  0
    7.5890   -3.2530   22.3190 C   0  0  0  0  0  0  0  0  0  0  0  0
  1  2  1  0
  2  3  2  0
  2  4  1  0
  4  5  1  0
  5  6  1  0
  6  7  1  0
  7  8  1  0
  8  9  2  0
  8 10  1  0
 10 11  1  0
 11 12  1  0
 12 13  1  0
 13 14  1  0
 14 15  2  0
 15 16  1  0
 16 17  2  0
 17 18  1  0
 17 19  1  0
 14 20  1  0
 19 20  2  0
 13 21  1  0
 10 22  1  0
 21 22  1  0
  7 23  1  0
  4 24  1  0
 23 24  1  0
M  END
