piperidine-amides-23722-covalent
     RDKit          3D

 24 26  0  0  0  0  0  0  0  0999 V2000
    7.0570   -3.3600   19.3190 C   0  0  0  0  0  0  0  0  0  0  0  0
    6.4090   -4.1990   20.3370 C   0  0  0  0  0  0  0  0  0  0  0  0
    5.3700   -4.8070   19.9780 O   0  0  0  0  0  0  0  0  0  0  0  0
    6.9690   -4.3590   21.6350 N   0  0  0  0  0  0  0  0  0  0  0  0
    6.4710   -5.4020   22.4620 C   0  0  0  0  0  0  0  0  0  0  0  0
    5.8170   -4.9030   23.6670 C   0  0  0  0  0  0  0  0  0  0  0  0
    5.9650   -3.4460   23.8480 C   0  0  0  0  0  0  0  0  0  0  0  0
    5.3690   -2.9240   25.1330 C   0  0  0  0  0  0  0  0  0  0  0  0
    4.2070   -2.4890   25.1060 O   0  0  0  0  0  0  0  0  0  0  0  0
    6.0490   -2.9430   26.3640 N   0  0  0  0  0  0  0  0  0  0  0  0
    6.4830   -4.1090   26.9680 C   0  0  0  0  0  0  0  0  0  0  0  0
    7.8900   -4.3280   26.9300 C   0  0  2  0  0  0  0  0  0  0  0  0
    8.1380   -5.6470   26.2000 C   0  0  0  0  0  0  0  0  0  0  0  0
    9.4130   -6.0590   26.4520 C   0  0  0  0  0  0  0  0  0  0  0  0
    9.0360   -5.7620   27.8920 C   0  0  0  0  0  0  0  0  0  0  0  0
    8.4620   -4.5280   28.0200 O   0  0  0  0  0  0  0  0  0  0  0  0
    6.8060   -1.8520   26.9460 C   0  0  0  0  0  0  0  0  0  0  0  0
    5.7190   -0.9000   27.0040 C   0  0  0  0  0  0  0  0  0  0  0  0
    5.6730    0.5460   27.5060 C   0  0  0  0  0  0  0  0  0  0  0  0
    4.4230    0.7470   27.2600 N   0  0  0  0  0  0  0  0  0  0  0  0
    5.1370   -0.4090   27.0350 N   0  0  0  0  0  0  0  0  0  0  0  0
    6.7120   -0.4630   27.4240 C   0  0  0  0  0  0  0  0  0  0  0  0
    7.4290   -3.0390   23.6570 C   0  0  0  0  0  0  0  0  0  0  0  0
    7.6650   -3.1670   22.1860 C   0  0  0  0  0  0  0  0  0  0  0  0
  1  2  1  0
  2  3  2  0
  2  4  1  0
  4  5  1  0
  5  6  1  0
  6  7  1  0
  7  8  1  0
  8  9  2  0
  8 10  1  0
 10 11  1  0
 12 11  1  1
 12 13  1  0
 13 14  1  0
 14 15  1  0
 12 16  1  0
 15 16  1  0
 10 17  1  0
 17 18  2  0
 18 19  1  0
 19 20  2  0
 20 21  1  0
 17 22  1  0
 21 22  2  0
  7 23  1  0
  4 24  1  0
 23 24  1  0
M  END
