piperidine-amides-33525-covalent
     RDKit          3D

 24 26  0  0  0  0  0  0  0  0999 V2000
    7.0050   -3.3660   19.3740 C   0  0  0  0  0  0  0  0  0  0  0  0
    6.3510   -4.2270   20.3790 C   0  0  0  0  0  0  0  0  0  0  0  0
    5.3770   -4.9120   19.9890 O   0  0  0  0  0  0  0  0  0  0  0  0
    6.8340   -4.2980   21.7140 N   0  0  0  0  0  0  0  0  0  0  0  0
    6.4710   -5.4080   22.5320 C   0  0  0  0  0  0  0  0  0  0  0  0
    5.8920   -5.0050   23.8100 C   0  0  0  0  0  0  0  0  0  0  0  0
    5.9550   -3.5500   24.0250 C   0  0  0  0  0  0  0  0  0  0  0  0
    5.4470   -3.1080   25.3920 C   0  0  0  0  0  0  0  0  0  0  0  0
    4.2150   -3.1200   25.5510 O   0  0  0  0  0  0  0  0  0  0  0  0
    6.2460   -2.6980   26.5100 N   0  0  0  0  0  0  0  0  0  0  0  0
    6.5120   -3.4940   27.6560 C   0  0  0  0  0  0  0  0  0  0  0  0
    6.7600   -1.2950   26.5460 C   0  0  1  0  0  0  0  0  0  0  0  0
    6.0200    0.0640   26.3980 C   0  0  0  0  0  0  0  0  0  0  0  0
    4.6900   -0.0350   26.6170 C   0  0  0  0  0  0  0  0  0  0  0  0
    4.6970   -1.4360   27.7110 S   0  0  0  0  0  0  0  0  0  0  0  0
    6.1720   -0.9460   28.6820 C   0  0  0  0  0  0  0  0  0  0  0  0
    5.7330   -0.6930   30.2810 C   0  0  0  0  0  0  0  0  0  0  0  0
    7.1790   -0.4030   30.2480 C   0  0  0  0  0  0  0  0  0  0  0  0
    6.5930   -0.7650   29.0580 C   0  0  0  0  0  0  0  0  0  0  0  0
    5.0050   -0.8560   30.1410 Br  0  0  0  0  0  0  0  0  0  0  0  0
    8.0160   -0.4730   29.0830 C   0  0  0  0  0  0  0  0  0  0  0  0
    7.5800   -0.8530   27.7730 C   0  0  0  0  0  0  0  0  0  0  0  0
    7.3130   -3.0720   23.6720 C   0  0  0  0  0  0  0  0  0  0  0  0
    7.5360   -3.1650   22.2920 C   0  0  0  0  0  0  0  0  0  0  0  0
  1  2  1  0
  2  3  2  0
  2  4  1  0
  4  5  1  0
  5  6  1  0
  6  7  1  0
  7  8  1  0
  8  9  2  0
  8 10  1  0
 10 11  1  0
 12 10  1  1
 12 13  1  0
 13 14  1  0
 14 15  1  0
 15 16  1  0
 16 17  2  0
 17 18  1  0
 18 19  2  0
 19 20  1  0
 19 21  1  0
 12 22  1  0
 16 22  1  0
 21 22  2  0
  7 23  1  0
  4 24  1  0
 23 24  1  0
M  END
