piperidine-amides-20578-covalent
     RDKit          3D

 22 22  0  0  0  0  0  0  0  0999 V2000
    7.0790   -3.2890   19.3230 C   0  0  0  0  0  0  0  0  0  0  0  0
    6.3750   -4.1160   20.3180 C   0  0  0  0  0  0  0  0  0  0  0  0
    5.3790   -4.7910   19.9680 O   0  0  0  0  0  0  0  0  0  0  0  0
    6.8290   -4.1840   21.6490 N   0  0  0  0  0  0  0  0  0  0  0  0
    7.6350   -3.0950   22.1780 C   0  0  0  0  0  0  0  0  0  0  0  0
    7.4100   -3.0350   23.6970 C   0  0  0  0  0  0  0  0  0  0  0  0
    6.0600   -3.6750   23.9430 C   0  0  0  0  0  0  0  0  0  0  0  0
    5.5460   -3.4440   25.3170 C   0  0  0  0  0  0  0  0  0  0  0  0
    4.3090   -3.5010   25.4780 O   0  0  0  0  0  0  0  0  0  0  0  0
    6.4040   -3.1510   26.4070 N   0  0  0  0  0  0  0  0  0  0  0  0
    6.8140   -1.7760   26.5290 C   0  0  0  0  0  0  0  0  0  0  0  0
    6.1990   -3.8820   27.6590 C   0  0  0  0  0  0  0  0  0  0  0  0
    6.0330   -5.2310   27.4040 C   0  0  0  0  0  0  0  0  0  0  0  0
    4.9580   -5.8870   27.9540 C   0  0  0  0  0  0  0  0  0  0  0  0
    5.1520   -6.7880   29.0050 C   0  0  0  0  0  0  0  0  0  0  0  0
    5.0440   -6.3360   30.2980 C   0  0  0  0  0  0  0  0  0  0  0  0
    3.7900   -6.6130   31.1180 C   0  0  0  0  0  0  0  0  0  0  0  0
    5.0800   -7.0310   31.7920 C   0  0  0  0  0  0  0  0  0  0  0  0
    5.0900   -6.9140   33.2930 C   0  0  0  0  0  0  0  0  0  0  0  0
    5.4390   -8.2540   32.8290 C   0  0  0  0  0  0  0  0  0  0  0  0
    6.1760   -5.1430   23.6820 C   0  0  0  0  0  0  0  0  0  0  0  0
    6.5730   -5.3770   22.3960 C   0  0  0  0  0  0  0  0  0  0  0  0
  1  2  1  0
  2  3  2  0
  2  4  1  0
  4  5  1  0
  5  6  1  0
  6  7  1  0
  7  8  1  0
  8  9  2  0
  8 10  1  0
 10 11  1  0
 10 12  1  0
 12 13  1  0
 13 14  1  0
 14 15  1  0
 15 16  1  0
 16 17  1  0
 17 18  1  0
 18 19  1  0
 19 20  1  0
  7 21  1  0
  4 22  1  0
 21 22  1  0
M  END
