piperidine-amides-904-covalent
     RDKit          3D

 24 26  0  0  0  0  0  0  0  0999 V2000
    7.0520   -3.3490   19.3890 C   0  0  0  0  0  0  0  0  0  0  0  0
    6.3280   -4.1940   20.3800 C   0  0  0  0  0  0  0  0  0  0  0  0
    5.3640   -4.8670   19.9840 O   0  0  0  0  0  0  0  0  0  0  0  0
    6.7740   -4.2460   21.7220 N   0  0  0  0  0  0  0  0  0  0  0  0
    7.6180   -3.2130   22.3080 C   0  0  0  0  0  0  0  0  0  0  0  0
    7.3700   -3.1050   23.8320 C   0  0  0  0  0  0  0  0  0  0  0  0
    6.0940   -3.8120   24.1420 C   0  0  0  0  0  0  0  0  0  0  0  0
    5.5080   -3.6710   25.5120 C   0  0  0  0  0  0  0  0  0  0  0  0
    4.3740   -4.1410   25.6230 O   0  0  0  0  0  0  0  0  0  0  0  0
    6.1410   -3.0290   26.5950 N   0  0  0  0  0  0  0  0  0  0  0  0
    6.0730   -1.6150   26.7680 C   0  0  1  0  0  0  0  0  0  0  0  0
    5.0730   -0.8770   26.9650 C   0  0  0  0  0  0  0  0  0  0  0  0
    5.8690    0.0680   27.6440 C   0  0  0  0  0  0  0  0  0  0  0  0
    5.4990    0.3060   28.8640 C   0  0  0  0  0  0  0  0  0  0  0  0
    5.1840    0.9390   27.6780 C   0  0  0  0  0  0  0  0  0  0  0  0
    6.0520    0.1160   26.6330 C   0  0  0  0  0  0  0  0  0  0  0  0
    5.9730    0.4950   25.2820 O   0  0  0  0  0  0  0  0  0  0  0  0
    5.5270   -0.3450   24.2330 C   0  0  0  0  0  0  0  0  0  0  0  0
    6.9770   -1.0700   27.0440 C   0  0  0  0  0  0  0  0  0  0  0  0
    7.2280   -1.6840   28.5120 C   0  0  0  0  0  0  0  0  0  0  0  0
    6.3400   -0.7550   29.0990 C   0  0  0  0  0  0  0  0  0  0  0  0
    6.7810   -0.8840   27.7430 C   0  0  0  0  0  0  0  0  0  0  0  0
    6.1380   -5.2700   23.8370 C   0  0  0  0  0  0  0  0  0  0  0  0
    6.6690   -5.5050   22.4460 C   0  0  0  0  0  0  0  0  0  0  0  0
  1  2  1  0
  2  3  2  0
  2  4  1  0
  4  5  1  0
  5  6  1  0
  6  7  1  0
  7  8  1  0
  8  9  2  0
  8 10  1  0
 11 10  1  1
 11 12  1  0
 12 13  1  0
 13 14  1  0
 14 15  2  0
 15 16  1  0
 16 17  1  0
 17 18  1  0
 16 19  2  0
 19 20  1  0
 14 21  1  0
 20 21  2  0
 11 22  1  0
 21 22  1  0
  7 23  1  0
  4 24  1  0
 23 24  1  0
M  END
