piperidine-amides-30072-covalent
     RDKit          3D

 26 27  0  0  0  0  0  0  0  0999 V2000
    7.0470   -3.3660   19.3760 C   0  0  0  0  0  0  0  0  0  0  0  0
    6.3830   -4.2330   20.3440 C   0  0  0  0  0  0  0  0  0  0  0  0
    5.4050   -4.8990   19.9960 O   0  0  0  0  0  0  0  0  0  0  0  0
    6.9010   -4.3350   21.6860 N   0  0  0  0  0  0  0  0  0  0  0  0
    6.7000   -5.5570   22.4370 C   0  0  0  0  0  0  0  0  0  0  0  0
    6.1200   -5.2250   23.7850 C   0  0  0  0  0  0  0  0  0  0  0  0
    6.2130   -3.7210   23.8690 C   0  0  0  0  0  0  0  0  0  0  0  0
    5.6170   -3.1400   25.1050 C   0  0  0  0  0  0  0  0  0  0  0  0
    4.9960   -2.0700   25.0660 O   0  0  0  0  0  0  0  0  0  0  0  0
    5.6870   -3.7710   26.3610 N   0  0  0  0  0  0  0  0  0  0  0  0
    4.3910   -4.0090   26.9180 C   0  0  0  0  0  0  0  0  0  0  0  0
    4.5390   -5.0160   28.0130 C   0  0  0  0  0  0  0  0  0  0  0  0
    5.4490   -4.7660   28.9740 C   0  0  0  0  0  0  0  0  0  0  0  0
    5.5220   -5.8770   29.8270 C   0  0  0  0  0  0  0  0  0  0  0  0
    4.4250   -6.0470   30.6570 C   0  0  0  0  0  0  0  0  0  0  0  0
    4.8760   -6.7230   31.7650 F   0  0  0  0  0  0  0  0  0  0  0  0
    3.4890   -6.8930   30.0130 F   0  0  0  0  0  0  0  0  0  0  0  0
    5.1120   -3.5050   29.7410 C   0  0  0  0  0  0  0  0  0  0  0  0
    5.8900   -2.5230   29.9790 O   0  0  0  0  0  0  0  0  0  0  0  0
    3.7990   -3.5410   30.1430 O   0  0  0  0  0  0  0  0  0  0  0  0
    3.1370   -2.4920   30.7850 C   0  0  0  0  0  0  0  0  0  0  0  0
    3.1520   -2.7820   32.1350 C   0  0  0  0  0  0  0  0  0  0  0  0
    6.5800   -4.4140   28.3490 C   0  0  0  0  0  0  0  0  0  0  0  0
    6.3970   -3.2410   27.4720 C   0  0  0  0  0  0  0  0  0  0  0  0
    7.6110   -3.2430   23.5960 C   0  0  0  0  0  0  0  0  0  0  0  0
    7.7310   -3.2570   22.2080 C   0  0  0  0  0  0  0  0  0  0  0  0
  1  2  1  0
  2  3  2  0
  2  4  1  0
  4  5  1  0
  5  6  1  0
  6  7  1  0
  7  8  1  0
  8  9  2  0
  8 10  1  0
 10 11  1  0
 11 12  1  0
 12 13  1  0
 13 14  1  0
 14 15  1  0
 15 16  1  0
 15 17  1  0
 13 18  1  0
 18 19  2  0
 18 20  1  0
 20 21  1  0
 21 22  1  0
 13 23  1  0
 10 24  1  0
 23 24  1  0
  7 25  1  0
  4 26  1  0
 25 26  1  0
M  END
