piperidine-amides-10013-covalent
     RDKit          3D

 26 27  0  0  0  0  0  0  0  0999 V2000
    7.1040   -3.2900   19.2730 C   0  0  0  0  0  0  0  0  0  0  0  0
    6.3390   -4.0180   20.2880 C   0  0  0  0  0  0  0  0  0  0  0  0
    5.2750   -4.5670   19.8960 O   0  0  0  0  0  0  0  0  0  0  0  0
    6.8210   -4.1210   21.6020 N   0  0  0  0  0  0  0  0  0  0  0  0
    7.7080   -3.1450   22.1960 C   0  0  0  0  0  0  0  0  0  0  0  0
    7.2700   -2.9670   23.6240 C   0  0  0  0  0  0  0  0  0  0  0  0
    5.8280   -3.3850   23.7550 C   0  0  0  0  0  0  0  0  0  0  0  0
    5.1520   -2.8660   24.9830 C   0  0  0  0  0  0  0  0  0  0  0  0
    3.9860   -2.4540   24.8270 O   0  0  0  0  0  0  0  0  0  0  0  0
    5.6650   -2.7930   26.3000 N   0  0  0  0  0  0  0  0  0  0  0  0
    4.7310   -2.9270   27.4170 C   0  0  0  0  0  0  0  0  0  0  0  0
    5.0070   -4.1680   28.2390 C   0  0  2  0  0  0  0  0  0  0  0  0
    5.2100   -3.9810   29.4630 O   0  0  0  0  0  0  0  0  0  0  0  0
    6.1640   -4.6390   27.8560 C   0  0  0  0  0  0  0  0  0  0  0  0
    7.2360   -4.9140   28.6370 C   0  0  0  0  0  0  0  0  0  0  0  0
    8.3970   -5.3420   28.0510 C   0  0  0  0  0  0  0  0  0  0  0  0
    8.4900   -5.4990   26.7060 C   0  0  0  0  0  0  0  0  0  0  0  0
    9.9240   -5.9820   26.0180 Cl  0  0  0  0  0  0  0  0  0  0  0  0
    7.4440   -5.2610   25.9110 C   0  0  0  0  0  0  0  0  0  0  0  0
    6.2000   -4.8040   26.5120 C   0  0  0  0  0  0  0  0  0  0  0  0
    3.8820   -5.0210   28.2520 C   0  0  0  0  0  0  0  0  0  0  0  0
    2.7920   -4.2980   28.6840 F   0  0  0  0  0  0  0  0  0  0  0  0
    3.5640   -5.4720   26.9690 F   0  0  0  0  0  0  0  0  0  0  0  0
    4.0650   -6.1500   29.0040 F   0  0  0  0  0  0  0  0  0  0  0  0
    5.6420   -4.9000   23.5330 C   0  0  0  0  0  0  0  0  0  0  0  0
    6.5440   -5.3220   22.3770 C   0  0  0  0  0  0  0  0  0  0  0  0
  1  2  1  0
  2  3  2  0
  2  4  1  0
  4  5  1  0
  5  6  1  0
  6  7  1  0
  7  8  1  0
  8  9  2  0
  8 10  1  0
 10 11  1  0
 11 12  1  0
 12 13  1  1
 12 14  1  0
 14 15  2  0
 15 16  1  0
 16 17  2  0
 17 18  1  0
 17 19  1  0
 14 20  1  0
 19 20  2  0
 12 21  1  0
 21 22  1  0
 21 23  1  0
 21 24  1  0
  7 25  1  0
  4 26  1  0
 25 26  1  0
M  END
