piperidine-amides-21768-covalent
     RDKit          3D

 23 24  0  0  0  0  0  0  0  0999 V2000
    7.0850   -3.2690   19.2600 C   0  0  0  0  0  0  0  0  0  0  0  0
    6.3510   -4.0200   20.2850 C   0  0  0  0  0  0  0  0  0  0  0  0
    5.2940   -4.5900   19.9030 O   0  0  0  0  0  0  0  0  0  0  0  0
    6.8340   -4.1210   21.5980 N   0  0  0  0  0  0  0  0  0  0  0  0
    7.7650   -3.1530   22.1460 C   0  0  0  0  0  0  0  0  0  0  0  0
    7.4320   -2.9830   23.5920 C   0  0  0  0  0  0  0  0  0  0  0  0
    6.1210   -3.6530   23.8610 C   0  0  0  0  0  0  0  0  0  0  0  0
    5.5430   -3.2400   25.1570 C   0  0  0  0  0  0  0  0  0  0  0  0
    4.3370   -2.9140   25.1500 O   0  0  0  0  0  0  0  0  0  0  0  0
    6.2190   -3.2030   26.3880 N   0  0  0  0  0  0  0  0  0  0  0  0
    5.8370   -4.2550   27.3070 C   0  0  0  0  0  0  0  0  0  0  0  0
    6.3660   -4.1000   28.7180 C   0  0  0  0  0  0  0  0  0  0  0  0
    6.0920   -4.9880   29.5660 O   0  0  0  0  0  0  0  0  0  0  0  0
    6.3390   -6.2710   29.1170 C   0  0  0  0  0  0  0  0  0  0  0  0
    6.5190   -1.9140   26.9660 C   0  0  0  0  0  0  0  0  0  0  0  0
    5.3950   -1.0960   26.9720 C   0  0  0  0  0  0  0  0  0  0  0  0
    4.0730   -1.4710   27.1560 C   0  0  0  0  0  0  0  0  0  0  0  0
    3.0500   -0.5650   27.1340 C   0  0  0  0  0  0  0  0  0  0  0  0
    3.3330    0.8950   26.9090 C   0  0  0  0  0  0  0  0  0  0  0  0
    4.6750    1.3590   26.7140 N   0  0  0  0  0  0  0  0  0  0  0  0
    5.6900    0.3620   26.7460 C   0  0  0  0  0  0  0  0  0  0  0  0
    6.2300   -5.1750   23.7260 C   0  0  0  0  0  0  0  0  0  0  0  0
    6.7000   -5.4070   22.2890 C   0  0  0  0  0  0  0  0  0  0  0  0
  1  2  1  0
  2  3  2  0
  2  4  1  0
  4  5  1  0
  5  6  1  0
  6  7  1  0
  7  8  1  0
  8  9  2  0
  8 10  1  0
 10 11  1  0
 11 12  1  0
 12 13  1  0
 13 14  1  0
 10 15  1  0
 15 16  1  0
 16 17  2  0
 17 18  1  0
 18 19  2  0
 19 20  1  0
 16 21  1  0
 20 21  2  0
  7 22  1  0
  4 23  1  0
 22 23  1  0
M  END
