piperidine-amides-4077-covalent
     RDKit          3D

 29 31  0  0  0  0  0  0  0  0999 V2000
    7.1310   -3.2820   19.1820 C   0  0  0  0  0  0  0  0  0  0  0  0
    6.4020   -4.0310   20.2190 C   0  0  0  0  0  0  0  0  0  0  0  0
    5.3020   -4.5310   19.8830 O   0  0  0  0  0  0  0  0  0  0  0  0
    6.9540   -4.2340   21.5060 N   0  0  0  0  0  0  0  0  0  0  0  0
    6.4490   -5.3090   22.2830 C   0  0  0  0  0  0  0  0  0  0  0  0
    5.9030   -4.9120   23.5800 C   0  0  0  0  0  0  0  0  0  0  0  0
    6.5670   -3.7630   24.2460 C   0  0  0  0  0  0  0  0  0  0  0  0
    5.7870   -3.2780   25.4320 C   0  0  0  0  0  0  0  0  0  0  0  0
    4.5970   -2.9440   25.2760 O   0  0  0  0  0  0  0  0  0  0  0  0
    6.3600   -3.1930   26.7150 N   0  0  0  0  0  0  0  0  0  0  0  0
    6.1590   -4.0470   27.8320 C   0  0  0  0  0  0  0  0  0  0  0  0
    6.0050   -5.5020   27.7130 C   0  0  0  0  0  0  0  0  0  0  0  0
    4.5010   -5.8350   27.7880 C   0  0  0  0  0  0  0  0  0  0  0  0
    3.8720   -5.6000   28.9940 C   0  0  0  0  0  0  0  0  0  0  0  0
    2.7030   -6.3260   29.2780 N   0  0  0  0  0  0  0  0  0  0  0  0
    1.4500   -5.6800   29.1980 C   0  0  0  0  0  0  0  0  0  0  0  0
    0.3520   -6.6900   29.1590 C   0  0  0  0  0  0  0  0  0  0  0  0
    0.6190   -7.4940   30.1980 N   0  0  0  0  0  0  0  0  0  0  0  0
   -0.5580   -8.3500   30.3190 C   0  0  0  0  0  0  0  0  0  0  0  0
   -0.1350   -9.5780   31.0990 C   0  0  0  0  0  0  0  0  0  0  0  0
    0.1980   -9.2910   32.5480 C   0  0  0  0  0  0  0  0  0  0  0  0
    0.6380  -10.4280   33.4700 C   0  0  0  0  0  0  0  0  0  0  0  0
    0.6940  -11.7570   32.8120 C   0  0  0  0  0  0  0  0  0  0  0  0
    0.3710  -11.9330   31.4620 C   0  0  0  0  0  0  0  0  0  0  0  0
   -0.0270  -10.8900   30.6370 C   0  0  0  0  0  0  0  0  0  0  0  0
    1.8240   -8.2530   30.0630 C   0  0  0  0  0  0  0  0  0  0  0  0
    2.7310   -7.7190   29.1470 C   0  0  0  0  0  0  0  0  0  0  0  0
    6.7650   -2.6420   23.2610 C   0  0  0  0  0  0  0  0  0  0  0  0
    7.6490   -3.1500   22.1500 C   0  0  0  0  0  0  0  0  0  0  0  0
  1  2  1  0
  2  3  2  0
  2  4  1  0
  4  5  1  0
  5  6  1  0
  6  7  1  0
  7  8  1  0
  8  9  2  0
  8 10  1  0
 10 11  1  0
 11 12  1  0
 12 13  1  0
 13 14  1  0
 14 15  1  0
 15 16  1  0
 16 17  1  0
 17 18  1  0
 18 19  1  0
 19 20  1  0
 20 21  2  0
 21 22  1  0
 22 23  2  0
 23 24  1  0
 20 25  1  0
 24 25  2  0
 18 26  1  0
 15 27  1  0
 26 27  1  0
  7 28  1  0
  4 29  1  0
 28 29  1  0
M  END
