piperidine-amides-19869-covalent
     RDKit          3D

 22 24  0  0  0  0  0  0  0  0999 V2000
    7.0680   -3.3640   19.3160 C   0  0  0  0  0  0  0  0  0  0  0  0
    6.3370   -4.1890   20.3120 C   0  0  0  0  0  0  0  0  0  0  0  0
    5.2980   -4.7180   19.9370 O   0  0  0  0  0  0  0  0  0  0  0  0
    6.8650   -4.3800   21.5900 N   0  0  0  0  0  0  0  0  0  0  0  0
    6.6700   -5.6130   22.3190 C   0  0  0  0  0  0  0  0  0  0  0  0
    6.1990   -5.3130   23.7180 C   0  0  0  0  0  0  0  0  0  0  0  0
    5.9540   -3.8100   23.8710 C   0  0  0  0  0  0  0  0  0  0  0  0
    5.5220   -3.5050   25.2540 C   0  0  0  0  0  0  0  0  0  0  0  0
    4.4740   -2.8570   25.3840 O   0  0  0  0  0  0  0  0  0  0  0  0
    6.1900   -3.9030   26.4370 N   0  0  0  0  0  0  0  0  0  0  0  0
    5.4200   -3.6450   27.6270 C   0  0  0  0  0  0  0  0  0  0  0  0
    5.6990   -4.8120   28.5100 C   0  0  0  0  0  0  0  0  0  0  0  0
    6.9660   -5.2890   28.6110 C   0  0  0  0  0  0  0  0  0  0  0  0
    7.7290   -5.2060   27.4950 C   0  0  0  0  0  0  0  0  0  0  0  0
    7.5720   -4.0860   26.7040 C   0  0  1  0  0  0  0  0  0  0  0  0
    8.4300   -3.9210   25.4510 C   0  0  0  0  0  0  0  0  0  0  0  0
    8.1950   -2.4290   25.3330 C   0  0  0  0  0  0  0  0  0  0  0  0
    8.3810   -1.8700   26.6570 N   0  0  0  0  0  0  0  0  0  0  0  0
    7.8400   -2.8640   27.4830 C   0  0  0  0  0  0  0  0  0  0  0  0
    7.6410   -2.5660   28.8110 O   0  0  0  0  0  0  0  0  0  0  0  0
    6.9940   -2.8930   23.3620 C   0  0  0  0  0  0  0  0  0  0  0  0
    7.7040   -3.3660   22.1590 C   0  0  0  0  0  0  0  0  0  0  0  0
  1  2  1  0
  2  3  2  0
  2  4  1  0
  4  5  1  0
  5  6  1  0
  6  7  1  0
  7  8  1  0
  8  9  2  0
  8 10  1  0
 10 11  1  0
 11 12  1  0
 12 13  1  0
 13 14  1  0
 10 15  1  0
 15 14  1  1
 15 16  1  0
 16 17  1  0
 17 18  1  0
 15 19  1  0
 18 19  1  0
 19 20  2  0
  7 21  1  0
  4 22  1  0
 21 22  1  0
M  END
