piperidine-amides-30448-covalent
     RDKit          3D

 27 28  0  0  0  0  0  0  0  0999 V2000
    7.1150   -3.3050   19.2340 C   0  0  0  0  0  0  0  0  0  0  0  0
    6.3650   -4.0810   20.2250 C   0  0  0  0  0  0  0  0  0  0  0  0
    5.2900   -4.6040   19.8990 O   0  0  0  0  0  0  0  0  0  0  0  0
    6.8660   -4.2990   21.5130 N   0  0  0  0  0  0  0  0  0  0  0  0
    6.5640   -5.4960   22.2650 C   0  0  0  0  0  0  0  0  0  0  0  0
    5.8880   -5.0130   23.5210 C   0  0  0  0  0  0  0  0  0  0  0  0
    6.6760   -3.9180   24.1810 C   0  0  0  0  0  0  0  0  0  0  0  0
    5.9920   -3.3320   25.3450 C   0  0  0  0  0  0  0  0  0  0  0  0
    4.7500   -3.0640   25.3180 O   0  0  0  0  0  0  0  0  0  0  0  0
    6.7120   -3.0690   26.5200 N   0  0  0  0  0  0  0  0  0  0  0  0
    6.5910   -1.7320   27.2080 C   0  0  0  0  0  0  0  0  0  0  0  0
    7.1370   -1.6930   28.4840 N   0  0  0  0  0  0  0  0  0  0  0  0
    7.1950   -0.6960   29.3500 C   0  0  0  0  0  0  0  0  0  0  0  0
    6.5890    0.5440   28.8790 C   0  0  0  0  0  0  0  0  0  0  0  0
    5.9670    0.6410   27.5200 C   0  0  0  0  0  0  0  0  0  0  0  0
    5.9540   -0.5740   26.5940 C   0  0  0  0  0  0  0  0  0  0  0  0
    5.4370   -0.6490   25.3610 N   0  0  0  0  0  0  0  0  0  0  0  0
    5.7050    0.4800   24.7410 O   0  0  0  0  0  0  0  0  0  0  0  0
    4.2350   -1.1120   25.1930 O   0  0  0  0  0  0  0  0  0  0  0  0
    7.4630   -4.2090   27.0040 C   0  0  1  0  0  0  0  0  0  0  0  0
    7.8100   -4.1400   28.3210 C   0  0  0  0  0  0  0  0  0  0  0  0
    6.5890   -5.1360   27.8560 C   0  0  0  0  0  0  0  0  0  0  0  0
    5.3550   -4.9760   27.7840 O   0  0  0  0  0  0  0  0  0  0  0  0
    7.0460   -6.1300   28.6900 O   0  0  0  0  0  0  0  0  0  0  0  0
    6.1590   -6.9860   29.3940 C   0  0  0  0  0  0  0  0  0  0  0  0
    7.0530   -2.7710   23.2940 C   0  0  0  0  0  0  0  0  0  0  0  0
    7.7640   -3.3340   22.1110 C   0  0  0  0  0  0  0  0  0  0  0  0
  1  2  1  0
  2  3  2  0
  2  4  1  0
  4  5  1  0
  5  6  1  0
  6  7  1  0
  7  8  1  0
  8  9  2  0
  8 10  1  0
 10 11  1  0
 11 12  2  0
 12 13  1  0
 13 14  2  0
 14 15  1  0
 11 16  1  0
 15 16  2  0
 16 17  1  0
 17 18  2  0
 17 19  1  0
 10 20  1  0
 20 21  1  1
 20 22  1  0
 22 23  2  0
 22 24  1  0
 24 25  1  0
  7 26  1  0
  4 27  1  0
 26 27  1  0
M  CHG  2  17   1  19  -1
M  END
