piperidine-amides-35385-covalent
     RDKit          3D

 32 35  0  0  0  0  0  0  0  0999 V2000
    6.8800   -3.2660   19.2590 C   0  0  0  0  0  0  0  0  0  0  0  0
    6.0580   -3.9850   20.3340 C   0  0  0  0  0  0  0  0  0  0  0  0
    5.4360   -4.9760   19.9720 O   0  0  0  0  0  0  0  0  0  0  0  0
    5.9240   -3.5480   21.6900 N   0  0  0  0  0  0  0  0  0  0  0  0
    5.2750   -4.4310   22.6560 C   0  0  0  0  0  0  0  0  0  0  0  0
    4.8780   -3.7790   23.9790 C   0  0  0  0  0  0  0  0  0  0  0  0
    5.9190   -2.7530   24.4800 C   0  0  0  0  0  0  0  0  0  0  0  0
    5.4710   -2.0480   25.7930 C   0  0  0  0  0  0  0  0  0  0  0  0
    4.5750   -1.2110   25.7530 O   0  0  0  0  0  0  0  0  0  0  0  0
    6.0760   -2.4480   27.0440 N   0  0  0  0  0  0  0  0  0  0  0  0
    5.2980   -2.4550   28.2490 C   0  0  0  0  0  0  0  0  0  0  0  0
    5.4980   -3.8140   28.8770 C   0  0  0  0  0  0  0  0  0  0  0  0
    5.5510   -4.9460   28.1410 C   0  0  0  0  0  0  0  0  0  0  0  0
    5.9830   -4.7580   26.8800 C   0  0  0  0  0  0  0  0  0  0  0  0
    6.1400   -5.7760   26.0020 C   0  0  0  0  0  0  0  0  0  0  0  0
    6.6790   -5.4850   24.5380 C   0  0  0  0  0  0  0  0  0  0  0  0
    7.1280   -6.1090   22.9910 S   0  0  0  0  0  0  0  0  0  0  0  0
    8.1840   -7.1160   23.0790 O   0  0  0  0  0  0  0  0  0  0  0  0
    5.9750   -6.6780   22.2200 O   0  0  0  0  0  0  0  0  0  0  0  0
    7.6360   -4.6620   22.0980 N   0  0  0  0  0  0  0  0  0  0  0  0
    8.2260   -3.3540   22.2750 C   0  0  0  0  0  0  0  0  0  0  0  0
    7.8080   -2.0450   21.5390 C   0  0  0  0  0  0  0  0  0  0  0  0
    8.6190   -0.8260   21.8490 C   0  0  0  0  0  0  0  0  0  0  0  0
    9.7410   -0.8560   22.7750 C   0  0  0  0  0  0  0  0  0  0  0  0
   10.1230   -2.1020   23.4690 C   0  0  0  0  0  0  0  0  0  0  0  0
   11.4950   -2.1330   24.5520 Cl  0  0  0  0  0  0  0  0  0  0  0  0
    9.3070   -3.3200   23.1920 C   0  0  0  0  0  0  0  0  0  0  0  0
    6.9670   -4.0690   24.2490 C   0  0  0  0  0  0  0  0  0  0  0  0
    6.7620   -3.1720   25.1310 C   0  0  0  0  0  0  0  0  0  0  0  0
    6.2620   -3.5710   26.4140 C   0  0  0  0  0  0  0  0  0  0  0  0
    6.1230   -1.7330   23.3540 C   0  0  0  0  0  0  0  0  0  0  0  0
    6.7510   -2.4170   22.1190 C   0  0  0  0  0  0  0  0  0  0  0  0
  1  2  1  0
  2  3  2  0
  2  4  1  0
  4  5  1  0
  5  6  1  0
  6  7  1  0
  7  8  1  0
  8  9  2  0
  8 10  1  0
 10 11  1  0
 11 12  1  0
 12 13  1  0
 13 14  1  0
 14 15  2  0
 15 16  1  0
 16 17  1  0
 17 18  2  0
 17 19  2  0
 17 20  1  0
 20 21  1  0
 21 22  2  0
 22 23  1  0
 23 24  2  0
 24 25  1  0
 25 26  1  0
 21 27  1  0
 25 27  2  0
 16 28  2  0
 28 29  1  0
 10 30  1  0
 14 30  1  0
 29 30  2  0
  7 31  1  0
  4 32  1  0
 31 32  1  0
M  END
