piperidine-amides-2538-covalent
     RDKit          3D

 26 28  0  0  0  0  0  0  0  0999 V2000
    7.0650   -3.3330   19.2660 C   0  0  0  0  0  0  0  0  0  0  0  0
    6.3850   -4.1660   20.2910 C   0  0  0  0  0  0  0  0  0  0  0  0
    5.3530   -4.7390   19.9510 O   0  0  0  0  0  0  0  0  0  0  0  0
    6.9510   -4.3120   21.5580 N   0  0  0  0  0  0  0  0  0  0  0  0
    7.7170   -3.2590   22.1700 C   0  0  0  0  0  0  0  0  0  0  0  0
    6.9280   -2.6990   23.3070 C   0  0  0  0  0  0  0  0  0  0  0  0
    6.5100   -3.8450   24.2210 C   0  0  0  0  0  0  0  0  0  0  0  0
    5.7910   -3.2590   25.3680 C   0  0  0  0  0  0  0  0  0  0  0  0
    4.5790   -3.0200   25.2770 O   0  0  0  0  0  0  0  0  0  0  0  0
    6.4750   -2.9860   26.5630 N   0  0  0  0  0  0  0  0  0  0  0  0
    6.4040   -1.6750   27.1690 C   0  0  0  0  0  0  0  0  0  0  0  0
    6.9940   -1.7110   28.5300 C   0  0  0  0  0  0  0  0  0  0  0  0
    7.1050   -0.7220   29.3860 C   0  0  0  0  0  0  0  0  0  0  0  0
    6.6070    0.4220   28.9210 C   0  0  0  0  0  0  0  0  0  0  0  0
    6.6610    1.5350   29.7330 O   0  0  0  0  0  0  0  0  0  0  0  0
    6.8850    1.1480   31.0410 C   0  0  0  0  0  0  0  0  0  0  0  0
    5.6300    0.5820   31.6770 C   0  0  0  0  0  0  0  0  0  0  0  0
    5.8650    0.1500   33.0980 C   0  0  0  0  0  0  0  0  0  0  0  0
    7.2210    0.2920   33.7470 C   0  0  0  0  0  0  0  0  0  0  0  0
    7.4410   -0.2250   35.4000 Cl  0  0  0  0  0  0  0  0  0  0  0  0
    8.3300    0.8750   32.9480 C   0  0  0  0  0  0  0  0  0  0  0  0
    8.2840    1.3560   31.5410 C   0  0  0  0  0  0  0  0  0  0  0  0
    5.9880    0.6780   27.6200 N   0  0  0  0  0  0  0  0  0  0  0  0
    5.8270   -0.3600   26.6030 C   0  0  0  0  0  0  0  0  0  0  0  0
    5.6380   -4.8290   23.4720 C   0  0  0  0  0  0  0  0  0  0  0  0
    6.5500   -5.4040   22.4210 C   0  0  0  0  0  0  0  0  0  0  0  0
  1  2  1  0
  2  3  2  0
  2  4  1  0
  4  5  1  0
  5  6  1  0
  6  7  1  0
  7  8  1  0
  8  9  2  0
  8 10  1  0
 10 11  1  0
 11 12  2  0
 12 13  1  0
 13 14  2  0
 14 15  1  0
 15 16  1  0
 16 17  2  0
 17 18  1  0
 18 19  2  0
 19 20  1  0
 19 21  1  0
 16 22  1  0
 21 22  2  0
 14 23  1  0
 11 24  1  0
 23 24  2  0
  7 25  1  0
  4 26  1  0
 25 26  1  0
M  END
