piperidine-amides-24178-covalent
     RDKit          3D

 24 25  0  0  0  0  0  0  0  0999 V2000
    7.0760   -3.3240   19.3500 C   0  0  0  0  0  0  0  0  0  0  0  0
    6.3830   -4.2020   20.3000 C   0  0  0  0  0  0  0  0  0  0  0  0
    5.3390   -4.7990   19.9650 O   0  0  0  0  0  0  0  0  0  0  0  0
    6.9180   -4.4330   21.5740 N   0  0  0  0  0  0  0  0  0  0  0  0
    6.4690   -5.5990   22.2810 C   0  0  0  0  0  0  0  0  0  0  0  0
    5.5710   -5.0670   23.3990 C   0  0  0  0  0  0  0  0  0  0  0  0
    6.4180   -4.1120   24.2130 C   0  0  0  0  0  0  0  0  0  0  0  0
    5.6250   -3.5800   25.3450 C   0  0  0  0  0  0  0  0  0  0  0  0
    4.4210   -3.2960   25.1660 O   0  0  0  0  0  0  0  0  0  0  0  0
    6.2600   -3.4040   26.5880 N   0  0  0  0  0  0  0  0  0  0  0  0
    5.5690   -3.3610   27.8590 C   0  0  0  0  0  0  0  0  0  0  0  0
    5.5260   -4.7420   28.4590 C   0  0  0  0  0  0  0  0  0  0  0  0
    6.7120   -5.3520   28.6510 C   0  0  0  0  0  0  0  0  0  0  0  0
    7.7580   -4.8130   27.9730 C   0  0  0  0  0  0  0  0  0  0  0  0
    7.5750   -3.7370   27.0860 C   0  0  2  0  0  0  0  0  0  0  0  0
    7.8900   -2.4530   27.5130 C   0  0  0  0  0  0  0  0  0  0  0  0
    6.8330   -1.3620   27.5500 C   0  0  0  0  0  0  0  0  0  0  0  0
    7.5930   -1.6800   28.8200 C   0  0  0  0  0  0  0  0  0  0  0  0
    8.4220   -3.8450   26.0100 C   0  0  0  0  0  0  0  0  0  0  0  0
    8.8970   -2.8030   25.3790 O   0  0  0  0  0  0  0  0  0  0  0  0
    8.7740   -5.1100   25.5520 O   0  0  0  0  0  0  0  0  0  0  0  0
    9.6180   -5.8890   26.3550 C   0  0  0  0  0  0  0  0  0  0  0  0
    6.8720   -2.9500   23.3640 C   0  0  0  0  0  0  0  0  0  0  0  0
    7.5500   -3.3550   22.2560 C   0  0  0  0  0  0  0  0  0  0  0  0
  1  2  1  0
  2  3  2  0
  2  4  1  0
  4  5  1  0
  5  6  1  0
  6  7  1  0
  7  8  1  0
  8  9  2  0
  8 10  1  0
 10 11  1  0
 11 12  1  0
 12 13  1  0
 13 14  1  0
 10 15  1  0
 14 15  1  0
 15 16  1  1
 16 17  1  0
 17 18  3  0
 15 19  1  0
 19 20  2  0
 19 21  1  0
 21 22  1  0
  7 23  1  0
  4 24  1  0
 23 24  1  0
M  END
