piperidine-amides-11146-covalent
     RDKit          3D

 20 21  0  0  0  0  0  0  0  0999 V2000
    7.1400   -3.2740   19.1700 C   0  0  0  0  0  0  0  0  0  0  0  0
    6.3690   -4.0080   20.1770 C   0  0  0  0  0  0  0  0  0  0  0  0
    5.2790   -4.5080   19.8650 O   0  0  0  0  0  0  0  0  0  0  0  0
    6.8710   -4.2080   21.4700 N   0  0  0  0  0  0  0  0  0  0  0  0
    6.5290   -5.3480   22.2840 C   0  0  0  0  0  0  0  0  0  0  0  0
    5.8040   -4.7840   23.4810 C   0  0  0  0  0  0  0  0  0  0  0  0
    6.5880   -3.6780   24.1290 C   0  0  0  0  0  0  0  0  0  0  0  0
    5.9060   -3.0850   25.2930 C   0  0  0  0  0  0  0  0  0  0  0  0
    4.6570   -2.8780   25.2740 O   0  0  0  0  0  0  0  0  0  0  0  0
    6.6170   -2.7040   26.4440 N   0  0  0  0  0  0  0  0  0  0  0  0
    6.1750   -3.0650   27.8050 C   0  0  0  0  0  0  0  0  0  0  0  0
    5.4950   -4.3750   27.8070 C   0  0  0  0  0  0  0  0  0  0  0  0
    4.3140   -4.6270   26.9280 C   0  0  0  0  0  0  0  0  0  0  0  0
    3.5260   -5.8900   26.8230 N   0  0  0  0  0  0  0  0  0  0  0  0
    4.0830   -6.9250   27.7540 C   0  0  0  0  0  0  0  0  0  0  0  0
    5.2640   -6.6460   28.6270 C   0  0  0  0  0  0  0  0  0  0  0  0
    5.7610   -7.6930   29.5270 C   0  0  0  0  0  0  0  0  0  0  0  0
    5.9760   -5.3300   28.6340 C   0  0  0  0  0  0  0  0  0  0  0  0
    6.9050   -2.5710   23.1710 C   0  0  0  0  0  0  0  0  0  0  0  0
    7.7130   -3.1890   22.0700 C   0  0  0  0  0  0  0  0  0  0  0  0
  1  2  1  0
  2  3  2  0
  2  4  1  0
  4  5  1  0
  5  6  1  0
  6  7  1  0
  7  8  1  0
  8  9  2  0
  8 10  1  0
 10 11  1  0
 11 12  1  0
 12 13  2  0
 13 14  1  0
 14 15  2  0
 15 16  1  0
 16 17  1  0
 12 18  1  0
 16 18  2  0
  7 19  1  0
  4 20  1  0
 19 20  1  0
M  END
