piperidine-amides-7345-covalent
     RDKit          3D

 20 21  0  0  0  0  0  0  0  0999 V2000
    7.1040   -3.2780   19.2090 C   0  0  0  0  0  0  0  0  0  0  0  0
    6.3740   -4.0350   20.2320 C   0  0  0  0  0  0  0  0  0  0  0  0
    5.2850   -4.5490   19.8810 O   0  0  0  0  0  0  0  0  0  0  0  0
    6.9100   -4.2010   21.5070 N   0  0  0  0  0  0  0  0  0  0  0  0
    7.7020   -3.1680   22.1350 C   0  0  0  0  0  0  0  0  0  0  0  0
    6.9850   -2.7150   23.3710 C   0  0  0  0  0  0  0  0  0  0  0  0
    6.5790   -3.8830   24.2250 C   0  0  0  0  0  0  0  0  0  0  0  0
    5.8630   -3.4160   25.4380 C   0  0  0  0  0  0  0  0  0  0  0  0
    4.6130   -3.3900   25.4170 O   0  0  0  0  0  0  0  0  0  0  0  0
    6.5450   -2.9800   26.5960 N   0  0  0  0  0  0  0  0  0  0  0  0
    6.2080   -3.4140   27.9390 C   0  0  0  0  0  0  0  0  0  0  0  0
    6.2620   -4.9230   28.1940 C   0  0  0  0  0  0  0  0  0  0  0  0
    5.0220   -5.2780   28.9170 N   0  0  0  0  0  0  0  0  0  0  0  0
    5.0470   -5.8680   30.1070 C   0  0  0  0  0  0  0  0  0  0  0  0
    6.1460   -6.6160   30.6010 O   0  0  0  0  0  0  0  0  0  0  0  0
    3.9420   -5.7630   30.9300 C   0  0  0  0  0  0  0  0  0  0  0  0
    2.7810   -5.6600   30.5270 C   0  0  0  0  0  0  0  0  0  0  0  0
    3.1410   -4.3970   31.0810 C   0  0  0  0  0  0  0  0  0  0  0  0
    5.6560   -4.8510   23.4970 C   0  0  0  0  0  0  0  0  0  0  0  0
    6.3920   -5.3320   22.2760 C   0  0  0  0  0  0  0  0  0  0  0  0
  1  2  1  0
  2  3  2  0
  2  4  1  0
  4  5  1  0
  5  6  1  0
  6  7  1  0
  7  8  1  0
  8  9  2  0
  8 10  1  0
 10 11  1  0
 11 12  1  0
 12 13  1  0
 13 14  1  0
 14 15  2  0
 14 16  1  0
 16 17  1  0
 16 18  1  0
 17 18  1  0
  7 19  1  0
  4 20  1  0
 19 20  1  0
M  END
