piperidine-amides-1896-covalent
     RDKit          3D

 17 17  0  0  0  0  0  0  0  0999 V2000
    7.1180   -3.2900   19.2630 C   0  0  0  0  0  0  0  0  0  0  0  0
    6.3320   -4.0310   20.2810 C   0  0  0  0  0  0  0  0  0  0  0  0
    5.2880   -4.5530   19.8960 O   0  0  0  0  0  0  0  0  0  0  0  0
    6.8090   -4.1580   21.5950 N   0  0  0  0  0  0  0  0  0  0  0  0
    6.5550   -5.3590   22.3510 C   0  0  0  0  0  0  0  0  0  0  0  0
    6.0890   -5.0300   23.7500 C   0  0  0  0  0  0  0  0  0  0  0  0
    6.0110   -3.5130   23.9640 C   0  0  0  0  0  0  0  0  0  0  0  0
    5.6140   -3.1810   25.3540 C   0  0  0  0  0  0  0  0  0  0  0  0
    4.5580   -2.5630   25.5260 O   0  0  0  0  0  0  0  0  0  0  0  0
    6.3750   -3.5440   26.4850 N   0  0  0  0  0  0  0  0  0  0  0  0
    5.9400   -4.7090   27.2300 C   0  0  0  0  0  0  0  0  0  0  0  0
    5.7130   -5.8590   26.2890 C   0  0  0  0  0  0  0  0  0  0  0  0
    4.6850   -4.4940   27.9380 C   0  0  0  0  0  0  0  0  0  0  0  0
    6.7560   -4.9920   28.4560 C   0  0  0  0  0  0  0  0  0  0  0  0
    6.3840   -6.1880   29.0020 C   0  0  0  0  0  0  0  0  0  0  0  0
    7.3420   -2.8990   23.5970 C   0  0  0  0  0  0  0  0  0  0  0  0
    7.6470   -3.1470   22.1640 C   0  0  0  0  0  0  0  0  0  0  0  0
  1  2  1  0
  2  3  2  0
  2  4  1  0
  4  5  1  0
  5  6  1  0
  6  7  1  0
  7  8  1  0
  8  9  2  0
  8 10  1  0
 10 11  1  0
 11 12  1  0
 11 13  1  0
 11 14  1  0
 14 15  2  3
  7 16  1  0
  4 17  1  0
 16 17  1  0
M  END
