piperidine-amides-10921-covalent
     RDKit          3D

 21 22  0  0  0  0  0  0  0  0999 V2000
    7.0730   -3.3380   19.2830 C   0  0  0  0  0  0  0  0  0  0  0  0
    6.3740   -4.1510   20.2810 C   0  0  0  0  0  0  0  0  0  0  0  0
    5.3420   -4.7590   19.9540 O   0  0  0  0  0  0  0  0  0  0  0  0
    6.8750   -4.3020   21.5830 N   0  0  0  0  0  0  0  0  0  0  0  0
    6.6940   -5.5130   22.3520 C   0  0  0  0  0  0  0  0  0  0  0  0
    5.9540   -5.0960   23.5950 C   0  0  0  0  0  0  0  0  0  0  0  0
    5.9920   -3.6080   23.7560 C   0  0  0  0  0  0  0  0  0  0  0  0
    5.5960   -3.1250   25.0770 C   0  0  0  0  0  0  0  0  0  0  0  0
    4.3910   -3.1120   25.4650 O   0  0  0  0  0  0  0  0  0  0  0  0
    6.5930   -2.6640   25.9310 N   0  0  0  0  0  0  0  0  0  0  0  0
    6.4410   -1.4950   26.7970 C   0  0  0  0  0  0  0  0  0  0  0  0
    6.2510   -0.1270   26.2960 C   0  0  0  0  0  0  0  0  0  0  0  0
    6.1320    0.9770   27.2610 C   0  0  0  0  0  0  0  0  0  0  0  0
    6.2070    0.7070   28.7430 C   0  0  0  0  0  0  0  0  0  0  0  0
    6.1010    1.8140   29.7680 C   0  0  0  0  0  0  0  0  0  0  0  0
    6.3970   -0.7510   29.2000 C   0  0  0  0  0  0  0  0  0  0  0  0
    6.4970   -1.7610   28.2830 C   0  0  0  0  0  0  0  0  0  0  0  0
    6.6740   -3.2990   28.9400 S   0  0  0  0  0  0  0  0  0  0  0  0
    5.8950   -4.6630   28.0730 C   0  0  0  0  0  0  0  0  0  0  0  0
    7.3980   -3.0460   23.5540 C   0  0  0  0  0  0  0  0  0  0  0  0
    7.7250   -3.2360   22.0860 C   0  0  0  0  0  0  0  0  0  0  0  0
  1  2  1  0
  2  3  2  0
  2  4  1  0
  4  5  1  0
  5  6  1  0
  6  7  1  0
  7  8  1  0
  8  9  2  0
  8 10  1  0
 10 11  1  0
 11 12  2  0
 12 13  1  0
 13 14  2  0
 14 15  1  0
 14 16  1  0
 11 17  1  0
 16 17  2  0
 17 18  1  0
 18 19  1  0
  7 20  1  0
  4 21  1  0
 20 21  1  0
M  END
