piperidine-amides-23310-covalent
     RDKit          3D

 23 25  0  0  0  0  0  0  0  0999 V2000
    7.1330   -3.2900   19.2560 C   0  0  0  0  0  0  0  0  0  0  0  0
    6.4310   -4.0740   20.2810 C   0  0  0  0  0  0  0  0  0  0  0  0
    5.3570   -4.6310   19.9300 O   0  0  0  0  0  0  0  0  0  0  0  0
    6.9730   -4.2480   21.5800 N   0  0  0  0  0  0  0  0  0  0  0  0
    6.5920   -5.4130   22.2900 C   0  0  0  0  0  0  0  0  0  0  0  0
    5.9280   -5.1020   23.5400 C   0  0  0  0  0  0  0  0  0  0  0  0
    6.1230   -3.7010   23.9420 C   0  0  0  0  0  0  0  0  0  0  0  0
    5.4540   -3.3220   25.2530 C   0  0  0  0  0  0  0  0  0  0  0  0
    4.4320   -2.6240   25.1690 O   0  0  0  0  0  0  0  0  0  0  0  0
    5.8480   -3.6660   26.5680 N   0  0  0  0  0  0  0  0  0  0  0  0
    5.0160   -3.8270   27.6380 C   0  0  0  0  0  0  0  0  0  0  0  0
    5.4220   -5.1670   27.9730 C   0  0  1  0  0  0  0  0  0  0  0  0
    5.9140   -4.7230   29.3320 C   0  0  0  0  0  0  0  0  0  0  0  0
    6.3460   -5.9150   28.9040 C   0  0  0  0  0  0  0  0  0  0  0  0
    7.7060   -5.9120   28.8500 F   0  0  0  0  0  0  0  0  0  0  0  0
    5.8930   -6.8170   29.8510 F   0  0  0  0  0  0  0  0  0  0  0  0
    6.5820   -4.9080   26.8850 C   0  0  1  0  0  0  0  0  0  0  0  0
    6.6880   -5.7480   25.7370 C   0  0  0  0  0  0  0  0  0  0  0  0
    5.4520   -6.2080   25.2520 O   0  0  0  0  0  0  0  0  0  0  0  0
    7.9730   -6.0470   25.2450 O   0  0  0  0  0  0  0  0  0  0  0  0
    9.0550   -6.1410   26.1900 C   0  0  0  0  0  0  0  0  0  0  0  0
    7.5410   -3.2480   23.7530 C   0  0  0  0  0  0  0  0  0  0  0  0
    7.7320   -3.1700   22.2340 C   0  0  0  0  0  0  0  0  0  0  0  0
  1  2  1  0
  2  3  2  0
  2  4  1  0
  4  5  1  0
  5  6  1  0
  6  7  1  0
  7  8  1  0
  8  9  2  0
  8 10  1  0
 10 11  1  0
 12 11  1  1
 12 13  1  0
 12 14  1  0
 13 14  1  0
 14 15  1  0
 14 16  1  0
 10 17  1  0
 12 17  1  0
 17 18  1  6
 18 19  2  0
 18 20  1  0
 20 21  1  0
  7 22  1  0
  4 23  1  0
 22 23  1  0
M  END
