piperidine-amides-3734-covalent
     RDKit          3D

 24 26  0  0  0  0  0  0  0  0999 V2000
    7.1270   -3.3220   19.2290 C   0  0  0  0  0  0  0  0  0  0  0  0
    6.3470   -4.0700   20.2260 C   0  0  0  0  0  0  0  0  0  0  0  0
    5.2340   -4.5100   19.8640 O   0  0  0  0  0  0  0  0  0  0  0  0
    6.8740   -4.3350   21.5070 N   0  0  0  0  0  0  0  0  0  0  0  0
    6.3730   -5.4550   22.2150 C   0  0  0  0  0  0  0  0  0  0  0  0
    5.6580   -5.0490   23.4130 C   0  0  0  0  0  0  0  0  0  0  0  0
    5.4410   -3.5880   23.4940 C   0  0  0  0  0  0  0  0  0  0  0  0
    4.5430   -3.2110   24.6430 C   0  0  0  0  0  0  0  0  0  0  0  0
    3.3410   -3.0280   24.4480 O   0  0  0  0  0  0  0  0  0  0  0  0
    5.0130   -3.0710   25.9430 N   0  0  0  0  0  0  0  0  0  0  0  0
    6.2300   -3.5230   26.3670 C   0  0  0  0  0  0  0  0  0  0  0  0
    7.4180   -2.9430   25.8350 C   0  0  0  0  0  0  0  0  0  0  0  0
    7.6270   -1.5610   25.2570 C   0  0  0  0  0  0  0  0  0  0  0  0
    9.0720   -1.6150   24.9480 N   0  0  0  0  0  0  0  0  0  0  0  0
    9.5850   -2.7930   25.2860 N   0  0  0  0  0  0  0  0  0  0  0  0
   10.8470   -3.1940   25.2330 C   0  0  0  0  0  0  0  0  0  0  0  0
   11.0560   -4.4650   26.0910 C   0  0  0  0  0  0  0  0  0  0  0  0
   10.0040   -5.1070   26.7420 N   0  0  0  0  0  0  0  0  0  0  0  0
    9.8210   -5.1030   28.1510 C   0  0  0  0  0  0  0  0  0  0  0  0
    8.8710   -4.9640   26.1910 C   0  0  0  0  0  0  0  0  0  0  0  0
    8.0340   -6.0630   26.1170 O   0  0  0  0  0  0  0  0  0  0  0  0
    8.6840   -3.6010   25.7580 C   0  0  0  0  0  0  0  0  0  0  0  0
    6.7490   -2.8320   23.4310 C   0  0  0  0  0  0  0  0  0  0  0  0
    7.5300   -3.2520   22.1760 C   0  0  0  0  0  0  0  0  0  0  0  0
  1  2  1  0
  2  3  2  0
  2  4  1  0
  4  5  1  0
  5  6  1  0
  6  7  1  0
  7  8  1  0
  8  9  2  0
  8 10  1  0
 10 11  1  0
 11 12  1  0
 12 13  1  0
 13 14  2  0
 14 15  1  0
 15 16  1  0
 16 17  2  0
 17 18  1  0
 18 19  1  0
 18 20  1  0
 20 21  2  0
 12 22  2  0
 15 22  1  0
 20 22  1  0
  7 23  1  0
  4 24  1  0
 23 24  1  0
M  END
