piperidine-amides-27701-covalent
     RDKit          3D

 26 29  0  0  0  0  0  0  0  0999 V2000
    7.0060   -3.3770   19.3380 C   0  0  0  0  0  0  0  0  0  0  0  0
    6.3630   -4.2440   20.3500 C   0  0  0  0  0  0  0  0  0  0  0  0
    5.3480   -4.8630   19.9790 O   0  0  0  0  0  0  0  0  0  0  0  0
    6.9080   -4.3910   21.6370 N   0  0  0  0  0  0  0  0  0  0  0  0
    6.5630   -5.5370   22.4270 C   0  0  0  0  0  0  0  0  0  0  0  0
    5.8290   -5.2010   23.6570 C   0  0  0  0  0  0  0  0  0  0  0  0
    5.8560   -3.7570   23.9410 C   0  0  0  0  0  0  0  0  0  0  0  0
    5.2780   -3.3820   25.2700 C   0  0  0  0  0  0  0  0  0  0  0  0
    4.4580   -2.4520   25.2820 O   0  0  0  0  0  0  0  0  0  0  0  0
    5.6030   -4.0120   26.4860 N   0  0  0  0  0  0  0  0  0  0  0  0
    6.9360   -4.4980   26.6620 C   0  0  0  0  0  0  0  0  0  0  0  0
    7.0660   -5.7750   27.3770 C   0  0  0  0  0  0  0  0  0  0  0  0
    6.8940   -5.7130   28.8020 C   0  0  0  0  0  0  0  0  0  0  0  0
    5.6550   -5.3770   29.2630 C   0  0  0  0  0  0  0  0  0  0  0  0
    4.8210   -4.3790   28.7640 C   0  0  0  0  0  0  0  0  0  0  0  0
    3.6610   -4.4630   29.6210 N   0  0  0  0  0  0  0  0  0  0  0  0
    3.8590   -5.4380   30.5090 C   0  0  0  0  0  0  0  0  0  0  0  0
    2.9710   -5.7970   31.4730 C   0  0  0  0  0  0  0  0  0  0  0  0
    1.7460   -5.1150   31.5750 F   0  0  0  0  0  0  0  0  0  0  0  0
    3.3150   -6.8370   32.3270 C   0  0  0  0  0  0  0  0  0  0  0  0
    4.5680   -7.4960   32.1790 C   0  0  0  0  0  0  0  0  0  0  0  0
    5.5600   -7.1320   31.1390 C   0  0  0  0  0  0  0  0  0  0  0  0
    5.0410   -6.0090   30.3210 C   0  0  0  0  0  0  0  0  0  0  0  0
    4.9610   -3.4240   27.6530 C   0  0  0  0  0  0  0  0  0  0  0  0
    7.1620   -3.1500   23.6920 C   0  0  0  0  0  0  0  0  0  0  0  0
    7.6300   -3.2970   22.2670 C   0  0  0  0  0  0  0  0  0  0  0  0
  1  2  1  0
  2  3  2  0
  2  4  1  0
  4  5  1  0
  5  6  1  0
  6  7  1  0
  7  8  1  0
  8  9  2  0
  8 10  1  0
 10 11  1  0
 11 12  1  0
 12 13  1  0
 13 14  1  0
 14 15  2  0
 15 16  1  0
 16 17  1  0
 17 18  1  0
 18 19  1  0
 18 20  2  0
 20 21  1  0
 21 22  2  0
 14 23  1  0
 17 23  2  0
 22 23  1  0
 10 24  1  0
 15 24  1  0
  7 25  1  0
  4 26  1  0
 25 26  1  0
M  END
