piperidine-amides-35245-covalent
     RDKit          3D

 33 35  0  0  0  0  0  0  0  0999 V2000
    7.0370   -3.2090   19.1740 C   0  0  0  0  0  0  0  0  0  0  0  0
    6.3030   -3.9720   20.2150 C   0  0  0  0  0  0  0  0  0  0  0  0
    5.2640   -4.5240   19.8700 O   0  0  0  0  0  0  0  0  0  0  0  0
    6.8040   -4.0790   21.5100 N   0  0  0  0  0  0  0  0  0  0  0  0
    7.5490   -3.0170   22.1430 C   0  0  0  0  0  0  0  0  0  0  0  0
    6.7840   -2.5220   23.3440 C   0  0  0  0  0  0  0  0  0  0  0  0
    6.2770   -3.7300   24.1220 C   0  0  0  0  0  0  0  0  0  0  0  0
    5.5820   -3.2780   25.3640 C   0  0  0  0  0  0  0  0  0  0  0  0
    4.3410   -3.2910   25.3970 O   0  0  0  0  0  0  0  0  0  0  0  0
    6.2930   -2.8210   26.5100 N   0  0  0  0  0  0  0  0  0  0  0  0
    6.6000   -1.4140   26.5160 C   0  0  0  0  0  0  0  0  0  0  0  0
    6.3450   -3.5870   27.7400 C   0  0  0  0  0  0  0  0  0  0  0  0
    7.4410   -4.3950   27.8050 C   0  0  0  0  0  0  0  0  0  0  0  0
    8.1170   -4.4150   26.6600 C   0  0  2  0  0  0  0  0  0  0  0  0
    8.1210   -3.1290   26.1270 O   0  0  0  0  0  0  0  0  0  0  0  0
    9.1600   -2.7420   25.2980 C   0  0  0  0  0  0  0  0  0  0  0  0
   10.4510   -3.4390   25.6540 C   0  0  0  0  0  0  0  0  0  0  0  0
   11.6210   -3.0400   24.7890 C   0  0  0  0  0  0  0  0  0  0  0  0
   11.4280   -2.0430   23.6950 C   0  0  0  0  0  0  0  0  0  0  0  0
   12.6660   -1.7420   22.9230 C   0  0  0  0  0  0  0  0  0  0  0  0
   13.1120   -0.4500   22.8760 F   0  0  0  0  0  0  0  0  0  0  0  0
   13.6640   -2.5050   23.4900 F   0  0  0  0  0  0  0  0  0  0  0  0
   12.4480   -2.0530   21.6160 F   0  0  0  0  0  0  0  0  0  0  0  0
   10.1480   -1.3680   23.3520 C   0  0  0  0  0  0  0  0  0  0  0  0
    8.9600   -1.7350   24.1980 C   0  0  0  0  0  0  0  0  0  0  0  0
    7.6150   -5.4460   25.7260 C   0  0  0  0  0  0  0  0  0  0  0  0
    6.1230   -5.7190   25.6100 C   0  0  0  0  0  0  0  0  0  0  0  0
    5.5930   -6.6460   24.7450 C   0  0  0  0  0  0  0  0  0  0  0  0
    6.4700   -7.4550   23.8450 C   0  0  0  0  0  0  0  0  0  0  0  0
    7.9500   -7.1790   23.9850 C   0  0  0  0  0  0  0  0  0  0  0  0
    8.4680   -6.1450   24.9680 C   0  0  0  0  0  0  0  0  0  0  0  0
    5.4050   -4.6370   23.2880 C   0  0  0  0  0  0  0  0  0  0  0  0
    6.3790   -5.2300   22.2590 C   0  0  0  0  0  0  0  0  0  0  0  0
  1  2  1  0
  2  3  2  0
  2  4  1  0
  4  5  1  0
  5  6  1  0
  6  7  1  0
  7  8  1  0
  8  9  2  0
  8 10  1  0
 10 11  1  0
 10 12  1  0
 12 13  1  0
 14 13  1  1
 14 15  1  0
 15 16  1  0
 16 17  2  0
 17 18  1  0
 18 19  2  0
 19 20  1  0
 20 21  1  0
 20 22  1  0
 20 23  1  0
 19 24  1  0
 16 25  1  0
 24 25  2  0
 14 26  1  0
 26 27  2  0
 27 28  1  0
 28 29  2  0
 29 30  1  0
 26 31  1  0
 30 31  2  0
  7 32  1  0
  4 33  1  0
 32 33  1  0
M  END
