piperidine-amides-29535-covalent
     RDKit          3D

 26 27  0  0  0  0  0  0  0  0999 V2000
    7.0540   -3.3610   19.3380 C   0  0  0  0  0  0  0  0  0  0  0  0
    6.3770   -4.1980   20.3190 C   0  0  0  0  0  0  0  0  0  0  0  0
    5.3670   -4.8200   19.9810 O   0  0  0  0  0  0  0  0  0  0  0  0
    6.9100   -4.3510   21.6500 N   0  0  0  0  0  0  0  0  0  0  0  0
    6.6890   -5.5910   22.3670 C   0  0  0  0  0  0  0  0  0  0  0  0
    6.2480   -5.3210   23.7850 C   0  0  0  0  0  0  0  0  0  0  0  0
    6.0900   -3.8230   23.9360 C   0  0  0  0  0  0  0  0  0  0  0  0
    5.5010   -3.4040   25.2370 C   0  0  0  0  0  0  0  0  0  0  0  0
    4.4890   -2.6870   25.2700 O   0  0  0  0  0  0  0  0  0  0  0  0
    6.0460   -3.8030   26.4770 N   0  0  0  0  0  0  0  0  0  0  0  0
    5.4690   -5.0050   27.0360 C   0  0  0  0  0  0  0  0  0  0  0  0
    4.9550   -4.7230   28.4270 C   0  0  0  0  0  0  0  0  0  0  0  0
    5.7380   -3.9500   29.2180 C   0  0  0  0  0  0  0  0  0  0  0  0
    4.9030   -3.0840   30.0190 N   0  0  0  0  0  0  0  0  0  0  0  0
    5.2610   -1.6890   30.1500 C   0  0  0  0  0  0  0  0  0  0  0  0
    4.8220   -0.8570   29.1380 C   0  0  0  0  0  0  0  0  0  0  0  0
    4.4450    0.2610   29.5350 O   0  0  0  0  0  0  0  0  0  0  0  0
    3.1910    0.7000   29.9040 C   0  0  0  0  0  0  0  0  0  0  0  0
    3.4810   -3.2540   30.2320 C   0  0  0  0  0  0  0  0  0  0  0  0
    3.1200   -3.2120   31.5660 C   0  0  0  0  0  0  0  0  0  0  0  0
    3.7290   -2.4100   32.3170 O   0  0  0  0  0  0  0  0  0  0  0  0
    3.0450   -2.2480   33.4980 C   0  0  0  0  0  0  0  0  0  0  0  0
    6.7060   -3.2780   28.6040 C   0  0  0  0  0  0  0  0  0  0  0  0
    6.4760   -2.7840   27.3360 C   0  0  0  0  0  0  0  0  0  0  0  0
    7.3810   -3.1350   23.6440 C   0  0  0  0  0  0  0  0  0  0  0  0
    7.6860   -3.2800   22.1970 C   0  0  0  0  0  0  0  0  0  0  0  0
  1  2  1  0
  2  3  2  0
  2  4  1  0
  4  5  1  0
  5  6  1  0
  6  7  1  0
  7  8  1  0
  8  9  2  0
  8 10  1  0
 10 11  1  0
 11 12  1  0
 12 13  1  0
 13 14  1  0
 14 15  1  0
 15 16  1  0
 16 17  1  0
 17 18  1  0
 14 19  1  0
 19 20  1  0
 20 21  1  0
 21 22  1  0
 13 23  1  0
 10 24  1  0
 23 24  1  0
  7 25  1  0
  4 26  1  0
 25 26  1  0
M  END
