piperidine-amides-19214-covalent
     RDKit          3D

 22 24  0  0  0  0  0  0  0  0999 V2000
    7.0150   -3.4130   19.3820 C   0  0  0  0  0  0  0  0  0  0  0  0
    6.3730   -4.2180   20.3990 C   0  0  0  0  0  0  0  0  0  0  0  0
    5.4090   -4.9470   20.0090 O   0  0  0  0  0  0  0  0  0  0  0  0
    6.7820   -4.2690   21.7590 N   0  0  0  0  0  0  0  0  0  0  0  0
    6.7410   -5.6200   22.3960 C   0  0  0  0  0  0  0  0  0  0  0  0
    6.1870   -5.3310   23.8530 C   0  0  0  0  0  0  0  0  0  0  0  0
    6.0830   -3.8390   23.9350 C   0  0  0  0  0  0  0  0  0  0  0  0
    5.2040   -3.2130   25.1190 C   0  0  0  0  0  0  0  0  0  0  0  0
    4.2880   -2.6050   24.6070 O   0  0  0  0  0  0  0  0  0  0  0  0
    5.6170   -3.4670   26.2960 N   0  0  0  0  0  0  0  0  0  0  0  0
    6.3860   -3.5400   27.3530 C   0  0  0  0  0  0  0  0  0  0  0  0
    6.7870   -4.5280   28.1740 C   0  0  0  0  0  0  0  0  0  0  0  0
    5.8040   -4.5680   29.0690 C   0  0  0  0  0  0  0  0  0  0  0  0
    4.4880   -4.2920   28.4920 C   0  0  0  0  0  0  0  0  0  0  0  0
    3.5060   -4.6630   29.5260 C   0  0  0  0  0  0  0  0  0  0  0  0
    2.2290   -4.3760   28.9580 C   0  0  0  0  0  0  0  0  0  0  0  0
    1.2470   -4.6220   29.6910 O   0  0  0  0  0  0  0  0  0  0  0  0
    1.6810   -3.8470   27.6980 C   0  0  0  0  0  0  0  0  0  0  0  0
    2.9640   -3.5540   26.8160 C   0  0  0  0  0  0  0  0  0  0  0  0
    4.4730   -3.7550   27.1510 C   0  0  0  0  0  0  0  0  0  0  0  0
    7.4310   -3.1700   23.6560 C   0  0  0  0  0  0  0  0  0  0  0  0
    7.6870   -3.2510   22.3130 C   0  0  0  0  0  0  0  0  0  0  0  0
  1  2  1  0
  2  3  2  0
  2  4  1  0
  4  5  1  0
  5  6  1  0
  6  7  1  0
  7  8  1  0
  8  9  2  0
  8 10  1  0
 10 11  1  0
 11 12  1  0
 12 13  1  0
 13 14  1  0
 14 15  2  0
 15 16  1  0
 16 17  1  0
 16 18  2  0
 18 19  1  0
 10 20  1  0
 14 20  1  0
 19 20  2  0
  7 21  1  0
  4 22  1  0
 21 22  1  0
M  END
