piperidine-amides-27034-covalent
     RDKit          3D

 21 23  0  0  0  0  0  0  0  0999 V2000
    7.0140   -3.3760   19.4310 C   0  0  0  0  0  0  0  0  0  0  0  0
    6.3720   -4.2530   20.4170 C   0  0  0  0  0  0  0  0  0  0  0  0
    5.3810   -4.9100   19.9950 O   0  0  0  0  0  0  0  0  0  0  0  0
    6.8630   -4.3840   21.7310 N   0  0  0  0  0  0  0  0  0  0  0  0
    6.6920   -5.6220   22.4650 C   0  0  0  0  0  0  0  0  0  0  0  0
    6.0780   -5.3020   23.8010 C   0  0  0  0  0  0  0  0  0  0  0  0
    5.7570   -3.8420   23.8970 C   0  0  0  0  0  0  0  0  0  0  0  0
    4.9270   -3.5080   25.1040 C   0  0  0  0  0  0  0  0  0  0  0  0
    3.6990   -3.5060   24.9380 O   0  0  0  0  0  0  0  0  0  0  0  0
    5.3640   -3.1900   26.4010 N   0  0  0  0  0  0  0  0  0  0  0  0
    6.4320   -3.6910   26.9120 C   0  0  0  0  0  0  0  0  0  0  0  0
    6.7100   -2.8220   28.0980 C   0  0  0  0  0  0  0  0  0  0  0  0
    6.8040   -1.9790   29.2390 C   0  0  0  0  0  0  0  0  0  0  0  0
    5.7780   -1.3300   30.0490 C   0  0  0  0  0  0  0  0  0  0  0  0
    6.3000   -0.1690   31.4760 Br  0  0  0  0  0  0  0  0  0  0  0  0
    4.3970   -1.4810   29.8490 C   0  0  0  0  0  0  0  0  0  0  0  0
    4.1310   -2.2550   28.8650 N   0  0  0  0  0  0  0  0  0  0  0  0
    5.3530   -2.5030   28.5280 C   0  0  0  0  0  0  0  0  0  0  0  0
    4.6710   -3.2450   27.5500 C   0  0  0  0  0  0  0  0  0  0  0  0
    7.0450   -3.0290   23.7500 C   0  0  0  0  0  0  0  0  0  0  0  0
    7.6110   -3.2960   22.3450 C   0  0  0  0  0  0  0  0  0  0  0  0
  1  2  1  0
  2  3  2  0
  2  4  1  0
  4  5  1  0
  5  6  1  0
  6  7  1  0
  7  8  1  0
  8  9  2  0
  8 10  1  0
 10 11  1  0
 11 12  1  0
 12 13  1  0
 13 14  2  0
 14 15  1  0
 14 16  1  0
 16 17  2  0
 12 18  2  0
 17 18  1  0
 10 19  1  0
 18 19  1  0
  7 20  1  0
  4 21  1  0
 20 21  1  0
M  END
