piperidine-amides-33469-covalent
     RDKit          3D

 25 26  0  0  0  0  0  0  0  0999 V2000
    7.1260   -3.2960   19.2550 C   0  0  0  0  0  0  0  0  0  0  0  0
    6.4350   -4.0880   20.2890 C   0  0  0  0  0  0  0  0  0  0  0  0
    5.3750   -4.6680   19.9400 O   0  0  0  0  0  0  0  0  0  0  0  0
    6.9800   -4.2260   21.5940 N   0  0  0  0  0  0  0  0  0  0  0  0
    6.5870   -5.3480   22.3870 C   0  0  0  0  0  0  0  0  0  0  0  0
    6.0750   -4.9340   23.6790 C   0  0  0  0  0  0  0  0  0  0  0  0
    6.2720   -3.4870   23.8330 C   0  0  0  0  0  0  0  0  0  0  0  0
    5.7440   -2.8790   25.0970 C   0  0  0  0  0  0  0  0  0  0  0  0
    5.0250   -1.8760   24.9750 O   0  0  0  0  0  0  0  0  0  0  0  0
    5.9560   -3.3610   26.4020 N   0  0  0  0  0  0  0  0  0  0  0  0
    5.8420   -4.7440   26.6880 C   0  0  0  0  0  0  0  0  0  0  0  0
    6.2400   -5.3660   27.9440 C   0  0  0  0  0  0  0  0  0  0  0  0
    5.3830   -6.1070   28.6690 N   0  0  0  0  0  0  0  0  0  0  0  0
    5.7110   -6.9360   29.7960 C   0  0  0  0  0  0  0  0  0  0  0  0
    4.7780   -4.8890   29.1010 C   0  0  0  0  0  0  0  0  0  0  0  0
    5.1450   -2.5430   27.3290 C   0  0  0  0  0  0  0  0  0  0  0  0
    5.9690   -1.7840   28.3080 C   0  0  0  0  0  0  0  0  0  0  0  0
    5.1500   -0.5130   28.4110 C   0  0  0  0  0  0  0  0  0  0  0  0
    5.5390    0.6310   29.3020 C   0  0  0  0  0  0  0  0  0  0  0  0
    6.8220    0.4480   30.1150 C   0  0  0  0  0  0  0  0  0  0  0  0
    7.4450    1.8150   31.2980 Br  0  0  0  0  0  0  0  0  0  0  0  0
    7.6040   -0.8880   29.9460 C   0  0  0  0  0  0  0  0  0  0  0  0
    7.1030   -1.9480   29.0210 C   0  0  0  0  0  0  0  0  0  0  0  0
    7.6580   -3.0720   23.5160 C   0  0  0  0  0  0  0  0  0  0  0  0
    7.8050   -3.1560   22.1430 C   0  0  0  0  0  0  0  0  0  0  0  0
  1  2  1  0
  2  3  2  0
  2  4  1  0
  4  5  1  0
  5  6  1  0
  6  7  1  0
  7  8  1  0
  8  9  2  0
  8 10  1  0
 10 11  1  0
 11 12  1  0
 12 13  1  0
 13 14  1  0
 13 15  1  0
 10 16  1  0
 16 17  1  0
 17 18  2  0
 18 19  1  0
 19 20  2  0
 20 21  1  0
 20 22  1  0
 17 23  1  0
 22 23  2  0
  7 24  1  0
  4 25  1  0
 24 25  1  0
M  END
