piperidine-amides-30163-covalent
     RDKit          3D

 26 28  0  0  0  0  0  0  0  0999 V2000
    7.0710   -3.3210   19.2660 C   0  0  0  0  0  0  0  0  0  0  0  0
    6.3170   -4.0560   20.2740 C   0  0  0  0  0  0  0  0  0  0  0  0
    5.3050   -4.6680   19.9320 O   0  0  0  0  0  0  0  0  0  0  0  0
    6.7680   -4.1180   21.6410 N   0  0  0  0  0  0  0  0  0  0  0  0
    6.6500   -5.3600   22.3590 C   0  0  0  0  0  0  0  0  0  0  0  0
    6.1460   -5.1200   23.7570 C   0  0  0  0  0  0  0  0  0  0  0  0
    6.0210   -3.6200   23.9650 C   0  0  0  0  0  0  0  0  0  0  0  0
    5.5460   -3.3220   25.3530 C   0  0  0  0  0  0  0  0  0  0  0  0
    4.3320   -3.3690   25.6240 O   0  0  0  0  0  0  0  0  0  0  0  0
    6.4330   -2.9820   26.4100 N   0  0  0  0  0  0  0  0  0  0  0  0
    6.2950   -3.7830   27.6100 C   0  0  0  0  0  0  0  0  0  0  0  0
    6.7450   -1.5780   26.5420 C   0  0  0  0  0  0  0  0  0  0  0  0
    5.7000   -0.6880   26.6460 C   0  0  0  0  0  0  0  0  0  0  0  0
    4.9270   -0.5540   27.7720 C   0  0  0  0  0  0  0  0  0  0  0  0
    4.0450    0.4110   27.4340 C   0  0  0  0  0  0  0  0  0  0  0  0
    4.3600    0.8130   26.0640 C   0  0  0  0  0  0  0  0  0  0  0  0
    3.7610    1.7590   25.2610 C   0  0  0  0  0  0  0  0  0  0  0  0
    4.3330    2.3510   24.1500 C   0  0  0  0  0  0  0  0  0  0  0  0
    3.6790    3.2980   23.3810 C   0  0  0  0  0  0  0  0  0  0  0  0
    2.3280    3.7220   23.7180 C   0  0  0  0  0  0  0  0  0  0  0  0
    1.5390    4.9340   22.7080 Cl  0  0  0  0  0  0  0  0  0  0  0  0
    1.7530    3.1330   24.8260 C   0  0  0  0  0  0  0  0  0  0  0  0
    2.4600    2.1810   25.5670 C   0  0  0  0  0  0  0  0  0  0  0  0
    5.3740    0.0820   25.6960 O   0  0  0  0  0  0  0  0  0  0  0  0
    7.3230   -2.9300   23.6520 C   0  0  0  0  0  0  0  0  0  0  0  0
    7.6780   -3.1180   22.1710 C   0  0  0  0  0  0  0  0  0  0  0  0
  1  2  1  0
  2  3  2  0
  2  4  1  0
  4  5  1  0
  5  6  1  0
  6  7  1  0
  7  8  1  0
  8  9  2  0
  8 10  1  0
 10 11  1  0
 10 12  1  0
 12 13  1  0
 13 14  2  0
 14 15  1  0
 15 16  2  0
 16 17  1  0
 17 18  2  0
 18 19  1  0
 19 20  2  0
 20 21  1  0
 20 22  1  0
 17 23  1  0
 22 23  2  0
 13 24  1  0
 16 24  1  0
  7 25  1  0
  4 26  1  0
 25 26  1  0
M  END
