piperidine-amides-31502-covalent
     RDKit          3D

 28 30  0  0  0  0  0  0  0  0999 V2000
    7.1130   -3.3480   19.2520 C   0  0  0  0  0  0  0  0  0  0  0  0
    6.3510   -4.0180   20.2780 C   0  0  0  0  0  0  0  0  0  0  0  0
    5.2870   -4.6090   19.9180 O   0  0  0  0  0  0  0  0  0  0  0  0
    6.7670   -4.0930   21.6210 N   0  0  0  0  0  0  0  0  0  0  0  0
    6.5820   -5.3860   22.3020 C   0  0  0  0  0  0  0  0  0  0  0  0
    5.6130   -4.9050   23.4440 C   0  0  0  0  0  0  0  0  0  0  0  0
    6.3610   -3.8400   24.2280 C   0  0  0  0  0  0  0  0  0  0  0  0
    5.4480   -3.3760   25.4550 C   0  0  0  0  0  0  0  0  0  0  0  0
    4.4260   -4.0480   25.5000 O   0  0  0  0  0  0  0  0  0  0  0  0
    5.9990   -2.4090   26.0850 N   0  0  0  0  0  0  0  0  0  0  0  0
    6.4570   -1.1590   26.3420 C   0  0  0  0  0  0  0  0  0  0  0  0
    6.2260    0.0810   25.8060 C   0  0  0  0  0  0  0  0  0  0  0  0
    5.8230    1.0840   26.7090 C   0  0  0  0  0  0  0  0  0  0  0  0
    5.5140    2.5180   26.3830 C   0  0  0  0  0  0  0  0  0  0  0  0
    5.6980    2.7810   24.8470 C   0  0  0  0  0  0  0  0  0  0  0  0
    5.4750    4.0340   24.2710 F   0  0  0  0  0  0  0  0  0  0  0  0
    6.1030    1.6650   24.1030 C   0  0  0  0  0  0  0  0  0  0  0  0
    6.3540    0.3910   24.5460 C   0  0  0  0  0  0  0  0  0  0  0  0
    6.2970   -2.8100   27.4380 C   0  0  0  0  0  0  0  0  0  0  0  0
    7.0890   -4.1230   27.4180 C   0  0  0  0  0  0  0  0  0  0  0  0
    8.1360   -4.4330   26.6550 C   0  0  0  0  0  0  0  0  0  0  0  0
    8.5330   -5.6290   26.9100 N   0  0  0  0  0  0  0  0  0  0  0  0
    9.5980   -6.1750   26.2230 C   0  0  0  0  0  0  0  0  0  0  0  0
    7.8790   -6.2940   27.8280 N   0  0  0  0  0  0  0  0  0  0  0  0
    6.9270   -5.4080   28.2070 C   0  0  0  0  0  0  0  0  0  0  0  0
    5.9770   -5.6690   29.1570 C   0  0  0  0  0  0  0  0  0  0  0  0
    6.9450   -2.6740   23.4920 C   0  0  0  0  0  0  0  0  0  0  0  0
    7.6110   -3.0820   22.2100 C   0  0  0  0  0  0  0  0  0  0  0  0
  1  2  1  0
  2  3  2  0
  2  4  1  0
  4  5  1  0
  5  6  1  0
  6  7  1  0
  7  8  1  0
  8  9  2  0
  8 10  1  0
 10 11  1  0
 11 12  1  0
 12 13  2  0
 13 14  1  0
 14 15  2  0
 15 16  1  0
 15 17  1  0
 12 18  1  0
 17 18  2  0
 10 19  1  0
 19 20  1  0
 20 21  2  0
 21 22  1  0
 22 23  1  0
 22 24  1  0
 20 25  1  0
 24 25  2  0
 25 26  1  0
  7 27  1  0
  4 28  1  0
 27 28  1  0
M  END
