piperidine-amides-1852-covalent
     RDKit          3D

 18 18  0  0  0  0  0  0  0  0999 V2000
    7.1340   -3.2980   19.2390 C   0  0  0  0  0  0  0  0  0  0  0  0
    6.3330   -4.0350   20.2480 C   0  0  0  0  0  0  0  0  0  0  0  0
    5.2550   -4.4920   19.8700 O   0  0  0  0  0  0  0  0  0  0  0  0
    6.8380   -4.2410   21.5390 N   0  0  0  0  0  0  0  0  0  0  0  0
    6.4170   -5.3700   22.3180 C   0  0  0  0  0  0  0  0  0  0  0  0
    5.6900   -4.8630   23.5290 C   0  0  0  0  0  0  0  0  0  0  0  0
    6.5140   -3.7640   24.2080 C   0  0  0  0  0  0  0  0  0  0  0  0
    5.8140   -3.3520   25.4390 C   0  0  0  0  0  0  0  0  0  0  0  0
    4.5770   -3.3150   25.4650 O   0  0  0  0  0  0  0  0  0  0  0  0
    6.5560   -2.9800   26.5740 N   0  0  0  0  0  0  0  0  0  0  0  0
    6.2480   -3.5280   27.8790 C   0  0  0  0  0  0  0  0  0  0  0  0
    6.0140   -5.0240   27.7720 C   0  0  0  0  0  0  0  0  0  0  0  0
    6.8500   -5.8560   28.4910 O   0  0  0  0  0  0  0  0  0  0  0  0
    4.8600   -5.3930   26.9310 N   0  0  0  0  0  0  0  0  0  0  0  0
    3.7370   -4.6460   27.5260 C   0  0  0  0  0  0  0  0  0  0  0  0
    4.7460   -6.8200   26.8240 C   0  0  0  0  0  0  0  0  0  0  0  0
    6.7400   -2.6100   23.2350 C   0  0  0  0  0  0  0  0  0  0  0  0
    7.5960   -3.1530   22.1220 C   0  0  0  0  0  0  0  0  0  0  0  0
  1  2  1  0
  2  3  2  0
  2  4  1  0
  4  5  1  0
  5  6  1  0
  6  7  1  0
  7  8  1  0
  8  9  2  0
  8 10  1  0
 10 11  1  0
 11 12  1  0
 12 13  2  0
 12 14  1  0
 14 15  1  0
 14 16  1  0
  7 17  1  0
  4 18  1  0
 17 18  1  0
M  END
