piperidine-amides-6420-covalent
     RDKit          3D

 25 27  0  0  0  0  0  0  0  0999 V2000
    7.0780   -3.3260   19.2840 C   0  0  0  0  0  0  0  0  0  0  0  0
    6.4010   -4.1640   20.2850 C   0  0  0  0  0  0  0  0  0  0  0  0
    5.3740   -4.8060   19.9730 O   0  0  0  0  0  0  0  0  0  0  0  0
    6.9330   -4.2930   21.5740 N   0  0  0  0  0  0  0  0  0  0  0  0
    6.5710   -5.4290   22.3860 C   0  0  0  0  0  0  0  0  0  0  0  0
    5.7060   -4.8790   23.5250 C   0  0  0  0  0  0  0  0  0  0  0  0
    6.5580   -3.8600   24.2550 C   0  0  0  0  0  0  0  0  0  0  0  0
    5.8140   -3.2590   25.3720 C   0  0  0  0  0  0  0  0  0  0  0  0
    4.5840   -3.0720   25.2530 O   0  0  0  0  0  0  0  0  0  0  0  0
    6.5180   -2.9100   26.5440 N   0  0  0  0  0  0  0  0  0  0  0  0
    6.4010   -1.6150   27.1380 C   0  0  0  0  0  0  0  0  0  0  0  0
    6.9540   -1.5460   28.5360 C   0  0  0  0  0  0  0  0  0  0  0  0
    6.9210   -0.3910   29.2700 C   0  0  0  0  0  0  0  0  0  0  0  0
    6.3690    0.7720   28.7450 C   0  0  0  0  0  0  0  0  0  0  0  0
    6.3810    1.9100   29.6100 N   0  0  0  0  0  0  0  0  0  0  0  0
    7.1530    2.0100   30.7690 C   0  0  0  0  0  0  0  0  0  0  0  0
    7.6880    3.2780   30.8630 C   0  0  0  0  0  0  0  0  0  0  0  0
    6.9910    4.3010   30.3530 O   0  0  0  0  0  0  0  0  0  0  0  0
    5.7940    4.2000   29.7480 C   0  0  0  0  0  0  0  0  0  0  0  0
    5.2550    2.7890   29.7720 C   0  0  0  0  0  0  0  0  0  0  0  0
    5.8630    0.7250   27.4600 C   0  0  0  0  0  0  0  0  0  0  0  0
    5.8650   -0.4690   26.6200 C   0  0  0  0  0  0  0  0  0  0  0  0
    5.3090   -0.3430   25.3390 C   0  0  0  0  0  0  0  0  0  0  0  0
    6.8850   -2.7130   23.3150 C   0  0  0  0  0  0  0  0  0  0  0  0
    7.7040   -3.2240   22.1700 C   0  0  0  0  0  0  0  0  0  0  0  0
  1  2  1  0
  2  3  2  0
  2  4  1  0
  4  5  1  0
  5  6  1  0
  6  7  1  0
  7  8  1  0
  8  9  2  0
  8 10  1  0
 10 11  1  0
 11 12  2  0
 12 13  1  0
 13 14  2  0
 14 15  1  0
 15 16  1  0
 16 17  1  0
 17 18  1  0
 18 19  1  0
 15 20  1  0
 19 20  1  0
 14 21  1  0
 11 22  1  0
 21 22  2  0
 22 23  1  0
  7 24  1  0
  4 25  1  0
 24 25  1  0
M  END
