piperidine-amides-716-covalent
     RDKit          3D

 26 27  0  0  0  0  0  0  0  0999 V2000
    7.0560   -3.3240   19.1950 C   0  0  0  0  0  0  0  0  0  0  0  0
    6.3110   -4.0210   20.2230 C   0  0  0  0  0  0  0  0  0  0  0  0
    5.2240   -4.5730   19.8840 O   0  0  0  0  0  0  0  0  0  0  0  0
    6.7550   -4.1700   21.5520 N   0  0  0  0  0  0  0  0  0  0  0  0
    6.5960   -5.5240   22.1450 C   0  0  0  0  0  0  0  0  0  0  0  0
    6.3000   -5.1910   23.6600 C   0  0  0  0  0  0  0  0  0  0  0  0
    5.9140   -3.7380   23.6610 C   0  0  0  0  0  0  0  0  0  0  0  0
    4.9690   -3.3570   24.8780 C   0  0  0  0  0  0  0  0  0  0  0  0
    3.9350   -2.8530   24.4690 O   0  0  0  0  0  0  0  0  0  0  0  0
    5.5020   -3.6600   25.9850 N   0  0  0  0  0  0  0  0  0  0  0  0
    5.9740   -3.8890   27.2250 C   0  0  2  0  0  0  0  0  0  0  0  0
    6.7730   -3.1720   28.0430 C   0  0  0  0  0  0  0  0  0  0  0  0
    6.5120   -3.1340   29.4090 O   0  0  0  0  0  0  0  0  0  0  0  0
    7.8020   -2.4490   27.3080 N   0  0  0  0  0  0  0  0  0  0  0  0
    7.5200   -1.6990   26.2450 C   0  0  0  0  0  0  0  0  0  0  0  0
    8.7780   -3.3340   26.9650 C   0  0  0  0  0  0  0  0  0  0  0  0
    8.4100   -3.9060   25.6120 C   0  0  0  0  0  0  0  0  0  0  0  0
    8.6090   -5.1470   26.2310 C   0  0  0  0  0  0  0  0  0  0  0  0
    9.9190   -5.6030   26.2480 C   0  0  0  0  0  0  0  0  0  0  0  0
    9.3350   -5.5640   27.6770 C   0  0  0  0  0  0  0  0  0  0  0  0
    8.8950   -4.1660   28.1440 C   0  0  0  0  0  0  0  0  0  0  0  0
    6.2760   -5.3910   27.4160 C   0  0  0  0  0  0  0  0  0  0  0  0
    6.4710   -5.7950   28.7180 C   0  0  0  0  0  0  0  0  0  0  0  0
    5.1580   -6.2560   26.9180 C   0  0  0  0  0  0  0  0  0  0  0  0
    6.9770   -2.7510   23.3110 C   0  0  0  0  0  0  0  0  0  0  0  0
    7.6220   -3.2020   22.1750 C   0  0  0  0  0  0  0  0  0  0  0  0
  1  2  1  0
  2  3  2  0
  2  4  1  0
  4  5  1  0
  5  6  1  0
  6  7  1  0
  7  8  1  0
  8  9  2  0
  8 10  1  0
 11 10  1  6
 11 12  1  0
 12 13  2  0
 12 14  1  0
 14 15  1  0
 14 16  1  0
 16 17  1  0
 17 18  1  0
 18 19  1  0
 19 20  1  0
 16 21  1  0
 20 21  1  0
 11 22  1  0
 22 23  1  0
 22 24  1  0
  7 25  1  0
  4 26  1  0
 25 26  1  0
M  END
