piperidine-amides-31056-covalent
     RDKit          3D

 26 28  0  0  0  0  0  0  0  0999 V2000
    7.0100   -3.3690   19.4510 C   0  0  0  0  0  0  0  0  0  0  0  0
    6.3560   -4.2470   20.4300 C   0  0  0  0  0  0  0  0  0  0  0  0
    5.4290   -4.9690   20.0170 O   0  0  0  0  0  0  0  0  0  0  0  0
    6.7660   -4.3280   21.7890 N   0  0  0  0  0  0  0  0  0  0  0  0
    6.6090   -5.5490   22.5650 C   0  0  0  0  0  0  0  0  0  0  0  0
    5.9620   -5.1640   23.8860 C   0  0  0  0  0  0  0  0  0  0  0  0
    5.8460   -3.6760   24.0150 C   0  0  0  0  0  0  0  0  0  0  0  0
    5.1390   -3.1300   25.2470 C   0  0  0  0  0  0  0  0  0  0  0  0
    4.3510   -2.1640   25.0920 O   0  0  0  0  0  0  0  0  0  0  0  0
    5.2390   -3.5850   26.5990 N   0  0  0  0  0  0  0  0  0  0  0  0
    4.5040   -2.9310   27.6920 C   0  0  0  0  0  0  0  0  0  0  0  0
    4.3070   -3.9080   28.8090 C   0  0  0  0  0  0  0  0  0  0  0  0
    5.4370   -4.5790   29.0880 N   0  0  0  0  0  0  0  0  0  0  0  0
    5.3450   -6.1470   29.1410 S   0  0  0  0  0  0  0  0  0  0  0  0
    6.7070   -6.6210   29.4320 O   0  0  0  0  0  0  0  0  0  0  0  0
    4.9440   -6.6070   27.7560 O   0  0  0  0  0  0  0  0  0  0  0  0
    4.1560   -6.5590   30.3940 C   0  0  0  0  0  0  0  0  0  0  0  0
    3.5200   -7.8790   30.2880 C   0  0  0  0  0  0  0  0  0  0  0  0
    2.5920   -7.9220   31.4720 C   0  0  0  0  0  0  0  0  0  0  0  0
    2.6840   -6.7550   32.1780 N   0  0  0  0  0  0  0  0  0  0  0  0
    1.9800   -6.4970   33.2830 C   0  0  0  0  0  0  0  0  0  0  0  0
    3.6700   -5.8910   31.5010 C   0  0  0  0  0  0  0  0  0  0  0  0
    6.5900   -3.8960   28.5900 C   0  0  0  0  0  0  0  0  0  0  0  0
    6.3850   -4.0330   27.1090 C   0  0  0  0  0  0  0  0  0  0  0  0
    7.1480   -2.9630   23.7650 C   0  0  0  0  0  0  0  0  0  0  0  0
    7.6340   -3.3020   22.3630 C   0  0  0  0  0  0  0  0  0  0  0  0
  1  2  1  0
  2  3  2  0
  2  4  1  0
  4  5  1  0
  5  6  1  0
  6  7  1  0
  7  8  1  0
  8  9  2  0
  8 10  1  0
 10 11  1  0
 11 12  1  0
 12 13  1  0
 13 14  1  0
 14 15  2  0
 14 16  2  0
 14 17  1  0
 17 18  1  0
 18 19  2  0
 19 20  1  0
 20 21  1  0
 17 22  2  0
 20 22  1  0
 13 23  1  0
 10 24  1  0
 23 24  1  0
  7 25  1  0
  4 26  1  0
 25 26  1  0
M  END
