piperidine-amides-29244-covalent
     RDKit          3D

 26 27  0  0  0  0  0  0  0  0999 V2000
    7.0670   -3.2720   19.2430 C   0  0  0  0  0  0  0  0  0  0  0  0
    6.3230   -4.0520   20.2340 C   0  0  0  0  0  0  0  0  0  0  0  0
    5.2610   -4.5860   19.8860 O   0  0  0  0  0  0  0  0  0  0  0  0
    6.8330   -4.2210   21.5410 N   0  0  0  0  0  0  0  0  0  0  0  0
    6.5460   -5.4540   22.2320 C   0  0  0  0  0  0  0  0  0  0  0  0
    5.7520   -5.1950   23.4890 C   0  0  0  0  0  0  0  0  0  0  0  0
    5.8720   -3.7250   23.8210 C   0  0  0  0  0  0  0  0  0  0  0  0
    5.4160   -3.4300   25.2210 C   0  0  0  0  0  0  0  0  0  0  0  0
    4.2010   -3.3590   25.3730 O   0  0  0  0  0  0  0  0  0  0  0  0
    6.3520   -3.2510   26.2350 N   0  0  0  0  0  0  0  0  0  0  0  0
    6.7270   -4.3170   27.1210 C   0  0  0  0  0  0  0  0  0  0  0  0
    5.8250   -5.3460   27.3350 C   0  0  0  0  0  0  0  0  0  0  0  0
    5.7030   -5.3740   28.8050 N   0  0  0  0  0  0  0  0  0  0  0  0
    4.5660   -5.6960   29.5680 C   0  0  0  0  0  0  0  0  0  0  0  0
    4.8710   -5.9090   30.8910 O   0  0  0  0  0  0  0  0  0  0  0  0
    3.2730   -5.8130   29.0570 O   0  0  0  0  0  0  0  0  0  0  0  0
    2.9000   -7.1240   28.6270 C   0  0  0  0  0  0  0  0  0  0  0  0
    1.4580   -7.3890   28.3440 C   0  0  0  0  0  0  0  0  0  0  0  0
    3.4760   -7.9440   29.5570 C   0  0  0  0  0  0  0  0  0  0  0  0
    3.7090   -7.3320   27.5010 C   0  0  0  0  0  0  0  0  0  0  0  0
    6.6210   -1.8890   26.6740 C   0  0  0  0  0  0  0  0  0  0  0  0
    5.3340   -1.0390   26.5540 C   0  0  0  0  0  0  0  0  0  0  0  0
    5.1830   -0.2520   25.6210 C   0  0  0  0  0  0  0  0  0  0  0  0
    5.3750    0.3990   26.8560 C   0  0  0  0  0  0  0  0  0  0  0  0
    7.2520   -3.2400   23.6290 C   0  0  0  0  0  0  0  0  0  0  0  0
    7.5970   -3.1930   22.1840 C   0  0  0  0  0  0  0  0  0  0  0  0
  1  2  1  0
  2  3  2  0
  2  4  1  0
  4  5  1  0
  5  6  1  0
  6  7  1  0
  7  8  1  0
  8  9  2  0
  8 10  1  0
 10 11  1  0
 11 12  1  0
 12 13  1  0
 13 14  1  0
 14 15  2  0
 14 16  1  0
 17 16  1  0
 17 18  1  0
 17 19  1  0
 17 20  1  0
 10 21  1  0
 21 22  1  0
 22 23  1  0
 22 24  1  0
 23 24  1  0
  7 25  1  0
  4 26  1  0
 25 26  1  0
M  END
