piperidine-amides-24266-covalent
     RDKit          3D

 23 24  0  0  0  0  0  0  0  0999 V2000
    7.1260   -3.3380   19.3310 C   0  0  0  0  0  0  0  0  0  0  0  0
    6.4360   -4.1920   20.3050 C   0  0  0  0  0  0  0  0  0  0  0  0
    5.4000   -4.8130   19.9790 O   0  0  0  0  0  0  0  0  0  0  0  0
    6.9720   -4.3570   21.5900 N   0  0  0  0  0  0  0  0  0  0  0  0
    7.7460   -3.2770   22.1500 C   0  0  0  0  0  0  0  0  0  0  0  0
    6.8570   -2.6870   23.2280 C   0  0  0  0  0  0  0  0  0  0  0  0
    6.5640   -3.8210   24.1800 C   0  0  0  0  0  0  0  0  0  0  0  0
    5.7610   -3.2670   25.2760 C   0  0  0  0  0  0  0  0  0  0  0  0
    4.5380   -3.0890   25.1020 O   0  0  0  0  0  0  0  0  0  0  0  0
    6.4000   -2.9470   26.4820 N   0  0  0  0  0  0  0  0  0  0  0  0
    6.3060   -3.8670   27.5840 C   0  0  0  0  0  0  0  0  0  0  0  0
    7.1740   -5.0500   27.2120 C   0  0  0  0  0  0  0  0  0  0  0  0
    7.9460   -6.1260   27.4910 C   0  0  0  0  0  0  0  0  0  0  0  0
    7.1560   -5.1230   28.7210 C   0  0  0  0  0  0  0  0  0  0  0  0
    6.4890   -1.7700   27.3470 C   0  0  0  0  0  0  0  0  0  0  0  0
    5.9050   -0.7720   26.6880 C   0  0  0  0  0  0  0  0  0  0  0  0
    5.7310    0.6550   27.1490 C   0  0  0  0  0  0  0  0  0  0  0  0
    6.4150    0.5700   28.5490 C   0  0  0  0  0  0  0  0  0  0  0  0
    6.3620    2.1430   29.3590 Cl  0  0  0  0  0  0  0  0  0  0  0  0
    7.1180   -0.5000   29.4110 C   0  0  0  0  0  0  0  0  0  0  0  0
    7.0370   -1.6680   28.5620 C   0  0  0  0  0  0  0  0  0  0  0  0
    5.7570   -4.8950   23.4880 C   0  0  0  0  0  0  0  0  0  0  0  0
    6.4530   -5.3890   22.4160 C   0  0  0  0  0  0  0  0  0  0  0  0
  1  2  1  0
  2  3  2  0
  2  4  1  0
  4  5  1  0
  5  6  1  0
  6  7  1  0
  7  8  1  0
  8  9  2  0
  8 10  1  0
 10 11  1  0
 11 12  1  0
 12 13  2  3
 12 14  1  0
 10 15  1  0
 15 16  2  0
 16 17  1  0
 17 18  2  0
 18 19  1  0
 18 20  1  0
 15 21  1  0
 20 21  2  0
  7 22  1  0
  4 23  1  0
 22 23  1  0
M  END
