piperidine-amides-17091-covalent
     RDKit          3D

 20 21  0  0  0  0  0  0  0  0999 V2000
    7.1070   -3.3310   19.3040 C   0  0  0  0  0  0  0  0  0  0  0  0
    6.4260   -4.1710   20.2990 C   0  0  0  0  0  0  0  0  0  0  0  0
    5.3490   -4.7120   19.9470 O   0  0  0  0  0  0  0  0  0  0  0  0
    7.0040   -4.4120   21.5690 N   0  0  0  0  0  0  0  0  0  0  0  0
    6.5270   -5.5170   22.3140 C   0  0  0  0  0  0  0  0  0  0  0  0
    5.9190   -5.1500   23.5880 C   0  0  0  0  0  0  0  0  0  0  0  0
    6.4990   -3.9780   24.2840 C   0  0  0  0  0  0  0  0  0  0  0  0
    5.5730   -3.5500   25.3810 C   0  0  0  0  0  0  0  0  0  0  0  0
    4.6790   -2.7170   25.1560 O   0  0  0  0  0  0  0  0  0  0  0  0
    5.7120   -4.0970   26.6630 N   0  0  0  0  0  0  0  0  0  0  0  0
    6.9020   -4.5790   27.1330 C   0  0  0  0  0  0  0  0  0  0  0  0
    6.9690   -5.6800   28.0390 C   0  0  0  0  0  0  0  0  0  0  0  0
    6.1280   -5.1310   29.1800 C   0  0  0  0  0  0  0  0  0  0  0  0
    4.8770   -4.7220   28.7670 C   0  0  1  0  0  0  0  0  0  0  0  0
    4.1290   -4.2070   29.8080 O   0  0  0  0  0  0  0  0  0  0  0  0
    3.4010   -5.1770   30.4800 C   0  0  0  0  0  0  0  0  0  0  0  0
    3.2160   -4.7090   31.8870 C   0  0  0  0  0  0  0  0  0  0  0  0
    4.8910   -3.6270   27.7440 C   0  0  0  0  0  0  0  0  0  0  0  0
    6.8600   -2.8250   23.3770 C   0  0  0  0  0  0  0  0  0  0  0  0
    7.7260   -3.3660   22.2620 C   0  0  0  0  0  0  0  0  0  0  0  0
  1  2  1  0
  2  3  2  0
  2  4  1  0
  4  5  1  0
  5  6  1  0
  6  7  1  0
  7  8  1  0
  8  9  2  0
  8 10  1  0
 10 11  1  0
 11 12  1  0
 12 13  1  0
 13 14  1  0
 14 15  1  1
 15 16  1  0
 16 17  1  0
 10 18  1  0
 14 18  1  0
  7 19  1  0
  4 20  1  0
 19 20  1  0
M  END
