piperidine-amides-4022-covalent
     RDKit          3D

 28 30  0  0  0  0  0  0  0  0999 V2000
    7.1250   -3.3080   19.2300 C   0  0  0  0  0  0  0  0  0  0  0  0
    6.3260   -4.0400   20.2210 C   0  0  0  0  0  0  0  0  0  0  0  0
    5.2210   -4.4890   19.8480 O   0  0  0  0  0  0  0  0  0  0  0  0
    6.8220   -4.2830   21.5160 N   0  0  0  0  0  0  0  0  0  0  0  0
    7.5720   -3.2550   22.1340 C   0  0  0  0  0  0  0  0  0  0  0  0
    7.2410   -3.1430   23.5250 C   0  0  0  0  0  0  0  0  0  0  0  0
    5.9020   -3.6260   23.8460 C   0  0  0  0  0  0  0  0  0  0  0  0
    5.6560   -3.4870   25.3110 C   0  0  0  0  0  0  0  0  0  0  0  0
    4.5930   -2.9630   25.6980 O   0  0  0  0  0  0  0  0  0  0  0  0
    6.5940   -3.9360   26.2600 N   0  0  0  0  0  0  0  0  0  0  0  0
    6.3380   -4.5190   27.5210 C   0  0  1  0  0  0  0  0  0  0  0  0
    7.3310   -5.3370   28.2240 C   0  0  0  0  0  0  0  0  0  0  0  0
    5.9280   -3.4210   28.4740 C   0  0  0  0  0  0  0  0  0  0  0  0
    6.5620   -2.1740   28.4310 C   0  0  0  0  0  0  0  0  0  0  0  0
    6.0860   -1.0910   29.4410 C   0  0  0  0  0  0  0  0  0  0  0  0
    4.9780   -1.5440   30.3410 C   0  0  0  0  0  0  0  0  0  0  0  0
    4.5320   -0.6440   31.2280 N   0  0  0  0  0  0  0  0  0  0  0  0
    4.8720    0.6460   31.1080 C   0  0  0  0  0  0  0  0  0  0  0  0
    3.9790    1.6200   31.8410 C   0  0  0  0  0  0  0  0  0  0  0  0
    4.2130    1.4840   33.1760 N   0  0  0  0  0  0  0  0  0  0  0  0
    4.2350    2.6840   34.0630 C   0  0  0  0  0  0  0  0  0  0  0  0
    4.3080    0.0470   33.4260 C   0  0  0  0  0  0  0  0  0  0  0  0
    3.9230   -0.9370   32.3740 C   0  0  0  0  0  0  0  0  0  0  0  0
    4.4550   -2.8160   30.2510 C   0  0  0  0  0  0  0  0  0  0  0  0
    3.4160   -3.1690   31.1250 F   0  0  0  0  0  0  0  0  0  0  0  0
    4.9270   -3.7030   29.3500 C   0  0  0  0  0  0  0  0  0  0  0  0
    5.6940   -5.0500   23.4200 C   0  0  0  0  0  0  0  0  0  0  0  0
    6.4410   -5.4350   22.2990 C   0  0  0  0  0  0  0  0  0  0  0  0
  1  2  1  0
  2  3  2  0
  2  4  1  0
  4  5  1  0
  5  6  1  0
  6  7  1  0
  7  8  1  0
  8  9  2  0
  8 10  1  0
 10 11  1  0
 11 12  1  1
 11 13  1  0
 13 14  2  0
 14 15  1  0
 15 16  2  0
 16 17  1  0
 17 18  1  0
 18 19  1  0
 19 20  1  0
 20 21  1  0
 20 22  1  0
 17 23  1  0
 22 23  1  0
 16 24  1  0
 24 25  1  0
 13 26  1  0
 24 26  2  0
  7 27  1  0
  4 28  1  0
 27 28  1  0
M  END
