piperidine-amides-5418-covalent
     RDKit          3D

 20 21  0  0  0  0  0  0  0  0999 V2000
    7.0350   -3.3400   19.3200 C   0  0  0  0  0  0  0  0  0  0  0  0
    6.3540   -4.1560   20.3260 C   0  0  0  0  0  0  0  0  0  0  0  0
    5.3790   -4.8430   19.9820 O   0  0  0  0  0  0  0  0  0  0  0  0
    6.8110   -4.2080   21.6560 N   0  0  0  0  0  0  0  0  0  0  0  0
    7.6530   -3.1720   22.2140 C   0  0  0  0  0  0  0  0  0  0  0  0
    6.8740   -2.5900   23.3590 C   0  0  0  0  0  0  0  0  0  0  0  0
    6.5000   -3.6550   24.3440 C   0  0  0  0  0  0  0  0  0  0  0  0
    5.6550   -3.1330   25.4840 C   0  0  0  0  0  0  0  0  0  0  0  0
    4.4010   -3.3580   25.4740 O   0  0  0  0  0  0  0  0  0  0  0  0
    6.1160   -2.3670   26.6390 N   0  0  0  0  0  0  0  0  0  0  0  0
    6.4340   -0.9040   26.4970 C   0  0  0  0  0  0  0  0  0  0  0  0
    7.1980   -1.8610   25.9560 C   0  0  0  0  0  0  0  0  0  0  0  0
    6.4070   -2.7980   26.4670 N   0  0  0  0  0  0  0  0  0  0  0  0
    5.3400   -2.2750   27.2000 N   0  0  0  0  0  0  0  0  0  0  0  0
    4.3360   -3.1500   27.8590 C   0  0  0  0  0  0  0  0  0  0  0  0
    4.5920   -3.2470   29.2040 F   0  0  0  0  0  0  0  0  0  0  0  0
    3.0400   -2.6500   27.7130 F   0  0  0  0  0  0  0  0  0  0  0  0
    5.2250   -0.8420   27.3120 C   0  0  0  0  0  0  0  0  0  0  0  0
    5.9310   -4.9100   23.7460 C   0  0  0  0  0  0  0  0  0  0  0  0
    6.6010   -5.3530   22.4930 C   0  0  0  0  0  0  0  0  0  0  0  0
  1  2  1  0
  2  3  2  0
  2  4  1  0
  4  5  1  0
  5  6  1  0
  6  7  1  0
  7  8  1  0
  8  9  2  0
  8 10  1  0
 10 11  1  0
 11 12  1  0
 12 13  2  0
 13 14  1  0
 14 15  1  0
 15 16  1  0
 15 17  1  0
 11 18  2  0
 14 18  1  0
  7 19  1  0
  4 20  1  0
 19 20  1  0
M  END
