piperidine-amides-11802-covalent
     RDKit          3D

 27 29  0  0  0  0  0  0  0  0999 V2000
    7.0540   -3.3380   19.2670 C   0  0  0  0  0  0  0  0  0  0  0  0
    6.3370   -4.1390   20.2470 C   0  0  0  0  0  0  0  0  0  0  0  0
    5.3010   -4.7190   19.9380 O   0  0  0  0  0  0  0  0  0  0  0  0
    6.8730   -4.3040   21.5620 N   0  0  0  0  0  0  0  0  0  0  0  0
    7.6000   -3.2240   22.1840 C   0  0  0  0  0  0  0  0  0  0  0  0
    6.7900   -2.6620   23.3100 C   0  0  0  0  0  0  0  0  0  0  0  0
    6.5210   -3.8130   24.2430 C   0  0  0  0  0  0  0  0  0  0  0  0
    5.7500   -3.3590   25.4340 C   0  0  0  0  0  0  0  0  0  0  0  0
    4.5030   -3.2620   25.4740 O   0  0  0  0  0  0  0  0  0  0  0  0
    6.4950   -3.0390   26.5840 N   0  0  0  0  0  0  0  0  0  0  0  0
    6.4160   -1.7310   27.2010 C   0  0  0  0  0  0  0  0  0  0  0  0
    7.0460   -1.4740   28.5320 C   0  0  0  0  0  0  0  0  0  0  0  0
    6.9730   -0.2420   29.1310 C   0  0  0  0  0  0  0  0  0  0  0  0
    6.2930    0.8020   28.4860 C   0  0  0  0  0  0  0  0  0  0  0  0
    5.6510    0.7100   27.2350 C   0  0  0  0  0  0  0  0  0  0  0  0
    5.6920   -0.5770   26.5370 C   0  0  0  0  0  0  0  0  0  0  0  0
    5.0170    1.8920   26.7920 N   0  0  0  0  0  0  0  0  0  0  0  0
    4.2490    1.8710   25.5670 C   0  0  0  0  0  0  0  0  0  0  0  0
    3.0220    2.3330   25.5590 O   0  0  0  0  0  0  0  0  0  0  0  0
    4.7650    1.3800   24.3750 O   0  0  0  0  0  0  0  0  0  0  0  0
    3.9030    1.2930   23.2570 C   0  0  0  0  0  0  0  0  0  0  0  0
    4.2860    0.1790   22.5100 C   0  0  0  0  0  0  0  0  0  0  0  0
    4.6430    2.5470   27.8750 C   0  0  0  0  0  0  0  0  0  0  0  0
    4.9900    1.9600   29.0760 C   0  0  0  0  0  0  0  0  0  0  0  0
    6.3550    2.0930   29.3370 C   0  0  0  0  0  0  0  0  0  0  0  0
    5.7640   -4.9330   23.5630 C   0  0  0  0  0  0  0  0  0  0  0  0
    6.5470   -5.4540   22.3530 C   0  0  0  0  0  0  0  0  0  0  0  0
  1  2  1  0
  2  3  2  0
  2  4  1  0
  4  5  1  0
  5  6  1  0
  6  7  1  0
  7  8  1  0
  8  9  2  0
  8 10  1  0
 10 11  1  0
 11 12  2  0
 12 13  1  0
 13 14  2  0
 14 15  1  0
 11 16  1  0
 15 16  2  0
 15 17  1  0
 17 18  1  0
 18 19  2  0
 18 20  1  0
 20 21  1  0
 21 22  1  0
 17 23  1  0
 23 24  1  0
 14 25  1  0
 24 25  1  0
  7 26  1  0
  4 27  1  0
 26 27  1  0
M  END
