piperidine-amides-24477-covalent
     RDKit          3D

 24 25  0  0  0  0  0  0  0  0999 V2000
    7.1150   -3.3020   19.2960 C   0  0  0  0  0  0  0  0  0  0  0  0
    6.3700   -4.0970   20.2830 C   0  0  0  0  0  0  0  0  0  0  0  0
    5.3370   -4.7120   19.9450 O   0  0  0  0  0  0  0  0  0  0  0  0
    6.8440   -4.2090   21.5950 N   0  0  0  0  0  0  0  0  0  0  0  0
    7.6270   -3.1450   22.1810 C   0  0  0  0  0  0  0  0  0  0  0  0
    6.7660   -2.5570   23.2980 C   0  0  0  0  0  0  0  0  0  0  0  0
    6.4920   -3.6960   24.2520 C   0  0  0  0  0  0  0  0  0  0  0  0
    5.5610   -3.2190   25.3050 C   0  0  0  0  0  0  0  0  0  0  0  0
    4.3790   -3.0020   24.9730 O   0  0  0  0  0  0  0  0  0  0  0  0
    5.9880   -3.0140   26.6450 N   0  0  0  0  0  0  0  0  0  0  0  0
    6.6040   -1.7640   26.9970 C   0  0  0  0  0  0  0  0  0  0  0  0
    6.2070   -4.1680   27.4940 C   0  0  0  0  0  0  0  0  0  0  0  0
    5.1330   -4.4650   28.2720 C   0  0  0  0  0  0  0  0  0  0  0  0
    3.9540   -3.7750   28.3730 C   0  0  0  0  0  0  0  0  0  0  0  0
    2.9920   -4.3340   29.2730 N   0  0  0  0  0  0  0  0  0  0  0  0
    1.7310   -3.8010   29.4290 C   0  0  0  0  0  0  0  0  0  0  0  0
    3.3690   -5.5190   29.9840 C   0  0  0  0  0  0  0  0  0  0  0  0
    2.9850   -5.8310   31.2420 O   0  0  0  0  0  0  0  0  0  0  0  0
    4.1610   -6.3090   29.2520 N   0  0  0  0  0  0  0  0  0  0  0  0
    4.1340   -7.5540   29.7690 C   0  0  0  0  0  0  0  0  0  0  0  0
    5.3820   -5.6010   28.9710 C   0  0  0  0  0  0  0  0  0  0  0  0
    6.5460   -5.9820   29.3280 O   0  0  0  0  0  0  0  0  0  0  0  0
    5.8780   -4.9000   23.6320 C   0  0  0  0  0  0  0  0  0  0  0  0
    6.5210   -5.3390   22.3890 C   0  0  0  0  0  0  0  0  0  0  0  0
  1  2  1  0
  2  3  2  0
  2  4  1  0
  4  5  1  0
  5  6  1  0
  6  7  1  0
  7  8  1  0
  8  9  2  0
  8 10  1  0
 10 11  1  0
 10 12  1  0
 12 13  1  0
 13 14  2  0
 14 15  1  0
 15 16  1  0
 15 17  1  0
 17 18  2  0
 17 19  1  0
 19 20  1  0
 13 21  1  0
 19 21  1  0
 21 22  2  0
  7 23  1  0
  4 24  1  0
 23 24  1  0
M  END
