piperidine-amides-11175-covalent
     RDKit          3D

 20 20  0  0  0  0  0  0  0  0999 V2000
    7.0350   -3.2620   19.1890 C   0  0  0  0  0  0  0  0  0  0  0  0
    6.3020   -4.0320   20.2020 C   0  0  0  0  0  0  0  0  0  0  0  0
    5.2530   -4.6060   19.8850 O   0  0  0  0  0  0  0  0  0  0  0  0
    6.7740   -4.1760   21.5070 N   0  0  0  0  0  0  0  0  0  0  0  0
    7.7620   -3.3020   22.0950 C   0  0  0  0  0  0  0  0  0  0  0  0
    7.1560   -2.8150   23.3790 C   0  0  0  0  0  0  0  0  0  0  0  0
    6.7490   -3.9540   24.2630 C   0  0  0  0  0  0  0  0  0  0  0  0
    6.1490   -3.4570   25.5220 C   0  0  0  0  0  0  0  0  0  0  0  0
    4.8980   -3.2400   25.6040 O   0  0  0  0  0  0  0  0  0  0  0  0
    6.9430   -3.1960   26.6640 N   0  0  0  0  0  0  0  0  0  0  0  0
    7.5380   -4.3100   27.4450 C   0  0  0  0  0  0  0  0  0  0  0  0
    8.9680   -4.4550   27.0710 C   0  0  0  0  0  0  0  0  0  0  0  0
    9.5680   -3.5420   26.0690 C   0  0  0  0  0  0  0  0  0  0  0  0
   10.8730   -4.0620   25.5170 C   0  0  0  0  0  0  0  0  0  0  0  0
   11.0790   -3.3210   24.3630 O   0  0  0  0  0  0  0  0  0  0  0  0
   12.0880   -2.3720   24.4450 C   0  0  0  0  0  0  0  0  0  0  0  0
   13.2800   -2.9710   25.0960 C   0  0  0  0  0  0  0  0  0  0  0  0
   12.6810   -1.7490   23.1640 C   0  0  0  0  0  0  0  0  0  0  0  0
    5.7990   -4.8920   23.5590 C   0  0  0  0  0  0  0  0  0  0  0  0
    6.4220   -5.3620   22.2640 C   0  0  0  0  0  0  0  0  0  0  0  0
  1  2  1  0
  2  3  2  0
  2  4  1  0
  4  5  1  0
  5  6  1  0
  6  7  1  0
  7  8  1  0
  8  9  2  0
  8 10  1  0
 10 11  1  0
 11 12  1  0
 12 13  1  0
 13 14  1  0
 14 15  1  0
 15 16  1  0
 16 17  1  0
 16 18  1  0
  7 19  1  0
  4 20  1  0
 19 20  1  0
M  END
