piperidine-amides-30821-covalent
     RDKit          3D

 26 28  0  0  0  0  0  0  0  0999 V2000
    7.0300   -3.3740   19.4190 C   0  0  0  0  0  0  0  0  0  0  0  0
    6.3810   -4.2470   20.4000 C   0  0  0  0  0  0  0  0  0  0  0  0
    5.4150   -4.9310   20.0110 O   0  0  0  0  0  0  0  0  0  0  0  0
    6.8440   -4.3700   21.7330 N   0  0  0  0  0  0  0  0  0  0  0  0
    6.6610   -5.6030   22.4930 C   0  0  0  0  0  0  0  0  0  0  0  0
    5.9810   -5.2410   23.8040 C   0  0  0  0  0  0  0  0  0  0  0  0
    5.8200   -3.7600   23.9130 C   0  0  0  0  0  0  0  0  0  0  0  0
    5.1240   -3.2450   25.1430 C   0  0  0  0  0  0  0  0  0  0  0  0
    4.1800   -2.4250   24.9970 O   0  0  0  0  0  0  0  0  0  0  0  0
    5.3960   -3.5730   26.4900 N   0  0  0  0  0  0  0  0  0  0  0  0
    6.6260   -3.1520   27.0500 C   0  0  0  0  0  0  0  0  0  0  0  0
    6.6890   -4.1180   28.1600 C   0  0  0  0  0  0  0  0  0  0  0  0
    5.3070   -4.4060   28.5320 C   0  0  0  0  0  0  0  0  0  0  0  0
    4.3900   -3.8560   27.4550 C   0  0  1  0  0  0  0  0  0  0  0  0
    3.5860   -2.6930   28.0050 C   0  0  0  0  0  0  0  0  0  0  0  0
    3.4200   -5.0010   27.1290 C   0  0  0  0  0  0  0  0  0  0  0  0
    2.4520   -5.0220   28.1000 C   0  0  0  0  0  0  0  0  0  0  0  0
    2.5750   -5.8300   29.2820 C   0  0  0  0  0  0  0  0  0  0  0  0
    1.5430   -5.9070   30.4150 C   0  0  0  0  0  0  0  0  0  0  0  0
    0.3100   -5.0500   30.2440 C   0  0  0  0  0  0  0  0  0  0  0  0
   -1.0430   -4.9120   31.3480 Cl  0  0  0  0  0  0  0  0  0  0  0  0
    0.5360   -4.3860   28.9500 C   0  0  0  0  0  0  0  0  0  0  0  0
   -0.5150   -3.5780   28.6730 F   0  0  0  0  0  0  0  0  0  0  0  0
    1.2770   -4.2680   28.0360 C   0  0  0  0  0  0  0  0  0  0  0  0
    7.0440   -3.0090   23.6030 C   0  0  0  0  0  0  0  0  0  0  0  0
    7.5980   -3.3180   22.3780 C   0  0  0  0  0  0  0  0  0  0  0  0
  1  2  1  0
  2  3  2  0
  2  4  1  0
  4  5  1  0
  5  6  1  0
  6  7  1  0
  7  8  1  0
  8  9  2  0
  8 10  1  0
 10 11  1  0
 11 12  1  0
 12 13  1  0
 10 14  1  0
 13 14  1  0
 14 15  1  1
 14 16  1  0
 16 17  1  0
 17 18  2  0
 18 19  1  0
 19 20  2  0
 20 21  1  0
 20 22  1  0
 22 23  1  0
 17 24  1  0
 22 24  2  0
  7 25  1  0
  4 26  1  0
 25 26  1  0
M  END
