piperidine-amides-14665-covalent
     RDKit          3D

 23 24  0  0  0  0  0  0  0  0999 V2000
    7.0010   -3.2370   19.2110 C   0  0  0  0  0  0  0  0  0  0  0  0
    6.2470   -3.9400   20.2610 C   0  0  0  0  0  0  0  0  0  0  0  0
    5.3260   -4.6950   19.9160 O   0  0  0  0  0  0  0  0  0  0  0  0
    6.5620   -3.7820   21.6320 N   0  0  0  0  0  0  0  0  0  0  0  0
    7.4490   -2.7420   22.0390 C   0  0  0  0  0  0  0  0  0  0  0  0
    7.2910   -2.5700   23.5170 C   0  0  0  0  0  0  0  0  0  0  0  0
    5.8880   -3.0240   23.8730 C   0  0  0  0  0  0  0  0  0  0  0  0
    5.5870   -2.8220   25.3520 C   0  0  0  0  0  0  0  0  0  0  0  0
    4.7200   -3.5620   25.8170 O   0  0  0  0  0  0  0  0  0  0  0  0
    6.2730   -1.8170   26.0810 N   0  0  0  0  0  0  0  0  0  0  0  0
    6.4050   -1.8070   27.5250 C   0  0  0  0  0  0  0  0  0  0  0  0
    7.5800   -2.4120   27.9340 C   0  0  2  0  0  0  0  0  0  0  0  0
    8.6010   -1.7090   27.9880 O   0  0  0  0  0  0  0  0  0  0  0  0
    8.6460   -0.7440   28.9460 C   0  0  0  0  0  0  0  0  0  0  0  0
    7.7460   -3.3580   26.8970 C   0  0  0  0  0  0  0  0  0  0  0  0
    8.4830   -3.1390   25.6310 C   0  0  0  0  0  0  0  0  0  0  0  0
    8.5730   -4.1820   24.5140 C   0  0  0  0  0  0  0  0  0  0  0  0
    7.8560   -5.4620   24.7770 C   0  0  0  0  0  0  0  0  0  0  0  0
    7.9420   -6.3490   23.7200 F   0  0  0  0  0  0  0  0  0  0  0  0
    7.1390   -5.6400   26.0940 C   0  0  0  0  0  0  0  0  0  0  0  0
    7.1230   -4.5420   27.1180 C   0  0  0  0  0  0  0  0  0  0  0  0
    5.6480   -4.5060   23.5660 C   0  0  0  0  0  0  0  0  0  0  0  0
    6.4670   -4.9110   22.5120 C   0  0  0  0  0  0  0  0  0  0  0  0
  1  2  1  0
  2  3  2  0
  2  4  1  0
  4  5  1  0
  5  6  1  0
  6  7  1  0
  7  8  1  0
  8  9  2  0
  8 10  1  0
 10 11  1  0
 12 11  1  6
 12 13  1  0
 13 14  1  0
 12 15  1  0
 15 16  2  0
 16 17  1  0
 17 18  2  0
 18 19  1  0
 18 20  1  0
 15 21  1  0
 20 21  2  0
  7 22  1  0
  4 23  1  0
 22 23  1  0
M  END
