piperidine-amides-8545-covalent
     RDKit          3D

 23 24  0  0  0  0  0  0  0  0999 V2000
    7.0720   -3.3010   19.2880 C   0  0  0  0  0  0  0  0  0  0  0  0
    6.3980   -4.1220   20.2910 C   0  0  0  0  0  0  0  0  0  0  0  0
    5.3630   -4.7270   19.9510 O   0  0  0  0  0  0  0  0  0  0  0  0
    6.9460   -4.2560   21.5920 N   0  0  0  0  0  0  0  0  0  0  0  0
    7.6650   -3.1420   22.1610 C   0  0  0  0  0  0  0  0  0  0  0  0
    7.4580   -3.0870   23.6500 C   0  0  0  0  0  0  0  0  0  0  0  0
    6.0530   -3.5780   23.9190 C   0  0  0  0  0  0  0  0  0  0  0  0
    5.5960   -3.2660   25.3120 C   0  0  0  0  0  0  0  0  0  0  0  0
    4.3840   -3.1420   25.4600 O   0  0  0  0  0  0  0  0  0  0  0  0
    6.5400   -3.1300   26.3220 N   0  0  0  0  0  0  0  0  0  0  0  0
    6.2690   -3.4910   27.6810 C   0  0  0  0  0  0  0  0  0  0  0  0
    5.9070   -4.8300   27.9180 C   0  0  0  0  0  0  0  0  0  0  0  0
    5.5280   -5.1870   29.1880 C   0  0  1  0  0  0  0  0  0  0  0  0
    4.2660   -5.1220   29.7310 C   0  0  0  0  0  0  0  0  0  0  0  0
    4.3880   -6.5890   29.5940 C   0  0  2  0  0  0  0  0  0  0  0  0
    4.1480   -7.1700   30.8190 O   0  0  0  0  0  0  0  0  0  0  0  0
    2.7860   -7.4390   30.9750 C   0  0  0  0  0  0  0  0  0  0  0  0
    2.1690   -8.1660   29.8390 C   0  0  0  0  0  0  0  0  0  0  0  0
    2.7480   -8.3610   32.1690 C   0  0  0  0  0  0  0  0  0  0  0  0
    2.0180   -6.3540   31.3960 C   0  0  0  0  0  0  0  0  0  0  0  0
    5.7490   -6.6730   28.9160 C   0  0  0  0  0  0  0  0  0  0  0  0
    6.0840   -5.0620   23.7110 C   0  0  0  0  0  0  0  0  0  0  0  0
    6.5750   -5.4300   22.3410 C   0  0  0  0  0  0  0  0  0  0  0  0
  1  2  1  0
  2  3  2  0
  2  4  1  0
  4  5  1  0
  5  6  1  0
  6  7  1  0
  7  8  1  0
  8  9  2  0
  8 10  1  0
 10 11  1  0
 11 12  1  0
 13 12  1  6
 13 14  1  0
 14 15  1  0
 15 16  1  1
 17 16  1  0
 17 18  1  0
 17 19  1  0
 17 20  1  0
 13 21  1  0
 15 21  1  0
  7 22  1  0
  4 23  1  0
 22 23  1  0
M  END
