piperidine-amides-31032-covalent
     RDKit          3D

 27 29  0  0  0  0  0  0  0  0999 V2000
    7.0770   -3.3810   19.3560 C   0  0  0  0  0  0  0  0  0  0  0  0
    6.3910   -4.1960   20.3570 C   0  0  0  0  0  0  0  0  0  0  0  0
    5.4100   -4.8780   20.0020 O   0  0  0  0  0  0  0  0  0  0  0  0
    6.8580   -4.2460   21.6900 N   0  0  0  0  0  0  0  0  0  0  0  0
    7.7130   -3.1890   22.2110 C   0  0  0  0  0  0  0  0  0  0  0  0
    7.5780   -3.1870   23.7120 C   0  0  0  0  0  0  0  0  0  0  0  0
    6.2480   -3.7350   24.1350 C   0  0  0  0  0  0  0  0  0  0  0  0
    5.7660   -3.3020   25.4840 C   0  0  0  0  0  0  0  0  0  0  0  0
    4.7950   -2.4930   25.5340 O   0  0  0  0  0  0  0  0  0  0  0  0
    6.2710   -3.7220   26.7480 N   0  0  0  0  0  0  0  0  0  0  0  0
    6.1760   -2.8340   27.9080 C   0  0  0  0  0  0  0  0  0  0  0  0
    5.6550   -3.8260   28.8650 C   0  0  0  0  0  0  0  0  0  0  0  0
    4.7720   -4.7600   28.1430 C   0  0  2  0  0  0  0  0  0  0  0  0
    3.9540   -4.0050   27.5930 O   0  0  0  0  0  0  0  0  0  0  0  0
    4.2450   -5.9320   28.9580 C   0  0  0  0  0  0  0  0  0  0  0  0
    2.7630   -6.2360   28.7730 C   0  0  0  0  0  0  0  0  0  0  0  0
    2.2540   -5.8920   27.6440 O   0  0  0  0  0  0  0  0  0  0  0  0
    1.9920   -6.8420   29.7480 O   0  0  0  0  0  0  0  0  0  0  0  0
    2.1640   -8.2420   29.9850 C   0  0  0  0  0  0  0  0  0  0  0  0
    4.0600   -5.7060   30.4680 C   0  0  0  0  0  0  0  0  0  0  0  0
    4.6840   -6.5180   31.4370 C   0  0  0  0  0  0  0  0  0  0  0  0
    5.9800   -6.7880   31.0940 O   0  0  0  0  0  0  0  0  0  0  0  0
    6.2920   -7.2340   29.7930 C   0  0  0  0  0  0  0  0  0  0  0  0
    5.0590   -7.1940   28.9010 C   0  0  0  0  0  0  0  0  0  0  0  0
    5.8750   -5.0500   27.1790 C   0  0  0  0  0  0  0  0  0  0  0  0
    6.2450   -5.2000   23.8510 C   0  0  0  0  0  0  0  0  0  0  0  0
    6.5720   -5.4470   22.4240 C   0  0  0  0  0  0  0  0  0  0  0  0
  1  2  1  0
  2  3  2  0
  2  4  1  0
  4  5  1  0
  5  6  1  0
  6  7  1  0
  7  8  1  0
  8  9  2  0
  8 10  1  0
 10 11  1  0
 11 12  1  0
 12 13  1  0
 13 14  1  6
 13 15  1  0
 15 16  1  0
 16 17  2  0
 16 18  1  0
 18 19  1  0
 15 20  1  0
 20 21  1  0
 21 22  1  0
 22 23  1  0
 15 24  1  0
 23 24  1  0
 10 25  1  0
 13 25  1  0
  7 26  1  0
  4 27  1  0
 26 27  1  0
M  END
