piperidine-amides-10422-covalent
     RDKit          3D

 24 24  0  0  0  0  0  0  0  0999 V2000
    7.0860   -3.3000   19.3030 C   0  0  0  0  0  0  0  0  0  0  0  0
    6.3230   -4.0450   20.3080 C   0  0  0  0  0  0  0  0  0  0  0  0
    5.2660   -4.5940   19.9020 O   0  0  0  0  0  0  0  0  0  0  0  0
    6.7860   -4.1680   21.6280 N   0  0  0  0  0  0  0  0  0  0  0  0
    6.6730   -5.4410   22.3040 C   0  0  0  0  0  0  0  0  0  0  0  0
    6.1960   -5.1680   23.6990 C   0  0  0  0  0  0  0  0  0  0  0  0
    5.9870   -3.6950   23.8960 C   0  0  0  0  0  0  0  0  0  0  0  0
    5.5520   -3.3700   25.2830 C   0  0  0  0  0  0  0  0  0  0  0  0
    4.4840   -2.7390   25.4120 O   0  0  0  0  0  0  0  0  0  0  0  0
    6.2540   -3.7170   26.4540 N   0  0  0  0  0  0  0  0  0  0  0  0
    5.8840   -4.8300   27.3300 C   0  0  0  0  0  0  0  0  0  0  0  0
    6.1980   -6.1860   26.7670 C   0  0  0  0  0  0  0  0  0  0  0  0
    6.4870   -4.7040   28.6740 C   0  0  0  0  0  0  0  0  0  0  0  0
    4.3940   -4.9260   27.4400 C   0  0  0  0  0  0  0  0  0  0  0  0
    3.7980   -5.4520   26.2730 C   0  0  0  0  0  0  0  0  0  0  0  0
    3.6100   -6.8330   26.1220 C   0  0  0  0  0  0  0  0  0  0  0  0
    4.1870   -7.5710   25.0550 O   0  0  0  0  0  0  0  0  0  0  0  0
    2.9090   -7.4940   26.9250 O   0  0  0  0  0  0  0  0  0  0  0  0
    1.7840   -8.2170   26.4640 C   0  0  0  0  0  0  0  0  0  0  0  0
    2.1630   -9.1100   25.3070 C   0  0  0  0  0  0  0  0  0  0  0  0
    1.1390   -8.8930   27.4610 C   0  0  0  0  0  0  0  0  0  0  0  0
    0.8810   -7.2080   26.2060 C   0  0  0  0  0  0  0  0  0  0  0  0
    7.2440   -2.9390   23.5580 C   0  0  0  0  0  0  0  0  0  0  0  0
    7.6670   -3.1640   22.2550 C   0  0  0  0  0  0  0  0  0  0  0  0
  1  2  1  0
  2  3  2  0
  2  4  1  0
  4  5  1  0
  5  6  1  0
  6  7  1  0
  7  8  1  0
  8  9  2  0
  8 10  1  0
 11 10  1  0
 11 12  1  0
 11 13  1  0
 11 14  1  0
 14 15  1  0
 15 16  1  0
 16 17  2  0
 16 18  1  0
 19 18  1  0
 19 20  1  0
 19 21  1  0
 19 22  1  0
  7 23  1  0
  4 24  1  0
 23 24  1  0
M  END
