piperidine-amides-30194-covalent
     RDKit          3D

 27 29  0  0  0  0  0  0  0  0999 V2000
    7.0240   -3.3600   19.4350 C   0  0  0  0  0  0  0  0  0  0  0  0
    6.3690   -4.2560   20.3850 C   0  0  0  0  0  0  0  0  0  0  0  0
    5.4100   -4.9280   20.0050 O   0  0  0  0  0  0  0  0  0  0  0  0
    6.8570   -4.3960   21.7410 N   0  0  0  0  0  0  0  0  0  0  0  0
    7.5650   -3.3310   22.3990 C   0  0  0  0  0  0  0  0  0  0  0  0
    6.7230   -2.7120   23.4920 C   0  0  0  0  0  0  0  0  0  0  0  0
    6.1650   -3.7970   24.4170 C   0  0  0  0  0  0  0  0  0  0  0  0
    5.1230   -3.2040   25.3590 C   0  0  0  0  0  0  0  0  0  0  0  0
    4.2890   -2.3810   24.9640 O   0  0  0  0  0  0  0  0  0  0  0  0
    5.0900   -3.5970   26.7460 N   0  0  0  0  0  0  0  0  0  0  0  0
    6.2330   -4.3000   27.0040 C   0  0  0  0  0  0  0  0  0  0  0  0
    6.6170   -4.6240   28.4370 C   0  0  0  0  0  0  0  0  0  0  0  0
    5.7050   -4.6980   29.4050 C   0  0  0  0  0  0  0  0  0  0  0  0
    4.4310   -4.9050   28.8540 N   0  0  0  0  0  0  0  0  0  0  0  0
    3.8460   -6.2170   28.9740 C   0  0  0  0  0  0  0  0  0  0  0  0
    3.2250   -6.7880   27.8510 O   0  0  0  0  0  0  0  0  0  0  0  0
    3.9060   -6.8660   30.1970 C   0  0  0  0  0  0  0  0  0  0  0  0
    5.0870   -6.9890   31.0310 C   0  0  0  0  0  0  0  0  0  0  0  0
    5.1360   -7.6270   32.2350 C   0  0  0  0  0  0  0  0  0  0  0  0
    4.0250   -8.2300   32.7740 C   0  0  0  0  0  0  0  0  0  0  0  0
    4.1830   -8.8380   33.9800 F   0  0  0  0  0  0  0  0  0  0  0  0
    2.8390   -8.1610   32.0300 C   0  0  0  0  0  0  0  0  0  0  0  0
    2.7690   -7.4710   30.7210 C   0  0  0  0  0  0  0  0  0  0  0  0
    3.8290   -3.6560   28.6160 C   0  0  0  0  0  0  0  0  0  0  0  0
    4.6840   -2.8200   27.8890 C   0  0  0  0  0  0  0  0  0  0  0  0
    5.5170   -4.9210   23.6240 C   0  0  0  0  0  0  0  0  0  0  0  0
    6.4680   -5.5060   22.5590 C   0  0  0  0  0  0  0  0  0  0  0  0
  1  2  1  0
  2  3  2  0
  2  4  1  0
  4  5  1  0
  5  6  1  0
  6  7  1  0
  7  8  1  0
  8  9  2  0
  8 10  1  0
 10 11  1  0
 11 12  1  0
 12 13  1  0
 13 14  1  0
 14 15  1  0
 15 16  2  0
 15 17  1  0
 17 18  2  0
 18 19  1  0
 19 20  2  0
 20 21  1  0
 20 22  1  0
 17 23  1  0
 22 23  2  0
 14 24  1  0
 10 25  1  0
 24 25  1  0
  7 26  1  0
  4 27  1  0
 26 27  1  0
M  END
