piperidine-amides-8704-covalent
     RDKit          3D

 23 24  0  0  0  0  0  0  0  0999 V2000
    6.9970   -3.3750   19.4030 C   0  0  0  0  0  0  0  0  0  0  0  0
    6.3620   -4.2700   20.3740 C   0  0  0  0  0  0  0  0  0  0  0  0
    5.3800   -4.9320   19.9920 O   0  0  0  0  0  0  0  0  0  0  0  0
    6.8830   -4.4040   21.6910 N   0  0  0  0  0  0  0  0  0  0  0  0
    7.8050   -3.4150   22.1760 C   0  0  0  0  0  0  0  0  0  0  0  0
    7.6840   -3.3820   23.6530 C   0  0  0  0  0  0  0  0  0  0  0  0
    6.2010   -3.3750   23.8390 C   0  0  0  0  0  0  0  0  0  0  0  0
    5.7340   -2.7780   25.1640 C   0  0  0  0  0  0  0  0  0  0  0  0
    4.7650   -3.3570   25.6610 O   0  0  0  0  0  0  0  0  0  0  0  0
    6.3750   -1.6200   25.7790 N   0  0  0  0  0  0  0  0  0  0  0  0
    6.8310   -1.8990   27.0730 C   0  0  0  0  0  0  0  0  0  0  0  0
    5.5650   -1.4480   27.1050 C   0  0  0  0  0  0  0  0  0  0  0  0
    5.4340   -1.1160   25.6190 N   0  0  0  0  0  0  0  0  0  0  0  0
    6.5960   -1.3800   24.8600 N   0  0  0  0  0  0  0  0  0  0  0  0
    6.7680   -1.1260   23.4290 C   0  0  0  0  0  0  0  0  0  0  0  0
    5.8790   -0.2610   22.8050 C   0  0  0  0  0  0  0  0  0  0  0  0
    5.3770   -1.1370   21.6930 C   0  0  0  0  0  0  0  0  0  0  0  0
    8.0670   -0.3760   23.1660 C   0  0  0  0  0  0  0  0  0  0  0  0
    8.7980   -0.7380   21.9180 C   0  0  0  0  0  0  0  0  0  0  0  0
    7.5550   -1.9390   25.8410 C   0  0  0  0  0  0  0  0  0  0  0  0
    8.9610   -2.3420   25.3560 C   0  0  0  0  0  0  0  0  0  0  0  0
    5.7710   -4.8270   23.7180 C   0  0  0  0  0  0  0  0  0  0  0  0
    6.3880   -5.4160   22.6040 C   0  0  0  0  0  0  0  0  0  0  0  0
  1  2  1  0
  2  3  2  0
  2  4  1  0
  4  5  1  0
  5  6  1  0
  6  7  1  0
  7  8  1  0
  8  9  2  0
  8 10  1  0
 10 11  1  0
 11 12  1  0
 12 13  2  0
 13 14  1  0
 14 15  1  0
 15 16  1  0
 16 17  1  0
 15 18  1  0
 18 19  1  0
 11 20  2  0
 14 20  1  0
 20 21  1  0
  7 22  1  0
  4 23  1  0
 22 23  1  0
M  END
