piperidine-amides-25355-covalent
     RDKit          3D

 24 26  0  0  0  0  0  0  0  0999 V2000
    7.0590   -3.3390   19.3110 C   0  0  0  0  0  0  0  0  0  0  0  0
    6.3100   -4.1460   20.3040 C   0  0  0  0  0  0  0  0  0  0  0  0
    5.2710   -4.6760   19.9220 O   0  0  0  0  0  0  0  0  0  0  0  0
    6.8200   -4.3200   21.5900 N   0  0  0  0  0  0  0  0  0  0  0  0
    6.6120   -5.5340   22.3350 C   0  0  0  0  0  0  0  0  0  0  0  0
    5.8810   -5.2240   23.6150 C   0  0  0  0  0  0  0  0  0  0  0  0
    5.8610   -3.7120   23.8420 C   0  0  0  0  0  0  0  0  0  0  0  0
    5.3230   -3.4090   25.1860 C   0  0  0  0  0  0  0  0  0  0  0  0
    4.0990   -3.3870   25.3470 O   0  0  0  0  0  0  0  0  0  0  0  0
    6.1550   -3.1180   26.2780 N   0  0  0  0  0  0  0  0  0  0  0  0
    6.6000   -4.1540   27.2150 C   0  0  0  0  0  0  0  0  0  0  0  0
    5.6200   -5.2940   27.4140 C   0  0  0  0  0  0  0  0  0  0  0  0
    5.4230   -6.0700   28.5300 C   0  0  0  0  0  0  0  0  0  0  0  0
    4.4900   -7.0520   28.4710 C   0  0  0  0  0  0  0  0  0  0  0  0
    3.7750   -7.0420   26.9200 S   0  0  0  0  0  0  0  0  0  0  0  0
    4.6890   -5.7450   26.3110 C   0  0  0  0  0  0  0  0  0  0  0  0
    6.3370   -1.9470   27.1420 C   0  0  0  0  0  0  0  0  0  0  0  0
    5.8360   -0.6580   26.4990 C   0  0  0  0  0  0  0  0  0  0  0  0
    5.9600    0.6410   27.2980 C   0  0  0  0  0  0  0  0  0  0  0  0
    6.5580    0.6190   28.6560 C   0  0  0  0  0  0  0  0  0  0  0  0
    7.0320   -0.6400   29.2380 C   0  0  0  0  0  0  0  0  0  0  0  0
    6.9420   -1.9510   28.5230 C   0  0  0  0  0  0  0  0  0  0  0  0
    7.2570   -3.2040   23.6770 C   0  0  0  0  0  0  0  0  0  0  0  0
    7.6050   -3.2790   22.2230 C   0  0  0  0  0  0  0  0  0  0  0  0
  1  2  1  0
  2  3  2  0
  2  4  1  0
  4  5  1  0
  5  6  1  0
  6  7  1  0
  7  8  1  0
  8  9  2  0
  8 10  1  0
 10 11  1  0
 11 12  1  0
 12 13  1  0
 13 14  2  0
 14 15  1  0
 12 16  2  0
 15 16  1  0
 10 17  1  0
 17 18  2  0
 18 19  1  0
 19 20  2  0
 20 21  1  0
 17 22  1  0
 21 22  2  0
  7 23  1  0
  4 24  1  0
 23 24  1  0
M  END
