piperidine-amides-23916-covalent
     RDKit          3D

 24 25  0  0  0  0  0  0  0  0999 V2000
    7.0630   -3.2980   19.2140 C   0  0  0  0  0  0  0  0  0  0  0  0
    6.3410   -4.0570   20.2500 C   0  0  0  0  0  0  0  0  0  0  0  0
    5.2690   -4.6010   19.8990 O   0  0  0  0  0  0  0  0  0  0  0  0
    6.8520   -4.2130   21.5610 N   0  0  0  0  0  0  0  0  0  0  0  0
    6.4880   -5.3750   22.2980 C   0  0  0  0  0  0  0  0  0  0  0  0
    5.8640   -5.0540   23.5650 C   0  0  0  0  0  0  0  0  0  0  0  0
    6.0170   -3.6330   23.9080 C   0  0  0  0  0  0  0  0  0  0  0  0
    5.6390   -3.3560   25.3420 C   0  0  0  0  0  0  0  0  0  0  0  0
    4.4310   -3.3380   25.6400 O   0  0  0  0  0  0  0  0  0  0  0  0
    6.5980   -3.0980   26.3550 N   0  0  0  0  0  0  0  0  0  0  0  0
    7.4990   -2.0340   26.3270 C   0  0  0  0  0  0  0  0  0  0  0  0
    8.7240   -2.2080   25.5740 C   0  0  0  0  0  0  0  0  0  0  0  0
    6.7480   -3.9840   27.4970 C   0  0  0  0  0  0  0  0  0  0  0  0
    6.5270   -5.3150   27.2390 C   0  0  1  0  0  0  0  0  0  0  0  0
    7.5960   -6.1770   27.2160 O   0  0  0  0  0  0  0  0  0  0  0  0
    5.6840   -5.4980   28.5120 C   0  0  0  0  0  0  0  0  0  0  0  0
    6.5630   -6.5460   29.1370 C   0  0  0  0  0  0  0  0  0  0  0  0
    5.8840   -6.9040   30.4670 C   0  0  0  0  0  0  0  0  0  0  0  0
    4.6250   -6.3200   31.0090 C   0  0  0  0  0  0  0  0  0  0  0  0
    4.1040   -6.7960   32.3520 C   0  0  0  0  0  0  0  0  0  0  0  0
    3.8980   -5.2780   30.2280 C   0  0  0  0  0  0  0  0  0  0  0  0
    4.4790   -4.8720   28.9270 C   0  0  0  0  0  0  0  0  0  0  0  0
    7.3730   -3.1060   23.5550 C   0  0  0  0  0  0  0  0  0  0  0  0
    7.5590   -3.1170   22.1810 C   0  0  0  0  0  0  0  0  0  0  0  0
  1  2  1  0
  2  3  2  0
  2  4  1  0
  4  5  1  0
  5  6  1  0
  6  7  1  0
  7  8  1  0
  8  9  2  0
  8 10  1  0
 10 11  1  0
 11 12  1  0
 10 13  1  0
 13 14  1  0
 14 15  1  1
 14 16  1  0
 16 17  2  0
 17 18  1  0
 18 19  2  0
 19 20  1  0
 19 21  1  0
 16 22  1  0
 21 22  2  0
  7 23  1  0
  4 24  1  0
 23 24  1  0
M  END
