piperidine-amides-8066-covalent
     RDKit          3D

 26 27  0  0  0  0  0  0  0  0999 V2000
    7.0650   -3.3480   19.3390 C   0  0  0  0  0  0  0  0  0  0  0  0
    6.4150   -4.2080   20.3240 C   0  0  0  0  0  0  0  0  0  0  0  0
    5.3790   -4.8070   19.9750 O   0  0  0  0  0  0  0  0  0  0  0  0
    6.9940   -4.3970   21.6050 N   0  0  0  0  0  0  0  0  0  0  0  0
    7.6900   -3.3000   22.2200 C   0  0  0  0  0  0  0  0  0  0  0  0
    6.8120   -2.7060   23.2730 C   0  0  0  0  0  0  0  0  0  0  0  0
    6.5040   -3.8070   24.2590 C   0  0  0  0  0  0  0  0  0  0  0  0
    5.7560   -3.2520   25.4350 C   0  0  0  0  0  0  0  0  0  0  0  0
    4.5550   -3.0600   25.2600 O   0  0  0  0  0  0  0  0  0  0  0  0
    6.4410   -2.9910   26.6160 N   0  0  0  0  0  0  0  0  0  0  0  0
    6.4030   -1.7030   27.2300 C   0  0  0  0  0  0  0  0  0  0  0  0
    5.8060   -0.5460   26.7160 C   0  0  0  0  0  0  0  0  0  0  0  0
    5.8010    0.6710   27.3630 C   0  0  0  0  0  0  0  0  0  0  0  0
    6.3850    0.9120   28.6060 C   0  0  0  0  0  0  0  0  0  0  0  0
    7.0410   -0.2970   29.2040 C   0  0  0  0  0  0  0  0  0  0  0  0
    7.7100   -0.0910   30.5850 C   0  0  0  0  0  0  0  0  0  0  0  0
    7.0110    0.8810   31.4650 C   0  0  0  0  0  0  0  0  0  0  0  0
    6.4600    1.9120   30.9970 O   0  0  0  0  0  0  0  0  0  0  0  0
    6.9570    0.6600   32.8250 O   0  0  0  0  0  0  0  0  0  0  0  0
    5.7530    0.2730   33.4560 C   0  0  0  0  0  0  0  0  0  0  0  0
    6.1530   -0.6410   34.6430 C   0  0  0  0  0  0  0  0  0  0  0  0
    4.8780   -0.4220   32.6450 C   0  0  0  0  0  0  0  0  0  0  0  0
    5.0270    1.4610   34.0740 C   0  0  0  0  0  0  0  0  0  0  0  0
    7.0490   -1.5260   28.5600 C   0  0  0  0  0  0  0  0  0  0  0  0
    5.7050   -4.9080   23.5470 C   0  0  0  0  0  0  0  0  0  0  0  0
    6.5700   -5.4710   22.4380 C   0  0  0  0  0  0  0  0  0  0  0  0
  1  2  1  0
  2  3  2  0
  2  4  1  0
  4  5  1  0
  5  6  1  0
  6  7  1  0
  7  8  1  0
  8  9  2  0
  8 10  1  0
 10 11  1  0
 11 12  2  0
 12 13  1  0
 13 14  2  0
 14 15  1  0
 15 16  1  0
 16 17  1  0
 17 18  2  0
 17 19  1  0
 20 19  1  0
 20 21  1  0
 20 22  1  0
 20 23  1  0
 11 24  1  0
 15 24  2  0
  7 25  1  0
  4 26  1  0
 25 26  1  0
M  END
