piperidine-amides-25976-covalent
     RDKit          3D

 24 26  0  0  0  0  0  0  0  0999 V2000
    7.0910   -3.3170   19.3340 C   0  0  0  0  0  0  0  0  0  0  0  0
    6.3650   -4.1450   20.3030 C   0  0  0  0  0  0  0  0  0  0  0  0
    5.3180   -4.7010   19.9380 O   0  0  0  0  0  0  0  0  0  0  0  0
    6.8350   -4.3920   21.6100 N   0  0  0  0  0  0  0  0  0  0  0  0
    6.5170   -5.5870   22.3290 C   0  0  0  0  0  0  0  0  0  0  0  0
    6.4360   -5.0880   23.7410 C   0  0  0  0  0  0  0  0  0  0  0  0
    5.9850   -3.6590   23.7880 C   0  0  0  0  0  0  0  0  0  0  0  0
    5.6250   -3.1580   25.1440 C   0  0  0  0  0  0  0  0  0  0  0  0
    4.5740   -2.4680   25.2810 O   0  0  0  0  0  0  0  0  0  0  0  0
    6.3570   -3.4040   26.3270 N   0  0  0  0  0  0  0  0  0  0  0  0
    6.2410   -2.3450   27.3730 C   0  0  0  0  0  0  0  0  0  0  0  0
    5.4120   -1.1990   27.1970 N   0  0  0  0  0  0  0  0  0  0  0  0
    5.3730   -0.3210   28.1960 C   0  0  0  0  0  0  0  0  0  0  0  0
    4.5730    0.8910   28.1650 C   0  0  0  0  0  0  0  0  0  0  0  0
    4.7100    1.7110   29.4340 C   0  0  0  0  0  0  0  0  0  0  0  0
    5.6180    1.2490   30.5910 C   0  0  0  0  0  0  0  0  0  0  0  0
    6.3330   -0.0490   30.3520 C   0  0  0  0  0  0  0  0  0  0  0  0
    6.1360   -0.7040   29.1760 C   0  0  0  0  0  0  0  0  0  0  0  0
    6.9490   -2.1440   28.9580 S   0  0  0  0  0  0  0  0  0  0  0  0
    6.6390   -4.7660   26.6960 C   0  0  0  0  0  0  0  0  0  0  0  0
    6.8880   -5.0740   28.1590 C   0  0  0  0  0  0  0  0  0  0  0  0
    7.7510   -5.3710   25.9090 C   0  0  0  0  0  0  0  0  0  0  0  0
    6.9740   -2.7350   23.0480 C   0  0  0  0  0  0  0  0  0  0  0  0
    7.6530   -3.3830   22.2830 C   0  0  0  0  0  0  0  0  0  0  0  0
  1  2  1  0
  2  3  2  0
  2  4  1  0
  4  5  1  0
  5  6  1  0
  6  7  1  0
  7  8  1  0
  8  9  2  0
  8 10  1  0
 10 11  1  0
 11 12  2  0
 12 13  1  0
 13 14  2  0
 14 15  1  0
 15 16  2  0
 16 17  1  0
 13 18  1  0
 17 18  2  0
 11 19  1  0
 18 19  1  0
 10 20  1  0
 20 21  1  0
 20 22  1  0
  7 23  1  0
  4 24  1  0
 23 24  1  0
M  END
