piperidine-amides-30964-covalent
     RDKit          3D

 27 28  0  0  0  0  0  0  0  0999 V2000
    7.0350   -3.3720   19.3860 C   0  0  0  0  0  0  0  0  0  0  0  0
    6.3970   -4.2410   20.3820 C   0  0  0  0  0  0  0  0  0  0  0  0
    5.4330   -4.9360   20.0120 O   0  0  0  0  0  0  0  0  0  0  0  0
    6.8820   -4.3340   21.7130 N   0  0  0  0  0  0  0  0  0  0  0  0
    7.7690   -3.3140   22.2670 C   0  0  0  0  0  0  0  0  0  0  0  0
    7.2860   -2.9670   23.6570 C   0  0  0  0  0  0  0  0  0  0  0  0
    6.0000   -3.6680   23.9370 C   0  0  0  0  0  0  0  0  0  0  0  0
    5.2940   -3.1900   25.1750 C   0  0  0  0  0  0  0  0  0  0  0  0
    4.5740   -2.1630   25.0640 O   0  0  0  0  0  0  0  0  0  0  0  0
    5.3000   -3.7320   26.4860 N   0  0  0  0  0  0  0  0  0  0  0  0
    4.0600   -3.6590   27.2670 C   0  0  0  0  0  0  0  0  0  0  0  0
    4.2980   -4.2130   28.6250 C   0  0  0  0  0  0  0  0  0  0  0  0
    5.6040   -3.9490   29.2360 C   0  0  2  0  0  0  0  0  0  0  0  0
    5.7650   -2.5610   29.6870 N   0  0  0  0  0  0  0  0  0  0  0  0
    4.5630   -2.2940   30.5430 C   0  0  0  0  0  0  0  0  0  0  0  0
    3.7890   -3.3320   30.9960 O   0  0  0  0  0  0  0  0  0  0  0  0
    4.1920   -1.0450   30.9310 O   0  0  0  0  0  0  0  0  0  0  0  0
    3.3770   -0.8170   32.0720 C   0  0  0  0  0  0  0  0  0  0  0  0
    3.3030    0.5770   32.5810 C   0  0  0  0  0  0  0  0  0  0  0  0
    3.9330   -1.5850   33.2820 C   0  0  0  0  0  0  0  0  0  0  0  0
    2.1770   -1.3930   31.7200 C   0  0  0  0  0  0  0  0  0  0  0  0
    6.5460   -4.4180   28.4110 C   0  0  1  0  0  0  0  0  0  0  0  0
    6.2810   -5.8680   27.9430 C   0  0  0  0  0  0  0  0  0  0  0  0
    5.4150   -6.1600   26.7450 C   0  0  0  0  0  0  0  0  0  0  0  0
    6.4290   -3.4130   27.2350 C   0  0  0  0  0  0  0  0  0  0  0  0
    6.0650   -5.1290   23.7800 C   0  0  0  0  0  0  0  0  0  0  0  0
    6.5870   -5.4720   22.5450 C   0  0  0  0  0  0  0  0  0  0  0  0
  1  2  1  0
  2  3  2  0
  2  4  1  0
  4  5  1  0
  5  6  1  0
  6  7  1  0
  7  8  1  0
  8  9  2  0
  8 10  1  0
 10 11  1  0
 11 12  1  0
 12 13  1  0
 13 14  1  6
 14 15  1  0
 15 16  2  0
 15 17  1  0
 18 17  1  0
 18 19  1  0
 18 20  1  0
 18 21  1  0
 13 22  1  0
 22 23  1  6
 23 24  1  0
 10 25  1  0
 22 25  1  0
  7 26  1  0
  4 27  1  0
 26 27  1  0
M  END
