piperidine-amides-21701-covalent
     RDKit          3D

 23 26  0  0  0  0  0  0  0  0999 V2000
    7.0610   -3.3550   19.3260 C   0  0  0  0  0  0  0  0  0  0  0  0
    6.4090   -4.1930   20.3360 C   0  0  0  0  0  0  0  0  0  0  0  0
    5.3740   -4.8120   19.9750 O   0  0  0  0  0  0  0  0  0  0  0  0
    6.9690   -4.3120   21.6110 N   0  0  0  0  0  0  0  0  0  0  0  0
    7.7430   -3.2420   22.1920 C   0  0  0  0  0  0  0  0  0  0  0  0
    6.9520   -2.7160   23.3400 C   0  0  0  0  0  0  0  0  0  0  0  0
    6.6950   -3.8040   24.3440 C   0  0  0  0  0  0  0  0  0  0  0  0
    5.8810   -3.2320   25.4360 C   0  0  0  0  0  0  0  0  0  0  0  0
    4.7250   -2.8480   25.1490 O   0  0  0  0  0  0  0  0  0  0  0  0
    6.3290   -3.1210   26.7700 N   0  0  0  0  0  0  0  0  0  0  0  0
    6.6860   -4.3760   27.3990 C   0  0  0  0  0  0  0  0  0  0  0  0
    5.6330   -2.1390   27.5960 C   0  0  1  0  0  0  0  0  0  0  0  0
    6.3520   -1.7780   28.7300 C   0  0  1  0  0  0  0  0  0  0  0  0
    7.1730   -0.6740   28.7030 C   0  0  0  0  0  0  0  0  0  0  0  0
    6.4300    0.4840   28.4510 C   0  0  2  0  0  0  0  0  0  0  0  0
    5.3700    0.6840   29.3270 C   0  0  0  0  0  0  0  0  0  0  0  0
    4.5410   -0.4120   29.3780 C   0  0  2  0  0  0  0  0  0  0  0  0
    5.3820   -1.6120   29.7010 C   0  0  0  0  0  0  0  0  0  0  0  0
    4.0240   -0.5750   28.1260 C   0  0  0  0  0  0  0  0  0  0  0  0
    5.1440   -0.9000   27.1640 C   0  0  1  0  0  0  0  0  0  0  0  0
    6.0150    0.3240   27.1560 C   0  0  0  0  0  0  0  0  0  0  0  0
    5.9820   -4.9710   23.7380 C   0  0  0  0  0  0  0  0  0  0  0  0
    6.6210   -5.4340   22.4390 C   0  0  0  0  0  0  0  0  0  0  0  0
  1  2  1  0
  2  3  2  0
  2  4  1  0
  4  5  1  0
  5  6  1  0
  6  7  1  0
  7  8  1  0
  8  9  2  0
  8 10  1  0
 10 11  1  0
 12 10  1  6
 12 13  1  0
 13 14  1  6
 15 14  1  1
 15 16  1  0
 17 16  1  6
 13 18  1  0
 17 18  1  0
 17 19  1  0
 12 20  1  0
 20 19  1  1
 15 21  1  0
 20 21  1  0
  7 22  1  0
  4 23  1  0
 22 23  1  0
M  END
