piperidine-amides-3491-covalent
     RDKit          3D

 21 23  0  0  0  0  0  0  0  0999 V2000
    7.0500   -3.3320   19.3870 C   0  0  0  0  0  0  0  0  0  0  0  0
    6.3730   -4.1850   20.3590 C   0  0  0  0  0  0  0  0  0  0  0  0
    5.4080   -4.8640   19.9940 O   0  0  0  0  0  0  0  0  0  0  0  0
    6.8460   -4.2810   21.7260 N   0  0  0  0  0  0  0  0  0  0  0  0
    6.5980   -5.4890   22.4710 C   0  0  0  0  0  0  0  0  0  0  0  0
    6.1420   -5.1390   23.8640 C   0  0  0  0  0  0  0  0  0  0  0  0
    6.0710   -3.6260   23.9660 C   0  0  0  0  0  0  0  0  0  0  0  0
    5.5370   -3.1760   25.2980 C   0  0  0  0  0  0  0  0  0  0  0  0
    4.3120   -3.0460   25.4770 O   0  0  0  0  0  0  0  0  0  0  0  0
    6.3940   -2.8980   26.3990 N   0  0  0  0  0  0  0  0  0  0  0  0
    6.7010   -1.5170   26.7620 C   0  0  2  0  0  0  0  0  0  0  0  0
    7.0900   -1.5290   28.2300 C   0  0  0  0  0  0  0  0  0  0  0  0
    6.5560   -0.5680   29.0790 C   0  0  0  0  0  0  0  0  0  0  0  0
    6.0400    0.6440   28.5800 C   0  0  0  0  0  0  0  0  0  0  0  0
    5.4380    0.5920   27.3390 C   0  0  0  0  0  0  0  0  0  0  0  0
    4.4920    1.5640   26.9000 N   0  0  0  0  0  0  0  0  0  0  0  0
    4.1470    1.2010   25.7110 N   0  0  0  0  0  0  0  0  0  0  0  0
    4.9410    0.0530   25.6040 C   0  0  0  0  0  0  0  0  0  0  0  0
    5.8190   -0.4750   26.5490 C   0  0  0  0  0  0  0  0  0  0  0  0
    7.4600   -3.0960   23.6630 C   0  0  0  0  0  0  0  0  0  0  0  0
    7.5870   -3.1390   22.2680 C   0  0  0  0  0  0  0  0  0  0  0  0
  1  2  1  0
  2  3  2  0
  2  4  1  0
  4  5  1  0
  5  6  1  0
  6  7  1  0
  7  8  1  0
  8  9  2  0
  8 10  1  0
 11 10  1  1
 11 12  1  0
 12 13  1  0
 13 14  1  0
 14 15  1  0
 15 16  1  0
 16 17  1  0
 17 18  2  0
 11 19  1  0
 15 19  2  0
 18 19  1  0
  7 20  1  0
  4 21  1  0
 20 21  1  0
M  END
