piperidine-amides-12997-covalent
     RDKit          3D

 21 22  0  0  0  0  0  0  0  0999 V2000
    7.0720   -3.3460   19.2720 C   0  0  0  0  0  0  0  0  0  0  0  0
    6.3910   -4.1600   20.3000 C   0  0  0  0  0  0  0  0  0  0  0  0
    5.3410   -4.7390   19.9510 O   0  0  0  0  0  0  0  0  0  0  0  0
    6.9490   -4.3060   21.5760 N   0  0  0  0  0  0  0  0  0  0  0  0
    6.5290   -5.3770   22.4120 C   0  0  0  0  0  0  0  0  0  0  0  0
    6.0060   -4.9440   23.7190 C   0  0  0  0  0  0  0  0  0  0  0  0
    6.6080   -3.7110   24.2940 C   0  0  0  0  0  0  0  0  0  0  0  0
    5.7760   -3.1650   25.3960 C   0  0  0  0  0  0  0  0  0  0  0  0
    4.5780   -2.9230   25.1530 O   0  0  0  0  0  0  0  0  0  0  0  0
    6.3090   -2.9350   26.6780 N   0  0  0  0  0  0  0  0  0  0  0  0
    6.6200   -1.5800   27.2100 C   0  0  1  0  0  0  0  0  0  0  0  0
    5.7410   -0.5400   26.6330 C   0  0  0  0  0  0  0  0  0  0  0  0
    5.5910    0.6780   27.4020 C   0  0  0  0  0  0  0  0  0  0  0  0
    6.2550    0.7550   28.6060 C   0  0  0  0  0  0  0  0  0  0  0  0
    6.6760   -0.3860   29.2780 C   0  0  0  0  0  0  0  0  0  0  0  0
    6.7430   -1.6050   28.6620 C   0  0  1  0  0  0  0  0  0  0  0  0
    5.9560   -2.6000   29.2960 N   0  0  0  0  0  0  0  0  0  0  0  0
    6.1590   -3.9670   28.9400 C   0  0  0  0  0  0  0  0  0  0  0  0
    4.5780   -2.0760   29.5410 C   0  0  0  0  0  0  0  0  0  0  0  0
    6.8720   -2.6710   23.2510 C   0  0  0  0  0  0  0  0  0  0  0  0
    7.7210   -3.2590   22.2070 C   0  0  0  0  0  0  0  0  0  0  0  0
  1  2  1  0
  2  3  2  0
  2  4  1  0
  4  5  1  0
  5  6  1  0
  6  7  1  0
  7  8  1  0
  8  9  2  0
  8 10  1  0
 11 10  1  1
 11 12  1  0
 12 13  1  0
 13 14  1  0
 14 15  1  0
 11 16  1  0
 15 16  1  0
 16 17  1  1
 17 18  1  0
 17 19  1  0
  7 20  1  0
  4 21  1  0
 20 21  1  0
M  END
