piperidine-amides-6618-covalent
     RDKit          3D

 24 26  0  0  0  0  0  0  0  0999 V2000
    7.1770   -3.2860   19.2080 C   0  0  0  0  0  0  0  0  0  0  0  0
    6.4340   -4.0930   20.1870 C   0  0  0  0  0  0  0  0  0  0  0  0
    5.3280   -4.5970   19.9050 O   0  0  0  0  0  0  0  0  0  0  0  0
    7.0030   -4.3600   21.4280 N   0  0  0  0  0  0  0  0  0  0  0  0
    7.8440   -3.3440   22.0330 C   0  0  0  0  0  0  0  0  0  0  0  0
    6.9590   -2.6290   23.0230 C   0  0  0  0  0  0  0  0  0  0  0  0
    6.5460   -3.7270   23.9500 C   0  0  0  0  0  0  0  0  0  0  0  0
    5.8070   -3.0920   25.0290 C   0  0  0  0  0  0  0  0  0  0  0  0
    4.5520   -3.1310   25.0270 O   0  0  0  0  0  0  0  0  0  0  0  0
    6.5540   -2.4360   26.0440 N   0  0  0  0  0  0  0  0  0  0  0  0
    5.8940   -2.2410   27.2900 C   0  0  0  0  0  0  0  0  0  0  0  0
    5.1230   -1.3860   28.1780 C   0  0  0  0  0  0  0  0  0  0  0  0
    5.6020   -2.7490   28.3440 N   0  0  0  0  0  0  0  0  0  0  0  0
    6.3860   -3.2540   27.1580 C   0  0  0  0  0  0  0  0  0  0  0  0
    6.8660   -4.5300   27.2510 N   0  0  0  0  0  0  0  0  0  0  0  0
    7.6180   -4.9020   28.2910 C   0  0  0  0  0  0  0  0  0  0  0  0
    9.0080   -4.8930   28.1200 C   0  0  0  0  0  0  0  0  0  0  0  0
    9.4630   -4.5270   26.9020 O   0  0  0  0  0  0  0  0  0  0  0  0
    8.6240   -4.4050   25.8430 C   0  0  0  0  0  0  0  0  0  0  0  0
    7.3460   -5.1500   26.1630 C   0  0  0  0  0  0  0  0  0  0  0  0
    6.5050   -2.3230   26.1210 N   0  0  0  0  0  0  0  0  0  0  0  0
    5.8530   -1.0860   26.4230 C   0  0  0  0  0  0  0  0  0  0  0  0
    5.7260   -4.7880   23.3260 C   0  0  0  0  0  0  0  0  0  0  0  0
    6.4540   -5.4010   22.2240 C   0  0  0  0  0  0  0  0  0  0  0  0
  1  2  1  0
  2  3  2  0
  2  4  1  0
  4  5  1  0
  5  6  1  0
  6  7  1  0
  7  8  1  0
  8  9  2  0
  8 10  1  0
 10 11  1  0
 11 12  2  0
 12 13  1  0
 13 14  2  0
 14 15  1  0
 15 16  1  0
 16 17  1  0
 17 18  1  0
 18 19  1  0
 15 20  1  0
 19 20  1  0
 14 21  1  0
 11 22  1  0
 21 22  2  0
  7 23  1  0
  4 24  1  0
 23 24  1  0
M  END
