piperidine-amides-19485-covalent
     RDKit          3D

 22 24  0  0  0  0  0  0  0  0999 V2000
    6.9950   -3.4130   19.3830 C   0  0  0  0  0  0  0  0  0  0  0  0
    6.3520   -4.2210   20.4000 C   0  0  0  0  0  0  0  0  0  0  0  0
    5.3970   -4.9570   20.0080 O   0  0  0  0  0  0  0  0  0  0  0  0
    6.7510   -4.2670   21.7630 N   0  0  0  0  0  0  0  0  0  0  0  0
    6.6900   -5.6190   22.3950 C   0  0  0  0  0  0  0  0  0  0  0  0
    6.1680   -5.3230   23.8630 C   0  0  0  0  0  0  0  0  0  0  0  0
    6.1560   -3.8280   24.0140 C   0  0  0  0  0  0  0  0  0  0  0  0
    5.1980   -3.2660   25.1750 C   0  0  0  0  0  0  0  0  0  0  0  0
    4.2480   -2.7240   24.6410 O   0  0  0  0  0  0  0  0  0  0  0  0
    5.6100   -3.4920   26.3580 N   0  0  0  0  0  0  0  0  0  0  0  0
    6.3990   -3.6030   27.4320 C   0  0  0  0  0  0  0  0  0  0  0  0
    6.7880   -4.6270   28.2570 C   0  0  0  0  0  0  0  0  0  0  0  0
    5.6810   -4.8940   28.9970 C   0  0  0  0  0  0  0  0  0  0  0  0
    4.5980   -4.9290   28.0380 C   0  0  1  0  0  0  0  0  0  0  0  0
    3.6120   -5.2090   29.1800 C   0  0  0  0  0  0  0  0  0  0  0  0
    3.5170   -6.5210   29.3760 C   0  0  0  0  0  0  0  0  0  0  0  0
    2.6110   -6.5110   30.4080 C   0  0  0  0  0  0  0  0  0  0  0  0
    2.2220   -5.2270   30.7660 N   0  0  0  0  0  0  0  0  0  0  0  0
    2.9130   -4.3720   29.9200 N   0  0  0  0  0  0  0  0  0  0  0  0
    4.4800   -3.7140   27.2360 C   0  0  0  0  0  0  0  0  0  0  0  0
    7.4800   -3.2210   23.6800 C   0  0  0  0  0  0  0  0  0  0  0  0
    7.6060   -3.2360   22.3110 C   0  0  0  0  0  0  0  0  0  0  0  0
  1  2  1  0
  2  3  2  0
  2  4  1  0
  4  5  1  0
  5  6  1  0
  6  7  1  0
  7  8  1  0
  8  9  2  0
  8 10  1  0
 10 11  1  0
 11 12  1  0
 12 13  1  0
 13 14  1  0
 14 15  1  1
 15 16  2  0
 16 17  1  0
 17 18  2  0
 15 19  1  0
 18 19  1  0
 10 20  1  0
 14 20  1  0
  7 21  1  0
  4 22  1  0
 21 22  1  0
M  END
