piperidine-amides-2868-covalent
     RDKit          3D

 24 25  0  0  0  0  0  0  0  0999 V2000
    7.0210   -3.2740   19.1310 C   0  0  0  0  0  0  0  0  0  0  0  0
    6.2260   -3.9790   20.1330 C   0  0  0  0  0  0  0  0  0  0  0  0
    5.1820   -4.5400   19.8400 O   0  0  0  0  0  0  0  0  0  0  0  0
    6.6900   -4.0390   21.4660 N   0  0  0  0  0  0  0  0  0  0  0  0
    6.9940   -2.7780   22.0520 C   0  0  0  0  0  0  0  0  0  0  0  0
    5.8700   -2.3720   22.9560 C   0  0  0  0  0  0  0  0  0  0  0  0
    5.7190   -3.4710   23.9940 C   0  0  0  0  0  0  0  0  0  0  0  0
    4.7290   -3.0920   25.0550 C   0  0  0  0  0  0  0  0  0  0  0  0
    3.5140   -3.3100   24.9270 O   0  0  0  0  0  0  0  0  0  0  0  0
    5.1720   -2.4680   26.2620 N   0  0  0  0  0  0  0  0  0  0  0  0
    5.9680   -3.2550   27.1530 C   0  0  0  0  0  0  0  0  0  0  0  0
    5.8050   -4.5880   26.5450 C   0  0  2  0  0  0  0  0  0  0  0  0
    6.2080   -5.7090   27.2480 C   0  0  0  0  0  0  0  0  0  0  0  0
    6.6540   -5.6110   28.5740 C   0  0  0  0  0  0  0  0  0  0  0  0
    6.4540   -4.5900   25.2900 O   0  0  0  0  0  0  0  0  0  0  0  0
    7.1940   -3.4350   24.7260 C   0  0  0  0  0  0  0  0  0  0  0  0
    8.1890   -3.8640   23.7420 C   0  0  0  0  0  0  0  0  0  0  0  0
    9.0050   -3.0020   23.0700 C   0  0  0  0  0  0  0  0  0  0  0  0
    8.9570   -1.6650   23.2500 C   0  0  0  0  0  0  0  0  0  0  0  0
    8.0410   -1.1700   24.1630 C   0  0  0  0  0  0  0  0  0  0  0  0
    7.1260   -2.0350   24.9510 C   0  0  0  0  0  0  0  0  0  0  0  0
    6.2750   -1.4140   25.8430 C   0  0  0  0  0  0  0  0  0  0  0  0
    5.2870   -4.7460   23.3150 C   0  0  0  0  0  0  0  0  0  0  0  0
    6.2580   -5.1500   22.2450 C   0  0  0  0  0  0  0  0  0  0  0  0
  1  2  1  0
  2  3  2  0
  2  4  1  0
  4  5  1  0
  5  6  1  0
  6  7  1  0
  7  8  1  0
  8  9  2  0
  8 10  1  0
 10 11  1  0
 12 11  1  1
 12 13  1  0
 13 14  1  0
 12 15  1  0
 15 16  1  0
 16 17  2  0
 17 18  1  0
 18 19  2  0
 19 20  1  0
 16 21  1  0
 20 21  2  0
 21 22  1  0
  7 23  1  0
  4 24  1  0
 23 24  1  0
M  END
