piperidine-amides-30957-covalent
     RDKit          3D

 27 28  0  0  0  0  0  0  0  0999 V2000
    7.0620   -3.3500   19.3520 C   0  0  0  0  0  0  0  0  0  0  0  0
    6.4000   -4.1850   20.3550 C   0  0  0  0  0  0  0  0  0  0  0  0
    5.4280   -4.8770   20.0000 O   0  0  0  0  0  0  0  0  0  0  0  0
    6.8720   -4.2490   21.6870 N   0  0  0  0  0  0  0  0  0  0  0  0
    7.7790   -3.2290   22.2080 C   0  0  0  0  0  0  0  0  0  0  0  0
    7.4430   -2.9680   23.6600 C   0  0  0  0  0  0  0  0  0  0  0  0
    6.1630   -3.6290   24.0400 C   0  0  0  0  0  0  0  0  0  0  0  0
    5.7040   -3.3080   25.4320 C   0  0  0  0  0  0  0  0  0  0  0  0
    4.8530   -2.3890   25.5990 O   0  0  0  0  0  0  0  0  0  0  0  0
    6.1210   -3.9780   26.6050 N   0  0  0  0  0  0  0  0  0  0  0  0
    5.8590   -5.4030   26.6570 C   0  0  0  0  0  0  0  0  0  0  0  0
    6.1930   -5.9010   28.0050 C   0  0  0  0  0  0  0  0  0  0  0  0
    5.8690   -5.0740   29.1860 C   0  0  0  0  0  0  0  0  0  0  0  0
    4.9870   -5.8380   30.1590 C   0  0  0  0  0  0  0  0  0  0  0  0
    3.7750   -4.9740   30.4930 C   0  0  0  0  0  0  0  0  0  0  0  0
    3.5100   -5.0620   31.9380 N   0  0  0  0  0  0  0  0  0  0  0  0
    2.9240   -6.3580   32.2050 C   0  0  0  0  0  0  0  0  0  0  0  0
    1.8620   -6.8590   31.5030 O   0  0  0  0  0  0  0  0  0  0  0  0
    3.3590   -7.1010   33.1140 O   0  0  0  0  0  0  0  0  0  0  0  0
    4.1380   -8.2340   32.9060 C   0  0  0  0  0  0  0  0  0  0  0  0
    4.1470   -9.1060   34.0020 C   0  0  0  0  0  0  0  0  0  0  0  0
    5.4460   -8.4660   33.6920 C   0  0  0  0  0  0  0  0  0  0  0  0
    5.5550   -7.8610   32.3510 C   0  0  0  0  0  0  0  0  0  0  0  0
    5.2170   -3.8990   28.5190 C   0  0  0  0  0  0  0  0  0  0  0  0
    6.0230   -3.2880   27.8640 C   0  0  0  0  0  0  0  0  0  0  0  0
    6.1350   -5.0800   23.7660 C   0  0  0  0  0  0  0  0  0  0  0  0
    6.6200   -5.3940   22.5110 C   0  0  0  0  0  0  0  0  0  0  0  0
  1  2  1  0
  2  3  2  0
  2  4  1  0
  4  5  1  0
  5  6  1  0
  6  7  1  0
  7  8  1  0
  8  9  2  0
  8 10  1  0
 10 11  1  0
 11 12  1  0
 12 13  1  0
 13 14  1  0
 14 15  1  0
 15 16  1  0
 16 17  1  0
 17 18  2  0
 17 19  1  0
 20 19  1  0
 20 21  1  0
 20 22  1  0
 20 23  1  0
 13 24  1  0
 10 25  1  0
 24 25  1  0
  7 26  1  0
  4 27  1  0
 26 27  1  0
M  END
