piperidine-amides-28142-covalent
     RDKit          3D

 25 27  0  0  0  0  0  0  0  0999 V2000
    7.0740   -3.3260   19.2060 C   0  0  0  0  0  0  0  0  0  0  0  0
    6.3820   -4.1180   20.2460 C   0  0  0  0  0  0  0  0  0  0  0  0
    5.3090   -4.6560   19.9190 O   0  0  0  0  0  0  0  0  0  0  0  0
    6.9530   -4.2910   21.5110 N   0  0  0  0  0  0  0  0  0  0  0  0
    6.6160   -5.4390   22.2830 C   0  0  0  0  0  0  0  0  0  0  0  0
    6.1810   -5.1180   23.6450 C   0  0  0  0  0  0  0  0  0  0  0  0
    6.6610   -3.8200   24.1670 C   0  0  0  0  0  0  0  0  0  0  0  0
    5.7650   -3.3460   25.2410 C   0  0  0  0  0  0  0  0  0  0  0  0
    4.7880   -2.6450   24.9280 O   0  0  0  0  0  0  0  0  0  0  0  0
    5.9840   -3.6860   26.5720 N   0  0  0  0  0  0  0  0  0  0  0  0
    6.3840   -2.6910   27.5670 C   0  0  0  0  0  0  0  0  0  0  0  0
    6.5370   -3.4950   28.7840 C   0  0  0  0  0  0  0  0  0  0  0  0
    5.8610   -4.7530   28.6340 C   0  0  1  0  0  0  0  0  0  0  0  0
    4.6040   -4.6720   29.3500 N   0  0  0  0  0  0  0  0  0  0  0  0
    4.0500   -3.5030   29.3870 N   0  0  0  0  0  0  0  0  0  0  0  0
    2.9110   -3.6090   30.0780 N   0  0  0  0  0  0  0  0  0  0  0  0
    2.7400   -4.8530   30.4820 N   0  0  0  0  0  0  0  0  0  0  0  0
    3.7930   -5.5860   30.0460 C   0  0  0  0  0  0  0  0  0  0  0  0
    4.0630   -6.9280   30.2160 C   0  0  0  0  0  0  0  0  0  0  0  0
    3.1160   -7.6750   30.8400 F   0  0  0  0  0  0  0  0  0  0  0  0
    4.2860   -7.4520   28.9590 F   0  0  0  0  0  0  0  0  0  0  0  0
    5.2560   -7.0940   30.9150 F   0  0  0  0  0  0  0  0  0  0  0  0
    5.4610   -4.8810   27.2160 C   0  0  0  0  0  0  0  0  0  0  0  0
    6.9450   -2.7490   23.1780 C   0  0  0  0  0  0  0  0  0  0  0  0
    7.6980   -3.2580   22.1750 C   0  0  0  0  0  0  0  0  0  0  0  0
  1  2  1  0
  2  3  2  0
  2  4  1  0
  4  5  1  0
  5  6  1  0
  6  7  1  0
  7  8  1  0
  8  9  2  0
  8 10  1  0
 10 11  1  0
 11 12  1  0
 12 13  1  0
 13 14  1  1
 14 15  1  0
 15 16  2  0
 16 17  1  0
 14 18  1  0
 17 18  2  0
 18 19  1  0
 19 20  1  0
 19 21  1  0
 19 22  1  0
 10 23  1  0
 13 23  1  0
  7 24  1  0
  4 25  1  0
 24 25  1  0
M  END
