piperidine-amides-8138-covalent
     RDKit          3D

 26 27  0  0  0  0  0  0  0  0999 V2000
    7.0610   -3.3370   19.2860 C   0  0  0  0  0  0  0  0  0  0  0  0
    6.3960   -4.1780   20.2760 C   0  0  0  0  0  0  0  0  0  0  0  0
    5.3440   -4.7490   19.9520 O   0  0  0  0  0  0  0  0  0  0  0  0
    6.9800   -4.3750   21.5510 N   0  0  0  0  0  0  0  0  0  0  0  0
    7.6430   -3.2710   22.1720 C   0  0  0  0  0  0  0  0  0  0  0  0
    6.8080   -2.8080   23.3210 C   0  0  0  0  0  0  0  0  0  0  0  0
    6.6400   -3.9950   24.2450 C   0  0  0  0  0  0  0  0  0  0  0  0
    5.9250   -3.5540   25.4790 C   0  0  0  0  0  0  0  0  0  0  0  0
    4.6810   -3.5320   25.4490 O   0  0  0  0  0  0  0  0  0  0  0  0
    6.6940   -3.1750   26.5840 N   0  0  0  0  0  0  0  0  0  0  0  0
    7.2540   -4.1730   27.4590 C   0  0  0  0  0  0  0  0  0  0  0  0
    8.1800   -5.0860   26.9240 C   0  0  0  0  0  0  0  0  0  0  0  0
    9.4570   -4.3530   26.8530 N   0  0  0  0  0  0  0  0  0  0  0  0
    6.1620   -1.9880   27.2620 C   0  0  0  0  0  0  0  0  0  0  0  0
    6.0650   -2.1470   28.6390 C   0  0  0  0  0  0  0  0  0  0  0  0
    5.5010   -0.9560   29.3310 C   0  0  0  0  0  0  0  0  0  0  0  0
    5.0870    0.3060   28.5560 C   0  0  0  0  0  0  0  0  0  0  0  0
    4.5370    1.4590   29.3070 C   0  0  0  0  0  0  0  0  0  0  0  0
    5.2840    2.1800   30.0200 O   0  0  0  0  0  0  0  0  0  0  0  0
    3.1940    1.7560   29.2410 O   0  0  0  0  0  0  0  0  0  0  0  0
    2.5380    2.3400   30.3480 C   0  0  0  0  0  0  0  0  0  0  0  0
    2.3570    1.2300   31.4120 C   0  0  0  0  0  0  0  0  0  0  0  0
    5.2630    0.2900   27.1830 C   0  0  0  0  0  0  0  0  0  0  0  0
    5.7830   -0.8430   26.6170 N   0  0  0  0  0  0  0  0  0  0  0  0
    5.8000   -5.0140   23.5250 C   0  0  0  0  0  0  0  0  0  0  0  0
    6.4990   -5.5120   22.2930 C   0  0  0  0  0  0  0  0  0  0  0  0
  1  2  1  0
  2  3  2  0
  2  4  1  0
  4  5  1  0
  5  6  1  0
  6  7  1  0
  7  8  1  0
  8  9  2  0
  8 10  1  0
 10 11  1  0
 11 12  1  0
 12 13  1  0
 10 14  1  0
 14 15  2  0
 15 16  1  0
 16 17  2  0
 17 18  1  0
 18 19  2  0
 18 20  1  0
 20 21  1  0
 21 22  1  0
 17 23  1  0
 14 24  1  0
 23 24  2  0
  7 25  1  0
  4 26  1  0
 25 26  1  0
M  END
