piperidine-amides-27771-covalent
     RDKit          3D

 26 28  0  0  0  0  0  0  0  0999 V2000
    7.0680   -3.3830   19.3230 C   0  0  0  0  0  0  0  0  0  0  0  0
    6.3750   -4.1870   20.3470 C   0  0  0  0  0  0  0  0  0  0  0  0
    5.3530   -4.7950   19.9710 O   0  0  0  0  0  0  0  0  0  0  0  0
    6.8950   -4.2920   21.6490 N   0  0  0  0  0  0  0  0  0  0  0  0
    7.5800   -3.1960   22.2420 C   0  0  0  0  0  0  0  0  0  0  0  0
    6.9130   -2.7120   23.4410 C   0  0  0  0  0  0  0  0  0  0  0  0
    6.5820   -3.7720   24.4140 C   0  0  0  0  0  0  0  0  0  0  0  0
    5.8100   -3.1520   25.5290 C   0  0  0  0  0  0  0  0  0  0  0  0
    4.5930   -2.9640   25.3310 O   0  0  0  0  0  0  0  0  0  0  0  0
    6.3900   -2.7870   26.7760 N   0  0  0  0  0  0  0  0  0  0  0  0
    6.0960   -3.6200   27.9820 C   0  0  0  0  0  0  0  0  0  0  0  0
    7.0490   -4.7390   28.2800 C   0  0  0  0  0  0  0  0  0  0  0  0
    7.4360   -5.7380   27.2850 C   0  0  0  0  0  0  0  0  0  0  0  0
    6.7120   -6.1290   28.5670 C   0  0  0  0  0  0  0  0  0  0  0  0
    6.8330   -1.3740   27.0180 C   0  0  2  0  0  0  0  0  0  0  0  0
    7.3930   -1.2160   28.2630 C   0  0  0  0  0  0  0  0  0  0  0  0
    6.8050   -0.4380   29.1960 C   0  0  0  0  0  0  0  0  0  0  0  0
    6.1870    0.7020   28.8070 C   0  0  0  0  0  0  0  0  0  0  0  0
    5.6350    0.5940   27.5350 C   0  0  0  0  0  0  0  0  0  0  0  0
    4.6640    1.6210   27.0910 C   0  0  0  0  0  0  0  0  0  0  0  0
    4.0570    1.5290   25.7250 C   0  0  0  0  0  0  0  0  0  0  0  0
    4.5160    0.3580   24.9200 C   0  0  0  0  0  0  0  0  0  0  0  0
    5.3960   -0.5240   25.3970 N   0  0  0  0  0  0  0  0  0  0  0  0
    5.9250   -0.4130   26.6320 C   0  0  0  0  0  0  0  0  0  0  0  0
    5.9860   -4.9630   23.7740 C   0  0  0  0  0  0  0  0  0  0  0  0
    6.6600   -5.4400   22.5190 C   0  0  0  0  0  0  0  0  0  0  0  0
  1  2  1  0
  2  3  2  0
  2  4  1  0
  4  5  1  0
  5  6  1  0
  6  7  1  0
  7  8  1  0
  8  9  2  0
  8 10  1  0
 10 11  1  0
 11 12  1  0
 12 13  1  0
 12 14  1  0
 15 10  1  1
 15 16  1  0
 16 17  1  0
 17 18  1  0
 18 19  1  0
 19 20  2  0
 20 21  1  0
 21 22  2  0
 22 23  1  0
 15 24  1  0
 19 24  1  0
 23 24  2  0
  7 25  1  0
  4 26  1  0
 25 26  1  0
M  END
