piperidine-amides-2212-covalent
     RDKit          3D

 28 30  0  0  0  0  0  0  0  0999 V2000
    7.1130   -3.2550   19.2140 C   0  0  0  0  0  0  0  0  0  0  0  0
    6.3750   -4.0250   20.2540 C   0  0  0  0  0  0  0  0  0  0  0  0
    5.3380   -4.5880   19.9030 O   0  0  0  0  0  0  0  0  0  0  0  0
    6.8840   -4.1190   21.5580 N   0  0  0  0  0  0  0  0  0  0  0  0
    6.7190   -5.3170   22.3440 C   0  0  0  0  0  0  0  0  0  0  0  0
    6.0910   -4.9700   23.6690 C   0  0  0  0  0  0  0  0  0  0  0  0
    6.1790   -3.4590   23.8750 C   0  0  0  0  0  0  0  0  0  0  0  0
    5.6920   -3.1250   25.2240 C   0  0  0  0  0  0  0  0  0  0  0  0
    4.6300   -2.5020   25.3350 O   0  0  0  0  0  0  0  0  0  0  0  0
    6.3990   -3.4920   26.3750 N   0  0  0  0  0  0  0  0  0  0  0  0
    5.6020   -3.9080   27.4920 C   0  0  2  0  0  0  0  0  0  0  0  0
    6.1150   -5.0550   28.3370 C   0  0  0  0  0  0  0  0  0  0  0  0
    5.2040   -5.8280   29.0270 C   0  0  1  0  0  0  0  0  0  0  0  0
    5.6550   -6.6610   29.9720 C   0  0  0  0  0  0  0  0  0  0  0  0
    4.6620   -7.3490   30.5950 C   0  0  0  0  0  0  0  0  0  0  0  0
    3.5370   -6.7410   31.4140 C   0  0  0  0  0  0  0  0  0  0  0  0
    3.7660   -5.3110   31.0130 C   0  0  0  0  0  0  0  0  0  0  0  0
    2.9990   -4.5150   32.0460 C   0  0  0  0  0  0  0  0  0  0  0  0
    3.0660   -3.0360   31.8650 C   0  0  0  0  0  0  0  0  0  0  0  0
    3.8370   -2.4470   30.7410 C   0  0  0  0  0  0  0  0  0  0  0  0
    4.5740   -3.3310   29.7600 C   0  0  0  0  0  0  0  0  0  0  0  0
    4.5050   -4.8100   29.9440 C   0  0  0  0  0  0  0  0  0  0  0  0
    4.2680   -4.4820   26.9220 C   0  0  0  0  0  0  0  0  0  0  0  0
    3.3900   -5.3080   26.2540 O   0  0  0  0  0  0  0  0  0  0  0  0
    5.1130   -5.4600   26.4180 O   0  0  0  0  0  0  0  0  0  0  0  0
    4.7750   -6.8090   26.5870 C   0  0  0  0  0  0  0  0  0  0  0  0
    7.5640   -3.0060   23.5760 C   0  0  0  0  0  0  0  0  0  0  0  0
    7.7970   -3.0740   22.0680 C   0  0  0  0  0  0  0  0  0  0  0  0
  1  2  1  0
  2  3  2  0
  2  4  1  0
  4  5  1  0
  5  6  1  0
  6  7  1  0
  7  8  1  0
  8  9  2  0
  8 10  1  0
 10 11  1  0
 11 12  1  6
 13 12  1  1
 13 14  1  0
 14 15  1  0
 15 16  1  0
 16 17  1  0
 17 18  2  0
 18 19  1  0
 19 20  2  0
 20 21  1  0
 13 22  1  0
 17 22  1  0
 21 22  2  0
 11 23  1  0
 23 24  2  0
 23 25  1  0
 25 26  1  0
  7 27  1  0
  4 28  1  0
 27 28  1  0
M  END
