piperidine-amides-6924-covalent
     RDKit          3D

 23 24  0  0  0  0  0  0  0  0999 V2000
    7.1970   -3.2090   19.2130 C   0  0  0  0  0  0  0  0  0  0  0  0
    6.4570   -3.9350   20.2550 C   0  0  0  0  0  0  0  0  0  0  0  0
    5.4340   -4.5920   19.9290 O   0  0  0  0  0  0  0  0  0  0  0  0
    6.8860   -3.9500   21.6000 N   0  0  0  0  0  0  0  0  0  0  0  0
    6.0700   -4.6900   22.4930 C   0  0  0  0  0  0  0  0  0  0  0  0
    5.2360   -3.6220   23.2230 C   0  0  0  0  0  0  0  0  0  0  0  0
    6.1970   -2.7890   24.0570 C   0  0  0  0  0  0  0  0  0  0  0  0
    5.8570   -2.9400   25.5260 C   0  0  0  0  0  0  0  0  0  0  0  0
    4.6740   -3.2720   25.7590 O   0  0  0  0  0  0  0  0  0  0  0  0
    6.7760   -2.7060   26.6320 N   0  0  0  0  0  0  0  0  0  0  0  0
    6.4890   -3.1660   28.0170 C   0  0  1  0  0  0  0  0  0  0  0  0
    5.1280   -3.8160   28.0590 C   0  0  0  0  0  0  0  0  0  0  0  0
    7.4180   -4.2420   28.3400 C   0  0  0  0  0  0  0  0  0  0  0  0
    7.6520   -4.8500   27.2260 C   0  0  0  0  0  0  0  0  0  0  0  0
    8.7810   -5.2810   26.7700 C   0  0  0  0  0  0  0  0  0  0  0  0
    8.8330   -5.8050   25.5670 C   0  0  0  0  0  0  0  0  0  0  0  0
    7.8140   -6.0860   24.4050 C   0  0  0  0  0  0  0  0  0  0  0  0
    7.9020   -6.6260   23.1590 F   0  0  0  0  0  0  0  0  0  0  0  0
    6.5710   -5.6000   25.1500 C   0  0  0  0  0  0  0  0  0  0  0  0
    4.8380   -5.7470   24.3540 Br  0  0  0  0  0  0  0  0  0  0  0  0
    6.5820   -5.0160   26.4770 C   0  0  0  0  0  0  0  0  0  0  0  0
    7.6130   -3.1090   23.6160 C   0  0  0  0  0  0  0  0  0  0  0  0
    7.6650   -2.8710   22.2070 C   0  0  0  0  0  0  0  0  0  0  0  0
  1  2  1  0
  2  3  2  0
  2  4  1  0
  4  5  1  0
  5  6  1  0
  6  7  1  0
  7  8  1  0
  8  9  2  0
  8 10  1  0
 10 11  1  0
 11 12  1  6
 11 13  1  0
 13 14  1  0
 14 15  2  0
 15 16  1  0
 16 17  2  0
 17 18  1  0
 17 19  1  0
 19 20  1  0
 14 21  1  0
 19 21  2  0
  7 22  1  0
  4 23  1  0
 22 23  1  0
M  END
