piperidine-amides-3628-covalent
     RDKit          3D

 17 17  0  0  0  0  0  0  0  0999 V2000
    7.1680   -3.3020   19.1980 C   0  0  0  0  0  0  0  0  0  0  0  0
    6.3810   -4.0110   20.2130 C   0  0  0  0  0  0  0  0  0  0  0  0
    5.2720   -4.4760   19.8590 O   0  0  0  0  0  0  0  0  0  0  0  0
    6.8980   -4.2140   21.5090 N   0  0  0  0  0  0  0  0  0  0  0  0
    6.3600   -5.2850   22.2600 C   0  0  0  0  0  0  0  0  0  0  0  0
    5.8020   -4.8760   23.5470 C   0  0  0  0  0  0  0  0  0  0  0  0
    6.5250   -3.7990   24.2660 C   0  0  0  0  0  0  0  0  0  0  0  0
    5.7720   -3.3500   25.4820 C   0  0  0  0  0  0  0  0  0  0  0  0
    4.5840   -3.0010   25.3570 O   0  0  0  0  0  0  0  0  0  0  0  0
    6.3730   -3.3080   26.7580 N   0  0  0  0  0  0  0  0  0  0  0  0
    6.1960   -4.1680   27.8810 C   0  0  0  0  0  0  0  0  0  0  0  0
    5.9440   -5.6110   27.8000 C   0  0  0  0  0  0  0  0  0  0  0  0
    4.6520   -5.8350   26.9950 C   0  0  0  0  0  0  0  0  0  0  0  0
    3.6860   -6.6110   27.6030 C   0  0  0  0  0  0  0  0  0  0  0  0
    2.5300   -6.5640   26.8430 F   0  0  0  0  0  0  0  0  0  0  0  0
    6.8140   -2.6650   23.3330 C   0  0  0  0  0  0  0  0  0  0  0  0
    7.5800   -3.1330   22.1500 C   0  0  0  0  0  0  0  0  0  0  0  0
  1  2  1  0
  2  3  2  0
  2  4  1  0
  4  5  1  0
  5  6  1  0
  6  7  1  0
  7  8  1  0
  8  9  2  0
  8 10  1  0
 10 11  1  0
 11 12  1  0
 12 13  1  0
 13 14  1  0
 14 15  1  0
  7 16  1  0
  4 17  1  0
 16 17  1  0
M  END
