piperidine-amides-31240-covalent
     RDKit          3D

 28 31  0  0  0  0  0  0  0  0999 V2000
    7.1660   -3.2760   19.1050 C   0  0  0  0  0  0  0  0  0  0  0  0
    6.3940   -3.9960   20.1160 C   0  0  0  0  0  0  0  0  0  0  0  0
    5.2870   -4.4860   19.8490 O   0  0  0  0  0  0  0  0  0  0  0  0
    6.9390   -4.1910   21.3740 N   0  0  0  0  0  0  0  0  0  0  0  0
    6.7300   -5.4240   22.0990 C   0  0  0  0  0  0  0  0  0  0  0  0
    5.9920   -5.0160   23.3310 C   0  0  0  0  0  0  0  0  0  0  0  0
    6.7190   -3.9020   24.0120 C   0  0  0  0  0  0  0  0  0  0  0  0
    5.9390   -3.3820   25.1100 C   0  0  0  0  0  0  0  0  0  0  0  0
    5.0830   -2.4600   24.9740 O   0  0  0  0  0  0  0  0  0  0  0  0
    6.1090   -3.9290   26.3470 N   0  0  0  0  0  0  0  0  0  0  0  0
    5.6670   -3.1450   27.4720 C   0  0  0  0  0  0  0  0  0  0  0  0
    5.0960   -4.1150   28.3830 C   0  0  2  0  0  0  0  0  0  0  0  0
    3.7340   -3.8720   28.9060 C   0  0  0  0  0  0  0  0  0  0  0  0
    5.9580   -4.2740   29.5020 C   0  0  0  0  0  0  0  0  0  0  0  0
    6.0390   -5.6320   29.8560 N   0  0  0  0  0  0  0  0  0  0  0  0
    4.6850   -5.9180   30.3470 C   0  0  0  0  0  0  0  0  0  0  0  0
    4.7430   -6.5600   31.6820 C   0  0  0  0  0  0  0  0  0  0  0  0
    5.5530   -7.6600   31.8770 C   0  0  0  0  0  0  0  0  0  0  0  0
    5.7020   -8.3660   33.0660 C   0  0  0  0  0  0  0  0  0  0  0  0
    4.9290   -7.9070   34.2420 C   0  0  0  0  0  0  0  0  0  0  0  0
    4.0370   -6.7030   34.0520 C   0  0  0  0  0  0  0  0  0  0  0  0
    3.8680   -5.9280   32.7550 C   0  0  0  0  0  0  0  0  0  0  0  0
    6.1150   -6.3500   28.6900 C   0  0  0  0  0  0  0  0  0  0  0  0
    5.3120   -5.4670   27.7760 C   0  0  1  0  0  0  0  0  0  0  0  0
    4.4500   -5.8810   26.7810 C   0  0  0  0  0  0  0  0  0  0  0  0
    5.8090   -5.3080   26.3980 C   0  0  0  0  0  0  0  0  0  0  0  0
    7.0720   -2.7380   23.1920 C   0  0  0  0  0  0  0  0  0  0  0  0
    7.7880   -3.1910   21.9800 C   0  0  0  0  0  0  0  0  0  0  0  0
  1  2  1  0
  2  3  2  0
  2  4  1  0
  4  5  1  0
  5  6  1  0
  6  7  1  0
  7  8  1  0
  8  9  2  0
  8 10  1  0
 10 11  1  0
 11 12  1  0
 12 13  1  1
 12 14  1  0
 14 15  1  0
 15 16  1  0
 16 17  1  0
 17 18  2  0
 18 19  1  0
 19 20  2  0
 20 21  1  0
 17 22  1  0
 21 22  2  0
 15 23  1  0
 12 24  1  0
 23 24  1  0
 24 25  1  6
 10 26  1  0
 24 26  1  0
  7 27  1  0
  4 28  1  0
 27 28  1  0
M  END
