piperidine-amides-19347-covalent
     RDKit          3D

 22 23  0  0  0  0  0  0  0  0999 V2000
    7.1440   -3.2990   19.3780 C   0  0  0  0  0  0  0  0  0  0  0  0
    6.3580   -4.0410   20.3440 C   0  0  0  0  0  0  0  0  0  0  0  0
    5.3350   -4.6710   19.9280 O   0  0  0  0  0  0  0  0  0  0  0  0
    6.7080   -4.1180   21.7100 N   0  0  0  0  0  0  0  0  0  0  0  0
    7.6920   -3.1010   22.1850 C   0  0  0  0  0  0  0  0  0  0  0  0
    7.5180   -3.1490   23.7530 C   0  0  0  0  0  0  0  0  0  0  0  0
    6.1340   -3.6950   23.9650 C   0  0  0  0  0  0  0  0  0  0  0  0
    5.4750   -3.4690   25.4000 C   0  0  0  0  0  0  0  0  0  0  0  0
    4.4060   -4.0510   25.4500 O   0  0  0  0  0  0  0  0  0  0  0  0
    6.2080   -2.7340   26.1340 N   0  0  0  0  0  0  0  0  0  0  0  0
    6.9220   -1.6320   26.4920 C   0  0  0  0  0  0  0  0  0  0  0  0
    6.2080   -3.3790   27.4000 C   0  0  2  0  0  0  0  0  0  0  0  0
    5.8530   -4.7570   27.5500 C   0  0  0  0  0  0  0  0  0  0  0  0
    6.4910   -5.4230   28.7070 C   0  0  0  0  0  0  0  0  0  0  0  0
    5.0600   -2.9620   28.3280 C   0  0  0  0  0  0  0  0  0  0  0  0
    5.4030   -1.9460   29.2220 C   0  0  0  0  0  0  0  0  0  0  0  0
    4.5260   -1.4350   30.1240 C   0  0  0  0  0  0  0  0  0  0  0  0
    3.3160   -1.8780   30.1930 N   0  0  0  0  0  0  0  0  0  0  0  0
    2.8940   -2.9300   29.2970 C   0  0  0  0  0  0  0  0  0  0  0  0
    3.7110   -3.7010   28.1500 C   0  0  0  0  0  0  0  0  0  0  0  0
    6.0690   -5.1810   23.5960 C   0  0  0  0  0  0  0  0  0  0  0  0
    6.6760   -5.4040   22.3880 C   0  0  0  0  0  0  0  0  0  0  0  0
  1  2  1  0
  2  3  2  0
  2  4  1  0
  4  5  1  0
  5  6  1  0
  6  7  1  0
  7  8  1  0
  8  9  2  0
  8 10  1  0
 10 11  1  0
 10 12  1  0
 12 13  1  6
 13 14  1  0
 12 15  1  0
 15 16  2  0
 16 17  1  0
 17 18  2  0
 18 19  1  0
 15 20  1  0
 19 20  2  0
  7 21  1  0
  4 22  1  0
 21 22  1  0
M  END
