piperidine-amides-11167-covalent
     RDKit          3D

 20 20  0  0  0  0  0  0  0  0999 V2000
    7.1410   -3.2700   19.1560 C   0  0  0  0  0  0  0  0  0  0  0  0
    6.3750   -3.9990   20.1690 C   0  0  0  0  0  0  0  0  0  0  0  0
    5.2860   -4.5160   19.8660 O   0  0  0  0  0  0  0  0  0  0  0  0
    6.8770   -4.1720   21.4610 N   0  0  0  0  0  0  0  0  0  0  0  0
    7.7770   -3.2160   22.0670 C   0  0  0  0  0  0  0  0  0  0  0  0
    7.0750   -2.7410   23.2920 C   0  0  0  0  0  0  0  0  0  0  0  0
    6.6050   -3.8820   24.1360 C   0  0  0  0  0  0  0  0  0  0  0  0
    5.8970   -3.3850   25.3180 C   0  0  0  0  0  0  0  0  0  0  0  0
    4.6270   -3.3580   25.3750 O   0  0  0  0  0  0  0  0  0  0  0  0
    6.6190   -2.9090   26.4160 N   0  0  0  0  0  0  0  0  0  0  0  0
    6.7430   -3.7160   27.6380 C   0  0  2  0  0  0  0  0  0  0  0  0
    7.8210   -3.1520   28.4540 C   0  0  0  0  0  0  0  0  0  0  0  0
    7.5710   -2.2010   27.5450 N   0  0  0  0  0  0  0  0  0  0  0  0
    8.6550   -2.2840   28.8080 O   0  0  0  0  0  0  0  0  0  0  0  0
    7.0320   -5.1980   27.3410 C   0  0  0  0  0  0  0  0  0  0  0  0
    8.4020   -5.1950   26.6940 C   0  0  0  0  0  0  0  0  0  0  0  0
    5.9550   -5.7860   26.4950 C   0  0  0  0  0  0  0  0  0  0  0  0
    7.1070   -6.0460   28.6270 C   0  0  0  0  0  0  0  0  0  0  0  0
    5.7480   -4.8240   23.3200 C   0  0  0  0  0  0  0  0  0  0  0  0
    6.4480   -5.3200   22.2200 C   0  0  0  0  0  0  0  0  0  0  0  0
  1  2  1  0
  2  3  2  0
  2  4  1  0
  4  5  1  0
  5  6  1  0
  6  7  1  0
  7  8  1  0
  8  9  2  0
  8 10  1  0
 11 10  1  6
 11 12  1  0
 12 13  1  0
 12 14  2  0
 11 15  1  0
 15 16  1  0
 15 17  1  0
 15 18  1  0
  7 19  1  0
  4 20  1  0
 19 20  1  0
M  END
