piperidine-amides-23420-covalent
     RDKit          3D

 24 26  0  0  0  0  0  0  0  0999 V2000
    6.9980   -3.3830   19.3830 C   0  0  0  0  0  0  0  0  0  0  0  0
    6.3810   -4.2460   20.4090 C   0  0  0  0  0  0  0  0  0  0  0  0
    5.4110   -4.9380   20.0090 O   0  0  0  0  0  0  0  0  0  0  0  0
    6.8750   -4.3350   21.7540 N   0  0  0  0  0  0  0  0  0  0  0  0
    6.6620   -5.5530   22.4730 C   0  0  0  0  0  0  0  0  0  0  0  0
    6.2170   -5.3290   23.8360 C   0  0  0  0  0  0  0  0  0  0  0  0
    6.1180   -3.8970   24.1150 C   0  0  0  0  0  0  0  0  0  0  0  0
    5.4990   -3.5620   25.4670 C   0  0  0  0  0  0  0  0  0  0  0  0
    4.3350   -3.1240   25.4340 O   0  0  0  0  0  0  0  0  0  0  0  0
    6.0770   -3.6770   26.7670 N   0  0  0  0  0  0  0  0  0  0  0  0
    6.2260   -4.8320   27.5470 C   0  0  0  0  0  0  0  0  0  0  0  0
    5.4090   -5.0840   28.6590 C   0  0  1  0  0  0  0  0  0  0  0  0
    6.0500   -6.2670   29.4120 C   0  0  0  0  0  0  0  0  0  0  0  0
    5.4120   -4.1520   29.5130 O   0  0  0  0  0  0  0  0  0  0  0  0
    5.2360   -2.9160   28.8700 C   0  0  1  0  0  0  0  0  0  0  0  0
    5.5270   -1.8330   29.9150 C   0  0  0  0  0  0  0  0  0  0  0  0
    6.9430   -1.4200   29.6690 C   0  0  0  0  0  0  0  0  0  0  0  0
    7.2510   -0.3220   30.7200 C   0  0  0  0  0  0  0  0  0  0  0  0
    6.4010    0.3040   31.8240 C   0  0  0  0  0  0  0  0  0  0  0  0
    4.9870   -0.2420   31.9230 C   0  0  0  0  0  0  0  0  0  0  0  0
    4.5720   -1.3260   30.9420 C   0  0  0  0  0  0  0  0  0  0  0  0
    5.9270   -2.5270   27.5950 C   0  0  0  0  0  0  0  0  0  0  0  0
    7.3630   -3.1660   23.7270 C   0  0  0  0  0  0  0  0  0  0  0  0
    7.6190   -3.2260   22.3460 C   0  0  0  0  0  0  0  0  0  0  0  0
  1  2  1  0
  2  3  2  0
  2  4  1  0
  4  5  1  0
  5  6  1  0
  6  7  1  0
  7  8  1  0
  8  9  2  0
  8 10  1  0
 10 11  1  0
 11 12  1  0
 12 13  1  1
 12 14  1  0
 14 15  1  0
 15 16  1  1
 16 17  2  0
 17 18  1  0
 18 19  2  0
 19 20  1  0
 16 21  1  0
 20 21  2  0
 10 22  1  0
 15 22  1  0
  7 23  1  0
  4 24  1  0
 23 24  1  0
M  END
