piperidine-amides-29711-covalent
     RDKit          3D

 27 29  0  0  0  0  0  0  0  0999 V2000
    7.0130   -3.3740   19.4390 C   0  0  0  0  0  0  0  0  0  0  0  0
    6.3710   -4.2670   20.4000 C   0  0  0  0  0  0  0  0  0  0  0  0
    5.4360   -4.9760   20.0160 O   0  0  0  0  0  0  0  0  0  0  0  0
    6.8440   -4.3540   21.7700 N   0  0  0  0  0  0  0  0  0  0  0  0
    7.6830   -3.2900   22.3050 C   0  0  0  0  0  0  0  0  0  0  0  0
    7.3730   -3.0100   23.7530 C   0  0  0  0  0  0  0  0  0  0  0  0
    6.0200   -3.6330   24.0140 C   0  0  0  0  0  0  0  0  0  0  0  0
    5.3500   -3.1230   25.2690 C   0  0  0  0  0  0  0  0  0  0  0  0
    4.6760   -2.0880   25.2160 O   0  0  0  0  0  0  0  0  0  0  0  0
    5.4030   -3.7410   26.5530 N   0  0  0  0  0  0  0  0  0  0  0  0
    6.4690   -3.3880   27.3610 C   0  0  0  0  0  0  0  0  0  0  0  0
    6.5770   -4.5730   28.3120 C   0  0  0  0  0  0  0  0  0  0  0  0
    5.4730   -4.7400   29.1030 C   0  0  0  0  0  0  0  0  0  0  0  0
    5.5310   -5.8320   30.0320 N   0  0  0  0  0  0  0  0  0  0  0  0
    4.3330   -5.7590   30.8380 C   0  0  0  0  0  0  0  0  0  0  0  0
    3.7990   -4.4810   31.0790 O   0  0  0  0  0  0  0  0  0  0  0  0
    3.6950   -6.8750   31.3530 C   0  0  0  0  0  0  0  0  0  0  0  0
    2.3960   -7.3120   30.8770 C   0  0  0  0  0  0  0  0  0  0  0  0
    1.7030   -8.3820   31.3470 C   0  0  0  0  0  0  0  0  0  0  0  0
    2.2320   -9.1340   32.3490 C   0  0  0  0  0  0  0  0  0  0  0  0
    3.4800   -8.7980   32.8730 C   0  0  0  0  0  0  0  0  0  0  0  0
    4.2660   -7.6360   32.3780 C   0  0  0  0  0  0  0  0  0  0  0  0
    5.4960   -7.3230   32.9050 C   0  0  0  0  0  0  0  0  0  0  0  0
    4.2910   -4.7340   28.3530 C   0  0  0  0  0  0  0  0  0  0  0  0
    4.1440   -3.8040   27.1860 C   0  0  0  0  0  0  0  0  0  0  0  0
    6.0350   -5.1180   23.9140 C   0  0  0  0  0  0  0  0  0  0  0  0
    6.5900   -5.5400   22.5580 C   0  0  0  0  0  0  0  0  0  0  0  0
  1  2  1  0
  2  3  2  0
  2  4  1  0
  4  5  1  0
  5  6  1  0
  6  7  1  0
  7  8  1  0
  8  9  2  0
  8 10  1  0
 10 11  1  0
 11 12  1  0
 12 13  1  0
 13 14  1  0
 14 15  1  0
 15 16  2  0
 15 17  1  0
 17 18  2  0
 18 19  1  0
 19 20  2  0
 20 21  1  0
 17 22  1  0
 21 22  2  0
 22 23  1  0
 13 24  1  0
 10 25  1  0
 24 25  1  0
  7 26  1  0
  4 27  1  0
 26 27  1  0
M  END
