piperidine-amides-62-covalent
     RDKit          3D

 26 28  0  0  0  0  0  0  0  0999 V2000
    7.1000   -3.3050   19.4150 C   0  0  0  0  0  0  0  0  0  0  0  0
    6.3810   -4.1130   20.3830 C   0  0  0  0  0  0  0  0  0  0  0  0
    5.4040   -4.8180   19.9740 O   0  0  0  0  0  0  0  0  0  0  0  0
    6.7380   -4.1680   21.7520 N   0  0  0  0  0  0  0  0  0  0  0  0
    7.7070   -3.1160   22.1960 C   0  0  0  0  0  0  0  0  0  0  0  0
    7.4690   -2.9600   23.7560 C   0  0  0  0  0  0  0  0  0  0  0  0
    6.2580   -3.7870   24.0670 C   0  0  0  0  0  0  0  0  0  0  0  0
    5.5290   -3.4590   25.4500 C   0  0  0  0  0  0  0  0  0  0  0  0
    4.5580   -4.1870   25.5670 O   0  0  0  0  0  0  0  0  0  0  0  0
    6.0930   -2.5180   26.1050 N   0  0  0  0  0  0  0  0  0  0  0  0
    6.5340   -1.4840   26.8850 C   0  0  2  0  0  0  0  0  0  0  0  0
    7.1170   -1.3670   28.1240 C   0  0  0  0  0  0  0  0  0  0  0  0
    6.5010   -0.3440   28.8270 C   0  0  0  0  0  0  0  0  0  0  0  0
    5.8640    0.4770   28.0130 N   0  0  0  0  0  0  0  0  0  0  0  0
    5.0130    1.2940   28.7300 C   0  0  0  0  0  0  0  0  0  0  0  0
    5.4970   -0.3410   26.8410 C   0  0  1  0  0  0  0  0  0  0  0  0
    5.5640    0.5630   25.7680 C   0  0  0  0  0  0  0  0  0  0  0  0
    4.8610    0.0700   24.6080 C   0  0  0  0  0  0  0  0  0  0  0  0
    5.1240    1.2730   23.6600 C   0  0  0  0  0  0  0  0  0  0  0  0
    5.9080    2.5880   23.9070 C   0  0  0  0  0  0  0  0  0  0  0  0
    6.0780    3.8220   22.6780 Cl  0  0  0  0  0  0  0  0  0  0  0  0
    6.4470    2.7340   25.1100 C   0  0  0  0  0  0  0  0  0  0  0  0
    7.1430    3.8830   25.3560 F   0  0  0  0  0  0  0  0  0  0  0  0
    6.2720    1.7410   26.0040 C   0  0  0  0  0  0  0  0  0  0  0  0
    6.4430   -5.2640   23.7790 C   0  0  0  0  0  0  0  0  0  0  0  0
    6.6660   -5.4410   22.4330 C   0  0  0  0  0  0  0  0  0  0  0  0
  1  2  1  0
  2  3  2  0
  2  4  1  0
  4  5  1  0
  5  6  1  0
  6  7  1  0
  7  8  1  0
  8  9  2  0
  8 10  1  0
 11 10  1  1
 11 12  1  0
 12 13  1  0
 13 14  1  0
 14 15  1  0
 11 16  1  0
 14 16  1  0
 16 17  1  6
 17 18  2  0
 18 19  1  0
 19 20  2  0
 20 21  1  0
 20 22  1  0
 22 23  1  0
 17 24  1  0
 22 24  2  0
  7 25  1  0
  4 26  1  0
 25 26  1  0
M  END
