piperidine-amides-4023-covalent
     RDKit          3D

 28 30  0  0  0  0  0  0  0  0999 V2000
    7.0510   -3.3220   19.2720 C   0  0  0  0  0  0  0  0  0  0  0  0
    6.3710   -4.1130   20.3170 C   0  0  0  0  0  0  0  0  0  0  0  0
    5.3410   -4.7320   19.9530 O   0  0  0  0  0  0  0  0  0  0  0  0
    6.8800   -4.2220   21.6480 N   0  0  0  0  0  0  0  0  0  0  0  0
    6.4820   -5.3290   22.4430 C   0  0  0  0  0  0  0  0  0  0  0  0
    6.0330   -5.0030   23.8100 C   0  0  0  0  0  0  0  0  0  0  0  0
    6.4010   -3.6830   24.3960 C   0  0  0  0  0  0  0  0  0  0  0  0
    5.3530   -3.2720   25.4130 C   0  0  0  0  0  0  0  0  0  0  0  0
    4.2630   -2.8770   24.9730 O   0  0  0  0  0  0  0  0  0  0  0  0
    5.5150   -3.3130   26.8340 N   0  0  0  0  0  0  0  0  0  0  0  0
    6.1030   -4.3150   27.6500 C   0  0  0  0  0  0  0  0  0  0  0  0
    5.5550   -4.9750   28.8390 C   0  0  0  0  0  0  0  0  0  0  0  0
    6.2110   -6.3450   29.0800 C   0  0  0  0  0  0  0  0  0  0  0  0
    5.5050   -6.9580   30.4570 S   0  0  0  0  0  0  0  0  0  0  0  0
    4.4070   -5.6150   30.8050 C   0  0  0  0  0  0  0  0  0  0  0  0
    3.5130   -5.7140   32.0570 C   0  0  0  0  0  0  0  0  0  0  0  0
    4.3140   -6.1650   33.1730 N   0  0  0  0  0  0  0  0  0  0  0  0
    4.4750   -7.6250   33.0260 C   0  0  0  0  0  0  0  0  0  0  0  0
    3.8540   -8.5570   32.2020 O   0  0  0  0  0  0  0  0  0  0  0  0
    5.5590   -8.0010   34.0480 C   0  0  0  0  0  0  0  0  0  0  0  0
    6.1150   -6.9540   34.9860 C   0  0  0  0  0  0  0  0  0  0  0  0
    7.1840   -7.3940   35.9620 C   0  0  0  0  0  0  0  0  0  0  0  0
    7.6750   -8.8400   36.0000 C   0  0  0  0  0  0  0  0  0  0  0  0
    7.0140   -9.7260   35.0130 C   0  0  0  0  0  0  0  0  0  0  0  0
    6.0290   -9.3350   34.1040 C   0  0  0  0  0  0  0  0  0  0  0  0
    4.6060   -4.6760   29.8040 N   0  0  0  0  0  0  0  0  0  0  0  0
    6.6870   -2.6020   23.4020 C   0  0  0  0  0  0  0  0  0  0  0  0
    7.5460   -3.1100   22.2640 C   0  0  0  0  0  0  0  0  0  0  0  0
  1  2  1  0
  2  3  2  0
  2  4  1  0
  4  5  1  0
  5  6  1  0
  6  7  1  0
  7  8  1  0
  8  9  2  0
  8 10  1  0
 10 11  1  0
 11 12  1  0
 12 13  2  0
 13 14  1  0
 14 15  1  0
 15 16  1  0
 16 17  1  0
 17 18  1  0
 18 19  2  0
 18 20  1  0
 20 21  2  0
 21 22  1  0
 22 23  2  0
 23 24  1  0
 20 25  1  0
 24 25  2  0
 12 26  1  0
 15 26  2  0
  7 27  1  0
  4 28  1  0
 27 28  1  0
M  END
