piperidine-amides-12441-covalent
     RDKit          3D

 24 25  0  0  0  0  0  0  0  0999 V2000
    7.1080   -3.2490   19.1980 C   0  0  0  0  0  0  0  0  0  0  0  0
    6.3200   -3.9830   20.1880 C   0  0  0  0  0  0  0  0  0  0  0  0
    5.2680   -4.5300   19.8690 O   0  0  0  0  0  0  0  0  0  0  0  0
    6.7970   -4.1150   21.5310 N   0  0  0  0  0  0  0  0  0  0  0  0
    7.6680   -3.0950   22.0650 C   0  0  0  0  0  0  0  0  0  0  0  0
    7.5390   -2.9600   23.5570 C   0  0  0  0  0  0  0  0  0  0  0  0
    6.2360   -3.5910   24.0200 C   0  0  0  0  0  0  0  0  0  0  0  0
    6.1190   -3.4220   25.4890 C   0  0  0  0  0  0  0  0  0  0  0  0
    5.0420   -3.0830   26.0300 O   0  0  0  0  0  0  0  0  0  0  0  0
    7.2780   -3.6520   26.2890 N   0  0  0  0  0  0  0  0  0  0  0  0
    7.1690   -4.5600   27.4110 C   0  0  0  0  0  0  0  0  0  0  0  0
    8.5310   -5.1140   27.7710 C   0  0  0  0  0  0  0  0  0  0  0  0
    9.3780   -5.8090   26.3580 S   0  0  0  0  0  0  0  0  0  0  0  0
    8.3650   -5.7670   25.2590 O   0  0  0  0  0  0  0  0  0  0  0  0
   10.3030   -4.9060   25.7110 O   0  0  0  0  0  0  0  0  0  0  0  0
   10.2320   -7.4320   26.5910 N   0  0  0  0  0  0  0  0  0  0  0  0
    9.9670   -9.0370   26.4440 C   0  0  0  0  0  0  0  0  0  0  0  0
    9.4760   -8.9570   25.1790 C   0  0  0  0  0  0  0  0  0  0  0  0
    8.5460  -10.3480   24.6500 C   0  0  0  0  0  0  0  0  0  0  0  0
    8.5620  -11.8690   25.9200 C   0  0  0  0  0  0  0  0  0  0  0  0
    9.5360  -11.6680   27.7480 C   0  0  0  0  0  0  0  0  0  0  0  0
   10.0650  -10.5750   27.8460 C   0  0  0  0  0  0  0  0  0  0  0  0
    5.9820   -4.9850   23.5720 C   0  0  0  0  0  0  0  0  0  0  0  0
    6.4970   -5.3060   22.2430 C   0  0  0  0  0  0  0  0  0  0  0  0
  1  2  1  0
  2  3  2  0
  2  4  1  0
  4  5  1  0
  5  6  1  0
  6  7  1  0
  7  8  1  0
  8  9  2  0
  8 10  1  0
 10 11  1  0
 11 12  1  0
 12 13  1  0
 13 14  2  0
 13 15  2  0
 13 16  1  0
 16 17  1  0
 17 18  2  0
 18 19  1  0
 19 20  2  0
 20 21  1  0
 17 22  1  0
 21 22  2  0
  7 23  1  0
  4 24  1  0
 23 24  1  0
M  END
