piperidine-amides-6854-covalent
     RDKit          3D

 23 25  0  0  0  0  0  0  0  0999 V2000
    7.1560   -3.2880   19.2710 C   0  0  0  0  0  0  0  0  0  0  0  0
    6.3640   -4.0600   20.2350 C   0  0  0  0  0  0  0  0  0  0  0  0
    5.2850   -4.5880   19.8960 O   0  0  0  0  0  0  0  0  0  0  0  0
    6.8530   -4.2520   21.5270 N   0  0  0  0  0  0  0  0  0  0  0  0
    7.7040   -3.2570   22.1280 C   0  0  0  0  0  0  0  0  0  0  0  0
    6.9220   -2.7000   23.3090 C   0  0  0  0  0  0  0  0  0  0  0  0
    6.5220   -3.9040   24.1250 C   0  0  0  0  0  0  0  0  0  0  0  0
    5.8220   -3.4440   25.3280 C   0  0  0  0  0  0  0  0  0  0  0  0
    4.5800   -3.5750   25.4050 O   0  0  0  0  0  0  0  0  0  0  0  0
    6.5840   -2.8530   26.3510 N   0  0  0  0  0  0  0  0  0  0  0  0
    6.2090   -2.9880   27.7220 C   0  0  0  0  0  0  0  0  0  0  0  0
    6.2710   -1.5890   28.3050 C   0  0  0  0  0  0  0  0  0  0  0  0
    7.0170   -1.4570   29.5470 N   0  0  0  0  0  0  0  0  0  0  0  0
    7.1310   -0.1510   30.1700 C   0  0  0  0  0  0  0  0  0  0  0  0
    6.4480    0.6770   29.3550 C   0  0  0  0  0  0  0  0  0  0  0  0
    5.7000   -0.0360   27.9180 S   0  0  0  0  0  0  0  0  0  0  0  0
    6.3100    2.0390   29.5910 C   0  0  0  0  0  0  0  0  0  0  0  0
    6.8130    2.4670   30.7960 C   0  0  1  0  0  0  0  0  0  0  0  0
    6.0680    2.5840   32.1130 C   0  0  0  0  0  0  0  0  0  0  0  0
    7.1840    1.5150   31.8870 C   0  0  0  0  0  0  0  0  0  0  0  0
    7.7570    0.2510   31.3000 C   0  0  0  0  0  0  0  0  0  0  0  0
    5.6370   -4.8320   23.3250 C   0  0  0  0  0  0  0  0  0  0  0  0
    6.4350   -5.3840   22.3140 C   0  0  0  0  0  0  0  0  0  0  0  0
  1  2  1  0
  2  3  2  0
  2  4  1  0
  4  5  1  0
  5  6  1  0
  6  7  1  0
  7  8  1  0
  8  9  2  0
  8 10  1  0
 10 11  1  0
 11 12  1  0
 12 13  2  0
 13 14  1  0
 14 15  2  0
 12 16  1  0
 15 16  1  0
 15 17  1  0
 17 18  1  0
 18 19  1  1
 18 20  1  0
 14 21  1  0
 20 21  1  0
  7 22  1  0
  4 23  1  0
 22 23  1  0
M  END
