piperidine-amides-30988-covalent
     RDKit          3D

 27 29  0  0  0  0  0  0  0  0999 V2000
    7.0760   -3.2700   19.3230 C   0  0  0  0  0  0  0  0  0  0  0  0
    6.3240   -4.0550   20.3130 C   0  0  0  0  0  0  0  0  0  0  0  0
    5.2970   -4.6350   19.9220 O   0  0  0  0  0  0  0  0  0  0  0  0
    6.7210   -4.2360   21.6660 N   0  0  0  0  0  0  0  0  0  0  0  0
    6.6160   -5.5260   22.2950 C   0  0  0  0  0  0  0  0  0  0  0  0
    6.5410   -5.1420   23.7370 C   0  0  0  0  0  0  0  0  0  0  0  0
    5.9480   -3.7760   23.8180 C   0  0  0  0  0  0  0  0  0  0  0  0
    5.4720   -3.3640   25.1770 C   0  0  0  0  0  0  0  0  0  0  0  0
    4.2240   -3.2620   25.3650 O   0  0  0  0  0  0  0  0  0  0  0  0
    6.2740   -3.0570   26.3050 N   0  0  0  0  0  0  0  0  0  0  0  0
    6.7160   -1.6410   26.3870 C   0  0  0  0  0  0  0  0  0  0  0  0
    6.3490   -1.0100   27.6830 C   0  0  0  0  0  0  0  0  0  0  0  0
    7.2070   -1.0440   28.9050 C   0  0  0  0  0  0  0  0  0  0  0  0
    6.5020   -0.3170   29.9040 N   0  0  0  0  0  0  0  0  0  0  0  0
    6.9960   -0.0950   31.2840 C   0  0  0  0  0  0  0  0  0  0  0  0
    6.0810    0.7130   32.1960 C   0  0  0  0  0  0  0  0  0  0  0  0
    4.8180    1.1450   31.5100 C   0  0  0  0  0  0  0  0  0  0  0  0
    4.5090    0.8500   30.2010 C   0  0  0  0  0  0  0  0  0  0  0  0
    5.3100    0.1190   29.3320 C   0  0  0  0  0  0  0  0  0  0  0  0
    5.1900   -0.2700   28.0350 N   0  0  0  0  0  0  0  0  0  0  0  0
    6.1310   -3.6910   27.5780 C   0  0  0  0  0  0  0  0  0  0  0  0
    5.8520   -5.2040   27.6980 C   0  0  0  0  0  0  0  0  0  0  0  0
    4.5880   -5.4730   28.1670 F   0  0  0  0  0  0  0  0  0  0  0  0
    6.7070   -5.8340   28.6030 F   0  0  0  0  0  0  0  0  0  0  0  0
    5.9000   -5.8590   26.4620 F   0  0  0  0  0  0  0  0  0  0  0  0
    6.8440   -2.7490   23.0840 C   0  0  0  0  0  0  0  0  0  0  0  0
    7.6320   -3.2540   22.2920 C   0  0  0  0  0  0  0  0  0  0  0  0
  1  2  1  0
  2  3  2  0
  2  4  1  0
  4  5  1  0
  5  6  1  0
  6  7  1  0
  7  8  1  0
  8  9  2  0
  8 10  1  0
 10 11  1  0
 11 12  1  0
 12 13  2  0
 13 14  1  0
 14 15  1  0
 15 16  2  0
 16 17  1  0
 17 18  2  0
 14 19  1  0
 18 19  1  0
 12 20  1  0
 19 20  2  0
 10 21  1  0
 21 22  1  0
 22 23  1  0
 22 24  1  0
 22 25  1  0
  7 26  1  0
  4 27  1  0
 26 27  1  0
M  END
