piperidine-amides-11320-covalent
     RDKit          3D

 17 18  0  0  0  0  0  0  0  0999 V2000
    7.0790   -3.3200   19.2930 C   0  0  0  0  0  0  0  0  0  0  0  0
    6.3510   -4.1260   20.2720 C   0  0  0  0  0  0  0  0  0  0  0  0
    5.2960   -4.6730   19.9270 O   0  0  0  0  0  0  0  0  0  0  0  0
    6.8420   -4.3490   21.5680 N   0  0  0  0  0  0  0  0  0  0  0  0
    6.4880   -5.5440   22.2880 C   0  0  0  0  0  0  0  0  0  0  0  0
    5.7270   -5.0500   23.4890 C   0  0  0  0  0  0  0  0  0  0  0  0
    6.4920   -4.0010   24.2430 C   0  0  0  0  0  0  0  0  0  0  0  0
    5.7610   -3.5030   25.4360 C   0  0  0  0  0  0  0  0  0  0  0  0
    4.4940   -3.3770   25.4430 O   0  0  0  0  0  0  0  0  0  0  0  0
    6.4090   -3.1350   26.6270 N   0  0  0  0  0  0  0  0  0  0  0  0
    5.9810   -1.9490   27.3780 C   0  0  0  0  0  0  0  0  0  0  0  0
    4.6600   -2.0620   28.0370 C   0  0  0  0  0  0  0  0  0  0  0  0
    3.9550   -0.8380   28.4620 C   0  0  0  0  0  0  0  0  0  0  0  0
    6.2140   -0.6000   26.7370 C   0  0  0  0  0  0  0  0  0  0  0  0
    6.8310   -0.8980   27.9910 C   0  0  0  0  0  0  0  0  0  0  0  0
    6.8400   -2.8560   23.3580 C   0  0  0  0  0  0  0  0  0  0  0  0
    7.4760   -3.2410   22.2110 C   0  0  0  0  0  0  0  0  0  0  0  0
  1  2  1  0
  2  3  2  0
  2  4  1  0
  4  5  1  0
  5  6  1  0
  6  7  1  0
  7  8  1  0
  8  9  2  0
  8 10  1  0
 10 11  1  0
 11 12  1  0
 12 13  3  0
 11 14  1  0
 11 15  1  0
 14 15  1  0
  7 16  1  0
  4 17  1  0
 16 17  1  0
M  END
