piperidine-amides-4103-covalent
     RDKit          3D

 27 29  0  0  0  0  0  0  0  0999 V2000
    7.1240   -3.3160   19.2650 C   0  0  0  0  0  0  0  0  0  0  0  0
    6.4220   -4.1320   20.2670 C   0  0  0  0  0  0  0  0  0  0  0  0
    5.3330   -4.6450   19.9190 O   0  0  0  0  0  0  0  0  0  0  0  0
    6.9770   -4.3830   21.5410 N   0  0  0  0  0  0  0  0  0  0  0  0
    7.6240   -3.2850   22.1680 C   0  0  0  0  0  0  0  0  0  0  0  0
    7.0540   -2.8930   23.4490 C   0  0  0  0  0  0  0  0  0  0  0  0
    6.4180   -3.9700   24.2430 C   0  0  0  0  0  0  0  0  0  0  0  0
    5.6950   -3.3800   25.4100 C   0  0  0  0  0  0  0  0  0  0  0  0
    4.4630   -3.2090   25.3400 O   0  0  0  0  0  0  0  0  0  0  0  0
    6.3670   -3.0100   26.5850 N   0  0  0  0  0  0  0  0  0  0  0  0
    6.3830   -1.7450   27.2090 C   0  0  0  0  0  0  0  0  0  0  0  0
    5.7950   -0.4740   26.7240 C   0  0  0  0  0  0  0  0  0  0  0  0
    5.9080    0.8300   27.5590 C   0  0  0  0  0  0  0  0  0  0  0  0
    6.5690    0.7970   28.7730 C   0  0  0  0  0  0  0  0  0  0  0  0
    6.4540    2.2470   29.2510 C   0  0  2  0  0  0  0  0  0  0  0  0
    4.9670    2.1110   29.2580 C   0  0  0  0  0  0  0  0  0  0  0  0
    6.9850    3.1030   27.8700 S   0  0  0  0  0  0  0  0  0  0  0  0
    6.0200    4.6090   27.7650 C   0  0  0  0  0  0  0  0  0  0  0  0
    6.1270    5.4240   26.4940 C   0  0  0  0  0  0  0  0  0  0  0  0
    5.2970    6.6900   26.4380 C   0  0  0  0  0  0  0  0  0  0  0  0
    4.4040    7.1100   27.6040 C   0  0  0  0  0  0  0  0  0  0  0  0
    4.4330    6.1820   28.7610 C   0  0  0  0  0  0  0  0  0  0  0  0
    5.1910    5.0100   28.8330 C   0  0  0  0  0  0  0  0  0  0  0  0
    7.1430   -0.3070   29.3080 C   0  0  0  0  0  0  0  0  0  0  0  0
    7.0510   -1.5700   28.5330 C   0  0  0  0  0  0  0  0  0  0  0  0
    5.5570   -4.8680   23.4120 C   0  0  0  0  0  0  0  0  0  0  0  0
    6.4190   -5.4450   22.3110 C   0  0  0  0  0  0  0  0  0  0  0  0
  1  2  1  0
  2  3  2  0
  2  4  1  0
  4  5  1  0
  5  6  1  0
  6  7  1  0
  7  8  1  0
  8  9  2  0
  8 10  1  0
 10 11  1  0
 11 12  2  0
 12 13  1  0
 13 14  2  0
 14 15  1  0
 15 16  1  6
 15 17  1  0
 17 18  1  0
 18 19  2  0
 19 20  1  0
 20 21  2  0
 21 22  1  0
 18 23  1  0
 22 23  2  0
 14 24  1  0
 11 25  1  0
 24 25  2  0
  7 26  1  0
  4 27  1  0
 26 27  1  0
M  END
