piperidine-amides-27768-covalent
     RDKit          3D

 26 28  0  0  0  0  0  0  0  0999 V2000
    7.0920   -3.3500   19.3090 C   0  0  0  0  0  0  0  0  0  0  0  0
    6.4370   -4.2060   20.3180 C   0  0  0  0  0  0  0  0  0  0  0  0
    5.3940   -4.7950   19.9670 O   0  0  0  0  0  0  0  0  0  0  0  0
    7.0110   -4.3720   21.5850 N   0  0  0  0  0  0  0  0  0  0  0  0
    6.6170   -5.4320   22.4430 C   0  0  0  0  0  0  0  0  0  0  0  0
    6.1270   -5.0060   23.7730 C   0  0  0  0  0  0  0  0  0  0  0  0
    6.5970   -3.6860   24.2870 C   0  0  0  0  0  0  0  0  0  0  0  0
    5.6610   -3.1870   25.3270 C   0  0  0  0  0  0  0  0  0  0  0  0
    4.9590   -2.2110   25.0360 O   0  0  0  0  0  0  0  0  0  0  0  0
    5.4960   -3.7740   26.6020 N   0  0  0  0  0  0  0  0  0  0  0  0
    4.1470   -4.0680   27.0720 C   0  0  0  0  0  0  0  0  0  0  0  0
    4.1590   -4.3530   28.5260 C   0  0  0  0  0  0  0  0  0  0  0  0
    5.3180   -4.8020   29.1710 N   0  0  0  0  0  0  0  0  0  0  0  0
    5.1400   -5.7480   30.2290 C   0  0  0  0  0  0  0  0  0  0  0  0
    6.0240   -6.7710   30.2810 C   0  0  0  0  0  0  0  0  0  0  0  0
    5.9150   -7.7030   31.2900 C   0  0  0  0  0  0  0  0  0  0  0  0
    4.9100   -7.5730   32.2120 C   0  0  0  0  0  0  0  0  0  0  0  0
    4.0260   -6.5360   32.1340 C   0  0  0  0  0  0  0  0  0  0  0  0
    4.1300   -5.6190   31.1470 C   0  0  0  0  0  0  0  0  0  0  0  0
    3.2920   -4.5170   30.9700 C   0  0  0  0  0  0  0  0  0  0  0  0
    3.2270   -3.6250   32.1500 C   0  0  0  0  0  0  0  0  0  0  0  0
    2.0470   -4.8890   30.4960 C   0  0  0  0  0  0  0  0  0  0  0  0
    6.5480   -4.5700   28.4700 C   0  0  0  0  0  0  0  0  0  0  0  0
    6.3160   -3.4000   27.7040 C   0  0  0  0  0  0  0  0  0  0  0  0
    6.9650   -2.7270   23.2540 C   0  0  0  0  0  0  0  0  0  0  0  0
    7.8140   -3.3280   22.2070 C   0  0  0  0  0  0  0  0  0  0  0  0
  1  2  1  0
  2  3  2  0
  2  4  1  0
  4  5  1  0
  5  6  1  0
  6  7  1  0
  7  8  1  0
  8  9  2  0
  8 10  1  0
 10 11  1  0
 11 12  1  0
 12 13  1  0
 13 14  1  0
 14 15  2  0
 15 16  1  0
 16 17  2  0
 17 18  1  0
 14 19  1  0
 18 19  2  0
 19 20  1  0
 20 21  1  0
 20 22  1  0
 13 23  1  0
 10 24  1  0
 23 24  1  0
  7 25  1  0
  4 26  1  0
 25 26  1  0
M  END
