piperidine-amides-27298-covalent
     RDKit          3D

 25 26  0  0  0  0  0  0  0  0999 V2000
    6.9970   -3.3560   19.3950 C   0  0  0  0  0  0  0  0  0  0  0  0
    6.3780   -4.2100   20.4190 C   0  0  0  0  0  0  0  0  0  0  0  0
    5.4250   -4.9270   20.0080 O   0  0  0  0  0  0  0  0  0  0  0  0
    6.8540   -4.2410   21.7500 N   0  0  0  0  0  0  0  0  0  0  0  0
    6.7040   -5.4500   22.5430 C   0  0  0  0  0  0  0  0  0  0  0  0
    6.1050   -5.0620   23.8680 C   0  0  0  0  0  0  0  0  0  0  0  0
    6.0920   -3.5680   24.0060 C   0  0  0  0  0  0  0  0  0  0  0  0
    5.5920   -3.1140   25.3470 C   0  0  0  0  0  0  0  0  0  0  0  0
    4.3770   -2.8310   25.3840 O   0  0  0  0  0  0  0  0  0  0  0  0
    6.2950   -2.9770   26.5810 N   0  0  0  0  0  0  0  0  0  0  0  0
    6.2650   -4.1430   27.4410 C   0  0  0  0  0  0  0  0  0  0  0  0
    6.0080   -1.7450   27.3080 C   0  0  2  0  0  0  0  0  0  0  0  0
    5.8370   -0.6100   26.5320 C   0  0  0  0  0  0  0  0  0  0  0  0
    6.0180    0.5650   27.2390 C   0  0  0  0  0  0  0  0  0  0  0  0
    6.6070    0.2080   28.3850 N   0  0  0  0  0  0  0  0  0  0  0  0
    6.3660    0.8570   29.5220 C   0  0  0  0  0  0  0  0  0  0  0  0
    6.1380    2.2160   29.4610 O   0  0  0  0  0  0  0  0  0  0  0  0
    6.3330    0.2410   30.7680 O   0  0  0  0  0  0  0  0  0  0  0  0
    5.1140   -0.1270   31.3390 C   0  0  0  0  0  0  0  0  0  0  0  0
    5.1060   -0.2440   32.7150 C   0  0  0  0  0  0  0  0  0  0  0  0
    4.1740    0.7920   32.1410 C   0  0  0  0  0  0  0  0  0  0  0  0
    4.4060   -1.2300   30.6090 C   0  0  0  0  0  0  0  0  0  0  0  0
    6.8540   -1.2100   28.2780 C   0  0  0  0  0  0  0  0  0  0  0  0
    7.4370   -2.9910   23.6640 C   0  0  0  0  0  0  0  0  0  0  0  0
    7.7150   -3.1770   22.3130 C   0  0  0  0  0  0  0  0  0  0  0  0
  1  2  1  0
  2  3  2  0
  2  4  1  0
  4  5  1  0
  5  6  1  0
  6  7  1  0
  7  8  1  0
  8  9  2  0
  8 10  1  0
 10 11  1  0
 12 10  1  6
 12 13  1  0
 13 14  1  0
 14 15  1  0
 15 16  1  0
 16 17  2  0
 16 18  1  0
 19 18  1  0
 19 20  1  0
 19 21  1  0
 19 22  1  0
 12 23  1  0
 15 23  1  0
  7 24  1  0
  4 25  1  0
 24 25  1  0
M  END
