piperidine-amides-4470-covalent
     RDKit          3D

 25 26  0  0  0  0  0  0  0  0999 V2000
    7.1610   -3.1710   19.0240 C   0  0  0  0  0  0  0  0  0  0  0  0
    6.3100   -3.7610   20.0770 C   0  0  0  0  0  0  0  0  0  0  0  0
    5.2170   -4.2430   19.7310 O   0  0  0  0  0  0  0  0  0  0  0  0
    6.7080   -3.8400   21.4050 N   0  0  0  0  0  0  0  0  0  0  0  0
    5.9930   -4.7440   22.2100 C   0  0  0  0  0  0  0  0  0  0  0  0
    5.5050   -4.1430   23.4420 C   0  0  0  0  0  0  0  0  0  0  0  0
    6.5500   -3.3790   24.1440 C   0  0  0  0  0  0  0  0  0  0  0  0
    6.0650   -2.8810   25.4530 C   0  0  0  0  0  0  0  0  0  0  0  0
    5.0830   -2.1130   25.4810 O   0  0  0  0  0  0  0  0  0  0  0  0
    6.6980   -3.3190   26.6430 N   0  0  0  0  0  0  0  0  0  0  0  0
    6.8290   -4.7740   26.8690 C   0  0  1  0  0  0  0  0  0  0  0  0
    8.1560   -5.1050   27.4700 C   0  0  0  0  0  0  0  0  0  0  0  0
    9.1750   -5.6210   26.5730 C   0  0  0  0  0  0  0  0  0  0  0  0
    5.7710   -5.0740   27.8080 C   0  0  0  0  0  0  0  0  0  0  0  0
    4.6370   -4.6380   27.5350 O   0  0  0  0  0  0  0  0  0  0  0  0
    6.0030   -5.7800   28.9420 O   0  0  0  0  0  0  0  0  0  0  0  0
    5.6270   -7.1460   29.0650 C   0  0  0  0  0  0  0  0  0  0  0  0
    6.4640   -5.4210   25.6080 C   0  0  0  0  0  0  0  0  0  0  0  0
    7.3950   -5.4920   24.5940 C   0  0  0  0  0  0  0  0  0  0  0  0
    7.1270   -6.0720   23.3780 C   0  0  0  0  0  0  0  0  0  0  0  0
    5.8680   -6.6230   23.1280 C   0  0  0  0  0  0  0  0  0  0  0  0
    4.7800   -6.6100   24.1360 C   0  0  0  0  0  0  0  0  0  0  0  0
    5.1980   -5.9440   25.4370 C   0  0  0  0  0  0  0  0  0  0  0  0
    7.0940   -2.3260   23.1770 C   0  0  0  0  0  0  0  0  0  0  0  0
    7.6690   -2.9300   22.0300 C   0  0  0  0  0  0  0  0  0  0  0  0
  1  2  1  0
  2  3  2  0
  2  4  1  0
  4  5  1  0
  5  6  1  0
  6  7  1  0
  7  8  1  0
  8  9  2  0
  8 10  1  0
 10 11  1  0
 11 12  1  1
 12 13  1  0
 11 14  1  0
 14 15  2  0
 14 16  1  0
 16 17  1  0
 11 18  1  0
 18 19  2  0
 19 20  1  0
 20 21  2  0
 21 22  1  0
 18 23  1  0
 22 23  2  0
  7 24  1  0
  4 25  1  0
 24 25  1  0
M  END
