piperidine-amides-31729-covalent
     RDKit          3D

 27 30  0  0  0  0  0  0  0  0999 V2000
    7.1020   -3.3590   19.4750 C   0  0  0  0  0  0  0  0  0  0  0  0
    6.4160   -4.2130   20.4230 C   0  0  0  0  0  0  0  0  0  0  0  0
    5.4420   -4.9160   20.0020 O   0  0  0  0  0  0  0  0  0  0  0  0
    6.8170   -4.3070   21.7790 N   0  0  0  0  0  0  0  0  0  0  0  0
    7.7240   -3.2060   22.2520 C   0  0  0  0  0  0  0  0  0  0  0  0
    7.4540   -3.0770   23.8080 C   0  0  0  0  0  0  0  0  0  0  0  0
    6.1850   -3.8380   24.0290 C   0  0  0  0  0  0  0  0  0  0  0  0
    5.2160   -3.2990   25.1800 C   0  0  0  0  0  0  0  0  0  0  0  0
    4.2170   -2.8560   24.6510 O   0  0  0  0  0  0  0  0  0  0  0  0
    5.6710   -3.4320   26.3610 N   0  0  0  0  0  0  0  0  0  0  0  0
    6.4060   -3.3650   27.4510 C   0  0  0  0  0  0  0  0  0  0  0  0
    6.7350   -4.2450   28.4390 C   0  0  0  0  0  0  0  0  0  0  0  0
    5.6820   -4.2370   29.3260 C   0  0  0  0  0  0  0  0  0  0  0  0
    5.2880   -2.9200   29.8710 C   0  0  0  0  0  0  0  0  0  0  0  0
    6.3640   -1.8690   29.6150 C   0  0  0  0  0  0  0  0  0  0  0  0
    5.6850   -0.8230   30.2460 C   0  0  0  0  0  0  0  0  0  0  0  0
    6.3580    0.4520   30.2590 C   0  0  0  0  0  0  0  0  0  0  0  0
    5.2710    1.2740   31.0370 C   0  0  0  0  0  0  0  0  0  0  0  0
    5.6750    2.9550   31.3000 Cl  0  0  0  0  0  0  0  0  0  0  0  0
    3.9040    0.7600   31.5850 C   0  0  0  0  0  0  0  0  0  0  0  0
    3.5950   -0.5150   31.3870 C   0  0  0  0  0  0  0  0  0  0  0  0
    4.4640   -1.2770   30.7370 C   0  0  0  0  0  0  0  0  0  0  0  0
    4.1680   -2.4790   30.5550 O   0  0  0  0  0  0  0  0  0  0  0  0
    4.8230   -4.6730   28.1630 C   0  0  0  0  0  0  0  0  0  0  0  0
    4.4950   -3.8350   27.1070 C   0  0  0  0  0  0  0  0  0  0  0  0
    6.2230   -5.3010   23.8360 C   0  0  0  0  0  0  0  0  0  0  0  0
    6.7130   -5.5940   22.4540 C   0  0  0  0  0  0  0  0  0  0  0  0
  1  2  1  0
  2  3  2  0
  2  4  1  0
  4  5  1  0
  5  6  1  0
  6  7  1  0
  7  8  1  0
  8  9  2  0
  8 10  1  0
 10 11  1  0
 11 12  1  0
 12 13  1  0
 13 14  1  0
 14 15  2  0
 15 16  1  0
 16 17  2  0
 17 18  1  0
 18 19  1  0
 18 20  2  0
 20 21  1  0
 16 22  1  0
 21 22  2  0
 14 23  1  0
 22 23  1  0
 13 24  1  0
 10 25  1  0
 24 25  1  0
  7 26  1  0
  4 27  1  0
 26 27  1  0
M  END
