piperidine-amides-6363-covalent
     RDKit          3D

 25 27  0  0  0  0  0  0  0  0999 V2000
    7.1220   -3.2590   19.2630 C   0  0  0  0  0  0  0  0  0  0  0  0
    6.3790   -4.0420   20.2650 C   0  0  0  0  0  0  0  0  0  0  0  0
    5.3550   -4.6800   19.9360 O   0  0  0  0  0  0  0  0  0  0  0  0
    6.8290   -4.1130   21.5860 N   0  0  0  0  0  0  0  0  0  0  0  0
    7.7410   -3.0940   22.0820 C   0  0  0  0  0  0  0  0  0  0  0  0
    7.6060   -3.0550   23.6020 C   0  0  0  0  0  0  0  0  0  0  0  0
    6.1690   -3.4210   23.8740 C   0  0  0  0  0  0  0  0  0  0  0  0
    5.7840   -3.0970   25.2560 C   0  0  0  0  0  0  0  0  0  0  0  0
    4.6050   -3.3200   25.5990 O   0  0  0  0  0  0  0  0  0  0  0  0
    6.7390   -2.5400   26.1470 N   0  0  0  0  0  0  0  0  0  0  0  0
    7.0050   -3.1910   27.3920 C   0  0  0  0  0  0  0  0  0  0  0  0
    6.9240   -2.1990   28.5380 C   0  0  0  0  0  0  0  0  0  0  0  0
    7.9510   -1.4850   29.1420 C   0  0  0  0  0  0  0  0  0  0  0  0
    7.7570   -0.5940   30.2090 C   0  0  0  0  0  0  0  0  0  0  0  0
    6.4940   -0.3500   30.7540 C   0  0  0  0  0  0  0  0  0  0  0  0
    5.3680   -0.9430   30.3070 C   0  0  0  0  0  0  0  0  0  0  0  0
    5.5970   -1.8810   29.1830 C   0  0  0  0  0  0  0  0  0  0  0  0
    4.1080   -2.1370   29.2020 C   0  0  0  0  0  0  0  0  0  0  0  0
    3.3250   -3.1950   29.8760 C   0  0  0  0  0  0  0  0  0  0  0  0
    2.0240   -3.0410   29.6280 N   0  0  0  0  0  0  0  0  0  0  0  0
    1.8900   -1.9580   28.8390 N   0  0  0  0  0  0  0  0  0  0  0  0
    0.6330   -1.6550   28.4900 C   0  0  0  0  0  0  0  0  0  0  0  0
    3.0950   -1.3680   28.5440 C   0  0  0  0  0  0  0  0  0  0  0  0
    6.0200   -4.9280   23.6780 C   0  0  0  0  0  0  0  0  0  0  0  0
    6.6270   -5.3230   22.3540 C   0  0  0  0  0  0  0  0  0  0  0  0
  1  2  1  0
  2  3  2  0
  2  4  1  0
  4  5  1  0
  5  6  1  0
  6  7  1  0
  7  8  1  0
  8  9  2  0
  8 10  1  0
 10 11  1  0
 11 12  1  0
 12 13  2  0
 13 14  1  0
 14 15  2  0
 15 16  1  0
 12 17  1  0
 16 17  2  0
 17 18  1  0
 18 19  1  0
 19 20  2  0
 20 21  1  0
 21 22  1  0
 18 23  2  0
 21 23  1  0
  7 24  1  0
  4 25  1  0
 24 25  1  0
M  END
