piperidine-amides-3017-covalent
     RDKit          3D

 23 24  0  0  0  0  0  0  0  0999 V2000
    7.0580   -3.3550   19.2880 C   0  0  0  0  0  0  0  0  0  0  0  0
    6.3810   -4.1760   20.2880 C   0  0  0  0  0  0  0  0  0  0  0  0
    5.3660   -4.7960   19.9730 O   0  0  0  0  0  0  0  0  0  0  0  0
    6.9190   -4.3090   21.6110 N   0  0  0  0  0  0  0  0  0  0  0  0
    7.7300   -3.2520   22.1620 C   0  0  0  0  0  0  0  0  0  0  0  0
    7.0640   -2.6690   23.3640 C   0  0  0  0  0  0  0  0  0  0  0  0
    6.5450   -3.8200   24.2010 C   0  0  0  0  0  0  0  0  0  0  0  0
    5.7710   -3.2420   25.3360 C   0  0  0  0  0  0  0  0  0  0  0  0
    4.5720   -2.9210   25.2220 O   0  0  0  0  0  0  0  0  0  0  0  0
    6.4040   -3.0660   26.5880 N   0  0  0  0  0  0  0  0  0  0  0  0
    6.4070   -1.7490   27.2030 C   0  0  0  0  0  0  0  0  0  0  0  0
    6.9280   -1.5310   28.5990 C   0  0  0  0  0  0  0  0  0  0  0  0
    6.9140   -0.2750   29.1860 C   0  0  0  0  0  0  0  0  0  0  0  0
    7.5500    0.0470   30.9600 Br  0  0  0  0  0  0  0  0  0  0  0  0
    6.4130    0.8260   28.4810 C   0  0  0  0  0  0  0  0  0  0  0  0
    5.9130    0.7640   27.2000 C   0  0  0  0  0  0  0  0  0  0  0  0
    5.8850   -0.5070   26.5050 C   0  0  0  0  0  0  0  0  0  0  0  0
    5.4150   -0.5340   25.3200 O   0  0  0  0  0  0  0  0  0  0  0  0
    6.0140    0.4280   24.4960 C   0  0  0  0  0  0  0  0  0  0  0  0
    5.0140    0.8150   23.6270 C   0  0  0  0  0  0  0  0  0  0  0  0
    4.6080    2.1140   23.3270 C   0  0  0  0  0  0  0  0  0  0  0  0
    5.7900   -4.8520   23.5010 C   0  0  0  0  0  0  0  0  0  0  0  0
    6.5580   -5.3980   22.4840 C   0  0  0  0  0  0  0  0  0  0  0  0
  1  2  1  0
  2  3  2  0
  2  4  1  0
  4  5  1  0
  5  6  1  0
  6  7  1  0
  7  8  1  0
  8  9  2  0
  8 10  1  0
 10 11  1  0
 11 12  2  0
 12 13  1  0
 13 14  1  0
 13 15  2  0
 15 16  1  0
 11 17  1  0
 16 17  2  0
 17 18  1  0
 18 19  1  0
 19 20  1  0
 20 21  2  3
  7 22  1  0
  4 23  1  0
 22 23  1  0
M  END
