piperidine-amides-27261-covalent
     RDKit          3D

 25 26  0  0  0  0  0  0  0  0999 V2000
    7.1290   -3.2690   19.1690 C   0  0  0  0  0  0  0  0  0  0  0  0
    6.3790   -4.0110   20.1840 C   0  0  0  0  0  0  0  0  0  0  0  0
    5.2590   -4.4720   19.8470 O   0  0  0  0  0  0  0  0  0  0  0  0
    6.9370   -4.2360   21.4370 N   0  0  0  0  0  0  0  0  0  0  0  0
    6.6490   -5.4380   22.1670 C   0  0  0  0  0  0  0  0  0  0  0  0
    6.0020   -5.0310   23.4530 C   0  0  0  0  0  0  0  0  0  0  0  0
    6.6620   -3.8220   24.0680 C   0  0  0  0  0  0  0  0  0  0  0  0
    5.7280   -3.2430   25.0290 C   0  0  0  0  0  0  0  0  0  0  0  0
    4.8940   -2.4130   24.6180 O   0  0  0  0  0  0  0  0  0  0  0  0
    5.6950   -3.5680   26.3720 N   0  0  0  0  0  0  0  0  0  0  0  0
    6.3790   -2.6860   27.2870 C   0  0  0  0  0  0  0  0  0  0  0  0
    6.7310   -3.3630   28.5990 C   0  0  0  0  0  0  0  0  0  0  0  0
    5.7340   -3.8770   29.2980 C   0  0  0  0  0  0  0  0  0  0  0  0
    5.0080   -2.9650   30.0470 C   0  0  0  0  0  0  0  0  0  0  0  0
    5.6950   -1.8710   30.2690 O   0  0  0  0  0  0  0  0  0  0  0  0
    3.7460   -3.1880   30.4730 N   0  0  0  0  0  0  0  0  0  0  0  0
    3.2860   -2.6020   31.5810 C   0  0  0  0  0  0  0  0  0  0  0  0
    3.3900   -1.2220   31.4850 C   0  0  0  0  0  0  0  0  0  0  0  0
    2.2380   -0.4650   31.4510 C   0  0  0  0  0  0  0  0  0  0  0  0
    2.0000   -0.0170   32.7060 O   0  0  0  0  0  0  0  0  0  0  0  0
    1.3790    1.2090   32.6590 C   0  0  0  0  0  0  0  0  0  0  0  0
    4.9940   -4.5540   28.4520 C   0  0  0  0  0  0  0  0  0  0  0  0
    4.5690   -3.7520   27.2640 C   0  0  0  0  0  0  0  0  0  0  0  0
    6.9750   -2.7300   23.0940 C   0  0  0  0  0  0  0  0  0  0  0  0
    7.7650   -3.2350   22.1080 C   0  0  0  0  0  0  0  0  0  0  0  0
  1  2  1  0
  2  3  2  0
  2  4  1  0
  4  5  1  0
  5  6  1  0
  6  7  1  0
  7  8  1  0
  8  9  2  0
  8 10  1  0
 10 11  1  0
 11 12  1  0
 12 13  1  0
 13 14  1  0
 14 15  2  0
 14 16  1  0
 16 17  1  0
 17 18  1  0
 18 19  1  0
 19 20  1  0
 20 21  1  0
 13 22  1  0
 10 23  1  0
 22 23  1  0
  7 24  1  0
  4 25  1  0
 24 25  1  0
M  END
