piperidine-amides-27852-covalent
     RDKit          3D

 26 28  0  0  0  0  0  0  0  0999 V2000
    7.0110   -3.3550   19.4240 C   0  0  0  0  0  0  0  0  0  0  0  0
    6.4130   -4.2620   20.4330 C   0  0  0  0  0  0  0  0  0  0  0  0
    5.4540   -4.9540   20.0140 O   0  0  0  0  0  0  0  0  0  0  0  0
    6.9190   -4.3580   21.7590 N   0  0  0  0  0  0  0  0  0  0  0  0
    6.6340   -5.5220   22.5440 C   0  0  0  0  0  0  0  0  0  0  0  0
    6.0110   -5.2000   23.8390 C   0  0  0  0  0  0  0  0  0  0  0  0
    5.8440   -3.7480   24.0210 C   0  0  0  0  0  0  0  0  0  0  0  0
    4.9430   -3.3730   25.1840 C   0  0  0  0  0  0  0  0  0  0  0  0
    3.7370   -3.3670   24.9110 O   0  0  0  0  0  0  0  0  0  0  0  0
    5.2720   -3.0310   26.5240 N   0  0  0  0  0  0  0  0  0  0  0  0
    4.3250   -3.0680   27.6010 C   0  0  0  0  0  0  0  0  0  0  0  0
    5.2860   -3.4010   28.6600 C   0  0  0  0  0  0  0  0  0  0  0  0
    6.6740   -3.0630   28.3110 C   0  0  2  0  0  0  0  0  0  0  0  0
    7.0730   -1.7290   28.3320 C   0  0  0  0  0  0  0  0  0  0  0  0
    7.1520   -0.9830   27.1550 C   0  0  0  0  0  0  0  0  0  0  0  0
    7.5630    0.3270   27.1870 C   0  0  0  0  0  0  0  0  0  0  0  0
    7.9060    0.9490   28.3550 C   0  0  0  0  0  0  0  0  0  0  0  0
    7.8560    0.3090   29.5450 C   0  0  0  0  0  0  0  0  0  0  0  0
    8.1860    0.8600   30.7880 C   0  0  0  0  0  0  0  0  0  0  0  0
    7.4780    0.8190   31.8000 O   0  0  0  0  0  0  0  0  0  0  0  0
    9.4300    1.4830   30.7770 O   0  0  0  0  0  0  0  0  0  0  0  0
   10.6470    0.7600   30.9050 C   0  0  0  0  0  0  0  0  0  0  0  0
    7.4070   -1.1230   29.5160 C   0  0  0  0  0  0  0  0  0  0  0  0
    6.4880   -3.5210   26.9750 C   0  0  0  0  0  0  0  0  0  0  0  0
    7.0640   -2.9650   23.7640 C   0  0  0  0  0  0  0  0  0  0  0  0
    7.6800   -3.2750   22.3970 C   0  0  0  0  0  0  0  0  0  0  0  0
  1  2  1  0
  2  3  2  0
  2  4  1  0
  4  5  1  0
  5  6  1  0
  6  7  1  0
  7  8  1  0
  8  9  2  0
  8 10  1  0
 10 11  1  0
 11 12  1  0
 12 13  1  0
 13 14  1  6
 14 15  2  0
 15 16  1  0
 16 17  2  0
 17 18  1  0
 18 19  1  0
 19 20  2  0
 19 21  1  0
 21 22  1  0
 14 23  1  0
 18 23  2  0
 10 24  1  0
 13 24  1  0
  7 25  1  0
  4 26  1  0
 25 26  1  0
M  END
