piperidine-amides-25255-covalent
     RDKit          3D

 25 28  0  0  0  0  0  0  0  0999 V2000
    7.0130   -3.3490   19.3940 C   0  0  0  0  0  0  0  0  0  0  0  0
    6.3670   -4.2420   20.3930 C   0  0  0  0  0  0  0  0  0  0  0  0
    5.4050   -4.9010   19.9950 O   0  0  0  0  0  0  0  0  0  0  0  0
    6.8640   -4.3440   21.7030 N   0  0  0  0  0  0  0  0  0  0  0  0
    6.6300   -5.5000   22.5240 C   0  0  0  0  0  0  0  0  0  0  0  0
    5.8500   -5.0990   23.7540 C   0  0  0  0  0  0  0  0  0  0  0  0
    6.3660   -3.7900   24.3810 C   0  0  0  0  0  0  0  0  0  0  0  0
    5.3060   -3.2560   25.3050 C   0  0  0  0  0  0  0  0  0  0  0  0
    4.2920   -2.7890   24.7860 O   0  0  0  0  0  0  0  0  0  0  0  0
    5.3840   -3.2580   26.7360 N   0  0  0  0  0  0  0  0  0  0  0  0
    4.2020   -3.2790   27.5530 C   0  0  0  0  0  0  0  0  0  0  0  0
    4.8760   -4.0170   28.6620 C   0  0  2  0  0  0  0  0  0  0  0  0
    6.1400   -3.6900   28.7230 C   0  0  0  0  0  0  0  0  0  0  0  0
    6.3460   -3.9960   27.4440 C   0  0  1  0  0  0  0  0  0  0  0  0
    6.0760   -5.3620   27.3710 C   0  0  0  0  0  0  0  0  0  0  0  0
    4.9390   -5.3630   28.0890 N   0  0  0  0  0  0  0  0  0  0  0  0
    4.9870   -6.2540   29.2670 C   0  0  0  0  0  0  0  0  0  0  0  0
    3.5630   -6.5950   29.6010 C   0  0  0  0  0  0  0  0  0  0  0  0
    2.7580   -5.3060   29.7700 C   0  0  0  0  0  0  0  0  0  0  0  0
    1.3010   -5.5090   30.1130 C   0  0  0  0  0  0  0  0  0  0  0  0
    0.7480   -6.8810   30.2610 C   0  0  0  0  0  0  0  0  0  0  0  0
    1.6480   -8.0610   30.0690 C   0  0  0  0  0  0  0  0  0  0  0  0
    3.0680   -7.8720   29.7350 C   0  0  0  0  0  0  0  0  0  0  0  0
    6.6780   -2.7480   23.3030 C   0  0  0  0  0  0  0  0  0  0  0  0
    7.5560   -3.2440   22.3560 C   0  0  0  0  0  0  0  0  0  0  0  0
  1  2  1  0
  2  3  2  0
  2  4  1  0
  4  5  1  0
  5  6  1  0
  6  7  1  0
  7  8  1  0
  8  9  2  0
  8 10  1  0
 10 11  1  0
 12 11  1  6
 12 13  1  0
 10 14  1  0
 13 14  1  0
 14 15  1  1
 12 16  1  0
 15 16  1  0
 16 17  1  0
 17 18  1  0
 18 19  2  0
 19 20  1  0
 20 21  2  0
 21 22  1  0
 18 23  1  0
 22 23  2  0
  7 24  1  0
  4 25  1  0
 24 25  1  0
M  END
