piperidine-amides-17235-covalent
     RDKit          3D

 20 21  0  0  0  0  0  0  0  0999 V2000
    7.1230   -3.3400   19.2710 C   0  0  0  0  0  0  0  0  0  0  0  0
    6.3770   -4.0940   20.2860 C   0  0  0  0  0  0  0  0  0  0  0  0
    5.3030   -4.6220   19.9180 O   0  0  0  0  0  0  0  0  0  0  0  0
    6.9000   -4.2610   21.5890 N   0  0  0  0  0  0  0  0  0  0  0  0
    6.6120   -5.4710   22.2870 C   0  0  0  0  0  0  0  0  0  0  0  0
    6.1930   -5.2340   23.6580 C   0  0  0  0  0  0  0  0  0  0  0  0
    6.3140   -3.8220   24.0470 C   0  0  0  0  0  0  0  0  0  0  0  0
    5.8050   -3.5830   25.4370 C   0  0  0  0  0  0  0  0  0  0  0  0
    4.5560   -3.5450   25.5880 O   0  0  0  0  0  0  0  0  0  0  0  0
    6.5790   -3.3650   26.6090 N   0  0  0  0  0  0  0  0  0  0  0  0
    5.9050   -2.9970   27.7580 C   0  0  0  0  0  0  0  0  0  0  0  0
    5.6260   -4.1180   28.5970 C   0  0  0  0  0  0  0  0  0  0  0  0
    6.9000   -4.9850   28.5370 C   0  0  2  0  0  0  0  0  0  0  0  0
    6.6590   -6.2640   28.1210 C   0  0  0  0  0  0  0  0  0  0  0  0
    7.0860   -5.5010   29.7740 O   0  0  0  0  0  0  0  0  0  0  0  0
    7.2770   -5.6590   27.1820 C   0  0  0  0  0  0  0  0  0  0  0  0
    7.6490   -4.2120   27.1200 C   0  0  1  0  0  0  0  0  0  0  0  0
    8.6380   -4.6580   26.0260 C   0  0  0  0  0  0  0  0  0  0  0  0
    7.6480   -3.2250   23.7010 C   0  0  0  0  0  0  0  0  0  0  0  0
    7.7430   -3.2260   22.1830 C   0  0  0  0  0  0  0  0  0  0  0  0
  1  2  1  0
  2  3  2  0
  2  4  1  0
  4  5  1  0
  5  6  1  0
  6  7  1  0
  7  8  1  0
  8  9  2  0
  8 10  1  0
 10 11  1  0
 11 12  1  0
 12 13  1  0
 13 14  1  6
 13 15  1  0
 13 16  1  0
 10 17  1  0
 16 17  1  0
 17 18  1  6
  7 19  1  0
  4 20  1  0
 19 20  1  0
M  END
