piperidine-amides-32508-covalent
     RDKit          3D

 27 29  0  0  0  0  0  0  0  0999 V2000
    7.0530   -3.3200   19.3160 C   0  0  0  0  0  0  0  0  0  0  0  0
    6.3530   -4.1730   20.3180 C   0  0  0  0  0  0  0  0  0  0  0  0
    5.3470   -4.8110   19.9650 O   0  0  0  0  0  0  0  0  0  0  0  0
    6.8650   -4.2750   21.6270 N   0  0  0  0  0  0  0  0  0  0  0  0
    7.7030   -3.2230   22.1740 C   0  0  0  0  0  0  0  0  0  0  0  0
    7.6350   -3.3290   23.6920 C   0  0  0  0  0  0  0  0  0  0  0  0
    6.2620   -3.8040   23.9950 C   0  0  0  0  0  0  0  0  0  0  0  0
    5.7290   -3.2950   25.2830 C   0  0  0  0  0  0  0  0  0  0  0  0
    4.8900   -2.3980   25.1950 O   0  0  0  0  0  0  0  0  0  0  0  0
    6.1360   -3.8230   26.5090 N   0  0  0  0  0  0  0  0  0  0  0  0
    5.6840   -5.0630   26.9970 C   0  0  0  0  0  0  0  0  0  0  0  0
    5.5420   -5.3050   28.3370 C   0  0  0  0  0  0  0  0  0  0  0  0
    4.9140   -4.1170   28.8420 N   0  0  0  0  0  0  0  0  0  0  0  0
    3.8700   -4.4110   30.1720 S   0  0  0  0  0  0  0  0  0  0  0  0
    2.4560   -4.6410   29.6700 O   0  0  0  0  0  0  0  0  0  0  0  0
    3.8710   -3.1660   30.9990 O   0  0  0  0  0  0  0  0  0  0  0  0
    4.4410   -5.8100   31.1190 C   0  0  0  0  0  0  0  0  0  0  0  0
    5.4310   -6.6460   30.6980 C   0  0  0  0  0  0  0  0  0  0  0  0
    5.8270   -7.7560   31.5760 C   0  0  0  0  0  0  0  0  0  0  0  0
    5.1650   -7.9990   32.9390 C   0  0  0  0  0  0  0  0  0  0  0  0
    4.0730   -6.9580   33.2320 C   0  0  0  0  0  0  0  0  0  0  0  0
    3.4000   -7.0550   34.4070 F   0  0  0  0  0  0  0  0  0  0  0  0
    3.7930   -5.9540   32.3200 C   0  0  0  0  0  0  0  0  0  0  0  0
    6.1810   -3.4640   28.8160 C   0  0  0  0  0  0  0  0  0  0  0  0
    6.3550   -2.7800   27.4800 C   0  0  0  0  0  0  0  0  0  0  0  0
    6.2540   -5.2580   23.7960 C   0  0  0  0  0  0  0  0  0  0  0  0
    6.7090   -5.5210   22.3420 C   0  0  0  0  0  0  0  0  0  0  0  0
  1  2  1  0
  2  3  2  0
  2  4  1  0
  4  5  1  0
  5  6  1  0
  6  7  1  0
  7  8  1  0
  8  9  2  0
  8 10  1  0
 10 11  1  0
 11 12  1  0
 12 13  1  0
 13 14  1  0
 14 15  2  0
 14 16  2  0
 14 17  1  0
 17 18  2  0
 18 19  1  0
 19 20  2  0
 20 21  1  0
 21 22  1  0
 17 23  1  0
 21 23  2  0
 13 24  1  0
 10 25  1  0
 24 25  1  0
  7 26  1  0
  4 27  1  0
 26 27  1  0
M  END
