piperidine-amides-10866-covalent
     RDKit          3D

 22 23  0  0  0  0  0  0  0  0999 V2000
    7.1460   -3.2830   19.1980 C   0  0  0  0  0  0  0  0  0  0  0  0
    6.3270   -3.9860   20.1840 C   0  0  0  0  0  0  0  0  0  0  0  0
    5.2400   -4.4740   19.8490 O   0  0  0  0  0  0  0  0  0  0  0  0
    6.7850   -4.1750   21.4840 N   0  0  0  0  0  0  0  0  0  0  0  0
    6.5240   -5.3850   22.2210 C   0  0  0  0  0  0  0  0  0  0  0  0
    5.8280   -4.9370   23.4760 C   0  0  0  0  0  0  0  0  0  0  0  0
    6.5650   -3.8120   24.1480 C   0  0  0  0  0  0  0  0  0  0  0  0
    5.8260   -3.2720   25.3060 C   0  0  0  0  0  0  0  0  0  0  0  0
    4.5590   -3.2050   25.2790 O   0  0  0  0  0  0  0  0  0  0  0  0
    6.4710   -2.8170   26.4740 N   0  0  0  0  0  0  0  0  0  0  0  0
    6.1550   -3.4350   27.7770 C   0  0  0  0  0  0  0  0  0  0  0  0
    5.7680   -2.3460   28.7030 C   0  0  0  0  0  0  0  0  0  0  0  0
    5.3730   -2.7140   29.8390 O   0  0  0  0  0  0  0  0  0  0  0  0
    4.4820   -3.7270   29.8830 C   0  0  0  0  0  0  0  0  0  0  0  0
    3.4160   -3.6950   30.9520 C   0  0  0  0  0  0  0  0  0  0  0  0
    6.9290   -1.4620   28.9720 C   0  0  0  0  0  0  0  0  0  0  0  0
    6.7020   -0.4460   30.0330 C   0  0  0  0  0  0  0  0  0  0  0  0
    5.3910   -0.0880   30.2420 C   0  0  0  0  0  0  0  0  0  0  0  0
    4.4750   -0.3220   29.2110 C   0  0  0  0  0  0  0  0  0  0  0  0
    4.7800   -1.4770   28.2850 C   0  0  0  0  0  0  0  0  0  0  0  0
    6.9110   -2.6450   23.2680 C   0  0  0  0  0  0  0  0  0  0  0  0
    7.6600   -3.2020   22.0990 C   0  0  0  0  0  0  0  0  0  0  0  0
  1  2  1  0
  2  3  2  0
  2  4  1  0
  4  5  1  0
  5  6  1  0
  6  7  1  0
  7  8  1  0
  8  9  2  0
  8 10  1  0
 10 11  1  0
 11 12  1  0
 12 13  1  0
 13 14  1  0
 14 15  1  0
 12 16  1  0
 16 17  1  0
 17 18  1  0
 18 19  1  0
 12 20  1  0
 19 20  1  0
  7 21  1  0
  4 22  1  0
 21 22  1  0
M  END
