piperidine-amides-8639-covalent
     RDKit          3D

 23 24  0  0  0  0  0  0  0  0999 V2000
    7.0450   -3.3430   19.3270 C   0  0  0  0  0  0  0  0  0  0  0  0
    6.4000   -4.1870   20.3350 C   0  0  0  0  0  0  0  0  0  0  0  0
    5.4000   -4.8440   19.9840 O   0  0  0  0  0  0  0  0  0  0  0  0
    6.9330   -4.2780   21.6510 N   0  0  0  0  0  0  0  0  0  0  0  0
    7.7250   -3.1990   22.1790 C   0  0  0  0  0  0  0  0  0  0  0  0
    7.0310   -2.6170   23.3640 C   0  0  0  0  0  0  0  0  0  0  0  0
    6.6420   -3.7760   24.2440 C   0  0  0  0  0  0  0  0  0  0  0  0
    5.8320   -3.2650   25.4040 C   0  0  0  0  0  0  0  0  0  0  0  0
    4.6330   -3.1050   25.1830 O   0  0  0  0  0  0  0  0  0  0  0  0
    6.4500   -3.0040   26.6330 N   0  0  0  0  0  0  0  0  0  0  0  0
    6.4260   -1.6810   27.1900 C   0  0  0  0  0  0  0  0  0  0  0  0
    6.0340   -0.5080   26.5460 C   0  0  0  0  0  0  0  0  0  0  0  0
    6.0320    0.7300   27.1780 C   0  0  0  0  0  0  0  0  0  0  0  0
    6.4090    0.9810   28.5100 C   0  0  0  0  0  0  0  0  0  0  0  0
    6.8440   -0.2420   29.2640 C   0  0  0  0  0  0  0  0  0  0  0  0
    7.2750   -0.1160   30.7570 C   0  0  0  0  0  0  0  0  0  0  0  0
    8.6790    0.3100   30.9910 C   0  0  0  0  0  0  0  0  0  0  0  0
    9.6330   -0.2690   30.4380 O   0  0  0  0  0  0  0  0  0  0  0  0
    9.0780    1.3950   31.8400 N   0  0  0  0  0  0  0  0  0  0  0  0
   10.5210    1.5120   31.9120 C   0  0  0  0  0  0  0  0  0  0  0  0
    6.8390   -1.4950   28.5890 C   0  0  0  0  0  0  0  0  0  0  0  0
    5.7530   -4.7360   23.4730 C   0  0  0  0  0  0  0  0  0  0  0  0
    6.5680   -5.3500   22.5440 C   0  0  0  0  0  0  0  0  0  0  0  0
  1  2  1  0
  2  3  2  0
  2  4  1  0
  4  5  1  0
  5  6  1  0
  6  7  1  0
  7  8  1  0
  8  9  2  0
  8 10  1  0
 10 11  1  0
 11 12  2  0
 12 13  1  0
 13 14  2  0
 14 15  1  0
 15 16  1  0
 16 17  1  0
 17 18  2  0
 17 19  1  0
 19 20  1  0
 11 21  1  0
 15 21  2  0
  7 22  1  0
  4 23  1  0
 22 23  1  0
M  END
