piperidine-amides-15381-covalent
     RDKit          3D

 17 18  0  0  0  0  0  0  0  0999 V2000
    7.0470   -3.3280   19.3250 C   0  0  0  0  0  0  0  0  0  0  0  0
    6.3620   -4.1770   20.3070 C   0  0  0  0  0  0  0  0  0  0  0  0
    5.3450   -4.8210   19.9720 O   0  0  0  0  0  0  0  0  0  0  0  0
    6.8560   -4.3230   21.6090 N   0  0  0  0  0  0  0  0  0  0  0  0
    6.6490   -5.5600   22.3200 C   0  0  0  0  0  0  0  0  0  0  0  0
    5.8360   -5.1860   23.5580 C   0  0  0  0  0  0  0  0  0  0  0  0
    6.6210   -4.1100   24.2790 C   0  0  0  0  0  0  0  0  0  0  0  0
    5.8060   -3.6260   25.4250 C   0  0  0  0  0  0  0  0  0  0  0  0
    4.5750   -3.4430   25.2800 O   0  0  0  0  0  0  0  0  0  0  0  0
    6.3970   -3.3810   26.6820 N   0  0  0  0  0  0  0  0  0  0  0  0
    7.7430   -3.8050   26.9840 C   0  0  0  0  0  0  0  0  0  0  0  0
    7.5480   -4.9260   27.9400 C   0  0  0  0  0  0  0  0  0  0  0  0
    6.3560   -4.7210   28.5010 C   0  0  2  0  0  0  0  0  0  0  0  0
    5.4750   -5.7380   28.3330 F   0  0  0  0  0  0  0  0  0  0  0  0
    5.9470   -3.4720   28.0790 C   0  0  0  0  0  0  0  0  0  0  0  0
    6.9700   -2.9270   23.4130 C   0  0  0  0  0  0  0  0  0  0  0  0
    7.6470   -3.3040   22.2770 C   0  0  0  0  0  0  0  0  0  0  0  0
  1  2  1  0
  2  3  2  0
  2  4  1  0
  4  5  1  0
  5  6  1  0
  6  7  1  0
  7  8  1  0
  8  9  2  0
  8 10  1  0
 10 11  1  0
 11 12  1  0
 12 13  1  0
 13 14  1  6
 10 15  1  0
 13 15  1  0
  7 16  1  0
  4 17  1  0
 16 17  1  0
M  END
