piperidine-amides-33216-covalent
     RDKit          3D

 28 29  0  0  0  0  0  0  0  0999 V2000
    7.0940   -3.3730   19.3360 C   0  0  0  0  0  0  0  0  0  0  0  0
    6.4520   -4.2370   20.3390 C   0  0  0  0  0  0  0  0  0  0  0  0
    5.3850   -4.7950   19.9820 O   0  0  0  0  0  0  0  0  0  0  0  0
    7.0460   -4.4970   21.6110 N   0  0  0  0  0  0  0  0  0  0  0  0
    6.5190   -5.5260   22.4110 C   0  0  0  0  0  0  0  0  0  0  0  0
    6.0030   -5.0810   23.7110 C   0  0  0  0  0  0  0  0  0  0  0  0
    6.4200   -3.7450   24.2490 C   0  0  0  0  0  0  0  0  0  0  0  0
    5.3150   -3.1580   25.1000 C   0  0  0  0  0  0  0  0  0  0  0  0
    4.3080   -2.7330   24.5210 O   0  0  0  0  0  0  0  0  0  0  0  0
    5.3320   -3.0520   26.5130 N   0  0  0  0  0  0  0  0  0  0  0  0
    4.2280   -2.9590   27.3710 C   0  0  0  0  0  0  0  0  0  0  0  0
    4.2070   -3.7100   28.6120 C   0  0  0  0  0  0  0  0  0  0  0  0
    5.6370   -3.8570   29.0930 C   0  0  0  0  0  0  0  0  0  0  0  0
    6.5100   -4.1020   28.1480 C   0  0  1  0  0  0  0  0  0  0  0  0
    6.0860   -5.2680   27.4850 N   0  0  0  0  0  0  0  0  0  0  0  0
    5.6950   -6.3770   28.2810 C   0  0  0  0  0  0  0  0  0  0  0  0
    6.4090   -7.0550   29.2630 O   0  0  0  0  0  0  0  0  0  0  0  0
    4.3160   -6.9390   28.1240 C   0  0  0  0  0  0  0  0  0  0  0  0
    3.3910   -5.9300   28.4150 F   0  0  0  0  0  0  0  0  0  0  0  0
    4.1610   -7.9830   28.9530 F   0  0  0  0  0  0  0  0  0  0  0  0
    4.0600   -7.3810   26.8620 F   0  0  0  0  0  0  0  0  0  0  0  0
    6.5430   -2.9620   27.1790 C   0  0  2  0  0  0  0  0  0  0  0  0
    6.6510   -1.5310   27.7270 C   0  0  0  0  0  0  0  0  0  0  0  0
    5.7320   -0.5640   27.4650 O   0  0  0  0  0  0  0  0  0  0  0  0
    7.7330   -1.1010   28.5710 O   0  0  0  0  0  0  0  0  0  0  0  0
    7.4770   -1.0020   29.9040 C   0  0  0  0  0  0  0  0  0  0  0  0
    6.7790   -2.7190   23.1570 C   0  0  0  0  0  0  0  0  0  0  0  0
    7.7520   -3.3880   22.2660 C   0  0  0  0  0  0  0  0  0  0  0  0
  1  2  1  0
  2  3  2  0
  2  4  1  0
  4  5  1  0
  5  6  1  0
  6  7  1  0
  7  8  1  0
  8  9  2  0
  8 10  1  0
 10 11  1  0
 11 12  1  0
 12 13  1  0
 13 14  1  0
 14 15  1  6
 15 16  1  0
 16 17  2  0
 16 18  1  0
 18 19  1  0
 18 20  1  0
 18 21  1  0
 10 22  1  0
 14 22  1  0
 22 23  1  1
 23 24  2  0
 23 25  1  0
 25 26  1  0
  7 27  1  0
  4 28  1  0
 27 28  1  0
M  END
