piperidine-amides-10159-covalent
     RDKit          3D

 25 27  0  0  0  0  0  0  0  0999 V2000
    7.0220   -3.3410   19.3460 C   0  0  0  0  0  0  0  0  0  0  0  0
    6.3660   -4.1760   20.3620 C   0  0  0  0  0  0  0  0  0  0  0  0
    5.3640   -4.8330   19.9770 O   0  0  0  0  0  0  0  0  0  0  0  0
    6.8670   -4.2560   21.6690 N   0  0  0  0  0  0  0  0  0  0  0  0
    6.6870   -5.4650   22.4560 C   0  0  0  0  0  0  0  0  0  0  0  0
    6.0570   -5.0830   23.7670 C   0  0  0  0  0  0  0  0  0  0  0  0
    6.0410   -3.5900   23.9530 C   0  0  0  0  0  0  0  0  0  0  0  0
    5.5860   -3.2320   25.3170 C   0  0  0  0  0  0  0  0  0  0  0  0
    4.3560   -3.1280   25.5040 O   0  0  0  0  0  0  0  0  0  0  0  0
    6.4420   -3.0000   26.4070 N   0  0  0  0  0  0  0  0  0  0  0  0
    6.4290   -1.7460   27.1180 C   0  0  0  0  0  0  0  0  0  0  0  0
    7.0780   -1.5810   28.4770 C   0  0  0  0  0  0  0  0  0  0  0  0
    7.0940   -0.4020   29.1820 C   0  0  0  0  0  0  0  0  0  0  0  0
    6.5100    0.7730   28.7210 C   0  0  0  0  0  0  0  0  0  0  0  0
    6.5820    1.9230   29.4980 C   0  0  0  0  0  0  0  0  0  0  0  0
    5.6050    2.9020   29.5970 C   0  0  0  0  0  0  0  0  0  0  0  0
    5.7520    4.0270   30.3880 C   0  0  0  0  0  0  0  0  0  0  0  0
    6.9550    4.3730   31.2450 C   0  0  0  0  0  0  0  0  0  0  0  0
    8.0050    3.2770   31.1120 C   0  0  0  0  0  0  0  0  0  0  0  0
    9.3630    3.2150   31.7930 C   0  0  0  0  0  0  0  0  0  0  0  0
    7.7560    2.0330   30.1970 C   0  0  0  0  0  0  0  0  0  0  0  0
    5.8660    0.8160   27.5020 C   0  0  0  0  0  0  0  0  0  0  0  0
    5.8210   -0.4620   26.6820 C   0  0  0  0  0  0  0  0  0  0  0  0
    7.3970   -3.0270   23.6730 C   0  0  0  0  0  0  0  0  0  0  0  0
    7.6970   -3.1670   22.1820 C   0  0  0  0  0  0  0  0  0  0  0  0
  1  2  1  0
  2  3  2  0
  2  4  1  0
  4  5  1  0
  5  6  1  0
  6  7  1  0
  7  8  1  0
  8  9  2  0
  8 10  1  0
 10 11  1  0
 11 12  2  0
 12 13  1  0
 13 14  2  0
 14 15  1  0
 15 16  2  0
 16 17  1  0
 17 18  2  0
 18 19  1  0
 19 20  1  0
 15 21  1  0
 19 21  2  0
 14 22  1  0
 11 23  1  0
 22 23  2  0
  7 24  1  0
  4 25  1  0
 24 25  1  0
M  END
