piperidine-amides-14075-covalent
     RDKit          3D

 25 25  0  0  0  0  0  0  0  0999 V2000
    7.2040   -3.2590   19.1760 C   0  0  0  0  0  0  0  0  0  0  0  0
    6.3830   -3.9880   20.1720 C   0  0  0  0  0  0  0  0  0  0  0  0
    5.2710   -4.4350   19.8410 O   0  0  0  0  0  0  0  0  0  0  0  0
    6.9150   -4.2240   21.4530 N   0  0  0  0  0  0  0  0  0  0  0  0
    7.7140   -3.2230   22.1300 C   0  0  0  0  0  0  0  0  0  0  0  0
    6.8390   -2.6310   23.2460 C   0  0  0  0  0  0  0  0  0  0  0  0
    6.4100   -3.7500   24.1410 C   0  0  0  0  0  0  0  0  0  0  0  0
    5.8830   -3.2630   25.4310 C   0  0  0  0  0  0  0  0  0  0  0  0
    4.8390   -2.5980   25.3870 O   0  0  0  0  0  0  0  0  0  0  0  0
    6.5600   -3.5680   26.6160 N   0  0  0  0  0  0  0  0  0  0  0  0
    6.8000   -4.8700   27.1420 C   0  0  1  0  0  0  0  0  0  0  0  0
    6.8800   -5.0800   28.4810 C   0  0  0  0  0  0  0  0  0  0  0  0
    5.7080   -5.5410   29.0980 C   0  0  0  0  0  0  0  0  0  0  0  0
    5.7530   -6.5200   30.0600 C   0  0  0  0  0  0  0  0  0  0  0  0
    5.0010   -4.3560   29.6340 C   0  0  0  0  0  0  0  0  0  0  0  0
    6.0040   -5.8110   26.5100 C   0  0  0  0  0  0  0  0  0  0  0  0
    5.8760   -5.7810   25.1410 O   0  0  0  0  0  0  0  0  0  0  0  0
    5.3180   -6.8270   27.2440 N   0  0  0  0  0  0  0  0  0  0  0  0
    3.9040   -6.9210   27.1280 C   0  0  0  0  0  0  0  0  0  0  0  0
    3.3030   -7.5800   28.1820 C   0  0  0  0  0  0  0  0  0  0  0  0
    2.5750   -7.0830   29.1870 N   0  0  0  0  0  0  0  0  0  0  0  0
    1.2920   -6.6190   28.7050 C   0  0  0  0  0  0  0  0  0  0  0  0
    2.7470   -7.5910   30.5260 C   0  0  0  0  0  0  0  0  0  0  0  0
    5.4910   -4.5780   23.3430 C   0  0  0  0  0  0  0  0  0  0  0  0
    6.3200   -5.2440   22.2430 C   0  0  0  0  0  0  0  0  0  0  0  0
  1  2  1  0
  2  3  2  0
  2  4  1  0
  4  5  1  0
  5  6  1  0
  6  7  1  0
  7  8  1  0
  8  9  2  0
  8 10  1  0
 10 11  1  0
 11 12  1  1
 12 13  1  0
 13 14  1  0
 13 15  1  0
 11 16  1  0
 16 17  2  0
 16 18  1  0
 18 19  1  0
 19 20  1  0
 20 21  1  0
 21 22  1  0
 21 23  1  0
  7 24  1  0
  4 25  1  0
 24 25  1  0
M  END
