piperidine-amides-880-covalent
     RDKit          3D

 24 26  0  0  0  0  0  0  0  0999 V2000
    7.2550   -3.3000   19.2980 C   0  0  0  0  0  0  0  0  0  0  0  0
    6.4430   -4.0170   20.2480 C   0  0  0  0  0  0  0  0  0  0  0  0
    5.3300   -4.5080   19.8790 O   0  0  0  0  0  0  0  0  0  0  0  0
    6.9110   -4.2180   21.5490 N   0  0  0  0  0  0  0  0  0  0  0  0
    6.3890   -5.3640   22.3260 C   0  0  0  0  0  0  0  0  0  0  0  0
    5.4690   -4.5760   23.3330 C   0  0  0  0  0  0  0  0  0  0  0  0
    6.4030   -3.6180   24.0390 C   0  0  0  0  0  0  0  0  0  0  0  0
    5.7330   -2.9170   25.2830 C   0  0  0  0  0  0  0  0  0  0  0  0
    4.7040   -2.3220   24.9910 O   0  0  0  0  0  0  0  0  0  0  0  0
    6.4810   -3.1960   26.2500 N   0  0  0  0  0  0  0  0  0  0  0  0
    7.2770   -3.6090   27.2420 C   0  0  0  0  0  0  0  0  0  0  0  0
    7.4240   -4.6940   28.0200 C   0  0  0  0  0  0  0  0  0  0  0  0
    6.3110   -5.5760   28.1300 C   0  0  0  0  0  0  0  0  0  0  0  0
    5.4820   -6.0490   26.9970 C   0  0  0  0  0  0  0  0  0  0  0  0
    4.3490   -6.9860   27.4480 C   0  0  0  0  0  0  0  0  0  0  0  0
    3.4680   -7.5220   26.5010 F   0  0  0  0  0  0  0  0  0  0  0  0
    4.2010   -7.2950   28.8050 C   0  0  0  0  0  0  0  0  0  0  0  0
    4.7940   -7.0170   30.0460 C   0  0  0  0  0  0  0  0  0  0  0  0
    4.4690   -7.5150   31.8470 Br  0  0  0  0  0  0  0  0  0  0  0  0
    5.8660   -6.1110   29.4520 C   0  0  0  0  0  0  0  0  0  0  0  0
    7.8360   -5.7070   26.9500 C   0  0  0  0  0  0  0  0  0  0  0  0
    8.5090   -5.8320   27.9650 C   0  0  0  0  0  0  0  0  0  0  0  0
    7.1080   -2.6130   23.1560 C   0  0  0  0  0  0  0  0  0  0  0  0
    7.7620   -3.2310   22.1630 C   0  0  0  0  0  0  0  0  0  0  0  0
  1  2  1  0
  2  3  2  0
  2  4  1  0
  4  5  1  0
  5  6  1  0
  6  7  1  0
  7  8  1  0
  8  9  2  0
  8 10  1  0
 10 11  1  0
 12 11  1  0
 12 13  1  0
 13 14  2  0
 14 15  1  0
 15 16  1  0
 15 17  2  0
 17 18  1  0
 18 19  1  0
 13 20  1  0
 18 20  2  0
 12 21  1  0
 12 22  1  0
 21 22  1  0
  7 23  1  0
  4 24  1  0
 23 24  1  0
M  END
