piperidine-amides-23-covalent
     RDKit          3D

 21 22  0  0  0  0  0  0  0  0999 V2000
    7.1140   -3.3810   19.2820 C   0  0  0  0  0  0  0  0  0  0  0  0
    6.3960   -4.0810   20.3110 C   0  0  0  0  0  0  0  0  0  0  0  0
    5.3430   -4.7000   19.9600 O   0  0  0  0  0  0  0  0  0  0  0  0
    6.8550   -4.1620   21.6440 N   0  0  0  0  0  0  0  0  0  0  0  0
    6.6550   -5.4390   22.3400 C   0  0  0  0  0  0  0  0  0  0  0  0
    5.6410   -4.9270   23.4200 C   0  0  0  0  0  0  0  0  0  0  0  0
    6.3690   -3.8740   24.2400 C   0  0  0  0  0  0  0  0  0  0  0  0
    5.4680   -3.7180   25.5450 C   0  0  0  0  0  0  0  0  0  0  0  0
    4.5730   -4.5400   25.5060 O   0  0  0  0  0  0  0  0  0  0  0  0
    5.8540   -2.7830   26.3210 N   0  0  0  0  0  0  0  0  0  0  0  0
    6.0710   -1.7920   27.2340 C   0  0  1  0  0  0  0  0  0  0  0  0
    7.0060   -1.3260   28.1090 C   0  0  0  0  0  0  0  0  0  0  0  0
    6.5330   -0.2210   28.8440 C   0  0  2  0  0  0  0  0  0  0  0  0
    5.7550   -0.6710   29.9230 O   0  0  0  0  0  0  0  0  0  0  0  0
    6.3620   -0.2660   31.1020 C   0  0  0  0  0  0  0  0  0  0  0  0
    5.7360    0.5170   27.8120 C   0  0  2  0  0  0  0  0  0  0  0  0
    4.5130    0.5080   28.1200 O   0  0  0  0  0  0  0  0  0  0  0  0
    3.9980    1.7350   28.5000 C   0  0  0  0  0  0  0  0  0  0  0  0
    5.9150   -0.4050   26.6100 C   0  0  0  0  0  0  0  0  0  0  0  0
    6.8940   -2.7150   23.5660 C   0  0  0  0  0  0  0  0  0  0  0  0
    7.6710   -3.2120   22.3020 C   0  0  0  0  0  0  0  0  0  0  0  0
  1  2  1  0
  2  3  2  0
  2  4  1  0
  4  5  1  0
  5  6  1  0
  6  7  1  0
  7  8  1  0
  8  9  2  0
  8 10  1  0
 11 10  1  6
 11 12  1  0
 12 13  1  0
 13 14  1  1
 14 15  1  0
 13 16  1  0
 16 17  1  1
 17 18  1  0
 11 19  1  0
 16 19  1  0
  7 20  1  0
  4 21  1  0
 20 21  1  0
M  END
