piperidine-amides-9854-covalent
     RDKit          3D

 27 30  0  0  0  0  0  0  0  0999 V2000
    7.0210   -3.3620   19.3710 C   0  0  0  0  0  0  0  0  0  0  0  0
    6.3290   -4.1570   20.3960 C   0  0  0  0  0  0  0  0  0  0  0  0
    5.4020   -4.9010   19.9870 O   0  0  0  0  0  0  0  0  0  0  0  0
    6.7090   -4.1010   21.7430 N   0  0  0  0  0  0  0  0  0  0  0  0
    7.6680   -3.1360   22.2180 C   0  0  0  0  0  0  0  0  0  0  0  0
    7.1100   -2.4050   23.4150 C   0  0  0  0  0  0  0  0  0  0  0  0
    5.7780   -2.9430   23.9140 C   0  0  0  0  0  0  0  0  0  0  0  0
    5.2750   -2.3320   25.2420 C   0  0  0  0  0  0  0  0  0  0  0  0
    4.3170   -2.9630   25.7500 O   0  0  0  0  0  0  0  0  0  0  0  0
    5.7330   -1.1150   26.0020 N   0  0  0  0  0  0  0  0  0  0  0  0
    5.1920    0.2570   25.7000 C   0  0  0  0  0  0  0  0  0  0  0  0
    4.5460   -0.2490   26.9400 C   0  0  0  0  0  0  0  0  0  0  0  0
    5.0680   -1.3420   27.4130 C   0  0  0  0  0  0  0  0  0  0  0  0
    6.1010   -1.8140   26.6560 C   0  0  0  0  0  0  0  0  0  0  0  0
    6.6780   -2.8830   27.0050 N   0  0  0  0  0  0  0  0  0  0  0  0
    7.5590   -3.0860   26.1420 C   0  0  0  0  0  0  0  0  0  0  0  0
    8.2540   -4.1080   26.2590 C   0  0  0  0  0  0  0  0  0  0  0  0
    7.8400   -4.9820   27.2240 C   0  0  0  0  0  0  0  0  0  0  0  0
    8.4310   -6.2550   27.5960 C   0  0  0  0  0  0  0  0  0  0  0  0
    9.6250   -6.4840   26.7270 C   0  0  0  0  0  0  0  0  0  0  0  0
   10.0420   -5.5380   25.7480 C   0  0  0  0  0  0  0  0  0  0  0  0
    9.4230   -4.3010   25.3920 C   0  0  0  0  0  0  0  0  0  0  0  0
    7.6910   -2.2120   25.1660 C   0  0  0  0  0  0  0  0  0  0  0  0
    6.7160   -1.3300   25.4550 N   0  0  0  0  0  0  0  0  0  0  0  0
    6.2640   -0.2250   24.9170 C   0  0  0  0  0  0  0  0  0  0  0  0
    5.8400   -4.4640   23.9960 C   0  0  0  0  0  0  0  0  0  0  0  0
    6.2330   -5.1250   22.6510 C   0  0  0  0  0  0  0  0  0  0  0  0
  1  2  1  0
  2  3  2  0
  2  4  1  0
  4  5  1  0
  5  6  1  0
  6  7  1  0
  7  8  1  0
  8  9  2  0
  8 10  1  0
 10 11  1  0
 11 12  1  0
 12 13  2  0
 13 14  1  0
 14 15  2  0
 15 16  1  0
 16 17  1  0
 17 18  2  0
 18 19  1  0
 19 20  2  0
 20 21  1  0
 17 22  1  0
 21 22  2  0
 16 23  2  0
 14 24  1  0
 23 24  1  0
 11 25  2  0
 24 25  1  0
  7 26  1  0
  4 27  1  0
 26 27  1  0
M  END
