piperidine-amides-24096-covalent
     RDKit          3D

 24 26  0  0  0  0  0  0  0  0999 V2000
    7.0460   -3.3880   19.3850 C   0  0  0  0  0  0  0  0  0  0  0  0
    6.4190   -4.2700   20.3840 C   0  0  0  0  0  0  0  0  0  0  0  0
    5.3940   -4.8840   19.9970 O   0  0  0  0  0  0  0  0  0  0  0  0
    6.9720   -4.4710   21.6860 N   0  0  0  0  0  0  0  0  0  0  0  0
    6.4590   -5.5190   22.4850 C   0  0  0  0  0  0  0  0  0  0  0  0
    5.8460   -5.0830   23.7520 C   0  0  0  0  0  0  0  0  0  0  0  0
    6.3180   -3.8050   24.3580 C   0  0  0  0  0  0  0  0  0  0  0  0
    5.3630   -3.2900   25.4290 C   0  0  0  0  0  0  0  0  0  0  0  0
    4.5160   -2.4530   25.0920 O   0  0  0  0  0  0  0  0  0  0  0  0
    5.3740   -3.7120   26.7990 N   0  0  0  0  0  0  0  0  0  0  0  0
    6.2870   -4.5940   27.3040 C   0  0  0  0  0  0  0  0  0  0  0  0
    6.1280   -5.3220   28.5170 C   0  0  0  0  0  0  0  0  0  0  0  0
    5.1140   -5.0260   29.2940 N   0  0  0  0  0  0  0  0  0  0  0  0
    4.2580   -6.0590   29.8370 C   0  0  0  0  0  0  0  0  0  0  0  0
    3.1550   -6.1660   29.0980 N   0  0  0  0  0  0  0  0  0  0  0  0
    2.1640   -7.0320   29.3210 C   0  0  0  0  0  0  0  0  0  0  0  0
    2.1430   -8.0350   30.4640 C   0  0  0  0  0  0  0  0  0  0  0  0
    3.3590   -7.9850   31.3610 C   0  0  0  0  0  0  0  0  0  0  0  0
    4.4560   -6.9390   31.0100 C   0  0  0  0  0  0  0  0  0  0  0  0
    5.5900   -6.8270   31.7620 F   0  0  0  0  0  0  0  0  0  0  0  0
    4.6590   -3.7010   29.1890 C   0  0  0  0  0  0  0  0  0  0  0  0
    4.7560   -2.9540   27.8400 C   0  0  0  0  0  0  0  0  0  0  0  0
    6.5770   -2.7270   23.2930 C   0  0  0  0  0  0  0  0  0  0  0  0
    7.5710   -3.2980   22.3350 C   0  0  0  0  0  0  0  0  0  0  0  0
  1  2  1  0
  2  3  2  0
  2  4  1  0
  4  5  1  0
  5  6  1  0
  6  7  1  0
  7  8  1  0
  8  9  2  0
  8 10  1  0
 10 11  1  0
 11 12  1  0
 12 13  1  0
 13 14  1  0
 14 15  2  0
 15 16  1  0
 16 17  2  0
 17 18  1  0
 14 19  1  0
 18 19  2  0
 19 20  1  0
 13 21  1  0
 10 22  1  0
 21 22  1  0
  7 23  1  0
  4 24  1  0
 23 24  1  0
M  END
