piperidine-amides-19022-covalent
     RDKit          3D

 21 22  0  0  0  0  0  0  0  0999 V2000
    7.0500   -3.4160   19.3290 C   0  0  0  0  0  0  0  0  0  0  0  0
    6.4140   -4.2030   20.3600 C   0  0  0  0  0  0  0  0  0  0  0  0
    5.4060   -4.8920   20.0050 O   0  0  0  0  0  0  0  0  0  0  0  0
    6.8960   -4.2790   21.6920 N   0  0  0  0  0  0  0  0  0  0  0  0
    6.5780   -5.4900   22.4600 C   0  0  0  0  0  0  0  0  0  0  0  0
    5.5970   -4.8520   23.5180 C   0  0  0  0  0  0  0  0  0  0  0  0
    6.3600   -3.7580   24.2530 C   0  0  0  0  0  0  0  0  0  0  0  0
    5.4190   -3.2390   25.4390 C   0  0  0  0  0  0  0  0  0  0  0  0
    4.5540   -2.5450   24.9370 O   0  0  0  0  0  0  0  0  0  0  0  0
    5.7370   -3.6390   26.6190 N   0  0  0  0  0  0  0  0  0  0  0  0
    6.2840   -3.8210   27.8440 C   0  0  0  0  0  0  0  0  0  0  0  0
    6.6750   -4.9090   28.5780 C   0  0  0  0  0  0  0  0  0  0  0  0
    5.5570   -5.5540   29.0700 C   0  0  2  0  0  0  0  0  0  0  0  0
    4.6170   -4.7310   29.7040 F   0  0  0  0  0  0  0  0  0  0  0  0
    5.7290   -6.8500   29.7810 C   0  0  0  0  0  0  0  0  0  0  0  0
    5.8050   -6.5630   31.1560 O   0  0  0  0  0  0  0  0  0  0  0  0
    4.9360   -5.7150   27.7320 C   0  0  1  0  0  0  0  0  0  0  0  0
    3.5520   -5.4910   27.8070 C   0  0  0  0  0  0  0  0  0  0  0  0
    4.6240   -4.3000   27.2310 C   0  0  0  0  0  0  0  0  0  0  0  0
    7.0220   -2.7200   23.5010 C   0  0  0  0  0  0  0  0  0  0  0  0
    7.7820   -3.3740   22.3130 C   0  0  0  0  0  0  0  0  0  0  0  0
  1  2  1  0
  2  3  2  0
  2  4  1  0
  4  5  1  0
  5  6  1  0
  6  7  1  0
  7  8  1  0
  8  9  2  0
  8 10  1  0
 10 11  1  0
 11 12  1  0
 12 13  1  0
 13 14  1  1
 13 15  1  0
 15 16  1  0
 13 17  1  0
 17 18  1  1
 10 19  1  0
 17 19  1  0
  7 20  1  0
  4 21  1  0
 20 21  1  0
M  END
