piperidine-amides-8790-covalent
     RDKit          3D

 23 24  0  0  0  0  0  0  0  0999 V2000
    7.0690   -3.2860   19.2520 C   0  0  0  0  0  0  0  0  0  0  0  0
    6.3680   -4.0670   20.2740 C   0  0  0  0  0  0  0  0  0  0  0  0
    5.3290   -4.6610   19.9280 O   0  0  0  0  0  0  0  0  0  0  0  0
    6.8760   -4.1840   21.6000 N   0  0  0  0  0  0  0  0  0  0  0  0
    6.5450   -5.3630   22.3540 C   0  0  0  0  0  0  0  0  0  0  0  0
    6.2030   -5.0140   23.7830 C   0  0  0  0  0  0  0  0  0  0  0  0
    6.0770   -3.5060   23.8850 C   0  0  0  0  0  0  0  0  0  0  0  0
    5.6230   -3.0700   25.2520 C   0  0  0  0  0  0  0  0  0  0  0  0
    4.6610   -2.3110   25.2770 O   0  0  0  0  0  0  0  0  0  0  0  0
    6.2780   -3.5410   26.3830 N   0  0  0  0  0  0  0  0  0  0  0  0
    5.9460   -4.8220   26.9010 C   0  0  2  0  0  0  0  0  0  0  0  0
    4.6010   -5.0830   26.9660 C   0  0  0  0  0  0  0  0  0  0  0  0
    6.3760   -4.9220   28.2980 C   0  0  0  0  0  0  0  0  0  0  0  0
    6.7770   -6.1640   28.7190 C   0  0  0  0  0  0  0  0  0  0  0  0
    5.5340   -6.7490   29.3210 C   0  0  0  0  0  0  0  0  0  0  0  0
    4.3540   -7.1840   28.4250 C   0  0  0  0  0  0  0  0  0  0  0  0
    3.1000   -7.7520   28.9530 C   0  0  0  0  0  0  0  0  0  0  0  0
    2.9360   -7.9330   30.4270 C   0  0  0  0  0  0  0  0  0  0  0  0
    1.9230   -8.4030   31.0110 O   0  0  0  0  0  0  0  0  0  0  0  0
    4.1530   -7.4910   31.2750 C   0  0  0  0  0  0  0  0  0  0  0  0
    5.3380   -6.9550   30.8130 C   0  0  0  0  0  0  0  0  0  0  0  0
    7.4210   -2.9370   23.5820 C   0  0  0  0  0  0  0  0  0  0  0  0
    7.6930   -3.0960   22.1160 C   0  0  0  0  0  0  0  0  0  0  0  0
  1  2  1  0
  2  3  2  0
  2  4  1  0
  4  5  1  0
  5  6  1  0
  6  7  1  0
  7  8  1  0
  8  9  2  0
  8 10  1  0
 10 11  1  0
 11 12  1  1
 11 13  1  0
 13 14  1  0
 14 15  1  0
 15 16  2  0
 16 17  1  0
 17 18  2  0
 18 19  1  0
 18 20  1  0
 15 21  1  0
 20 21  2  0
  7 22  1  0
  4 23  1  0
 22 23  1  0
M  END
