piperidine-amides-34352-covalent
     RDKit          3D

 25 27  0  0  0  0  0  0  0  0999 V2000
    7.0750   -3.3550   19.4000 C   0  0  0  0  0  0  0  0  0  0  0  0
    6.3830   -4.2210   20.3630 C   0  0  0  0  0  0  0  0  0  0  0  0
    5.3940   -4.8920   19.9970 O   0  0  0  0  0  0  0  0  0  0  0  0
    6.8520   -4.3370   21.6830 N   0  0  0  0  0  0  0  0  0  0  0  0
    6.6160   -5.5860   22.3840 C   0  0  0  0  0  0  0  0  0  0  0  0
    6.2230   -5.2490   23.8340 C   0  0  0  0  0  0  0  0  0  0  0  0
    6.1310   -3.7450   23.9020 C   0  0  0  0  0  0  0  0  0  0  0  0
    5.5970   -3.2390   25.1920 C   0  0  0  0  0  0  0  0  0  0  0  0
    4.7500   -2.3290   25.1240 O   0  0  0  0  0  0  0  0  0  0  0  0
    5.9630   -3.7430   26.4600 N   0  0  0  0  0  0  0  0  0  0  0  0
    6.4250   -2.7830   27.4170 C   0  0  0  0  0  0  0  0  0  0  0  0
    6.5970   -3.6260   28.6440 C   0  0  0  0  0  0  0  0  0  0  0  0
    5.7360   -4.6310   28.5570 C   0  0  2  0  0  0  0  0  0  0  0  0
    6.2410   -6.2350   29.0250 S   0  0  0  0  0  0  0  0  0  0  0  0
    6.3180   -7.0420   27.7700 O   0  0  0  0  0  0  0  0  0  0  0  0
    4.9650   -6.9810   29.9640 C   0  0  0  0  0  0  0  0  0  0  0  0
    3.8590   -7.4420   29.3340 C   0  0  0  0  0  0  0  0  0  0  0  0
    2.7610   -8.0440   29.8960 C   0  0  0  0  0  0  0  0  0  0  0  0
    2.4010   -8.4000   31.3640 C   0  0  0  0  0  0  0  0  0  0  0  0
    0.8900   -9.2330   32.1990 Br  0  0  0  0  0  0  0  0  0  0  0  0
    3.7180   -7.8360   31.9470 C   0  0  0  0  0  0  0  0  0  0  0  0
    4.8900   -7.1840   31.2760 C   0  0  0  0  0  0  0  0  0  0  0  0
    5.2010   -4.6970   27.2650 C   0  0  0  0  0  0  0  0  0  0  0  0
    7.4670   -3.1600   23.5950 C   0  0  0  0  0  0  0  0  0  0  0  0
    7.6340   -3.2680   22.2480 C   0  0  0  0  0  0  0  0  0  0  0  0
  1  2  1  0
  2  3  2  0
  2  4  1  0
  4  5  1  0
  5  6  1  0
  6  7  1  0
  7  8  1  0
  8  9  2  0
  8 10  1  0
 10 11  1  0
 11 12  1  0
 13 12  1  6
 13 14  1  0
 14 15  2  0
 14 16  1  1
 16 17  2  0
 17 18  1  0
 18 19  2  0
 19 20  1  0
 19 21  1  0
 16 22  1  0
 21 22  2  0
 10 23  1  0
 13 23  1  0
  7 24  1  0
  4 25  1  0
 24 25  1  0
M  END
