piperidine-amides-13466-covalent
     RDKit          3D

 23 24  0  0  0  0  0  0  0  0999 V2000
    7.1450   -3.2280   19.1720 C   0  0  0  0  0  0  0  0  0  0  0  0
    6.2680   -3.9060   20.1670 C   0  0  0  0  0  0  0  0  0  0  0  0
    5.1960   -4.4070   19.8080 O   0  0  0  0  0  0  0  0  0  0  0  0
    6.6960   -4.0050   21.4970 N   0  0  0  0  0  0  0  0  0  0  0  0
    6.2630   -5.0570   22.3500 C   0  0  0  0  0  0  0  0  0  0  0  0
    5.2230   -4.4270   23.2940 C   0  0  0  0  0  0  0  0  0  0  0  0
    5.7260   -3.1120   23.8630 C   0  0  0  0  0  0  0  0  0  0  0  0
    5.5100   -2.9710   25.3500 C   0  0  0  0  0  0  0  0  0  0  0  0
    4.3510   -2.6890   25.6740 O   0  0  0  0  0  0  0  0  0  0  0  0
    6.5380   -3.1440   26.3200 N   0  0  0  0  0  0  0  0  0  0  0  0
    6.6650   -4.2080   27.2810 C   0  0  0  0  0  0  0  0  0  0  0  0
    5.7310   -4.4560   28.2400 C   0  0  0  0  0  0  0  0  0  0  0  0
    7.8820   -3.9250   28.1240 C   0  0  0  0  0  0  0  0  0  0  0  0
    6.7950   -5.4950   26.8150 C   0  0  0  0  0  0  0  0  0  0  0  0
    8.2000   -5.9460   27.1240 C   0  0  0  0  0  0  0  0  0  0  0  0
    9.2600   -5.5710   26.1360 C   0  0  0  0  0  0  0  0  0  0  0  0
    8.6620   -4.2730   25.1590 S   0  0  0  0  0  0  0  0  0  0  0  0
    9.5130   -3.9200   23.9680 O   0  0  0  0  0  0  0  0  0  0  0  0
    8.4610   -3.0500   25.9990 O   0  0  0  0  0  0  0  0  0  0  0  0
    7.1380   -5.0230   24.6360 C   0  0  0  0  0  0  0  0  0  0  0  0
    6.2140   -5.4400   25.5810 C   0  0  0  0  0  0  0  0  0  0  0  0
    7.1070   -2.6360   23.4990 C   0  0  0  0  0  0  0  0  0  0  0  0
    7.5030   -2.9480   22.0570 C   0  0  0  0  0  0  0  0  0  0  0  0
  1  2  1  0
  2  3  2  0
  2  4  1  0
  4  5  1  0
  5  6  1  0
  6  7  1  0
  7  8  1  0
  8  9  2  0
  8 10  1  0
 11 10  1  0
 11 12  1  0
 11 13  1  0
 11 14  1  0
 14 15  1  0
 15 16  1  0
 17 16  1  0
 17 18  2  0
 17 19  2  0
 17 20  1  0
 14 21  1  0
 20 21  1  0
  7 22  1  0
  4 23  1  0
 22 23  1  0
M  END
