piperidine-amides-1262-covalent
     RDKit          3D

 22 23  0  0  0  0  0  0  0  0999 V2000
    7.1330   -3.2470   19.1910 C   0  0  0  0  0  0  0  0  0  0  0  0
    6.3320   -3.9960   20.2010 C   0  0  0  0  0  0  0  0  0  0  0  0
    5.2590   -4.5220   19.8640 O   0  0  0  0  0  0  0  0  0  0  0  0
    6.8390   -4.1280   21.5050 N   0  0  0  0  0  0  0  0  0  0  0  0
    6.6090   -5.3190   22.2930 C   0  0  0  0  0  0  0  0  0  0  0  0
    5.9180   -4.9260   23.6120 C   0  0  0  0  0  0  0  0  0  0  0  0
    6.0570   -3.4520   23.8510 C   0  0  0  0  0  0  0  0  0  0  0  0
    5.6470   -3.0270   25.2020 C   0  0  0  0  0  0  0  0  0  0  0  0
    4.4360   -3.0750   25.4530 O   0  0  0  0  0  0  0  0  0  0  0  0
    6.6130   -2.6020   26.1180 N   0  0  0  0  0  0  0  0  0  0  0  0
    7.0180   -3.2860   27.2810 C   0  0  0  0  0  0  0  0  0  0  0  0
    7.5900   -4.5190   27.2510 C   0  0  0  0  0  0  0  0  0  0  0  0
    8.7590   -4.7740   26.4450 N   0  0  0  0  0  0  0  0  0  0  0  0
    9.0770   -6.0850   26.6610 C   0  0  0  0  0  0  0  0  0  0  0  0
    8.2150   -6.7270   27.5200 O   0  0  0  0  0  0  0  0  0  0  0  0
    7.2500   -5.8300   27.9300 C   0  0  0  0  0  0  0  0  0  0  0  0
    6.0760   -6.0020   28.8360 C   0  0  0  0  0  0  0  0  0  0  0  0
    6.2240   -6.6890   30.0260 F   0  0  0  0  0  0  0  0  0  0  0  0
    5.6160   -4.7410   29.1570 F   0  0  0  0  0  0  0  0  0  0  0  0
    5.0390   -6.6490   28.1670 F   0  0  0  0  0  0  0  0  0  0  0  0
    7.4460   -2.9840   23.5350 C   0  0  0  0  0  0  0  0  0  0  0  0
    7.7170   -3.1570   22.0640 C   0  0  0  0  0  0  0  0  0  0  0  0
  1  2  1  0
  2  3  2  0
  2  4  1  0
  4  5  1  0
  5  6  1  0
  6  7  1  0
  7  8  1  0
  8  9  2  0
  8 10  1  0
 10 11  1  0
 11 12  1  0
 12 13  1  0
 13 14  2  0
 14 15  1  0
 12 16  2  0
 15 16  1  0
 16 17  1  0
 17 18  1  0
 17 19  1  0
 17 20  1  0
  7 21  1  0
  4 22  1  0
 21 22  1  0
M  END
