piperidine-amides-10663-covalent
     RDKit          3D

 23 25  0  0  0  0  0  0  0  0999 V2000
    7.1300   -3.2820   19.2120 C   0  0  0  0  0  0  0  0  0  0  0  0
    6.3880   -4.0520   20.2090 C   0  0  0  0  0  0  0  0  0  0  0  0
    5.2680   -4.5070   19.8660 O   0  0  0  0  0  0  0  0  0  0  0  0
    6.9630   -4.3040   21.4520 N   0  0  0  0  0  0  0  0  0  0  0  0
    7.6160   -3.2650   22.1940 C   0  0  0  0  0  0  0  0  0  0  0  0
    6.6580   -2.8170   23.2580 C   0  0  0  0  0  0  0  0  0  0  0  0
    5.9990   -3.9730   23.9830 C   0  0  0  0  0  0  0  0  0  0  0  0
    4.9800   -3.4660   24.9100 C   0  0  0  0  0  0  0  0  0  0  0  0
    3.7800   -3.5860   24.6010 O   0  0  0  0  0  0  0  0  0  0  0  0
    5.2770   -2.8570   26.1250 N   0  0  0  0  0  0  0  0  0  0  0  0
    5.4950   -3.6240   27.3100 C   0  0  0  0  0  0  0  0  0  0  0  0
    5.9860   -2.6750   28.3650 C   0  0  0  0  0  0  0  0  0  0  0  0
    7.1780   -2.0630   27.7930 N   0  0  0  0  0  0  0  0  0  0  0  0
    8.2070   -2.4500   28.4750 C   0  0  0  0  0  0  0  0  0  0  0  0
    8.3810   -3.8420   28.5080 C   0  0  0  0  0  0  0  0  0  0  0  0
    8.3770   -4.4450   27.2880 C   0  0  0  0  0  0  0  0  0  0  0  0
    8.8790   -6.0400   26.9130 S   0  0  0  0  0  0  0  0  0  0  0  0
    8.4480   -5.6760   25.3270 C   0  0  0  0  0  0  0  0  0  0  0  0
    7.9800   -4.4460   25.0900 C   0  0  0  0  0  0  0  0  0  0  0  0
    7.9100   -3.6140   26.3220 C   0  0  0  0  0  0  0  0  0  0  0  0
    7.4190   -2.2030   26.3910 C   0  0  0  0  0  0  0  0  0  0  0  0
    5.3620   -4.9930   23.0300 C   0  0  0  0  0  0  0  0  0  0  0  0
    6.5300   -5.4670   22.1980 C   0  0  0  0  0  0  0  0  0  0  0  0
  1  2  1  0
  2  3  2  0
  2  4  1  0
  4  5  1  0
  5  6  1  0
  6  7  1  0
  7  8  1  0
  8  9  2  0
  8 10  1  0
 10 11  1  0
 11 12  1  0
 12 13  1  0
 13 14  1  0
 14 15  1  0
 15 16  1  0
 16 17  1  0
 17 18  1  0
 18 19  2  0
 16 20  2  0
 19 20  1  0
 13 21  1  0
 20 21  1  0
  7 22  1  0
  4 23  1  0
 22 23  1  0
M  END
