piperidine-amides-13687-covalent
     RDKit          3D

 28 30  0  0  0  0  0  0  0  0999 V2000
    7.0860   -3.3350   19.2970 C   0  0  0  0  0  0  0  0  0  0  0  0
    6.4060   -4.1900   20.3050 C   0  0  0  0  0  0  0  0  0  0  0  0
    5.3770   -4.8060   19.9760 O   0  0  0  0  0  0  0  0  0  0  0  0
    6.9830   -4.3190   21.5910 N   0  0  0  0  0  0  0  0  0  0  0  0
    7.7440   -3.2600   22.2010 C   0  0  0  0  0  0  0  0  0  0  0  0
    6.8400   -2.6610   23.2720 C   0  0  0  0  0  0  0  0  0  0  0  0
    6.4340   -3.7720   24.1800 C   0  0  0  0  0  0  0  0  0  0  0  0
    5.7150   -3.2800   25.3760 C   0  0  0  0  0  0  0  0  0  0  0  0
    4.4950   -3.1260   25.2450 O   0  0  0  0  0  0  0  0  0  0  0  0
    6.3890   -3.0170   26.5730 N   0  0  0  0  0  0  0  0  0  0  0  0
    6.4440   -1.7590   27.2380 C   0  0  0  0  0  0  0  0  0  0  0  0
    6.9960   -1.6120   28.4940 C   0  0  0  0  0  0  0  0  0  0  0  0
    7.0600   -0.3980   29.1800 C   0  0  0  0  0  0  0  0  0  0  0  0
    6.5600    0.7420   28.6130 C   0  0  0  0  0  0  0  0  0  0  0  0
    5.9580    0.6370   27.2670 C   0  0  0  0  0  0  0  0  0  0  0  0
    5.3310    1.7400   26.4020 C   0  0  0  0  0  0  0  0  0  0  0  0
    6.0770    2.9660   26.4080 N   0  0  0  0  0  0  0  0  0  0  0  0
    7.2070    3.1080   25.5670 C   0  0  0  0  0  0  0  0  0  0  0  0
    6.3440    3.5160   27.6090 C   0  0  0  0  0  0  0  0  0  0  0  0
    5.0520    3.3750   28.3240 C   0  0  0  0  0  0  0  0  0  0  0  0
    4.0950    4.0820   27.3690 C   0  0  0  0  0  0  0  0  0  0  0  0
    2.7080    4.3330   27.3980 C   0  0  0  0  0  0  0  0  0  0  0  0
    2.4310    3.6280   28.7840 C   0  0  0  0  0  0  0  0  0  0  0  0
    3.3160    2.9150   29.7800 C   0  0  0  0  0  0  0  0  0  0  0  0
    4.7680    2.7890   29.4990 C   0  0  0  0  0  0  0  0  0  0  0  0
    5.9160   -0.5980   26.6180 C   0  0  0  0  0  0  0  0  0  0  0  0
    5.6710   -4.8720   23.4530 C   0  0  0  0  0  0  0  0  0  0  0  0
    6.5000   -5.3550   22.4800 C   0  0  0  0  0  0  0  0  0  0  0  0
  1  2  1  0
  2  3  2  0
  2  4  1  0
  4  5  1  0
  5  6  1  0
  6  7  1  0
  7  8  1  0
  8  9  2  0
  8 10  1  0
 10 11  1  0
 11 12  2  0
 12 13  1  0
 13 14  2  0
 14 15  1  0
 15 16  1  0
 16 17  1  0
 17 18  1  0
 17 19  1  0
 19 20  1  0
 20 21  2  0
 21 22  1  0
 22 23  2  0
 23 24  1  0
 20 25  1  0
 24 25  2  0
 11 26  1  0
 15 26  2  0
  7 27  1  0
  4 28  1  0
 27 28  1  0
M  END
