piperidine-amides-2483-covalent
     RDKit          3D

 26 28  0  0  0  0  0  0  0  0999 V2000
    7.1320   -3.2410   19.1850 C   0  0  0  0  0  0  0  0  0  0  0  0
    6.3670   -3.9980   20.2140 C   0  0  0  0  0  0  0  0  0  0  0  0
    5.3050   -4.5120   19.8680 O   0  0  0  0  0  0  0  0  0  0  0  0
    6.8790   -4.1450   21.5020 N   0  0  0  0  0  0  0  0  0  0  0  0
    6.6020   -5.3050   22.3110 C   0  0  0  0  0  0  0  0  0  0  0  0
    5.8910   -4.8790   23.5660 C   0  0  0  0  0  0  0  0  0  0  0  0
    6.6230   -3.6840   24.1800 C   0  0  0  0  0  0  0  0  0  0  0  0
    5.8120   -3.1860   25.3020 C   0  0  0  0  0  0  0  0  0  0  0  0
    4.5740   -3.2060   25.2170 O   0  0  0  0  0  0  0  0  0  0  0  0
    6.4320   -2.6830   26.4590 N   0  0  0  0  0  0  0  0  0  0  0  0
    6.3160   -3.4700   27.6620 C   0  0  0  0  0  0  0  0  0  0  0  0
    5.1040   -2.9620   28.4020 C   0  0  0  0  0  0  0  0  0  0  0  0
    4.8000   -1.5640   28.3250 N   0  0  0  0  0  0  0  0  0  0  0  0
    3.7400   -1.2420   29.0000 N   0  0  0  0  0  0  0  0  0  0  0  0
    3.3200   -2.4160   29.5340 N   0  0  0  0  0  0  0  0  0  0  0  0
    4.1350   -3.4440   29.1770 N   0  0  0  0  0  0  0  0  0  0  0  0
    4.0090   -4.8260   29.5490 C   0  0  0  0  0  0  0  0  0  0  0  0
    2.9270   -5.3590   30.1030 C   0  0  0  0  0  0  0  0  0  0  0  0
    1.6760   -4.9940   30.5140 C   0  0  0  0  0  0  0  0  0  0  0  0
    2.5370   -6.6310   30.5590 C   0  0  0  0  0  0  0  0  0  0  0  0
    3.4580   -7.7770   30.4650 C   0  0  0  0  0  0  0  0  0  0  0  0
    4.8120   -7.4430   29.8480 C   0  0  0  0  0  0  0  0  0  0  0  0
    5.0240   -5.9980   29.4240 C   0  0  0  0  0  0  0  0  0  0  0  0
    6.3810   -5.7770   28.8400 C   0  0  0  0  0  0  0  0  0  0  0  0
    7.0270   -2.6100   23.2610 C   0  0  0  0  0  0  0  0  0  0  0  0
    7.7340   -3.1190   22.0730 C   0  0  0  0  0  0  0  0  0  0  0  0
  1  2  1  0
  2  3  2  0
  2  4  1  0
  4  5  1  0
  5  6  1  0
  6  7  1  0
  7  8  1  0
  8  9  2  0
  8 10  1  0
 10 11  1  0
 11 12  1  0
 12 13  2  0
 13 14  1  0
 14 15  2  0
 12 16  1  0
 15 16  1  0
 16 17  1  0
 17 18  2  0
 18 19  1  0
 18 20  1  0
 20 21  2  0
 21 22  1  0
 17 23  1  0
 22 23  2  0
 23 24  1  0
  7 25  1  0
  4 26  1  0
 25 26  1  0
M  END
