piperidine-amides-24388-covalent
     RDKit          3D

 23 25  0  0  0  0  0  0  0  0999 V2000
    7.0080   -3.3550   19.4420 C   0  0  0  0  0  0  0  0  0  0  0  0
    6.3510   -4.2550   20.4120 C   0  0  0  0  0  0  0  0  0  0  0  0
    5.4230   -4.9990   20.0140 O   0  0  0  0  0  0  0  0  0  0  0  0
    6.7680   -4.3160   21.7600 N   0  0  0  0  0  0  0  0  0  0  0  0
    6.6540   -5.5820   22.4750 C   0  0  0  0  0  0  0  0  0  0  0  0
    6.1270   -5.2970   23.8980 C   0  0  0  0  0  0  0  0  0  0  0  0
    6.1650   -3.8000   24.0510 C   0  0  0  0  0  0  0  0  0  0  0  0
    5.6710   -3.2370   25.3510 C   0  0  0  0  0  0  0  0  0  0  0  0
    5.3070   -2.0500   25.3030 O   0  0  0  0  0  0  0  0  0  0  0  0
    5.5270   -3.9230   26.6070 N   0  0  0  0  0  0  0  0  0  0  0  0
    6.3650   -3.5970   27.7040 C   0  0  0  0  0  0  0  0  0  0  0  0
    6.7000   -4.8940   28.4230 C   0  0  0  0  0  0  0  0  0  0  0  0
    5.5200   -5.3370   29.1000 N   0  0  0  0  0  0  0  0  0  0  0  0
    5.6040   -6.4910   29.9840 C   0  0  0  0  0  0  0  0  0  0  0  0
    4.3660   -7.0570   30.1080 C   0  0  0  0  0  0  0  0  0  0  0  0
    3.5940   -7.6620   29.0920 C   0  0  0  0  0  0  0  0  0  0  0  0
    2.3770   -8.1680   29.4520 C   0  0  0  0  0  0  0  0  0  0  0  0
    2.0610   -7.9940   30.8890 C   0  0  0  0  0  0  0  0  0  0  0  0
    3.4220   -7.1650   31.6420 S   0  0  0  0  0  0  0  0  0  0  0  0
    4.3220   -5.0680   28.3960 C   0  0  0  0  0  0  0  0  0  0  0  0
    4.5820   -3.7650   27.6920 C   0  0  0  0  0  0  0  0  0  0  0  0
    7.5440   -3.3030   23.7020 C   0  0  0  0  0  0  0  0  0  0  0  0
    7.6440   -3.2830   22.3010 C   0  0  0  0  0  0  0  0  0  0  0  0
  1  2  1  0
  2  3  2  0
  2  4  1  0
  4  5  1  0
  5  6  1  0
  6  7  1  0
  7  8  1  0
  8  9  2  0
  8 10  1  0
 10 11  1  0
 11 12  1  0
 12 13  1  0
 13 14  1  0
 14 15  1  0
 15 16  2  0
 16 17  1  0
 17 18  2  0
 15 19  1  0
 18 19  1  0
 13 20  1  0
 10 21  1  0
 20 21  1  0
  7 22  1  0
  4 23  1  0
 22 23  1  0
M  END
