piperidine-amides-32978-covalent
     RDKit          3D

 29 32  0  0  0  0  0  0  0  0999 V2000
    6.9800   -3.3690   19.4210 C   0  0  0  0  0  0  0  0  0  0  0  0
    6.3240   -4.2770   20.4120 C   0  0  0  0  0  0  0  0  0  0  0  0
    5.3950   -4.9950   20.0060 O   0  0  0  0  0  0  0  0  0  0  0  0
    6.7720   -4.3340   21.7620 N   0  0  0  0  0  0  0  0  0  0  0  0
    6.6100   -5.5530   22.5380 C   0  0  0  0  0  0  0  0  0  0  0  0
    6.0710   -5.2300   23.9560 C   0  0  0  0  0  0  0  0  0  0  0  0
    5.9460   -3.7520   24.1100 C   0  0  0  0  0  0  0  0  0  0  0  0
    5.2490   -3.2580   25.3650 C   0  0  0  0  0  0  0  0  0  0  0  0
    4.6210   -2.2120   25.2060 O   0  0  0  0  0  0  0  0  0  0  0  0
    5.2720   -3.9050   26.6300 N   0  0  0  0  0  0  0  0  0  0  0  0
    6.4040   -4.2620   27.2800 C   0  0  0  0  0  0  0  0  0  0  0  0
    6.3610   -4.2990   28.6090 C   0  0  0  0  0  0  0  0  0  0  0  0
    5.0580   -4.0070   28.9660 C   0  0  2  0  0  0  0  0  0  0  0  0
    4.4440   -5.2140   29.5310 N   0  0  0  0  0  0  0  0  0  0  0  0
    3.6880   -5.3050   30.6620 C   0  0  0  0  0  0  0  0  0  0  0  0
    4.1590   -6.2840   31.6890 C   0  0  0  0  0  0  0  0  0  0  0  0
    3.3950   -6.3120   32.7980 N   0  0  0  0  0  0  0  0  0  0  0  0
    3.8630   -7.1820   33.6450 O   0  0  0  0  0  0  0  0  0  0  0  0
    4.9390   -7.6620   32.9780 C   0  0  0  0  0  0  0  0  0  0  0  0
    5.7250   -8.7370   33.7370 C   0  0  0  0  0  0  0  0  0  0  0  0
    6.0250   -8.6790   34.9460 C   0  0  0  0  0  0  0  0  0  0  0  0
    4.7700   -9.4770   34.7410 C   0  0  0  0  0  0  0  0  0  0  0  0
    5.1790   -7.1450   31.7490 N   0  0  0  0  0  0  0  0  0  0  0  0
    4.3480   -6.1400   28.4590 C   0  0  0  0  0  0  0  0  0  0  0  0
    5.3760   -7.0460   28.3800 C   0  0  0  0  0  0  0  0  0  0  0  0
    3.2240   -6.0320   27.6230 O   0  0  0  0  0  0  0  0  0  0  0  0
    4.3810   -3.5540   27.7580 C   0  0  0  0  0  0  0  0  0  0  0  0
    7.2150   -3.0240   23.7930 C   0  0  0  0  0  0  0  0  0  0  0  0
    7.5890   -3.2710   22.3280 C   0  0  0  0  0  0  0  0  0  0  0  0
  1  2  1  0
  2  3  2  0
  2  4  1  0
  4  5  1  0
  5  6  1  0
  6  7  1  0
  7  8  1  0
  8  9  2  0
  8 10  1  0
 10 11  1  0
 11 12  1  0
 12 13  1  0
 13 14  1  6
 14 15  1  0
 15 16  1  0
 16 17  2  0
 17 18  1  0
 18 19  1  0
 19 20  1  0
 20 21  1  0
 20 22  1  0
 21 22  1  0
 16 23  1  0
 19 23  2  0
 14 24  1  0
 24 25  1  0
 24 26  2  0
 10 27  1  0
 13 27  1  0
  7 28  1  0
  4 29  1  0
 28 29  1  0
M  END
