piperidine-amides-8785-covalent
     RDKit          3D

 23 24  0  0  0  0  0  0  0  0999 V2000
    7.0710   -3.3020   19.2850 C   0  0  0  0  0  0  0  0  0  0  0  0
    6.3860   -4.1120   20.2940 C   0  0  0  0  0  0  0  0  0  0  0  0
    5.3580   -4.7240   19.9500 O   0  0  0  0  0  0  0  0  0  0  0  0
    6.9110   -4.2250   21.6110 N   0  0  0  0  0  0  0  0  0  0  0  0
    7.7140   -3.1400   22.1300 C   0  0  0  0  0  0  0  0  0  0  0  0
    7.5260   -3.0070   23.6100 C   0  0  0  0  0  0  0  0  0  0  0  0
    6.1350   -3.5100   23.8910 C   0  0  0  0  0  0  0  0  0  0  0  0
    5.6620   -3.0830   25.2450 C   0  0  0  0  0  0  0  0  0  0  0  0
    4.6110   -2.4490   25.2590 O   0  0  0  0  0  0  0  0  0  0  0  0
    6.4180   -3.4090   26.3680 N   0  0  0  0  0  0  0  0  0  0  0  0
    5.8780   -3.3480   27.6860 C   0  0  2  0  0  0  0  0  0  0  0  0
    6.3490   -4.3160   28.5860 C   0  0  0  0  0  0  0  0  0  0  0  0
    5.7760   -5.5620   28.5500 C   0  0  0  0  0  0  0  0  0  0  0  0
    6.3080   -6.6070   29.2740 C   0  0  0  0  0  0  0  0  0  0  0  0
    5.8280   -6.1500   27.1070 C   0  0  0  0  0  0  0  0  0  0  0  0
    4.4250   -3.3510   27.4710 C   0  0  0  0  0  0  0  0  0  0  0  0
    3.5230   -2.4840   28.2830 C   0  0  0  0  0  0  0  0  0  0  0  0
    2.0290   -2.4770   28.0790 C   0  0  0  0  0  0  0  0  0  0  0  0
    1.5430   -3.4360   26.9700 C   0  0  0  0  0  0  0  0  0  0  0  0
    2.4490   -4.1920   26.2760 C   0  0  0  0  0  0  0  0  0  0  0  0
    3.8050   -4.1550   26.5100 C   0  0  0  0  0  0  0  0  0  0  0  0
    6.0560   -4.9880   23.7300 C   0  0  0  0  0  0  0  0  0  0  0  0
    6.6460   -5.3970   22.4100 C   0  0  0  0  0  0  0  0  0  0  0  0
  1  2  1  0
  2  3  2  0
  2  4  1  0
  4  5  1  0
  5  6  1  0
  6  7  1  0
  7  8  1  0
  8  9  2  0
  8 10  1  0
 10 11  1  0
 11 12  1  1
 12 13  1  0
 13 14  1  0
 13 15  1  0
 11 16  1  0
 16 17  2  0
 17 18  1  0
 18 19  2  0
 19 20  1  0
 16 21  1  0
 20 21  2  0
  7 22  1  0
  4 23  1  0
 22 23  1  0
M  END
