piperidine-amides-5176-covalent
     RDKit          3D

 22 23  0  0  0  0  0  0  0  0999 V2000
    7.1520   -3.2880   19.2370 C   0  0  0  0  0  0  0  0  0  0  0  0
    6.3730   -4.0450   20.2400 C   0  0  0  0  0  0  0  0  0  0  0  0
    5.2800   -4.5110   19.8680 O   0  0  0  0  0  0  0  0  0  0  0  0
    6.8860   -4.2730   21.5220 N   0  0  0  0  0  0  0  0  0  0  0  0
    6.4060   -5.3620   22.2990 C   0  0  0  0  0  0  0  0  0  0  0  0
    5.7740   -4.9620   23.5630 C   0  0  0  0  0  0  0  0  0  0  0  0
    6.3530   -3.7590   24.2100 C   0  0  0  0  0  0  0  0  0  0  0  0
    5.4070   -3.1810   25.1950 C   0  0  0  0  0  0  0  0  0  0  0  0
    4.1920   -3.1980   24.9330 O   0  0  0  0  0  0  0  0  0  0  0  0
    5.8560   -2.6300   26.3980 N   0  0  0  0  0  0  0  0  0  0  0  0
    6.4670   -3.4920   27.4100 C   0  0  0  0  0  0  0  0  0  0  0  0
    7.8230   -3.8690   26.9880 C   0  0  0  0  0  0  0  0  0  0  0  0
    8.5010   -4.8710   27.7260 C   0  0  0  0  0  0  0  0  0  0  0  0
    9.7390   -5.2550   27.3990 C   0  0  0  0  0  0  0  0  0  0  0  0
   10.4100   -4.6850   26.3220 C   0  0  0  0  0  0  0  0  0  0  0  0
    9.7890   -3.7170   25.5910 C   0  0  0  0  0  0  0  0  0  0  0  0
   10.4310   -3.1450   24.5300 C   0  0  0  0  0  0  0  0  0  0  0  0
   11.7150   -2.0220   24.8790 S   0  0  0  0  0  0  0  0  0  0  0  0
   13.2390   -2.9520   25.3150 C   0  0  0  0  0  0  0  0  0  0  0  0
    8.5120   -3.3070   25.9080 C   0  0  0  0  0  0  0  0  0  0  0  0
    6.8240   -2.6900   23.2950 C   0  0  0  0  0  0  0  0  0  0  0  0
    7.6950   -3.2870   22.2310 C   0  0  0  0  0  0  0  0  0  0  0  0
  1  2  1  0
  2  3  2  0
  2  4  1  0
  4  5  1  0
  5  6  1  0
  6  7  1  0
  7  8  1  0
  8  9  2  0
  8 10  1  0
 10 11  1  0
 11 12  1  0
 12 13  2  0
 13 14  1  0
 14 15  2  0
 15 16  1  0
 16 17  1  0
 17 18  1  0
 18 19  1  0
 12 20  1  0
 16 20  2  0
  7 21  1  0
  4 22  1  0
 21 22  1  0
M  END
