piperidine-amides-28051-covalent
     RDKit          3D

 26 28  0  0  0  0  0  0  0  0999 V2000
    7.1420   -3.2480   19.2000 C   0  0  0  0  0  0  0  0  0  0  0  0
    6.3980   -4.0060   20.2280 C   0  0  0  0  0  0  0  0  0  0  0  0
    5.3100   -4.5020   19.8740 O   0  0  0  0  0  0  0  0  0  0  0  0
    6.9310   -4.2090   21.5130 N   0  0  0  0  0  0  0  0  0  0  0  0
    6.4210   -5.2750   22.2800 C   0  0  0  0  0  0  0  0  0  0  0  0
    5.4620   -4.8110   23.2730 C   0  0  0  0  0  0  0  0  0  0  0  0
    5.9140   -3.6200   24.0250 C   0  0  0  0  0  0  0  0  0  0  0  0
    5.7590   -3.9730   25.4590 C   0  0  0  0  0  0  0  0  0  0  0  0
    5.9020   -5.1560   25.7450 O   0  0  0  0  0  0  0  0  0  0  0  0
    5.4150   -3.0900   26.4940 N   0  0  0  0  0  0  0  0  0  0  0  0
    4.2140   -3.4020   27.2910 C   0  0  0  0  0  0  0  0  0  0  0  0
    4.5680   -4.1750   28.5060 C   0  0  0  0  0  0  0  0  0  0  0  0
    5.6930   -3.6760   29.2220 C   0  0  0  0  0  0  0  0  0  0  0  0
    5.4030   -2.5150   29.9200 C   0  0  0  0  0  0  0  0  0  0  0  0
    4.4230   -2.3420   30.6640 O   0  0  0  0  0  0  0  0  0  0  0  0
    6.3820   -1.5380   29.6770 N   0  0  0  0  0  0  0  0  0  0  0  0
    6.4130   -0.3440   30.5080 C   0  0  0  0  0  0  0  0  0  0  0  0
    5.2600    0.4260   30.8790 N   0  0  0  0  0  0  0  0  0  0  0  0
    5.3080    1.6370   31.7260 C   0  0  0  0  0  0  0  0  0  0  0  0
    6.5490    1.9930   32.1470 C   0  0  0  0  0  0  0  0  0  0  0  0
    7.6580    1.2860   31.8150 C   0  0  0  0  0  0  0  0  0  0  0  0
    7.5390    0.1880   31.0380 N   0  0  0  0  0  0  0  0  0  0  0  0
    6.7110   -3.5380   28.3570 C   0  0  0  0  0  0  0  0  0  0  0  0
    6.4500   -2.5190   27.2930 C   0  0  0  0  0  0  0  0  0  0  0  0
    7.3190   -3.2230   23.6980 C   0  0  0  0  0  0  0  0  0  0  0  0
    7.6110   -3.1270   22.2120 C   0  0  0  0  0  0  0  0  0  0  0  0
  1  2  1  0
  2  3  2  0
  2  4  1  0
  4  5  1  0
  5  6  1  0
  6  7  1  0
  7  8  1  0
  8  9  2  0
  8 10  1  0
 10 11  1  0
 11 12  1  0
 12 13  1  0
 13 14  1  0
 14 15  2  0
 14 16  1  0
 16 17  1  0
 17 18  2  0
 18 19  1  0
 19 20  2  0
 20 21  1  0
 17 22  1  0
 21 22  2  0
 13 23  1  0
 10 24  1  0
 23 24  1  0
  7 25  1  0
  4 26  1  0
 25 26  1  0
M  END
