piperidine-amides-11380-covalent
     RDKit          3D

 19 19  0  0  0  0  0  0  0  0999 V2000
    7.1170   -3.2930   19.2370 C   0  0  0  0  0  0  0  0  0  0  0  0
    6.3820   -4.0440   20.2540 C   0  0  0  0  0  0  0  0  0  0  0  0
    5.3430   -4.6460   19.9280 O   0  0  0  0  0  0  0  0  0  0  0  0
    6.8680   -4.1320   21.5670 N   0  0  0  0  0  0  0  0  0  0  0  0
    7.7500   -3.1110   22.0950 C   0  0  0  0  0  0  0  0  0  0  0  0
    7.4050   -2.9650   23.5460 C   0  0  0  0  0  0  0  0  0  0  0  0
    6.0470   -3.5250   23.8440 C   0  0  0  0  0  0  0  0  0  0  0  0
    5.6190   -3.2720   25.2340 C   0  0  0  0  0  0  0  0  0  0  0  0
    4.3950   -3.1080   25.5130 O   0  0  0  0  0  0  0  0  0  0  0  0
    6.5520   -3.1870   26.2780 N   0  0  0  0  0  0  0  0  0  0  0  0
    6.1350   -3.0070   27.6800 C   0  0  0  0  0  0  0  0  0  0  0  0
    6.0640   -4.3110   28.3750 C   0  0  1  0  0  0  0  0  0  0  0  0
    4.7250   -4.6290   28.9230 C   0  0  0  0  0  0  0  0  0  0  0  0
    4.0420   -5.2270   28.0650 O   0  0  0  0  0  0  0  0  0  0  0  0
    3.9680   -6.6130   28.2580 C   0  0  0  0  0  0  0  0  0  0  0  0
    6.3370   -5.4830   27.7280 O   0  0  0  0  0  0  0  0  0  0  0  0
    6.6110   -6.4870   28.6910 C   0  0  0  0  0  0  0  0  0  0  0  0
    6.0440   -4.9900   23.5600 C   0  0  0  0  0  0  0  0  0  0  0  0
    6.5120   -5.3020   22.3120 C   0  0  0  0  0  0  0  0  0  0  0  0
  1  2  1  0
  2  3  2  0
  2  4  1  0
  4  5  1  0
  5  6  1  0
  6  7  1  0
  7  8  1  0
  8  9  2  0
  8 10  1  0
 10 11  1  0
 12 11  1  6
 12 13  1  0
 13 14  1  0
 14 15  1  0
 12 16  1  0
 16 17  1  0
  7 18  1  0
  4 19  1  0
 18 19  1  0
M  END
