piperidine-amides-6828-covalent
     RDKit          3D

 23 24  0  0  0  0  0  0  0  0999 V2000
    7.1550   -3.2800   19.2340 C   0  0  0  0  0  0  0  0  0  0  0  0
    6.4240   -4.0740   20.2310 C   0  0  0  0  0  0  0  0  0  0  0  0
    5.3580   -4.6550   19.9300 O   0  0  0  0  0  0  0  0  0  0  0  0
    6.9540   -4.2280   21.5190 N   0  0  0  0  0  0  0  0  0  0  0  0
    7.8360   -3.2180   22.0540 C   0  0  0  0  0  0  0  0  0  0  0  0
    7.1090   -2.6280   23.2450 C   0  0  0  0  0  0  0  0  0  0  0  0
    6.6540   -3.7950   24.0850 C   0  0  0  0  0  0  0  0  0  0  0  0
    5.8950   -3.2540   25.2090 C   0  0  0  0  0  0  0  0  0  0  0  0
    4.6820   -3.5480   25.3210 O   0  0  0  0  0  0  0  0  0  0  0  0
    6.5400   -2.3870   26.1150 N   0  0  0  0  0  0  0  0  0  0  0  0
    5.7120   -1.6350   26.9970 C   0  0  0  0  0  0  0  0  0  0  0  0
    5.0510   -2.6250   27.9240 C   0  0  2  0  0  0  0  0  0  0  0  0
    4.7210   -2.3200   29.2150 C   0  0  0  0  0  0  0  0  0  0  0  0
    6.0870   -3.6640   27.9760 C   0  0  0  0  0  0  0  0  0  0  0  0
    5.7950   -4.9400   27.6060 C   0  0  0  0  0  0  0  0  0  0  0  0
    4.1650   -5.3750   27.0810 Cl  0  0  0  0  0  0  0  0  0  0  0  0
    6.7560   -5.9010   27.6310 C   0  0  0  0  0  0  0  0  0  0  0  0
    8.2340   -5.8660   28.0260 C   0  0  0  0  0  0  0  0  0  0  0  0
    8.3530   -4.4040   28.4140 C   0  0  0  0  0  0  0  0  0  0  0  0
    7.3150   -3.3920   28.3700 C   0  0  0  0  0  0  0  0  0  0  0  0
    7.7070   -1.7390   28.8570 Cl  0  0  0  0  0  0  0  0  0  0  0  0
    5.7710   -4.7490   23.3040 C   0  0  0  0  0  0  0  0  0  0  0  0
    6.5960   -5.3470   22.3440 C   0  0  0  0  0  0  0  0  0  0  0  0
  1  2  1  0
  2  3  2  0
  2  4  1  0
  4  5  1  0
  5  6  1  0
  6  7  1  0
  7  8  1  0
  8  9  2  0
  8 10  1  0
 10 11  1  0
 11 12  1  0
 12 13  1  1
 12 14  1  0
 14 15  2  0
 15 16  1  0
 15 17  1  0
 17 18  2  0
 18 19  1  0
 14 20  1  0
 19 20  2  0
 20 21  1  0
  7 22  1  0
  4 23  1  0
 22 23  1  0
M  END
