piperidine-amides-31154-covalent
     RDKit          3D

 28 31  0  0  0  0  0  0  0  0999 V2000
    7.1050   -3.3740   19.3640 C   0  0  0  0  0  0  0  0  0  0  0  0
    6.3980   -4.2150   20.3290 C   0  0  0  0  0  0  0  0  0  0  0  0
    5.3510   -4.7820   19.9700 O   0  0  0  0  0  0  0  0  0  0  0  0
    6.9080   -4.4610   21.6190 N   0  0  0  0  0  0  0  0  0  0  0  0
    6.6410   -5.6800   22.3230 C   0  0  0  0  0  0  0  0  0  0  0  0
    5.7720   -5.2690   23.4830 C   0  0  0  0  0  0  0  0  0  0  0  0
    6.2930   -4.0850   24.2600 C   0  0  0  0  0  0  0  0  0  0  0  0
    5.2310   -3.5550   25.1540 C   0  0  0  0  0  0  0  0  0  0  0  0
    5.0770   -2.3070   25.2630 O   0  0  0  0  0  0  0  0  0  0  0  0
    4.3220   -4.3460   25.9120 N   0  0  0  0  0  0  0  0  0  0  0  0
    3.0650   -3.6600   26.3250 C   0  0  0  0  0  0  0  0  0  0  0  0
    3.1970   -3.2010   27.7230 C   0  0  0  0  0  0  0  0  0  0  0  0
    4.5690   -3.1310   28.0080 C   0  0  0  0  0  0  0  0  0  0  0  0
    5.3110   -2.1250   28.6210 N   0  0  0  0  0  0  0  0  0  0  0  0
    6.5730   -2.8270   28.4780 C   0  0  0  0  0  0  0  0  0  0  0  0
    7.8660   -2.3310   28.9130 C   0  0  0  0  0  0  0  0  0  0  0  0
    8.9000   -3.2840   28.6680 C   0  0  0  0  0  0  0  0  0  0  0  0
    8.8160   -4.4480   28.1120 C   0  0  0  0  0  0  0  0  0  0  0  0
    9.7540   -5.2810   27.9150 C   0  0  0  0  0  0  0  0  0  0  0  0
   10.8050   -4.9270   28.5690 O   0  0  0  0  0  0  0  0  0  0  0  0
    9.5280   -6.3220   27.1280 O   0  0  0  0  0  0  0  0  0  0  0  0
    9.2450   -5.9650   25.8500 C   0  0  0  0  0  0  0  0  0  0  0  0
    7.5810   -4.9530   27.6490 C   0  0  0  0  0  0  0  0  0  0  0  0
    6.4140   -4.2120   27.7970 C   0  0  0  0  0  0  0  0  0  0  0  0
    5.3850   -4.1200   27.6560 C   0  0  0  0  0  0  0  0  0  0  0  0
    4.7250   -5.1580   26.9690 C   0  0  0  0  0  0  0  0  0  0  0  0
    6.8580   -2.9480   23.4070 C   0  0  0  0  0  0  0  0  0  0  0  0
    7.7270   -3.4870   22.2790 C   0  0  0  0  0  0  0  0  0  0  0  0
  1  2  1  0
  2  3  2  0
  2  4  1  0
  4  5  1  0
  5  6  1  0
  6  7  1  0
  7  8  1  0
  8  9  2  0
  8 10  1  0
 10 11  1  0
 11 12  1  0
 12 13  1  0
 13 14  1  0
 14 15  1  0
 15 16  2  0
 16 17  1  0
 17 18  2  0
 18 19  1  0
 19 20  2  0
 19 21  1  0
 21 22  1  0
 18 23  1  0
 15 24  1  0
 23 24  2  0
 13 25  2  0
 24 25  1  0
 10 26  1  0
 25 26  1  0
  7 27  1  0
  4 28  1  0
 27 28  1  0
M  END
