piperidine-amides-4756-covalent
     RDKit          3D

 24 25  0  0  0  0  0  0  0  0999 V2000
    7.1560   -3.2890   19.2420 C   0  0  0  0  0  0  0  0  0  0  0  0
    6.3700   -4.0290   20.2500 C   0  0  0  0  0  0  0  0  0  0  0  0
    5.2810   -4.5060   19.8690 O   0  0  0  0  0  0  0  0  0  0  0  0
    6.8710   -4.2260   21.5420 N   0  0  0  0  0  0  0  0  0  0  0  0
    7.6650   -3.2230   22.1760 C   0  0  0  0  0  0  0  0  0  0  0  0
    7.1800   -2.9280   23.5090 C   0  0  0  0  0  0  0  0  0  0  0  0
    5.9190   -3.6320   23.8090 C   0  0  0  0  0  0  0  0  0  0  0  0
    5.5250   -3.3590   25.2010 C   0  0  0  0  0  0  0  0  0  0  0  0
    4.3160   -3.2650   25.4750 O   0  0  0  0  0  0  0  0  0  0  0  0
    6.4970   -3.2110   26.1830 N   0  0  0  0  0  0  0  0  0  0  0  0
    6.2720   -3.5710   27.5860 C   0  0  0  0  0  0  0  0  0  0  0  0
    6.7300   -2.4470   28.4190 C   0  0  0  0  0  0  0  0  0  0  0  0
    5.7230   -1.6430   29.0880 C   0  0  0  0  0  0  0  0  0  0  0  0
    5.6770   -1.9010   30.3270 O   0  0  0  0  0  0  0  0  0  0  0  0
    5.4850   -0.7600   31.1170 C   0  0  0  0  0  0  0  0  0  0  0  0
    4.2530   -0.3010   31.5580 C   0  0  0  0  0  0  0  0  0  0  0  0
    4.1290    0.8160   32.3300 C   0  0  0  0  0  0  0  0  0  0  0  0
    5.2280    1.5260   32.6970 C   0  0  0  0  0  0  0  0  0  0  0  0
    5.2100    2.7020   33.5000 O   0  0  0  0  0  0  0  0  0  0  0  0
    3.9520    3.2500   33.8450 C   0  0  0  0  0  0  0  0  0  0  0  0
    6.5030    1.1560   32.3120 C   0  0  0  0  0  0  0  0  0  0  0  0
    6.6200   -0.0540   31.4770 C   0  0  0  0  0  0  0  0  0  0  0  0
    5.9440   -5.1080   23.5860 C   0  0  0  0  0  0  0  0  0  0  0  0
    6.6170   -5.4440   22.2770 C   0  0  0  0  0  0  0  0  0  0  0  0
  1  2  1  0
  2  3  2  0
  2  4  1  0
  4  5  1  0
  5  6  1  0
  6  7  1  0
  7  8  1  0
  8  9  2  0
  8 10  1  0
 10 11  1  0
 11 12  1  0
 12 13  1  0
 13 14  1  0
 14 15  1  0
 15 16  2  0
 16 17  1  0
 17 18  2  0
 18 19  1  0
 19 20  1  0
 18 21  1  0
 15 22  1  0
 21 22  2  0
  7 23  1  0
  4 24  1  0
 23 24  1  0
M  END
