piperidine-amides-23572-covalent
     RDKit          3D

 24 26  0  0  0  0  0  0  0  0999 V2000
    7.0750   -3.3870   19.3840 C   0  0  0  0  0  0  0  0  0  0  0  0
    6.3970   -4.2250   20.3790 C   0  0  0  0  0  0  0  0  0  0  0  0
    5.3620   -4.8180   19.9820 O   0  0  0  0  0  0  0  0  0  0  0  0
    6.9160   -4.4110   21.6950 N   0  0  0  0  0  0  0  0  0  0  0  0
    6.4620   -5.5160   22.4530 C   0  0  0  0  0  0  0  0  0  0  0  0
    6.0150   -5.1560   23.7980 C   0  0  0  0  0  0  0  0  0  0  0  0
    6.7040   -4.0070   24.4320 C   0  0  0  0  0  0  0  0  0  0  0  0
    5.9400   -3.5480   25.6530 C   0  0  0  0  0  0  0  0  0  0  0  0
    4.9900   -2.7560   25.4830 O   0  0  0  0  0  0  0  0  0  0  0  0
    6.2230   -3.9870   26.9870 N   0  0  0  0  0  0  0  0  0  0  0  0
    7.1060   -4.9210   27.3670 C   0  0  0  0  0  0  0  0  0  0  0  0
    6.3500   -5.9050   27.9820 C   0  0  0  0  0  0  0  0  0  0  0  0
    5.5020   -5.1610   29.0680 C   0  0  2  0  0  0  0  0  0  0  0  0
    4.5290   -6.0130   29.5630 C   0  0  0  0  0  0  0  0  0  0  0  0
    3.3500   -6.1820   28.8140 N   0  0  0  0  0  0  0  0  0  0  0  0
    2.2420   -7.0240   29.1350 C   0  0  0  0  0  0  0  0  0  0  0  0
    2.1880   -7.8770   30.3710 C   0  0  0  0  0  0  0  0  0  0  0  0
    3.4900   -7.6380   31.1290 C   0  0  0  0  0  0  0  0  0  0  0  0
    4.6280   -6.7420   30.7520 C   0  0  0  0  0  0  0  0  0  0  0  0
    5.7700   -6.6560   31.5960 O   0  0  0  0  0  0  0  0  0  0  0  0
    5.6600   -7.3200   32.8480 C   0  0  0  0  0  0  0  0  0  0  0  0
    5.0670   -4.3500   27.7790 C   0  0  0  0  0  0  0  0  0  0  0  0
    6.8780   -2.9000   23.4240 C   0  0  0  0  0  0  0  0  0  0  0  0
    7.6860   -3.3980   22.3960 C   0  0  0  0  0  0  0  0  0  0  0  0
  1  2  1  0
  2  3  2  0
  2  4  1  0
  4  5  1  0
  5  6  1  0
  6  7  1  0
  7  8  1  0
  8  9  2  0
  8 10  1  0
 10 11  1  0
 11 12  1  0
 12 13  1  0
 13 14  1  6
 14 15  2  0
 15 16  1  0
 16 17  2  0
 17 18  1  0
 14 19  1  0
 18 19  2  0
 19 20  1  0
 20 21  1  0
 10 22  1  0
 13 22  1  0
  7 23  1  0
  4 24  1  0
 23 24  1  0
M  END
