piperidine-amides-24258-covalent
     RDKit          3D

 23 25  0  0  0  0  0  0  0  0999 V2000
    7.0660   -3.3120   19.3000 C   0  0  0  0  0  0  0  0  0  0  0  0
    6.3830   -4.1430   20.2980 C   0  0  0  0  0  0  0  0  0  0  0  0
    5.3520   -4.7730   19.9700 O   0  0  0  0  0  0  0  0  0  0  0  0
    6.8980   -4.2950   21.5960 N   0  0  0  0  0  0  0  0  0  0  0  0
    6.4010   -5.4030   22.3610 C   0  0  0  0  0  0  0  0  0  0  0  0
    5.3970   -4.7850   23.3450 C   0  0  0  0  0  0  0  0  0  0  0  0
    6.0960   -3.6510   24.1200 C   0  0  0  0  0  0  0  0  0  0  0  0
    5.1320   -3.0570   25.1390 C   0  0  0  0  0  0  0  0  0  0  0  0
    4.3350   -2.1540   24.8080 O   0  0  0  0  0  0  0  0  0  0  0  0
    5.1990   -3.6020   26.4520 N   0  0  0  0  0  0  0  0  0  0  0  0
    4.9310   -2.8590   27.6480 C   0  0  0  0  0  0  0  0  0  0  0  0
    4.9540   -3.8380   28.8110 C   0  0  0  0  0  0  0  0  0  0  0  0
    6.0740   -4.5900   28.9770 C   0  0  0  0  0  0  0  0  0  0  0  0
    6.6900   -4.8750   27.8370 C   0  0  0  0  0  0  0  0  0  0  0  0
    7.7870   -5.6030   27.6260 C   0  0  0  0  0  0  0  0  0  0  0  0
    8.3370   -5.7940   26.3530 C   0  0  0  0  0  0  0  0  0  0  0  0
    9.7260   -6.6380   26.4740 Cl  0  0  0  0  0  0  0  0  0  0  0  0
    8.0090   -5.3990   24.9010 C   0  0  0  0  0  0  0  0  0  0  0  0
    6.8940   -4.6920   25.4340 C   0  0  0  0  0  0  0  0  0  0  0  0
    5.7620   -3.8380   25.0210 C   0  0  0  0  0  0  0  0  0  0  0  0
    6.2790   -4.4230   26.6990 C   0  0  0  0  0  0  0  0  0  0  0  0
    6.6070   -2.5950   23.1640 C   0  0  0  0  0  0  0  0  0  0  0  0
    7.4660   -3.1640   22.2610 C   0  0  0  0  0  0  0  0  0  0  0  0
  1  2  1  0
  2  3  2  0
  2  4  1  0
  4  5  1  0
  5  6  1  0
  6  7  1  0
  7  8  1  0
  8  9  2  0
  8 10  1  0
 10 11  1  0
 11 12  1  0
 12 13  1  0
 13 14  1  0
 14 15  2  0
 15 16  1  0
 16 17  1  0
 16 18  2  0
 18 19  1  0
 19 20  1  0
 10 21  1  0
 14 21  1  0
 19 21  2  0
  7 22  1  0
  4 23  1  0
 22 23  1  0
M  END
