piperidine-amides-29684-covalent
     RDKit          3D

 27 29  0  0  0  0  0  0  0  0999 V2000
    7.0560   -3.3490   19.3250 C   0  0  0  0  0  0  0  0  0  0  0  0
    6.3750   -4.1670   20.3210 C   0  0  0  0  0  0  0  0  0  0  0  0
    5.3900   -4.8270   19.9870 O   0  0  0  0  0  0  0  0  0  0  0  0
    6.8790   -4.2480   21.6690 N   0  0  0  0  0  0  0  0  0  0  0  0
    7.7480   -3.2000   22.1830 C   0  0  0  0  0  0  0  0  0  0  0  0
    7.4770   -2.9390   23.6330 C   0  0  0  0  0  0  0  0  0  0  0  0
    6.1060   -3.5120   23.8870 C   0  0  0  0  0  0  0  0  0  0  0  0
    5.5110   -3.0510   25.1710 C   0  0  0  0  0  0  0  0  0  0  0  0
    4.3800   -2.5360   25.1820 O   0  0  0  0  0  0  0  0  0  0  0  0
    6.1660   -3.1810   26.4210 N   0  0  0  0  0  0  0  0  0  0  0  0
    6.2990   -1.8900   27.1050 C   0  0  0  0  0  0  0  0  0  0  0  0
    6.9970   -1.9000   28.4290 C   0  0  0  0  0  0  0  0  0  0  0  0
    7.1430   -0.7150   29.1240 C   0  0  0  0  0  0  0  0  0  0  0  0
    6.6410    0.4890   28.5910 C   0  0  0  0  0  0  0  0  0  0  0  0
    6.8100    1.6730   29.3230 O   0  0  0  0  0  0  0  0  0  0  0  0
    5.7110    2.2450   30.0000 C   0  0  0  0  0  0  0  0  0  0  0  0
    6.0000    0.4960   27.3710 C   0  0  0  0  0  0  0  0  0  0  0  0
    5.8360   -0.6630   26.6490 C   0  0  0  0  0  0  0  0  0  0  0  0
    5.7420   -4.3430   27.1890 C   0  0  2  0  0  0  0  0  0  0  0  0
    4.7400   -5.2250   26.7810 C   0  0  0  0  0  0  0  0  0  0  0  0
    5.1900   -6.4520   27.0440 N   0  0  0  0  0  0  0  0  0  0  0  0
    4.3670   -4.2080   27.7250 C   0  0  0  0  0  0  0  0  0  0  0  0
    4.1750   -4.6550   29.0310 C   0  0  0  0  0  0  0  0  0  0  0  0
    5.4400   -4.9620   29.4130 O   0  0  0  0  0  0  0  0  0  0  0  0
    6.4370   -4.7240   28.4410 C   0  0  0  0  0  0  0  0  0  0  0  0
    6.1310   -5.0220   23.8120 C   0  0  0  0  0  0  0  0  0  0  0  0
    6.7070   -5.4510   22.4530 C   0  0  0  0  0  0  0  0  0  0  0  0
  1  2  1  0
  2  3  2  0
  2  4  1  0
  4  5  1  0
  5  6  1  0
  6  7  1  0
  7  8  1  0
  8  9  2  0
  8 10  1  0
 10 11  1  0
 11 12  2  0
 12 13  1  0
 13 14  2  0
 14 15  1  0
 15 16  1  0
 14 17  1  0
 11 18  1  0
 17 18  2  0
 10 19  1  0
 19 20  1  6
 20 21  3  0
 19 22  1  0
 22 23  1  0
 23 24  1  0
 19 25  1  0
 24 25  1  0
  7 26  1  0
  4 27  1  0
 26 27  1  0
M  END
