piperidine-amides-30413-covalent
     RDKit          3D

 26 28  0  0  0  0  0  0  0  0999 V2000
    7.0370   -3.3690   19.3980 C   0  0  0  0  0  0  0  0  0  0  0  0
    6.3850   -4.2480   20.3770 C   0  0  0  0  0  0  0  0  0  0  0  0
    5.3990   -4.9050   19.9980 O   0  0  0  0  0  0  0  0  0  0  0  0
    6.8600   -4.4050   21.7000 N   0  0  0  0  0  0  0  0  0  0  0  0
    6.6440   -5.6490   22.4290 C   0  0  0  0  0  0  0  0  0  0  0  0
    6.5150   -5.3380   23.9140 C   0  0  0  0  0  0  0  0  0  0  0  0
    6.3550   -3.8800   24.1930 C   0  0  0  0  0  0  0  0  0  0  0  0
    5.8610   -3.4890   25.5540 C   0  0  0  0  0  0  0  0  0  0  0  0
    5.0640   -2.4990   25.5960 O   0  0  0  0  0  0  0  0  0  0  0  0
    6.1170   -4.1010   26.8490 N   0  0  0  0  0  0  0  0  0  0  0  0
    4.9990   -3.8270   27.8450 C   0  0  0  0  0  0  0  0  0  0  0  0
    4.5110   -4.3300   29.0450 C   0  0  0  0  0  0  0  0  0  0  0  0
    5.6790   -5.1370   28.6520 C   0  0  0  0  0  0  0  0  0  0  0  0
    5.7170   -4.1470   27.4080 C   0  0  0  0  0  0  0  0  0  0  0  0
    6.8650   -5.1000   27.2110 C   0  0  0  0  0  0  0  0  0  0  0  0
    5.8830   -4.9580   28.2000 C   0  0  0  0  0  0  0  0  0  0  0  0
    6.2810   -6.1670   29.2480 S   0  0  2  0  0  0  0  0  0  0  0  0
    5.3190   -7.3890   28.5570 C   0  0  0  0  0  0  0  0  0  0  0  0
    6.0600   -5.9400   30.6810 O   0  0  0  0  0  0  0  0  0  0  0  0
    7.6490   -5.5680   28.4330 N   0  0  0  0  0  0  0  0  0  0  0  0
    7.4580   -4.3850   27.4480 C   0  0  2  0  0  0  0  0  0  0  0  0
    7.8280   -3.1200   28.1770 C   0  0  0  0  0  0  0  0  0  0  0  0
    8.1970   -2.0070   27.2250 C   0  0  0  0  0  0  0  0  0  0  0  0
    6.7690   -2.4800   29.0920 C   0  0  0  0  0  0  0  0  0  0  0  0
    7.5710   -3.1710   23.7090 C   0  0  0  0  0  0  0  0  0  0  0  0
    7.6420   -3.3180   22.2380 C   0  0  0  0  0  0  0  0  0  0  0  0
  1  2  1  0
  2  3  2  0
  2  4  1  0
  4  5  1  0
  5  6  1  0
  6  7  1  0
  7  8  1  0
  8  9  2  0
  8 10  1  0
 10 11  1  0
 11 12  2  0
 12 13  1  0
 13 14  2  0
 14 15  1  0
 11 16  1  0
 15 16  2  0
 16 17  1  0
 17 18  1  6
 17 19  2  0
 17 20  2  0
 10 21  1  0
 20 21  1  0
 21 22  1  1
 22 23  1  0
 22 24  1  0
  7 25  1  0
  4 26  1  0
 25 26  1  0
M  END
