piperidine-amides-29205-covalent
     RDKit          3D

 27 30  0  0  0  0  0  0  0  0999 V2000
    7.1140   -3.3050   19.2940 C   0  0  0  0  0  0  0  0  0  0  0  0
    6.4270   -4.1250   20.2860 C   0  0  0  0  0  0  0  0  0  0  0  0
    5.3660   -4.6820   19.9460 O   0  0  0  0  0  0  0  0  0  0  0  0
    7.0000   -4.3130   21.5730 N   0  0  0  0  0  0  0  0  0  0  0  0
    7.6890   -3.2240   22.1940 C   0  0  0  0  0  0  0  0  0  0  0  0
    6.8210   -2.6590   23.2710 C   0  0  0  0  0  0  0  0  0  0  0  0
    6.5460   -3.7620   24.2730 C   0  0  0  0  0  0  0  0  0  0  0  0
    5.7140   -3.2170   25.3910 C   0  0  0  0  0  0  0  0  0  0  0  0
    4.5550   -2.9550   25.0800 O   0  0  0  0  0  0  0  0  0  0  0  0
    6.2200   -3.0300   26.6830 N   0  0  0  0  0  0  0  0  0  0  0  0
    6.1710   -1.7530   27.2130 C   0  0  0  0  0  0  0  0  0  0  0  0
    5.1160   -2.2000   27.9680 C   0  0  0  0  0  0  0  0  0  0  0  0
    4.9510   -1.8100   29.2800 C   0  0  0  0  0  0  0  0  0  0  0  0
    5.3480   -0.6410   29.7550 C   0  0  0  0  0  0  0  0  0  0  0  0
    5.0330   -0.5230   31.0880 N   0  0  0  0  0  0  0  0  0  0  0  0
    5.3240    0.6520   31.9050 C   0  0  0  0  0  0  0  0  0  0  0  0
    6.7240    0.5460   32.5550 C   0  0  0  0  0  0  0  0  0  0  0  0
    7.8910    1.0100   31.7530 C   0  0  0  0  0  0  0  0  0  0  0  0
    9.2680    0.9250   32.3660 C   0  0  0  0  0  0  0  0  0  0  0  0
    9.2820    0.3420   33.8050 C   0  0  0  0  0  0  0  0  0  0  0  0
    8.1090   -0.0420   34.4000 C   0  0  0  0  0  0  0  0  0  0  0  0
    6.8630    0.0380   33.8390 C   0  0  0  0  0  0  0  0  0  0  0  0
    4.4240   -1.7050   31.3820 N   0  0  0  0  0  0  0  0  0  0  0  0
    4.3740   -2.5050   30.2600 N   0  0  0  0  0  0  0  0  0  0  0  0
    5.3060   -3.5630   27.7120 C   0  0  0  0  0  0  0  0  0  0  0  0
    5.7980   -4.9270   23.5900 C   0  0  0  0  0  0  0  0  0  0  0  0
    6.6100   -5.3990   22.4040 C   0  0  0  0  0  0  0  0  0  0  0  0
  1  2  1  0
  2  3  2  0
  2  4  1  0
  4  5  1  0
  5  6  1  0
  6  7  1  0
  7  8  1  0
  8  9  2  0
  8 10  1  0
 10 11  1  0
 11 12  1  0
 12 13  1  0
 13 14  2  0
 14 15  1  0
 15 16  1  0
 16 17  1  0
 17 18  2  0
 18 19  1  0
 19 20  2  0
 20 21  1  0
 17 22  1  0
 21 22  2  0
 15 23  1  0
 13 24  1  0
 23 24  2  0
 10 25  1  0
 12 25  1  0
  7 26  1  0
  4 27  1  0
 26 27  1  0
M  END
