piperidine-amides-9952-covalent
     RDKit          3D

 26 29  0  0  0  0  0  0  0  0999 V2000
    7.0450   -3.3400   19.3290 C   0  0  0  0  0  0  0  0  0  0  0  0
    6.3810   -4.1750   20.3330 C   0  0  0  0  0  0  0  0  0  0  0  0
    5.3490   -4.7900   19.9620 O   0  0  0  0  0  0  0  0  0  0  0  0
    6.9170   -4.3050   21.6200 N   0  0  0  0  0  0  0  0  0  0  0  0
    7.6720   -3.2400   22.2370 C   0  0  0  0  0  0  0  0  0  0  0  0
    6.8870   -2.7200   23.4110 C   0  0  0  0  0  0  0  0  0  0  0  0
    6.3960   -3.8320   24.2980 C   0  0  0  0  0  0  0  0  0  0  0  0
    5.5340   -3.2940   25.3890 C   0  0  0  0  0  0  0  0  0  0  0  0
    4.3230   -3.1370   25.1260 O   0  0  0  0  0  0  0  0  0  0  0  0
    5.9760   -2.9540   26.6970 N   0  0  0  0  0  0  0  0  0  0  0  0
    6.3840   -1.5820   27.0320 C   0  0  2  0  0  0  0  0  0  0  0  0
    6.7180   -1.3970   28.5550 C   0  0  0  0  0  0  0  0  0  0  0  0
    7.0000   -0.1980   29.0010 O   0  0  0  0  0  0  0  0  0  0  0  0
    5.9840    0.5370   29.6730 C   0  0  0  0  0  0  0  0  0  0  0  0
    4.7930    1.2650   30.1490 C   0  0  0  0  0  0  0  0  0  0  0  0
    4.8320    0.7790   29.0620 C   0  0  0  0  0  0  0  0  0  0  0  0
    6.0580    0.2160   28.9910 C   0  0  0  0  0  0  0  0  0  0  0  0
    5.8290   -0.2110   27.7470 C   0  0  0  0  0  0  0  0  0  0  0  0
    7.3440   -0.6930   28.1760 C   0  0  0  0  0  0  0  0  0  0  0  0
    7.0580   -1.1490   26.7880 C   0  0  0  0  0  0  0  0  0  0  0  0
    5.8030   -0.7060   26.5400 C   0  0  0  0  0  0  0  0  0  0  0  0
    6.5410   -0.4290   27.9610 C   0  0  0  0  0  0  0  0  0  0  0  0
    5.3470    0.2180   28.2950 C   0  0  0  0  0  0  0  0  0  0  0  0
    5.3970   -0.4230   26.9130 C   0  0  0  0  0  0  0  0  0  0  0  0
    5.6310   -4.8590   23.5090 C   0  0  0  0  0  0  0  0  0  0  0  0
    6.5310   -5.4480   22.4170 C   0  0  0  0  0  0  0  0  0  0  0  0
  1  2  1  0
  2  3  2  0
  2  4  1  0
  4  5  1  0
  5  6  1  0
  6  7  1  0
  7  8  1  0
  8  9  2  0
  8 10  1  0
 11 10  1  1
 11 12  1  0
 12 13  1  0
 13 14  1  0
 14 15  2  0
 15 16  1  0
 16 17  2  0
 17 18  1  0
 18 19  2  0
 19 20  1  0
 20 21  2  0
 17 22  1  0
 21 22  1  0
 14 23  1  0
 22 23  2  0
 11 24  1  0
 23 24  1  0
  7 25  1  0
  4 26  1  0
 25 26  1  0
M  END
