piperidine-amides-8070-covalent
     RDKit          3D

 26 27  0  0  0  0  0  0  0  0999 V2000
    7.0770   -3.3370   19.3180 C   0  0  0  0  0  0  0  0  0  0  0  0
    6.4250   -4.1920   20.3080 C   0  0  0  0  0  0  0  0  0  0  0  0
    5.3840   -4.7840   19.9720 O   0  0  0  0  0  0  0  0  0  0  0  0
    7.0180   -4.3760   21.5870 N   0  0  0  0  0  0  0  0  0  0  0  0
    7.6820   -3.2590   22.1910 C   0  0  0  0  0  0  0  0  0  0  0  0
    6.7800   -2.7020   23.2430 C   0  0  0  0  0  0  0  0  0  0  0  0
    6.5600   -3.8050   24.2490 C   0  0  0  0  0  0  0  0  0  0  0  0
    5.7710   -3.2530   25.3870 C   0  0  0  0  0  0  0  0  0  0  0  0
    4.5880   -3.0080   25.1700 O   0  0  0  0  0  0  0  0  0  0  0  0
    6.4190   -3.0620   26.5970 N   0  0  0  0  0  0  0  0  0  0  0  0
    6.4460   -1.8060   27.2660 C   0  0  0  0  0  0  0  0  0  0  0  0
    6.9810   -1.5070   28.5400 C   0  0  0  0  0  0  0  0  0  0  0  0
    6.9820   -0.2880   29.1700 C   0  0  0  0  0  0  0  0  0  0  0  0
    6.4350    0.8360   28.6040 C   0  0  0  0  0  0  0  0  0  0  0  0
    6.4130    2.1100   29.2080 N   0  0  0  0  0  0  0  0  0  0  0  0
    6.1660    2.2330   30.6470 C   0  0  0  0  0  0  0  0  0  0  0  0
    7.1740    2.3400   31.5720 O   0  0  0  0  0  0  0  0  0  0  0  0
    4.8580    2.2520   31.1550 O   0  0  0  0  0  0  0  0  0  0  0  0
    4.5390    1.6590   32.4090 C   0  0  0  0  0  0  0  0  0  0  0  0
    3.7260    2.5860   33.2350 C   0  0  0  0  0  0  0  0  0  0  0  0
    5.8680    0.6910   27.3310 C   0  0  0  0  0  0  0  0  0  0  0  0
    5.2030    1.8250   26.5070 C   0  0  0  0  0  0  0  0  0  0  0  0
    4.6860    2.6730   25.9040 N   0  0  0  0  0  0  0  0  0  0  0  0
    5.8580   -0.5260   26.6850 C   0  0  0  0  0  0  0  0  0  0  0  0
    5.7690   -4.8990   23.5850 C   0  0  0  0  0  0  0  0  0  0  0  0
    6.4820   -5.4500   22.3780 C   0  0  0  0  0  0  0  0  0  0  0  0
  1  2  1  0
  2  3  2  0
  2  4  1  0
  4  5  1  0
  5  6  1  0
  6  7  1  0
  7  8  1  0
  8  9  2  0
  8 10  1  0
 10 11  1  0
 11 12  2  0
 12 13  1  0
 13 14  2  0
 14 15  1  0
 15 16  1  0
 16 17  2  0
 16 18  1  0
 18 19  1  0
 19 20  1  0
 14 21  1  0
 21 22  1  0
 22 23  3  0
 11 24  1  0
 21 24  2  0
  7 25  1  0
  4 26  1  0
 25 26  1  0
M  END
