piperidine-amides-12947-covalent
     RDKit          3D

 21 23  0  0  0  0  0  0  0  0999 V2000
    7.0800   -3.2950   19.2080 C   0  0  0  0  0  0  0  0  0  0  0  0
    6.3680   -4.0640   20.2600 C   0  0  0  0  0  0  0  0  0  0  0  0
    5.2940   -4.5940   19.9050 O   0  0  0  0  0  0  0  0  0  0  0  0
    6.9020   -4.2400   21.5510 N   0  0  0  0  0  0  0  0  0  0  0  0
    7.6630   -3.2070   22.1940 C   0  0  0  0  0  0  0  0  0  0  0  0
    7.2370   -2.9380   23.5690 C   0  0  0  0  0  0  0  0  0  0  0  0
    6.0110   -3.6700   23.9400 C   0  0  0  0  0  0  0  0  0  0  0  0
    5.5500   -3.4030   25.3290 C   0  0  0  0  0  0  0  0  0  0  0  0
    4.3700   -3.6960   25.5860 O   0  0  0  0  0  0  0  0  0  0  0  0
    6.3600   -2.8330   26.3320 N   0  0  0  0  0  0  0  0  0  0  0  0
    6.6640   -1.3860   26.3550 C   0  0  0  0  0  0  0  0  0  0  0  0
    6.1310   -0.6460   27.5440 C   0  0  2  0  0  0  0  0  0  0  0  0
    6.6440   -0.9730   28.8610 C   0  0  0  0  0  0  0  0  0  0  0  0
    5.6170   -1.3530   29.6600 C   0  0  2  0  0  0  0  0  0  0  0  0
    4.9620   -2.3970   29.0840 C   0  0  0  0  0  0  0  0  0  0  0  0
    4.3970   -2.0320   27.9220 C   0  0  0  0  0  0  0  0  0  0  0  0
    4.5950   -0.7150   27.6060 C   0  0  1  0  0  0  0  0  0  0  0  0
    4.1180    0.0940   28.6200 C   0  0  0  0  0  0  0  0  0  0  0  0
    4.7140   -0.3290   29.8360 C   0  0  0  0  0  0  0  0  0  0  0  0
    6.0300   -5.1290   23.6510 C   0  0  0  0  0  0  0  0  0  0  0  0
    6.6870   -5.4550   22.3310 C   0  0  0  0  0  0  0  0  0  0  0  0
  1  2  1  0
  2  3  2  0
  2  4  1  0
  4  5  1  0
  5  6  1  0
  6  7  1  0
  7  8  1  0
  8  9  2  0
  8 10  1  0
 10 11  1  0
 12 11  1  6
 12 13  1  0
 14 13  1  6
 14 15  1  0
 15 16  2  0
 12 17  1  0
 17 16  1  1
 17 18  1  0
 14 19  1  0
 18 19  1  0
  7 20  1  0
  4 21  1  0
 20 21  1  0
M  END
