piperidine-amides-16094-covalent
     RDKit          3D

 19 20  0  0  0  0  0  0  0  0999 V2000
    7.0310   -3.3380   19.3230 C   0  0  0  0  0  0  0  0  0  0  0  0
    6.3610   -4.1940   20.3390 C   0  0  0  0  0  0  0  0  0  0  0  0
    5.3650   -4.8130   19.9700 O   0  0  0  0  0  0  0  0  0  0  0  0
    6.8800   -4.3170   21.6350 N   0  0  0  0  0  0  0  0  0  0  0  0
    6.7110   -5.5320   22.4020 C   0  0  0  0  0  0  0  0  0  0  0  0
    6.1770   -5.2260   23.7800 C   0  0  0  0  0  0  0  0  0  0  0  0
    6.0660   -3.7150   23.9800 C   0  0  0  0  0  0  0  0  0  0  0  0
    5.4810   -3.4310   25.3150 C   0  0  0  0  0  0  0  0  0  0  0  0
    4.2970   -3.0780   25.3600 O   0  0  0  0  0  0  0  0  0  0  0  0
    6.1740   -3.5400   26.5370 N   0  0  0  0  0  0  0  0  0  0  0  0
    5.4460   -3.2020   27.7370 C   0  0  0  0  0  0  0  0  0  0  0  0
    6.0950   -4.1650   28.6640 C   0  0  0  0  0  0  0  0  0  0  0  0
    7.0630   -4.8890   28.0620 C   0  0  0  0  0  0  0  0  0  0  0  0
    7.1690   -4.5350   26.7500 C   0  0  2  0  0  0  0  0  0  0  0  0
    8.3960   -4.1570   26.4180 C   0  0  0  0  0  0  0  0  0  0  0  0
    9.3300   -4.9810   26.9070 O   0  0  0  0  0  0  0  0  0  0  0  0
    9.6920   -5.9780   26.1070 C   0  0  0  0  0  0  0  0  0  0  0  0
    7.3390   -3.0120   23.6440 C   0  0  0  0  0  0  0  0  0  0  0  0
    7.6750   -3.2350   22.2030 C   0  0  0  0  0  0  0  0  0  0  0  0
  1  2  1  0
  2  3  2  0
  2  4  1  0
  4  5  1  0
  5  6  1  0
  6  7  1  0
  7  8  1  0
  8  9  2  0
  8 10  1  0
 10 11  1  0
 11 12  1  0
 12 13  1  0
 10 14  1  0
 13 14  1  0
 14 15  1  1
 15 16  1  0
 16 17  1  0
  7 18  1  0
  4 19  1  0
 18 19  1  0
M  END
