piperidine-amides-27663-covalent
     RDKit          3D

 24 25  0  0  0  0  0  0  0  0999 V2000
    7.0420   -3.3430   19.3130 C   0  0  0  0  0  0  0  0  0  0  0  0
    6.2720   -4.1030   20.3040 C   0  0  0  0  0  0  0  0  0  0  0  0
    5.2280   -4.6660   19.9040 O   0  0  0  0  0  0  0  0  0  0  0  0
    6.7270   -4.2080   21.6120 N   0  0  0  0  0  0  0  0  0  0  0  0
    7.5670   -3.2050   22.1950 C   0  0  0  0  0  0  0  0  0  0  0  0
    7.2800   -3.2350   23.6490 C   0  0  0  0  0  0  0  0  0  0  0  0
    5.9010   -3.7040   23.9260 C   0  0  0  0  0  0  0  0  0  0  0  0
    5.5000   -3.3620   25.3150 C   0  0  0  0  0  0  0  0  0  0  0  0
    4.2740   -3.2460   25.5280 O   0  0  0  0  0  0  0  0  0  0  0  0
    6.3760   -3.1500   26.4130 N   0  0  0  0  0  0  0  0  0  0  0  0
    6.4850   -4.2250   27.4030 C   0  0  0  0  0  0  0  0  0  0  0  0
    7.1000   -5.5540   26.9300 C   0  0  0  0  0  0  0  0  0  0  0  0
    8.0850   -5.6170   26.1520 O   0  0  0  0  0  0  0  0  0  0  0  0
    9.1830   -6.2250   26.7380 C   0  0  0  0  0  0  0  0  0  0  0  0
    6.3900   -1.8310   27.0450 C   0  0  0  0  0  0  0  0  0  0  0  0
    6.1020   -0.6960   26.3100 C   0  0  0  0  0  0  0  0  0  0  0  0
    6.0940    0.5690   26.8620 C   0  0  0  0  0  0  0  0  0  0  0  0
    6.3720    0.8320   28.1800 C   0  0  0  0  0  0  0  0  0  0  0  0
    6.3460    2.4590   28.8390 Cl  0  0  0  0  0  0  0  0  0  0  0  0
    6.7070   -0.3250   29.0900 C   0  0  0  0  0  0  0  0  0  0  0  0
    6.6830   -1.6900   28.3830 C   0  0  0  0  0  0  0  0  0  0  0  0
    6.9660   -2.7350   29.1920 F   0  0  0  0  0  0  0  0  0  0  0  0
    5.7570   -5.2000   23.6070 C   0  0  0  0  0  0  0  0  0  0  0  0
    6.5780   -5.4680   22.3430 C   0  0  0  0  0  0  0  0  0  0  0  0
  1  2  1  0
  2  3  2  0
  2  4  1  0
  4  5  1  0
  5  6  1  0
  6  7  1  0
  7  8  1  0
  8  9  2  0
  8 10  1  0
 10 11  1  0
 11 12  1  0
 12 13  1  0
 13 14  1  0
 10 15  1  0
 15 16  2  0
 16 17  1  0
 17 18  2  0
 18 19  1  0
 18 20  1  0
 15 21  1  0
 20 21  2  0
 21 22  1  0
  7 23  1  0
  4 24  1  0
 23 24  1  0
M  END
