piperidine-amides-33774-covalent
     RDKit          3D

 28 30  0  0  0  0  0  0  0  0999 V2000
    7.0640   -3.3980   19.3890 C   0  0  0  0  0  0  0  0  0  0  0  0
    6.4030   -4.2470   20.3860 C   0  0  0  0  0  0  0  0  0  0  0  0
    5.3760   -4.8530   19.9930 O   0  0  0  0  0  0  0  0  0  0  0  0
    6.9380   -4.4270   21.6990 N   0  0  0  0  0  0  0  0  0  0  0  0
    6.4550   -5.4880   22.4930 C   0  0  0  0  0  0  0  0  0  0  0  0
    6.0280   -5.0970   23.8460 C   0  0  0  0  0  0  0  0  0  0  0  0
    6.3710   -3.7320   24.3470 C   0  0  0  0  0  0  0  0  0  0  0  0
    5.2630   -3.1980   25.2370 C   0  0  0  0  0  0  0  0  0  0  0  0
    4.3700   -2.5250   24.7090 O   0  0  0  0  0  0  0  0  0  0  0  0
    5.1740   -3.4240   26.6410 N   0  0  0  0  0  0  0  0  0  0  0  0
    4.4380   -2.7240   27.5800 C   0  0  0  0  0  0  0  0  0  0  0  0
    4.5650   -3.1610   28.9570 C   0  0  0  0  0  0  0  0  0  0  0  0
    5.2890   -4.2090   29.3690 N   0  0  0  0  0  0  0  0  0  0  0  0
    4.2050   -5.2710   30.0910 S   0  0  0  0  0  0  0  0  0  0  0  0
    3.4960   -6.0530   29.0220 O   0  0  0  0  0  0  0  0  0  0  0  0
    4.8800   -6.2230   31.0140 O   0  0  0  0  0  0  0  0  0  0  0  0
    3.0820   -4.1910   30.9550 C   0  0  0  0  0  0  0  0  0  0  0  0
    3.6980   -2.9800   31.2530 C   0  0  0  0  0  0  0  0  0  0  0  0
    2.8190   -1.9130   32.0290 C   0  0  0  0  0  0  0  0  0  0  0  0
    1.3590   -2.1620   32.4480 C   0  0  0  0  0  0  0  0  0  0  0  0
    0.7190   -1.1180   33.1280 F   0  0  0  0  0  0  0  0  0  0  0  0
    0.9050   -3.5440   32.0160 C   0  0  0  0  0  0  0  0  0  0  0  0
   -0.4150   -3.7350   32.4090 F   0  0  0  0  0  0  0  0  0  0  0  0
    1.7100   -4.5240   31.3050 C   0  0  0  0  0  0  0  0  0  0  0  0
    6.2600   -4.7050   28.5890 C   0  0  0  0  0  0  0  0  0  0  0  0
    6.2470   -4.1140   27.1680 C   0  0  0  0  0  0  0  0  0  0  0  0
    6.7160   -2.7730   23.2400 C   0  0  0  0  0  0  0  0  0  0  0  0
    7.6460   -3.3830   22.3970 C   0  0  0  0  0  0  0  0  0  0  0  0
  1  2  1  0
  2  3  2  0
  2  4  1  0
  4  5  1  0
  5  6  1  0
  6  7  1  0
  7  8  1  0
  8  9  2  0
  8 10  1  0
 10 11  1  0
 11 12  1  0
 12 13  1  0
 13 14  1  0
 14 15  2  0
 14 16  2  0
 14 17  1  0
 17 18  2  0
 18 19  1  0
 19 20  2  0
 20 21  1  0
 20 22  1  0
 22 23  1  0
 17 24  1  0
 22 24  2  0
 13 25  1  0
 10 26  1  0
 25 26  1  0
  7 27  1  0
  4 28  1  0
 27 28  1  0
M  END
