piperidine-amides-17909-covalent
     RDKit          3D

 21 22  0  0  0  0  0  0  0  0999 V2000
    7.1720   -3.3400   19.4230 C   0  0  0  0  0  0  0  0  0  0  0  0
    6.4610   -4.1660   20.3690 C   0  0  0  0  0  0  0  0  0  0  0  0
    5.4080   -4.7690   19.9730 O   0  0  0  0  0  0  0  0  0  0  0  0
    6.9380   -4.3480   21.6900 N   0  0  0  0  0  0  0  0  0  0  0  0
    7.7910   -3.2960   22.2690 C   0  0  0  0  0  0  0  0  0  0  0  0
    6.7580   -2.6540   23.2640 C   0  0  0  0  0  0  0  0  0  0  0  0
    6.2560   -3.7850   24.1370 C   0  0  0  0  0  0  0  0  0  0  0  0
    5.4160   -3.1910   25.3580 C   0  0  0  0  0  0  0  0  0  0  0  0
    4.3460   -2.8000   24.9210 O   0  0  0  0  0  0  0  0  0  0  0  0
    6.0270   -3.2590   26.4810 N   0  0  0  0  0  0  0  0  0  0  0  0
    6.4090   -3.7880   27.6850 C   0  0  0  0  0  0  0  0  0  0  0  0
    6.4650   -1.9390   26.7090 C   0  0  0  0  0  0  0  0  0  0  0  0
    5.4620   -0.9400   26.7560 C   0  0  0  0  0  0  0  0  0  0  0  0
    5.6980    0.5100   26.6070 C   0  0  0  0  0  0  0  0  0  0  0  0
    4.4700    1.4200   26.6900 C   0  0  0  0  0  0  0  0  0  0  0  0
    3.2260    0.8220   26.8980 C   0  0  0  0  0  0  0  0  0  0  0  0
    2.3320    1.8810   26.9270 F   0  0  0  0  0  0  0  0  0  0  0  0
    2.7080   -0.4740   27.0690 C   0  0  0  0  0  0  0  0  0  0  0  0
    4.0110   -1.2760   26.9690 C   0  0  0  0  0  0  0  0  0  0  0  0
    5.5750   -4.8710   23.3460 C   0  0  0  0  0  0  0  0  0  0  0  0
    6.5100   -5.4340   22.5110 C   0  0  0  0  0  0  0  0  0  0  0  0
  1  2  1  0
  2  3  2  0
  2  4  1  0
  4  5  1  0
  5  6  1  0
  6  7  1  0
  7  8  1  0
  8  9  2  0
  8 10  1  0
 10 11  1  0
 10 12  1  0
 12 13  1  0
 13 14  2  0
 14 15  1  0
 15 16  2  0
 16 17  1  0
 16 18  1  0
 13 19  1  0
 18 19  2  0
  7 20  1  0
  4 21  1  0
 20 21  1  0
M  END
