piperidine-amides-35182-covalent
     RDKit          3D

 31 33  0  0  0  0  0  0  0  0999 V2000
    6.9890   -3.3650   19.3660 C   0  0  0  0  0  0  0  0  0  0  0  0
    6.3500   -4.2450   20.3810 C   0  0  0  0  0  0  0  0  0  0  0  0
    5.3970   -4.9220   19.9930 O   0  0  0  0  0  0  0  0  0  0  0  0
    6.8410   -4.3090   21.6920 N   0  0  0  0  0  0  0  0  0  0  0  0
    7.6160   -3.2270   22.2460 C   0  0  0  0  0  0  0  0  0  0  0  0
    7.2480   -3.0710   23.6890 C   0  0  0  0  0  0  0  0  0  0  0  0
    5.8070   -3.4680   23.9000 C   0  0  0  0  0  0  0  0  0  0  0  0
    5.2900   -2.9340   25.2010 C   0  0  0  0  0  0  0  0  0  0  0  0
    4.1220   -2.5350   25.2200 O   0  0  0  0  0  0  0  0  0  0  0  0
    6.0290   -2.8760   26.4130 N   0  0  0  0  0  0  0  0  0  0  0  0
    6.3980   -4.1700   26.9620 C   0  0  0  0  0  0  0  0  0  0  0  0
    6.8180   -1.7360   26.8220 C   0  0  2  0  0  0  0  0  0  0  0  0
    6.8960   -1.8110   28.2590 C   0  0  0  0  0  0  0  0  0  0  0  0
    7.3510   -0.1490   28.7020 S   0  0  0  0  0  0  0  0  0  0  0  0
    6.6450    0.5930   29.7900 O   0  0  0  0  0  0  0  0  0  0  0  0
    8.8350    0.0120   28.5860 O   0  0  0  0  0  0  0  0  0  0  0  0
    6.4030   -0.3270   27.2090 C   0  0  0  0  0  0  0  0  0  0  0  0
    5.1930    0.1790   27.5010 C   0  0  0  0  0  0  0  0  0  0  0  0
    5.2530    1.6260   27.9430 C   0  0  0  0  0  0  0  0  0  0  0  0
    5.4010    2.3480   26.8040 N   0  0  0  0  0  0  0  0  0  0  0  0
    5.6500    3.6470   27.0940 C   0  0  0  0  0  0  0  0  0  0  0  0
    5.3900    4.4400   26.0130 O   0  0  0  0  0  0  0  0  0  0  0  0
    6.1010    4.1480   28.3230 O   0  0  0  0  0  0  0  0  0  0  0  0
    7.4470    3.9530   28.7730 C   0  0  0  0  0  0  0  0  0  0  0  0
    8.1310    5.2580   29.0070 C   0  0  0  0  0  0  0  0  0  0  0  0
    7.3870    3.2160   30.0930 C   0  0  0  0  0  0  0  0  0  0  0  0
    8.2880    3.1330   27.8360 C   0  0  0  0  0  0  0  0  0  0  0  0
    6.3890    1.9300   25.8290 C   0  0  0  0  0  0  0  0  0  0  0  0
    6.9430    0.5700   26.1760 C   0  0  0  0  0  0  0  0  0  0  0  0
    5.7760   -4.9800   23.8150 C   0  0  0  0  0  0  0  0  0  0  0  0
    6.4260   -5.4160   22.5110 C   0  0  0  0  0  0  0  0  0  0  0  0
  1  2  1  0
  2  3  2  0
  2  4  1  0
  4  5  1  0
  5  6  1  0
  6  7  1  0
  7  8  1  0
  8  9  2  0
  8 10  1  0
 10 11  1  0
 12 10  1  1
 12 13  1  0
 14 13  1  0
 14 15  2  0
 14 16  2  0
 12 17  1  0
 14 17  1  0
 17 18  1  0
 18 19  1  0
 19 20  1  0
 20 21  1  0
 21 22  2  0
 21 23  1  0
 24 23  1  0
 24 25  1  0
 24 26  1  0
 24 27  1  0
 20 28  1  0
 17 29  1  0
 28 29  1  0
  7 30  1  0
  4 31  1  0
 30 31  1  0
M  END
