piperidine-amides-27710-covalent
     RDKit          3D

 26 28  0  0  0  0  0  0  0  0999 V2000
    7.0580   -3.3340   19.2820 C   0  0  0  0  0  0  0  0  0  0  0  0
    6.3710   -4.1510   20.3060 C   0  0  0  0  0  0  0  0  0  0  0  0
    5.3210   -4.7130   19.9450 O   0  0  0  0  0  0  0  0  0  0  0  0
    6.9120   -4.3280   21.5890 N   0  0  0  0  0  0  0  0  0  0  0  0
    6.5720   -5.4910   22.3390 C   0  0  0  0  0  0  0  0  0  0  0  0
    5.9770   -5.2030   23.6480 C   0  0  0  0  0  0  0  0  0  0  0  0
    6.5170   -4.0150   24.3470 C   0  0  0  0  0  0  0  0  0  0  0  0
    5.5770   -3.6080   25.4320 C   0  0  0  0  0  0  0  0  0  0  0  0
    4.7060   -2.7680   25.1640 O   0  0  0  0  0  0  0  0  0  0  0  0
    5.6690   -4.1600   26.7290 N   0  0  0  0  0  0  0  0  0  0  0  0
    6.9670   -4.5550   27.1740 C   0  0  0  0  0  0  0  0  0  0  0  0
    6.9390   -5.5870   28.1940 C   0  0  0  0  0  0  0  0  0  0  0  0
    7.8410   -6.4450   28.3310 O   0  0  0  0  0  0  0  0  0  0  0  0
    5.8140   -5.5570   29.0190 N   0  0  0  0  0  0  0  0  0  0  0  0
    5.4870   -6.7990   29.6790 C   0  0  0  0  0  0  0  0  0  0  0  0
    5.0720   -4.3380   29.0300 C   0  0  0  0  0  0  0  0  0  0  0  0
    4.9080   -3.5800   27.8460 C   0  0  2  0  0  0  0  0  0  0  0  0
    3.6040   -3.4420   27.4670 C   0  0  0  0  0  0  0  0  0  0  0  0
    3.1740   -2.1520   27.5600 C   0  0  0  0  0  0  0  0  0  0  0  0
    3.1120   -1.5620   28.7920 C   0  0  0  0  0  0  0  0  0  0  0  0
    2.6790   -0.2390   28.9490 C   0  0  0  0  0  0  0  0  0  0  0  0
    2.2540    0.6400   27.8300 C   0  0  0  0  0  0  0  0  0  0  0  0
    2.3330   -0.0360   26.4850 C   0  0  0  0  0  0  0  0  0  0  0  0
    2.8080   -1.4530   26.4170 C   0  0  0  0  0  0  0  0  0  0  0  0
    6.8620   -2.8870   23.4630 C   0  0  0  0  0  0  0  0  0  0  0  0
    7.6800   -3.2930   22.2600 C   0  0  0  0  0  0  0  0  0  0  0  0
  1  2  1  0
  2  3  2  0
  2  4  1  0
  4  5  1  0
  5  6  1  0
  6  7  1  0
  7  8  1  0
  8  9  2  0
  8 10  1  0
 10 11  1  0
 11 12  1  0
 12 13  2  0
 12 14  1  0
 14 15  1  0
 14 16  1  0
 10 17  1  0
 16 17  1  0
 17 18  1  6
 18 19  1  0
 19 20  2  0
 20 21  1  0
 21 22  2  0
 22 23  1  0
 19 24  1  0
 23 24  2  0
  7 25  1  0
  4 26  1  0
 25 26  1  0
M  END
