piperidine-amides-33851-covalent
     RDKit          3D

 30 32  0  0  0  0  0  0  0  0999 V2000
    7.0990   -3.2840   19.2500 C   0  0  0  0  0  0  0  0  0  0  0  0
    6.3710   -4.0530   20.2750 C   0  0  0  0  0  0  0  0  0  0  0  0
    5.2940   -4.5790   19.9030 O   0  0  0  0  0  0  0  0  0  0  0  0
    6.8750   -4.2430   21.5940 N   0  0  0  0  0  0  0  0  0  0  0  0
    7.6380   -3.2030   22.2140 C   0  0  0  0  0  0  0  0  0  0  0  0
    7.2630   -2.9690   23.6010 C   0  0  0  0  0  0  0  0  0  0  0  0
    6.0340   -3.6860   23.9700 C   0  0  0  0  0  0  0  0  0  0  0  0
    5.5350   -3.4160   25.3590 C   0  0  0  0  0  0  0  0  0  0  0  0
    4.3130   -3.5120   25.5660 O   0  0  0  0  0  0  0  0  0  0  0  0
    6.3650   -3.0460   26.4340 N   0  0  0  0  0  0  0  0  0  0  0  0
    6.7890   -1.7150   26.6800 C   0  0  0  0  0  0  0  0  0  0  0  0
    6.1440   -3.8040   27.6670 C   0  0  2  0  0  0  0  0  0  0  0  0
    6.0450   -5.3520   27.5960 C   0  0  0  0  0  0  0  0  0  0  0  0
    5.0170   -3.3780   28.4980 C   0  0  0  0  0  0  0  0  0  0  0  0
    3.6960   -4.1750   28.3490 C   0  0  0  0  0  0  0  0  0  0  0  0
    2.5210   -3.7310   29.2100 C   0  0  0  0  0  0  0  0  0  0  0  0
    1.3270   -4.4500   29.0770 F   0  0  0  0  0  0  0  0  0  0  0  0
    2.9320   -2.5300   30.0770 C   0  0  0  0  0  0  0  0  0  0  0  0
    4.2070   -1.7790   30.2040 C   0  0  0  0  0  0  0  0  0  0  0  0
    5.2730   -2.3140   29.3100 C   0  0  0  0  0  0  0  0  0  0  0  0
    6.4000   -1.7740   29.3170 O   0  0  0  0  0  0  0  0  0  0  0  0
    6.5070   -0.4370   29.7390 C   0  0  0  0  0  0  0  0  0  0  0  0
    7.6910   -0.1970   30.5960 C   0  0  0  0  0  0  0  0  0  0  0  0
    7.9620    1.0600   31.1100 C   0  0  0  0  0  0  0  0  0  0  0  0
    7.1430    2.1340   30.8420 C   0  0  0  0  0  0  0  0  0  0  0  0
    5.9280    1.9120   29.9680 C   0  0  0  0  0  0  0  0  0  0  0  0
    5.1430    3.0230   29.7330 F   0  0  0  0  0  0  0  0  0  0  0  0
    5.6890    0.6330   29.4710 C   0  0  0  0  0  0  0  0  0  0  0  0
    6.2630   -5.1630   23.7520 C   0  0  0  0  0  0  0  0  0  0  0  0
    6.5880   -5.4730   22.2950 C   0  0  0  0  0  0  0  0  0  0  0  0
  1  2  1  0
  2  3  2  0
  2  4  1  0
  4  5  1  0
  5  6  1  0
  6  7  1  0
  7  8  1  0
  8  9  2  0
  8 10  1  0
 10 11  1  0
 10 12  1  0
 12 13  1  6
 12 14  1  0
 14 15  2  0
 15 16  1  0
 16 17  1  0
 16 18  2  0
 18 19  1  0
 14 20  1  0
 19 20  2  0
 20 21  1  0
 21 22  1  0
 22 23  2  0
 23 24  1  0
 24 25  2  0
 25 26  1  0
 26 27  1  0
 22 28  1  0
 26 28  2  0
  7 29  1  0
  4 30  1  0
 29 30  1  0
M  END
