piperidine-amides-10410-covalent
     RDKit          3D

 25 27  0  0  0  0  0  0  0  0999 V2000
    7.1330   -3.2850   19.2240 C   0  0  0  0  0  0  0  0  0  0  0  0
    6.3340   -3.9960   20.2190 C   0  0  0  0  0  0  0  0  0  0  0  0
    5.2290   -4.4570   19.8390 O   0  0  0  0  0  0  0  0  0  0  0  0
    6.8310   -4.1890   21.5010 N   0  0  0  0  0  0  0  0  0  0  0  0
    6.4820   -5.3580   22.2690 C   0  0  0  0  0  0  0  0  0  0  0  0
    5.7420   -4.8940   23.4930 C   0  0  0  0  0  0  0  0  0  0  0  0
    6.5270   -3.8370   24.2260 C   0  0  0  0  0  0  0  0  0  0  0  0
    5.7950   -3.3820   25.4310 C   0  0  0  0  0  0  0  0  0  0  0  0
    4.5890   -3.0710   25.3070 O   0  0  0  0  0  0  0  0  0  0  0  0
    6.3930   -3.2710   26.7040 N   0  0  0  0  0  0  0  0  0  0  0  0
    6.1910   -4.2500   27.7560 C   0  0  0  0  0  0  0  0  0  0  0  0
    5.8960   -5.6770   27.2740 C   0  0  0  0  0  0  0  0  0  0  0  0
    4.6720   -6.1230   26.8420 C   0  0  0  0  0  0  0  0  0  0  0  0
    3.7680   -6.7540   27.6770 C   0  0  0  0  0  0  0  0  0  0  0  0
    2.4530   -7.0210   27.3390 C   0  0  0  0  0  0  0  0  0  0  0  0
    1.5890   -7.6450   28.1940 C   0  0  0  0  0  0  0  0  0  0  0  0
    1.9920   -8.0380   29.4340 C   0  0  0  0  0  0  0  0  0  0  0  0
    3.3630   -7.8280   29.9480 C   0  0  0  0  0  0  0  0  0  0  0  0
    4.2780   -7.1190   28.9250 C   0  0  0  0  0  0  0  0  0  0  0  0
    3.8090   -8.1990   31.1650 O   0  0  0  0  0  0  0  0  0  0  0  0
    2.8220   -8.3740   32.1450 C   0  0  0  0  0  0  0  0  0  0  0  0
    1.3860   -8.6550   31.6320 C   0  0  0  0  0  0  0  0  0  0  0  0
    1.1250   -8.6490   30.2610 O   0  0  0  0  0  0  0  0  0  0  0  0
    6.8880   -2.6820   23.3770 C   0  0  0  0  0  0  0  0  0  0  0  0
    7.5880   -3.1330   22.1210 C   0  0  0  0  0  0  0  0  0  0  0  0
  1  2  1  0
  2  3  2  0
  2  4  1  0
  4  5  1  0
  5  6  1  0
  6  7  1  0
  7  8  1  0
  8  9  2  0
  8 10  1  0
 10 11  1  0
 11 12  1  0
 12 13  1  0
 13 14  1  0
 14 15  2  0
 15 16  1  0
 16 17  2  0
 17 18  1  0
 14 19  1  0
 18 19  2  0
 18 20  1  0
 20 21  1  0
 21 22  1  0
 17 23  1  0
 22 23  1  0
  7 24  1  0
  4 25  1  0
 24 25  1  0
M  END
