piperidine-amides-21715-covalent
     RDKit          3D

 23 24  0  0  0  0  0  0  0  0999 V2000
    7.0660   -3.3240   19.2990 C   0  0  0  0  0  0  0  0  0  0  0  0
    6.2960   -4.1070   20.2640 C   0  0  0  0  0  0  0  0  0  0  0  0
    5.2020   -4.5700   19.8740 O   0  0  0  0  0  0  0  0  0  0  0  0
    6.8180   -4.3520   21.5240 N   0  0  0  0  0  0  0  0  0  0  0  0
    7.6530   -3.3850   22.1800 C   0  0  0  0  0  0  0  0  0  0  0  0
    7.4690   -3.5720   23.6430 C   0  0  0  0  0  0  0  0  0  0  0  0
    6.0250   -3.8260   23.9420 C   0  0  0  0  0  0  0  0  0  0  0  0
    5.7900   -3.6290   25.3800 C   0  0  0  0  0  0  0  0  0  0  0  0
    4.6330   -3.7990   25.8270 O   0  0  0  0  0  0  0  0  0  0  0  0
    6.8170   -3.2280   26.2500 N   0  0  0  0  0  0  0  0  0  0  0  0
    7.6780   -4.2010   26.8940 C   0  0  0  0  0  0  0  0  0  0  0  0
    7.1670   -1.8320   26.2070 C   0  0  0  0  0  0  0  0  0  0  0  0
    7.3240   -1.4150   24.8910 C   0  0  0  0  0  0  0  0  0  0  0  0
    6.3580   -0.9690   23.9870 C   0  0  0  0  0  0  0  0  0  0  0  0
    6.7080   -0.5670   22.6740 C   0  0  0  0  0  0  0  0  0  0  0  0
    8.0320   -0.5880   22.2070 C   0  0  0  0  0  0  0  0  0  0  0  0
    8.9850   -1.0230   23.0810 C   0  0  0  0  0  0  0  0  0  0  0  0
   10.2900   -1.0760   22.7460 N   0  0  0  0  0  0  0  0  0  0  0  0
   10.8310   -2.1890   22.3730 O   0  0  0  0  0  0  0  0  0  0  0  0
   11.0600    0.0300   22.7690 O   0  0  0  0  0  0  0  0  0  0  0  0
    8.6210   -1.4550   24.4550 C   0  0  0  0  0  0  0  0  0  0  0  0
    5.6680   -5.2090   23.5230 C   0  0  0  0  0  0  0  0  0  0  0  0
    6.3350   -5.5560   22.2070 C   0  0  0  0  0  0  0  0  0  0  0  0
  1  2  1  0
  2  3  2  0
  2  4  1  0
  4  5  1  0
  5  6  1  0
  6  7  1  0
  7  8  1  0
  8  9  2  0
  8 10  1  0
 10 11  1  0
 10 12  1  0
 12 13  1  0
 13 14  2  0
 14 15  1  0
 15 16  2  0
 16 17  1  0
 17 18  1  0
 18 19  2  0
 18 20  1  0
 13 21  1  0
 17 21  2  0
  7 22  1  0
  4 23  1  0
 22 23  1  0
M  CHG  2  18   1  20  -1
M  END
