piperidine-amides-1260-covalent
     RDKit          3D

 22 23  0  0  0  0  0  0  0  0999 V2000
    7.0900   -3.3130   19.3300 C   0  0  0  0  0  0  0  0  0  0  0  0
    6.3310   -4.1140   20.3290 C   0  0  0  0  0  0  0  0  0  0  0  0
    5.3150   -4.7180   19.9460 O   0  0  0  0  0  0  0  0  0  0  0  0
    6.7980   -4.2080   21.6660 N   0  0  0  0  0  0  0  0  0  0  0  0
    6.6930   -5.4530   22.3960 C   0  0  0  0  0  0  0  0  0  0  0  0
    5.9900   -5.1340   23.7140 C   0  0  0  0  0  0  0  0  0  0  0  0
    6.1130   -3.6640   23.8850 C   0  0  0  0  0  0  0  0  0  0  0  0
    5.6450   -3.1820   25.2120 C   0  0  0  0  0  0  0  0  0  0  0  0
    4.4290   -2.9900   25.3040 O   0  0  0  0  0  0  0  0  0  0  0  0
    6.5170   -2.9670   26.2920 N   0  0  0  0  0  0  0  0  0  0  0  0
    6.2160   -3.1970   27.6670 C   0  0  0  0  0  0  0  0  0  0  0  0
    6.2740   -2.2300   28.6570 C   0  0  0  0  0  0  0  0  0  0  0  0
    5.1240   -1.7700   29.4080 N   0  0  0  0  0  0  0  0  0  0  0  0
    5.3870   -0.7920   30.3700 C   0  0  0  0  0  0  0  0  0  0  0  0
    6.7160   -0.4230   30.4420 C   0  0  0  0  0  0  0  0  0  0  0  0
    7.1570    0.6110   31.4190 C   0  0  0  0  0  0  0  0  0  0  0  0
    6.3630    0.9050   32.4490 O   0  0  0  0  0  0  0  0  0  0  0  0
    8.3780    1.2530   31.2470 O   0  0  0  0  0  0  0  0  0  0  0  0
    9.5610    0.7960   31.8940 C   0  0  0  0  0  0  0  0  0  0  0  0
    7.7060   -1.3160   29.2670 S   0  0  0  0  0  0  0  0  0  0  0  0
    7.4760   -3.1270   23.5750 C   0  0  0  0  0  0  0  0  0  0  0  0
    7.6270   -3.1420   22.1940 C   0  0  0  0  0  0  0  0  0  0  0  0
  1  2  1  0
  2  3  2  0
  2  4  1  0
  4  5  1  0
  5  6  1  0
  6  7  1  0
  7  8  1  0
  8  9  2  0
  8 10  1  0
 10 11  1  0
 11 12  1  0
 12 13  2  0
 13 14  1  0
 14 15  2  0
 15 16  1  0
 16 17  2  0
 16 18  1  0
 18 19  1  0
 12 20  1  0
 15 20  1  0
  7 21  1  0
  4 22  1  0
 21 22  1  0
M  END
