piperidine-amides-23885-covalent
     RDKit          3D

 24 26  0  0  0  0  0  0  0  0999 V2000
    7.1520   -3.3330   19.2890 C   0  0  0  0  0  0  0  0  0  0  0  0
    6.4010   -4.1110   20.2770 C   0  0  0  0  0  0  0  0  0  0  0  0
    5.3020   -4.5900   19.9080 O   0  0  0  0  0  0  0  0  0  0  0  0
    6.9420   -4.3670   21.5590 N   0  0  0  0  0  0  0  0  0  0  0  0
    6.4640   -5.4800   22.2840 C   0  0  0  0  0  0  0  0  0  0  0  0
    6.0170   -5.1300   23.6220 C   0  0  0  0  0  0  0  0  0  0  0  0
    6.6960   -3.9580   24.2210 C   0  0  0  0  0  0  0  0  0  0  0  0
    5.9380   -3.4940   25.4190 C   0  0  0  0  0  0  0  0  0  0  0  0
    5.0960   -2.5800   25.3190 O   0  0  0  0  0  0  0  0  0  0  0  0
    6.1670   -4.1110   26.6520 N   0  0  0  0  0  0  0  0  0  0  0  0
    6.9850   -5.2220   26.8920 C   0  0  0  0  0  0  0  0  0  0  0  0
    7.1820   -5.4240   28.3060 C   0  0  0  0  0  0  0  0  0  0  0  0
    6.1360   -4.4200   28.8510 C   0  0  0  0  0  0  0  0  0  0  0  0
    5.7380   -3.5100   27.8830 C   0  0  2  0  0  0  0  0  0  0  0  0
    4.3120   -3.7130   28.4580 C   0  0  0  0  0  0  0  0  0  0  0  0
    3.4120   -4.7890   27.9130 C   0  0  0  0  0  0  0  0  0  0  0  0
    4.2560   -5.4550   26.8260 C   0  0  0  0  0  0  0  0  0  0  0  0
    2.1970   -4.8080   28.5470 N   0  0  0  0  0  0  0  0  0  0  0  0
    2.3740   -3.7980   29.4260 N   0  0  0  0  0  0  0  0  0  0  0  0
    1.2900   -3.6130   30.1900 C   0  0  0  0  0  0  0  0  0  0  0  0
    3.6270   -3.0060   29.5110 C   0  0  0  0  0  0  0  0  0  0  0  0
    4.1760   -1.8380   30.3440 C   0  0  0  0  0  0  0  0  0  0  0  0
    6.9120   -2.8690   23.2240 C   0  0  0  0  0  0  0  0  0  0  0  0
    7.7640   -3.3910   22.2550 C   0  0  0  0  0  0  0  0  0  0  0  0
  1  2  1  0
  2  3  2  0
  2  4  1  0
  4  5  1  0
  5  6  1  0
  6  7  1  0
  7  8  1  0
  8  9  2  0
  8 10  1  0
 10 11  1  0
 11 12  1  0
 12 13  1  0
 10 14  1  0
 13 14  1  0
 14 15  1  6
 15 16  1  0
 16 17  1  0
 16 18  2  0
 18 19  1  0
 19 20  1  0
 15 21  2  0
 19 21  1  0
 21 22  1  0
  7 23  1  0
  4 24  1  0
 23 24  1  0
M  END
