piperidine-amides-15402-covalent
     RDKit          3D

 18 18  0  0  0  0  0  0  0  0999 V2000
    7.0910   -3.2840   19.3100 C   0  0  0  0  0  0  0  0  0  0  0  0
    6.3470   -4.0910   20.2900 C   0  0  0  0  0  0  0  0  0  0  0  0
    5.3210   -4.7120   19.9410 O   0  0  0  0  0  0  0  0  0  0  0  0
    6.8000   -4.2100   21.6110 N   0  0  0  0  0  0  0  0  0  0  0  0
    7.6280   -3.1520   22.1780 C   0  0  0  0  0  0  0  0  0  0  0  0
    7.3690   -3.0090   23.6930 C   0  0  0  0  0  0  0  0  0  0  0  0
    6.0330   -3.6550   23.9760 C   0  0  0  0  0  0  0  0  0  0  0  0
    5.5380   -3.3760   25.3410 C   0  0  0  0  0  0  0  0  0  0  0  0
    4.3100   -3.4780   25.5290 O   0  0  0  0  0  0  0  0  0  0  0  0
    6.3960   -2.9980   26.4000 N   0  0  0  0  0  0  0  0  0  0  0  0
    6.2620   -3.6710   27.6760 C   0  0  0  0  0  0  0  0  0  0  0  0
    6.1000   -5.1690   27.4570 C   0  0  0  0  0  0  0  0  0  0  0  0
    6.1600   -6.0660   28.4880 C   0  0  0  0  0  0  0  0  0  0  0  0
    6.6310   -1.7420   27.0760 C   0  0  0  0  0  0  0  0  0  0  0  0
    6.5340   -2.0730   28.4280 C   0  0  0  0  0  0  0  0  0  0  0  0
    6.9810   -1.0040   29.1110 N   0  0  0  0  0  0  0  0  0  0  0  0
    6.0450   -5.1050   23.7050 C   0  0  0  0  0  0  0  0  0  0  0  0
    6.5850   -5.4380   22.3430 C   0  0  0  0  0  0  0  0  0  0  0  0
  1  2  1  0
  2  3  2  0
  2  4  1  0
  4  5  1  0
  5  6  1  0
  6  7  1  0
  7  8  1  0
  8  9  2  0
  8 10  1  0
 10 11  1  0
 11 12  1  0
 12 13  3  0
 10 14  1  0
 14 15  1  0
 15 16  3  0
  7 17  1  0
  4 18  1  0
 17 18  1  0
M  END
