piperidine-amides-1958-covalent
     RDKit          3D

 22 22  0  0  0  0  0  0  0  0999 V2000
    7.1440   -3.2480   19.1670 C   0  0  0  0  0  0  0  0  0  0  0  0
    6.3790   -4.0190   20.1830 C   0  0  0  0  0  0  0  0  0  0  0  0
    5.2890   -4.4780   19.8540 O   0  0  0  0  0  0  0  0  0  0  0  0
    6.9360   -4.2410   21.4350 N   0  0  0  0  0  0  0  0  0  0  0  0
    7.6910   -3.2240   22.1180 C   0  0  0  0  0  0  0  0  0  0  0  0
    6.8920   -2.7280   23.2790 C   0  0  0  0  0  0  0  0  0  0  0  0
    6.5500   -3.9170   24.1700 C   0  0  0  0  0  0  0  0  0  0  0  0
    5.8000   -3.3790   25.3080 C   0  0  0  0  0  0  0  0  0  0  0  0
    4.5940   -3.1210   25.1830 O   0  0  0  0  0  0  0  0  0  0  0  0
    6.4490   -3.1640   26.5280 N   0  0  0  0  0  0  0  0  0  0  0  0
    6.2410   -4.1260   27.5830 C   0  0  0  0  0  0  0  0  0  0  0  0
    5.0990   -3.5880   28.3540 C   0  0  0  0  0  0  0  0  0  0  0  0
    5.0360   -2.2570   28.7150 C   0  0  0  0  0  0  0  0  0  0  0  0
    4.5140   -2.2730   29.9960 F   0  0  0  0  0  0  0  0  0  0  0  0
    4.2070   -1.5400   27.8580 F   0  0  0  0  0  0  0  0  0  0  0  0
    6.2380   -1.6060   28.8340 C   0  0  0  0  0  0  0  0  0  0  0  0
    6.1590   -0.3620   29.4130 C   0  0  0  0  0  0  0  0  0  0  0  0
    7.1890    0.5370   29.4540 O   0  0  0  0  0  0  0  0  0  0  0  0
    4.9330   -0.0710   29.9600 O   0  0  0  0  0  0  0  0  0  0  0  0
    4.1820    1.0480   29.5530 C   0  0  0  0  0  0  0  0  0  0  0  0
    5.8250   -5.0060   23.4550 C   0  0  0  0  0  0  0  0  0  0  0  0
    6.5050   -5.3970   22.1840 C   0  0  0  0  0  0  0  0  0  0  0  0
  1  2  1  0
  2  3  2  0
  2  4  1  0
  4  5  1  0
  5  6  1  0
  6  7  1  0
  7  8  1  0
  8  9  2  0
  8 10  1  0
 10 11  1  0
 11 12  1  0
 12 13  1  0
 13 14  1  0
 13 15  1  0
 13 16  1  0
 16 17  1  0
 17 18  2  0
 17 19  1  0
 19 20  1  0
  7 21  1  0
  4 22  1  0
 21 22  1  0
M  END
