piperidine-amides-2097-covalent
     RDKit          3D

 25 28  0  0  0  0  0  0  0  0999 V2000
    7.1470   -3.3240   19.2890 C   0  0  0  0  0  0  0  0  0  0  0  0
    6.3810   -4.1260   20.2690 C   0  0  0  0  0  0  0  0  0  0  0  0
    5.3070   -4.5950   19.9020 O   0  0  0  0  0  0  0  0  0  0  0  0
    6.9220   -4.3710   21.5300 N   0  0  0  0  0  0  0  0  0  0  0  0
    6.4500   -5.4780   22.3000 C   0  0  0  0  0  0  0  0  0  0  0  0
    5.6370   -4.9200   23.4300 C   0  0  0  0  0  0  0  0  0  0  0  0
    6.4870   -3.9210   24.2190 C   0  0  0  0  0  0  0  0  0  0  0  0
    5.6570   -3.3930   25.3120 C   0  0  0  0  0  0  0  0  0  0  0  0
    4.4320   -3.3000   25.1600 O   0  0  0  0  0  0  0  0  0  0  0  0
    6.2400   -2.9860   26.5120 N   0  0  0  0  0  0  0  0  0  0  0  0
    5.7200   -1.7980   27.1430 C   0  0  2  0  0  0  0  0  0  0  0  0
    6.6910   -0.9050   27.1690 C   0  0  0  0  0  0  0  0  0  0  0  0
    6.4060   -1.2790   28.4950 C   0  0  2  0  0  0  0  0  0  0  0  0
    5.8910   -2.4760   28.9240 C   0  0  0  0  0  0  0  0  0  0  0  0
    6.4000   -3.7310   28.7960 C   0  0  0  0  0  0  0  0  0  0  0  0
    5.8650   -5.0870   29.2530 C   0  0  0  0  0  0  0  0  0  0  0  0
    4.5410   -4.8720   29.9540 C   0  0  0  0  0  0  0  0  0  0  0  0
    4.0590   -6.2460   30.3860 C   0  0  0  0  0  0  0  0  0  0  0  0
    2.7440   -6.2090   31.1080 C   0  0  0  0  0  0  0  0  0  0  0  0
    2.0360   -4.9200   31.3430 C   0  0  0  0  0  0  0  0  0  0  0  0
    2.6160   -3.6140   30.8650 C   0  0  0  0  0  0  0  0  0  0  0  0
    3.9110   -3.6460   30.1540 C   0  0  0  0  0  0  0  0  0  0  0  0
    4.6110   -2.4320   29.6240 C   0  0  0  0  0  0  0  0  0  0  0  0
    6.9140   -2.7790   23.3420 C   0  0  0  0  0  0  0  0  0  0  0  0
    7.6490   -3.3000   22.1450 C   0  0  0  0  0  0  0  0  0  0  0  0
  1  2  1  0
  2  3  2  0
  2  4  1  0
  4  5  1  0
  5  6  1  0
  6  7  1  0
  7  8  1  0
  8  9  2  0
  8 10  1  0
 11 10  1  6
 11 12  1  0
 11 13  1  0
 12 13  1  0
 13 14  1  6
 14 15  2  0
 15 16  1  0
 16 17  2  0
 17 18  1  0
 18 19  2  0
 19 20  1  0
 20 21  2  0
 17 22  1  0
 21 22  1  0
 14 23  1  0
 22 23  2  0
  7 24  1  0
  4 25  1  0
 24 25  1  0
M  END
