piperidine-amides-30326-covalent
     RDKit          3D

 26 28  0  0  0  0  0  0  0  0999 V2000
    7.0960   -3.3500   19.2690 C   0  0  0  0  0  0  0  0  0  0  0  0
    6.3790   -4.1390   20.2600 C   0  0  0  0  0  0  0  0  0  0  0  0
    5.3370   -4.7150   19.9500 O   0  0  0  0  0  0  0  0  0  0  0  0
    6.9230   -4.2920   21.5760 N   0  0  0  0  0  0  0  0  0  0  0  0
    7.7160   -3.2310   22.1480 C   0  0  0  0  0  0  0  0  0  0  0  0
    7.0050   -2.6490   23.3220 C   0  0  0  0  0  0  0  0  0  0  0  0
    6.6520   -3.7760   24.2740 C   0  0  0  0  0  0  0  0  0  0  0  0
    5.9290   -3.2000   25.4310 C   0  0  0  0  0  0  0  0  0  0  0  0
    4.6900   -3.0390   25.4440 O   0  0  0  0  0  0  0  0  0  0  0  0
    6.7040   -2.8200   26.5510 N   0  0  0  0  0  0  0  0  0  0  0  0
    6.5190   -1.5120   27.1120 C   0  0  0  0  0  0  0  0  0  0  0  0
    7.0960   -1.3920   28.4850 C   0  0  0  0  0  0  0  0  0  0  0  0
    6.9870   -0.1950   29.1520 C   0  0  0  0  0  0  0  0  0  0  0  0
    6.3430    0.9130   28.5580 C   0  0  0  0  0  0  0  0  0  0  0  0
    6.2460    2.1060   29.2440 C   0  0  0  0  0  0  0  0  0  0  0  0
    5.8190    0.7730   27.2830 C   0  0  0  0  0  0  0  0  0  0  0  0
    5.9040   -0.4060   26.5780 C   0  0  0  0  0  0  0  0  0  0  0  0
    7.1840   -3.7810   27.4950 C   0  0  2  0  0  0  0  0  0  0  0  0
    8.0730   -4.7340   27.0570 C   0  0  0  0  0  0  0  0  0  0  0  0
    7.9300   -6.0790   27.3950 C   0  0  0  0  0  0  0  0  0  0  0  0
    6.5270   -6.1150   28.3090 S   0  0  0  0  0  0  0  0  0  0  0  0
    5.4200   -6.7280   27.5190 O   0  0  0  0  0  0  0  0  0  0  0  0
    6.6230   -6.7690   29.6400 O   0  0  0  0  0  0  0  0  0  0  0  0
    6.3080   -4.3290   28.4560 C   0  0  0  0  0  0  0  0  0  0  0  0
    5.7800   -4.8190   23.6130 C   0  0  0  0  0  0  0  0  0  0  0  0
    6.4310   -5.3480   22.3800 C   0  0  0  0  0  0  0  0  0  0  0  0
  1  2  1  0
  2  3  2  0
  2  4  1  0
  4  5  1  0
  5  6  1  0
  6  7  1  0
  7  8  1  0
  8  9  2  0
  8 10  1  0
 10 11  1  0
 11 12  2  0
 12 13  1  0
 13 14  2  0
 14 15  1  0
 14 16  1  0
 11 17  1  0
 16 17  2  0
 18 10  1  6
 18 19  1  0
 19 20  2  0
 21 20  1  0
 21 22  2  0
 21 23  2  0
 18 24  1  0
 21 24  1  0
  7 25  1  0
  4 26  1  0
 25 26  1  0
M  END
