piperidine-amides-25193-covalent
     RDKit          3D

 25 27  0  0  0  0  0  0  0  0999 V2000
    7.0220   -3.3400   19.3650 C   0  0  0  0  0  0  0  0  0  0  0  0
    6.3710   -4.2020   20.3860 C   0  0  0  0  0  0  0  0  0  0  0  0
    5.4160   -4.8740   19.9960 O   0  0  0  0  0  0  0  0  0  0  0  0
    6.8590   -4.2690   21.7040 N   0  0  0  0  0  0  0  0  0  0  0  0
    6.7040   -5.4640   22.5090 C   0  0  0  0  0  0  0  0  0  0  0  0
    6.0640   -5.1190   23.8290 C   0  0  0  0  0  0  0  0  0  0  0  0
    6.0800   -3.6010   23.9930 C   0  0  0  0  0  0  0  0  0  0  0  0
    5.4690   -3.2330   25.2950 C   0  0  0  0  0  0  0  0  0  0  0  0
    4.2380   -3.1180   25.3200 O   0  0  0  0  0  0  0  0  0  0  0  0
    6.1810   -2.9960   26.4960 N   0  0  0  0  0  0  0  0  0  0  0  0
    6.0980   -4.0820   27.4690 C   0  0  0  0  0  0  0  0  0  0  0  0
    4.7980   -3.9690   28.2390 C   0  0  0  0  0  0  0  0  0  0  0  0
    4.6190   -2.6570   28.9190 N   0  0  0  0  0  0  0  0  0  0  0  0
    3.3120   -2.9080   29.5360 C   0  0  0  0  0  0  0  0  0  0  0  0
    2.9500   -4.1510   29.1930 C   0  0  0  0  0  0  0  0  0  0  0  0
    3.7780   -4.8520   28.4210 N   0  0  0  0  0  0  0  0  0  0  0  0
    6.3150   -1.7410   27.1470 C   0  0  0  0  0  0  0  0  0  0  0  0
    5.6930   -0.5490   26.2580 C   0  0  0  0  0  0  0  0  0  0  0  0
    5.9270    0.5790   27.1230 N   0  0  0  0  0  0  0  0  0  0  0  0
    6.5580    0.5100   28.4000 C   0  0  0  0  0  0  0  0  0  0  0  0
    7.1360   -0.4630   29.2550 C   0  0  0  0  0  0  0  0  0  0  0  0
    7.7390   -0.1700   30.5850 C   0  0  0  0  0  0  0  0  0  0  0  0
    6.9860   -1.7130   28.5290 C   0  0  0  0  0  0  0  0  0  0  0  0
    7.3540   -2.9520   23.6420 C   0  0  0  0  0  0  0  0  0  0  0  0
    7.7350   -3.2230   22.2300 C   0  0  0  0  0  0  0  0  0  0  0  0
  1  2  1  0
  2  3  2  0
  2  4  1  0
  4  5  1  0
  5  6  1  0
  6  7  1  0
  7  8  1  0
  8  9  2  0
  8 10  1  0
 10 11  1  0
 11 12  1  0
 12 13  2  0
 13 14  1  0
 14 15  2  0
 12 16  1  0
 15 16  1  0
 10 17  1  0
 17 18  2  0
 18 19  1  0
 19 20  2  0
 20 21  1  0
 21 22  1  0
 17 23  1  0
 21 23  2  0
  7 24  1  0
  4 25  1  0
 24 25  1  0
M  END
