piperidine-amides-2640-covalent
     RDKit          3D

 25 26  0  0  0  0  0  0  0  0999 V2000
    7.1060   -3.2900   19.2560 C   0  0  0  0  0  0  0  0  0  0  0  0
    6.3390   -4.0500   20.2740 C   0  0  0  0  0  0  0  0  0  0  0  0
    5.2930   -4.5780   19.9000 O   0  0  0  0  0  0  0  0  0  0  0  0
    6.8360   -4.1790   21.5740 N   0  0  0  0  0  0  0  0  0  0  0  0
    6.6640   -5.3940   22.3350 C   0  0  0  0  0  0  0  0  0  0  0  0
    5.9610   -5.0840   23.6300 C   0  0  0  0  0  0  0  0  0  0  0  0
    5.9950   -3.5740   23.8780 C   0  0  0  0  0  0  0  0  0  0  0  0
    5.5930   -3.3280   25.2730 C   0  0  0  0  0  0  0  0  0  0  0  0
    4.3910   -3.3220   25.5720 O   0  0  0  0  0  0  0  0  0  0  0  0
    6.5760   -3.0870   26.2480 N   0  0  0  0  0  0  0  0  0  0  0  0
    6.3050   -3.3280   27.6530 C   0  0  2  0  0  0  0  0  0  0  0  0
    5.9290   -4.7910   27.8600 C   0  0  0  0  0  0  0  0  0  0  0  0
    6.3600   -5.3850   29.0290 O   0  0  0  0  0  0  0  0  0  0  0  0
    5.1930   -5.4430   26.9070 O   0  0  0  0  0  0  0  0  0  0  0  0
    4.7750   -6.7310   27.1320 C   0  0  0  0  0  0  0  0  0  0  0  0
    5.3180   -2.2730   28.1070 C   0  0  2  0  0  0  0  0  0  0  0  0
    5.8150   -1.2300   27.3750 C   0  0  0  0  0  0  0  0  0  0  0  0
    5.7450    0.1480   28.0070 C   0  0  0  0  0  0  0  0  0  0  0  0
    6.9980   -0.1080   28.7890 C   0  0  0  0  0  0  0  0  0  0  0  0
    6.4740   -0.8380   30.0020 C   0  0  1  0  0  0  0  0  0  0  0  0
    6.1540   -0.0620   31.1090 O   0  0  0  0  0  0  0  0  0  0  0  0
    7.1090    0.4210   32.0110 C   0  0  0  0  0  0  0  0  0  0  0  0
    5.4040   -1.8390   29.5840 C   0  0  0  0  0  0  0  0  0  0  0  0
    7.2610   -2.8980   23.5100 C   0  0  0  0  0  0  0  0  0  0  0  0
    7.7150   -3.1660   22.1290 C   0  0  0  0  0  0  0  0  0  0  0  0
  1  2  1  0
  2  3  2  0
  2  4  1  0
  4  5  1  0
  5  6  1  0
  6  7  1  0
  7  8  1  0
  8  9  2  0
  8 10  1  0
 11 10  1  6
 11 12  1  0
 12 13  2  0
 12 14  1  0
 14 15  1  0
 11 16  1  0
 16 17  1  6
 17 18  1  0
 18 19  1  0
 19 20  1  0
 20 21  1  1
 21 22  1  0
 16 23  1  0
 20 23  1  0
  7 24  1  0
  4 25  1  0
 24 25  1  0
M  END
