piperidine-amides-8880-covalent
     RDKit          3D

 22 23  0  0  0  0  0  0  0  0999 V2000
    7.0430   -3.2800   19.2690 C   0  0  0  0  0  0  0  0  0  0  0  0
    6.3190   -4.0500   20.2850 C   0  0  0  0  0  0  0  0  0  0  0  0
    5.3060   -4.6730   19.9250 O   0  0  0  0  0  0  0  0  0  0  0  0
    6.7830   -4.1150   21.6280 N   0  0  0  0  0  0  0  0  0  0  0  0
    7.6040   -3.0540   22.1550 C   0  0  0  0  0  0  0  0  0  0  0  0
    7.1590   -2.6710   23.5460 C   0  0  0  0  0  0  0  0  0  0  0  0
    5.9400   -3.5160   23.8570 C   0  0  0  0  0  0  0  0  0  0  0  0
    5.3730   -3.2830   25.2440 C   0  0  0  0  0  0  0  0  0  0  0  0
    4.1530   -3.3970   25.3220 O   0  0  0  0  0  0  0  0  0  0  0  0
    6.1850   -2.9550   26.3370 N   0  0  0  0  0  0  0  0  0  0  0  0
    6.5040   -3.8800   27.3810 C   0  0  1  0  0  0  0  0  0  0  0  0
    5.6190   -4.9430   27.6250 C   0  0  0  0  0  0  0  0  0  0  0  0
    4.7250   -5.3060   26.8330 O   0  0  0  0  0  0  0  0  0  0  0  0
    5.7140   -5.6440   28.8030 O   0  0  0  0  0  0  0  0  0  0  0  0
    5.6740   -6.9940   29.0550 C   0  0  0  0  0  0  0  0  0  0  0  0
    7.6980   -4.4670   26.8030 C   0  0  0  0  0  0  0  0  0  0  0  0
    8.2130   -5.7010   27.3480 C   0  0  0  0  0  0  0  0  0  0  0  0
    9.5630   -6.1100   26.4610 S   0  0  0  0  0  0  0  0  0  0  0  0
    9.4270   -4.6630   25.4110 C   0  0  0  0  0  0  0  0  0  0  0  0
    8.3160   -3.8240   25.7240 N   0  0  0  0  0  0  0  0  0  0  0  0
    6.1430   -4.9870   23.7130 C   0  0  0  0  0  0  0  0  0  0  0  0
    6.5480   -5.3410   22.3100 C   0  0  0  0  0  0  0  0  0  0  0  0
  1  2  1  0
  2  3  2  0
  2  4  1  0
  4  5  1  0
  5  6  1  0
  6  7  1  0
  7  8  1  0
  8  9  2  0
  8 10  1  0
 11 10  1  6
 11 12  1  0
 12 13  2  0
 12 14  1  0
 14 15  1  0
 11 16  1  0
 16 17  2  0
 17 18  1  0
 18 19  1  0
 16 20  1  0
 19 20  2  0
  7 21  1  0
  4 22  1  0
 21 22  1  0
M  END
