piperidine-amides-2026-covalent
     RDKit          3D

 22 24  0  0  0  0  0  0  0  0999 V2000
    7.0240   -3.3270   19.2880 C   0  0  0  0  0  0  0  0  0  0  0  0
    6.3410   -4.1580   20.3140 C   0  0  0  0  0  0  0  0  0  0  0  0
    5.3410   -4.7720   19.9590 O   0  0  0  0  0  0  0  0  0  0  0  0
    6.8700   -4.2570   21.6060 N   0  0  0  0  0  0  0  0  0  0  0  0
    7.6210   -3.1870   22.2140 C   0  0  0  0  0  0  0  0  0  0  0  0
    6.8700   -2.6650   23.4100 C   0  0  0  0  0  0  0  0  0  0  0  0
    6.5140   -3.8440   24.3080 C   0  0  0  0  0  0  0  0  0  0  0  0
    5.7170   -3.3480   25.4670 C   0  0  0  0  0  0  0  0  0  0  0  0
    4.4780   -3.3030   25.4010 O   0  0  0  0  0  0  0  0  0  0  0  0
    6.3250   -2.9350   26.6730 N   0  0  0  0  0  0  0  0  0  0  0  0
    6.7470   -1.5550   26.8570 C   0  0  1  0  0  0  0  0  0  0  0  0
    5.6560   -0.5410   26.4050 C   0  0  0  0  0  0  0  0  0  0  0  0
    5.0910    0.3210   27.3200 C   0  0  1  0  0  0  0  0  0  0  0  0
    3.7330    0.3460   27.3890 C   0  0  0  0  0  0  0  0  0  0  0  0
    3.1380    0.4560   28.6300 O   0  0  0  0  0  0  0  0  0  0  0  0
    3.0110    0.2810   26.3740 O   0  0  0  0  0  0  0  0  0  0  0  0
    1.6950   -0.2360   26.4320 C   0  0  0  0  0  0  0  0  0  0  0  0
    5.6370   -0.3210   28.5120 C   0  0  2  0  0  0  0  0  0  0  0  0
    6.9020    0.0080   29.0290 C   0  0  0  0  0  0  0  0  0  0  0  0
    6.9230   -1.2690   28.3760 C   0  0  2  0  0  0  0  0  0  0  0  0
    5.8690   -4.9890   23.6280 C   0  0  0  0  0  0  0  0  0  0  0  0
    6.5650   -5.4250   22.3840 C   0  0  0  0  0  0  0  0  0  0  0  0
  1  2  1  0
  2  3  2  0
  2  4  1  0
  4  5  1  0
  5  6  1  0
  6  7  1  0
  7  8  1  0
  8  9  2  0
  8 10  1  0
 11 10  1  1
 11 12  1  0
 12 13  1  0
 13 14  1  1
 14 15  2  0
 14 16  1  0
 16 17  1  0
 13 18  1  0
 18 19  1  1
 11 20  1  0
 18 20  1  0
 20 19  1  6
  7 21  1  0
  4 22  1  0
 21 22  1  0
M  END
