piperidine-amides-8523-covalent
     RDKit          3D

 24 25  0  0  0  0  0  0  0  0999 V2000
    7.0860   -3.3410   19.3100 C   0  0  0  0  0  0  0  0  0  0  0  0
    6.4120   -4.1830   20.2930 C   0  0  0  0  0  0  0  0  0  0  0  0
    5.3590   -4.7530   19.9570 O   0  0  0  0  0  0  0  0  0  0  0  0
    6.9870   -4.3810   21.5720 N   0  0  0  0  0  0  0  0  0  0  0  0
    7.7110   -3.3010   22.1760 C   0  0  0  0  0  0  0  0  0  0  0  0
    6.8540   -2.6800   23.2240 C   0  0  0  0  0  0  0  0  0  0  0  0
    6.5300   -3.7800   24.2010 C   0  0  0  0  0  0  0  0  0  0  0  0
    5.6660   -3.2370   25.2840 C   0  0  0  0  0  0  0  0  0  0  0  0
    4.4710   -3.1210   25.0290 O   0  0  0  0  0  0  0  0  0  0  0  0
    6.2550   -2.9050   26.4900 N   0  0  0  0  0  0  0  0  0  0  0  0
    6.2590   -1.5660   26.9780 C   0  0  0  0  0  0  0  0  0  0  0  0
    5.9020   -0.3060   26.4330 C   0  0  0  0  0  0  0  0  0  0  0  0
    5.9560    0.9450   27.0470 C   0  0  0  0  0  0  0  0  0  0  0  0
    6.3820    1.2180   28.3410 C   0  0  0  0  0  0  0  0  0  0  0  0
    6.7890   -0.0090   29.0370 C   0  0  0  0  0  0  0  0  0  0  0  0
    7.3130    0.0300   30.4960 C   0  0  0  0  0  0  0  0  0  0  0  0
    6.3580    0.1340   31.3010 O   0  0  0  0  0  0  0  0  0  0  0  0
    6.7960    0.3270   32.5840 C   0  0  0  0  0  0  0  0  0  0  0  0
    5.7600   -0.0370   33.6010 C   0  0  0  0  0  0  0  0  0  0  0  0
    7.4690    1.5070   32.7680 C   0  0  0  0  0  0  0  0  0  0  0  0
    6.7180   -1.3290   28.3660 C   0  0  0  0  0  0  0  0  0  0  0  0
    7.0940   -2.3840   29.0850 C   0  0  0  0  0  0  0  0  0  0  0  0
    5.8330   -4.9510   23.5790 C   0  0  0  0  0  0  0  0  0  0  0  0
    6.5780   -5.4830   22.3910 C   0  0  0  0  0  0  0  0  0  0  0  0
  1  2  1  0
  2  3  2  0
  2  4  1  0
  4  5  1  0
  5  6  1  0
  6  7  1  0
  7  8  1  0
  8  9  2  0
  8 10  1  0
 10 11  1  0
 11 12  2  0
 12 13  1  0
 13 14  2  0
 14 15  1  0
 15 16  1  0
 16 17  1  0
 17 18  1  0
 18 19  1  0
 18 20  1  0
 11 21  1  0
 15 21  2  0
 21 22  1  0
  7 23  1  0
  4 24  1  0
 23 24  1  0
M  END
