piperidine-amides-2013-covalent
     RDKit          3D

 24 24  0  0  0  0  0  0  0  0999 V2000
    7.1390   -3.2650   19.2410 C   0  0  0  0  0  0  0  0  0  0  0  0
    6.3400   -4.0210   20.2330 C   0  0  0  0  0  0  0  0  0  0  0  0
    5.2660   -4.4820   19.8590 O   0  0  0  0  0  0  0  0  0  0  0  0
    6.8520   -4.2280   21.5100 N   0  0  0  0  0  0  0  0  0  0  0  0
    7.6160   -3.2190   22.2050 C   0  0  0  0  0  0  0  0  0  0  0  0
    6.9550   -2.8980   23.5230 C   0  0  0  0  0  0  0  0  0  0  0  0
    5.6050   -3.6220   23.5870 C   0  0  0  0  0  0  0  0  0  0  0  0
    4.9050   -3.2770   24.8420 C   0  0  0  0  0  0  0  0  0  0  0  0
    3.7300   -3.6130   24.9950 O   0  0  0  0  0  0  0  0  0  0  0  0
    5.5220   -2.5760   25.8790 N   0  0  0  0  0  0  0  0  0  0  0  0
    5.3770   -3.0860   27.2160 C   0  0  0  0  0  0  0  0  0  0  0  0
    6.7510   -2.9280   27.7140 C   0  0  0  0  0  0  0  0  0  0  0  0
    6.9840   -3.0750   29.0610 O   0  0  0  0  0  0  0  0  0  0  0  0
    7.6340   -2.6350   26.5890 N   0  0  0  0  0  0  0  0  0  0  0  0
    8.4660   -3.7850   26.6970 C   0  0  2  0  0  0  0  0  0  0  0  0
    9.5110   -3.7030   25.8590 C   0  0  0  0  0  0  0  0  0  0  0  0
   10.3660   -4.5680   26.4080 C   0  0  0  0  0  0  0  0  0  0  0  0
   10.0330   -4.9790   27.8350 C   0  0  0  0  0  0  0  0  0  0  0  0
    7.7720   -4.9620   26.1670 C   0  0  0  0  0  0  0  0  0  0  0  0
    6.4200   -4.7940   26.0300 O   0  0  0  0  0  0  0  0  0  0  0  0
    8.3680   -6.1050   25.8450 O   0  0  0  0  0  0  0  0  0  0  0  0
    9.6060   -6.3720   26.4450 C   0  0  0  0  0  0  0  0  0  0  0  0
    5.6490   -5.0800   23.3460 C   0  0  0  0  0  0  0  0  0  0  0  0
    6.5150   -5.4410   22.1940 C   0  0  0  0  0  0  0  0  0  0  0  0
  1  2  1  0
  2  3  2  0
  2  4  1  0
  4  5  1  0
  5  6  1  0
  6  7  1  0
  7  8  1  0
  8  9  2  0
  8 10  1  0
 10 11  1  0
 11 12  1  0
 12 13  2  0
 12 14  1  0
 14 15  1  0
 15 16  1  6
 16 17  1  0
 17 18  1  0
 15 19  1  0
 19 20  2  0
 19 21  1  0
 21 22  1  0
  7 23  1  0
  4 24  1  0
 23 24  1  0
M  END
