piperidine-amides-1636-covalent
     RDKit          3D

 21 23  0  0  0  0  0  0  0  0999 V2000
    7.0740   -3.3480   19.3900 C   0  0  0  0  0  0  0  0  0  0  0  0
    6.3320   -4.1800   20.3730 C   0  0  0  0  0  0  0  0  0  0  0  0
    5.3430   -4.8180   19.9740 O   0  0  0  0  0  0  0  0  0  0  0  0
    6.7860   -4.2720   21.7130 N   0  0  0  0  0  0  0  0  0  0  0  0
    6.6810   -5.5000   22.4670 C   0  0  0  0  0  0  0  0  0  0  0  0
    6.1260   -5.1710   23.8650 C   0  0  0  0  0  0  0  0  0  0  0  0
    6.0940   -3.6890   24.0150 C   0  0  0  0  0  0  0  0  0  0  0  0
    5.5400   -3.2180   25.3170 C   0  0  0  0  0  0  0  0  0  0  0  0
    4.3070   -3.1550   25.3650 O   0  0  0  0  0  0  0  0  0  0  0  0
    6.3500   -2.8790   26.4120 N   0  0  0  0  0  0  0  0  0  0  0  0
    6.6820   -1.5690   26.8790 C   0  0  2  0  0  0  0  0  0  0  0  0
    7.1390   -1.3700   28.2000 C   0  0  0  0  0  0  0  0  0  0  0  0
    6.6390   -0.4060   29.1330 C   0  0  0  0  0  0  0  0  0  0  0  0
    6.0700    0.7680   28.6730 C   0  0  0  0  0  0  0  0  0  0  0  0
    5.4930    0.6460   27.3380 C   0  0  0  0  0  0  0  0  0  0  0  0
    4.6570    1.5380   26.8070 O   0  0  0  0  0  0  0  0  0  0  0  0
    4.3060    1.1450   25.5930 C   0  0  0  0  0  0  0  0  0  0  0  0
    5.0590   -0.1590   25.4270 C   0  0  0  0  0  0  0  0  0  0  0  0
    5.8440   -0.5420   26.5170 C   0  0  0  0  0  0  0  0  0  0  0  0
    7.3850   -3.0220   23.7070 C   0  0  0  0  0  0  0  0  0  0  0  0
    7.6620   -3.2270   22.2270 C   0  0  0  0  0  0  0  0  0  0  0  0
  1  2  1  0
  2  3  2  0
  2  4  1  0
  4  5  1  0
  5  6  1  0
  6  7  1  0
  7  8  1  0
  8  9  2  0
  8 10  1  0
 11 10  1  1
 11 12  1  0
 12 13  1  0
 13 14  1  0
 14 15  1  0
 15 16  1  0
 16 17  1  0
 17 18  2  0
 11 19  1  0
 15 19  2  0
 18 19  1  0
  7 20  1  0
  4 21  1  0
 20 21  1  0
M  END
