piperidine-amides-27569-covalent
     RDKit          3D

 25 26  0  0  0  0  0  0  0  0999 V2000
    7.0940   -3.2870   19.2160 C   0  0  0  0  0  0  0  0  0  0  0  0
    6.3130   -4.0010   20.2320 C   0  0  0  0  0  0  0  0  0  0  0  0
    5.2300   -4.5110   19.8570 O   0  0  0  0  0  0  0  0  0  0  0  0
    6.7970   -4.1380   21.5310 N   0  0  0  0  0  0  0  0  0  0  0  0
    7.6540   -3.1280   22.1110 C   0  0  0  0  0  0  0  0  0  0  0  0
    7.0440   -2.6800   23.4020 C   0  0  0  0  0  0  0  0  0  0  0  0
    6.6590   -3.8600   24.2430 C   0  0  0  0  0  0  0  0  0  0  0  0
    5.8440   -3.4310   25.4060 C   0  0  0  0  0  0  0  0  0  0  0  0
    4.6050   -3.4770   25.2840 O   0  0  0  0  0  0  0  0  0  0  0  0
    6.3920   -2.9380   26.6170 N   0  0  0  0  0  0  0  0  0  0  0  0
    6.9090   -1.5950   26.5840 C   0  0  0  0  0  0  0  0  0  0  0  0
    5.8520   -3.4340   27.8790 C   0  0  2  0  0  0  0  0  0  0  0  0
    6.4280   -4.5910   28.3540 C   0  0  0  0  0  0  0  0  0  0  0  0
    4.3710   -3.6870   27.7920 C   0  0  0  0  0  0  0  0  0  0  0  0
    3.8390   -2.5140   27.2720 C   0  0  0  0  0  0  0  0  0  0  0  0
    2.4820   -2.4010   27.0590 C   0  0  0  0  0  0  0  0  0  0  0  0
    1.6490   -3.4490   27.3630 C   0  0  0  0  0  0  0  0  0  0  0  0
    2.2310   -4.7200   27.9300 C   0  0  0  0  0  0  0  0  0  0  0  0
    1.1130   -5.7360   28.1890 C   0  0  0  0  0  0  0  0  0  0  0  0
    0.2420   -5.3120   29.1650 F   0  0  0  0  0  0  0  0  0  0  0  0
    1.7280   -6.8880   28.6810 F   0  0  0  0  0  0  0  0  0  0  0  0
    0.4660   -6.1170   27.0420 F   0  0  0  0  0  0  0  0  0  0  0  0
    3.6010   -4.7870   28.1250 C   0  0  0  0  0  0  0  0  0  0  0  0
    5.8550   -4.8640   23.4590 C   0  0  0  0  0  0  0  0  0  0  0  0
    6.5180   -5.3230   22.3410 C   0  0  0  0  0  0  0  0  0  0  0  0
  1  2  1  0
  2  3  2  0
  2  4  1  0
  4  5  1  0
  5  6  1  0
  6  7  1  0
  7  8  1  0
  8  9  2  0
  8 10  1  0
 10 11  1  0
 10 12  1  0
 12 13  1  6
 12 14  1  0
 14 15  2  0
 15 16  1  0
 16 17  2  0
 17 18  1  0
 18 19  1  0
 19 20  1  0
 19 21  1  0
 19 22  1  0
 14 23  1  0
 18 23  2  0
  7 24  1  0
  4 25  1  0
 24 25  1  0
M  END
