piperidine-amides-8289-covalent
     RDKit          3D

 25 26  0  0  0  0  0  0  0  0999 V2000
    7.0930   -3.3030   19.2820 C   0  0  0  0  0  0  0  0  0  0  0  0
    6.3780   -4.1280   20.2540 C   0  0  0  0  0  0  0  0  0  0  0  0
    5.3020   -4.6470   19.9140 O   0  0  0  0  0  0  0  0  0  0  0  0
    6.9290   -4.3780   21.5320 N   0  0  0  0  0  0  0  0  0  0  0  0
    7.6620   -3.3330   22.1820 C   0  0  0  0  0  0  0  0  0  0  0  0
    6.8330   -2.7450   23.2810 C   0  0  0  0  0  0  0  0  0  0  0  0
    6.4410   -3.8970   24.1770 C   0  0  0  0  0  0  0  0  0  0  0  0
    5.6460   -3.3930   25.3420 C   0  0  0  0  0  0  0  0  0  0  0  0
    4.4340   -3.6030   25.3100 O   0  0  0  0  0  0  0  0  0  0  0  0
    6.3110   -2.7330   26.3660 N   0  0  0  0  0  0  0  0  0  0  0  0
    6.8780   -1.4410   26.1690 C   0  0  0  0  0  0  0  0  0  0  0  0
    6.1370   -0.5650   25.3520 C   0  0  0  0  0  0  0  0  0  0  0  0
    4.8430   -0.0830   25.5500 C   0  0  0  0  0  0  0  0  0  0  0  0
    4.1080    0.7990   24.7290 C   0  0  0  0  0  0  0  0  0  0  0  0
    4.7510    1.3130   23.4700 C   0  0  0  0  0  0  0  0  0  0  0  0
    6.1660    0.8280   23.1840 C   0  0  0  0  0  0  0  0  0  0  0  0
    6.7240    1.2520   22.1260 O   0  0  0  0  0  0  0  0  0  0  0  0
    5.9030    1.3550   21.0270 C   0  0  0  0  0  0  0  0  0  0  0  0
    5.4470    0.0410   20.4500 C   0  0  0  0  0  0  0  0  0  0  0  0
    6.2830   -0.3360   19.1930 C   0  0  0  0  0  0  0  0  0  0  0  0
    6.1780    0.5300   18.1400 O   0  0  0  0  0  0  0  0  0  0  0  0
    5.1390    1.4230   17.9330 C   0  0  0  0  0  0  0  0  0  0  0  0
    6.7650   -0.0280   24.0670 C   0  0  0  0  0  0  0  0  0  0  0  0
    5.6700   -4.9560   23.4680 C   0  0  0  0  0  0  0  0  0  0  0  0
    6.4500   -5.4860   22.3000 C   0  0  0  0  0  0  0  0  0  0  0  0
  1  2  1  0
  2  3  2  0
  2  4  1  0
  4  5  1  0
  5  6  1  0
  6  7  1  0
  7  8  1  0
  8  9  2  0
  8 10  1  0
 10 11  1  0
 11 12  1  0
 12 13  2  0
 13 14  1  0
 14 15  2  0
 15 16  1  0
 16 17  1  0
 17 18  1  0
 18 19  1  0
 19 20  1  0
 20 21  1  0
 21 22  1  0
 12 23  1  0
 16 23  2  0
  7 24  1  0
  4 25  1  0
 24 25  1  0
M  END
