piperidine-amides-33592-covalent
     RDKit          3D

 27 29  0  0  0  0  0  0  0  0999 V2000
    7.0490   -3.3430   19.3340 C   0  0  0  0  0  0  0  0  0  0  0  0
    6.3760   -4.1640   20.3560 C   0  0  0  0  0  0  0  0  0  0  0  0
    5.3650   -4.8040   19.9730 O   0  0  0  0  0  0  0  0  0  0  0  0
    6.8590   -4.2870   21.6920 N   0  0  0  0  0  0  0  0  0  0  0  0
    7.7080   -3.2620   22.2170 C   0  0  0  0  0  0  0  0  0  0  0  0
    7.4020   -2.9880   23.5980 C   0  0  0  0  0  0  0  0  0  0  0  0
    6.2100   -3.7400   23.9820 C   0  0  0  0  0  0  0  0  0  0  0  0
    5.6700   -3.3210   25.3320 C   0  0  0  0  0  0  0  0  0  0  0  0
    4.8590   -2.3810   25.3630 O   0  0  0  0  0  0  0  0  0  0  0  0
    5.9900   -3.9280   26.5660 N   0  0  0  0  0  0  0  0  0  0  0  0
    5.7990   -3.3020   27.8170 C   0  0  0  0  0  0  0  0  0  0  0  0
    5.5430   -4.1560   28.9660 C   0  0  0  0  0  0  0  0  0  0  0  0
    5.2800   -5.4680   28.8510 N   0  0  0  0  0  0  0  0  0  0  0  0
    5.0840   -6.4760   29.8860 C   0  0  0  0  0  0  0  0  0  0  0  0
    6.1790   -6.7340   30.6780 O   0  0  0  0  0  0  0  0  0  0  0  0
    3.8750   -7.1590   30.0110 C   0  0  0  0  0  0  0  0  0  0  0  0
    3.9410   -7.5630   31.5290 C   0  0  0  0  0  0  0  0  0  0  0  0
    5.2400   -7.1980   32.6550 Cl  0  0  0  0  0  0  0  0  0  0  0  0
    2.6860   -8.3500   31.9400 C   0  0  0  0  0  0  0  0  0  0  0  0
    1.6150   -8.6090   30.8600 C   0  0  0  0  0  0  0  0  0  0  0  0
    1.7030   -8.1570   29.4540 C   0  0  0  0  0  0  0  0  0  0  0  0
    2.9170   -7.4020   29.0770 C   0  0  0  0  0  0  0  0  0  0  0  0
    3.0870   -6.8370   27.4310 Cl  0  0  0  0  0  0  0  0  0  0  0  0
    6.2520   -5.8260   27.9310 C   0  0  0  0  0  0  0  0  0  0  0  0
    5.8850   -5.3620   26.5610 C   0  0  0  0  0  0  0  0  0  0  0  0
    6.3600   -5.2200   23.7920 C   0  0  0  0  0  0  0  0  0  0  0  0
    6.6100   -5.5020   22.4370 C   0  0  0  0  0  0  0  0  0  0  0  0
  1  2  1  0
  2  3  2  0
  2  4  1  0
  4  5  1  0
  5  6  1  0
  6  7  1  0
  7  8  1  0
  8  9  2  0
  8 10  1  0
 10 11  1  0
 11 12  1  0
 12 13  1  0
 13 14  1  0
 14 15  2  0
 14 16  1  0
 16 17  2  0
 17 18  1  0
 17 19  1  0
 19 20  2  0
 20 21  1  0
 16 22  1  0
 21 22  2  0
 22 23  1  0
 13 24  1  0
 10 25  1  0
 24 25  1  0
  7 26  1  0
  4 27  1  0
 26 27  1  0
M  END
