piperidine-amides-6270-covalent
     RDKit          3D

 26 28  0  0  0  0  0  0  0  0999 V2000
    7.1510   -3.2620   19.2390 C   0  0  0  0  0  0  0  0  0  0  0  0
    6.4050   -4.0610   20.2190 C   0  0  0  0  0  0  0  0  0  0  0  0
    5.3190   -4.5960   19.9040 O   0  0  0  0  0  0  0  0  0  0  0  0
    6.9340   -4.2840   21.4920 N   0  0  0  0  0  0  0  0  0  0  0  0
    7.6890   -3.2310   22.1350 C   0  0  0  0  0  0  0  0  0  0  0  0
    6.8140   -2.7430   23.2820 C   0  0  0  0  0  0  0  0  0  0  0  0
    6.6240   -3.9380   24.1890 C   0  0  0  0  0  0  0  0  0  0  0  0
    5.9160   -3.5100   25.3940 C   0  0  0  0  0  0  0  0  0  0  0  0
    4.7120   -3.1740   25.3110 O   0  0  0  0  0  0  0  0  0  0  0  0
    6.6260   -3.4970   26.6020 N   0  0  0  0  0  0  0  0  0  0  0  0
    6.1670   -4.2630   27.7150 C   0  0  1  0  0  0  0  0  0  0  0  0
    7.2520   -5.2400   28.1560 C   0  0  0  0  0  0  0  0  0  0  0  0
    5.7830   -3.2750   28.7510 C   0  0  0  0  0  0  0  0  0  0  0  0
    4.6400   -3.4070   29.5060 C   0  0  0  0  0  0  0  0  0  0  0  0
    4.2710   -2.4760   30.4750 C   0  0  0  0  0  0  0  0  0  0  0  0
    5.0600   -1.3820   30.7050 C   0  0  0  0  0  0  0  0  0  0  0  0
    4.8790   -0.2450   31.6940 C   0  0  0  0  0  0  0  0  0  0  0  0
    4.4730    0.5820   30.5600 C   0  0  0  0  0  0  0  0  0  0  0  0
    4.2050    1.9970   31.4890 S   0  0  0  0  0  0  0  0  0  0  0  0
    4.6120    1.4130   33.0930 C   0  0  0  0  0  0  0  0  0  0  0  0
    4.5880    2.1570   34.3520 C   0  0  0  0  0  0  0  0  0  0  0  0
    4.9570    0.1280   32.9370 N   0  0  0  0  0  0  0  0  0  0  0  0
    6.2370   -1.2310   29.9410 C   0  0  0  0  0  0  0  0  0  0  0  0
    6.5650   -2.1620   28.9990 C   0  0  0  0  0  0  0  0  0  0  0  0
    5.8230   -5.0320   23.5090 C   0  0  0  0  0  0  0  0  0  0  0  0
    6.5040   -5.4380   22.2280 C   0  0  0  0  0  0  0  0  0  0  0  0
  1  2  1  0
  2  3  2  0
  2  4  1  0
  4  5  1  0
  5  6  1  0
  6  7  1  0
  7  8  1  0
  8  9  2  0
  8 10  1  0
 10 11  1  0
 11 12  1  1
 11 13  1  0
 13 14  2  0
 14 15  1  0
 15 16  2  0
 16 17  1  0
 17 18  2  0
 18 19  1  0
 19 20  1  0
 20 21  1  0
 17 22  1  0
 20 22  2  0
 16 23  1  0
 13 24  1  0
 23 24  2  0
  7 25  1  0
  4 26  1  0
 25 26  1  0
M  END
