piperidine-amides-27773-covalent
     RDKit          3D

 26 28  0  0  0  0  0  0  0  0999 V2000
    7.0630   -3.4080   19.3800 C   0  0  0  0  0  0  0  0  0  0  0  0
    6.3970   -4.2530   20.3900 C   0  0  0  0  0  0  0  0  0  0  0  0
    5.3920   -4.8800   19.9980 O   0  0  0  0  0  0  0  0  0  0  0  0
    6.9270   -4.3700   21.6960 N   0  0  0  0  0  0  0  0  0  0  0  0
    6.6220   -5.5110   22.5150 C   0  0  0  0  0  0  0  0  0  0  0  0
    6.0360   -5.1400   23.8100 C   0  0  0  0  0  0  0  0  0  0  0  0
    6.0260   -3.6760   23.9850 C   0  0  0  0  0  0  0  0  0  0  0  0
    5.1920   -3.1950   25.1260 C   0  0  0  0  0  0  0  0  0  0  0  0
    4.3530   -2.3310   24.8480 O   0  0  0  0  0  0  0  0  0  0  0  0
    5.2570   -3.6260   26.4600 N   0  0  0  0  0  0  0  0  0  0  0  0
    4.0320   -3.8280   27.2510 C   0  0  0  0  0  0  0  0  0  0  0  0
    4.2930   -4.5720   28.5120 C   0  0  0  0  0  0  0  0  0  0  0  0
    5.5890   -4.4150   29.0860 C   0  0  0  0  0  0  0  0  0  0  0  0
    6.5580   -4.1920   28.2250 C   0  0  0  0  0  0  0  0  0  0  0  0
    6.3500   -3.2110   27.2700 C   0  0  2  0  0  0  0  0  0  0  0  0
    6.3250   -1.9060   27.6490 C   0  0  0  0  0  0  0  0  0  0  0  0
    6.7210   -1.5620   28.9150 C   0  0  0  0  0  0  0  0  0  0  0  0
    6.7470   -0.2670   29.4010 C   0  0  0  0  0  0  0  0  0  0  0  0
    6.3620    0.8470   28.6260 C   0  0  0  0  0  0  0  0  0  0  0  0
    6.3890    2.1640   29.0970 N   0  0  0  0  0  0  0  0  0  0  0  0
    6.7500    3.2730   28.1960 C   0  0  0  0  0  0  0  0  0  0  0  0
    6.7510    2.3640   30.4560 C   0  0  0  0  0  0  0  0  0  0  0  0
    5.9310    0.4460   27.2550 C   0  0  0  0  0  0  0  0  0  0  0  0
    5.9330   -0.8780   26.8400 C   0  0  0  0  0  0  0  0  0  0  0  0
    7.3200   -3.0720   23.7050 C   0  0  0  0  0  0  0  0  0  0  0  0
    7.7520   -3.3060   22.2940 C   0  0  0  0  0  0  0  0  0  0  0  0
  1  2  1  0
  2  3  2  0
  2  4  1  0
  4  5  1  0
  5  6  1  0
  6  7  1  0
  7  8  1  0
  8  9  2  0
  8 10  1  0
 10 11  1  0
 11 12  1  0
 12 13  1  0
 13 14  1  0
 10 15  1  0
 14 15  1  0
 15 16  1  1
 16 17  2  0
 17 18  1  0
 18 19  2  0
 19 20  1  0
 20 21  1  0
 20 22  1  0
 19 23  1  0
 16 24  1  0
 23 24  2  0
  7 25  1  0
  4 26  1  0
 25 26  1  0
M  END
