piperidine-amides-6884-covalent
     RDKit          3D

 22 22  0  0  0  0  0  0  0  0999 V2000
    7.1170   -3.2360   19.1410 C   0  0  0  0  0  0  0  0  0  0  0  0
    6.3330   -3.9690   20.1510 C   0  0  0  0  0  0  0  0  0  0  0  0
    5.2450   -4.5030   19.8590 O   0  0  0  0  0  0  0  0  0  0  0  0
    6.8370   -4.1230   21.4370 N   0  0  0  0  0  0  0  0  0  0  0  0
    6.4960   -5.3070   22.1930 C   0  0  0  0  0  0  0  0  0  0  0  0
    5.6960   -4.8240   23.4020 C   0  0  0  0  0  0  0  0  0  0  0  0
    6.6470   -3.9560   24.1890 C   0  0  0  0  0  0  0  0  0  0  0  0
    6.0320   -3.5130   25.4460 C   0  0  0  0  0  0  0  0  0  0  0  0
    4.7940   -3.2360   25.5130 O   0  0  0  0  0  0  0  0  0  0  0  0
    6.9120   -3.4160   26.5500 N   0  0  0  0  0  0  0  0  0  0  0  0
    7.3730   -4.6230   27.1900 C   0  0  0  0  0  0  0  0  0  0  0  0
    8.5170   -5.1810   26.3620 C   0  0  0  0  0  0  0  0  0  0  0  0
    7.9140   -4.2190   28.4850 C   0  0  0  0  0  0  0  0  0  0  0  0
    6.2740   -5.5670   27.4050 C   0  0  0  0  0  0  0  0  0  0  0  0
    5.7360   -6.1780   26.2880 O   0  0  0  0  0  0  0  0  0  0  0  0
    5.7610   -5.8240   28.7100 N   0  0  0  0  0  0  0  0  0  0  0  0
    4.9300   -7.2570   28.9270 S   0  0  0  0  0  0  0  0  0  0  0  0
    3.6510   -7.2020   30.1350 C   0  0  0  0  0  0  0  0  0  0  0  0
    4.2390   -7.6080   27.6400 O   0  0  0  0  0  0  0  0  0  0  0  0
    5.8470   -8.3570   29.3470 O   0  0  0  0  0  0  0  0  0  0  0  0
    7.1470   -2.7810   23.4400 C   0  0  0  0  0  0  0  0  0  0  0  0
    7.6240   -3.0850   22.0560 C   0  0  0  0  0  0  0  0  0  0  0  0
  1  2  1  0
  2  3  2  0
  2  4  1  0
  4  5  1  0
  5  6  1  0
  6  7  1  0
  7  8  1  0
  8  9  2  0
  8 10  1  0
 10 11  1  0
 11 12  1  0
 11 13  1  0
 11 14  1  0
 14 15  2  0
 14 16  1  0
 17 16  1  0
 17 18  1  0
 17 19  2  0
 17 20  2  0
  7 21  1  0
  4 22  1  0
 21 22  1  0
M  END
