piperidine-amides-8407-covalent
     RDKit          3D

 24 25  0  0  0  0  0  0  0  0999 V2000
    7.0880   -3.3130   19.2970 C   0  0  0  0  0  0  0  0  0  0  0  0
    6.3460   -4.0900   20.2860 C   0  0  0  0  0  0  0  0  0  0  0  0
    5.2860   -4.6250   19.9130 O   0  0  0  0  0  0  0  0  0  0  0  0
    6.8540   -4.2680   21.6010 N   0  0  0  0  0  0  0  0  0  0  0  0
    6.4230   -5.4100   22.3480 C   0  0  0  0  0  0  0  0  0  0  0  0
    5.5600   -4.9370   23.4810 C   0  0  0  0  0  0  0  0  0  0  0  0
    6.4100   -4.0190   24.3330 C   0  0  0  0  0  0  0  0  0  0  0  0
    5.6020   -3.5320   25.5190 C   0  0  0  0  0  0  0  0  0  0  0  0
    4.4810   -3.1190   25.2330 O   0  0  0  0  0  0  0  0  0  0  0  0
    6.1210   -3.5510   26.8320 N   0  0  0  0  0  0  0  0  0  0  0  0
    6.1570   -4.7210   27.6850 C   0  0  0  0  0  0  0  0  0  0  0  0
    5.0170   -5.0550   28.4390 C   0  0  0  0  0  0  0  0  0  0  0  0
    3.7620   -4.4420   28.4740 C   0  0  0  0  0  0  0  0  0  0  0  0
    2.6360   -4.8120   29.2460 C   0  0  0  0  0  0  0  0  0  0  0  0
    2.7480   -5.9980   30.1560 C   0  0  0  0  0  0  0  0  0  0  0  0
    4.0860   -6.7240   30.1810 C   0  0  0  0  0  0  0  0  0  0  0  0
    4.1710   -7.7240   30.9580 O   0  0  0  0  0  0  0  0  0  0  0  0
    4.3280   -7.3950   32.2810 C   0  0  0  0  0  0  0  0  0  0  0  0
    3.7220   -6.0520   32.5710 C   0  0  0  0  0  0  0  0  0  0  0  0
    3.8770   -8.3900   33.1200 C   0  0  0  0  0  0  0  0  0  0  0  0
    5.7060   -7.4340   32.3580 C   0  0  0  0  0  0  0  0  0  0  0  0
    5.1050   -6.2600   29.3760 C   0  0  0  0  0  0  0  0  0  0  0  0
    6.9220   -2.8410   23.5620 C   0  0  0  0  0  0  0  0  0  0  0  0
    7.6010   -3.2340   22.2750 C   0  0  0  0  0  0  0  0  0  0  0  0
  1  2  1  0
  2  3  2  0
  2  4  1  0
  4  5  1  0
  5  6  1  0
  6  7  1  0
  7  8  1  0
  8  9  2  0
  8 10  1  0
 10 11  1  0
 11 12  1  0
 12 13  2  0
 13 14  1  0
 14 15  2  0
 15 16  1  0
 16 17  1  0
 18 17  1  0
 18 19  1  0
 18 20  1  0
 18 21  1  0
 12 22  1  0
 16 22  2  0
  7 23  1  0
  4 24  1  0
 23 24  1  0
M  END
