piperidine-amides-33029-covalent
     RDKit          3D

 29 31  0  0  0  0  0  0  0  0999 V2000
    7.1030   -3.3080   19.3230 C   0  0  0  0  0  0  0  0  0  0  0  0
    6.3300   -4.0880   20.3280 C   0  0  0  0  0  0  0  0  0  0  0  0
    5.3080   -4.6820   19.9380 O   0  0  0  0  0  0  0  0  0  0  0  0
    6.7900   -4.1840   21.6680 N   0  0  0  0  0  0  0  0  0  0  0  0
    6.5480   -5.3770   22.4500 C   0  0  0  0  0  0  0  0  0  0  0  0
    6.0450   -4.9560   23.8430 C   0  0  0  0  0  0  0  0  0  0  0  0
    5.9310   -3.4670   23.8690 C   0  0  0  0  0  0  0  0  0  0  0  0
    5.1910   -2.9280   25.0570 C   0  0  0  0  0  0  0  0  0  0  0  0
    3.9860   -3.1890   25.0560 O   0  0  0  0  0  0  0  0  0  0  0  0
    5.7710   -2.1980   26.1140 N   0  0  0  0  0  0  0  0  0  0  0  0
    5.4070   -0.8720   26.4680 C   0  0  0  0  0  0  0  0  0  0  0  0
    5.8270    0.2880   25.8610 C   0  0  0  0  0  0  0  0  0  0  0  0
    6.0520    0.3040   24.4550 C   0  0  0  0  0  0  0  0  0  0  0  0
    6.4730    1.4260   23.7680 C   0  0  0  0  0  0  0  0  0  0  0  0
    6.6440    1.2760   22.4200 F   0  0  0  0  0  0  0  0  0  0  0  0
    6.7190    2.6990   24.4620 C   0  0  0  0  0  0  0  0  0  0  0  0
    6.5030    2.7760   25.9550 C   0  0  0  0  0  0  0  0  0  0  0  0
    6.0390    1.4540   26.5650 C   0  0  0  0  0  0  0  0  0  0  0  0
    5.8370    1.5250   27.9380 F   0  0  0  0  0  0  0  0  0  0  0  0
    6.3490   -3.0210   27.0880 C   0  0  0  0  0  0  0  0  0  0  0  0
    5.4330   -3.8090   27.9540 C   0  0  0  0  0  0  0  0  0  0  0  0
    4.1880   -3.1800   28.3870 C   0  0  0  0  0  0  0  0  0  0  0  0
    3.4380   -3.9830   29.1680 N   0  0  0  0  0  0  0  0  0  0  0  0
    4.1710   -5.1550   29.2660 N   0  0  0  0  0  0  0  0  0  0  0  0
    3.6160   -6.2260   30.0570 C   0  0  0  0  0  0  0  0  0  0  0  0
    5.3590   -5.1780   28.5990 C   0  0  0  0  0  0  0  0  0  0  0  0
    6.3850   -6.2820   28.5040 C   0  0  0  0  0  0  0  0  0  0  0  0
    7.2900   -2.8380   23.6760 C   0  0  0  0  0  0  0  0  0  0  0  0
    7.6160   -3.1060   22.2440 C   0  0  0  0  0  0  0  0  0  0  0  0
  1  2  1  0
  2  3  2  0
  2  4  1  0
  4  5  1  0
  5  6  1  0
  6  7  1  0
  7  8  1  0
  8  9  2  0
  8 10  1  0
 10 11  1  0
 11 12  1  0
 12 13  2  0
 13 14  1  0
 14 15  1  0
 14 16  2  0
 16 17  1  0
 12 18  1  0
 17 18  2  0
 18 19  1  0
 10 20  1  0
 20 21  1  0
 21 22  1  0
 22 23  2  0
 23 24  1  0
 24 25  1  0
 21 26  2  0
 24 26  1  0
 26 27  1  0
  7 28  1  0
  4 29  1  0
 28 29  1  0
M  END
