piperidine-amides-25691-covalent
     RDKit          3D

 25 27  0  0  0  0  0  0  0  0999 V2000
    7.1000   -3.3230   19.2940 C   0  0  0  0  0  0  0  0  0  0  0  0
    6.4170   -4.1930   20.2830 C   0  0  0  0  0  0  0  0  0  0  0  0
    5.3580   -4.7120   19.9420 O   0  0  0  0  0  0  0  0  0  0  0  0
    7.0150   -4.4380   21.5170 N   0  0  0  0  0  0  0  0  0  0  0  0
    6.6660   -5.5990   22.2850 C   0  0  0  0  0  0  0  0  0  0  0  0
    5.8010   -5.1510   23.4200 C   0  0  0  0  0  0  0  0  0  0  0  0
    6.4380   -3.9390   24.0990 C   0  0  0  0  0  0  0  0  0  0  0  0
    5.4610   -3.3670   25.0260 C   0  0  0  0  0  0  0  0  0  0  0  0
    4.6240   -2.5600   24.6220 O   0  0  0  0  0  0  0  0  0  0  0  0
    5.4570   -3.7310   26.3630 N   0  0  0  0  0  0  0  0  0  0  0  0
    6.4460   -3.1500   27.1660 C   0  0  0  0  0  0  0  0  0  0  0  0
    6.6830   -4.1670   28.2640 C   0  0  0  0  0  0  0  0  0  0  0  0
    5.8680   -4.1410   29.3160 C   0  0  0  0  0  0  0  0  0  0  0  0
    5.4920   -2.9060   29.7610 C   0  0  0  0  0  0  0  0  0  0  0  0
    4.3810   -2.3640   30.2860 C   0  0  0  0  0  0  0  0  0  0  0  0
    4.1280   -0.9390   30.7530 C   0  0  0  0  0  0  0  0  0  0  0  0
    5.3550   -0.0430   30.5810 C   0  0  0  0  0  0  0  0  0  0  0  0
    6.6330   -0.6270   29.9850 C   0  0  0  0  0  0  0  0  0  0  0  0
    7.6350    0.3210   29.9240 O   0  0  0  0  0  0  0  0  0  0  0  0
    8.4340    0.5030   31.0690 C   0  0  0  0  0  0  0  0  0  0  0  0
    6.7300   -2.0580   29.5540 C   0  0  0  0  0  0  0  0  0  0  0  0
    4.7840   -4.7490   28.5230 C   0  0  0  0  0  0  0  0  0  0  0  0
    4.4310   -4.0180   27.2920 C   0  0  0  0  0  0  0  0  0  0  0  0
    6.8480   -2.8470   23.1260 C   0  0  0  0  0  0  0  0  0  0  0  0
    7.7190   -3.3830   22.2210 C   0  0  0  0  0  0  0  0  0  0  0  0
  1  2  1  0
  2  3  2  0
  2  4  1  0
  4  5  1  0
  5  6  1  0
  6  7  1  0
  7  8  1  0
  8  9  2  0
  8 10  1  0
 10 11  1  0
 11 12  1  0
 12 13  1  0
 13 14  1  0
 14 15  2  0
 15 16  1  0
 16 17  2  0
 17 18  1  0
 18 19  1  0
 19 20  1  0
 14 21  1  0
 18 21  2  0
 13 22  1  0
 10 23  1  0
 22 23  1  0
  7 24  1  0
  4 25  1  0
 24 25  1  0
M  END
