piperidine-amides-9858-covalent
     RDKit          3D

 27 29  0  0  0  0  0  0  0  0999 V2000
    7.1130   -3.2950   19.2520 C   0  0  0  0  0  0  0  0  0  0  0  0
    6.3320   -4.0250   20.2560 C   0  0  0  0  0  0  0  0  0  0  0  0
    5.2490   -4.5310   19.8730 O   0  0  0  0  0  0  0  0  0  0  0  0
    6.8210   -4.1760   21.5510 N   0  0  0  0  0  0  0  0  0  0  0  0
    7.7070   -3.1890   22.1260 C   0  0  0  0  0  0  0  0  0  0  0  0
    7.3270   -3.0100   23.5580 C   0  0  0  0  0  0  0  0  0  0  0  0
    5.9830   -3.6250   23.8460 C   0  0  0  0  0  0  0  0  0  0  0  0
    5.6200   -3.3320   25.2360 C   0  0  0  0  0  0  0  0  0  0  0  0
    4.4140   -3.3430   25.5640 O   0  0  0  0  0  0  0  0  0  0  0  0
    6.5950   -3.0340   26.1840 N   0  0  0  0  0  0  0  0  0  0  0  0
    6.2970   -2.8650   27.5710 C   0  0  0  0  0  0  0  0  0  0  0  0
    6.8840   -1.5480   28.0500 C   0  0  0  0  0  0  0  0  0  0  0  0
    7.2290   -0.5530   27.1660 C   0  0  0  0  0  0  0  0  0  0  0  0
    7.7640    0.6490   27.5520 C   0  0  0  0  0  0  0  0  0  0  0  0
    7.9680    0.8720   28.8900 C   0  0  0  0  0  0  0  0  0  0  0  0
    7.6450   -0.0830   29.8260 C   0  0  0  0  0  0  0  0  0  0  0  0
    7.8460    0.1240   31.1940 O   0  0  0  0  0  0  0  0  0  0  0  0
    8.8970    0.9850   31.5930 C   0  0  0  0  0  0  0  0  0  0  0  0
    9.9720    1.3610   30.5640 C   0  0  0  0  0  0  0  0  0  0  0  0
   11.0610    2.2980   31.0690 C   0  0  0  0  0  0  0  0  0  0  0  0
   10.9790    2.7450   32.4880 C   0  0  0  0  0  0  0  0  0  0  0  0
    9.8880    2.3130   33.4150 C   0  0  0  0  0  0  0  0  0  0  0  0
    8.9160    1.4630   32.9150 C   0  0  0  0  0  0  0  0  0  0  0  0
    7.5980    0.9120   33.9450 Cl  0  0  0  0  0  0  0  0  0  0  0  0
    7.1120   -1.2590   29.3600 C   0  0  0  0  0  0  0  0  0  0  0  0
    6.0250   -5.1080   23.6340 C   0  0  0  0  0  0  0  0  0  0  0  0
    6.5870   -5.4300   22.2450 C   0  0  0  0  0  0  0  0  0  0  0  0
  1  2  1  0
  2  3  2  0
  2  4  1  0
  4  5  1  0
  5  6  1  0
  6  7  1  0
  7  8  1  0
  8  9  2  0
  8 10  1  0
 10 11  1  0
 11 12  1  0
 12 13  2  0
 13 14  1  0
 14 15  2  0
 15 16  1  0
 16 17  1  0
 17 18  1  0
 18 19  2  0
 19 20  1  0
 20 21  2  0
 21 22  1  0
 18 23  1  0
 22 23  2  0
 23 24  1  0
 12 25  1  0
 16 25  2  0
  7 26  1  0
  4 27  1  0
 26 27  1  0
M  END
