piperidine-amides-34877-covalent
     RDKit          3D

 31 35  0  0  0  0  0  0  0  0999 V2000
    6.9600   -3.3580   19.4790 C   0  0  0  0  0  0  0  0  0  0  0  0
    6.3300   -4.2730   20.4750 C   0  0  0  0  0  0  0  0  0  0  0  0
    5.4520   -5.0130   20.0200 O   0  0  0  0  0  0  0  0  0  0  0  0
    6.7380   -4.2910   21.8330 N   0  0  0  0  0  0  0  0  0  0  0  0
    7.5920   -3.2650   22.4000 C   0  0  0  0  0  0  0  0  0  0  0  0
    7.1160   -2.9210   23.7910 C   0  0  0  0  0  0  0  0  0  0  0  0
    5.7570   -3.5960   23.9890 C   0  0  0  0  0  0  0  0  0  0  0  0
    4.9900   -3.0440   25.1930 C   0  0  0  0  0  0  0  0  0  0  0  0
    4.2090   -2.1270   24.9740 O   0  0  0  0  0  0  0  0  0  0  0  0
    5.0870   -3.4830   26.5510 N   0  0  0  0  0  0  0  0  0  0  0  0
    6.2760   -4.0820   26.7230 C   0  0  0  0  0  0  0  0  0  0  0  0
    6.4350   -4.5600   28.1530 C   0  0  0  0  0  0  0  0  0  0  0  0
    5.3350   -4.6790   28.8770 C   0  0  0  0  0  0  0  0  0  0  0  0
    4.3850   -3.7240   28.7330 C   0  0  0  0  0  0  0  0  0  0  0  0
    4.7450   -2.8040   27.7500 C   0  0  0  0  0  0  0  0  0  0  0  0
    4.7530   -5.9640   28.6230 C   0  0  0  0  0  0  0  0  0  0  0  0
    5.1450   -5.6780   30.0500 C   0  0  2  0  0  0  0  0  0  0  0  0
    3.8320   -4.9620   30.3230 C   0  0  0  0  0  0  0  0  0  0  0  0
    3.6680   -3.8570   30.9620 N   0  0  0  0  0  0  0  0  0  0  0  0
    2.2210   -3.6990   30.9000 C   0  0  0  0  0  0  0  0  0  0  0  0
    1.5060   -2.5350   31.5070 C   0  0  0  0  0  0  0  0  0  0  0  0
    2.1240   -1.3290   32.1820 C   0  0  0  0  0  0  0  0  0  0  0  0
    1.2250   -0.2860   32.7130 C   0  0  0  0  0  0  0  0  0  0  0  0
   -0.2640   -0.4250   32.5820 C   0  0  0  0  0  0  0  0  0  0  0  0
   -0.8180   -1.5320   31.9630 C   0  0  0  0  0  0  0  0  0  0  0  0
   -2.5730   -1.6370   31.8400 Cl  0  0  0  0  0  0  0  0  0  0  0  0
    0.1200   -2.6060   31.4170 C   0  0  0  0  0  0  0  0  0  0  0  0
    1.7550   -4.7820   30.2100 N   0  0  0  0  0  0  0  0  0  0  0  0
    2.7000   -5.5820   29.8370 O   0  0  0  0  0  0  0  0  0  0  0  0
    5.8510   -5.1290   23.9610 C   0  0  0  0  0  0  0  0  0  0  0  0
    6.4850   -5.5120   22.5950 C   0  0  0  0  0  0  0  0  0  0  0  0
  1  2  1  0
  2  3  2  0
  2  4  1  0
  4  5  1  0
  5  6  1  0
  6  7  1  0
  7  8  1  0
  8  9  2  0
  8 10  1  0
 10 11  1  0
 11 12  1  0
 13 12  1  0
 13 14  1  0
 10 15  1  0
 14 15  1  0
 13 16  1  0
 13 17  1  0
 16 17  1  0
 17 18  1  1
 18 19  2  0
 19 20  1  0
 20 21  1  0
 21 22  2  0
 22 23  1  0
 23 24  2  0
 24 25  1  0
 25 26  1  0
 21 27  1  0
 25 27  2  0
 20 28  2  0
 18 29  1  0
 28 29  1  0
  7 30  1  0
  4 31  1  0
 30 31  1  0
M  END
