piperidine-amides-7233-covalent
     RDKit          3D

 21 21  0  0  0  0  0  0  0  0999 V2000
    7.1450   -3.2790   19.2270 C   0  0  0  0  0  0  0  0  0  0  0  0
    6.3810   -3.9960   20.2520 C   0  0  0  0  0  0  0  0  0  0  0  0
    5.2960   -4.5150   19.8780 O   0  0  0  0  0  0  0  0  0  0  0  0
    6.8830   -4.1270   21.5540 N   0  0  0  0  0  0  0  0  0  0  0  0
    6.7140   -5.3490   22.2960 C   0  0  0  0  0  0  0  0  0  0  0  0
    6.4260   -4.9600   23.7210 C   0  0  0  0  0  0  0  0  0  0  0  0
    6.1770   -3.4820   23.8380 C   0  0  0  0  0  0  0  0  0  0  0  0
    5.7290   -3.0610   25.1900 C   0  0  0  0  0  0  0  0  0  0  0  0
    4.8220   -2.2060   25.2610 O   0  0  0  0  0  0  0  0  0  0  0  0
    6.2440   -3.5600   26.3980 N   0  0  0  0  0  0  0  0  0  0  0  0
    5.5800   -4.6290   27.1050 C   0  0  0  0  0  0  0  0  0  0  0  0
    5.5640   -5.9500   26.3300 C   0  0  0  0  0  0  0  0  0  0  0  0
    3.9150   -6.4950   25.7950 S   0  0  0  0  0  0  0  0  0  0  0  0
    2.9440   -6.2730   26.8980 O   0  0  0  0  0  0  0  0  0  0  0  0
    3.9380   -7.9180   25.3390 O   0  0  0  0  0  0  0  0  0  0  0  0
    3.3480   -5.6820   24.2890 C   0  0  0  0  0  0  0  0  0  0  0  0
    3.9810   -6.4070   23.2960 C   0  0  0  0  0  0  0  0  0  0  0  0
    1.9960   -5.6160   24.0410 C   0  0  0  0  0  0  0  0  0  0  0  0
    3.6280   -4.3530   24.4490 C   0  0  0  0  0  0  0  0  0  0  0  0
    7.4250   -2.7040   23.4980 C   0  0  0  0  0  0  0  0  0  0  0  0
    7.7360   -3.0320   22.0590 C   0  0  0  0  0  0  0  0  0  0  0  0
  1  2  1  0
  2  3  2  0
  2  4  1  0
  4  5  1  0
  5  6  1  0
  6  7  1  0
  7  8  1  0
  8  9  2  0
  8 10  1  0
 10 11  1  0
 11 12  1  0
 13 12  1  0
 13 14  2  0
 13 15  2  0
 13 16  1  0
 16 17  1  0
 16 18  1  0
 16 19  1  0
  7 20  1  0
  4 21  1  0
 20 21  1  0
M  END
