piperidine-amides-1100-covalent
     RDKit          3D

 23 25  0  0  0  0  0  0  0  0999 V2000
    7.0620   -3.3550   19.3280 C   0  0  0  0  0  0  0  0  0  0  0  0
    6.3330   -4.1710   20.3380 C   0  0  0  0  0  0  0  0  0  0  0  0
    5.3560   -4.8470   19.9770 O   0  0  0  0  0  0  0  0  0  0  0  0
    6.8060   -4.1780   21.6670 N   0  0  0  0  0  0  0  0  0  0  0  0
    7.7060   -3.1360   22.1230 C   0  0  0  0  0  0  0  0  0  0  0  0
    7.6120   -3.0530   23.6360 C   0  0  0  0  0  0  0  0  0  0  0  0
    6.2370   -3.4780   23.9910 C   0  0  0  0  0  0  0  0  0  0  0  0
    5.9050   -3.0870   25.3810 C   0  0  0  0  0  0  0  0  0  0  0  0
    4.8410   -3.5090   25.8570 O   0  0  0  0  0  0  0  0  0  0  0  0
    6.8260   -2.2400   26.0430 N   0  0  0  0  0  0  0  0  0  0  0  0
    6.7750   -1.5960   27.3260 C   0  0  0  0  0  0  0  0  0  0  0  0
    6.3610   -0.3380   28.0290 C   0  0  0  0  0  0  0  0  0  0  0  0
    5.8100    0.6010   27.1880 N   0  0  0  0  0  0  0  0  0  0  0  0
    6.0910   -0.3630   26.4570 C   0  0  0  0  0  0  0  0  0  0  0  0
    5.5200    0.5090   25.3820 C   0  0  0  0  0  0  0  0  0  0  0  0
    6.0520   -0.6390   25.6130 C   0  0  0  0  0  0  0  0  0  0  0  0
    5.7580    0.5630   26.7880 C   0  0  0  0  0  0  0  0  0  0  0  0
    6.1250    0.3490   28.2660 C   0  0  0  0  0  0  0  0  0  0  0  0
    6.5200   -0.7380   27.9160 C   0  0  0  0  0  0  0  0  0  0  0  0
    7.1700   -2.0150   28.4980 C   0  0  0  0  0  0  0  0  0  0  0  0
    7.7570   -3.5980   28.0430 Cl  0  0  0  0  0  0  0  0  0  0  0  0
    5.9660   -4.9260   23.7150 C   0  0  0  0  0  0  0  0  0  0  0  0
    6.5770   -5.3090   22.5390 C   0  0  0  0  0  0  0  0  0  0  0  0
  1  2  1  0
  2  3  2  0
  2  4  1  0
  4  5  1  0
  5  6  1  0
  6  7  1  0
  7  8  1  0
  8  9  2  0
  8 10  1  0
 10 11  1  0
 11 12  2  0
 12 13  1  0
 13 14  2  0
 14 15  1  0
 15 16  2  0
 16 17  1  0
 17 18  2  0
 14 19  1  0
 18 19  1  0
 11 20  1  0
 19 20  2  0
 20 21  1  0
  7 22  1  0
  4 23  1  0
 22 23  1  0
M  END
