piperidine-amides-19752-covalent
     RDKit          3D

 22 25  0  0  0  0  0  0  0  0999 V2000
    7.1070   -3.3160   19.2660 C   0  0  0  0  0  0  0  0  0  0  0  0
    6.4170   -4.1460   20.2840 C   0  0  0  0  0  0  0  0  0  0  0  0
    5.3760   -4.7120   19.9460 O   0  0  0  0  0  0  0  0  0  0  0  0
    6.9840   -4.2950   21.5500 N   0  0  0  0  0  0  0  0  0  0  0  0
    6.6850   -5.4340   22.3700 C   0  0  0  0  0  0  0  0  0  0  0  0
    6.0530   -4.9480   23.6440 C   0  0  0  0  0  0  0  0  0  0  0  0
    6.8380   -3.7640   24.2470 C   0  0  0  0  0  0  0  0  0  0  0  0
    6.0130   -3.2550   25.3480 C   0  0  0  0  0  0  0  0  0  0  0  0
    4.8310   -2.9550   25.1170 O   0  0  0  0  0  0  0  0  0  0  0  0
    6.5040   -3.1020   26.6550 N   0  0  0  0  0  0  0  0  0  0  0  0
    5.5960   -3.6270   27.6310 C   0  0  0  0  0  0  0  0  0  0  0  0
    6.6660   -4.3650   28.2380 C   0  0  2  0  0  0  0  0  0  0  0  0
    6.7820   -5.7030   28.1450 C   0  0  0  0  0  0  0  0  0  0  0  0
    5.6770   -6.1200   28.8050 C   0  0  0  0  0  0  0  0  0  0  0  0
    5.5080   -5.2500   29.8290 C   0  0  0  0  0  0  0  0  0  0  0  0
    6.3890   -4.2400   29.5600 O   0  0  0  0  0  0  0  0  0  0  0  0
    7.6950   -3.5770   27.4730 C   0  0  1  0  0  0  0  0  0  0  0  0
    7.9770   -5.0280   27.6960 C   0  0  0  0  0  0  0  0  0  0  0  0
    7.5240   -5.6510   26.5490 C   0  0  0  0  0  0  0  0  0  0  0  0
    9.0520   -5.6570   26.7390 C   0  0  0  0  0  0  0  0  0  0  0  0
    7.1310   -2.6560   23.2830 C   0  0  0  0  0  0  0  0  0  0  0  0
    7.8180   -3.2410   22.0850 C   0  0  0  0  0  0  0  0  0  0  0  0
  1  2  1  0
  2  3  2  0
  2  4  1  0
  4  5  1  0
  5  6  1  0
  6  7  1  0
  7  8  1  0
  8  9  2  0
  8 10  1  0
 10 11  1  0
 12 11  1  6
 12 13  1  0
 13 14  1  0
 14 15  1  0
 12 16  1  0
 15 16  1  0
 10 17  1  0
 12 17  1  0
 17 18  1  6
 18 19  1  0
 18 20  1  0
 19 20  1  0
  7 21  1  0
  4 22  1  0
 21 22  1  0
M  END
