piperidine-amides-11383-covalent
     RDKit          3D

 21 23  0  0  0  0  0  0  0  0999 V2000
    7.0920   -3.2860   19.2510 C   0  0  0  0  0  0  0  0  0  0  0  0
    6.3600   -4.0430   20.2730 C   0  0  0  0  0  0  0  0  0  0  0  0
    5.3440   -4.6760   19.9360 O   0  0  0  0  0  0  0  0  0  0  0  0
    6.8060   -4.1020   21.6100 N   0  0  0  0  0  0  0  0  0  0  0  0
    7.7430   -3.1280   22.1370 C   0  0  0  0  0  0  0  0  0  0  0  0
    7.4540   -3.0260   23.6070 C   0  0  0  0  0  0  0  0  0  0  0  0
    6.1010   -3.5740   23.9150 C   0  0  0  0  0  0  0  0  0  0  0  0
    5.6210   -3.2800   25.2880 C   0  0  0  0  0  0  0  0  0  0  0  0
    4.3880   -3.3690   25.5570 O   0  0  0  0  0  0  0  0  0  0  0  0
    6.4710   -2.8930   26.3430 N   0  0  0  0  0  0  0  0  0  0  0  0
    6.5400   -1.4830   26.7740 C   0  0  0  0  0  0  0  0  0  0  0  0
    5.6700   -1.3330   27.9620 C   0  0  1  0  0  0  0  0  0  0  0  0
    6.2120   -1.6630   29.2470 C   0  0  0  0  0  0  0  0  0  0  0  0
    6.0600   -0.2460   29.6760 C   0  0  1  0  0  0  0  0  0  0  0  0
    5.1270   -0.0250   30.8270 C   0  0  0  0  0  0  0  0  0  0  0  0
    6.3260    0.6920   31.4290 C   0  0  0  0  0  0  0  0  0  0  0  0
    7.1300    0.4110   30.2720 N   0  0  0  0  0  0  0  0  0  0  0  0
    8.1380   -0.4440   30.5250 C   0  0  0  0  0  0  0  0  0  0  0  0
    5.4720    0.1330   28.2910 C   0  0  0  0  0  0  0  0  0  0  0  0
    6.0080   -5.0870   23.6810 C   0  0  0  0  0  0  0  0  0  0  0  0
    6.6400   -5.3670   22.3050 C   0  0  0  0  0  0  0  0  0  0  0  0
  1  2  1  0
  2  3  2  0
  2  4  1  0
  4  5  1  0
  5  6  1  0
  6  7  1  0
  7  8  1  0
  8  9  2  0
  8 10  1  0
 10 11  1  0
 12 11  1  6
 12 13  1  0
 14 13  1  6
 14 15  1  0
 15 16  1  0
 14 17  1  0
 16 17  1  0
 17 18  1  0
 12 19  1  0
 14 19  1  0
  7 20  1  0
  4 21  1  0
 20 21  1  0
M  END
