piperidine-amides-32954-covalent
     RDKit          3D

 23 24  0  0  0  0  0  0  0  0999 V2000
    7.0880   -3.2790   19.2390 C   0  0  0  0  0  0  0  0  0  0  0  0
    6.3590   -4.0850   20.2550 C   0  0  0  0  0  0  0  0  0  0  0  0
    5.3150   -4.6700   19.9290 O   0  0  0  0  0  0  0  0  0  0  0  0
    6.8990   -4.2080   21.5520 N   0  0  0  0  0  0  0  0  0  0  0  0
    7.7380   -3.2130   22.1680 C   0  0  0  0  0  0  0  0  0  0  0  0
    6.9350   -2.5980   23.3120 C   0  0  0  0  0  0  0  0  0  0  0  0
    6.4990   -3.7060   24.2120 C   0  0  0  0  0  0  0  0  0  0  0  0
    5.6690   -3.2430   25.3590 C   0  0  0  0  0  0  0  0  0  0  0  0
    4.5070   -2.9500   25.0580 O   0  0  0  0  0  0  0  0  0  0  0  0
    6.1260   -3.1450   26.6980 N   0  0  0  0  0  0  0  0  0  0  0  0
    5.7450   -4.1520   27.6460 C   0  0  0  0  0  0  0  0  0  0  0  0
    6.5250   -5.1010   28.2690 C   0  0  0  0  0  0  0  0  0  0  0  0
    6.6300   -6.1730   27.2870 O   0  0  0  0  0  0  0  0  0  0  0  0
    6.0540   -1.9340   27.4720 C   0  0  1  0  0  0  0  0  0  0  0  0
    6.9880   -1.8020   28.4730 C   0  0  0  0  0  0  0  0  0  0  0  0
    6.0970   -0.7350   26.5920 C   0  0  0  0  0  0  0  0  0  0  0  0
    6.0440    0.6890   27.1170 C   0  0  0  0  0  0  0  0  0  0  0  0
    6.1010    1.6890   25.9830 C   0  0  0  0  0  0  0  0  0  0  0  0
    6.1890    1.2140   24.6920 C   0  0  0  0  0  0  0  0  0  0  0  0
    6.2730    2.3740   23.1740 Br  0  0  0  0  0  0  0  0  0  0  0  0
    6.2020   -0.5050   24.8250 S   0  0  0  0  0  0  0  0  0  0  0  0
    5.7440   -4.8100   23.5250 C   0  0  0  0  0  0  0  0  0  0  0  0
    6.5330   -5.3470   22.3470 C   0  0  0  0  0  0  0  0  0  0  0  0
  1  2  1  0
  2  3  2  0
  2  4  1  0
  4  5  1  0
  5  6  1  0
  6  7  1  0
  7  8  1  0
  8  9  2  0
  8 10  1  0
 10 11  1  0
 11 12  1  0
 12 13  1  0
 10 14  1  0
 14 15  1  1
 14 16  1  0
 16 17  2  0
 17 18  1  0
 18 19  2  0
 19 20  1  0
 16 21  1  0
 19 21  1  0
  7 22  1  0
  4 23  1  0
 22 23  1  0
M  END
