piperidine-amides-13685-covalent
     RDKit          3D

 28 30  0  0  0  0  0  0  0  0999 V2000
    7.1100   -3.2980   19.2940 C   0  0  0  0  0  0  0  0  0  0  0  0
    6.3800   -4.1280   20.2890 C   0  0  0  0  0  0  0  0  0  0  0  0
    5.3250   -4.6790   19.9350 O   0  0  0  0  0  0  0  0  0  0  0  0
    6.9170   -4.3150   21.5810 N   0  0  0  0  0  0  0  0  0  0  0  0
    6.5790   -5.4590   22.3820 C   0  0  0  0  0  0  0  0  0  0  0  0
    5.7450   -4.9250   23.5500 C   0  0  0  0  0  0  0  0  0  0  0  0
    6.4800   -3.7800   24.1890 C   0  0  0  0  0  0  0  0  0  0  0  0
    5.7610   -3.2800   25.3850 C   0  0  0  0  0  0  0  0  0  0  0  0
    4.5500   -3.0850   25.2360 O   0  0  0  0  0  0  0  0  0  0  0  0
    6.4260   -3.0470   26.5940 N   0  0  0  0  0  0  0  0  0  0  0  0
    6.2780   -3.7870   27.8040 C   0  0  0  0  0  0  0  0  0  0  0  0
    5.3140   -3.5480   28.7450 C   0  0  0  0  0  0  0  0  0  0  0  0
    4.7360   -2.2970   29.0820 C   0  0  0  0  0  0  0  0  0  0  0  0
    3.7640   -2.1400   30.0540 C   0  0  0  0  0  0  0  0  0  0  0  0
    3.2840   -3.3200   30.7940 C   0  0  0  0  0  0  0  0  0  0  0  0
    3.8900   -4.6640   30.4490 C   0  0  0  0  0  0  0  0  0  0  0  0
    3.2880   -5.7770   31.3070 C   0  0  0  0  0  0  0  0  0  0  0  0
    3.7070   -6.9790   30.7700 O   0  0  0  0  0  0  0  0  0  0  0  0
    2.6640   -7.5320   30.0580 C   0  0  0  0  0  0  0  0  0  0  0  0
    1.9890   -8.4910   30.9690 C   0  0  0  0  0  0  0  0  0  0  0  0
    1.0940   -9.2710   30.0080 C   0  0  0  0  0  0  0  0  0  0  0  0
    0.1910  -10.3370   30.2370 C   0  0  0  0  0  0  0  0  0  0  0  0
    0.3500  -10.5180   31.7940 C   0  0  0  0  0  0  0  0  0  0  0  0
    1.2160   -9.7720   32.7720 C   0  0  0  0  0  0  0  0  0  0  0  0
    2.1000   -8.6720   32.2970 C   0  0  0  0  0  0  0  0  0  0  0  0
    4.8490   -4.7900   29.4850 C   0  0  0  0  0  0  0  0  0  0  0  0
    6.8000   -2.6700   23.2040 C   0  0  0  0  0  0  0  0  0  0  0  0
    7.6100   -3.2350   22.2660 C   0  0  0  0  0  0  0  0  0  0  0  0
  1  2  1  0
  2  3  2  0
  2  4  1  0
  4  5  1  0
  5  6  1  0
  6  7  1  0
  7  8  1  0
  8  9  2  0
  8 10  1  0
 10 11  1  0
 11 12  1  0
 12 13  2  0
 13 14  1  0
 14 15  2  0
 15 16  1  0
 16 17  1  0
 17 18  1  0
 18 19  1  0
 19 20  1  0
 20 21  2  0
 21 22  1  0
 22 23  2  0
 23 24  1  0
 20 25  1  0
 24 25  2  0
 12 26  1  0
 16 26  2  0
  7 27  1  0
  4 28  1  0
 27 28  1  0
M  END
