piperidine-amides-24483-covalent
     RDKit          3D

 25 27  0  0  0  0  0  0  0  0999 V2000
    7.1120   -3.3420   19.3450 C   0  0  0  0  0  0  0  0  0  0  0  0
    6.3870   -4.1670   20.3140 C   0  0  0  0  0  0  0  0  0  0  0  0
    5.3590   -4.7920   19.9710 O   0  0  0  0  0  0  0  0  0  0  0  0
    6.8840   -4.2970   21.6170 N   0  0  0  0  0  0  0  0  0  0  0  0
    6.5480   -5.4490   22.4120 C   0  0  0  0  0  0  0  0  0  0  0  0
    5.6950   -4.9210   23.5720 C   0  0  0  0  0  0  0  0  0  0  0  0
    6.5310   -3.8800   24.2970 C   0  0  0  0  0  0  0  0  0  0  0  0
    5.7760   -3.3280   25.4500 C   0  0  0  0  0  0  0  0  0  0  0  0
    4.5840   -3.0160   25.2540 O   0  0  0  0  0  0  0  0  0  0  0  0
    6.3770   -3.1680   26.7300 N   0  0  0  0  0  0  0  0  0  0  0  0
    6.2160   -4.2240   27.6910 C   0  0  0  0  0  0  0  0  0  0  0  0
    6.4050   -1.8280   27.2930 C   0  0  0  0  0  0  0  0  0  0  0  0
    6.9480   -1.7990   28.5110 C   0  0  0  0  0  0  0  0  0  0  0  0
    7.0080   -0.6190   29.1150 C   0  0  0  0  0  0  0  0  0  0  0  0
    7.5540   -0.4710   30.3930 C   0  0  0  0  0  0  0  0  0  0  0  0
    6.9840    0.6190   30.9420 N   0  0  0  0  0  0  0  0  0  0  0  0
    6.5150    0.4630   28.4480 C   0  0  0  0  0  0  0  0  0  0  0  0
    6.4140    1.9250   28.8070 C   0  0  0  0  0  0  0  0  0  0  0  0
    5.6970    2.4650   27.4130 C   0  0  0  0  0  0  0  0  0  0  0  0
    5.1230    2.0210   25.9480 C   0  0  0  0  0  0  0  0  0  0  0  0
    5.4560    0.6710   26.1610 C   0  0  0  0  0  0  0  0  0  0  0  0
    5.9650    0.6650   27.2970 C   0  0  0  0  0  0  0  0  0  0  0  0
    5.9840   -0.6230   26.8340 N   0  0  0  0  0  0  0  0  0  0  0  0
    6.8020   -2.7150   23.3550 C   0  0  0  0  0  0  0  0  0  0  0  0
    7.6530   -3.2360   22.2320 C   0  0  0  0  0  0  0  0  0  0  0  0
  1  2  1  0
  2  3  2  0
  2  4  1  0
  4  5  1  0
  5  6  1  0
  6  7  1  0
  7  8  1  0
  8  9  2  0
  8 10  1  0
 10 11  1  0
 10 12  1  0
 12 13  2  0
 13 14  1  0
 14 15  1  0
 15 16  3  0
 14 17  2  0
 17 18  1  0
 18 19  2  0
 19 20  1  0
 20 21  2  0
 17 22  1  0
 21 22  1  0
 12 23  1  0
 22 23  2  0
  7 24  1  0
  4 25  1  0
 24 25  1  0
M  END
