piperidine-amides-3906-covalent
     RDKit          3D

 21 22  0  0  0  0  0  0  0  0999 V2000
    7.1110   -3.2790   19.2270 C   0  0  0  0  0  0  0  0  0  0  0  0
    6.3810   -4.0370   20.2580 C   0  0  0  0  0  0  0  0  0  0  0  0
    5.3140   -4.5930   19.9030 O   0  0  0  0  0  0  0  0  0  0  0  0
    6.8950   -4.1690   21.5750 N   0  0  0  0  0  0  0  0  0  0  0  0
    6.5590   -5.3260   22.3310 C   0  0  0  0  0  0  0  0  0  0  0  0
    6.0300   -5.0030   23.6510 C   0  0  0  0  0  0  0  0  0  0  0  0
    6.0860   -3.5620   23.9540 C   0  0  0  0  0  0  0  0  0  0  0  0
    5.6010   -3.2550   25.3410 C   0  0  0  0  0  0  0  0  0  0  0  0
    4.4050   -2.9590   25.5040 O   0  0  0  0  0  0  0  0  0  0  0  0
    6.4540   -3.2830   26.4550 N   0  0  0  0  0  0  0  0  0  0  0  0
    6.1840   -3.7160   27.7810 C   0  0  0  0  0  0  0  0  0  0  0  0
    6.0170   -5.1170   28.2070 C   0  0  0  0  0  0  0  0  0  0  0  0
    5.0530   -5.8760   27.2690 C   0  0  2  0  0  0  0  0  0  0  0  0
    3.8250   -5.3660   26.8960 C   0  0  0  0  0  0  0  0  0  0  0  0
    3.4600   -6.6440   27.6430 C   0  0  2  0  0  0  0  0  0  0  0  0
    2.5360   -5.9970   28.6270 C   0  0  0  0  0  0  0  0  0  0  0  0
    1.4920   -5.4430   27.8700 F   0  0  0  0  0  0  0  0  0  0  0  0
    3.1910   -5.0460   29.3240 F   0  0  0  0  0  0  0  0  0  0  0  0
    4.8360   -6.9550   28.2730 C   0  0  0  0  0  0  0  0  0  0  0  0
    7.4310   -2.9570   23.6510 C   0  0  0  0  0  0  0  0  0  0  0  0
    7.6960   -3.1000   22.1590 C   0  0  0  0  0  0  0  0  0  0  0  0
  1  2  1  0
  2  3  2  0
  2  4  1  0
  4  5  1  0
  5  6  1  0
  6  7  1  0
  7  8  1  0
  8  9  2  0
  8 10  1  0
 10 11  1  0
 11 12  1  0
 13 12  1  1
 13 14  1  0
 14 15  1  0
 15 16  1  1
 16 17  1  0
 16 18  1  0
 13 19  1  0
 15 19  1  0
  7 20  1  0
  4 21  1  0
 20 21  1  0
M  END
