piperidine-amides-23720-covalent
     RDKit          3D

 24 26  0  0  0  0  0  0  0  0999 V2000
    7.1780   -3.2700   19.2060 C   0  0  0  0  0  0  0  0  0  0  0  0
    6.4320   -4.0180   20.2270 C   0  0  0  0  0  0  0  0  0  0  0  0
    5.3250   -4.5020   19.8810 O   0  0  0  0  0  0  0  0  0  0  0  0
    6.9740   -4.2440   21.5130 N   0  0  0  0  0  0  0  0  0  0  0  0
    7.7340   -3.2090   22.1080 C   0  0  0  0  0  0  0  0  0  0  0  0
    7.1660   -2.7800   23.3670 C   0  0  0  0  0  0  0  0  0  0  0  0
    5.7400   -3.1200   23.5250 C   0  0  0  0  0  0  0  0  0  0  0  0
    5.2220   -2.6920   24.8730 C   0  0  0  0  0  0  0  0  0  0  0  0
    4.4040   -1.7660   24.9340 O   0  0  0  0  0  0  0  0  0  0  0  0
    5.5940   -3.2900   26.0770 N   0  0  0  0  0  0  0  0  0  0  0  0
    6.4560   -2.7360   27.0700 C   0  0  0  0  0  0  0  0  0  0  0  0
    4.6480   -4.3060   26.5180 C   0  0  0  0  0  0  0  0  0  0  0  0
    5.0840   -5.7420   26.2500 C   0  0  0  0  0  0  0  0  0  0  0  0
    6.3540   -5.6610   26.5290 C   0  0  0  0  0  0  0  0  0  0  0  0
    6.8270   -5.1320   25.1500 C   0  0  0  0  0  0  0  0  0  0  0  0
    8.3120   -4.8200   25.0480 C   0  0  0  0  0  0  0  0  0  0  0  0
    8.9750   -5.1120   26.3860 C   0  0  0  0  0  0  0  0  0  0  0  0
    8.3840   -5.6300   27.5920 C   0  0  0  0  0  0  0  0  0  0  0  0
    7.0030   -5.9080   27.6210 C   0  0  0  0  0  0  0  0  0  0  0  0
    9.2000   -5.7640   28.5710 O   0  0  0  0  0  0  0  0  0  0  0  0
   10.0640   -4.8260   28.0570 C   0  0  0  0  0  0  0  0  0  0  0  0
   10.1640   -4.9640   26.7630 O   0  0  0  0  0  0  0  0  0  0  0  0
    5.3470   -4.5400   23.1410 C   0  0  0  0  0  0  0  0  0  0  0  0
    6.3740   -5.1810   22.4150 C   0  0  0  0  0  0  0  0  0  0  0  0
  1  2  1  0
  2  3  2  0
  2  4  1  0
  4  5  1  0
  5  6  1  0
  6  7  1  0
  7  8  1  0
  8  9  2  0
  8 10  1  0
 10 11  1  0
 10 12  1  0
 12 13  1  0
 13 14  1  0
 14 15  2  0
 15 16  1  0
 16 17  2  0
 17 18  1  0
 14 19  1  0
 18 19  2  0
 18 20  1  0
 20 21  1  0
 17 22  1  0
 21 22  1  0
  7 23  1  0
  4 24  1  0
 23 24  1  0
M  END
