piperidine-amides-33748-covalent
     RDKit          3D

 30 32  0  0  0  0  0  0  0  0999 V2000
    7.0880   -3.3280   19.3200 C   0  0  0  0  0  0  0  0  0  0  0  0
    6.4100   -4.1740   20.3090 C   0  0  0  0  0  0  0  0  0  0  0  0
    5.3420   -4.7270   19.9490 O   0  0  0  0  0  0  0  0  0  0  0  0
    6.9750   -4.4090   21.5850 N   0  0  0  0  0  0  0  0  0  0  0  0
    6.4330   -5.4680   22.3490 C   0  0  0  0  0  0  0  0  0  0  0  0
    5.6380   -5.0250   23.4890 C   0  0  0  0  0  0  0  0  0  0  0  0
    6.2580   -3.9930   24.3540 C   0  0  0  0  0  0  0  0  0  0  0  0
    5.2350   -3.3000   25.2030 C   0  0  0  0  0  0  0  0  0  0  0  0
    4.2610   -2.7720   24.6540 O   0  0  0  0  0  0  0  0  0  0  0  0
    5.3320   -3.2230   26.6100 N   0  0  0  0  0  0  0  0  0  0  0  0
    6.4890   -3.2930   27.3200 C   0  0  0  0  0  0  0  0  0  0  0  0
    6.6130   -4.3950   28.2980 C   0  0  0  0  0  0  0  0  0  0  0  0
    5.4450   -4.1080   29.2370 C   0  0  0  0  0  0  0  0  0  0  0  0
    5.0220   -5.1600   30.0270 C   0  0  0  0  0  0  0  0  0  0  0  0
    6.0920   -6.2060   29.6420 C   0  0  0  0  0  0  0  0  0  0  0  0
    5.9320   -7.5310   30.3720 C   0  0  0  0  0  0  0  0  0  0  0  0
    4.7340   -7.5540   31.3460 C   0  0  0  0  0  0  0  0  0  0  0  0
    3.7410   -6.5040   31.6590 C   0  0  0  0  0  0  0  0  0  0  0  0
    3.9720   -5.2600   30.9090 C   0  0  0  0  0  0  0  0  0  0  0  0
    2.9880   -4.1080   31.1870 C   0  0  0  0  0  0  0  0  0  0  0  0
    2.9370   -3.0210   30.5190 O   0  0  0  0  0  0  0  0  0  0  0  0
    2.2090   -4.3050   32.1500 O   0  0  0  0  0  0  0  0  0  0  0  0
    2.3790   -3.6610   33.3890 C   0  0  0  0  0  0  0  0  0  0  0  0
    3.4710   -4.2760   34.0060 C   0  0  0  0  0  0  0  0  0  0  0  0
    2.4030   -2.3100   33.1290 C   0  0  0  0  0  0  0  0  0  0  0  0
    1.1710   -3.9010   34.2750 C   0  0  0  0  0  0  0  0  0  0  0  0
    4.3250   -3.5230   28.7270 C   0  0  0  0  0  0  0  0  0  0  0  0
    4.0790   -3.2730   27.2560 C   0  0  0  0  0  0  0  0  0  0  0  0
    7.1030   -3.0100   23.6240 C   0  0  0  0  0  0  0  0  0  0  0  0
    7.6840   -3.4020   22.3230 C   0  0  0  0  0  0  0  0  0  0  0  0
  1  2  1  0
  2  3  2  0
  2  4  1  0
  4  5  1  0
  5  6  1  0
  6  7  1  0
  7  8  1  0
  8  9  2  0
  8 10  1  0
 10 11  1  0
 11 12  1  0
 12 13  1  0
 13 14  1  0
 14 15  2  0
 15 16  1  0
 16 17  2  0
 17 18  1  0
 14 19  1  0
 18 19  2  0
 19 20  1  0
 20 21  2  0
 20 22  1  0
 23 22  1  0
 23 24  1  0
 23 25  1  0
 23 26  1  0
 13 27  1  0
 10 28  1  0
 27 28  1  0
  7 29  1  0
  4 30  1  0
 29 30  1  0
M  END
