piperidine-amides-19753-covalent
     RDKit          3D

 22 24  0  0  0  0  0  0  0  0999 V2000
    7.0290   -3.3570   19.4010 C   0  0  0  0  0  0  0  0  0  0  0  0
    6.3830   -4.2620   20.3870 C   0  0  0  0  0  0  0  0  0  0  0  0
    5.4030   -4.8920   19.9920 O   0  0  0  0  0  0  0  0  0  0  0  0
    6.9080   -4.4130   21.6860 N   0  0  0  0  0  0  0  0  0  0  0  0
    6.5450   -5.5300   22.5040 C   0  0  0  0  0  0  0  0  0  0  0  0
    5.6800   -5.0400   23.6440 C   0  0  0  0  0  0  0  0  0  0  0  0
    6.3000   -3.8220   24.3550 C   0  0  0  0  0  0  0  0  0  0  0  0
    5.3060   -3.3200   25.3600 C   0  0  0  0  0  0  0  0  0  0  0  0
    4.4190   -2.5600   24.9680 O   0  0  0  0  0  0  0  0  0  0  0  0
    5.3300   -3.6760   26.7410 N   0  0  0  0  0  0  0  0  0  0  0  0
    6.4920   -3.4860   27.4600 C   0  0  0  0  0  0  0  0  0  0  0  0
    6.6000   -4.7400   28.3330 C   0  0  0  0  0  0  0  0  0  0  0  0
    5.5240   -5.1120   29.0420 C   0  0  0  0  0  0  0  0  0  0  0  0
    5.6610   -6.0680   30.0040 C   0  0  0  0  0  0  0  0  0  0  0  0
    4.5100   -6.5120   30.5610 C   0  0  0  0  0  0  0  0  0  0  0  0
    3.1190   -6.0770   30.2310 C   0  0  0  0  0  0  0  0  0  0  0  0
    3.1340   -5.4500   29.0180 O   0  0  0  0  0  0  0  0  0  0  0  0
    4.3250   -5.6140   28.2690 C   0  0  0  0  0  0  0  0  0  0  0  0
    4.3470   -4.1950   28.8920 C   0  0  0  0  0  0  0  0  0  0  0  0
    4.1650   -3.5060   27.5640 C   0  0  0  0  0  0  0  0  0  0  0  0
    6.7580   -2.7410   23.4070 C   0  0  0  0  0  0  0  0  0  0  0  0
    7.6380   -3.3430   22.3220 C   0  0  0  0  0  0  0  0  0  0  0  0
  1  2  1  0
  2  3  2  0
  2  4  1  0
  4  5  1  0
  5  6  1  0
  6  7  1  0
  7  8  1  0
  8  9  2  0
  8 10  1  0
 10 11  1  0
 11 12  1  0
 12 13  1  0
 13 14  1  0
 14 15  2  0
 15 16  1  0
 16 17  1  0
 13 18  1  0
 17 18  1  0
 13 19  1  0
 10 20  1  0
 19 20  1  0
  7 21  1  0
  4 22  1  0
 21 22  1  0
M  END
