piperidine-amides-13628-covalent
     RDKit          3D

 30 32  0  0  0  0  0  0  0  0999 V2000
    7.1460   -3.2800   19.2280 C   0  0  0  0  0  0  0  0  0  0  0  0
    6.3560   -4.0090   20.2510 C   0  0  0  0  0  0  0  0  0  0  0  0
    5.3170   -4.6000   19.9110 O   0  0  0  0  0  0  0  0  0  0  0  0
    6.8470   -4.0450   21.5720 N   0  0  0  0  0  0  0  0  0  0  0  0
    7.7750   -3.0390   22.0660 C   0  0  0  0  0  0  0  0  0  0  0  0
    7.5490   -2.8610   23.5670 C   0  0  0  0  0  0  0  0  0  0  0  0
    6.2760   -3.5510   23.8780 C   0  0  0  0  0  0  0  0  0  0  0  0
    5.6790   -3.1340   25.1670 C   0  0  0  0  0  0  0  0  0  0  0  0
    4.6470   -2.4580   25.1000 O   0  0  0  0  0  0  0  0  0  0  0  0
    6.2750   -3.4880   26.3730 N   0  0  0  0  0  0  0  0  0  0  0  0
    5.7990   -4.4530   27.2950 C   0  0  1  0  0  0  0  0  0  0  0  0
    6.1640   -4.3400   28.6000 C   0  0  0  0  0  0  0  0  0  0  0  0
    5.6960   -5.3130   29.4630 C   0  0  0  0  0  0  0  0  0  0  0  0
    6.3820   -6.4890   29.5860 C   0  0  0  0  0  0  0  0  0  0  0  0
    5.9150   -7.5500   30.5060 C   0  0  0  0  0  0  0  0  0  0  0  0
    4.6520   -7.3870   31.3560 C   0  0  0  0  0  0  0  0  0  0  0  0
    4.0370   -6.0240   31.0700 C   0  0  0  0  0  0  0  0  0  0  0  0
    4.5520   -5.1000   30.1900 C   0  0  0  0  0  0  0  0  0  0  0  0
    4.3640   -4.6550   27.2990 C   0  0  0  0  0  0  0  0  0  0  0  0
    3.3320   -4.1280   27.7680 O   0  0  0  0  0  0  0  0  0  0  0  0
    4.3290   -5.8400   26.4690 N   0  0  0  0  0  0  0  0  0  0  0  0
    3.7800   -5.7480   25.1600 C   0  0  0  0  0  0  0  0  0  0  0  0
    2.4030   -5.8430   25.1690 C   0  0  0  0  0  0  0  0  0  0  0  0
    2.1550   -7.1380   25.4080 N   0  0  0  0  0  0  0  0  0  0  0  0
    2.3120   -8.0270   24.4330 C   0  0  0  0  0  0  0  0  0  0  0  0
    1.6280   -7.8410   23.0900 C   0  0  0  0  0  0  0  0  0  0  0  0
    2.8120   -7.5570   26.5170 C   0  0  0  0  0  0  0  0  0  0  0  0
    3.9460   -6.8900   27.2260 C   0  0  0  0  0  0  0  0  0  0  0  0
    6.4510   -5.0430   23.6840 C   0  0  0  0  0  0  0  0  0  0  0  0
    6.6540   -5.2590   22.3530 C   0  0  0  0  0  0  0  0  0  0  0  0
  1  2  1  0
  2  3  2  0
  2  4  1  0
  4  5  1  0
  5  6  1  0
  6  7  1  0
  7  8  1  0
  8  9  2  0
  8 10  1  0
 10 11  1  0
 11 12  1  1
 12 13  1  0
 13 14  2  0
 14 15  1  0
 15 16  2  0
 16 17  1  0
 13 18  1  0
 17 18  2  0
 11 19  1  0
 19 20  2  0
 19 21  1  0
 21 22  1  0
 22 23  1  0
 23 24  1  0
 24 25  1  0
 25 26  1  0
 24 27  1  0
 21 28  1  0
 27 28  1  0
  7 29  1  0
  4 30  1  0
 29 30  1  0
M  END
