piperidine-amides-27552-covalent
     RDKit          3D

 23 24  0  0  0  0  0  0  0  0999 V2000
    7.0720   -3.3380   19.3020 C   0  0  0  0  0  0  0  0  0  0  0  0
    6.3930   -4.1520   20.3120 C   0  0  0  0  0  0  0  0  0  0  0  0
    5.3460   -4.7520   19.9530 O   0  0  0  0  0  0  0  0  0  0  0  0
    6.9390   -4.2730   21.5910 N   0  0  0  0  0  0  0  0  0  0  0  0
    7.7680   -3.2380   22.1600 C   0  0  0  0  0  0  0  0  0  0  0  0
    7.1750   -2.8180   23.4680 C   0  0  0  0  0  0  0  0  0  0  0  0
    6.7800   -3.9890   24.3300 C   0  0  0  0  0  0  0  0  0  0  0  0
    6.0470   -3.4760   25.5090 C   0  0  0  0  0  0  0  0  0  0  0  0
    4.7920   -3.5010   25.4840 O   0  0  0  0  0  0  0  0  0  0  0  0
    6.7000   -2.9510   26.6440 N   0  0  0  0  0  0  0  0  0  0  0  0
    7.4280   -3.8180   27.5450 C   0  0  0  0  0  0  0  0  0  0  0  0
    8.2250   -4.8710   26.7880 C   0  0  0  0  0  0  0  0  0  0  0  0
    8.9920   -5.8670   27.3350 C   0  0  0  0  0  0  0  0  0  0  0  0
    6.3890   -1.6220   27.1270 C   0  0  0  0  0  0  0  0  0  0  0  0
    6.3440   -1.3000   28.4360 N   0  0  0  0  0  0  0  0  0  0  0  0
    6.0670   -0.1230   29.0010 C   0  0  0  0  0  0  0  0  0  0  0  0
    6.0410    0.1670   30.7300 Cl  0  0  0  0  0  0  0  0  0  0  0  0
    5.7790    0.9540   28.1040 N   0  0  0  0  0  0  0  0  0  0  0  0
    5.8030    0.7020   26.6770 C   0  0  0  0  0  0  0  0  0  0  0  0
    5.4680    1.9410   25.4910 Cl  0  0  0  0  0  0  0  0  0  0  0  0
    6.1050   -0.5560   26.3230 N   0  0  0  0  0  0  0  0  0  0  0  0
    5.8420   -4.9700   23.6310 C   0  0  0  0  0  0  0  0  0  0  0  0
    6.5280   -5.4340   22.3700 C   0  0  0  0  0  0  0  0  0  0  0  0
  1  2  1  0
  2  3  2  0
  2  4  1  0
  4  5  1  0
  5  6  1  0
  6  7  1  0
  7  8  1  0
  8  9  2  0
  8 10  1  0
 10 11  1  0
 11 12  1  0
 12 13  3  0
 10 14  1  0
 14 15  2  0
 15 16  1  0
 16 17  1  0
 16 18  2  0
 18 19  1  0
 19 20  1  0
 14 21  1  0
 19 21  2  0
  7 22  1  0
  4 23  1  0
 22 23  1  0
M  END
