piperidine-amides-25695-covalent
     RDKit          3D

 25 27  0  0  0  0  0  0  0  0999 V2000
    7.1010   -3.3190   19.3080 C   0  0  0  0  0  0  0  0  0  0  0  0
    6.4160   -4.1820   20.2990 C   0  0  0  0  0  0  0  0  0  0  0  0
    5.3690   -4.7270   19.9510 O   0  0  0  0  0  0  0  0  0  0  0  0
    7.0020   -4.3890   21.5480 N   0  0  0  0  0  0  0  0  0  0  0  0
    6.7100   -5.5700   22.3140 C   0  0  0  0  0  0  0  0  0  0  0  0
    5.7640   -5.1680   23.3970 C   0  0  0  0  0  0  0  0  0  0  0  0
    5.8200   -3.6440   23.5070 C   0  0  0  0  0  0  0  0  0  0  0  0
    5.2240   -3.2410   24.7750 C   0  0  0  0  0  0  0  0  0  0  0  0
    4.2720   -2.4580   24.7980 O   0  0  0  0  0  0  0  0  0  0  0  0
    5.7060   -3.7400   25.9610 N   0  0  0  0  0  0  0  0  0  0  0  0
    4.9540   -3.3130   27.1690 C   0  0  0  0  0  0  0  0  0  0  0  0
    5.4980   -3.8630   28.4770 C   0  0  0  0  0  0  0  0  0  0  0  0
    6.8170   -3.8400   28.6790 C   0  0  2  0  0  0  0  0  0  0  0  0
    7.3710   -2.5880   28.5650 C   0  0  0  0  0  0  0  0  0  0  0  0
    6.5930   -1.5630   29.0440 C   0  0  0  0  0  0  0  0  0  0  0  0
    6.7240   -1.2450   30.3560 O   0  0  0  0  0  0  0  0  0  0  0  0
    7.7800   -0.4920   30.7460 C   0  0  0  0  0  0  0  0  0  0  0  0
    7.3330   -4.4350   27.5040 C   0  0  0  0  0  0  0  0  0  0  0  0
    8.4220   -4.9620   28.2900 C   0  0  0  0  0  0  0  0  0  0  0  0
    9.3160   -5.7380   27.4530 C   0  0  0  0  0  0  0  0  0  0  0  0
    9.0210   -5.8680   26.0280 C   0  0  0  0  0  0  0  0  0  0  0  0
    7.8090   -5.2150   25.4170 C   0  0  0  0  0  0  0  0  0  0  0  0
    6.8980   -4.4300   26.2870 C   0  0  0  0  0  0  0  0  0  0  0  0
    7.2420   -3.0980   23.4490 C   0  0  0  0  0  0  0  0  0  0  0  0
    7.7560   -3.3190   22.1970 C   0  0  0  0  0  0  0  0  0  0  0  0
  1  2  1  0
  2  3  2  0
  2  4  1  0
  4  5  1  0
  5  6  1  0
  6  7  1  0
  7  8  1  0
  8  9  2  0
  8 10  1  0
 10 11  1  0
 11 12  1  0
 12 13  1  0
 13 14  1  6
 14 15  1  0
 15 16  1  0
 16 17  1  0
 13 18  1  0
 18 19  2  0
 19 20  1  0
 20 21  2  0
 21 22  1  0
 10 23  1  0
 18 23  1  0
 22 23  2  0
  7 24  1  0
  4 25  1  0
 24 25  1  0
M  END
