piperidine-amides-35047-covalent
     RDKit          3D

 32 34  0  0  0  0  0  0  0  0999 V2000
    7.0420   -3.3460   19.3220 C   0  0  0  0  0  0  0  0  0  0  0  0
    6.3430   -4.2000   20.3170 C   0  0  0  0  0  0  0  0  0  0  0  0
    5.3330   -4.7900   19.9520 O   0  0  0  0  0  0  0  0  0  0  0  0
    6.8700   -4.3360   21.5970 N   0  0  0  0  0  0  0  0  0  0  0  0
    6.7090   -5.5450   22.3670 C   0  0  0  0  0  0  0  0  0  0  0  0
    6.0910   -5.2060   23.6990 C   0  0  0  0  0  0  0  0  0  0  0  0
    6.1120   -3.6880   23.8800 C   0  0  0  0  0  0  0  0  0  0  0  0
    5.5390   -3.3460   25.2000 C   0  0  0  0  0  0  0  0  0  0  0  0
    4.4080   -2.8470   25.2420 O   0  0  0  0  0  0  0  0  0  0  0  0
    6.2110   -3.5730   26.4100 N   0  0  0  0  0  0  0  0  0  0  0  0
    5.4270   -4.2380   27.4510 C   0  0  0  0  0  0  0  0  0  0  0  0
    6.4360   -4.2800   28.5430 C   0  0  2  0  0  0  0  0  0  0  0  0
    6.0540   -3.3310   29.4740 O   0  0  0  0  0  0  0  0  0  0  0  0
    6.2700   -2.0150   29.4160 C   0  0  0  0  0  0  0  0  0  0  0  0
    7.6180   -3.7310   28.0170 C   0  0  0  0  0  0  0  0  0  0  0  0
    7.3430   -2.9010   26.9630 C   0  0  1  0  0  0  0  0  0  0  0  0
    8.3030   -2.2740   25.9630 C   0  0  0  0  0  0  0  0  0  0  0  0
    9.3560   -3.0690   25.8700 N   0  0  0  0  0  0  0  0  0  0  0  0
    9.3360   -4.3700   25.9000 C   0  0  0  0  0  0  0  0  0  0  0  0
   10.6280   -4.9680   25.8020 C   0  0  0  0  0  0  0  0  0  0  0  0
   11.5270   -3.7780   25.7010 C   0  0  0  0  0  0  0  0  0  0  0  0
   12.8890   -3.5820   25.6070 N   0  0  0  0  0  0  0  0  0  0  0  0
   13.7860   -4.4940   26.3320 C   0  0  0  0  0  0  0  0  0  0  0  0
   14.0860   -4.4510   27.4310 O   0  0  0  0  0  0  0  0  0  0  0  0
   14.4490   -5.6190   25.9140 O   0  0  0  0  0  0  0  0  0  0  0  0
   14.8750   -6.5800   26.8970 C   0  0  0  0  0  0  0  0  0  0  0  0
   15.2400   -5.8220   27.9770 C   0  0  0  0  0  0  0  0  0  0  0  0
   14.9210   -8.0850   26.7920 C   0  0  0  0  0  0  0  0  0  0  0  0
   15.9350   -6.6770   27.6410 C   0  0  0  0  0  0  0  0  0  0  0  0
   10.6130   -2.6310   25.7370 N   0  0  0  0  0  0  0  0  0  0  0  0
    7.4880   -3.1810   23.6180 C   0  0  0  0  0  0  0  0  0  0  0  0
    7.7620   -3.2930   22.1240 C   0  0  0  0  0  0  0  0  0  0  0  0
  1  2  1  0
  2  3  2  0
  2  4  1  0
  4  5  1  0
  5  6  1  0
  6  7  1  0
  7  8  1  0
  8  9  2  0
  8 10  1  0
 10 11  1  0
 11 12  1  0
 12 13  1  1
 13 14  1  0
 12 15  1  0
 10 16  1  0
 15 16  1  0
 16 17  1  6
 17 18  1  0
 18 19  1  0
 19 20  2  0
 20 21  1  0
 21 22  1  0
 22 23  1  0
 23 24  2  0
 23 25  1  0
 25 26  1  0
 26 27  1  0
 26 28  1  0
 26 29  1  0
 18 30  1  0
 21 30  2  0
  7 31  1  0
  4 32  1  0
 31 32  1  0
M  END
