piperidine-amides-19211-covalent
     RDKit          3D

 22 24  0  0  0  0  0  0  0  0999 V2000
    7.1380   -3.3850   19.4990 C   0  0  0  0  0  0  0  0  0  0  0  0
    6.4310   -4.2390   20.4220 C   0  0  0  0  0  0  0  0  0  0  0  0
    5.4080   -4.8650   19.9920 O   0  0  0  0  0  0  0  0  0  0  0  0
    6.8660   -4.4410   21.7550 N   0  0  0  0  0  0  0  0  0  0  0  0
    6.3920   -5.6370   22.4690 C   0  0  0  0  0  0  0  0  0  0  0  0
    5.3700   -4.9230   23.4280 C   0  0  0  0  0  0  0  0  0  0  0  0
    6.2080   -4.0570   24.3390 C   0  0  0  0  0  0  0  0  0  0  0  0
    5.3230   -3.3460   25.4700 C   0  0  0  0  0  0  0  0  0  0  0  0
    4.4700   -2.6610   24.9330 O   0  0  0  0  0  0  0  0  0  0  0  0
    5.6970   -3.6560   26.6610 N   0  0  0  0  0  0  0  0  0  0  0  0
    6.3740   -3.9380   27.7730 C   0  0  0  0  0  0  0  0  0  0  0  0
    6.7980   -5.0790   28.3700 C   0  0  0  0  0  0  0  0  0  0  0  0
    5.7000   -5.5110   29.0630 C   0  0  0  0  0  0  0  0  0  0  0  0
    5.6340   -6.5530   30.0970 C   0  0  0  0  0  0  0  0  0  0  0  0
    4.2370   -6.7990   30.6800 C   0  0  0  0  0  0  0  0  0  0  0  0
    3.1660   -6.0280   30.1880 C   0  0  0  0  0  0  0  0  0  0  0  0
    2.9460   -5.0060   29.2380 C   0  0  0  0  0  0  0  0  0  0  0  0
    1.7120   -4.4770   29.0180 O   0  0  0  0  0  0  0  0  0  0  0  0
    4.3870   -4.8670   28.7480 C   0  0  0  0  0  0  0  0  0  0  0  0
    4.6220   -3.7830   27.6060 C   0  0  0  0  0  0  0  0  0  0  0  0
    7.0120   -2.9980   23.5340 C   0  0  0  0  0  0  0  0  0  0  0  0
    7.7260   -3.5190   22.4780 C   0  0  0  0  0  0  0  0  0  0  0  0
  1  2  1  0
  2  3  2  0
  2  4  1  0
  4  5  1  0
  5  6  1  0
  6  7  1  0
  7  8  1  0
  8  9  2  0
  8 10  1  0
 10 11  1  0
 11 12  1  0
 12 13  1  0
 13 14  2  0
 14 15  1  0
 15 16  2  0
 16 17  1  0
 17 18  1  0
 13 19  1  0
 17 19  2  0
 10 20  1  0
 19 20  1  0
  7 21  1  0
  4 22  1  0
 21 22  1  0
M  END
