piperidine-amides-33042-covalent
     RDKit          3D

 28 30  0  0  0  0  0  0  0  0999 V2000
    7.0530   -3.3640   19.4030 C   0  0  0  0  0  0  0  0  0  0  0  0
    6.3250   -4.2140   20.3780 C   0  0  0  0  0  0  0  0  0  0  0  0
    5.3380   -4.8550   19.9830 O   0  0  0  0  0  0  0  0  0  0  0  0
    6.7930   -4.3190   21.7100 N   0  0  0  0  0  0  0  0  0  0  0  0
    6.7010   -5.5820   22.4230 C   0  0  0  0  0  0  0  0  0  0  0  0
    6.3290   -5.3510   23.9020 C   0  0  0  0  0  0  0  0  0  0  0  0
    6.1530   -3.8910   24.1080 C   0  0  0  0  0  0  0  0  0  0  0  0
    5.6410   -3.4430   25.4390 C   0  0  0  0  0  0  0  0  0  0  0  0
    4.6940   -2.6510   25.3640 O   0  0  0  0  0  0  0  0  0  0  0  0
    6.1430   -3.8470   26.6990 N   0  0  0  0  0  0  0  0  0  0  0  0
    5.9720   -3.0820   27.8610 C   0  0  0  0  0  0  0  0  0  0  0  0
    5.0230   -3.4100   28.7890 C   0  0  0  0  0  0  0  0  0  0  0  0
    5.0020   -4.8580   28.9330 N   0  0  0  0  0  0  0  0  0  0  0  0
    3.5920   -5.3030   29.8030 S   0  0  0  0  0  0  0  0  0  0  0  0
    3.9480   -6.1800   30.9920 O   0  0  0  0  0  0  0  0  0  0  0  0
    2.9720   -4.0340   30.3040 O   0  0  0  0  0  0  0  0  0  0  0  0
    2.4890   -6.1470   28.6860 C   0  0  0  0  0  0  0  0  0  0  0  0
    1.2890   -5.5090   28.4420 C   0  0  0  0  0  0  0  0  0  0  0  0
    0.3170   -6.1410   27.5250 C   0  0  0  0  0  0  0  0  0  0  0  0
    0.6850   -7.4730   26.8870 C   0  0  0  0  0  0  0  0  0  0  0  0
   -0.4330   -7.9770   25.9700 C   0  0  0  0  0  0  0  0  0  0  0  0
   -1.3930   -8.8700   26.2550 N   0  0  0  0  0  0  0  0  0  0  0  0
    1.9070   -8.0980   27.1540 C   0  0  0  0  0  0  0  0  0  0  0  0
    2.8030   -7.3660   28.0940 C   0  0  0  0  0  0  0  0  0  0  0  0
    4.9960   -5.5200   27.6870 C   0  0  0  0  0  0  0  0  0  0  0  0
    6.0940   -5.2850   26.9620 C   0  0  0  0  0  0  0  0  0  0  0  0
    7.3440   -3.0970   23.7160 C   0  0  0  0  0  0  0  0  0  0  0  0
    7.6790   -3.2850   22.2580 C   0  0  0  0  0  0  0  0  0  0  0  0
  1  2  1  0
  2  3  2  0
  2  4  1  0
  4  5  1  0
  5  6  1  0
  6  7  1  0
  7  8  1  0
  8  9  2  0
  8 10  1  0
 10 11  1  0
 11 12  1  0
 12 13  1  0
 13 14  1  0
 14 15  2  0
 14 16  2  0
 14 17  1  0
 17 18  2  0
 18 19  1  0
 19 20  2  0
 20 21  1  0
 21 22  3  0
 20 23  1  0
 17 24  1  0
 23 24  2  0
 13 25  1  0
 10 26  1  0
 25 26  1  0
  7 27  1  0
  4 28  1  0
 27 28  1  0
M  END
