piperidine-amides-749-covalent
     RDKit          3D

 25 27  0  0  0  0  0  0  0  0999 V2000
    7.1070   -3.3360   19.1990 C   0  0  0  0  0  0  0  0  0  0  0  0
    6.3800   -4.0310   20.2390 C   0  0  0  0  0  0  0  0  0  0  0  0
    5.2920   -4.5930   19.9090 O   0  0  0  0  0  0  0  0  0  0  0  0
    6.8570   -4.1630   21.5610 N   0  0  0  0  0  0  0  0  0  0  0  0
    7.7270   -3.1000   22.1100 C   0  0  0  0  0  0  0  0  0  0  0  0
    6.7840   -2.5480   23.2370 C   0  0  0  0  0  0  0  0  0  0  0  0
    6.5800   -3.7280   24.1510 C   0  0  0  0  0  0  0  0  0  0  0  0
    6.0400   -3.2850   25.5820 C   0  0  0  0  0  0  0  0  0  0  0  0
    5.6930   -4.2520   26.2350 O   0  0  0  0  0  0  0  0  0  0  0  0
    6.0840   -2.0170   25.6780 N   0  0  0  0  0  0  0  0  0  0  0  0
    6.0270   -0.6580   25.7940 C   0  0  0  0  0  0  0  0  0  0  0  0
    5.0900    0.3680   25.8270 C   0  0  1  0  0  0  0  0  0  0  0  0
    3.8910   -0.2060   26.3440 C   0  0  0  0  0  0  0  0  0  0  0  0
    3.0150    0.7040   27.1320 C   0  0  0  0  0  0  0  0  0  0  0  0
    4.0290    0.7840   28.2930 C   0  0  0  0  0  0  0  0  0  0  0  0
    5.1060    1.6080   27.7820 N   0  0  0  0  0  0  0  0  0  0  0  0
    5.3910    2.7540   28.5790 C   0  0  0  0  0  0  0  0  0  0  0  0
    5.3150    1.5850   26.3560 C   0  0  1  0  0  0  0  0  0  0  0  0
    6.5460    2.4340   26.0100 C   0  0  0  0  0  0  0  0  0  0  0  0
    7.5310    3.3070   26.8610 C   0  0  0  0  0  0  0  0  0  0  0  0
    8.4700    3.8780   26.0790 C   0  0  0  0  0  0  0  0  0  0  0  0
    8.3520    3.5780   24.7670 C   0  0  0  0  0  0  0  0  0  0  0  0
    7.0530    2.5470   24.3600 S   0  0  0  0  0  0  0  0  0  0  0  0
    5.8370   -4.8970   23.5130 C   0  0  0  0  0  0  0  0  0  0  0  0
    6.5130   -5.2960   22.3830 C   0  0  0  0  0  0  0  0  0  0  0  0
  1  2  1  0
  2  3  2  0
  2  4  1  0
  4  5  1  0
  5  6  1  0
  6  7  1  0
  7  8  1  0
  8  9  2  0
  8 10  1  0
 10 11  1  0
 12 11  1  1
 12 13  1  0
 13 14  1  0
 14 15  1  0
 15 16  1  0
 16 17  1  0
 12 18  1  0
 16 18  1  0
 18 19  1  1
 19 20  2  0
 20 21  1  0
 21 22  2  0
 19 23  1  0
 22 23  1  0
  7 24  1  0
  4 25  1  0
 24 25  1  0
M  END
