piperidine-amides-1232-covalent
     RDKit          3D

 23 24  0  0  0  0  0  0  0  0999 V2000
    7.1040   -3.3030   19.2550 C   0  0  0  0  0  0  0  0  0  0  0  0
    6.3220   -4.0770   20.2560 C   0  0  0  0  0  0  0  0  0  0  0  0
    5.2700   -4.6290   19.9070 O   0  0  0  0  0  0  0  0  0  0  0  0
    6.8310   -4.1940   21.5650 N   0  0  0  0  0  0  0  0  0  0  0  0
    7.6650   -3.1710   22.1510 C   0  0  0  0  0  0  0  0  0  0  0  0
    6.8960   -2.6530   23.3600 C   0  0  0  0  0  0  0  0  0  0  0  0
    6.6070   -3.8450   24.2090 C   0  0  0  0  0  0  0  0  0  0  0  0
    5.8560   -3.4720   25.4300 C   0  0  0  0  0  0  0  0  0  0  0  0
    4.6610   -3.1920   25.2780 O   0  0  0  0  0  0  0  0  0  0  0  0
    6.5050   -3.4400   26.6730 N   0  0  0  0  0  0  0  0  0  0  0  0
    6.4450   -4.3850   27.7370 C   0  0  2  0  0  0  0  0  0  0  0  0
    7.3360   -5.4210   27.9270 C   0  0  0  0  0  0  0  0  0  0  0  0
    6.5440   -6.5020   28.4730 O   0  0  0  0  0  0  0  0  0  0  0  0
    5.0700   -5.0650   27.7170 C   0  0  0  0  0  0  0  0  0  0  0  0
    4.8960   -6.2160   27.0080 C   0  0  0  0  0  0  0  0  0  0  0  0
    3.6280   -6.9370   26.9310 C   0  0  0  0  0  0  0  0  0  0  0  0
    2.4090   -6.4140   27.6630 C   0  0  0  0  0  0  0  0  0  0  0  0
    2.6490   -5.1140   28.4500 C   0  0  0  0  0  0  0  0  0  0  0  0
    1.6900   -4.4450   29.1960 O   0  0  0  0  0  0  0  0  0  0  0  0
    0.3360   -4.8000   29.0690 C   0  0  0  0  0  0  0  0  0  0  0  0
    4.0250   -4.4770   28.4380 C   0  0  0  0  0  0  0  0  0  0  0  0
    5.8610   -4.9410   23.4980 C   0  0  0  0  0  0  0  0  0  0  0  0
    6.5460   -5.3420   22.3740 C   0  0  0  0  0  0  0  0  0  0  0  0
  1  2  1  0
  2  3  2  0
  2  4  1  0
  4  5  1  0
  5  6  1  0
  6  7  1  0
  7  8  1  0
  8  9  2  0
  8 10  1  0
 10 11  1  0
 11 12  1  6
 12 13  1  0
 11 14  1  0
 14 15  2  0
 15 16  1  0
 16 17  2  0
 17 18  1  0
 18 19  1  0
 19 20  1  0
 14 21  1  0
 18 21  2  0
  7 22  1  0
  4 23  1  0
 22 23  1  0
M  END
