piperidine-amides-34963-covalent
     RDKit          3D

 31 33  0  0  0  0  0  0  0  0999 V2000
    7.0240   -3.3740   19.4210 C   0  0  0  0  0  0  0  0  0  0  0  0
    6.3260   -4.2350   20.4120 C   0  0  0  0  0  0  0  0  0  0  0  0
    5.3680   -4.8790   19.9890 O   0  0  0  0  0  0  0  0  0  0  0  0
    6.7700   -4.3330   21.7390 N   0  0  0  0  0  0  0  0  0  0  0  0
    7.6660   -3.3620   22.3290 C   0  0  0  0  0  0  0  0  0  0  0  0
    7.2110   -3.0380   23.7180 C   0  0  0  0  0  0  0  0  0  0  0  0
    5.9340   -3.8200   24.0060 C   0  0  0  0  0  0  0  0  0  0  0  0
    5.2800   -3.3750   25.2780 C   0  0  0  0  0  0  0  0  0  0  0  0
    4.0460   -3.3230   25.2780 O   0  0  0  0  0  0  0  0  0  0  0  0
    5.9520   -2.9970   26.4750 N   0  0  0  0  0  0  0  0  0  0  0  0
    6.1210   -3.9770   27.5400 C   0  0  0  0  0  0  0  0  0  0  0  0
    4.8710   -4.0860   28.3840 C   0  0  0  0  0  0  0  0  0  0  0  0
    5.0070   -4.9250   29.4730 C   0  0  0  0  0  0  0  0  0  0  0  0
    4.0530   -5.1740   30.3460 C   0  0  0  0  0  0  0  0  0  0  0  0
    2.9110   -4.5670   30.1390 C   0  0  0  0  0  0  0  0  0  0  0  0
    2.5970   -3.6320   29.0140 C   0  0  0  0  0  0  0  0  0  0  0  0
    3.6500   -3.2920   27.9560 C   0  0  0  0  0  0  0  0  0  0  0  0
    6.0390   -1.5880   26.8470 C   0  0  0  0  0  0  0  0  0  0  0  0
    6.4650   -0.8810   25.5970 C   0  0  0  0  0  0  0  0  0  0  0  0
    7.6370   -1.2160   24.9820 F   0  0  0  0  0  0  0  0  0  0  0  0
    5.4610   -1.1460   24.6830 F   0  0  0  0  0  0  0  0  0  0  0  0
    6.5180    0.4640   25.8200 F   0  0  0  0  0  0  0  0  0  0  0  0
    7.1070   -1.3460   27.9540 C   0  0  0  0  0  0  0  0  0  0  0  0
    6.5550   -0.4940   29.1010 C   0  0  0  0  0  0  0  0  0  0  0  0
    5.8840    0.7430   28.6850 C   0  0  0  0  0  0  0  0  0  0  0  0
    6.8400    1.7240   28.5060 F   0  0  0  0  0  0  0  0  0  0  0  0
    4.9870    1.1910   29.6510 F   0  0  0  0  0  0  0  0  0  0  0  0
    5.1060    0.5070   27.4560 C   0  0  0  0  0  0  0  0  0  0  0  0
    4.9600   -0.8630   27.3220 C   0  0  0  0  0  0  0  0  0  0  0  0
    6.2160   -5.2910   23.8840 C   0  0  0  0  0  0  0  0  0  0  0  0
    6.6490   -5.6250   22.4400 C   0  0  0  0  0  0  0  0  0  0  0  0
  1  2  1  0
  2  3  2  0
  2  4  1  0
  4  5  1  0
  5  6  1  0
  6  7  1  0
  7  8  1  0
  8  9  2  0
  8 10  1  0
 10 11  1  0
 11 12  1  0
 12 13  2  0
 13 14  1  0
 14 15  2  0
 15 16  1  0
 12 17  1  0
 16 17  2  0
 18 10  1  0
 18 19  1  0
 19 20  1  0
 19 21  1  0
 19 22  1  0
 18 23  1  0
 23 24  1  0
 24 25  1  0
 25 26  1  0
 25 27  1  0
 25 28  1  0
 18 29  1  0
 28 29  1  0
  7 30  1  0
  4 31  1  0
 30 31  1  0
M  END
