piperidine-amides-1004-covalent
     RDKit          3D

 24 25  0  0  0  0  0  0  0  0999 V2000
    7.1110   -3.2980   19.2840 C   0  0  0  0  0  0  0  0  0  0  0  0
    6.3200   -4.0560   20.2910 C   0  0  0  0  0  0  0  0  0  0  0  0
    5.2900   -4.6410   19.9200 O   0  0  0  0  0  0  0  0  0  0  0  0
    6.7880   -4.1260   21.6210 N   0  0  0  0  0  0  0  0  0  0  0  0
    7.7060   -3.1380   22.1730 C   0  0  0  0  0  0  0  0  0  0  0  0
    7.4640   -2.9780   23.6820 C   0  0  0  0  0  0  0  0  0  0  0  0
    6.1200   -3.5370   23.9740 C   0  0  0  0  0  0  0  0  0  0  0  0
    5.5990   -3.2820   25.3390 C   0  0  0  0  0  0  0  0  0  0  0  0
    4.3690   -3.2580   25.4450 O   0  0  0  0  0  0  0  0  0  0  0  0
    6.4580   -3.0780   26.4240 N   0  0  0  0  0  0  0  0  0  0  0  0
    6.2020   -3.3900   27.7900 C   0  0  0  0  0  0  0  0  0  0  0  0
    6.4170   -4.6150   28.3700 C   0  0  0  0  0  0  0  0  0  0  0  0
    5.5460   -5.1810   29.2860 C   0  0  0  0  0  0  0  0  0  0  0  0
    5.7940   -6.4380   29.7710 C   0  0  0  0  0  0  0  0  0  0  0  0
    4.9100   -7.0890   30.7430 C   0  0  0  0  0  0  0  0  0  0  0  0
    3.6760   -6.3610   31.2340 C   0  0  0  0  0  0  0  0  0  0  0  0
    2.8220   -6.9610   32.1490 O   0  0  0  0  0  0  0  0  0  0  0  0
    2.5700   -8.3480   32.0990 C   0  0  0  0  0  0  0  0  0  0  0  0
    1.4180   -8.6970   32.7730 C   0  0  0  0  0  0  0  0  0  0  0  0
    0.8750  -10.0770   32.7960 C   0  0  0  0  0  0  0  0  0  0  0  0
    3.4850   -5.1030   30.7100 C   0  0  0  0  0  0  0  0  0  0  0  0
    4.3770   -4.5660   29.7930 C   0  0  0  0  0  0  0  0  0  0  0  0
    6.0200   -5.0000   23.7020 C   0  0  0  0  0  0  0  0  0  0  0  0
    6.6150   -5.3700   22.3670 C   0  0  0  0  0  0  0  0  0  0  0  0
  1  2  1  0
  2  3  2  0
  2  4  1  0
  4  5  1  0
  5  6  1  0
  6  7  1  0
  7  8  1  0
  8  9  2  0
  8 10  1  0
 10 11  1  0
 11 12  1  0
 12 13  1  0
 13 14  2  0
 14 15  1  0
 15 16  2  0
 16 17  1  0
 17 18  1  0
 18 19  1  0
 19 20  3  0
 16 21  1  0
 13 22  1  0
 21 22  2  0
  7 23  1  0
  4 24  1  0
 23 24  1  0
M  END
