piperidine-amides-34176-covalent
     RDKit          3D

 26 28  0  0  0  0  0  0  0  0999 V2000
    7.1570   -3.3570   19.3440 C   0  0  0  0  0  0  0  0  0  0  0  0
    6.4450   -4.1870   20.3150 C   0  0  0  0  0  0  0  0  0  0  0  0
    5.4020   -4.7950   19.9830 O   0  0  0  0  0  0  0  0  0  0  0  0
    6.9870   -4.3410   21.6010 N   0  0  0  0  0  0  0  0  0  0  0  0
    7.7540   -3.2630   22.1640 C   0  0  0  0  0  0  0  0  0  0  0  0
    6.8040   -2.5940   23.1440 C   0  0  0  0  0  0  0  0  0  0  0  0
    6.5240   -3.6240   24.2150 C   0  0  0  0  0  0  0  0  0  0  0  0
    5.6390   -3.0100   25.2300 C   0  0  0  0  0  0  0  0  0  0  0  0
    4.5750   -2.5050   24.8210 O   0  0  0  0  0  0  0  0  0  0  0  0
    5.9710   -3.0260   26.6090 N   0  0  0  0  0  0  0  0  0  0  0  0
    5.7560   -4.3020   27.2610 C   0  0  0  0  0  0  0  0  0  0  0  0
    6.6210   -4.7330   28.4300 C   0  0  0  0  0  0  0  0  0  0  0  0
    6.3860   -5.9550   29.0010 C   0  0  0  0  0  0  0  0  0  0  0  0
    5.4020   -6.7910   28.5560 C   0  0  0  0  0  0  0  0  0  0  0  0
    4.5910   -6.4200   27.4920 C   0  0  0  0  0  0  0  0  0  0  0  0
    4.6750   -5.2400   26.7960 C   0  0  0  0  0  0  0  0  0  0  0  0
    3.4770   -4.9090   25.3740 Br  0  0  0  0  0  0  0  0  0  0  0  0
    5.7660   -1.7720   27.4060 C   0  0  1  0  0  0  0  0  0  0  0  0
    7.0050   -1.4610   28.2090 C   0  0  0  0  0  0  0  0  0  0  0  0
    6.8500   -0.6020   29.4730 C   0  0  0  0  0  0  0  0  0  0  0  0
    5.6970    0.0060   28.7430 C   0  0  0  0  0  0  0  0  0  0  0  0
    5.8880    0.4000   27.4120 C   0  0  0  0  0  0  0  0  0  0  0  0
    5.4670   -0.6560   26.6980 C   0  0  1  0  0  0  0  0  0  0  0  0
    6.0140   -0.5390   25.5190 O   0  0  0  0  0  0  0  0  0  0  0  0
    5.8440   -4.8800   23.6650 C   0  0  0  0  0  0  0  0  0  0  0  0
    6.5630   -5.4170   22.4440 C   0  0  0  0  0  0  0  0  0  0  0  0
  1  2  1  0
  2  3  2  0
  2  4  1  0
  4  5  1  0
  5  6  1  0
  6  7  1  0
  7  8  1  0
  8  9  2  0
  8 10  1  0
 10 11  1  0
 11 12  2  0
 12 13  1  0
 13 14  2  0
 14 15  1  0
 11 16  1  0
 15 16  2  0
 16 17  1  0
 18 10  1  6
 18 19  1  0
 19 20  1  0
 20 21  1  0
 21 22  1  0
 18 23  1  0
 22 23  1  0
 23 24  1  6
  7 25  1  0
  4 26  1  0
 25 26  1  0
M  END
