piperidine-amides-33935-covalent
     RDKit          3D

 31 34  0  0  0  0  0  0  0  0999 V2000
    7.1350   -3.2540   19.1880 C   0  0  0  0  0  0  0  0  0  0  0  0
    6.3560   -3.9990   20.1940 C   0  0  0  0  0  0  0  0  0  0  0  0
    5.2490   -4.4580   19.8390 O   0  0  0  0  0  0  0  0  0  0  0  0
    6.8600   -4.2450   21.4910 N   0  0  0  0  0  0  0  0  0  0  0  0
    7.6240   -3.2230   22.1230 C   0  0  0  0  0  0  0  0  0  0  0  0
    7.3110   -2.9330   23.5230 C   0  0  0  0  0  0  0  0  0  0  0  0
    6.7820   -4.0390   24.3560 C   0  0  0  0  0  0  0  0  0  0  0  0
    5.9850   -3.4430   25.4690 C   0  0  0  0  0  0  0  0  0  0  0  0
    4.7420   -3.5690   25.4740 O   0  0  0  0  0  0  0  0  0  0  0  0
    6.6170   -2.7270   26.4990 N   0  0  0  0  0  0  0  0  0  0  0  0
    6.6580   -1.3130   26.5380 C   0  0  0  0  0  0  0  0  0  0  0  0
    5.4600   -0.5460   26.8850 C   0  0  0  0  0  0  0  0  0  0  0  0
    5.6800    0.9270   26.6780 C   0  0  0  0  0  0  0  0  0  0  0  0
    4.7320    1.8650   26.9270 C   0  0  0  0  0  0  0  0  0  0  0  0
    3.3470    1.4170   27.4490 C   0  0  0  0  0  0  0  0  0  0  0  0
    3.0860   -0.0740   27.6710 C   0  0  0  0  0  0  0  0  0  0  0  0
    4.2110   -1.1050   27.3690 C   0  0  0  0  0  0  0  0  0  0  0  0
    7.0660   -3.1880   27.7620 C   0  0  0  0  0  0  0  0  0  0  0  0
    6.6900   -2.2520   28.8960 C   0  0  0  0  0  0  0  0  0  0  0  0
    5.4610   -2.1100   29.4340 N   0  0  0  0  0  0  0  0  0  0  0  0
    5.2060   -1.1920   30.4710 C   0  0  0  0  0  0  0  0  0  0  0  0
    3.8390   -1.0920   31.0710 C   0  0  0  0  0  0  0  0  0  0  0  0
    3.5520   -0.1890   32.1040 C   0  0  0  0  0  0  0  0  0  0  0  0
    4.5520    0.6300   32.5850 C   0  0  0  0  0  0  0  0  0  0  0  0
    5.9180    0.5140   31.9690 C   0  0  0  0  0  0  0  0  0  0  0  0
    6.1790   -0.3800   30.9540 C   0  0  0  0  0  0  0  0  0  0  0  0
    7.5560   -0.4890   30.3390 C   0  0  0  0  0  0  0  0  0  0  0  0
    8.4400    0.4890   30.8720 O   0  0  0  0  0  0  0  0  0  0  0  0
    7.7930   -1.4280   29.4080 N   0  0  0  0  0  0  0  0  0  0  0  0
    5.9800   -5.0230   23.6050 C   0  0  0  0  0  0  0  0  0  0  0  0
    6.4940   -5.3830   22.2730 C   0  0  0  0  0  0  0  0  0  0  0  0
  1  2  1  0
  2  3  2  0
  2  4  1  0
  4  5  1  0
  5  6  1  0
  6  7  1  0
  7  8  1  0
  8  9  2  0
  8 10  1  0
 10 11  1  0
 11 12  1  0
 12 13  2  0
 13 14  1  0
 14 15  2  0
 15 16  1  0
 12 17  1  0
 16 17  2  0
 10 18  1  0
 18 19  1  0
 19 20  2  0
 20 21  1  0
 21 22  2  0
 22 23  1  0
 23 24  2  0
 24 25  1  0
 21 26  1  0
 25 26  2  0
 26 27  1  0
 27 28  2  0
 19 29  1  0
 27 29  1  0
  7 30  1  0
  4 31  1  0
 30 31  1  0
M  END
