piperidine-amides-23999-covalent
     RDKit          3D

 24 26  0  0  0  0  0  0  0  0999 V2000
    7.0680   -3.3450   19.3430 C   0  0  0  0  0  0  0  0  0  0  0  0
    6.4000   -4.1870   20.3460 C   0  0  0  0  0  0  0  0  0  0  0  0
    5.3720   -4.8060   19.9740 O   0  0  0  0  0  0  0  0  0  0  0  0
    6.9330   -4.3320   21.6530 N   0  0  0  0  0  0  0  0  0  0  0  0
    6.6390   -5.5300   22.3720 C   0  0  0  0  0  0  0  0  0  0  0  0
    6.0950   -5.2470   23.6840 C   0  0  0  0  0  0  0  0  0  0  0  0
    6.1790   -3.8170   23.9760 C   0  0  0  0  0  0  0  0  0  0  0  0
    5.6230   -3.4340   25.3220 C   0  0  0  0  0  0  0  0  0  0  0  0
    4.7640   -2.5410   25.3620 O   0  0  0  0  0  0  0  0  0  0  0  0
    5.9940   -4.0380   26.5380 N   0  0  0  0  0  0  0  0  0  0  0  0
    6.8070   -5.1590   26.7420 C   0  0  0  0  0  0  0  0  0  0  0  0
    6.7810   -5.5780   28.1250 C   0  0  0  0  0  0  0  0  0  0  0  0
    5.7830   -4.5360   28.7160 C   0  0  0  0  0  0  0  0  0  0  0  0
    5.1430   -3.8320   27.6900 C   0  0  1  0  0  0  0  0  0  0  0  0
    5.3010   -2.4690   28.4010 C   0  0  0  0  0  0  0  0  0  0  0  0
    4.9740   -1.2630   27.6360 N   0  0  0  0  0  0  0  0  0  0  0  0
    5.3150   -0.4540   28.7690 C   0  0  0  0  0  0  0  0  0  0  0  0
    5.1690    1.0600   28.5760 C   0  0  0  0  0  0  0  0  0  0  0  0
    6.2970    1.7750   27.8710 C   0  0  0  0  0  0  0  0  0  0  0  0
    3.8700    1.3530   27.8440 C   0  0  0  0  0  0  0  0  0  0  0  0
    5.7730   -1.1380   30.0100 C   0  0  0  0  0  0  0  0  0  0  0  0
    5.7590   -2.3990   29.7680 O   0  0  0  0  0  0  0  0  0  0  0  0
    7.5650   -3.3510   23.6880 C   0  0  0  0  0  0  0  0  0  0  0  0
    7.6630   -3.2280   22.2880 C   0  0  0  0  0  0  0  0  0  0  0  0
  1  2  1  0
  2  3  2  0
  2  4  1  0
  4  5  1  0
  5  6  1  0
  6  7  1  0
  7  8  1  0
  8  9  2  0
  8 10  1  0
 10 11  1  0
 11 12  1  0
 12 13  1  0
 10 14  1  0
 13 14  1  0
 14 15  1  1
 15 16  2  0
 16 17  1  0
 17 18  1  0
 18 19  1  0
 18 20  1  0
 17 21  2  0
 15 22  1  0
 21 22  1  0
  7 23  1  0
  4 24  1  0
 23 24  1  0
M  END
