piperidine-amides-14800-covalent
     RDKit          3D

 22 23  0  0  0  0  0  0  0  0999 V2000
    7.1060   -3.2800   19.2420 C   0  0  0  0  0  0  0  0  0  0  0  0
    6.3700   -4.0700   20.2270 C   0  0  0  0  0  0  0  0  0  0  0  0
    5.2790   -4.5560   19.8880 O   0  0  0  0  0  0  0  0  0  0  0  0
    6.9250   -4.3270   21.5010 N   0  0  0  0  0  0  0  0  0  0  0  0
    6.4240   -5.4410   22.2410 C   0  0  0  0  0  0  0  0  0  0  0  0
    5.5500   -4.9190   23.3390 C   0  0  0  0  0  0  0  0  0  0  0  0
    6.3420   -3.8260   24.0290 C   0  0  0  0  0  0  0  0  0  0  0  0
    5.5130   -3.1870   25.0980 C   0  0  0  0  0  0  0  0  0  0  0  0
    4.3180   -3.0250   24.8760 O   0  0  0  0  0  0  0  0  0  0  0  0
    6.1630   -2.8440   26.2650 N   0  0  0  0  0  0  0  0  0  0  0  0
    7.1690   -3.6930   26.7480 C   0  0  0  0  0  0  0  0  0  0  0  0
    8.3900   -3.5440   26.0960 C   0  0  0  0  0  0  0  0  0  0  0  0
    8.7770   -2.3630   25.5020 C   0  0  0  0  0  0  0  0  0  0  0  0
   10.0040   -2.1670   24.8610 C   0  0  0  0  0  0  0  0  0  0  0  0
   10.9520   -3.3270   24.8370 C   0  0  0  0  0  0  0  0  0  0  0  0
   10.5160   -4.6470   25.4950 C   0  0  0  0  0  0  0  0  0  0  0  0
    9.1990   -4.6230   26.0790 C   0  0  0  0  0  0  0  0  0  0  0  0
    8.8000   -5.9230   26.6880 C   0  0  0  0  0  0  0  0  0  0  0  0
    8.7860   -5.7470   27.8820 O   0  0  0  0  0  0  0  0  0  0  0  0
    9.4440   -4.6610   28.3250 C   0  0  0  0  0  0  0  0  0  0  0  0
    6.6790   -2.7220   23.0460 C   0  0  0  0  0  0  0  0  0  0  0  0
    7.6200   -3.2950   22.2260 C   0  0  0  0  0  0  0  0  0  0  0  0
  1  2  1  0
  2  3  2  0
  2  4  1  0
  4  5  1  0
  5  6  1  0
  6  7  1  0
  7  8  1  0
  8  9  2  0
  8 10  1  0
 10 11  1  0
 11 12  1  0
 12 13  2  0
 13 14  1  0
 14 15  2  0
 15 16  1  0
 12 17  1  0
 16 17  2  0
 17 18  1  0
 18 19  1  0
 19 20  1  0
  7 21  1  0
  4 22  1  0
 21 22  1  0
M  END
