piperidine-amides-8930-covalent
     RDKit          3D

 22 23  0  0  0  0  0  0  0  0999 V2000
    7.1010   -3.3350   19.2600 C   0  0  0  0  0  0  0  0  0  0  0  0
    6.3610   -4.0960   20.2660 C   0  0  0  0  0  0  0  0  0  0  0  0
    5.3230   -4.6950   19.9370 O   0  0  0  0  0  0  0  0  0  0  0  0
    6.8450   -4.1990   21.5790 N   0  0  0  0  0  0  0  0  0  0  0  0
    7.7420   -3.2210   22.1490 C   0  0  0  0  0  0  0  0  0  0  0  0
    7.0350   -2.6720   23.3470 C   0  0  0  0  0  0  0  0  0  0  0  0
    6.5790   -3.7780   24.2400 C   0  0  0  0  0  0  0  0  0  0  0  0
    5.7780   -3.2550   25.3690 C   0  0  0  0  0  0  0  0  0  0  0  0
    4.5750   -2.9020   25.1940 O   0  0  0  0  0  0  0  0  0  0  0  0
    6.2930   -3.1470   26.6730 N   0  0  0  0  0  0  0  0  0  0  0  0
    6.3800   -1.8330   27.3580 C   0  0  0  0  0  0  0  0  0  0  0  0
    5.7790   -0.6650   26.6730 C   0  0  0  0  0  0  0  0  0  0  0  0
    5.8220    0.6740   27.3240 C   0  0  0  0  0  0  0  0  0  0  0  0
    6.4650    0.9010   28.6830 C   0  0  0  0  0  0  0  0  0  0  0  0
    6.5220    2.2470   29.3790 C   0  0  0  0  0  0  0  0  0  0  0  0
    5.5430    2.0160   30.4740 C   0  0  0  0  0  0  0  0  0  0  0  0
    6.0430    1.7050   31.7120 O   0  0  0  0  0  0  0  0  0  0  0  0
    6.1560    0.3460   31.9970 C   0  0  0  0  0  0  0  0  0  0  0  0
    7.0480   -0.3550   29.2810 C   0  0  0  0  0  0  0  0  0  0  0  0
    6.9850   -1.6790   28.5970 C   0  0  0  0  0  0  0  0  0  0  0  0
    5.7910   -4.8720   23.5670 C   0  0  0  0  0  0  0  0  0  0  0  0
    6.5690   -5.3760   22.3760 C   0  0  0  0  0  0  0  0  0  0  0  0
  1  2  1  0
  2  3  2  0
  2  4  1  0
  4  5  1  0
  5  6  1  0
  6  7  1  0
  7  8  1  0
  8  9  2  0
  8 10  1  0
 10 11  1  0
 11 12  2  0
 12 13  1  0
 13 14  2  0
 14 15  1  0
 15 16  1  0
 16 17  1  0
 17 18  1  0
 14 19  1  0
 11 20  1  0
 19 20  2  0
  7 21  1  0
  4 22  1  0
 21 22  1  0
M  END
