piperidine-amides-35507-covalent
     RDKit          3D

 34 37  0  0  0  0  0  0  0  0999 V2000
    7.0160   -3.3510   19.3100 C   0  0  0  0  0  0  0  0  0  0  0  0
    6.3350   -4.2020   20.3250 C   0  0  0  0  0  0  0  0  0  0  0  0
    5.3370   -4.8140   19.9600 O   0  0  0  0  0  0  0  0  0  0  0  0
    6.8430   -4.3220   21.6170 N   0  0  0  0  0  0  0  0  0  0  0  0
    6.6540   -5.5190   22.3870 C   0  0  0  0  0  0  0  0  0  0  0  0
    6.0590   -5.1600   23.7230 C   0  0  0  0  0  0  0  0  0  0  0  0
    5.8870   -3.6340   23.8690 C   0  0  0  0  0  0  0  0  0  0  0  0
    5.6680   -3.2590   25.2900 C   0  0  0  0  0  0  0  0  0  0  0  0
    4.7730   -2.4370   25.5040 O   0  0  0  0  0  0  0  0  0  0  0  0
    6.3860   -3.7780   26.4070 N   0  0  0  0  0  0  0  0  0  0  0  0
    5.6170   -4.0260   27.6100 C   0  0  0  0  0  0  0  0  0  0  0  0
    4.3200   -3.2380   27.7280 C   0  0  0  0  0  0  0  0  0  0  0  0
    3.7180   -3.5660   28.8480 C   0  0  0  0  0  0  0  0  0  0  0  0
    4.6170   -4.4340   29.2690 C   0  0  0  0  0  0  0  0  0  0  0  0
    3.4360   -4.4940   30.5270 S   0  0  0  0  0  0  0  0  0  0  0  0
    2.0850   -4.7670   29.9510 O   0  0  0  0  0  0  0  0  0  0  0  0
    3.8140   -5.5290   31.5490 O   0  0  0  0  0  0  0  0  0  0  0  0
    3.5410   -2.9510   31.3290 N   0  0  0  0  0  0  0  0  0  0  0  0
    3.9870   -1.7480   30.6530 C   0  0  0  0  0  0  0  0  0  0  0  0
    3.0910   -0.6080   31.1010 C   0  0  0  0  0  0  0  0  0  0  0  0
    2.1860   -0.8910   31.9000 O   0  0  0  0  0  0  0  0  0  0  0  0
    2.0500   -2.1500   32.5270 C   0  0  0  0  0  0  0  0  0  0  0  0
    3.2480   -3.0320   32.7410 C   0  0  0  0  0  0  0  0  0  0  0  0
    5.3180   -5.3490   29.9600 C   0  0  0  0  0  0  0  0  0  0  0  0
    6.0790   -5.0210   28.6780 C   0  0  0  0  0  0  0  0  0  0  0  0
    7.3350   -5.7530   28.5060 N   0  0  0  0  0  0  0  0  0  0  0  0
    8.1300   -5.3040   27.4630 C   0  0  0  0  0  0  0  0  0  0  0  0
    9.2860   -5.8800   26.9340 O   0  0  0  0  0  0  0  0  0  0  0  0
    7.7650   -4.0560   26.7480 C   0  0  1  0  0  0  0  0  0  0  0  0
    8.5660   -3.8560   25.5070 C   0  0  0  0  0  0  0  0  0  0  0  0
    8.2090   -4.5460   24.3950 C   0  0  0  0  0  0  0  0  0  0  0  0
    8.5730   -2.3650   25.2450 C   0  0  0  0  0  0  0  0  0  0  0  0
    6.9810   -2.6730   23.3500 C   0  0  0  0  0  0  0  0  0  0  0  0
    7.6660   -3.2540   22.1290 C   0  0  0  0  0  0  0  0  0  0  0  0
  1  2  1  0
  2  3  2  0
  2  4  1  0
  4  5  1  0
  5  6  1  0
  6  7  1  0
  7  8  1  0
  8  9  2  0
  8 10  1  0
 10 11  1  0
 11 12  2  0
 12 13  1  0
 13 14  2  0
 15 14  1  0
 15 16  2  0
 15 17  2  0
 15 18  1  0
 18 19  1  0
 19 20  1  0
 20 21  1  0
 21 22  1  0
 18 23  1  0
 22 23  1  0
 14 24  1  0
 11 25  1  0
 24 25  2  0
 25 26  1  0
 26 27  1  0
 27 28  2  0
 10 29  1  0
 27 29  1  0
 29 30  1  6
 30 31  1  0
 30 32  1  0
  7 33  1  0
  4 34  1  0
 33 34  1  0
M  END
