piperidine-amides-23679-covalent
     RDKit          3D

 24 25  0  0  0  0  0  0  0  0999 V2000
    7.1500   -3.2650   19.1320 C   0  0  0  0  0  0  0  0  0  0  0  0
    6.3640   -3.9990   20.1370 C   0  0  0  0  0  0  0  0  0  0  0  0
    5.2200   -4.3830   19.8050 O   0  0  0  0  0  0  0  0  0  0  0  0
    6.8980   -4.3300   21.4000 N   0  0  0  0  0  0  0  0  0  0  0  0
    6.3260   -5.4440   22.0680 C   0  0  0  0  0  0  0  0  0  0  0  0
    5.7610   -5.1010   23.3620 C   0  0  0  0  0  0  0  0  0  0  0  0
    6.4630   -3.9780   23.9950 C   0  0  0  0  0  0  0  0  0  0  0  0
    5.7420   -3.4490   25.1730 C   0  0  0  0  0  0  0  0  0  0  0  0
    4.5020   -3.5330   25.2700 O   0  0  0  0  0  0  0  0  0  0  0  0
    6.4890   -2.8360   26.1690 N   0  0  0  0  0  0  0  0  0  0  0  0
    6.9690   -1.5170   26.0940 C   0  0  0  0  0  0  0  0  0  0  0  0
    6.1690   -0.4930   25.4330 C   0  0  0  0  0  0  0  0  0  0  0  0
    6.7780   -3.5550   27.3710 C   0  0  2  0  0  0  0  0  0  0  0  0
    6.9300   -2.6010   28.3690 C   0  0  0  0  0  0  0  0  0  0  0  0
    5.4550   -2.5230   28.7590 C   0  0  0  0  0  0  0  0  0  0  0  0
    5.2730   -1.5070   29.8540 C   0  0  0  0  0  0  0  0  0  0  0  0
    6.5900   -0.8280   30.2940 C   0  0  0  0  0  0  0  0  0  0  0  0
    7.9340   -0.9800   29.8630 N   0  0  0  0  0  0  0  0  0  0  0  0
    8.0220   -1.9290   28.8460 C   0  0  0  0  0  0  0  0  0  0  0  0
    7.6340   -4.6800   27.2850 C   0  0  0  0  0  0  0  0  0  0  0  0
    8.6290   -5.2270   28.2920 C   0  0  0  0  0  0  0  0  0  0  0  0
    8.4440   -4.4190   26.0350 C   0  0  0  0  0  0  0  0  0  0  0  0
    6.7920   -2.8560   23.0730 C   0  0  0  0  0  0  0  0  0  0  0  0
    7.6560   -3.3490   22.1320 C   0  0  0  0  0  0  0  0  0  0  0  0
  1  2  1  0
  2  3  2  0
  2  4  1  0
  4  5  1  0
  5  6  1  0
  6  7  1  0
  7  8  1  0
  8  9  2  0
  8 10  1  0
 10 11  1  0
 11 12  1  0
 10 13  1  0
 13 14  1  0
 14 15  2  0
 15 16  1  0
 16 17  2  0
 17 18  1  0
 14 19  1  0
 18 19  2  0
 13 20  1  6
 20 21  1  0
 20 22  1  0
  7 23  1  0
  4 24  1  0
 23 24  1  0
M  END
