piperidine-amides-32478-covalent
     RDKit          3D

 24 26  0  0  0  0  0  0  0  0999 V2000
    7.0840   -3.3470   19.3940 C   0  0  0  0  0  0  0  0  0  0  0  0
    6.3400   -4.2000   20.3550 C   0  0  0  0  0  0  0  0  0  0  0  0
    5.3220   -4.8010   19.9670 O   0  0  0  0  0  0  0  0  0  0  0  0
    6.8440   -4.3480   21.6700 N   0  0  0  0  0  0  0  0  0  0  0  0
    6.7490   -5.6230   22.3640 C   0  0  0  0  0  0  0  0  0  0  0  0
    6.2550   -5.3550   23.7880 C   0  0  0  0  0  0  0  0  0  0  0  0
    6.1370   -3.8860   23.8860 C   0  0  0  0  0  0  0  0  0  0  0  0
    5.5390   -3.3890   25.1410 C   0  0  0  0  0  0  0  0  0  0  0  0
    4.5800   -2.6330   25.0040 O   0  0  0  0  0  0  0  0  0  0  0  0
    6.0040   -3.7450   26.3990 N   0  0  0  0  0  0  0  0  0  0  0  0
    5.3940   -4.7650   27.1650 C   0  0  0  0  0  0  0  0  0  0  0  0
    4.9430   -4.5920   28.4360 C   0  0  0  0  0  0  0  0  0  0  0  0
    5.6970   -3.7660   29.2160 C   0  0  0  0  0  0  0  0  0  0  0  0
    5.0390   -2.7030   29.8060 C   0  0  0  0  0  0  0  0  0  0  0  0
    4.0560   -2.9690   30.6980 N   0  0  0  0  0  0  0  0  0  0  0  0
    3.3350   -4.0850   30.9350 C   0  0  0  0  0  0  0  0  0  0  0  0
    2.3470   -3.8160   32.0810 C   0  0  0  0  0  0  0  0  0  0  0  0
    1.0470   -4.8930   32.9380 Br  0  0  0  0  0  0  0  0  0  0  0  0
    2.7690   -2.3670   32.3040 C   0  0  0  0  0  0  0  0  0  0  0  0
    3.7410   -1.9490   31.4860 N   0  0  0  0  0  0  0  0  0  0  0  0
    6.8120   -3.4010   28.5770 C   0  0  0  0  0  0  0  0  0  0  0  0
    6.4770   -2.7130   27.3060 C   0  0  0  0  0  0  0  0  0  0  0  0
    7.3980   -3.1600   23.5830 C   0  0  0  0  0  0  0  0  0  0  0  0
    7.6660   -3.3060   22.2530 C   0  0  0  0  0  0  0  0  0  0  0  0
  1  2  1  0
  2  3  2  0
  2  4  1  0
  4  5  1  0
  5  6  1  0
  6  7  1  0
  7  8  1  0
  8  9  2  0
  8 10  1  0
 10 11  1  0
 11 12  1  0
 12 13  1  0
 13 14  1  0
 14 15  1  0
 15 16  1  0
 16 17  2  0
 17 18  1  0
 17 19  1  0
 15 20  1  0
 19 20  2  0
 13 21  1  0
 10 22  1  0
 21 22  1  0
  7 23  1  0
  4 24  1  0
 23 24  1  0
M  END
