piperidine-amides-24512-covalent
     RDKit          3D

 24 26  0  0  0  0  0  0  0  0999 V2000
    7.0130   -3.3540   19.4450 C   0  0  0  0  0  0  0  0  0  0  0  0
    6.3620   -4.2610   20.4090 C   0  0  0  0  0  0  0  0  0  0  0  0
    5.4220   -4.9870   20.0150 O   0  0  0  0  0  0  0  0  0  0  0  0
    6.8020   -4.3420   21.7510 N   0  0  0  0  0  0  0  0  0  0  0  0
    6.6380   -5.5950   22.4790 C   0  0  0  0  0  0  0  0  0  0  0  0
    6.0940   -5.2670   23.8870 C   0  0  0  0  0  0  0  0  0  0  0  0
    5.9880   -3.7690   23.9230 C   0  0  0  0  0  0  0  0  0  0  0  0
    5.2260   -3.1580   25.0640 C   0  0  0  0  0  0  0  0  0  0  0  0
    4.4600   -2.2430   24.7330 O   0  0  0  0  0  0  0  0  0  0  0  0
    5.2710   -3.4980   26.4520 N   0  0  0  0  0  0  0  0  0  0  0  0
    6.4630   -3.3270   27.1400 C   0  0  0  0  0  0  0  0  0  0  0  0
    6.6390   -4.5250   28.0720 C   0  0  0  0  0  0  0  0  0  0  0  0
    5.4200   -4.7340   28.7960 N   0  0  0  0  0  0  0  0  0  0  0  0
    5.1810   -5.9650   29.4710 C   0  0  0  0  0  0  0  0  0  0  0  0
    5.0070   -6.0380   30.7560 N   0  0  0  0  0  0  0  0  0  0  0  0
    4.8650   -7.3130   31.0120 C   0  0  0  0  0  0  0  0  0  0  0  0
    5.5800   -7.8350   32.0860 C   0  0  0  0  0  0  0  0  0  0  0  0
    3.5130   -7.4510   31.1650 C   0  0  0  0  0  0  0  0  0  0  0  0
    5.0780   -7.9530   29.7570 C   0  0  0  0  0  0  0  0  0  0  0  0
    5.1320   -7.0490   28.8950 O   0  0  0  0  0  0  0  0  0  0  0  0
    4.4150   -3.7620   28.7410 C   0  0  0  0  0  0  0  0  0  0  0  0
    4.7630   -2.8330   27.6280 C   0  0  0  0  0  0  0  0  0  0  0  0
    7.3380   -3.1420   23.6880 C   0  0  0  0  0  0  0  0  0  0  0  0
    7.6410   -3.2950   22.3230 C   0  0  0  0  0  0  0  0  0  0  0  0
  1  2  1  0
  2  3  2  0
  2  4  1  0
  4  5  1  0
  5  6  1  0
  6  7  1  0
  7  8  1  0
  8  9  2  0
  8 10  1  0
 10 11  1  0
 11 12  1  0
 12 13  1  0
 13 14  1  0
 14 15  2  0
 15 16  1  0
 16 17  1  0
 16 18  1  0
 16 19  1  0
 14 20  1  0
 19 20  1  0
 13 21  1  0
 10 22  1  0
 21 22  1  0
  7 23  1  0
  4 24  1  0
 23 24  1  0
M  END
