piperidine-amides-27747-covalent
     RDKit          3D

 26 29  0  0  0  0  0  0  0  0999 V2000
    7.0200   -3.3720   19.3530 C   0  0  0  0  0  0  0  0  0  0  0  0
    6.3910   -4.2270   20.3860 C   0  0  0  0  0  0  0  0  0  0  0  0
    5.4070   -4.8940   20.0000 O   0  0  0  0  0  0  0  0  0  0  0  0
    6.9060   -4.3120   21.7050 N   0  0  0  0  0  0  0  0  0  0  0  0
    6.6760   -5.4990   22.4780 C   0  0  0  0  0  0  0  0  0  0  0  0
    6.2150   -5.2190   23.8450 C   0  0  0  0  0  0  0  0  0  0  0  0
    6.1760   -3.7770   24.1260 C   0  0  0  0  0  0  0  0  0  0  0  0
    5.6140   -3.4350   25.4750 C   0  0  0  0  0  0  0  0  0  0  0  0
    4.4620   -2.9690   25.4610 O   0  0  0  0  0  0  0  0  0  0  0  0
    6.2530   -3.5880   26.7370 N   0  0  0  0  0  0  0  0  0  0  0  0
    6.1170   -2.5530   27.7300 C   0  0  0  0  0  0  0  0  0  0  0  0
    5.5740   -3.3950   28.8080 C   0  0  1  0  0  0  0  0  0  0  0  0
    4.7060   -2.8850   29.5710 O   0  0  0  0  0  0  0  0  0  0  0  0
    4.9030   -4.5750   28.2250 C   0  0  2  0  0  0  0  0  0  0  0  0
    4.6380   -5.4700   29.3220 N   0  0  0  0  0  0  0  0  0  0  0  0
    3.7580   -5.2360   30.4240 C   0  0  0  0  0  0  0  0  0  0  0  0
    4.1610   -6.0890   31.4300 C   0  0  0  0  0  0  0  0  0  0  0  0
    3.6470   -6.2100   32.6870 C   0  0  0  0  0  0  0  0  0  0  0  0
    4.2110   -7.1400   33.5500 C   0  0  0  0  0  0  0  0  0  0  0  0
    5.2740   -7.9510   33.1810 C   0  0  0  0  0  0  0  0  0  0  0  0
    5.8230   -7.8550   31.9090 C   0  0  0  0  0  0  0  0  0  0  0  0
    5.1840   -6.8670   31.0760 C   0  0  0  0  0  0  0  0  0  0  0  0
    5.5370   -6.5180   29.6660 C   0  0  0  0  0  0  0  0  0  0  0  0
    5.9750   -4.8560   27.3890 C   0  0  0  0  0  0  0  0  0  0  0  0
    7.3810   -3.0430   23.7280 C   0  0  0  0  0  0  0  0  0  0  0  0
    7.7600   -3.2630   22.2710 C   0  0  0  0  0  0  0  0  0  0  0  0
  1  2  1  0
  2  3  2  0
  2  4  1  0
  4  5  1  0
  5  6  1  0
  6  7  1  0
  7  8  1  0
  8  9  2  0
  8 10  1  0
 10 11  1  0
 11 12  1  0
 12 13  1  6
 12 14  1  0
 14 15  1  1
 15 16  1  0
 16 17  1  0
 17 18  1  0
 18 19  2  0
 19 20  1  0
 20 21  2  0
 17 22  2  0
 21 22  1  0
 15 23  1  0
 22 23  1  0
 10 24  1  0
 14 24  1  0
  7 25  1  0
  4 26  1  0
 25 26  1  0
M  END
