piperidine-amides-21592-covalent
     RDKit          3D

 23 24  0  0  0  0  0  0  0  0999 V2000
    7.0610   -3.2790   19.2260 C   0  0  0  0  0  0  0  0  0  0  0  0
    6.3320   -4.0360   20.2530 C   0  0  0  0  0  0  0  0  0  0  0  0
    5.2650   -4.5910   19.8890 O   0  0  0  0  0  0  0  0  0  0  0  0
    6.8270   -4.1610   21.5490 N   0  0  0  0  0  0  0  0  0  0  0  0
    7.7070   -3.1660   22.1160 C   0  0  0  0  0  0  0  0  0  0  0  0
    7.2680   -2.8540   23.5170 C   0  0  0  0  0  0  0  0  0  0  0  0
    6.8600   -4.0840   24.2970 C   0  0  0  0  0  0  0  0  0  0  0  0
    6.0700   -3.6550   25.4700 C   0  0  0  0  0  0  0  0  0  0  0  0
    4.8350   -3.8730   25.4590 O   0  0  0  0  0  0  0  0  0  0  0  0
    6.6110   -2.9790   26.5860 N   0  0  0  0  0  0  0  0  0  0  0  0
    7.3030   -3.7060   27.6380 C   0  0  0  0  0  0  0  0  0  0  0  0
    7.7160   -5.1270   27.2440 C   0  0  0  0  0  0  0  0  0  0  0  0
    7.7240   -6.0150   28.1350 O   0  0  0  0  0  0  0  0  0  0  0  0
    6.1030   -1.6970   26.9360 C   0  0  2  0  0  0  0  0  0  0  0  0
    6.2960   -0.7250   25.9830 C   0  0  0  0  0  0  0  0  0  0  0  0
    6.5090   -1.3190   28.1920 C   0  0  0  0  0  0  0  0  0  0  0  0
    5.5430   -0.8390   29.0800 C   0  0  0  0  0  0  0  0  0  0  0  0
    5.7710   -0.4010   30.3780 C   0  0  0  0  0  0  0  0  0  0  0  0
    7.1280   -0.3790   31.0350 C   0  0  0  0  0  0  0  0  0  0  0  0
    8.1570   -0.9100   30.0560 C   0  0  0  0  0  0  0  0  0  0  0  0
    7.7860   -1.3560   28.6740 C   0  0  0  0  0  0  0  0  0  0  0  0
    5.9790   -5.0040   23.4870 C   0  0  0  0  0  0  0  0  0  0  0  0
    6.6250   -5.3760   22.3320 C   0  0  0  0  0  0  0  0  0  0  0  0
  1  2  1  0
  2  3  2  0
  2  4  1  0
  4  5  1  0
  5  6  1  0
  6  7  1  0
  7  8  1  0
  8  9  2  0
  8 10  1  0
 10 11  1  0
 11 12  1  0
 12 13  1  0
 10 14  1  0
 14 15  1  6
 14 16  1  0
 16 17  2  0
 17 18  1  0
 18 19  2  0
 19 20  1  0
 16 21  1  0
 20 21  2  0
  7 22  1  0
  4 23  1  0
 22 23  1  0
M  END
