piperidine-amides-6311-covalent
     RDKit          3D

 25 26  0  0  0  0  0  0  0  0999 V2000
    7.1120   -3.2570   19.2600 C   0  0  0  0  0  0  0  0  0  0  0  0
    6.3420   -4.0800   20.2080 C   0  0  0  0  0  0  0  0  0  0  0  0
    5.2430   -4.5640   19.8800 O   0  0  0  0  0  0  0  0  0  0  0  0
    6.8560   -4.3870   21.4710 N   0  0  0  0  0  0  0  0  0  0  0  0
    7.6340   -3.4040   22.1760 C   0  0  0  0  0  0  0  0  0  0  0  0
    6.7650   -2.9570   23.3370 C   0  0  0  0  0  0  0  0  0  0  0  0
    6.4250   -4.2070   24.1080 C   0  0  0  0  0  0  0  0  0  0  0  0
    5.6620   -3.7990   25.2870 C   0  0  0  0  0  0  0  0  0  0  0  0
    4.4640   -4.1280   25.4040 O   0  0  0  0  0  0  0  0  0  0  0  0
    6.3170   -3.0120   26.2330 N   0  0  0  0  0  0  0  0  0  0  0  0
    6.5390   -1.6660   25.8500 C   0  0  0  0  0  0  0  0  0  0  0  0
    7.8750   -1.5680   25.1450 C   0  0  0  0  0  0  0  0  0  0  0  0
    9.0710   -2.1310   25.5380 C   0  0  0  0  0  0  0  0  0  0  0  0
   10.2800   -1.9880   24.9040 C   0  0  0  0  0  0  0  0  0  0  0  0
   10.4290   -1.2330   23.7640 C   0  0  0  0  0  0  0  0  0  0  0  0
   11.9930   -1.0360   23.0570 S   0  0  0  0  0  0  0  0  0  0  0  0
   13.0570   -3.0380   22.9550 F   0  0  0  0  0  0  0  0  0  0  0  0
   13.4520   -0.0400   23.7580 F   0  0  0  0  0  0  0  0  0  0  0  0
   12.4820   -1.8910   21.3700 F   0  0  0  0  0  0  0  0  0  0  0  0
   13.0520   -1.8870   24.6620 F   0  0  0  0  0  0  0  0  0  0  0  0
   12.1730    0.1030   22.1850 F   0  0  0  0  0  0  0  0  0  0  0  0
    9.3170   -0.6440   23.2540 C   0  0  0  0  0  0  0  0  0  0  0  0
    7.9520   -0.7430   23.8650 C   0  0  0  0  0  0  0  0  0  0  0  0
    5.7020   -5.2180   23.2880 C   0  0  0  0  0  0  0  0  0  0  0  0
    6.5430   -5.6380   22.1300 C   0  0  0  0  0  0  0  0  0  0  0  0
  1  2  1  0
  2  3  2  0
  2  4  1  0
  4  5  1  0
  5  6  1  0
  6  7  1  0
  7  8  1  0
  8  9  2  0
  8 10  1  0
 10 11  1  0
 11 12  1  0
 12 13  2  0
 13 14  1  0
 14 15  2  0
 15 16  1  0
 16 17  1  0
 16 18  1  0
 16 19  1  0
 16 20  1  0
 16 21  1  0
 15 22  1  0
 12 23  1  0
 22 23  2  0
  7 24  1  0
  4 25  1  0
 24 25  1  0
M  END
