piperidine-amides-12483-covalent
     RDKit          3D

 23 24  0  0  0  0  0  0  0  0999 V2000
    7.0570   -3.3290   19.3590 C   0  0  0  0  0  0  0  0  0  0  0  0
    6.3690   -4.1710   20.3350 C   0  0  0  0  0  0  0  0  0  0  0  0
    5.3980   -4.8430   19.9840 O   0  0  0  0  0  0  0  0  0  0  0  0
    6.8470   -4.2490   21.6930 N   0  0  0  0  0  0  0  0  0  0  0  0
    7.7260   -3.2170   22.2040 C   0  0  0  0  0  0  0  0  0  0  0  0
    7.4220   -2.9380   23.6460 C   0  0  0  0  0  0  0  0  0  0  0  0
    6.1090   -3.6240   23.9420 C   0  0  0  0  0  0  0  0  0  0  0  0
    5.6160   -3.2260   25.2920 C   0  0  0  0  0  0  0  0  0  0  0  0
    4.4020   -3.2130   25.5710 O   0  0  0  0  0  0  0  0  0  0  0  0
    6.5460   -2.8460   26.2890 N   0  0  0  0  0  0  0  0  0  0  0  0
    6.4130   -1.5650   26.9480 C   0  0  0  0  0  0  0  0  0  0  0  0
    7.0270   -1.6060   28.3390 C   0  0  0  0  0  0  0  0  0  0  0  0
    7.0430   -0.5130   29.1990 C   0  0  0  0  0  0  0  0  0  0  0  0
    7.5450   -0.3390   30.4840 C   0  0  0  0  0  0  0  0  0  0  0  0
    6.3690    0.7470   28.5980 C   0  0  0  0  0  0  0  0  0  0  0  0
    5.8040    0.7170   27.2760 C   0  0  0  0  0  0  0  0  0  0  0  0
    5.2320    1.7140   26.7210 O   0  0  0  0  0  0  0  0  0  0  0  0
    4.0130    2.0190   27.3330 C   0  0  0  0  0  0  0  0  0  0  0  0
    4.1670    3.2750   27.8830 C   0  0  0  0  0  0  0  0  0  0  0  0
    3.8490    4.2900   27.2120 O   0  0  0  0  0  0  0  0  0  0  0  0
    5.8430   -0.4120   26.5050 C   0  0  0  0  0  0  0  0  0  0  0  0
    6.0950   -5.0640   23.7350 C   0  0  0  0  0  0  0  0  0  0  0  0
    6.6380   -5.4280   22.5050 C   0  0  0  0  0  0  0  0  0  0  0  0
  1  2  1  0
  2  3  2  0
  2  4  1  0
  4  5  1  0
  5  6  1  0
  6  7  1  0
  7  8  1  0
  8  9  2  0
  8 10  1  0
 10 11  1  0
 11 12  2  0
 12 13  1  0
 13 14  1  0
 13 15  2  0
 15 16  1  0
 16 17  1  0
 17 18  1  0
 18 19  1  0
 19 20  1  0
 11 21  1  0
 16 21  2  0
  7 22  1  0
  4 23  1  0
 22 23  1  0
M  END
