piperidine-amides-32821-covalent
     RDKit          3D

 29 32  0  0  0  0  0  0  0  0999 V2000
    7.0000   -3.3300   19.3490 C   0  0  0  0  0  0  0  0  0  0  0  0
    6.3080   -4.2250   20.3200 C   0  0  0  0  0  0  0  0  0  0  0  0
    5.2970   -4.8370   19.9580 O   0  0  0  0  0  0  0  0  0  0  0  0
    6.8300   -4.4040   21.6140 N   0  0  0  0  0  0  0  0  0  0  0  0
    6.6890   -5.6720   22.3060 C   0  0  0  0  0  0  0  0  0  0  0  0
    6.2320   -5.4450   23.7640 C   0  0  0  0  0  0  0  0  0  0  0  0
    6.1380   -3.9870   24.0360 C   0  0  0  0  0  0  0  0  0  0  0  0
    5.7320   -3.6010   25.4150 C   0  0  0  0  0  0  0  0  0  0  0  0
    4.6330   -3.0400   25.4720 O   0  0  0  0  0  0  0  0  0  0  0  0
    6.4970   -3.8360   26.5820 N   0  0  0  0  0  0  0  0  0  0  0  0
    6.1010   -3.3710   27.8250 C   0  0  0  0  0  0  0  0  0  0  0  0
    5.9420   -4.4040   28.6900 C   0  0  1  0  0  0  0  0  0  0  0  0
    4.7770   -4.3470   29.4710 C   0  0  0  0  0  0  0  0  0  0  0  0
    3.9330   -5.4050   29.7520 C   0  0  0  0  0  0  0  0  0  0  0  0
    2.9280   -4.9420   30.5290 N   0  0  0  0  0  0  0  0  0  0  0  0
    3.2020   -3.6440   30.6840 C   0  0  0  0  0  0  0  0  0  0  0  0
    4.3130   -3.2260   30.0640 N   0  0  0  0  0  0  0  0  0  0  0  0
    4.8100   -1.9040   30.0790 C   0  0  0  0  0  0  0  0  0  0  0  0
    6.1640   -5.6610   28.1590 C   0  0  2  0  0  0  0  0  0  0  0  0
    6.8990   -6.5600   28.9440 C   0  0  0  0  0  0  0  0  0  0  0  0
    6.5190   -7.8920   29.0290 N   0  0  0  0  0  0  0  0  0  0  0  0
    6.7850   -8.7250   30.1210 C   0  0  0  0  0  0  0  0  0  0  0  0
    6.2050   -8.5000   31.2020 O   0  0  0  0  0  0  0  0  0  0  0  0
    7.9160   -9.9680   30.1480 C   0  0  0  0  0  0  0  0  0  0  0  0
    8.2150  -11.0990   29.4860 C   0  0  0  0  0  0  0  0  0  0  0  0
    7.9450  -11.1810   31.0140 C   0  0  0  0  0  0  0  0  0  0  0  0
    6.8090   -5.2420   26.9770 C   0  0  0  0  0  0  0  0  0  0  0  0
    7.4320   -3.3350   23.6880 C   0  0  0  0  0  0  0  0  0  0  0  0
    7.5960   -3.3240   22.2280 C   0  0  0  0  0  0  0  0  0  0  0  0
  1  2  1  0
  2  3  2  0
  2  4  1  0
  4  5  1  0
  5  6  1  0
  6  7  1  0
  7  8  1  0
  8  9  2  0
  8 10  1  0
 10 11  1  0
 11 12  1  0
 12 13  1  6
 13 14  2  0
 14 15  1  0
 15 16  2  0
 13 17  1  0
 16 17  1  0
 17 18  1  0
 12 19  1  0
 19 20  1  1
 20 21  1  0
 21 22  1  0
 22 23  2  0
 22 24  1  0
 24 25  1  0
 24 26  1  0
 25 26  1  0
 10 27  1  0
 19 27  1  0
  7 28  1  0
  4 29  1  0
 28 29  1  0
M  END
