piperidine-amides-23576-covalent
     RDKit          3D

 24 26  0  0  0  0  0  0  0  0999 V2000
    7.0450   -3.3680   19.3390 C   0  0  0  0  0  0  0  0  0  0  0  0
    6.4080   -4.2250   20.3530 C   0  0  0  0  0  0  0  0  0  0  0  0
    5.3800   -4.8440   19.9840 O   0  0  0  0  0  0  0  0  0  0  0  0
    6.9580   -4.3950   21.6570 N   0  0  0  0  0  0  0  0  0  0  0  0
    6.5360   -5.5040   22.4260 C   0  0  0  0  0  0  0  0  0  0  0  0
    6.1700   -5.1860   23.8140 C   0  0  0  0  0  0  0  0  0  0  0  0
    6.3840   -3.8000   24.3210 C   0  0  0  0  0  0  0  0  0  0  0  0
    5.2610   -3.4180   25.2690 C   0  0  0  0  0  0  0  0  0  0  0  0
    4.1170   -3.3060   24.8080 O   0  0  0  0  0  0  0  0  0  0  0  0
    5.4310   -3.1730   26.6590 N   0  0  0  0  0  0  0  0  0  0  0  0
    6.5420   -2.8600   27.2570 C   0  0  0  0  0  0  0  0  0  0  0  0
    6.5840   -3.6990   28.4450 C   0  0  0  0  0  0  0  0  0  0  0  0
    5.7880   -5.0290   28.1760 C   0  0  1  0  0  0  0  0  0  0  0  0
    5.6220   -5.5760   29.4320 O   0  0  0  0  0  0  0  0  0  0  0  0
    5.0090   -6.8220   29.3270 C   0  0  0  0  0  0  0  0  0  0  0  0
    3.5620   -6.6570   29.8110 C   0  0  0  0  0  0  0  0  0  0  0  0
    3.5320   -5.2230   30.2260 C   0  0  0  0  0  0  0  0  0  0  0  0
    2.0910   -5.0580   30.7040 C   0  0  0  0  0  0  0  0  0  0  0  0
    1.0360   -6.1270   30.7170 C   0  0  0  0  0  0  0  0  0  0  0  0
    1.2840   -7.4480   30.2700 N   0  0  0  0  0  0  0  0  0  0  0  0
    2.5230   -7.7260   29.8200 C   0  0  0  0  0  0  0  0  0  0  0  0
    4.7700   -3.9950   27.6260 C   0  0  0  0  0  0  0  0  0  0  0  0
    6.5910   -2.8030   23.2130 C   0  0  0  0  0  0  0  0  0  0  0  0
    7.5870   -3.3250   22.3870 C   0  0  0  0  0  0  0  0  0  0  0  0
  1  2  1  0
  2  3  2  0
  2  4  1  0
  4  5  1  0
  5  6  1  0
  6  7  1  0
  7  8  1  0
  8  9  2  0
  8 10  1  0
 10 11  1  0
 11 12  1  0
 12 13  1  0
 13 14  1  1
 14 15  1  0
 15 16  1  0
 16 17  2  0
 17 18  1  0
 18 19  2  0
 19 20  1  0
 16 21  1  0
 20 21  2  0
 10 22  1  0
 13 22  1  0
  7 23  1  0
  4 24  1  0
 23 24  1  0
M  END
