piperidine-amides-35262-covalent
     RDKit          3D

 33 37  0  0  0  0  0  0  0  0999 V2000
    7.0190   -3.3510   19.3570 C   0  0  0  0  0  0  0  0  0  0  0  0
    6.3610   -4.2260   20.3660 C   0  0  0  0  0  0  0  0  0  0  0  0
    5.3780   -4.8570   19.9820 O   0  0  0  0  0  0  0  0  0  0  0  0
    6.8720   -4.3500   21.6670 N   0  0  0  0  0  0  0  0  0  0  0  0
    6.7490   -5.5910   22.3940 C   0  0  0  0  0  0  0  0  0  0  0  0
    6.2970   -5.3060   23.7950 C   0  0  0  0  0  0  0  0  0  0  0  0
    6.1520   -3.7990   23.9640 C   0  0  0  0  0  0  0  0  0  0  0  0
    5.5850   -3.4850   25.2970 C   0  0  0  0  0  0  0  0  0  0  0  0
    4.4950   -2.9030   25.3220 O   0  0  0  0  0  0  0  0  0  0  0  0
    6.1910   -3.7900   26.5370 N   0  0  0  0  0  0  0  0  0  0  0  0
    6.0470   -5.1820   27.0040 C   0  0  0  0  0  0  0  0  0  0  0  0
    6.1670   -5.2230   28.5040 C   0  0  0  0  0  0  0  0  0  0  0  0
    5.4120   -4.2940   29.1030 C   0  0  0  0  0  0  0  0  0  0  0  0
    4.2540   -4.5040   29.8200 C   0  0  0  0  0  0  0  0  0  0  0  0
    3.6770   -5.7150   30.0830 C   0  0  0  0  0  0  0  0  0  0  0  0
    3.8710   -6.7050   31.2120 C   0  0  0  0  0  0  0  0  0  0  0  0
    2.9570   -7.9010   31.0660 C   0  0  0  0  0  0  0  0  0  0  0  0
    1.9930   -8.0130   29.8940 C   0  0  0  0  0  0  0  0  0  0  0  0
    0.9330   -9.3960   29.7530 Cl  0  0  0  0  0  0  0  0  0  0  0  0
    1.9770   -6.9180   28.8860 C   0  0  0  0  0  0  0  0  0  0  0  0
    2.7940   -5.6850   28.8690 C   0  0  0  0  0  0  0  0  0  0  0  0
    2.7920   -4.5530   27.8500 C   0  0  0  0  0  0  0  0  0  0  0  0
    1.9630   -3.3850   28.2460 C   0  0  0  0  0  0  0  0  0  0  0  0
    2.3720   -2.9830   29.6330 C   0  0  0  0  0  0  0  0  0  0  0  0
    1.6510   -2.0020   30.3050 C   0  0  0  0  0  0  0  0  0  0  0  0
    1.9550   -1.5220   31.6820 C   0  0  0  0  0  0  0  0  0  0  0  0
    3.1200   -2.1520   32.3770 C   0  0  0  0  0  0  0  0  0  0  0  0
    3.8160   -3.0910   31.7430 N   0  0  0  0  0  0  0  0  0  0  0  0
    3.4520   -3.5090   30.3790 C   0  0  0  0  0  0  0  0  0  0  0  0
    5.8720   -3.1100   28.8850 C   0  0  0  0  0  0  0  0  0  0  0  0
    6.1970   -2.6540   27.4680 C   0  0  0  0  0  0  0  0  0  0  0  0
    7.4890   -3.1620   23.7120 C   0  0  0  0  0  0  0  0  0  0  0  0
    7.7220   -3.2840   22.2130 C   0  0  0  0  0  0  0  0  0  0  0  0
  1  2  1  0
  2  3  2  0
  2  4  1  0
  4  5  1  0
  5  6  1  0
  6  7  1  0
  7  8  1  0
  8  9  2  0
  8 10  1  0
 10 11  1  0
 11 12  1  0
 12 13  1  0
 13 14  2  3
 14 15  1  0
 15 16  2  0
 16 17  1  0
 17 18  2  0
 18 19  1  0
 18 20  1  0
 15 21  1  0
 20 21  2  0
 21 22  1  0
 22 23  1  0
 23 24  1  0
 24 25  1  0
 25 26  2  0
 26 27  1  0
 27 28  2  0
 14 29  1  0
 24 29  2  0
 28 29  1  0
 13 30  1  0
 10 31  1  0
 30 31  1  0
  7 32  1  0
  4 33  1  0
 32 33  1  0
M  END
