piperidine-amides-3327-covalent
     RDKit          3D

 21 22  0  0  0  0  0  0  0  0999 V2000
    7.1060   -3.3740   19.2860 C   0  0  0  0  0  0  0  0  0  0  0  0
    6.3480   -4.1320   20.2650 C   0  0  0  0  0  0  0  0  0  0  0  0
    5.3010   -4.6850   19.9380 O   0  0  0  0  0  0  0  0  0  0  0  0
    6.8780   -4.2780   21.5880 N   0  0  0  0  0  0  0  0  0  0  0  0
    6.5340   -5.4240   22.3920 C   0  0  0  0  0  0  0  0  0  0  0  0
    5.8450   -5.0040   23.6730 C   0  0  0  0  0  0  0  0  0  0  0  0
    6.5860   -3.8270   24.3080 C   0  0  0  0  0  0  0  0  0  0  0  0
    5.8070   -3.3150   25.4530 C   0  0  0  0  0  0  0  0  0  0  0  0
    4.5760   -3.1200   25.3950 O   0  0  0  0  0  0  0  0  0  0  0  0
    6.4980   -3.0380   26.6470 N   0  0  0  0  0  0  0  0  0  0  0  0
    6.4210   -1.6960   27.1730 C   0  0  0  0  0  0  0  0  0  0  0  0
    7.0440   -1.6490   28.5300 C   0  0  0  0  0  0  0  0  0  0  0  0
    7.0990   -0.4920   29.2690 C   0  0  0  0  0  0  0  0  0  0  0  0
    7.6310   -0.2520   30.5350 C   0  0  0  0  0  0  0  0  0  0  0  0
    6.4680    0.7650   28.5950 C   0  0  0  0  0  0  0  0  0  0  0  0
    6.4340    2.4670   29.4520 Br  0  0  0  0  0  0  0  0  0  0  0  0
    5.8710    0.6870   27.2610 C   0  0  0  0  0  0  0  0  0  0  0  0
    5.3010    1.7450   26.5970 C   0  0  0  0  0  0  0  0  0  0  0  0
    5.9030   -0.5370   26.6740 C   0  0  0  0  0  0  0  0  0  0  0  0
    6.9390   -2.7300   23.3860 C   0  0  0  0  0  0  0  0  0  0  0  0
    7.5490   -3.1660   22.1520 C   0  0  0  0  0  0  0  0  0  0  0  0
  1  2  1  0
  2  3  2  0
  2  4  1  0
  4  5  1  0
  5  6  1  0
  6  7  1  0
  7  8  1  0
  8  9  2  0
  8 10  1  0
 10 11  1  0
 11 12  2  0
 12 13  1  0
 13 14  1  0
 13 15  2  0
 15 16  1  0
 15 17  1  0
 17 18  1  0
 11 19  1  0
 17 19  2  0
  7 20  1  0
  4 21  1  0
 20 21  1  0
M  END
