piperidine-amides-23453-covalent
     RDKit          3D

 24 26  0  0  0  0  0  0  0  0999 V2000
    7.0590   -3.3520   19.3560 C   0  0  0  0  0  0  0  0  0  0  0  0
    6.4100   -4.2140   20.3590 C   0  0  0  0  0  0  0  0  0  0  0  0
    5.3830   -4.8310   19.9810 O   0  0  0  0  0  0  0  0  0  0  0  0
    6.9510   -4.3850   21.6650 N   0  0  0  0  0  0  0  0  0  0  0  0
    6.5280   -5.4920   22.4430 C   0  0  0  0  0  0  0  0  0  0  0  0
    6.0830   -5.1530   23.7970 C   0  0  0  0  0  0  0  0  0  0  0  0
    6.4150   -3.7950   24.3010 C   0  0  0  0  0  0  0  0  0  0  0  0
    5.3160   -3.2780   25.2060 C   0  0  0  0  0  0  0  0  0  0  0  0
    4.3090   -2.7940   24.6800 O   0  0  0  0  0  0  0  0  0  0  0  0
    5.3780   -3.3130   26.6300 N   0  0  0  0  0  0  0  0  0  0  0  0
    6.4880   -3.2670   27.3960 C   0  0  0  0  0  0  0  0  0  0  0  0
    6.7250   -4.4180   28.2600 C   0  0  0  0  0  0  0  0  0  0  0  0
    5.4270   -4.6540   28.9670 C   0  0  1  0  0  0  0  0  0  0  0  0
    5.1290   -3.3870   29.4150 O   0  0  0  0  0  0  0  0  0  0  0  0
    4.4370   -5.0800   28.1170 C   0  0  0  0  0  0  0  0  0  0  0  0
    4.2270   -3.7110   27.4310 C   0  0  2  0  0  0  0  0  0  0  0  0
    3.2260   -4.3220   26.4970 C   0  0  0  0  0  0  0  0  0  0  0  0
    2.1660   -3.2390   26.4850 C   0  0  0  0  0  0  0  0  0  0  0  0
    0.9170   -3.3730   25.6750 C   0  0  0  0  0  0  0  0  0  0  0  0
    0.7890   -4.6620   24.8680 C   0  0  0  0  0  0  0  0  0  0  0  0
    1.9020   -5.7530   24.9050 C   0  0  0  0  0  0  0  0  0  0  0  0
    3.1010   -5.4810   25.7670 C   0  0  0  0  0  0  0  0  0  0  0  0
    6.7450   -2.8080   23.2200 C   0  0  0  0  0  0  0  0  0  0  0  0
    7.6620   -3.3250   22.3270 C   0  0  0  0  0  0  0  0  0  0  0  0
  1  2  1  0
  2  3  2  0
  2  4  1  0
  4  5  1  0
  5  6  1  0
  6  7  1  0
  7  8  1  0
  8  9  2  0
  8 10  1  0
 10 11  1  0
 11 12  1  0
 12 13  1  0
 13 14  1  6
 13 15  1  0
 10 16  1  0
 15 16  1  0
 16 17  1  6
 17 18  2  0
 18 19  1  0
 19 20  2  0
 20 21  1  0
 17 22  1  0
 21 22  2  0
  7 23  1  0
  4 24  1  0
 23 24  1  0
M  END
