piperidine-amides-34933-covalent
     RDKit          3D

 28 31  0  0  0  0  0  0  0  0999 V2000
    7.0490   -3.3420   19.3480 C   0  0  0  0  0  0  0  0  0  0  0  0
    6.3870   -4.2250   20.3420 C   0  0  0  0  0  0  0  0  0  0  0  0
    5.3640   -4.7950   19.9670 O   0  0  0  0  0  0  0  0  0  0  0  0
    6.9360   -4.4340   21.6150 N   0  0  0  0  0  0  0  0  0  0  0  0
    6.4830   -5.5390   22.3990 C   0  0  0  0  0  0  0  0  0  0  0  0
    5.5540   -4.9880   23.4430 C   0  0  0  0  0  0  0  0  0  0  0  0
    6.3010   -4.0130   24.3610 C   0  0  0  0  0  0  0  0  0  0  0  0
    5.3190   -3.4080   25.3070 C   0  0  0  0  0  0  0  0  0  0  0  0
    4.4180   -2.7040   24.8500 O   0  0  0  0  0  0  0  0  0  0  0  0
    5.3720   -3.6060   26.7110 N   0  0  0  0  0  0  0  0  0  0  0  0
    4.2090   -3.3720   27.5260 C   0  0  0  0  0  0  0  0  0  0  0  0
    4.6190   -3.1990   28.9860 C   0  0  0  0  0  0  0  0  0  0  0  0
    5.5190   -4.2870   29.3400 N   0  0  0  0  0  0  0  0  0  0  0  0
    4.5990   -5.3010   29.8800 C   0  0  0  0  0  0  0  0  0  0  0  0
    5.1490   -6.0660   28.9180 N   0  0  0  0  0  0  0  0  0  0  0  0
    4.5620   -7.3160   28.9640 C   0  0  0  0  0  0  0  0  0  0  0  0
    3.5740   -7.6280   29.8870 C   0  0  0  0  0  0  0  0  0  0  0  0
    3.0090   -6.7120   30.9400 C   0  0  0  0  0  0  0  0  0  0  0  0
    1.9310   -7.2970   31.8260 C   0  0  0  0  0  0  0  0  0  0  0  0
    1.2640   -9.0850   31.6750 Br  0  0  0  0  0  0  0  0  0  0  0  0
    1.4130   -6.2990   32.8730 C   0  0  0  0  0  0  0  0  0  0  0  0
    1.9780   -4.9000   32.9340 C   0  0  0  0  0  0  0  0  0  0  0  0
    3.0350   -4.4490   32.0000 C   0  0  0  0  0  0  0  0  0  0  0  0
    3.5770   -5.3750   30.9650 C   0  0  0  0  0  0  0  0  0  0  0  0
    6.5840   -4.5210   28.4270 C   0  0  0  0  0  0  0  0  0  0  0  0
    6.4760   -3.3070   27.5170 C   0  0  0  0  0  0  0  0  0  0  0  0
    6.9520   -2.9110   23.5360 C   0  0  0  0  0  0  0  0  0  0  0  0
    7.6270   -3.3550   22.2570 C   0  0  0  0  0  0  0  0  0  0  0  0
  1  2  1  0
  2  3  2  0
  2  4  1  0
  4  5  1  0
  5  6  1  0
  6  7  1  0
  7  8  1  0
  8  9  2  0
  8 10  1  0
 10 11  1  0
 11 12  1  0
 12 13  1  0
 13 14  1  0
 14 15  2  0
 15 16  1  0
 16 17  2  0
 17 18  1  0
 18 19  1  0
 19 20  1  0
 19 21  2  0
 21 22  1  0
 22 23  2  0
 14 24  1  0
 18 24  2  0
 23 24  1  0
 13 25  1  0
 10 26  1  0
 25 26  1  0
  7 27  1  0
  4 28  1  0
 27 28  1  0
M  END
