piperidine-amides-8240-covalent
     RDKit          3D

 25 27  0  0  0  0  0  0  0  0999 V2000
    7.0900   -3.3430   19.3450 C   0  0  0  0  0  0  0  0  0  0  0  0
    6.3720   -4.1450   20.3240 C   0  0  0  0  0  0  0  0  0  0  0  0
    5.3320   -4.7170   19.9520 O   0  0  0  0  0  0  0  0  0  0  0  0
    6.8840   -4.3100   21.6380 N   0  0  0  0  0  0  0  0  0  0  0  0
    6.5160   -5.4940   22.3640 C   0  0  0  0  0  0  0  0  0  0  0  0
    6.3410   -5.1930   23.8310 C   0  0  0  0  0  0  0  0  0  0  0  0
    6.0870   -3.7070   23.9970 C   0  0  0  0  0  0  0  0  0  0  0  0
    5.6400   -3.3840   25.3900 C   0  0  0  0  0  0  0  0  0  0  0  0
    4.5160   -3.7870   25.6720 O   0  0  0  0  0  0  0  0  0  0  0  0
    6.4390   -2.6520   26.2650 N   0  0  0  0  0  0  0  0  0  0  0  0
    5.7980   -1.7460   27.1610 C   0  0  2  0  0  0  0  0  0  0  0  0
    5.6880   -0.4000   26.7260 C   0  0  0  0  0  0  0  0  0  0  0  0
    5.1310    0.5940   27.5210 C   0  0  0  0  0  0  0  0  0  0  0  0
    4.9250    1.3250   28.6540 O   0  0  0  0  0  0  0  0  0  0  0  0
    6.0450   -0.0780   28.4010 N   0  0  0  0  0  0  0  0  0  0  0  0
    5.9590    0.4940   29.7070 C   0  0  0  0  0  0  0  0  0  0  0  0
    6.8560    1.6920   29.8180 C   0  0  0  0  0  0  0  0  0  0  0  0
    6.8460    2.2370   31.2630 C   0  0  0  0  0  0  0  0  0  0  0  0
    5.9140    1.5950   31.9580 N   0  0  0  0  0  0  0  0  0  0  0  0
    4.6740    2.2500   32.1820 C   0  0  0  0  0  0  0  0  0  0  0  0
    6.1830    0.1880   32.1780 C   0  0  0  0  0  0  0  0  0  0  0  0
    6.1860   -0.4210   30.7450 C   0  0  0  0  0  0  0  0  0  0  0  0
    6.7050   -1.3410   28.2940 C   0  0  0  0  0  0  0  0  0  0  0  0
    7.3600   -3.0200   23.6340 C   0  0  0  0  0  0  0  0  0  0  0  0
    7.6880   -3.2370   22.1920 C   0  0  0  0  0  0  0  0  0  0  0  0
  1  2  1  0
  2  3  2  0
  2  4  1  0
  4  5  1  0
  5  6  1  0
  6  7  1  0
  7  8  1  0
  8  9  2  0
  8 10  1  0
 11 10  1  6
 11 12  1  0
 12 13  1  0
 13 14  2  0
 13 15  1  0
 15 16  1  0
 16 17  1  0
 17 18  1  0
 18 19  1  0
 19 20  1  0
 19 21  1  0
 16 22  1  0
 21 22  1  0
 11 23  1  0
 15 23  1  0
  7 24  1  0
  4 25  1  0
 24 25  1  0
M  END
