piperidine-amides-9222-covalent
     RDKit          3D

 20 20  0  0  0  0  0  0  0  0999 V2000
    7.0940   -3.2850   19.2390 C   0  0  0  0  0  0  0  0  0  0  0  0
    6.3540   -4.0540   20.2490 C   0  0  0  0  0  0  0  0  0  0  0  0
    5.3060   -4.6340   19.9130 O   0  0  0  0  0  0  0  0  0  0  0  0
    6.8190   -4.1850   21.5650 N   0  0  0  0  0  0  0  0  0  0  0  0
    6.7050   -5.4240   22.3080 C   0  0  0  0  0  0  0  0  0  0  0  0
    6.0220   -5.0660   23.6000 C   0  0  0  0  0  0  0  0  0  0  0  0
    6.0510   -3.5880   23.8290 C   0  0  0  0  0  0  0  0  0  0  0  0
    5.5900   -3.1960   25.1740 C   0  0  0  0  0  0  0  0  0  0  0  0
    4.4170   -2.7540   25.3370 O   0  0  0  0  0  0  0  0  0  0  0  0
    6.3970   -3.2950   26.3170 N   0  0  0  0  0  0  0  0  0  0  0  0
    5.8880   -4.0150   27.4990 C   0  0  0  0  0  0  0  0  0  0  0  0
    4.5380   -3.4710   27.7560 C   0  0  0  0  0  0  0  0  0  0  0  0
    6.6850   -3.6520   28.7350 C   0  0  0  0  0  0  0  0  0  0  0  0
    5.8080   -5.5180   27.3530 C   0  0  0  0  0  0  0  0  0  0  0  0
    4.6190   -5.8540   28.2270 C   0  0  0  0  0  0  0  0  0  0  0  0
    4.7680   -7.1640   28.8500 N   0  0  0  0  0  0  0  0  0  0  0  0
    6.0370   -7.1240   29.5550 C   0  0  0  0  0  0  0  0  0  0  0  0
    3.7600   -7.6570   29.5900 C   0  0  0  0  0  0  0  0  0  0  0  0
    7.4210   -3.0310   23.5800 C   0  0  0  0  0  0  0  0  0  0  0  0
    7.6960   -3.1530   22.1050 C   0  0  0  0  0  0  0  0  0  0  0  0
  1  2  1  0
  2  3  2  0
  2  4  1  0
  4  5  1  0
  5  6  1  0
  6  7  1  0
  7  8  1  0
  8  9  2  0
  8 10  1  0
 11 10  1  0
 11 12  1  0
 11 13  1  0
 11 14  1  0
 14 15  1  0
 15 16  1  0
 16 17  1  0
 16 18  1  0
  7 19  1  0
  4 20  1  0
 19 20  1  0
M  END
