piperidine-amides-30662-covalent
     RDKit          3D

 27 29  0  0  0  0  0  0  0  0999 V2000
    7.1400   -3.3180   19.2370 C   0  0  0  0  0  0  0  0  0  0  0  0
    6.3670   -4.0810   20.2100 C   0  0  0  0  0  0  0  0  0  0  0  0
    5.2750   -4.5710   19.8900 O   0  0  0  0  0  0  0  0  0  0  0  0
    6.8870   -4.3270   21.4760 N   0  0  0  0  0  0  0  0  0  0  0  0
    7.7390   -3.3680   22.1390 C   0  0  0  0  0  0  0  0  0  0  0  0
    6.9660   -2.9090   23.3340 C   0  0  0  0  0  0  0  0  0  0  0  0
    6.4490   -4.0790   24.1190 C   0  0  0  0  0  0  0  0  0  0  0  0
    5.4350   -3.6480   25.0990 C   0  0  0  0  0  0  0  0  0  0  0  0
    4.2760   -3.2820   24.7580 O   0  0  0  0  0  0  0  0  0  0  0  0
    5.7460   -3.6280   26.4480 N   0  0  0  0  0  0  0  0  0  0  0  0
    5.0100   -4.4810   27.4030 C   0  0  0  0  0  0  0  0  0  0  0  0
    6.0080   -4.5440   28.4580 C   0  0  2  0  0  0  0  0  0  0  0  0
    6.7680   -3.3520   28.2400 C   0  0  0  0  0  0  0  0  0  0  0  0
    7.0850   -3.3650   26.7570 C   0  0  1  0  0  0  0  0  0  0  0  0
    8.0020   -4.5400   26.4790 C   0  0  0  0  0  0  0  0  0  0  0  0
    8.1260   -5.0950   27.8250 C   0  0  1  0  0  0  0  0  0  0  0  0
    8.5800   -4.0150   28.6430 N   0  0  0  0  0  0  0  0  0  0  0  0
    8.3350   -2.6860   28.3220 C   0  0  0  0  0  0  0  0  0  0  0  0
    8.3010   -2.2250   27.1300 O   0  0  0  0  0  0  0  0  0  0  0  0
    8.1930   -1.9500   29.3160 O   0  0  0  0  0  0  0  0  0  0  0  0
    7.3990   -0.8290   29.2370 C   0  0  0  0  0  0  0  0  0  0  0  0
    7.1480   -0.1830   27.8910 C   0  0  0  0  0  0  0  0  0  0  0  0
    8.1010    0.1390   30.1330 C   0  0  0  0  0  0  0  0  0  0  0  0
    6.0830   -1.0470   29.9200 C   0  0  0  0  0  0  0  0  0  0  0  0
    6.9530   -5.5070   28.4220 C   0  0  0  0  0  0  0  0  0  0  0  0
    5.8770   -5.2080   23.3570 C   0  0  0  0  0  0  0  0  0  0  0  0
    6.5420   -5.5020   22.2000 C   0  0  0  0  0  0  0  0  0  0  0  0
  1  2  1  0
  2  3  2  0
  2  4  1  0
  4  5  1  0
  5  6  1  0
  6  7  1  0
  7  8  1  0
  8  9  2  0
  8 10  1  0
 10 11  1  0
 12 11  1  6
 12 13  1  0
 10 14  1  0
 13 14  1  0
 14 15  1  1
 15 16  1  0
 16 17  1  1
 17 18  1  0
 18 19  2  0
 18 20  1  0
 21 20  1  0
 21 22  1  0
 21 23  1  0
 21 24  1  0
 12 25  1  0
 16 25  1  0
  7 26  1  0
  4 27  1  0
 26 27  1  0
M  END
