piperidine-amides-27079-covalent
     RDKit          3D

 26 29  0  0  0  0  0  0  0  0999 V2000
    6.9850   -3.3780   19.3840 C   0  0  0  0  0  0  0  0  0  0  0  0
    6.3130   -4.2540   20.3530 C   0  0  0  0  0  0  0  0  0  0  0  0
    5.2890   -4.8540   19.9580 O   0  0  0  0  0  0  0  0  0  0  0  0
    6.8180   -4.4380   21.6380 N   0  0  0  0  0  0  0  0  0  0  0  0
    6.5900   -5.6480   22.3900 C   0  0  0  0  0  0  0  0  0  0  0  0
    6.3940   -5.2640   23.8380 C   0  0  0  0  0  0  0  0  0  0  0  0
    5.7750   -3.8960   23.9700 C   0  0  0  0  0  0  0  0  0  0  0  0
    5.3110   -3.5670   25.3560 C   0  0  0  0  0  0  0  0  0  0  0  0
    4.0920   -3.7390   25.5560 O   0  0  0  0  0  0  0  0  0  0  0  0
    6.0440   -3.0620   26.4650 N   0  0  0  0  0  0  0  0  0  0  0  0
    5.3200   -2.5250   27.5730 C   0  0  0  0  0  0  0  0  0  0  0  0
    5.8290   -3.1880   28.8150 C   0  0  0  0  0  0  0  0  0  0  0  0
    6.6250   -4.3390   28.3750 N   0  0  0  0  0  0  0  0  0  0  0  0
    6.5550   -5.5180   29.1060 C   0  0  0  0  0  0  0  0  0  0  0  0
    7.3240   -6.5150   28.6240 C   0  0  0  0  0  0  0  0  0  0  0  0
    7.1450   -5.3020   28.2060 C   0  0  0  0  0  0  0  0  0  0  0  0
    7.5200   -4.5180   27.2710 C   0  0  0  0  0  0  0  0  0  0  0  0
    7.4250   -3.2680   26.6980 C   0  0  1  0  0  0  0  0  0  0  0  0
    8.1100   -2.9360   25.4020 C   0  0  0  0  0  0  0  0  0  0  0  0
    7.7810   -1.5400   24.9690 C   0  0  0  0  0  0  0  0  0  0  0  0
    8.3180   -0.9290   23.7310 C   0  0  0  0  0  0  0  0  0  0  0  0
    9.1300   -1.5380   22.8870 N   0  0  0  0  0  0  0  0  0  0  0  0
    9.3560   -2.7970   23.3650 C   0  0  0  0  0  0  0  0  0  0  0  0
    8.9540   -3.5670   24.4990 C   0  0  0  0  0  0  0  0  0  0  0  0
    6.7120   -2.8500   23.4120 C   0  0  0  0  0  0  0  0  0  0  0  0
    7.5910   -3.4310   22.3130 C   0  0  0  0  0  0  0  0  0  0  0  0
  1  2  1  0
  2  3  2  0
  2  4  1  0
  4  5  1  0
  5  6  1  0
  6  7  1  0
  7  8  1  0
  8  9  2  0
  8 10  1  0
 10 11  1  0
 11 12  1  0
 12 13  1  0
 13 14  1  0
 14 15  2  0
 15 16  1  0
 13 17  1  0
 16 17  2  0
 10 18  1  0
 17 18  1  0
 18 19  1  6
 19 20  2  0
 20 21  1  0
 21 22  2  0
 22 23  1  0
 19 24  1  0
 23 24  2  0
  7 25  1  0
  4 26  1  0
 25 26  1  0
M  END
