piperidine-amides-29653-covalent
     RDKit          3D

 24 26  0  0  0  0  0  0  0  0999 V2000
    7.1130   -3.3670   19.2830 C   0  0  0  0  0  0  0  0  0  0  0  0
    6.3860   -4.1540   20.2670 C   0  0  0  0  0  0  0  0  0  0  0  0
    5.3380   -4.7170   19.9510 O   0  0  0  0  0  0  0  0  0  0  0  0
    6.9370   -4.3250   21.5800 N   0  0  0  0  0  0  0  0  0  0  0  0
    6.6530   -5.5160   22.3260 C   0  0  0  0  0  0  0  0  0  0  0  0
    5.9230   -5.1440   23.5790 C   0  0  0  0  0  0  0  0  0  0  0  0
    6.5750   -3.9130   24.1960 C   0  0  0  0  0  0  0  0  0  0  0  0
    5.6310   -3.4100   25.2180 C   0  0  0  0  0  0  0  0  0  0  0  0
    4.4660   -3.0920   24.9320 O   0  0  0  0  0  0  0  0  0  0  0  0
    6.0330   -3.3160   26.5570 N   0  0  0  0  0  0  0  0  0  0  0  0
    5.4950   -4.2900   27.5000 C   0  0  0  0  0  0  0  0  0  0  0  0
    5.9970   -3.9810   28.8930 C   0  0  0  0  0  0  0  0  0  0  0  0
    6.7590   -2.3930   28.8350 S   0  0  0  0  0  0  0  0  0  0  0  0
    6.5220   -2.1130   27.1540 C   0  0  2  0  0  0  0  0  0  0  0  0
    5.7160   -0.9650   27.1550 C   0  0  0  0  0  0  0  0  0  0  0  0
    4.7040   -0.7090   26.2370 C   0  0  0  0  0  0  0  0  0  0  0  0
    3.9460    0.5100   26.3430 C   0  0  0  0  0  0  0  0  0  0  0  0
    2.9730    0.6750   25.3990 F   0  0  0  0  0  0  0  0  0  0  0  0
    4.1930    1.4130   27.3120 C   0  0  0  0  0  0  0  0  0  0  0  0
    5.1820    1.1940   28.2310 C   0  0  0  0  0  0  0  0  0  0  0  0
    5.5020    2.3740   29.4920 Cl  0  0  0  0  0  0  0  0  0  0  0  0
    5.9390    0.0080   28.1490 C   0  0  0  0  0  0  0  0  0  0  0  0
    6.9850   -2.8520   23.3000 C   0  0  0  0  0  0  0  0  0  0  0  0
    7.7160   -3.3020   22.2240 C   0  0  0  0  0  0  0  0  0  0  0  0
  1  2  1  0
  2  3  2  0
  2  4  1  0
  4  5  1  0
  5  6  1  0
  6  7  1  0
  7  8  1  0
  8  9  2  0
  8 10  1  0
 10 11  1  0
 11 12  1  0
 12 13  1  0
 10 14  1  0
 13 14  1  0
 14 15  1  1
 15 16  2  0
 16 17  1  0
 17 18  1  0
 17 19  2  0
 19 20  1  0
 20 21  1  0
 15 22  1  0
 20 22  2  0
  7 23  1  0
  4 24  1  0
 23 24  1  0
M  END
