piperidine-amides-18781-covalent
     RDKit          3D

 20 21  0  0  0  0  0  0  0  0999 V2000
    7.0470   -3.4250   19.3600 C   0  0  0  0  0  0  0  0  0  0  0  0
    6.2880   -4.1570   20.3520 C   0  0  0  0  0  0  0  0  0  0  0  0
    5.2790   -4.8020   19.9540 O   0  0  0  0  0  0  0  0  0  0  0  0
    6.6460   -4.2180   21.7100 N   0  0  0  0  0  0  0  0  0  0  0  0
    7.4930   -3.0950   22.1980 C   0  0  0  0  0  0  0  0  0  0  0  0
    7.3720   -3.2900   23.7450 C   0  0  0  0  0  0  0  0  0  0  0  0
    5.9870   -3.7510   23.9560 C   0  0  0  0  0  0  0  0  0  0  0  0
    5.3300   -3.1930   25.3020 C   0  0  0  0  0  0  0  0  0  0  0  0
    4.3210   -2.5660   25.0160 O   0  0  0  0  0  0  0  0  0  0  0  0
    5.9880   -3.5200   26.3520 N   0  0  0  0  0  0  0  0  0  0  0  0
    6.4880   -4.2940   27.3630 C   0  0  0  0  0  0  0  0  0  0  0  0
    7.2240   -5.4350   27.4980 C   0  0  0  0  0  0  0  0  0  0  0  0
    6.3670   -6.5010   27.7590 O   0  0  0  0  0  0  0  0  0  0  0  0
    6.1460   -2.1670   26.8950 C   0  0  0  0  0  0  0  0  0  0  0  0
    6.3140   -1.9490   28.2320 N   0  0  0  0  0  0  0  0  0  0  0  0
    6.4460   -0.6240   28.6320 C   0  0  0  0  0  0  0  0  0  0  0  0
    6.3700    0.3500   27.4780 C   0  0  0  0  0  0  0  0  0  0  0  0
    6.1420   -0.6190   26.0410 S   0  0  0  0  0  0  0  0  0  0  0  0
    5.7170   -5.1820   23.5760 C   0  0  0  0  0  0  0  0  0  0  0  0
    6.5250   -5.4620   22.4540 C   0  0  0  0  0  0  0  0  0  0  0  0
  1  2  1  0
  2  3  2  0
  2  4  1  0
  4  5  1  0
  5  6  1  0
  6  7  1  0
  7  8  1  0
  8  9  2  0
  8 10  1  0
 10 11  1  0
 11 12  1  0
 12 13  1  0
 10 14  1  0
 14 15  2  0
 15 16  1  0
 16 17  2  0
 14 18  1  0
 17 18  1  0
  7 19  1  0
  4 20  1  0
 19 20  1  0
M  END
