piperidine-amides-30043-covalent
     RDKit          3D

 27 29  0  0  0  0  0  0  0  0999 V2000
    7.1210   -3.2270   19.1670 C   0  0  0  0  0  0  0  0  0  0  0  0
    6.3560   -3.9800   20.1530 C   0  0  0  0  0  0  0  0  0  0  0  0
    5.2830   -4.5010   19.8590 O   0  0  0  0  0  0  0  0  0  0  0  0
    6.8740   -4.1630   21.4660 N   0  0  0  0  0  0  0  0  0  0  0  0
    6.3960   -5.2650   22.2560 C   0  0  0  0  0  0  0  0  0  0  0  0
    5.6510   -4.7380   23.4540 C   0  0  0  0  0  0  0  0  0  0  0  0
    6.5520   -3.7170   24.1260 C   0  0  0  0  0  0  0  0  0  0  0  0
    5.8990   -3.0310   25.2640 C   0  0  0  0  0  0  0  0  0  0  0  0
    4.6650   -2.8620   25.3730 O   0  0  0  0  0  0  0  0  0  0  0  0
    6.7780   -2.5590   26.2620 N   0  0  0  0  0  0  0  0  0  0  0  0
    6.7090   -1.1860   26.6840 C   0  0  0  0  0  0  0  0  0  0  0  0
    7.9190   -3.3830   26.5060 C   0  0  0  0  0  0  0  0  0  0  0  0
    7.6120   -4.6810   26.7670 C   0  0  2  0  0  0  0  0  0  0  0  0
    6.4680   -5.0290   26.4100 O   0  0  0  0  0  0  0  0  0  0  0  0
    7.7030   -5.0460   28.0940 C   0  0  0  0  0  0  0  0  0  0  0  0
    8.4720   -6.1370   28.1560 C   0  0  0  0  0  0  0  0  0  0  0  0
    8.8140   -6.5540   26.8770 N   0  0  0  0  0  0  0  0  0  0  0  0
   10.0600   -7.2720   26.5640 C   0  0  0  0  0  0  0  0  0  0  0  0
    9.9030   -9.0530   26.4970 C   0  0  0  0  0  0  0  0  0  0  0  0
    9.5540   -9.1200   25.4020 C   0  0  0  0  0  0  0  0  0  0  0  0
    8.5060  -10.8200   24.7930 C   0  0  0  0  0  0  0  0  0  0  0  0
    8.4760  -11.9700   25.8740 C   0  0  0  0  0  0  0  0  0  0  0  0
    9.3510  -11.5530   27.7060 C   0  0  0  0  0  0  0  0  0  0  0  0
    9.8090  -10.5300   27.7960 C   0  0  0  0  0  0  0  0  0  0  0  0
    8.5130   -5.4710   26.0150 C   0  0  0  0  0  0  0  0  0  0  0  0
    7.0200   -2.6180   23.2360 C   0  0  0  0  0  0  0  0  0  0  0  0
    7.7370   -3.1710   22.0430 C   0  0  0  0  0  0  0  0  0  0  0  0
  1  2  1  0
  2  3  2  0
  2  4  1  0
  4  5  1  0
  5  6  1  0
  6  7  1  0
  7  8  1  0
  8  9  2  0
  8 10  1  0
 10 11  1  0
 10 12  1  0
 12 13  1  0
 13 14  1  6
 13 15  1  0
 15 16  1  0
 16 17  1  0
 17 18  1  0
 18 19  1  0
 19 20  2  0
 20 21  1  0
 21 22  2  0
 22 23  1  0
 19 24  1  0
 23 24  2  0
 13 25  1  0
 17 25  1  0
  7 26  1  0
  4 27  1  0
 26 27  1  0
M  END
