piperidine-amides-19034-covalent
     RDKit          3D

 22 24  0  0  0  0  0  0  0  0999 V2000
    7.0530   -3.3710   19.5020 C   0  0  0  0  0  0  0  0  0  0  0  0
    6.3900   -4.2380   20.4610 C   0  0  0  0  0  0  0  0  0  0  0  0
    5.4680   -5.0040   20.0180 O   0  0  0  0  0  0  0  0  0  0  0  0
    6.7400   -4.2620   21.8410 N   0  0  0  0  0  0  0  0  0  0  0  0
    6.5620   -5.5480   22.5910 C   0  0  0  0  0  0  0  0  0  0  0  0
    5.8880   -5.1010   23.9730 C   0  0  0  0  0  0  0  0  0  0  0  0
    6.1940   -3.6370   24.0700 C   0  0  0  0  0  0  0  0  0  0  0  0
    5.6030   -2.7320   25.2700 C   0  0  0  0  0  0  0  0  0  0  0  0
    5.6050   -1.5880   24.8850 O   0  0  0  0  0  0  0  0  0  0  0  0
    5.2370   -3.3390   26.3380 N   0  0  0  0  0  0  0  0  0  0  0  0
    4.3730   -3.8600   27.2730 C   0  0  1  0  0  0  0  0  0  0  0  0
    3.2200   -4.5910   27.2420 C   0  0  0  0  0  0  0  0  0  0  0  0
    5.2590   -4.7150   28.0450 C   0  0  0  0  0  0  0  0  0  0  0  0
    4.9690   -5.9680   28.9200 C   0  0  0  0  0  0  0  0  0  0  0  0
    6.4030   -6.4410   29.4720 C   0  0  0  0  0  0  0  0  0  0  0  0
    7.0530   -5.4460   28.8430 C   0  0  0  0  0  0  0  0  0  0  0  0
    5.7520   -5.7290   28.8690 C   0  0  0  0  0  0  0  0  0  0  0  0
    6.6280   -4.7040   28.2410 C   0  0  0  0  0  0  0  0  0  0  0  0
    6.3370   -3.4630   27.2860 C   0  0  2  0  0  0  0  0  0  0  0  0
    6.4220   -2.2510   27.9270 C   0  0  0  0  0  0  0  0  0  0  0  0
    7.6120   -3.2910   23.6780 C   0  0  0  0  0  0  0  0  0  0  0  0
    7.6750   -3.2540   22.3280 C   0  0  0  0  0  0  0  0  0  0  0  0
  1  2  1  0
  2  3  2  0
  2  4  1  0
  4  5  1  0
  5  6  1  0
  6  7  1  0
  7  8  1  0
  8  9  2  0
  8 10  1  0
 10 11  1  0
 11 12  1  6
 11 13  1  0
 13 14  1  0
 14 15  2  0
 15 16  1  0
 16 17  2  0
 13 18  2  0
 17 18  1  0
 10 19  1  0
 18 19  1  0
 19 20  1  1
  7 21  1  0
  4 22  1  0
 21 22  1  0
M  END
