piperidine-amides-31512-covalent
     RDKit          3D

 28 31  0  0  0  0  0  0  0  0999 V2000
    7.0700   -3.3440   19.4730 C   0  0  0  0  0  0  0  0  0  0  0  0
    6.4120   -4.1930   20.4430 C   0  0  0  0  0  0  0  0  0  0  0  0
    5.4840   -4.9610   20.0150 O   0  0  0  0  0  0  0  0  0  0  0  0
    6.7790   -4.2120   21.8180 N   0  0  0  0  0  0  0  0  0  0  0  0
    6.6930   -5.5400   22.5000 C   0  0  0  0  0  0  0  0  0  0  0  0
    6.1220   -5.2400   23.9680 C   0  0  0  0  0  0  0  0  0  0  0  0
    6.1110   -3.7420   24.1770 C   0  0  0  0  0  0  0  0  0  0  0  0
    5.0590   -3.1790   25.2780 C   0  0  0  0  0  0  0  0  0  0  0  0
    4.0330   -2.9400   24.6710 O   0  0  0  0  0  0  0  0  0  0  0  0
    5.4520   -3.0890   26.5080 N   0  0  0  0  0  0  0  0  0  0  0  0
    5.5960   -2.6390   27.8010 C   0  0  0  0  0  0  0  0  0  0  0  0
    5.4100   -3.1560   29.0770 C   0  0  0  0  0  0  0  0  0  0  0  0
    5.2750   -4.5580   29.0570 C   0  0  0  0  0  0  0  0  0  0  0  0
    4.7560   -5.3110   30.2240 C   0  0  0  0  0  0  0  0  0  0  0  0
    4.7450   -6.8090   29.8740 C   0  0  0  0  0  0  0  0  0  0  0  0
    4.2780   -7.6920   30.8750 O   0  0  0  0  0  0  0  0  0  0  0  0
    3.9550   -7.2310   32.1710 C   0  0  0  0  0  0  0  0  0  0  0  0
    3.0470   -8.1100   32.7860 C   0  0  2  0  0  0  0  0  0  0  0  0
    3.1030   -6.7040   33.3910 C   0  0  0  0  0  0  0  0  0  0  0  0
    3.6580   -6.9240   34.8480 C   0  0  0  0  0  0  0  0  0  0  0  0
    3.8630   -8.1620   35.0200 O   0  0  0  0  0  0  0  0  0  0  0  0
    3.5640   -8.9460   33.8770 C   0  0  0  0  0  0  0  0  0  0  0  0
    5.1540   -7.2980   28.6590 C   0  0  0  0  0  0  0  0  0  0  0  0
    5.5920   -6.4770   27.6860 C   0  0  0  0  0  0  0  0  0  0  0  0
    5.6410   -5.1390   27.9010 C   0  0  0  0  0  0  0  0  0  0  0  0
    6.0630   -4.2680   26.9360 C   0  0  0  0  0  0  0  0  0  0  0  0
    7.3510   -3.0110   23.8460 C   0  0  0  0  0  0  0  0  0  0  0  0
    7.6930   -3.2520   22.4080 C   0  0  0  0  0  0  0  0  0  0  0  0
  1  2  1  0
  2  3  2  0
  2  4  1  0
  4  5  1  0
  5  6  1  0
  6  7  1  0
  7  8  1  0
  8  9  2  0
  8 10  1  0
 10 11  1  0
 11 12  1  0
 12 13  1  0
 13 14  2  0
 14 15  1  0
 15 16  1  0
 16 17  1  0
 18 17  1  6
 18 19  1  0
 19 20  1  0
 20 21  1  0
 18 22  1  0
 21 22  1  0
 15 23  2  0
 23 24  1  0
 13 25  1  0
 24 25  2  0
 10 26  1  0
 25 26  1  0
  7 27  1  0
  4 28  1  0
 27 28  1  0
M  END
