piperidine-amides-5038-covalent
     RDKit          3D

 22 23  0  0  0  0  0  0  0  0999 V2000
    7.0830   -3.3080   19.2100 C   0  0  0  0  0  0  0  0  0  0  0  0
    6.3580   -4.0810   20.2410 C   0  0  0  0  0  0  0  0  0  0  0  0
    5.2790   -4.5960   19.8970 O   0  0  0  0  0  0  0  0  0  0  0  0
    6.9000   -4.2700   21.5150 N   0  0  0  0  0  0  0  0  0  0  0  0
    7.6120   -3.2040   22.1360 C   0  0  0  0  0  0  0  0  0  0  0  0
    7.1060   -2.8140   23.4500 C   0  0  0  0  0  0  0  0  0  0  0  0
    6.5220   -3.9110   24.2520 C   0  0  0  0  0  0  0  0  0  0  0  0
    5.7330   -3.3710   25.3840 C   0  0  0  0  0  0  0  0  0  0  0  0
    4.5190   -3.1650   25.2010 O   0  0  0  0  0  0  0  0  0  0  0  0
    6.3120   -3.1060   26.6370 N   0  0  0  0  0  0  0  0  0  0  0  0
    6.3590   -1.7480   27.2300 C   0  0  0  0  0  0  0  0  0  0  0  0
    6.9630   -1.6040   28.5550 C   0  0  0  0  0  0  0  0  0  0  0  0
    7.0420   -0.3380   29.2160 C   0  0  0  0  0  0  0  0  0  0  0  0
    6.5350    0.7870   28.5920 C   0  0  0  0  0  0  0  0  0  0  0  0
    5.9260    0.8500   27.3290 C   0  0  0  0  0  0  0  0  0  0  0  0
    5.5140    2.0880   26.9450 C   0  0  0  0  0  0  0  0  0  0  0  0
    4.4410    2.7270   27.6080 N   0  0  0  0  0  0  0  0  0  0  0  0
    5.8450   -0.4900   26.6320 C   0  0  0  0  0  0  0  0  0  0  0  0
    5.3180   -0.5240   25.5050 O   0  0  0  0  0  0  0  0  0  0  0  0
    3.9930   -0.8210   25.5480 C   0  0  0  0  0  0  0  0  0  0  0  0
    5.7060   -4.8600   23.4180 C   0  0  0  0  0  0  0  0  0  0  0  0
    6.5480   -5.4020   22.3340 C   0  0  0  0  0  0  0  0  0  0  0  0
  1  2  1  0
  2  3  2  0
  2  4  1  0
  4  5  1  0
  5  6  1  0
  6  7  1  0
  7  8  1  0
  8  9  2  0
  8 10  1  0
 10 11  1  0
 11 12  2  0
 12 13  1  0
 13 14  2  0
 14 15  1  0
 15 16  1  0
 16 17  3  0
 11 18  1  0
 15 18  2  0
 18 19  1  0
 19 20  1  0
  7 21  1  0
  4 22  1  0
 21 22  1  0
M  END
