piperidine-amides-8217-covalent
     RDKit          3D

 25 27  0  0  0  0  0  0  0  0999 V2000
    7.0990   -3.2830   19.2220 C   0  0  0  0  0  0  0  0  0  0  0  0
    6.3780   -4.0710   20.2220 C   0  0  0  0  0  0  0  0  0  0  0  0
    5.2980   -4.5900   19.8960 O   0  0  0  0  0  0  0  0  0  0  0  0
    6.9310   -4.2820   21.5110 N   0  0  0  0  0  0  0  0  0  0  0  0
    7.6750   -3.2160   22.1220 C   0  0  0  0  0  0  0  0  0  0  0  0
    6.8880   -2.6500   23.2600 C   0  0  0  0  0  0  0  0  0  0  0  0
    6.5850   -3.7980   24.1930 C   0  0  0  0  0  0  0  0  0  0  0  0
    5.8020   -3.3200   25.3780 C   0  0  0  0  0  0  0  0  0  0  0  0
    4.5760   -3.3410   25.2640 O   0  0  0  0  0  0  0  0  0  0  0  0
    6.4940   -2.8960   26.5080 N   0  0  0  0  0  0  0  0  0  0  0  0
    6.3890   -1.5750   27.0360 C   0  0  1  0  0  0  0  0  0  0  0  0
    5.8290   -0.6210   26.1670 C   0  0  0  0  0  0  0  0  0  0  0  0
    6.4020   -0.3620   24.9370 C   0  0  0  0  0  0  0  0  0  0  0  0
    5.9560    0.5560   23.9680 C   0  0  0  0  0  0  0  0  0  0  0  0
    4.7180    1.3280   24.3350 C   0  0  0  0  0  0  0  0  0  0  0  0
    4.0680    1.0550   25.6950 C   0  0  0  0  0  0  0  0  0  0  0  0
    4.7010    0.0520   26.5560 C   0  0  0  0  0  0  0  0  0  0  0  0
    5.3720   -1.7110   28.1620 C   0  0  0  0  0  0  0  0  0  0  0  0
    3.9920   -2.2150   28.0400 C   0  0  0  0  0  0  0  0  0  0  0  0
    3.4690   -2.1570   29.2680 C   0  0  0  0  0  0  0  0  0  0  0  0
    4.4410   -1.6510   30.1280 N   0  0  0  0  0  0  0  0  0  0  0  0
    4.1940   -1.4630   31.5140 C   0  0  0  0  0  0  0  0  0  0  0  0
    5.6180   -1.3780   29.4310 N   0  0  0  0  0  0  0  0  0  0  0  0
    5.8130   -4.8980   23.5430 C   0  0  0  0  0  0  0  0  0  0  0  0
    6.5040   -5.3920   22.3080 C   0  0  0  0  0  0  0  0  0  0  0  0
  1  2  1  0
  2  3  2  0
  2  4  1  0
  4  5  1  0
  5  6  1  0
  6  7  1  0
  7  8  1  0
  8  9  2  0
  8 10  1  0
 11 10  1  6
 11 12  1  0
 12 13  2  0
 13 14  1  0
 14 15  2  0
 15 16  1  0
 12 17  1  0
 16 17  2  0
 11 18  1  0
 18 19  1  0
 19 20  2  0
 20 21  1  0
 21 22  1  0
 18 23  2  0
 21 23  1  0
  7 24  1  0
  4 25  1  0
 24 25  1  0
M  END
