piperidine-amides-14218-covalent
     RDKit          3D

 24 26  0  0  0  0  0  0  0  0999 V2000
    7.0560   -3.3130   19.3310 C   0  0  0  0  0  0  0  0  0  0  0  0
    6.3490   -4.1660   20.3270 C   0  0  0  0  0  0  0  0  0  0  0  0
    5.3520   -4.8170   19.9670 O   0  0  0  0  0  0  0  0  0  0  0  0
    6.8480   -4.2540   21.6430 N   0  0  0  0  0  0  0  0  0  0  0  0
    7.6650   -3.1980   22.2030 C   0  0  0  0  0  0  0  0  0  0  0  0
    7.5370   -3.2620   23.7270 C   0  0  0  0  0  0  0  0  0  0  0  0
    6.1590   -3.7490   24.0110 C   0  0  0  0  0  0  0  0  0  0  0  0
    5.6150   -3.2420   25.2940 C   0  0  0  0  0  0  0  0  0  0  0  0
    4.3880   -3.3000   25.4220 O   0  0  0  0  0  0  0  0  0  0  0  0
    6.4620   -2.7320   26.2860 N   0  0  0  0  0  0  0  0  0  0  0  0
    6.1970   -1.6250   27.1450 C   0  0  1  0  0  0  0  0  0  0  0  0
    7.0470   -1.4400   28.2080 C   0  0  0  0  0  0  0  0  0  0  0  0
    6.6910   -0.5830   29.2320 C   0  0  0  0  0  0  0  0  0  0  0  0
    6.0330    0.5450   28.8200 O   0  0  0  0  0  0  0  0  0  0  0  0
    5.4630    0.6440   27.5620 C   0  0  1  0  0  0  0  0  0  0  0  0
    5.3520    2.0540   27.0840 C   0  0  0  0  0  0  0  0  0  0  0  0
    4.3400    3.0310   27.6660 C   0  0  0  0  0  0  0  0  0  0  0  0
    4.3990    4.4100   27.0300 C   0  0  0  0  0  0  0  0  0  0  0  0
    5.3190    4.6520   26.0290 C   0  0  0  0  0  0  0  0  0  0  0  0
    6.2260    3.8000   25.5000 N   0  0  0  0  0  0  0  0  0  0  0  0
    6.1870    2.4990   26.0830 C   0  0  0  0  0  0  0  0  0  0  0  0
    5.9110   -0.2650   26.6050 C   0  0  0  0  0  0  0  0  0  0  0  0
    6.1800   -5.2040   23.8340 C   0  0  0  0  0  0  0  0  0  0  0  0
    6.6520   -5.4740   22.3880 C   0  0  0  0  0  0  0  0  0  0  0  0
  1  2  1  0
  2  3  2  0
  2  4  1  0
  4  5  1  0
  5  6  1  0
  6  7  1  0
  7  8  1  0
  8  9  2  0
  8 10  1  0
 11 10  1  6
 11 12  1  0
 12 13  1  0
 13 14  1  0
 14 15  1  0
 15 16  1  6
 16 17  2  0
 17 18  1  0
 18 19  2  0
 19 20  1  0
 16 21  1  0
 20 21  2  0
 11 22  1  0
 15 22  1  0
  7 23  1  0
  4 24  1  0
 23 24  1  0
M  END
