piperidine-amides-12137-covalent
     RDKit          3D

 25 26  0  0  0  0  0  0  0  0999 V2000
    7.0860   -3.3010   19.2670 C   0  0  0  0  0  0  0  0  0  0  0  0
    6.3000   -4.0270   20.2570 C   0  0  0  0  0  0  0  0  0  0  0  0
    5.2740   -4.6090   19.9090 O   0  0  0  0  0  0  0  0  0  0  0  0
    6.7450   -4.1170   21.6200 N   0  0  0  0  0  0  0  0  0  0  0  0
    6.6110   -5.3750   22.3040 C   0  0  0  0  0  0  0  0  0  0  0  0
    6.0510   -5.1290   23.6710 C   0  0  0  0  0  0  0  0  0  0  0  0
    6.0510   -3.6280   23.8710 C   0  0  0  0  0  0  0  0  0  0  0  0
    5.5600   -3.2730   25.2370 C   0  0  0  0  0  0  0  0  0  0  0  0
    4.3960   -2.8850   25.4390 O   0  0  0  0  0  0  0  0  0  0  0  0
    6.4510   -3.3710   26.3250 N   0  0  0  0  0  0  0  0  0  0  0  0
    6.0160   -3.9380   27.5930 C   0  0  0  0  0  0  0  0  0  0  0  0
    5.8610   -5.4540   27.5110 C   0  0  0  0  0  0  0  0  0  0  0  0
    5.3640   -5.8520   26.2800 O   0  0  0  0  0  0  0  0  0  0  0  0
    4.2790   -6.6660   26.0680 C   0  0  0  0  0  0  0  0  0  0  0  0
    3.4880   -7.2010   27.1060 C   0  0  0  0  0  0  0  0  0  0  0  0
    2.4000   -8.0120   26.8030 C   0  0  0  0  0  0  0  0  0  0  0  0
    2.0630   -8.3210   25.4170 C   0  0  0  0  0  0  0  0  0  0  0  0
    1.0570   -9.0740   24.8500 C   0  0  0  0  0  0  0  0  0  0  0  0
    0.5710   -8.7750   23.5820 O   0  0  0  0  0  0  0  0  0  0  0  0
    0.5120  -10.1340   25.5420 O   0  0  0  0  0  0  0  0  0  0  0  0
    1.3740  -11.1320   26.0490 C   0  0  0  0  0  0  0  0  0  0  0  0
    2.8070   -7.8290   24.3730 C   0  0  0  0  0  0  0  0  0  0  0  0
    3.9200   -6.9930   24.7920 C   0  0  0  0  0  0  0  0  0  0  0  0
    7.3980   -3.0120   23.5490 C   0  0  0  0  0  0  0  0  0  0  0  0
    7.6060   -3.0880   22.1670 C   0  0  0  0  0  0  0  0  0  0  0  0
  1  2  1  0
  2  3  2  0
  2  4  1  0
  4  5  1  0
  5  6  1  0
  6  7  1  0
  7  8  1  0
  8  9  2  0
  8 10  1  0
 10 11  1  0
 11 12  1  0
 12 13  1  0
 13 14  1  0
 14 15  2  0
 15 16  1  0
 16 17  2  0
 17 18  1  0
 18 19  2  0
 18 20  1  0
 20 21  1  0
 17 22  1  0
 14 23  1  0
 22 23  2  0
  7 24  1  0
  4 25  1  0
 24 25  1  0
M  END
