piperidine-amides-4168-covalent
     RDKit          3D

 27 30  0  0  0  0  0  0  0  0999 V2000
    7.0870   -3.2970   19.2530 C   0  0  0  0  0  0  0  0  0  0  0  0
    6.3620   -4.0770   20.2710 C   0  0  0  0  0  0  0  0  0  0  0  0
    5.2810   -4.5880   19.9020 O   0  0  0  0  0  0  0  0  0  0  0  0
    6.8690   -4.3030   21.5800 N   0  0  0  0  0  0  0  0  0  0  0  0
    7.5280   -3.2260   22.2460 C   0  0  0  0  0  0  0  0  0  0  0  0
    7.0900   -2.9220   23.6200 C   0  0  0  0  0  0  0  0  0  0  0  0
    6.2810   -3.9430   24.3460 C   0  0  0  0  0  0  0  0  0  0  0  0
    5.4150   -3.2950   25.4040 C   0  0  0  0  0  0  0  0  0  0  0  0
    4.3790   -2.7230   25.0260 O   0  0  0  0  0  0  0  0  0  0  0  0
    5.6980   -3.3040   26.8020 N   0  0  0  0  0  0  0  0  0  0  0  0
    6.1040   -4.3860   27.6220 C   0  0  0  0  0  0  0  0  0  0  0  0
    5.4270   -4.9290   28.7910 C   0  0  0  0  0  0  0  0  0  0  0  0
    4.0040   -4.5020   29.2360 C   0  0  0  0  0  0  0  0  0  0  0  0
    3.5450   -5.1400   30.3650 C   0  0  0  0  0  0  0  0  0  0  0  0
    4.8240   -5.9430   30.4990 C   0  0  0  0  0  0  0  0  0  0  0  0
    4.7700   -6.8490   31.6850 C   0  0  0  0  0  0  0  0  0  0  0  0
    5.6720   -6.9490   32.6600 N   0  0  0  0  0  0  0  0  0  0  0  0
    5.4850   -7.8230   33.6790 C   0  0  0  0  0  0  0  0  0  0  0  0
    6.4620   -7.9900   34.8200 C   0  0  0  0  0  0  0  0  0  0  0  0
    6.0760   -9.0240   35.8650 C   0  0  0  0  0  0  0  0  0  0  0  0
    4.7770   -9.8250   35.7410 C   0  0  0  0  0  0  0  0  0  0  0  0
    3.9840   -9.4760   34.5330 C   0  0  0  0  0  0  0  0  0  0  0  0
    4.2730   -8.5440   33.5340 C   0  0  0  0  0  0  0  0  0  0  0  0
    3.5380   -7.9860   32.0950 S   0  0  0  0  0  0  0  0  0  0  0  0
    5.8690   -5.8130   29.6110 O   0  0  0  0  0  0  0  0  0  0  0  0
    5.5060   -4.8700   23.4760 C   0  0  0  0  0  0  0  0  0  0  0  0
    6.3440   -5.3940   22.3380 C   0  0  0  0  0  0  0  0  0  0  0  0
  1  2  1  0
  2  3  2  0
  2  4  1  0
  4  5  1  0
  5  6  1  0
  6  7  1  0
  7  8  1  0
  8  9  2  0
  8 10  1  0
 10 11  1  0
 11 12  1  0
 12 13  2  0
 13 14  1  0
 14 15  2  0
 15 16  1  0
 16 17  2  0
 17 18  1  0
 18 19  2  0
 19 20  1  0
 20 21  2  0
 21 22  1  0
 18 23  1  0
 22 23  2  0
 16 24  1  0
 23 24  1  0
 12 25  1  0
 15 25  1  0
  7 26  1  0
  4 27  1  0
 26 27  1  0
M  END
