piperidine-amides-11629-covalent
     RDKit          3D

 19 20  0  0  0  0  0  0  0  0999 V2000
    7.1010   -3.3480   19.2730 C   0  0  0  0  0  0  0  0  0  0  0  0
    6.3460   -4.1100   20.2550 C   0  0  0  0  0  0  0  0  0  0  0  0
    5.3000   -4.6650   19.9300 O   0  0  0  0  0  0  0  0  0  0  0  0
    6.8650   -4.2630   21.5770 N   0  0  0  0  0  0  0  0  0  0  0  0
    7.7150   -3.2510   22.1450 C   0  0  0  0  0  0  0  0  0  0  0  0
    7.0550   -2.6650   23.3460 C   0  0  0  0  0  0  0  0  0  0  0  0
    6.6240   -3.8230   24.2150 C   0  0  0  0  0  0  0  0  0  0  0  0
    5.9030   -3.2770   25.3880 C   0  0  0  0  0  0  0  0  0  0  0  0
    4.6920   -3.4890   25.5980 O   0  0  0  0  0  0  0  0  0  0  0  0
    6.6340   -2.4680   26.2850 N   0  0  0  0  0  0  0  0  0  0  0  0
    5.8860   -1.6410   27.1930 C   0  0  2  0  0  0  0  0  0  0  0  0
    6.1310   -0.2000   27.0800 C   0  0  0  0  0  0  0  0  0  0  0  0
    6.4580    0.3890   28.2310 C   0  0  0  0  0  0  0  0  0  0  0  0
    6.4690   -0.5890   29.2350 C   0  0  2  0  0  0  0  0  0  0  0  0
    7.4560   -0.3990   30.1670 C   0  0  0  0  0  0  0  0  0  0  0  0
    7.9340    0.7390   30.1900 O   0  0  0  0  0  0  0  0  0  0  0  0
    6.4820   -1.8580   28.6030 C   0  0  0  0  0  0  0  0  0  0  0  0
    5.7870   -4.8760   23.5270 C   0  0  0  0  0  0  0  0  0  0  0  0
    6.4860   -5.3730   22.4430 C   0  0  0  0  0  0  0  0  0  0  0  0
  1  2  1  0
  2  3  2  0
  2  4  1  0
  4  5  1  0
  5  6  1  0
  6  7  1  0
  7  8  1  0
  8  9  2  0
  8 10  1  0
 11 10  1  6
 11 12  1  0
 12 13  2  0
 13 14  1  0
 14 15  1  6
 15 16  1  0
 11 17  1  0
 14 17  1  0
  7 18  1  0
  4 19  1  0
 18 19  1  0
M  END
