piperidine-amides-30431-covalent
     RDKit          3D

 26 28  0  0  0  0  0  0  0  0999 V2000
    7.1450   -3.3490   19.3260 C   0  0  0  0  0  0  0  0  0  0  0  0
    6.3930   -4.1360   20.3000 C   0  0  0  0  0  0  0  0  0  0  0  0
    5.3380   -4.6850   19.9420 O   0  0  0  0  0  0  0  0  0  0  0  0
    6.8750   -4.3340   21.6030 N   0  0  0  0  0  0  0  0  0  0  0  0
    6.6460   -5.5860   22.3000 C   0  0  0  0  0  0  0  0  0  0  0  0
    6.3400   -5.2440   23.7370 C   0  0  0  0  0  0  0  0  0  0  0  0
    6.2180   -3.7630   23.9470 C   0  0  0  0  0  0  0  0  0  0  0  0
    5.6670   -3.3510   25.2490 C   0  0  0  0  0  0  0  0  0  0  0  0
    4.7190   -2.5150   25.2860 O   0  0  0  0  0  0  0  0  0  0  0  0
    6.1010   -3.8290   26.4920 N   0  0  0  0  0  0  0  0  0  0  0  0
    5.9400   -2.8770   27.6250 C   0  0  0  0  0  0  0  0  0  0  0  0
    6.3750   -3.4760   28.9000 C   0  0  0  0  0  0  0  0  0  0  0  0
    5.6700   -4.5740   29.0520 N   0  0  0  0  0  0  0  0  0  0  0  0
    4.2500   -4.4670   29.2520 C   0  0  0  0  0  0  0  0  0  0  0  0
    3.6620   -3.3900   29.4730 O   0  0  0  0  0  0  0  0  0  0  0  0
    3.5220   -5.7930   29.1720 C   0  0  0  0  0  0  0  0  0  0  0  0
    3.3650   -6.3420   27.7440 C   0  0  0  0  0  0  0  0  0  0  0  0
    2.6330   -7.6420   27.6690 C   0  0  0  0  0  0  0  0  0  0  0  0
    2.1530   -8.2720   28.7750 C   0  0  0  0  0  0  0  0  0  0  0  0
    2.3030   -7.7670   30.0430 C   0  0  0  0  0  0  0  0  0  0  0  0
    3.0140   -6.4720   30.2630 C   0  0  0  0  0  0  0  0  0  0  0  0
    3.1740   -5.8590   31.9050 Cl  0  0  0  0  0  0  0  0  0  0  0  0
    5.9660   -5.5810   28.0940 C   0  0  0  0  0  0  0  0  0  0  0  0
    5.9090   -5.2680   26.6410 C   0  0  0  0  0  0  0  0  0  0  0  0
    7.5100   -3.1290   23.5850 C   0  0  0  0  0  0  0  0  0  0  0  0
    7.7050   -3.2830   22.1380 C   0  0  0  0  0  0  0  0  0  0  0  0
  1  2  1  0
  2  3  2  0
  2  4  1  0
  4  5  1  0
  5  6  1  0
  6  7  1  0
  7  8  1  0
  8  9  2  0
  8 10  1  0
 10 11  1  0
 11 12  1  0
 12 13  1  0
 13 14  1  0
 14 15  2  0
 14 16  1  0
 16 17  2  0
 17 18  1  0
 18 19  2  0
 19 20  1  0
 16 21  1  0
 20 21  2  0
 21 22  1  0
 13 23  1  0
 10 24  1  0
 23 24  1  0
  7 25  1  0
  4 26  1  0
 25 26  1  0
M  END
