piperidine-amides-25805-covalent
     RDKit          3D

 23 24  0  0  0  0  0  0  0  0999 V2000
    7.0080   -3.3440   19.3760 C   0  0  0  0  0  0  0  0  0  0  0  0
    6.3780   -4.2150   20.4050 C   0  0  0  0  0  0  0  0  0  0  0  0
    5.4390   -4.9100   20.0060 O   0  0  0  0  0  0  0  0  0  0  0  0
    6.8550   -4.2590   21.7370 N   0  0  0  0  0  0  0  0  0  0  0  0
    7.7050   -3.2120   22.2990 C   0  0  0  0  0  0  0  0  0  0  0  0
    7.3720   -2.9380   23.7530 C   0  0  0  0  0  0  0  0  0  0  0  0
    6.1020   -3.7020   24.0960 C   0  0  0  0  0  0  0  0  0  0  0  0
    5.5120   -3.3220   25.4190 C   0  0  0  0  0  0  0  0  0  0  0  0
    4.2770   -3.2970   25.4730 O   0  0  0  0  0  0  0  0  0  0  0  0
    6.2060   -2.9650   26.6150 N   0  0  0  0  0  0  0  0  0  0  0  0
    6.0820   -3.9230   27.7060 C   0  0  0  0  0  0  0  0  0  0  0  0
    5.6100   -5.2620   27.1860 C   0  0  0  0  0  0  0  0  0  0  0  0
    5.4440   -6.3450   28.0130 C   0  0  0  0  0  0  0  0  0  0  0  0
    6.3630   -6.5100   28.9930 C   0  0  0  0  0  0  0  0  0  0  0  0
    6.0940   -1.6920   27.2430 C   0  0  1  0  0  0  0  0  0  0  0  0
    7.1230   -1.3280   28.3120 C   0  0  0  0  0  0  0  0  0  0  0  0
    6.4350   -0.1080   28.8760 C   0  0  0  0  0  0  0  0  0  0  0  0
    5.7940    0.6760   27.5060 S   0  0  0  0  0  0  0  0  0  0  0  0
    6.6030    1.8990   27.2340 O   0  0  0  0  0  0  0  0  0  0  0  0
    4.3620    0.9820   27.8450 O   0  0  0  0  0  0  0  0  0  0  0  0
    5.9290   -0.5930   26.2530 C   0  0  0  0  0  0  0  0  0  0  0  0
    6.1900   -5.1520   23.8510 C   0  0  0  0  0  0  0  0  0  0  0  0
    6.6820   -5.4870   22.4780 C   0  0  0  0  0  0  0  0  0  0  0  0
  1  2  1  0
  2  3  2  0
  2  4  1  0
  4  5  1  0
  5  6  1  0
  6  7  1  0
  7  8  1  0
  8  9  2  0
  8 10  1  0
 10 11  1  0
 11 12  1  0
 12 13  1  0
 13 14  1  0
 15 10  1  6
 15 16  1  0
 16 17  1  0
 18 17  1  0
 18 19  2  0
 18 20  2  0
 15 21  1  0
 18 21  1  0
  7 22  1  0
  4 23  1  0
 22 23  1  0
M  END
