piperidine-amides-8882-covalent
     RDKit          3D

 22 24  0  0  0  0  0  0  0  0999 V2000
    7.0690   -3.2580   19.2310 C   0  0  0  0  0  0  0  0  0  0  0  0
    6.3340   -4.0320   20.2270 C   0  0  0  0  0  0  0  0  0  0  0  0
    5.2620   -4.5520   19.8810 O   0  0  0  0  0  0  0  0  0  0  0  0
    6.8530   -4.2370   21.5290 N   0  0  0  0  0  0  0  0  0  0  0  0
    6.4160   -5.3940   22.2500 C   0  0  0  0  0  0  0  0  0  0  0  0
    5.5560   -4.9420   23.3910 C   0  0  0  0  0  0  0  0  0  0  0  0
    6.4030   -3.9180   24.0920 C   0  0  0  0  0  0  0  0  0  0  0  0
    5.7010   -3.3760   25.3070 C   0  0  0  0  0  0  0  0  0  0  0  0
    4.4910   -3.1960   25.1950 O   0  0  0  0  0  0  0  0  0  0  0  0
    6.4530   -3.1030   26.4580 N   0  0  0  0  0  0  0  0  0  0  0  0
    6.4360   -3.8890   27.6580 C   0  0  0  0  0  0  0  0  0  0  0  0
    5.2630   -4.5840   27.9930 C   0  0  0  0  0  0  0  0  0  0  0  0
    5.1320   -5.8400   27.2730 N   0  0  0  0  0  0  0  0  0  0  0  0
    4.1070   -6.7780   27.3780 C   0  0  0  0  0  0  0  0  0  0  0  0
    3.0840   -6.4990   28.2690 C   0  0  0  0  0  0  0  0  0  0  0  0
    3.2040   -5.2190   29.0030 C   0  0  0  0  0  0  0  0  0  0  0  0
    4.2400   -4.3550   28.8420 N   0  0  0  0  0  0  0  0  0  0  0  0
    1.9770   -5.1590   29.8920 C   0  0  0  0  0  0  0  0  0  0  0  0
    1.2320   -6.4460   29.6330 C   0  0  0  0  0  0  0  0  0  0  0  0
    1.9500   -7.2880   28.5540 C   0  0  0  0  0  0  0  0  0  0  0  0
    6.8360   -2.7830   23.2670 C   0  0  0  0  0  0  0  0  0  0  0  0
    7.6340   -3.2340   22.2370 C   0  0  0  0  0  0  0  0  0  0  0  0
  1  2  1  0
  2  3  2  0
  2  4  1  0
  4  5  1  0
  5  6  1  0
  6  7  1  0
  7  8  1  0
  8  9  2  0
  8 10  1  0
 10 11  1  0
 11 12  1  0
 12 13  2  0
 13 14  1  0
 14 15  2  0
 15 16  1  0
 12 17  1  0
 16 17  2  0
 16 18  1  0
 18 19  1  0
 15 20  1  0
 19 20  1  0
  7 21  1  0
  4 22  1  0
 21 22  1  0
M  END
