piperidine-amides-4333-covalent
     RDKit          3D

 26 27  0  0  0  0  0  0  0  0999 V2000
    7.0190   -5.2140   19.9840 C   0  0  0  0  0  0  0  0  0  0  0  0
    5.9870   -4.4050   20.4950 C   0  0  0  0  0  0  0  0  0  0  0  0
    5.1170   -4.0490   19.6790 O   0  0  0  0  0  0  0  0  0  0  0  0
    6.0510   -4.1270   21.8500 N   0  0  0  0  0  0  0  0  0  0  0  0
    7.0010   -3.1310   22.2470 C   0  0  0  0  0  0  0  0  0  0  0  0
    6.9220   -2.8410   23.6710 C   0  0  0  0  0  0  0  0  0  0  0  0
    5.7970   -3.5580   24.2970 C   0  0  0  0  0  0  0  0  0  0  0  0
    5.5430   -3.1590   25.7110 C   0  0  0  0  0  0  0  0  0  0  0  0
    4.6440   -2.3290   25.9340 O   0  0  0  0  0  0  0  0  0  0  0  0
    6.2760   -3.6860   26.7860 N   0  0  0  0  0  0  0  0  0  0  0  0
    6.0130   -4.8120   27.6200 C   0  0  1  0  0  0  0  0  0  0  0  0
    6.3300   -4.5610   29.0120 C   0  0  0  0  0  0  0  0  0  0  0  0
    6.3330   -5.5520   29.8170 O   0  0  0  0  0  0  0  0  0  0  0  0
    5.1220   -5.8650   30.3990 C   0  0  0  0  0  0  0  0  0  0  0  0
    4.0580   -4.9890   30.2280 C   0  0  0  0  0  0  0  0  0  0  0  0
    2.6970   -5.4110   30.9190 C   0  0  0  0  0  0  0  0  0  0  0  0
    2.5560   -6.7050   31.7320 C   0  0  0  0  0  0  0  0  0  0  0  0
    3.8410   -7.5020   31.7930 C   0  0  0  0  0  0  0  0  0  0  0  0
    5.0810   -7.1030   31.1540 C   0  0  0  0  0  0  0  0  0  0  0  0
    6.1390   -7.9560   31.3290 F   0  0  0  0  0  0  0  0  0  0  0  0
    4.8700   -5.5370   27.4720 C   0  0  0  0  0  0  0  0  0  0  0  0
    5.0300   -6.8830   28.2020 C   0  0  0  0  0  0  0  0  0  0  0  0
    3.5530   -4.8960   27.8200 C   0  0  0  0  0  0  0  0  0  0  0  0
    4.5320   -6.2800   26.2670 C   0  0  0  0  0  0  0  0  0  0  0  0
    5.8280   -5.0220   24.0820 C   0  0  0  0  0  0  0  0  0  0  0  0
    6.0340   -5.3280   22.6320 C   0  0  0  0  0  0  0  0  0  0  0  0
  1  2  1  0
  2  3  2  0
  2  4  1  0
  4  5  1  0
  5  6  1  0
  6  7  1  0
  7  8  1  0
  8  9  2  0
  8 10  1  0
 10 11  1  0
 11 12  1  1
 12 13  1  0
 13 14  1  0
 14 15  2  0
 15 16  1  0
 16 17  2  0
 17 18  1  0
 14 19  1  0
 18 19  2  0
 19 20  1  0
 11 21  1  0
 21 22  1  0
 21 23  1  0
 21 24  1  0
  7 25  1  0
  4 26  1  0
 25 26  1  0
M  END
