piperidine-amides-13899-covalent
     RDKit          3D

 26 28  0  0  0  0  0  0  0  0999 V2000
    7.1020   -3.3000   19.2670 C   0  0  0  0  0  0  0  0  0  0  0  0
    6.3840   -4.1260   20.2770 C   0  0  0  0  0  0  0  0  0  0  0  0
    5.3340   -4.6960   19.9410 O   0  0  0  0  0  0  0  0  0  0  0  0
    6.9360   -4.2900   21.5690 N   0  0  0  0  0  0  0  0  0  0  0  0
    6.5340   -5.3830   22.4010 C   0  0  0  0  0  0  0  0  0  0  0  0
    5.6350   -4.7660   23.4800 C   0  0  0  0  0  0  0  0  0  0  0  0
    6.4200   -3.7520   24.2630 C   0  0  0  0  0  0  0  0  0  0  0  0
    5.6610   -3.3380   25.4730 C   0  0  0  0  0  0  0  0  0  0  0  0
    4.4550   -3.1370   25.2930 O   0  0  0  0  0  0  0  0  0  0  0  0
    6.2750   -3.1840   26.7270 N   0  0  0  0  0  0  0  0  0  0  0  0
    6.2630   -4.1070   27.8150 C   0  0  0  0  0  0  0  0  0  0  0  0
    5.2370   -4.3390   28.6940 C   0  0  0  0  0  0  0  0  0  0  0  0
    4.6290   -5.5580   28.8940 C   0  0  0  0  0  0  0  0  0  0  0  0
    3.6290   -5.6160   29.8080 C   0  0  0  0  0  0  0  0  0  0  0  0
    3.2690   -4.4880   30.4820 N   0  0  0  0  0  0  0  0  0  0  0  0
    3.8120   -3.2380   30.3550 C   0  0  0  0  0  0  0  0  0  0  0  0
    3.3920   -2.1850   31.0750 N   0  0  0  0  0  0  0  0  0  0  0  0
    2.7270   -2.5250   32.2710 C   0  0  0  0  0  0  0  0  0  0  0  0
    1.9930   -1.2170   32.5720 C   0  0  0  0  0  0  0  0  0  0  0  0
    2.7880   -0.1510   32.7460 N   0  0  0  0  0  0  0  0  0  0  0  0
    2.5730    0.4590   34.0600 C   0  0  0  0  0  0  0  0  0  0  0  0
    4.0080   -0.2340   32.1630 C   0  0  0  0  0  0  0  0  0  0  0  0
    3.8870   -0.8650   30.7860 C   0  0  0  0  0  0  0  0  0  0  0  0
    4.8190   -3.1530   29.4410 N   0  0  0  0  0  0  0  0  0  0  0  0
    6.7890   -2.6470   23.3630 C   0  0  0  0  0  0  0  0  0  0  0  0
    7.6390   -3.2150   22.2120 C   0  0  0  0  0  0  0  0  0  0  0  0
  1  2  1  0
  2  3  2  0
  2  4  1  0
  4  5  1  0
  5  6  1  0
  6  7  1  0
  7  8  1  0
  8  9  2  0
  8 10  1  0
 10 11  1  0
 11 12  1  0
 12 13  2  0
 13 14  1  0
 14 15  2  0
 15 16  1  0
 16 17  1  0
 17 18  1  0
 18 19  1  0
 19 20  1  0
 20 21  1  0
 20 22  1  0
 17 23  1  0
 22 23  1  0
 12 24  1  0
 16 24  2  0
  7 25  1  0
  4 26  1  0
 25 26  1  0
M  END
