piperidine-amides-32838-covalent
     RDKit          3D

 29 31  0  0  0  0  0  0  0  0999 V2000
    7.1130   -3.3440   19.3590 C   0  0  0  0  0  0  0  0  0  0  0  0
    6.3530   -4.1770   20.3220 C   0  0  0  0  0  0  0  0  0  0  0  0
    5.2940   -4.7010   19.9370 O   0  0  0  0  0  0  0  0  0  0  0  0
    6.8670   -4.4110   21.6150 N   0  0  0  0  0  0  0  0  0  0  0  0
    6.4690   -5.5780   22.3420 C   0  0  0  0  0  0  0  0  0  0  0  0
    5.5350   -5.0550   23.4330 C   0  0  0  0  0  0  0  0  0  0  0  0
    6.3480   -4.1270   24.2690 C   0  0  0  0  0  0  0  0  0  0  0  0
    5.5560   -3.4180   25.3210 C   0  0  0  0  0  0  0  0  0  0  0  0
    4.9600   -2.4080   24.9470 O   0  0  0  0  0  0  0  0  0  0  0  0
    5.4680   -3.8680   26.6560 N   0  0  0  0  0  0  0  0  0  0  0  0
    6.3830   -3.7040   27.6890 C   0  0  0  0  0  0  0  0  0  0  0  0
    6.7540   -4.7920   28.4410 C   0  0  0  0  0  0  0  0  0  0  0  0
    5.7540   -5.2460   29.2230 C   0  0  0  0  0  0  0  0  0  0  0  0
    4.6150   -4.5440   28.9580 C   0  0  0  0  0  0  0  0  0  0  0  0
    3.4610   -4.4380   29.9430 C   0  0  0  0  0  0  0  0  0  0  0  0
    3.5690   -5.0910   31.1850 N   0  0  0  0  0  0  0  0  0  0  0  0
    2.4680   -5.8780   31.6740 C   0  0  0  0  0  0  0  0  0  0  0  0
    1.1120   -5.5940   31.5890 O   0  0  0  0  0  0  0  0  0  0  0  0
    2.7570   -7.0700   32.3130 O   0  0  0  0  0  0  0  0  0  0  0  0
    1.8350   -8.1620   32.3060 C   0  0  0  0  0  0  0  0  0  0  0  0
    2.2490   -9.2620   33.0340 C   0  0  0  0  0  0  0  0  0  0  0  0
    0.5380   -7.7220   32.8710 C   0  0  0  0  0  0  0  0  0  0  0  0
    1.6260   -8.5690   30.8480 C   0  0  0  0  0  0  0  0  0  0  0  0
    2.2930   -3.7580   29.7600 C   0  0  0  0  0  0  0  0  0  0  0  0
    2.0490   -3.0120   28.4740 C   0  0  0  0  0  0  0  0  0  0  0  0
    3.1390   -3.0740   27.4640 C   0  0  0  0  0  0  0  0  0  0  0  0
    4.4510   -3.8510   27.6980 C   0  0  0  0  0  0  0  0  0  0  0  0
    7.0150   -3.0010   23.4870 C   0  0  0  0  0  0  0  0  0  0  0  0
    7.5760   -3.3520   22.2660 C   0  0  0  0  0  0  0  0  0  0  0  0
  1  2  1  0
  2  3  2  0
  2  4  1  0
  4  5  1  0
  5  6  1  0
  6  7  1  0
  7  8  1  0
  8  9  2  0
  8 10  1  0
 10 11  1  0
 11 12  1  0
 12 13  1  0
 13 14  1  0
 14 15  2  0
 15 16  1  0
 16 17  1  0
 17 18  2  0
 17 19  1  0
 20 19  1  0
 20 21  1  0
 20 22  1  0
 20 23  1  0
 15 24  1  0
 24 25  2  0
 25 26  1  0
 10 27  1  0
 14 27  1  0
 26 27  2  0
  7 28  1  0
  4 29  1  0
 28 29  1  0
M  END
