piperidine-amides-420-covalent
     RDKit          3D

 27 30  0  0  0  0  0  0  0  0999 V2000
    7.0630   -3.3740   19.3470 C   0  0  0  0  0  0  0  0  0  0  0  0
    6.3340   -4.0970   20.3680 C   0  0  0  0  0  0  0  0  0  0  0  0
    5.3320   -4.7710   19.9680 O   0  0  0  0  0  0  0  0  0  0  0  0
    6.7010   -4.1450   21.7370 N   0  0  0  0  0  0  0  0  0  0  0  0
    7.7190   -3.1350   22.1830 C   0  0  0  0  0  0  0  0  0  0  0  0
    7.4730   -2.9770   23.7400 C   0  0  0  0  0  0  0  0  0  0  0  0
    6.2430   -3.7870   24.0090 C   0  0  0  0  0  0  0  0  0  0  0  0
    5.5060   -3.4940   25.3910 C   0  0  0  0  0  0  0  0  0  0  0  0
    4.4980   -4.1780   25.4360 O   0  0  0  0  0  0  0  0  0  0  0  0
    6.0790   -2.6280   26.1350 N   0  0  0  0  0  0  0  0  0  0  0  0
    6.4280   -1.6710   27.0430 C   0  0  0  0  0  0  0  0  0  0  0  0
    7.1330   -1.3240   28.1690 C   0  0  0  0  0  0  0  0  0  0  0  0
    7.1260    0.0250   28.8110 N   0  0  0  0  0  0  0  0  0  0  0  0
    6.6420    1.3040   28.7730 C   0  0  0  0  0  0  0  0  0  0  0  0
    5.9100    0.8890   27.5690 C   0  0  0  0  0  0  0  0  0  0  0  0
    5.2080    2.2080   27.2500 C   0  0  0  0  0  0  0  0  0  0  0  0
    4.0300    2.1190   28.0410 C   0  0  0  0  0  0  0  0  0  0  0  0
    3.1070    3.1210   28.0520 N   0  0  0  0  0  0  0  0  0  0  0  0
    3.3870    4.2800   27.2180 C   0  0  0  0  0  0  0  0  0  0  0  0
    2.4950    5.3470   27.1760 N   0  0  0  0  0  0  0  0  0  0  0  0
    3.1630    6.2110   26.2630 C   0  0  0  0  0  0  0  0  0  0  0  0
    4.4560    5.5100   25.8460 C   0  0  0  0  0  0  0  0  0  0  0  0
    4.6470    4.2840   26.4210 C   0  0  0  0  0  0  0  0  0  0  0  0
    5.5330    3.2710   26.4390 C   0  0  0  0  0  0  0  0  0  0  0  0
    5.7700   -0.3420   26.7800 C   0  0  0  0  0  0  0  0  0  0  0  0
    6.3270   -5.2430   23.7130 C   0  0  0  0  0  0  0  0  0  0  0  0
    6.6730   -5.4350   22.3790 C   0  0  0  0  0  0  0  0  0  0  0  0
  1  2  1  0
  2  3  2  0
  2  4  1  0
  4  5  1  0
  5  6  1  0
  6  7  1  0
  7  8  1  0
  8  9  2  0
  8 10  1  0
 10 11  1  0
 11 12  2  0
 12 13  1  0
 13 14  2  0
 14 15  1  0
 15 16  1  0
 16 17  2  0
 17 18  1  0
 18 19  2  0
 19 20  1  0
 20 21  1  0
 21 22  2  0
 19 23  1  0
 22 23  1  0
 16 24  1  0
 23 24  2  0
 11 25  1  0
 15 25  2  0
  7 26  1  0
  4 27  1  0
 26 27  1  0
M  END
