piperidine-amides-33777-covalent
     RDKit          3D

 28 30  0  0  0  0  0  0  0  0999 V2000
    7.0810   -3.3810   19.3970 C   0  0  0  0  0  0  0  0  0  0  0  0
    6.4090   -4.2320   20.3870 C   0  0  0  0  0  0  0  0  0  0  0  0
    5.3850   -4.8420   19.9910 O   0  0  0  0  0  0  0  0  0  0  0  0
    6.9360   -4.3910   21.7010 N   0  0  0  0  0  0  0  0  0  0  0  0
    6.4540   -5.4450   22.5080 C   0  0  0  0  0  0  0  0  0  0  0  0
    6.0240   -5.0460   23.8570 C   0  0  0  0  0  0  0  0  0  0  0  0
    6.3710   -3.6790   24.3550 C   0  0  0  0  0  0  0  0  0  0  0  0
    5.2990   -3.1560   25.3020 C   0  0  0  0  0  0  0  0  0  0  0  0
    4.3720   -2.4880   24.8210 O   0  0  0  0  0  0  0  0  0  0  0  0
    5.3010   -3.3970   26.7100 N   0  0  0  0  0  0  0  0  0  0  0  0
    4.4020   -3.0110   27.7040 C   0  0  0  0  0  0  0  0  0  0  0  0
    4.2990   -3.9580   28.8070 C   0  0  0  0  0  0  0  0  0  0  0  0
    4.8630   -5.1730   28.7150 N   0  0  0  0  0  0  0  0  0  0  0  0
    4.1980   -6.2080   29.8560 S   0  0  0  0  0  0  0  0  0  0  0  0
    3.3820   -5.4160   30.8420 O   0  0  0  0  0  0  0  0  0  0  0  0
    5.2120   -7.0260   30.5800 O   0  0  0  0  0  0  0  0  0  0  0  0
    3.1760   -7.1710   28.7770 C   0  0  0  0  0  0  0  0  0  0  0  0
    2.1300   -7.7070   29.5130 C   0  0  0  0  0  0  0  0  0  0  0  0
    2.0940   -7.4050   30.8570 F   0  0  0  0  0  0  0  0  0  0  0  0
    1.0620   -8.6150   28.7760 C   0  0  0  0  0  0  0  0  0  0  0  0
    1.1880   -8.8920   27.2620 C   0  0  0  0  0  0  0  0  0  0  0  0
    2.4020   -8.2100   26.6490 C   0  0  0  0  0  0  0  0  0  0  0  0
    3.3700   -7.3820   27.3500 C   0  0  0  0  0  0  0  0  0  0  0  0
    4.3540   -6.9180   26.4810 F   0  0  0  0  0  0  0  0  0  0  0  0
    6.1150   -5.2590   28.2890 C   0  0  0  0  0  0  0  0  0  0  0  0
    6.3010   -4.2650   27.1400 C   0  0  0  0  0  0  0  0  0  0  0  0
    6.6770   -2.7270   23.2310 C   0  0  0  0  0  0  0  0  0  0  0  0
    7.6240   -3.3280   22.3950 C   0  0  0  0  0  0  0  0  0  0  0  0
  1  2  1  0
  2  3  2  0
  2  4  1  0
  4  5  1  0
  5  6  1  0
  6  7  1  0
  7  8  1  0
  8  9  2  0
  8 10  1  0
 10 11  1  0
 11 12  1  0
 12 13  1  0
 13 14  1  0
 14 15  2  0
 14 16  2  0
 14 17  1  0
 17 18  2  0
 18 19  1  0
 18 20  1  0
 20 21  2  0
 21 22  1  0
 17 23  1  0
 22 23  2  0
 23 24  1  0
 13 25  1  0
 10 26  1  0
 25 26  1  0
  7 27  1  0
  4 28  1  0
 27 28  1  0
M  END
