piperidine-amides-29636-covalent
     RDKit          3D

 27 29  0  0  0  0  0  0  0  0999 V2000
    7.0670   -3.3950   19.4300 C   0  0  0  0  0  0  0  0  0  0  0  0
    6.3770   -4.2730   20.3600 C   0  0  0  0  0  0  0  0  0  0  0  0
    5.3750   -4.8870   19.9930 O   0  0  0  0  0  0  0  0  0  0  0  0
    6.9050   -4.4570   21.6850 N   0  0  0  0  0  0  0  0  0  0  0  0
    7.6810   -3.4050   22.2990 C   0  0  0  0  0  0  0  0  0  0  0  0
    6.9240   -2.8040   23.4510 C   0  0  0  0  0  0  0  0  0  0  0  0
    5.7500   -3.7180   23.7600 C   0  0  0  0  0  0  0  0  0  0  0  0
    4.9090   -3.2540   24.9200 C   0  0  0  0  0  0  0  0  0  0  0  0
    3.7360   -2.9080   24.7500 O   0  0  0  0  0  0  0  0  0  0  0  0
    5.3870   -3.1910   26.2430 N   0  0  0  0  0  0  0  0  0  0  0  0
    6.6950   -3.5660   26.4420 C   0  0  0  0  0  0  0  0  0  0  0  0
    7.5580   -2.8820   25.4750 C   0  0  0  0  0  0  0  0  0  0  0  0
    8.8210   -3.1990   25.5850 C   0  0  0  0  0  0  0  0  0  0  0  0
    9.1120   -4.0990   26.5840 C   0  0  0  0  0  0  0  0  0  0  0  0
   10.3550   -4.4720   26.7790 O   0  0  0  0  0  0  0  0  0  0  0  0
    9.8720   -5.2600   27.8010 C   0  0  0  0  0  0  0  0  0  0  0  0
    9.1110   -6.2580   27.0740 C   0  0  0  0  0  0  0  0  0  0  0  0
    8.3990   -4.8170   27.5800 C   0  0  0  0  0  0  0  0  0  0  0  0
    7.1300   -4.4220   27.3610 C   0  0  0  0  0  0  0  0  0  0  0  0
    6.2420   -5.0320   28.2370 C   0  0  0  0  0  0  0  0  0  0  0  0
    6.3490   -6.2150   29.0960 C   0  0  0  0  0  0  0  0  0  0  0  0
    4.9290   -4.2520   28.2160 C   0  0  0  0  0  0  0  0  0  0  0  0
    4.6070   -3.1100   27.4650 C   0  0  0  0  0  0  0  0  0  0  0  0
    5.0500   -1.8450   28.0870 C   0  0  0  0  0  0  0  0  0  0  0  0
    3.2710   -3.0630   27.1230 C   0  0  0  0  0  0  0  0  0  0  0  0
    6.1570   -5.1540   23.7910 C   0  0  0  0  0  0  0  0  0  0  0  0
    6.6070   -5.6460   22.4500 C   0  0  0  0  0  0  0  0  0  0  0  0
  1  2  1  0
  2  3  2  0
  2  4  1  0
  4  5  1  0
  5  6  1  0
  6  7  1  0
  7  8  1  0
  8  9  2  0
  8 10  1  0
 10 11  1  0
 11 12  2  0
 12 13  1  0
 13 14  2  0
 14 15  1  0
 15 16  1  0
 16 17  1  0
 14 18  1  0
 11 19  1  0
 18 19  2  0
 19 20  1  0
 20 21  1  0
 20 22  2  0
 10 23  1  0
 22 23  1  0
 23 24  1  0
 23 25  1  0
  7 26  1  0
  4 27  1  0
 26 27  1  0
M  END
