piperidine-amides-31138-covalent
     RDKit          3D

 25 27  0  0  0  0  0  0  0  0999 V2000
    7.1080   -3.3520   19.3280 C   0  0  0  0  0  0  0  0  0  0  0  0
    6.4310   -4.2040   20.3070 C   0  0  0  0  0  0  0  0  0  0  0  0
    5.3810   -4.7800   19.9710 O   0  0  0  0  0  0  0  0  0  0  0  0
    6.9700   -4.4450   21.5890 N   0  0  0  0  0  0  0  0  0  0  0  0
    6.5770   -5.5840   22.3570 C   0  0  0  0  0  0  0  0  0  0  0  0
    5.6690   -5.0100   23.4130 C   0  0  0  0  0  0  0  0  0  0  0  0
    6.3020   -3.9120   24.2370 C   0  0  0  0  0  0  0  0  0  0  0  0
    5.3210   -3.3170   25.1770 C   0  0  0  0  0  0  0  0  0  0  0  0
    4.4000   -2.5940   24.7220 O   0  0  0  0  0  0  0  0  0  0  0  0
    5.3350   -3.4860   26.5730 N   0  0  0  0  0  0  0  0  0  0  0  0
    6.5340   -3.2360   27.2740 C   0  0  0  0  0  0  0  0  0  0  0  0
    6.5980   -4.3410   28.2600 C   0  0  0  0  0  0  0  0  0  0  0  0
    5.4490   -4.2510   29.1510 C   0  0  0  0  0  0  0  0  0  0  0  0
    5.2260   -5.4360   30.0390 C   0  0  0  0  0  0  0  0  0  0  0  0
    6.2100   -6.5590   29.8920 C   0  0  0  0  0  0  0  0  0  0  0  0
    5.9700   -7.6880   30.8110 C   0  0  0  0  0  0  0  0  0  0  0  0
    4.9530   -7.7580   31.7300 C   0  0  0  0  0  0  0  0  0  0  0  0
    4.0390   -6.7200   31.8480 C   0  0  0  0  0  0  0  0  0  0  0  0
    2.7300   -6.8360   33.0320 Cl  0  0  0  0  0  0  0  0  0  0  0  0
    4.2020   -5.5210   30.9550 C   0  0  0  0  0  0  0  0  0  0  0  0
    3.1040   -4.1330   31.0240 Cl  0  0  0  0  0  0  0  0  0  0  0  0
    4.2530   -3.7650   28.6890 C   0  0  0  0  0  0  0  0  0  0  0  0
    4.1200   -3.2380   27.2790 C   0  0  0  0  0  0  0  0  0  0  0  0
    6.9380   -2.8480   23.3880 C   0  0  0  0  0  0  0  0  0  0  0  0
    7.6740   -3.3740   22.2210 C   0  0  0  0  0  0  0  0  0  0  0  0
  1  2  1  0
  2  3  2  0
  2  4  1  0
  4  5  1  0
  5  6  1  0
  6  7  1  0
  7  8  1  0
  8  9  2  0
  8 10  1  0
 10 11  1  0
 11 12  1  0
 12 13  1  0
 13 14  1  0
 14 15  2  0
 15 16  1  0
 16 17  2  0
 17 18  1  0
 18 19  1  0
 14 20  1  0
 18 20  2  0
 20 21  1  0
 13 22  1  0
 10 23  1  0
 22 23  1  0
  7 24  1  0
  4 25  1  0
 24 25  1  0
M  END
