piperidine-amides-19769-covalent
     RDKit          3D

 21 23  0  0  0  0  0  0  0  0999 V2000
    6.9830   -3.3710   19.4740 C   0  0  0  0  0  0  0  0  0  0  0  0
    6.3580   -4.2960   20.4630 C   0  0  0  0  0  0  0  0  0  0  0  0
    5.4470   -5.0020   20.0190 O   0  0  0  0  0  0  0  0  0  0  0  0
    6.8050   -4.3690   21.8080 N   0  0  0  0  0  0  0  0  0  0  0  0
    6.6170   -5.5750   22.5950 C   0  0  0  0  0  0  0  0  0  0  0  0
    6.0110   -5.2600   23.9530 C   0  0  0  0  0  0  0  0  0  0  0  0
    5.9230   -3.7430   24.1110 C   0  0  0  0  0  0  0  0  0  0  0  0
    5.2070   -3.3110   25.3740 C   0  0  0  0  0  0  0  0  0  0  0  0
    4.3920   -2.3960   25.2420 O   0  0  0  0  0  0  0  0  0  0  0  0
    5.3510   -3.8340   26.7000 N   0  0  0  0  0  0  0  0  0  0  0  0
    6.5210   -3.4790   27.3510 C   0  0  0  0  0  0  0  0  0  0  0  0
    6.7510   -4.6910   28.2310 C   0  0  0  0  0  0  0  0  0  0  0  0
    5.6900   -5.2000   28.8010 C   0  0  0  0  0  0  0  0  0  0  0  0
    5.7980   -6.6550   29.9890 S   0  0  0  0  0  0  0  0  0  0  0  0
    3.9970   -6.7130   30.2760 C   0  0  0  0  0  0  0  0  0  0  0  0
    3.5060   -5.7030   29.4960 C   0  0  0  0  0  0  0  0  0  0  0  0
    2.3500   -4.8860   28.9630 C   0  0  0  0  0  0  0  0  0  0  0  0
    4.2870   -4.8260   28.6620 C   0  0  0  0  0  0  0  0  0  0  0  0
    4.2870   -3.6500   27.6690 C   0  0  0  0  0  0  0  0  0  0  0  0
    7.1740   -3.0230   23.7790 C   0  0  0  0  0  0  0  0  0  0  0  0
    7.6010   -3.2900   22.3640 C   0  0  0  0  0  0  0  0  0  0  0  0
  1  2  1  0
  2  3  2  0
  2  4  1  0
  4  5  1  0
  5  6  1  0
  6  7  1  0
  7  8  1  0
  8  9  2  0
  8 10  1  0
 10 11  1  0
 11 12  1  0
 12 13  1  0
 13 14  1  0
 14 15  1  0
 15 16  2  0
 16 17  1  0
 13 18  2  0
 16 18  1  0
 10 19  1  0
 18 19  1  0
  7 20  1  0
  4 21  1  0
 20 21  1  0
M  END
