piperidine-amides-7097-covalent
     RDKit          3D

 21 22  0  0  0  0  0  0  0  0999 V2000
    7.1200   -3.2720   19.2450 C   0  0  0  0  0  0  0  0  0  0  0  0
    6.3860   -4.0580   20.2550 C   0  0  0  0  0  0  0  0  0  0  0  0
    5.3390   -4.6630   19.9340 O   0  0  0  0  0  0  0  0  0  0  0  0
    6.8660   -4.1830   21.5640 N   0  0  0  0  0  0  0  0  0  0  0  0
    7.7480   -3.1860   22.1360 C   0  0  0  0  0  0  0  0  0  0  0  0
    7.0390   -2.6340   23.3680 C   0  0  0  0  0  0  0  0  0  0  0  0
    6.6610   -3.8230   24.2290 C   0  0  0  0  0  0  0  0  0  0  0  0
    5.8670   -3.3190   25.3620 C   0  0  0  0  0  0  0  0  0  0  0  0
    4.6380   -3.5600   25.3540 O   0  0  0  0  0  0  0  0  0  0  0  0
    6.4530   -2.5750   26.4200 N   0  0  0  0  0  0  0  0  0  0  0  0
    5.4960   -1.9400   27.2880 C   0  0  0  0  0  0  0  0  0  0  0  0
    6.1260   -1.1920   28.4460 C   0  0  0  0  0  0  0  0  0  0  0  0
    5.5520   -0.1200   29.1460 C   0  0  0  0  0  0  0  0  0  0  0  0
    4.4040    0.3110   28.8240 O   0  0  0  0  0  0  0  0  0  0  0  0
    6.1990    0.5030   30.2000 C   0  0  0  0  0  0  0  0  0  0  0  0
    7.4480    0.0860   30.6010 C   0  0  0  0  0  0  0  0  0  0  0  0
    8.1230   -0.9200   30.0300 C   0  0  0  0  0  0  0  0  0  0  0  0
    7.5100   -1.6630   28.8850 C   0  0  0  0  0  0  0  0  0  0  0  0
    8.1680   -2.6860   28.2970 O   0  0  0  0  0  0  0  0  0  0  0  0
    5.8990   -4.8950   23.5080 C   0  0  0  0  0  0  0  0  0  0  0  0
    6.6630   -5.3930   22.3240 C   0  0  0  0  0  0  0  0  0  0  0  0
  1  2  1  0
  2  3  2  0
  2  4  1  0
  4  5  1  0
  5  6  1  0
  6  7  1  0
  7  8  1  0
  8  9  2  0
  8 10  1  0
 10 11  1  0
 11 12  1  0
 12 13  2  0
 13 14  1  0
 13 15  1  0
 15 16  2  0
 16 17  1  0
 12 18  1  0
 17 18  2  0
 18 19  1  0
  7 20  1  0
  4 21  1  0
 20 21  1  0
M  END
