piperidine-amides-24237-covalent
     RDKit          3D

 23 25  0  0  0  0  0  0  0  0999 V2000
    7.0950   -3.3700   19.3820 C   0  0  0  0  0  0  0  0  0  0  0  0
    6.3850   -4.2290   20.3350 C   0  0  0  0  0  0  0  0  0  0  0  0
    5.3410   -4.8150   19.9770 O   0  0  0  0  0  0  0  0  0  0  0  0
    6.8930   -4.4630   21.6230 N   0  0  0  0  0  0  0  0  0  0  0  0
    6.3600   -5.5790   22.3500 C   0  0  0  0  0  0  0  0  0  0  0  0
    5.4830   -4.9400   23.4300 C   0  0  0  0  0  0  0  0  0  0  0  0
    6.4220   -4.0880   24.2560 C   0  0  0  0  0  0  0  0  0  0  0  0
    5.6720   -3.4610   25.3780 C   0  0  0  0  0  0  0  0  0  0  0  0
    4.8870   -2.5470   25.0640 O   0  0  0  0  0  0  0  0  0  0  0  0
    5.7690   -3.8420   26.7500 N   0  0  0  0  0  0  0  0  0  0  0  0
    5.4280   -2.9100   27.7640 C   0  0  0  0  0  0  0  0  0  0  0  0
    4.4950   -3.6350   28.6880 C   0  0  0  0  0  0  0  0  0  0  0  0
    4.8400   -4.8480   29.1850 C   0  0  0  0  0  0  0  0  0  0  0  0
    4.0830   -5.5230   30.0760 C   0  0  0  0  0  0  0  0  0  0  0  0
    4.5280   -6.7350   30.5240 C   0  0  0  0  0  0  0  0  0  0  0  0
    3.5820   -7.6570   31.6910 Cl  0  0  0  0  0  0  0  0  0  0  0  0
    5.7240   -7.1950   30.0390 C   0  0  0  0  0  0  0  0  0  0  0  0
    6.7390   -6.6280   29.0420 C   0  0  0  0  0  0  0  0  0  0  0  0
    6.0060   -5.3380   28.7230 C   0  0  0  0  0  0  0  0  0  0  0  0
    6.6200   -4.4270   27.7480 C   0  0  1  0  0  0  0  0  0  0  0  0
    6.6980   -5.8960   27.7190 C   0  0  0  0  0  0  0  0  0  0  0  0
    6.9870   -2.9650   23.4200 C   0  0  0  0  0  0  0  0  0  0  0  0
    7.6250   -3.4430   22.3080 C   0  0  0  0  0  0  0  0  0  0  0  0
  1  2  1  0
  2  3  2  0
  2  4  1  0
  4  5  1  0
  5  6  1  0
  6  7  1  0
  7  8  1  0
  8  9  2  0
  8 10  1  0
 10 11  1  0
 11 12  1  0
 12 13  1  0
 13 14  2  0
 14 15  1  0
 15 16  1  0
 15 17  2  0
 17 18  1  0
 13 19  1  0
 18 19  2  0
 10 20  1  0
 19 20  1  0
 20 21  1  6
  7 22  1  0
  4 23  1  0
 22 23  1  0
M  END
