piperidine-amides-3718-covalent
     RDKit          3D

 19 20  0  0  0  0  0  0  0  0999 V2000
    7.1360   -3.2610   19.1970 C   0  0  0  0  0  0  0  0  0  0  0  0
    6.3790   -4.0110   20.2110 C   0  0  0  0  0  0  0  0  0  0  0  0
    5.2720   -4.4820   19.8600 O   0  0  0  0  0  0  0  0  0  0  0  0
    6.9110   -4.2500   21.5000 N   0  0  0  0  0  0  0  0  0  0  0  0
    7.6200   -3.1960   22.1390 C   0  0  0  0  0  0  0  0  0  0  0  0
    7.1410   -2.8110   23.4650 C   0  0  0  0  0  0  0  0  0  0  0  0
    6.4490   -3.8580   24.2470 C   0  0  0  0  0  0  0  0  0  0  0  0
    5.6780   -3.2850   25.4010 C   0  0  0  0  0  0  0  0  0  0  0  0
    4.5570   -2.7880   25.1920 O   0  0  0  0  0  0  0  0  0  0  0  0
    6.1780   -3.2960   26.7160 N   0  0  0  0  0  0  0  0  0  0  0  0
    6.0060   -4.3100   27.6940 C   0  0  0  0  0  0  0  0  0  0  0  0
    4.6950   -4.6970   28.2060 C   0  0  1  0  0  0  0  0  0  0  0  0
    3.8750   -5.2180   27.4160 O   0  0  0  0  0  0  0  0  0  0  0  0
    4.1530   -6.5580   27.3160 C   0  0  0  0  0  0  0  0  0  0  0  0
    4.3040   -7.1080   28.5870 C   0  0  0  0  0  0  0  0  0  0  0  0
    5.0170   -5.8750   29.1960 C   0  0  1  0  0  0  0  0  0  0  0  0
    6.3430   -6.5210   28.9750 C   0  0  0  0  0  0  0  0  0  0  0  0
    5.5360   -4.7040   23.3600 C   0  0  0  0  0  0  0  0  0  0  0  0
    6.4360   -5.3250   22.3260 C   0  0  0  0  0  0  0  0  0  0  0  0
  1  2  1  0
  2  3  2  0
  2  4  1  0
  4  5  1  0
  5  6  1  0
  6  7  1  0
  7  8  1  0
  8  9  2  0
  8 10  1  0
 10 11  1  0
 12 11  1  6
 12 13  1  0
 13 14  1  0
 14 15  1  0
 12 16  1  0
 15 16  1  0
 16 17  1  6
  7 18  1  0
  4 19  1  0
 18 19  1  0
M  END
