piperidine-amides-8340-covalent
     RDKit          3D

 24 25  0  0  0  0  0  0  0  0999 V2000
    7.1220   -3.2840   19.2140 C   0  0  0  0  0  0  0  0  0  0  0  0
    6.3900   -4.0550   20.2170 C   0  0  0  0  0  0  0  0  0  0  0  0
    5.3040   -4.5640   19.8900 O   0  0  0  0  0  0  0  0  0  0  0  0
    6.9470   -4.2540   21.5040 N   0  0  0  0  0  0  0  0  0  0  0  0
    6.4210   -5.3170   22.3000 C   0  0  0  0  0  0  0  0  0  0  0  0
    5.5840   -4.7140   23.3910 C   0  0  0  0  0  0  0  0  0  0  0  0
    6.5120   -3.8780   24.2470 C   0  0  0  0  0  0  0  0  0  0  0  0
    5.7950   -3.3670   25.4560 C   0  0  0  0  0  0  0  0  0  0  0  0
    4.5670   -3.3810   25.4180 O   0  0  0  0  0  0  0  0  0  0  0  0
    6.5770   -2.8970   26.5020 N   0  0  0  0  0  0  0  0  0  0  0  0
    6.2920   -3.0910   27.8870 C   0  0  0  0  0  0  0  0  0  0  0  0
    5.4530   -4.1500   28.2530 C   0  0  0  0  0  0  0  0  0  0  0  0
    5.9690   -5.2530   28.9030 C   0  0  0  0  0  0  0  0  0  0  0  0
    5.2480   -6.3660   29.3410 C   0  0  0  0  0  0  0  0  0  0  0  0
    5.7700   -7.4580   29.9950 F   0  0  0  0  0  0  0  0  0  0  0  0
    3.7730   -6.2980   29.0450 C   0  0  0  0  0  0  0  0  0  0  0  0
    2.7660   -7.6480   29.5600 Cl  0  0  0  0  0  0  0  0  0  0  0  0
    3.1620   -5.0850   28.3160 C   0  0  0  0  0  0  0  0  0  0  0  0
    1.7790   -5.0300   28.0410 N   0  0  0  0  0  0  0  0  0  0  0  0
    1.3210   -5.6480   27.0660 O   0  0  0  0  0  0  0  0  0  0  0  0
    0.9220   -4.4750   28.9610 O   0  0  0  0  0  0  0  0  0  0  0  0
    4.1210   -4.0280   27.9490 C   0  0  0  0  0  0  0  0  0  0  0  0
    7.1320   -2.7710   23.4780 C   0  0  0  0  0  0  0  0  0  0  0  0
    7.6640   -3.1510   22.0890 C   0  0  0  0  0  0  0  0  0  0  0  0
  1  2  1  0
  2  3  2  0
  2  4  1  0
  4  5  1  0
  5  6  1  0
  6  7  1  0
  7  8  1  0
  8  9  2  0
  8 10  1  0
 10 11  1  0
 11 12  1  0
 12 13  2  0
 13 14  1  0
 14 15  1  0
 14 16  2  0
 16 17  1  0
 16 18  1  0
 18 19  1  0
 19 20  2  0
 19 21  1  0
 12 22  1  0
 18 22  2  0
  7 23  1  0
  4 24  1  0
 23 24  1  0
M  CHG  2  19   1  21  -1
M  END
