piperidine-amides-31054-covalent
     RDKit          3D

 28 30  0  0  0  0  0  0  0  0999 V2000
    7.1280   -3.2970   19.2770 C   0  0  0  0  0  0  0  0  0  0  0  0
    6.3700   -4.0370   20.2850 C   0  0  0  0  0  0  0  0  0  0  0  0
    5.3330   -4.6230   19.9280 O   0  0  0  0  0  0  0  0  0  0  0  0
    6.8120   -4.1460   21.6210 N   0  0  0  0  0  0  0  0  0  0  0  0
    7.6990   -3.1560   22.2290 C   0  0  0  0  0  0  0  0  0  0  0  0
    7.4810   -3.1860   23.7300 C   0  0  0  0  0  0  0  0  0  0  0  0
    6.1080   -3.6770   24.0620 C   0  0  0  0  0  0  0  0  0  0  0  0
    5.7260   -3.7320   25.5040 C   0  0  0  0  0  0  0  0  0  0  0  0
    4.7330   -4.4470   25.8100 O   0  0  0  0  0  0  0  0  0  0  0  0
    6.3060   -3.0380   26.5990 N   0  0  0  0  0  0  0  0  0  0  0  0
    6.2840   -3.7630   27.9050 C   0  0  0  0  0  0  0  0  0  0  0  0
    6.0790   -5.2230   27.7090 C   0  0  0  0  0  0  0  0  0  0  0  0
    5.7980   -1.6710   26.7010 C   0  0  1  0  0  0  0  0  0  0  0  0
    4.2910   -1.7360   26.6340 C   0  0  0  0  0  0  0  0  0  0  0  0
    3.5940   -0.9980   27.7920 C   0  0  0  0  0  0  0  0  0  0  0  0
    2.0920   -1.0500   27.7690 C   0  0  0  0  0  0  0  0  0  0  0  0
    1.4550   -1.7200   26.7670 C   0  0  0  0  0  0  0  0  0  0  0  0
    2.0810   -2.3780   25.7350 C   0  0  0  0  0  0  0  0  0  0  0  0
    3.5670   -2.3780   25.6710 C   0  0  0  0  0  0  0  0  0  0  0  0
    6.2050   -0.8670   27.7510 C   0  0  0  0  0  0  0  0  0  0  0  0
    6.9900   -1.1890   28.9670 C   0  0  0  0  0  0  0  0  0  0  0  0
    7.5380   -1.0140   29.9990 C   0  0  0  0  0  0  0  0  0  0  0  0
    7.2220    0.4470   30.1370 C   0  0  0  0  0  0  0  0  0  0  0  0
    7.7060    1.0400   31.2600 F   0  0  0  0  0  0  0  0  0  0  0  0
    6.4860    1.1770   29.1920 C   0  0  0  0  0  0  0  0  0  0  0  0
    5.8960    0.6060   27.8910 C   0  0  0  0  0  0  0  0  0  0  0  0
    5.8160   -5.0460   23.5500 C   0  0  0  0  0  0  0  0  0  0  0  0
    6.6800   -5.3740   22.3610 C   0  0  0  0  0  0  0  0  0  0  0  0
  1  2  1  0
  2  3  2  0
  2  4  1  0
  4  5  1  0
  5  6  1  0
  6  7  1  0
  7  8  1  0
  8  9  2  0
  8 10  1  0
 10 11  1  0
 11 12  1  0
 13 10  1  1
 13 14  1  0
 14 15  2  0
 15 16  1  0
 16 17  2  0
 17 18  1  0
 14 19  1  0
 18 19  2  0
 13 20  1  0
 20 21  2  0
 21 22  1  0
 22 23  2  0
 23 24  1  0
 23 25  1  0
 20 26  1  0
 25 26  2  0
  7 27  1  0
  4 28  1  0
 27 28  1  0
M  END
