piperidine-amides-23565-covalent
     RDKit          3D

 24 25  0  0  0  0  0  0  0  0999 V2000
    7.1430   -3.2970   19.2310 C   0  0  0  0  0  0  0  0  0  0  0  0
    6.3590   -4.0170   20.2400 C   0  0  0  0  0  0  0  0  0  0  0  0
    5.2580   -4.4870   19.8660 O   0  0  0  0  0  0  0  0  0  0  0  0
    6.8600   -4.2320   21.5470 N   0  0  0  0  0  0  0  0  0  0  0  0
    6.4120   -5.3620   22.2680 C   0  0  0  0  0  0  0  0  0  0  0  0
    6.0290   -5.0600   23.6400 C   0  0  0  0  0  0  0  0  0  0  0  0
    6.6710   -3.8760   24.2510 C   0  0  0  0  0  0  0  0  0  0  0  0
    5.8410   -3.3870   25.3890 C   0  0  0  0  0  0  0  0  0  0  0  0
    4.7090   -2.9290   25.1470 O   0  0  0  0  0  0  0  0  0  0  0  0
    6.3050   -3.4450   26.7180 N   0  0  0  0  0  0  0  0  0  0  0  0
    6.8030   -4.6240   27.3480 C   0  0  0  0  0  0  0  0  0  0  0  0
    5.9520   -5.7600   27.6380 C   0  0  0  0  0  0  0  0  0  0  0  0
    6.4670   -2.1950   27.4480 C   0  0  0  0  0  0  0  0  0  0  0  0
    5.2970   -1.5180   27.7320 C   0  0  0  0  0  0  0  0  0  0  0  0
    4.0330   -2.2490   27.3280 C   0  0  0  0  0  0  0  0  0  0  0  0
    2.7740   -1.4500   27.6610 C   0  0  0  0  0  0  0  0  0  0  0  0
    2.9730   -0.0410   28.3490 C   0  0  0  0  0  0  0  0  0  0  0  0
    1.7860    0.8160   28.7120 C   0  0  0  0  0  0  0  0  0  0  0  0
    0.4580    0.3410   28.5370 N   0  0  0  0  0  0  0  0  0  0  0  0
    4.3030    0.6200   28.7250 C   0  0  0  0  0  0  0  0  0  0  0  0
    5.5130   -0.1920   28.3830 C   0  0  0  0  0  0  0  0  0  0  0  0
    6.7230    0.3860   28.7130 F   0  0  0  0  0  0  0  0  0  0  0  0
    6.9110   -2.7840   23.2500 C   0  0  0  0  0  0  0  0  0  0  0  0
    7.7140   -3.2810   22.2290 C   0  0  0  0  0  0  0  0  0  0  0  0
  1  2  1  0
  2  3  2  0
  2  4  1  0
  4  5  1  0
  5  6  1  0
  6  7  1  0
  7  8  1  0
  8  9  2  0
  8 10  1  0
 10 11  1  0
 11 12  1  0
 10 13  1  0
 13 14  1  0
 14 15  2  0
 15 16  1  0
 16 17  2  0
 17 18  1  0
 18 19  3  0
 17 20  1  0
 14 21  1  0
 20 21  2  0
 21 22  1  0
  7 23  1  0
  4 24  1  0
 23 24  1  0
M  END
