piperidine-amides-12889-covalent
     RDKit          3D

 21 22  0  0  0  0  0  0  0  0999 V2000
    7.1340   -3.2530   19.1890 C   0  0  0  0  0  0  0  0  0  0  0  0
    6.3710   -4.0060   20.2100 C   0  0  0  0  0  0  0  0  0  0  0  0
    5.2760   -4.4830   19.8530 O   0  0  0  0  0  0  0  0  0  0  0  0
    6.8890   -4.2100   21.4940 N   0  0  0  0  0  0  0  0  0  0  0  0
    6.5340   -5.3590   22.2400 C   0  0  0  0  0  0  0  0  0  0  0  0
    6.0090   -5.0670   23.5780 C   0  0  0  0  0  0  0  0  0  0  0  0
    6.4870   -3.8210   24.2390 C   0  0  0  0  0  0  0  0  0  0  0  0
    5.3820   -3.2570   25.0500 C   0  0  0  0  0  0  0  0  0  0  0  0
    4.3990   -2.7840   24.4560 O   0  0  0  0  0  0  0  0  0  0  0  0
    5.4000   -3.2260   26.4470 N   0  0  0  0  0  0  0  0  0  0  0  0
    6.1150   -4.1950   27.2870 C   0  0  1  0  0  0  0  0  0  0  0  0
    6.0590   -5.6100   26.8370 C   0  0  0  0  0  0  0  0  0  0  0  0
    4.7590   -6.2030   26.5150 C   0  0  0  0  0  0  0  0  0  0  0  0
    3.6660   -5.8890   27.2990 C   0  0  0  0  0  0  0  0  0  0  0  0
    3.4160   -6.6180   28.4480 C   0  0  0  0  0  0  0  0  0  0  0  0
    4.1790   -7.5650   29.0610 C   0  0  0  0  0  0  0  0  0  0  0  0
    7.4730   -3.7850   27.5400 C   0  0  0  0  0  0  0  0  0  0  0  0
    8.0120   -4.1310   28.5500 C   0  0  0  0  0  0  0  0  0  0  0  0
    7.8540   -2.7100   28.4670 C   0  0  0  0  0  0  0  0  0  0  0  0
    7.0400   -2.7390   23.3740 C   0  0  0  0  0  0  0  0  0  0  0  0
    7.7600   -3.2620   22.1640 C   0  0  0  0  0  0  0  0  0  0  0  0
  1  2  1  0
  2  3  2  0
  2  4  1  0
  4  5  1  0
  5  6  1  0
  6  7  1  0
  7  8  1  0
  8  9  2  0
  8 10  1  0
 10 11  1  0
 11 12  1  6
 12 13  1  0
 13 14  1  0
 14 15  1  0
 15 16  2  3
 11 17  1  0
 17 18  1  0
 17 19  1  0
 18 19  1  0
  7 20  1  0
  4 21  1  0
 20 21  1  0
M  END
