piperidine-amides-28720-covalent
     RDKit          3D

 26 27  0  0  0  0  0  0  0  0999 V2000
    6.9800   -3.3470   19.4050 C   0  0  0  0  0  0  0  0  0  0  0  0
    6.3750   -4.2340   20.4020 C   0  0  0  0  0  0  0  0  0  0  0  0
    5.4480   -4.9630   20.0080 O   0  0  0  0  0  0  0  0  0  0  0  0
    6.8310   -4.2840   21.7600 N   0  0  0  0  0  0  0  0  0  0  0  0
    7.8230   -3.3450   22.2430 C   0  0  0  0  0  0  0  0  0  0  0  0
    7.5450   -2.9820   23.6860 C   0  0  0  0  0  0  0  0  0  0  0  0
    6.2050   -3.6040   23.9840 C   0  0  0  0  0  0  0  0  0  0  0  0
    5.5640   -3.2060   25.3150 C   0  0  0  0  0  0  0  0  0  0  0  0
    4.3440   -3.0890   25.2450 O   0  0  0  0  0  0  0  0  0  0  0  0
    6.2640   -2.9940   26.5230 N   0  0  0  0  0  0  0  0  0  0  0  0
    6.0860   -3.9590   27.5750 C   0  0  0  0  0  0  0  0  0  0  0  0
    6.0260   -5.3220   27.2750 C   0  0  0  0  0  0  0  0  0  0  0  0
    5.5190   -5.8080   26.2460 O   0  0  0  0  0  0  0  0  0  0  0  0
    6.5480   -6.2010   28.1840 O   0  0  0  0  0  0  0  0  0  0  0  0
    5.9500   -6.8900   29.2060 C   0  0  0  0  0  0  0  0  0  0  0  0
    6.3050   -1.6130   27.0450 C   0  0  0  0  0  0  0  0  0  0  0  0
    6.8220   -1.4910   28.3520 N   0  0  0  0  0  0  0  0  0  0  0  0
    7.1080   -0.4690   29.3880 C   0  0  0  0  0  0  0  0  0  0  0  0
    6.5840    0.7480   28.5350 C   0  0  0  0  0  0  0  0  0  0  0  0
    6.0230    0.7350   27.1650 C   0  0  0  0  0  0  0  0  0  0  0  0
    5.8630   -0.4810   26.3550 C   0  0  0  0  0  0  0  0  0  0  0  0
    5.3620   -0.5710   25.1190 N   0  0  0  0  0  0  0  0  0  0  0  0
    4.2100   -0.9930   24.9190 O   0  0  0  0  0  0  0  0  0  0  0  0
    5.7840    0.4000   24.2420 O   0  0  0  0  0  0  0  0  0  0  0  0
    6.1410   -5.0640   23.8020 C   0  0  0  0  0  0  0  0  0  0  0  0
    6.6280   -5.4710   22.5690 C   0  0  0  0  0  0  0  0  0  0  0  0
  1  2  1  0
  2  3  2  0
  2  4  1  0
  4  5  1  0
  5  6  1  0
  6  7  1  0
  7  8  1  0
  8  9  2  0
  8 10  1  0
 10 11  1  0
 11 12  1  0
 12 13  2  0
 12 14  1  0
 14 15  1  0
 10 16  1  0
 16 17  2  0
 17 18  1  0
 18 19  2  0
 19 20  1  0
 16 21  1  0
 20 21  2  0
 21 22  1  0
 22 23  2  0
 22 24  1  0
  7 25  1  0
  4 26  1  0
 25 26  1  0
M  CHG  2  22   1  24  -1
M  END
