piperidine-amides-11218-covalent
     RDKit          3D

 19 19  0  0  0  0  0  0  0  0999 V2000
    7.0940   -3.2410   19.1690 C   0  0  0  0  0  0  0  0  0  0  0  0
    6.3510   -3.9950   20.1820 C   0  0  0  0  0  0  0  0  0  0  0  0
    5.2820   -4.5360   19.8720 O   0  0  0  0  0  0  0  0  0  0  0  0
    6.8480   -4.1690   21.4790 N   0  0  0  0  0  0  0  0  0  0  0  0
    7.7420   -3.2150   22.1010 C   0  0  0  0  0  0  0  0  0  0  0  0
    6.9960   -2.6630   23.2800 C   0  0  0  0  0  0  0  0  0  0  0  0
    6.5420   -3.7800   24.1600 C   0  0  0  0  0  0  0  0  0  0  0  0
    5.8310   -3.2900   25.3620 C   0  0  0  0  0  0  0  0  0  0  0  0
    4.5700   -3.1630   25.3560 O   0  0  0  0  0  0  0  0  0  0  0  0
    6.5140   -2.9300   26.5430 N   0  0  0  0  0  0  0  0  0  0  0  0
    6.1900   -3.5410   27.8570 C   0  0  0  0  0  0  0  0  0  0  0  0
    6.0490   -5.0110   27.7220 C   0  0  1  0  0  0  0  0  0  0  0  0
    6.7830   -5.8180   28.7130 C   0  0  0  0  0  0  0  0  0  0  0  0
    4.6110   -5.4450   27.8860 C   0  0  0  0  0  0  0  0  0  0  0  0
    3.7420   -4.6610   27.1330 F   0  0  0  0  0  0  0  0  0  0  0  0
    4.5020   -6.7270   27.3900 F   0  0  0  0  0  0  0  0  0  0  0  0
    4.2210   -5.3810   29.1830 F   0  0  0  0  0  0  0  0  0  0  0  0
    5.8530   -4.9140   23.4830 C   0  0  0  0  0  0  0  0  0  0  0  0
    6.5360   -5.3360   22.2420 C   0  0  0  0  0  0  0  0  0  0  0  0
  1  2  1  0
  2  3  2  0
  2  4  1  0
  4  5  1  0
  5  6  1  0
  6  7  1  0
  7  8  1  0
  8  9  2  0
  8 10  1  0
 10 11  1  0
 11 12  1  0
 12 13  1  1
 12 14  1  0
 14 15  1  0
 14 16  1  0
 14 17  1  0
  7 18  1  0
  4 19  1  0
 18 19  1  0
M  END
