piperidine-amides-13832-covalent
     RDKit          3D

 26 28  0  0  0  0  0  0  0  0999 V2000
    7.0850   -3.3570   19.3740 C   0  0  0  0  0  0  0  0  0  0  0  0
    6.3630   -4.1870   20.3720 C   0  0  0  0  0  0  0  0  0  0  0  0
    5.3870   -4.8590   19.9910 O   0  0  0  0  0  0  0  0  0  0  0  0
    6.8420   -4.2180   21.7030 N   0  0  0  0  0  0  0  0  0  0  0  0
    7.7030   -3.1540   22.2000 C   0  0  0  0  0  0  0  0  0  0  0  0
    7.5100   -3.0340   23.7160 C   0  0  0  0  0  0  0  0  0  0  0  0
    6.1530   -3.5620   24.0020 C   0  0  0  0  0  0  0  0  0  0  0  0
    5.6710   -3.3580   25.3920 C   0  0  0  0  0  0  0  0  0  0  0  0
    4.4820   -3.6260   25.5880 O   0  0  0  0  0  0  0  0  0  0  0  0
    6.5120   -2.8710   26.4010 N   0  0  0  0  0  0  0  0  0  0  0  0
    6.4190   -1.5910   27.0150 C   0  0  0  0  0  0  0  0  0  0  0  0
    5.9670   -0.4450   26.3660 C   0  0  0  0  0  0  0  0  0  0  0  0
    5.8730    0.8290   26.9710 C   0  0  0  0  0  0  0  0  0  0  0  0
    6.2300    1.0160   28.2800 C   0  0  0  0  0  0  0  0  0  0  0  0
    6.7050   -0.1250   29.0350 C   0  0  0  0  0  0  0  0  0  0  0  0
    6.8070   -1.4880   28.3660 C   0  0  0  0  0  0  0  0  0  0  0  0
    7.0050    0.1790   30.2910 C   0  0  0  0  0  0  0  0  0  0  0  0
    8.2250   -0.1960   30.7870 C   0  0  0  0  0  0  0  0  0  0  0  0
    6.0230   -0.1750   31.3380 C   0  0  0  0  0  0  0  0  0  0  0  0
    6.9980    1.7050   30.1820 C   0  0  0  0  0  0  0  0  0  0  0  0
    5.7280    2.2060   30.3820 C   0  0  0  0  0  0  0  0  0  0  0  0
    6.1430    2.2510   28.8670 C   0  0  0  0  0  0  0  0  0  0  0  0
    7.3700    3.1260   28.6510 C   0  0  0  0  0  0  0  0  0  0  0  0
    5.0500    2.7800   28.1850 C   0  0  0  0  0  0  0  0  0  0  0  0
    6.0600   -5.0500   23.7330 C   0  0  0  0  0  0  0  0  0  0  0  0
    6.5490   -5.3810   22.4780 C   0  0  0  0  0  0  0  0  0  0  0  0
  1  2  1  0
  2  3  2  0
  2  4  1  0
  4  5  1  0
  5  6  1  0
  6  7  1  0
  7  8  1  0
  8  9  2  0
  8 10  1  0
 10 11  1  0
 11 12  2  0
 12 13  1  0
 13 14  2  0
 14 15  1  0
 11 16  1  0
 15 16  2  0
 15 17  1  0
 17 18  1  0
 17 19  1  0
 17 20  1  0
 20 21  1  0
 14 22  1  0
 21 22  1  0
 22 23  1  0
 22 24  1  0
  7 25  1  0
  4 26  1  0
 25 26  1  0
M  END
