piperidine-amides-2923-covalent
     RDKit          3D

 24 25  0  0  0  0  0  0  0  0999 V2000
    7.1240   -3.2890   19.2910 C   0  0  0  0  0  0  0  0  0  0  0  0
    6.3990   -4.0880   20.2710 C   0  0  0  0  0  0  0  0  0  0  0  0
    5.3650   -4.6750   19.9430 O   0  0  0  0  0  0  0  0  0  0  0  0
    6.9160   -4.2370   21.6030 N   0  0  0  0  0  0  0  0  0  0  0  0
    6.5780   -5.4160   22.3680 C   0  0  0  0  0  0  0  0  0  0  0  0
    6.0590   -5.0790   23.7550 C   0  0  0  0  0  0  0  0  0  0  0  0
    6.0630   -3.5710   23.9660 C   0  0  0  0  0  0  0  0  0  0  0  0
    5.5600   -3.2190   25.3210 C   0  0  0  0  0  0  0  0  0  0  0  0
    4.3390   -3.1680   25.5570 O   0  0  0  0  0  0  0  0  0  0  0  0
    6.4580   -2.9400   26.3770 N   0  0  0  0  0  0  0  0  0  0  0  0
    6.1590   -3.5260   27.6630 C   0  0  0  0  0  0  0  0  0  0  0  0
    6.1300   -2.4440   28.7270 C   0  0  0  0  0  0  0  0  0  0  0  0
    6.7740   -1.2540   28.5050 C   0  0  0  0  0  0  0  0  0  0  0  0
    7.0510   -0.4510   29.6080 C   0  0  0  0  0  0  0  0  0  0  0  0
    6.1800   -0.6160   30.7090 N   0  0  0  0  0  0  0  0  0  0  0  0
    6.1630    0.3640   32.1120 S   0  0  0  0  0  0  0  0  0  0  0  0
    5.0890   -0.1470   33.0140 O   0  0  0  0  0  0  0  0  0  0  0  0
    5.8730    1.7850   31.7800 O   0  0  0  0  0  0  0  0  0  0  0  0
    7.7020    0.3290   33.0710 C   0  0  0  0  0  0  0  0  0  0  0  0
    7.7200    1.3140   34.1380 C   0  0  0  0  0  0  0  0  0  0  0  0
    4.8700   -0.8840   30.1510 C   0  0  0  0  0  0  0  0  0  0  0  0
    4.8510   -1.9210   29.2210 C   0  0  0  0  0  0  0  0  0  0  0  0
    7.2960   -2.8830   23.5550 C   0  0  0  0  0  0  0  0  0  0  0  0
    7.6660   -3.1710   22.1830 C   0  0  0  0  0  0  0  0  0  0  0  0
  1  2  1  0
  2  3  2  0
  2  4  1  0
  4  5  1  0
  5  6  1  0
  6  7  1  0
  7  8  1  0
  8  9  2  0
  8 10  1  0
 10 11  1  0
 11 12  1  0
 12 13  1  0
 13 14  1  0
 14 15  1  0
 15 16  1  0
 16 17  2  0
 16 18  2  0
 16 19  1  0
 19 20  1  0
 15 21  1  0
 12 22  1  0
 21 22  1  0
  7 23  1  0
  4 24  1  0
 23 24  1  0
M  END
