piperidine-amides-24002-covalent
     RDKit          3D

 24 26  0  0  0  0  0  0  0  0999 V2000
    7.1340   -3.3080   19.2800 C   0  0  0  0  0  0  0  0  0  0  0  0
    6.4140   -4.1270   20.2670 C   0  0  0  0  0  0  0  0  0  0  0  0
    5.3190   -4.6220   19.9130 O   0  0  0  0  0  0  0  0  0  0  0  0
    6.9810   -4.3990   21.5320 N   0  0  0  0  0  0  0  0  0  0  0  0
    6.4870   -5.5130   22.2530 C   0  0  0  0  0  0  0  0  0  0  0  0
    6.0030   -5.1520   23.5740 C   0  0  0  0  0  0  0  0  0  0  0  0
    6.6620   -3.9760   24.1740 C   0  0  0  0  0  0  0  0  0  0  0  0
    5.9040   -3.4950   25.3600 C   0  0  0  0  0  0  0  0  0  0  0  0
    4.8600   -2.8360   25.2050 O   0  0  0  0  0  0  0  0  0  0  0  0
    6.3750   -3.7930   26.6410 N   0  0  0  0  0  0  0  0  0  0  0  0
    7.6280   -4.3170   26.9450 C   0  0  0  0  0  0  0  0  0  0  0  0
    7.7140   -4.6490   28.3410 C   0  0  0  0  0  0  0  0  0  0  0  0
    6.3200   -4.1620   28.8450 C   0  0  0  0  0  0  0  0  0  0  0  0
    5.5370   -3.6720   27.8010 C   0  0  2  0  0  0  0  0  0  0  0  0
    4.5570   -4.8530   28.0230 C   0  0  0  0  0  0  0  0  0  0  0  0
    3.1730   -4.6030   27.6440 C   0  0  0  0  0  0  0  0  0  0  0  0
    3.2150   -3.1580   27.1220 C   0  0  0  0  0  0  0  0  0  0  0  0
    2.5140   -2.8030   25.8270 C   0  0  0  0  0  0  0  0  0  0  0  0
    2.4030   -5.7040   27.8840 N   0  0  0  0  0  0  0  0  0  0  0  0
    3.2730   -6.7470   28.4420 O   0  0  0  0  0  0  0  0  0  0  0  0
    4.5960   -6.1950   28.5150 C   0  0  0  0  0  0  0  0  0  0  0  0
    5.8800   -6.8770   29.0260 C   0  0  0  0  0  0  0  0  0  0  0  0
    6.8660   -2.8790   23.1750 C   0  0  0  0  0  0  0  0  0  0  0  0
    7.7560   -3.4030   22.2470 C   0  0  0  0  0  0  0  0  0  0  0  0
  1  2  1  0
  2  3  2  0
  2  4  1  0
  4  5  1  0
  5  6  1  0
  6  7  1  0
  7  8  1  0
  8  9  2  0
  8 10  1  0
 10 11  1  0
 11 12  1  0
 12 13  1  0
 10 14  1  0
 13 14  1  0
 14 15  1  6
 15 16  1  0
 16 17  1  0
 17 18  1  0
 16 19  2  0
 19 20  1  0
 15 21  2  0
 20 21  1  0
 21 22  1  0
  7 23  1  0
  4 24  1  0
 23 24  1  0
M  END
