piperidine-amides-15437-covalent
     RDKit          3D

 18 20  0  0  0  0  0  0  0  0999 V2000
    7.1570   -3.3200   19.2020 C   0  0  0  0  0  0  0  0  0  0  0  0
    6.4470   -4.1270   20.1960 C   0  0  0  0  0  0  0  0  0  0  0  0
    5.3520   -4.6710   19.9350 O   0  0  0  0  0  0  0  0  0  0  0  0
    7.0570   -4.3410   21.4220 N   0  0  0  0  0  0  0  0  0  0  0  0
    6.6110   -5.4320   22.2510 C   0  0  0  0  0  0  0  0  0  0  0  0
    5.7040   -4.7840   23.2900 C   0  0  0  0  0  0  0  0  0  0  0  0
    6.5820   -3.7900   24.0150 C   0  0  0  0  0  0  0  0  0  0  0  0
    5.9060   -3.2660   25.1770 C   0  0  0  0  0  0  0  0  0  0  0  0
    4.9670   -2.4460   25.0850 O   0  0  0  0  0  0  0  0  0  0  0  0
    6.3750   -3.7790   26.3570 N   0  0  0  0  0  0  0  0  0  0  0  0
    7.0710   -5.0310   26.1600 C   0  0  0  0  0  0  0  0  0  0  0  0
    6.9570   -5.7230   27.4440 C   0  0  0  0  0  0  0  0  0  0  0  0
    6.1950   -4.9800   28.2150 C   0  0  0  0  0  0  0  0  0  0  0  0
    6.6510   -4.7310   29.2200 C   0  0  0  0  0  0  0  0  0  0  0  0
    5.4300   -5.5350   29.2730 C   0  0  0  0  0  0  0  0  0  0  0  0
    5.5150   -3.9860   27.5560 C   0  0  0  0  0  0  0  0  0  0  0  0
    6.9250   -2.6380   23.0960 C   0  0  0  0  0  0  0  0  0  0  0  0
    7.7920   -3.2780   22.0740 C   0  0  0  0  0  0  0  0  0  0  0  0
  1  2  1  0
  2  3  2  0
  2  4  1  0
  4  5  1  0
  5  6  1  0
  6  7  1  0
  7  8  1  0
  8  9  2  0
  8 10  1  0
 10 11  1  0
 11 12  1  0
 13 12  1  0
 13 14  1  0
 13 15  1  0
 14 15  1  0
 10 16  1  0
 13 16  1  0
  7 17  1  0
  4 18  1  0
 17 18  1  0
M  END
