piperidine-amides-7071-covalent
     RDKit          3D

 22 22  0  0  0  0  0  0  0  0999 V2000
    7.0640   -3.2610   19.2250 C   0  0  0  0  0  0  0  0  0  0  0  0
    6.3010   -4.0420   20.2160 C   0  0  0  0  0  0  0  0  0  0  0  0
    5.2370   -4.6050   19.8870 O   0  0  0  0  0  0  0  0  0  0  0  0
    6.7680   -4.2080   21.5190 N   0  0  0  0  0  0  0  0  0  0  0  0
    7.5150   -3.1580   22.1670 C   0  0  0  0  0  0  0  0  0  0  0  0
    7.1600   -3.2020   23.6560 C   0  0  0  0  0  0  0  0  0  0  0  0
    5.7240   -3.6580   23.7360 C   0  0  0  0  0  0  0  0  0  0  0  0
    5.0450   -3.3390   25.0210 C   0  0  0  0  0  0  0  0  0  0  0  0
    3.8240   -3.0990   24.9770 O   0  0  0  0  0  0  0  0  0  0  0  0
    5.7140   -3.2860   26.2690 N   0  0  0  0  0  0  0  0  0  0  0  0
    6.5550   -4.3460   26.7090 C   0  0  1  0  0  0  0  0  0  0  0  0
    7.8360   -3.6360   26.9250 C   0  0  0  0  0  0  0  0  0  0  0  0
    8.6340   -3.5940   25.8400 C   0  0  0  0  0  0  0  0  0  0  0  0
    8.8400   -2.6340   25.0410 O   0  0  0  0  0  0  0  0  0  0  0  0
    9.2510   -4.7380   25.6880 O   0  0  0  0  0  0  0  0  0  0  0  0
    9.4740   -5.8760   26.3000 C   0  0  0  0  0  0  0  0  0  0  0  0
    6.0240   -4.9940   27.9570 C   0  0  0  0  0  0  0  0  0  0  0  0
    6.6930   -4.9030   29.1690 O   0  0  0  0  0  0  0  0  0  0  0  0
    4.8620   -5.7240   28.0430 O   0  0  0  0  0  0  0  0  0  0  0  0
    4.8710   -7.1400   27.9860 C   0  0  0  0  0  0  0  0  0  0  0  0
    5.7170   -5.1710   23.5040 C   0  0  0  0  0  0  0  0  0  0  0  0
    6.5350   -5.4260   22.2650 C   0  0  0  0  0  0  0  0  0  0  0  0
  1  2  1  0
  2  3  2  0
  2  4  1  0
  4  5  1  0
  5  6  1  0
  6  7  1  0
  7  8  1  0
  8  9  2  0
  8 10  1  0
 10 11  1  0
 11 12  1  1
 12 13  1  0
 13 14  2  0
 13 15  1  0
 15 16  1  0
 11 17  1  0
 17 18  2  0
 17 19  1  0
 19 20  1  0
  7 21  1  0
  4 22  1  0
 21 22  1  0
M  END
