piperidine-amides-23473-covalent
     RDKit          3D

 24 26  0  0  0  0  0  0  0  0999 V2000
    7.0080   -3.3920   19.3970 C   0  0  0  0  0  0  0  0  0  0  0  0
    6.3920   -4.2690   20.4100 C   0  0  0  0  0  0  0  0  0  0  0  0
    5.4180   -4.9550   20.0130 O   0  0  0  0  0  0  0  0  0  0  0  0
    6.9090   -4.3590   21.7390 N   0  0  0  0  0  0  0  0  0  0  0  0
    6.5540   -5.4890   22.5460 C   0  0  0  0  0  0  0  0  0  0  0  0
    5.9740   -5.0880   23.8240 C   0  0  0  0  0  0  0  0  0  0  0  0
    6.0330   -3.6280   23.9640 C   0  0  0  0  0  0  0  0  0  0  0  0
    5.2820   -3.0050   25.1370 C   0  0  0  0  0  0  0  0  0  0  0  0
    4.6420   -1.9790   24.8920 O   0  0  0  0  0  0  0  0  0  0  0  0
    5.1950   -3.4620   26.4800 N   0  0  0  0  0  0  0  0  0  0  0  0
    4.2040   -3.1180   27.4090 C   0  0  0  0  0  0  0  0  0  0  0  0
    4.2120   -3.8460   28.6560 C   0  0  0  0  0  0  0  0  0  0  0  0
    5.2880   -4.5030   29.0120 N   0  0  0  0  0  0  0  0  0  0  0  0
    5.2560   -5.6110   29.9110 C   0  0  0  0  0  0  0  0  0  0  0  0
    6.2010   -6.5520   29.7130 C   0  0  0  0  0  0  0  0  0  0  0  0
    6.0230   -7.6640   30.7850 C   0  0  0  0  0  0  0  0  0  0  0  0
    4.8990   -7.5490   31.8230 C   0  0  0  0  0  0  0  0  0  0  0  0
    4.0150   -6.3000   31.7030 C   0  0  0  0  0  0  0  0  0  0  0  0
    4.2650   -5.4200   30.7460 N   0  0  0  0  0  0  0  0  0  0  0  0
    6.4790   -4.0040   28.4860 C   0  0  2  0  0  0  0  0  0  0  0  0
    6.7710   -2.5550   28.8440 C   0  0  0  0  0  0  0  0  0  0  0  0
    6.3660   -4.0360   26.9760 C   0  0  0  0  0  0  0  0  0  0  0  0
    7.4450   -3.1780   23.7430 C   0  0  0  0  0  0  0  0  0  0  0  0
    7.6150   -3.2210   22.3400 C   0  0  0  0  0  0  0  0  0  0  0  0
  1  2  1  0
  2  3  2  0
  2  4  1  0
  4  5  1  0
  5  6  1  0
  6  7  1  0
  7  8  1  0
  8  9  2  0
  8 10  1  0
 10 11  1  0
 11 12  1  0
 12 13  1  0
 13 14  1  0
 14 15  2  0
 15 16  1  0
 16 17  2  0
 17 18  1  0
 14 19  1  0
 18 19  2  0
 13 20  1  0
 20 21  1  1
 10 22  1  0
 20 22  1  0
  7 23  1  0
  4 24  1  0
 23 24  1  0
M  END
