piperidine-amides-10285-covalent
     RDKit          3D

 24 26  0  0  0  0  0  0  0  0999 V2000
    7.0050   -3.3430   19.4110 C   0  0  0  0  0  0  0  0  0  0  0  0
    6.3770   -4.1840   20.4390 C   0  0  0  0  0  0  0  0  0  0  0  0
    5.4510   -4.9340   20.0120 O   0  0  0  0  0  0  0  0  0  0  0  0
    6.8060   -4.1670   21.7870 N   0  0  0  0  0  0  0  0  0  0  0  0
    7.6710   -3.1220   22.3070 C   0  0  0  0  0  0  0  0  0  0  0  0
    7.5280   -3.0590   23.8140 C   0  0  0  0  0  0  0  0  0  0  0  0
    6.1520   -3.5130   24.2320 C   0  0  0  0  0  0  0  0  0  0  0  0
    5.8190   -3.4370   25.7100 C   0  0  0  0  0  0  0  0  0  0  0  0
    4.7920   -4.0630   26.0430 O   0  0  0  0  0  0  0  0  0  0  0  0
    6.4780   -2.7010   26.7590 N   0  0  0  0  0  0  0  0  0  0  0  0
    6.3090   -1.2610   26.7640 C   0  0  0  0  0  0  0  0  0  0  0  0
    6.2160   -0.5110   25.4440 C   0  0  0  0  0  0  0  0  0  0  0  0
    6.0490    0.8520   25.4770 C   0  0  0  0  0  0  0  0  0  0  0  0
    5.9800    1.4070   27.1410 S   0  0  0  0  0  0  0  0  0  0  0  0
    6.1730   -0.1980   27.8810 C   0  0  0  0  0  0  0  0  0  0  0  0
    6.1560   -0.2530   29.2680 C   0  0  0  0  0  0  0  0  0  0  0  0
    4.9540   -0.1440   29.9420 C   0  0  0  0  0  0  0  0  0  0  0  0
    4.8580   -0.1140   31.3120 C   0  0  0  0  0  0  0  0  0  0  0  0
    5.9780   -0.1830   32.3250 C   0  0  0  0  0  0  0  0  0  0  0  0
    5.7980   -0.1180   34.0960 Cl  0  0  0  0  0  0  0  0  0  0  0  0
    7.2990   -0.3220   31.5440 C   0  0  0  0  0  0  0  0  0  0  0  0
    7.2830   -0.3530   30.0370 C   0  0  0  0  0  0  0  0  0  0  0  0
    5.9080   -4.9350   23.7740 C   0  0  0  0  0  0  0  0  0  0  0  0
    6.6470   -5.3340   22.6620 C   0  0  0  0  0  0  0  0  0  0  0  0
  1  2  1  0
  2  3  2  0
  2  4  1  0
  4  5  1  0
  5  6  1  0
  6  7  1  0
  7  8  1  0
  8  9  2  0
  8 10  1  0
 10 11  1  0
 11 12  1  0
 12 13  2  0
 13 14  1  0
 11 15  2  0
 14 15  1  0
 15 16  1  0
 16 17  2  0
 17 18  1  0
 18 19  2  0
 19 20  1  0
 19 21  1  0
 16 22  1  0
 21 22  2  0
  7 23  1  0
  4 24  1  0
 23 24  1  0
M  END
