piperidine-amides-14101-covalent
     RDKit          3D

 25 26  0  0  0  0  0  0  0  0999 V2000
    7.0350   -3.3260   19.3370 C   0  0  0  0  0  0  0  0  0  0  0  0
    6.3370   -4.1810   20.3380 C   0  0  0  0  0  0  0  0  0  0  0  0
    5.3560   -4.8480   19.9760 O   0  0  0  0  0  0  0  0  0  0  0  0
    6.8240   -4.2520   21.6660 N   0  0  0  0  0  0  0  0  0  0  0  0
    6.7140   -5.4560   22.4590 C   0  0  0  0  0  0  0  0  0  0  0  0
    6.0470   -5.1130   23.8050 C   0  0  0  0  0  0  0  0  0  0  0  0
    6.0520   -3.6300   23.9750 C   0  0  0  0  0  0  0  0  0  0  0  0
    5.6150   -3.1790   25.3210 C   0  0  0  0  0  0  0  0  0  0  0  0
    4.3970   -3.1820   25.5180 O   0  0  0  0  0  0  0  0  0  0  0  0
    6.5440   -2.7830   26.2890 N   0  0  0  0  0  0  0  0  0  0  0  0
    6.5040   -1.6310   27.1230 C   0  0  0  0  0  0  0  0  0  0  0  0
    7.0480   -1.6130   28.3910 C   0  0  0  0  0  0  0  0  0  0  0  0
    7.0160   -0.4890   29.2080 C   0  0  0  0  0  0  0  0  0  0  0  0
    6.4260    0.6590   28.7600 C   0  0  0  0  0  0  0  0  0  0  0  0
    5.8330    0.6620   27.3980 C   0  0  0  0  0  0  0  0  0  0  0  0
    5.1580    1.9280   26.8410 C   0  0  0  0  0  0  0  0  0  0  0  0
    4.3490    1.7750   25.7240 O   0  0  0  0  0  0  0  0  0  0  0  0
    2.9920    2.1550   25.7270 C   0  0  0  0  0  0  0  0  0  0  0  0
    2.8350    3.5220   25.8540 C   0  0  0  0  0  0  0  0  0  0  0  0
    2.8810    3.9510   27.1640 O   0  0  0  0  0  0  0  0  0  0  0  0
    1.8370    3.8370   28.0930 C   0  0  0  0  0  0  0  0  0  0  0  0
    0.7420    4.8030   27.6750 C   0  0  0  0  0  0  0  0  0  0  0  0
    5.8840   -0.4750   26.6140 C   0  0  0  0  0  0  0  0  0  0  0  0
    7.3460   -2.9670   23.6440 C   0  0  0  0  0  0  0  0  0  0  0  0
    7.6740   -3.1860   22.1910 C   0  0  0  0  0  0  0  0  0  0  0  0
  1  2  1  0
  2  3  2  0
  2  4  1  0
  4  5  1  0
  5  6  1  0
  6  7  1  0
  7  8  1  0
  8  9  2  0
  8 10  1  0
 10 11  1  0
 11 12  2  0
 12 13  1  0
 13 14  2  0
 14 15  1  0
 15 16  1  0
 16 17  1  0
 17 18  1  0
 18 19  1  0
 19 20  1  0
 20 21  1  0
 21 22  1  0
 11 23  1  0
 15 23  2  0
  7 24  1  0
  4 25  1  0
 24 25  1  0
M  END
