piperidine-amides-11057-covalent
     RDKit          3D

 21 22  0  0  0  0  0  0  0  0999 V2000
    7.0570   -3.3330   19.2950 C   0  0  0  0  0  0  0  0  0  0  0  0
    6.3730   -4.1500   20.3060 C   0  0  0  0  0  0  0  0  0  0  0  0
    5.3700   -4.8020   19.9700 O   0  0  0  0  0  0  0  0  0  0  0  0
    6.8540   -4.2640   21.6230 N   0  0  0  0  0  0  0  0  0  0  0  0
    6.7400   -5.4930   22.3770 C   0  0  0  0  0  0  0  0  0  0  0  0
    6.0840   -5.1210   23.6810 C   0  0  0  0  0  0  0  0  0  0  0  0
    6.1020   -3.6400   23.9170 C   0  0  0  0  0  0  0  0  0  0  0  0
    5.7110   -3.2470   25.2910 C   0  0  0  0  0  0  0  0  0  0  0  0
    4.4910   -3.2190   25.6250 O   0  0  0  0  0  0  0  0  0  0  0  0
    6.6530   -2.9030   26.2760 N   0  0  0  0  0  0  0  0  0  0  0  0
    6.5680   -1.6520   27.0660 C   0  0  0  0  0  0  0  0  0  0  0  0
    7.1590   -1.6620   28.4160 C   0  0  0  0  0  0  0  0  0  0  0  0
    7.1120   -0.4670   29.2570 C   0  0  0  0  0  0  0  0  0  0  0  0
    6.4640    0.7930   28.7510 C   0  0  0  0  0  0  0  0  0  0  0  0
    6.3950    2.0520   29.5900 C   0  0  0  0  0  0  0  0  0  0  0  0
    5.8540    0.7790   27.3380 C   0  0  0  0  0  0  0  0  0  0  0  0
    5.9020   -0.3480   26.5520 C   0  0  0  0  0  0  0  0  0  0  0  0
    5.4370   -0.4830   25.3720 O   0  0  0  0  0  0  0  0  0  0  0  0
    4.0880   -0.7430   25.1980 C   0  0  0  0  0  0  0  0  0  0  0  0
    7.4610   -3.0060   23.6020 C   0  0  0  0  0  0  0  0  0  0  0  0
    7.7140   -3.2000   22.1100 C   0  0  0  0  0  0  0  0  0  0  0  0
  1  2  1  0
  2  3  2  0
  2  4  1  0
  4  5  1  0
  5  6  1  0
  6  7  1  0
  7  8  1  0
  8  9  2  0
  8 10  1  0
 10 11  1  0
 11 12  2  0
 12 13  1  0
 13 14  2  0
 14 15  1  0
 14 16  1  0
 11 17  1  0
 16 17  2  0
 17 18  1  0
 18 19  1  0
  7 20  1  0
  4 21  1  0
 20 21  1  0
M  END
