piperidine-amides-8437-covalent
     RDKit          3D

 24 26  0  0  0  0  0  0  0  0999 V2000
    7.0090   -3.3130   19.3550 C   0  0  0  0  0  0  0  0  0  0  0  0
    6.3290   -4.1430   20.3530 C   0  0  0  0  0  0  0  0  0  0  0  0
    5.3530   -4.8080   19.9680 O   0  0  0  0  0  0  0  0  0  0  0  0
    6.7810   -4.2150   21.7040 N   0  0  0  0  0  0  0  0  0  0  0  0
    6.6390   -5.4600   22.4110 C   0  0  0  0  0  0  0  0  0  0  0  0
    6.0970   -5.1990   23.7860 C   0  0  0  0  0  0  0  0  0  0  0  0
    5.9640   -3.7040   23.8940 C   0  0  0  0  0  0  0  0  0  0  0  0
    5.4350   -3.2730   25.2450 C   0  0  0  0  0  0  0  0  0  0  0  0
    4.3900   -2.6320   25.2040 O   0  0  0  0  0  0  0  0  0  0  0  0
    6.1020   -3.5860   26.4360 N   0  0  0  0  0  0  0  0  0  0  0  0
    5.9820   -4.8530   27.1130 C   0  0  0  0  0  0  0  0  0  0  0  0
    4.7700   -5.2020   27.7150 C   0  0  0  0  0  0  0  0  0  0  0  0
    4.5570   -6.5370   28.0830 C   0  0  0  0  0  0  0  0  0  0  0  0
    3.4040   -7.0380   28.6930 C   0  0  0  0  0  0  0  0  0  0  0  0
    2.3300   -6.0370   28.9610 C   0  0  0  0  0  0  0  0  0  0  0  0
    0.9800   -6.3760   29.6260 C   0  0  0  0  0  0  0  0  0  0  0  0
   -0.2890   -5.9020   29.1860 N   0  0  0  0  0  0  0  0  0  0  0  0
   -1.1650   -6.4260   30.0260 N   0  0  0  0  0  0  0  0  0  0  0  0
   -0.6190   -7.2360   31.0300 C   0  0  0  0  0  0  0  0  0  0  0  0
    0.6750   -7.1970   30.7760 N   0  0  0  0  0  0  0  0  0  0  0  0
    2.5090   -4.6310   28.5930 C   0  0  0  0  0  0  0  0  0  0  0  0
    3.8260   -4.2150   27.9280 C   0  0  0  0  0  0  0  0  0  0  0  0
    7.3200   -3.0850   23.6470 C   0  0  0  0  0  0  0  0  0  0  0  0
    7.5930   -3.1550   22.2890 C   0  0  0  0  0  0  0  0  0  0  0  0
  1  2  1  0
  2  3  2  0
  2  4  1  0
  4  5  1  0
  5  6  1  0
  6  7  1  0
  7  8  1  0
  8  9  2  0
  8 10  1  0
 10 11  1  0
 11 12  1  0
 12 13  2  0
 13 14  1  0
 14 15  2  0
 15 16  1  0
 16 17  2  0
 17 18  1  0
 18 19  2  0
 16 20  1  0
 19 20  1  0
 15 21  1  0
 12 22  1  0
 21 22  2  0
  7 23  1  0
  4 24  1  0
 23 24  1  0
M  END
