piperidine-amides-3361-covalent
     RDKit          3D

 21 22  0  0  0  0  0  0  0  0999 V2000
    7.0770   -3.2840   19.2130 C   0  0  0  0  0  0  0  0  0  0  0  0
    6.3360   -4.0410   20.2170 C   0  0  0  0  0  0  0  0  0  0  0  0
    5.2880   -4.5980   19.9050 O   0  0  0  0  0  0  0  0  0  0  0  0
    6.8390   -4.1930   21.5500 N   0  0  0  0  0  0  0  0  0  0  0  0
    6.4810   -5.3840   22.2720 C   0  0  0  0  0  0  0  0  0  0  0  0
    6.2350   -5.0620   23.7230 C   0  0  0  0  0  0  0  0  0  0  0  0
    6.1850   -3.5450   23.9010 C   0  0  0  0  0  0  0  0  0  0  0  0
    5.6700   -3.1930   25.2510 C   0  0  0  0  0  0  0  0  0  0  0  0
    4.4580   -3.0080   25.4670 O   0  0  0  0  0  0  0  0  0  0  0  0
    6.5830   -3.0460   26.3200 N   0  0  0  0  0  0  0  0  0  0  0  0
    6.2420   -3.5810   27.6240 C   0  0  0  0  0  0  0  0  0  0  0  0
    5.6580   -4.9600   27.4560 C   0  0  0  0  0  0  0  0  0  0  0  0
    4.3770   -5.2160   27.8000 N   0  0  0  0  0  0  0  0  0  0  0  0
    3.6790   -6.7680   27.8890 S   0  0  0  0  0  0  0  0  0  0  0  0
    4.0050   -7.4600   26.6100 O   0  0  0  0  0  0  0  0  0  0  0  0
    2.1960   -6.6630   27.9780 O   0  0  0  0  0  0  0  0  0  0  0  0
    4.3350   -7.6430   29.2520 C   0  0  0  0  0  0  0  0  0  0  0  0
    4.6890   -6.9440   30.2360 C   0  0  0  0  0  0  0  0  0  0  0  0
    5.8800   -7.5340   29.7710 C   0  0  0  0  0  0  0  0  0  0  0  0
    7.5060   -3.0620   23.4840 C   0  0  0  0  0  0  0  0  0  0  0  0
    7.6060   -3.1490   22.1230 C   0  0  0  0  0  0  0  0  0  0  0  0
  1  2  1  0
  2  3  2  0
  2  4  1  0
  4  5  1  0
  5  6  1  0
  6  7  1  0
  7  8  1  0
  8  9  2  0
  8 10  1  0
 10 11  1  0
 11 12  1  0
 12 13  1  0
 14 13  1  0
 14 15  2  0
 14 16  2  0
 14 17  1  0
 17 18  1  0
 17 19  1  0
 18 19  1  0
  7 20  1  0
  4 21  1  0
 20 21  1  0
M  END
