piperidine-amides-29434-covalent
     RDKit          3D

 22 23  0  0  0  0  0  0  0  0999 V2000
    7.0160   -3.3350   19.4190 C   0  0  0  0  0  0  0  0  0  0  0  0
    6.3640   -4.1900   20.4140 C   0  0  0  0  0  0  0  0  0  0  0  0
    5.4330   -4.9130   20.0030 O   0  0  0  0  0  0  0  0  0  0  0  0
    6.7910   -4.2240   21.7820 N   0  0  0  0  0  0  0  0  0  0  0  0
    7.6660   -3.1950   22.3190 C   0  0  0  0  0  0  0  0  0  0  0  0
    7.2000   -2.7760   23.6910 C   0  0  0  0  0  0  0  0  0  0  0  0
    5.9110   -3.5280   23.8730 C   0  0  0  0  0  0  0  0  0  0  0  0
    5.0840   -3.1070   25.0860 C   0  0  0  0  0  0  0  0  0  0  0  0
    3.9020   -2.9180   24.8280 O   0  0  0  0  0  0  0  0  0  0  0  0
    5.5880   -2.9560   26.3820 N   0  0  0  0  0  0  0  0  0  0  0  0
    5.4700   -4.0350   27.3370 C   0  0  0  0  0  0  0  0  0  0  0  0
    6.1470   -5.2390   27.0770 C   0  0  0  0  0  0  0  0  0  0  0  0
    5.5240   -6.2940   27.3260 O   0  0  0  0  0  0  0  0  0  0  0  0
    5.6840   -1.5740   26.9720 C   0  0  0  0  0  0  0  0  0  0  0  0
    5.7450   -1.5590   28.3750 C   0  0  0  0  0  0  0  0  0  0  0  0
    5.8890   -0.2590   29.0760 C   0  0  0  0  0  0  0  0  0  0  0  0
    5.9590    1.0780   28.3460 C   0  0  0  0  0  0  0  0  0  0  0  0
    5.8750    1.0260   26.8670 C   0  0  0  0  0  0  0  0  0  0  0  0
    5.9310    2.5690   25.7500 Br  0  0  0  0  0  0  0  0  0  0  0  0
    5.7420   -0.3690   26.2900 C   0  0  0  0  0  0  0  0  0  0  0  0
    6.0330   -4.9940   23.7950 C   0  0  0  0  0  0  0  0  0  0  0  0
    6.5960   -5.4150   22.5950 C   0  0  0  0  0  0  0  0  0  0  0  0
  1  2  1  0
  2  3  2  0
  2  4  1  0
  4  5  1  0
  5  6  1  0
  6  7  1  0
  7  8  1  0
  8  9  2  0
  8 10  1  0
 10 11  1  0
 11 12  1  0
 12 13  1  0
 10 14  1  0
 14 15  2  0
 15 16  1  0
 16 17  2  0
 17 18  1  0
 18 19  1  0
 14 20  1  0
 18 20  2  0
  7 21  1  0
  4 22  1  0
 21 22  1  0
M  END
