piperidine-amides-29690-covalent
     RDKit          3D

 27 30  0  0  0  0  0  0  0  0999 V2000
    6.9870   -3.3700   19.4670 C   0  0  0  0  0  0  0  0  0  0  0  0
    6.3500   -4.2700   20.4330 C   0  0  0  0  0  0  0  0  0  0  0  0
    5.4540   -5.0140   20.0250 O   0  0  0  0  0  0  0  0  0  0  0  0
    6.7720   -4.3150   21.8270 N   0  0  0  0  0  0  0  0  0  0  0  0
    7.6680   -3.2970   22.3470 C   0  0  0  0  0  0  0  0  0  0  0  0
    7.3150   -2.9600   23.7710 C   0  0  0  0  0  0  0  0  0  0  0  0
    5.9750   -3.6210   24.0220 C   0  0  0  0  0  0  0  0  0  0  0  0
    5.1780   -3.0290   25.1830 C   0  0  0  0  0  0  0  0  0  0  0  0
    4.3510   -2.1460   24.9300 O   0  0  0  0  0  0  0  0  0  0  0  0
    5.2510   -3.3730   26.5780 N   0  0  0  0  0  0  0  0  0  0  0  0
    6.5050   -3.4570   27.1590 C   0  0  0  0  0  0  0  0  0  0  0  0
    6.3790   -4.7510   27.9490 C   0  0  0  0  0  0  0  0  0  0  0  0
    5.1670   -4.9890   28.4290 N   0  0  0  0  0  0  0  0  0  0  0  0
    5.1390   -5.7560   29.5350 C   0  0  0  0  0  0  0  0  0  0  0  0
    5.9860   -6.8150   29.8700 C   0  0  0  0  0  0  0  0  0  0  0  0
    5.7400   -7.4560   31.0730 C   0  0  0  0  0  0  0  0  0  0  0  0
    4.6400   -7.0150   31.9140 C   0  0  0  0  0  0  0  0  0  0  0  0
    4.3250   -7.5840   33.1130 N   0  0  0  0  0  0  0  0  0  0  0  0
    3.2580   -6.8730   33.5420 N   0  0  0  0  0  0  0  0  0  0  0  0
    3.0590   -5.9160   32.4870 C   0  0  0  0  0  0  0  0  0  0  0  0
    3.9250   -6.0090   31.4740 N   0  0  0  0  0  0  0  0  0  0  0  0
    4.1290   -5.3780   30.3420 N   0  0  0  0  0  0  0  0  0  0  0  0
    4.2640   -3.9120   28.5640 C   0  0  1  0  0  0  0  0  0  0  0  0
    4.8700   -2.7720   29.1080 C   0  0  0  0  0  0  0  0  0  0  0  0
    4.4750   -2.7630   27.6470 C   0  0  0  0  0  0  0  0  0  0  0  0
    6.0580   -5.1360   23.9120 C   0  0  0  0  0  0  0  0  0  0  0  0
    6.5400   -5.5050   22.6300 C   0  0  0  0  0  0  0  0  0  0  0  0
  1  2  1  0
  2  3  2  0
  2  4  1  0
  4  5  1  0
  5  6  1  0
  6  7  1  0
  7  8  1  0
  8  9  2  0
  8 10  1  0
 10 11  1  0
 11 12  1  0
 12 13  1  0
 13 14  1  0
 14 15  1  0
 15 16  2  0
 16 17  1  0
 17 18  2  0
 18 19  1  0
 19 20  2  0
 17 21  1  0
 20 21  1  0
 14 22  2  0
 21 22  1  0
 13 23  1  0
 23 24  1  1
 10 25  1  0
 23 25  1  0
  7 26  1  0
  4 27  1  0
 26 27  1  0
M  END
