piperidine-amides-26921-covalent
     RDKit          3D

 24 26  0  0  0  0  0  0  0  0999 V2000
    7.0100   -3.3600   19.4210 C   0  0  0  0  0  0  0  0  0  0  0  0
    6.3580   -4.2400   20.3940 C   0  0  0  0  0  0  0  0  0  0  0  0
    5.3460   -4.8590   19.9770 O   0  0  0  0  0  0  0  0  0  0  0  0
    6.8540   -4.4220   21.6930 N   0  0  0  0  0  0  0  0  0  0  0  0
    6.2940   -5.4410   22.5410 C   0  0  0  0  0  0  0  0  0  0  0  0
    5.3200   -4.7760   23.4930 C   0  0  0  0  0  0  0  0  0  0  0  0
    5.9610   -3.6660   24.2990 C   0  0  0  0  0  0  0  0  0  0  0  0
    4.9560   -2.9920   25.2310 C   0  0  0  0  0  0  0  0  0  0  0  0
    3.8060   -2.7730   24.8240 O   0  0  0  0  0  0  0  0  0  0  0  0
    5.3180   -2.6370   26.5610 N   0  0  0  0  0  0  0  0  0  0  0  0
    4.4910   -2.9700   27.7060 C   0  0  0  0  0  0  0  0  0  0  0  0
    5.4000   -3.9690   28.4090 C   0  0  0  0  0  0  0  0  0  0  0  0
    6.5270   -4.1220   27.6840 C   0  0  0  0  0  0  0  0  0  0  0  0
    7.6770   -4.8520   27.6870 C   0  0  0  0  0  0  0  0  0  0  0  0
    8.6560   -4.6800   26.6390 C   0  0  0  0  0  0  0  0  0  0  0  0
    9.8120   -5.6570   26.8740 S   0  0  0  0  0  0  0  0  0  0  0  0
   10.2240   -5.0270   28.4060 N   0  0  0  0  0  0  0  0  0  0  0  0
   10.7500   -5.4720   25.7700 O   0  0  0  0  0  0  0  0  0  0  0  0
    9.1640   -6.9340   26.9600 O   0  0  0  0  0  0  0  0  0  0  0  0
    8.6200   -3.8200   25.5780 C   0  0  0  0  0  0  0  0  0  0  0  0
    7.5250   -3.2780   25.7530 C   0  0  0  0  0  0  0  0  0  0  0  0
    6.4650   -3.3130   26.6450 C   0  0  0  0  0  0  0  0  0  0  0  0
    6.5880   -2.6420   23.3880 C   0  0  0  0  0  0  0  0  0  0  0  0
    7.4820   -3.2560   22.3200 C   0  0  0  0  0  0  0  0  0  0  0  0
  1  2  1  0
  2  3  2  0
  2  4  1  0
  4  5  1  0
  5  6  1  0
  6  7  1  0
  7  8  1  0
  8  9  2  0
  8 10  1  0
 10 11  1  0
 11 12  1  0
 12 13  1  0
 13 14  1  0
 14 15  2  0
 15 16  1  0
 16 17  1  0
 16 18  2  0
 16 19  2  0
 15 20  1  0
 20 21  2  0
 10 22  1  0
 13 22  2  0
 21 22  1  0
  7 23  1  0
  4 24  1  0
 23 24  1  0
M  END
