piperidine-amides-26117-covalent
     RDKit          3D

 25 27  0  0  0  0  0  0  0  0999 V2000
    7.0930   -3.2920   19.2230 C   0  0  0  0  0  0  0  0  0  0  0  0
    6.3480   -4.0630   20.2180 C   0  0  0  0  0  0  0  0  0  0  0  0
    5.2820   -4.6060   19.8980 O   0  0  0  0  0  0  0  0  0  0  0  0
    6.8490   -4.2530   21.5070 N   0  0  0  0  0  0  0  0  0  0  0  0
    6.6530   -5.5040   22.2040 C   0  0  0  0  0  0  0  0  0  0  0  0
    5.9400   -5.1390   23.4700 C   0  0  0  0  0  0  0  0  0  0  0  0
    6.6920   -4.0910   24.2320 C   0  0  0  0  0  0  0  0  0  0  0  0
    5.8780   -3.5810   25.3470 C   0  0  0  0  0  0  0  0  0  0  0  0
    4.9920   -2.6860   25.2010 O   0  0  0  0  0  0  0  0  0  0  0  0
    6.0760   -4.1160   26.6170 N   0  0  0  0  0  0  0  0  0  0  0  0
    6.9330   -5.2920   26.7010 C   0  0  0  0  0  0  0  0  0  0  0  0
    6.9130   -5.8090   28.0790 C   0  0  0  0  0  0  0  0  0  0  0  0
    5.9100   -5.3020   29.0410 C   0  0  0  0  0  0  0  0  0  0  0  0
    6.2810   -4.1390   29.6300 F   0  0  0  0  0  0  0  0  0  0  0  0
    5.5030   -6.3450   30.0560 C   0  0  0  0  0  0  0  0  0  0  0  0
    3.9950   -6.4450   29.9880 C   0  0  0  0  0  0  0  0  0  0  0  0
    3.1720   -5.5670   30.8760 C   0  0  0  0  0  0  0  0  0  0  0  0
    1.7920   -5.5440   30.9300 C   0  0  0  0  0  0  0  0  0  0  0  0
    1.0620   -6.3990   30.1000 C   0  0  0  0  0  0  0  0  0  0  0  0
    1.7450   -7.3420   29.1490 C   0  0  0  0  0  0  0  0  0  0  0  0
    3.2640   -7.3950   29.0610 C   0  0  0  0  0  0  0  0  0  0  0  0
    4.8460   -4.9240   28.0870 C   0  0  0  0  0  0  0  0  0  0  0  0
    5.1240   -3.8400   27.6450 C   0  0  0  0  0  0  0  0  0  0  0  0
    7.2060   -2.9560   23.4480 C   0  0  0  0  0  0  0  0  0  0  0  0
    7.6030   -3.2320   22.1670 C   0  0  0  0  0  0  0  0  0  0  0  0
  1  2  1  0
  2  3  2  0
  2  4  1  0
  4  5  1  0
  5  6  1  0
  6  7  1  0
  7  8  1  0
  8  9  2  0
  8 10  1  0
 10 11  1  0
 11 12  1  0
 12 13  1  0
 13 14  1  0
 13 15  1  0
 15 16  1  0
 16 17  2  0
 17 18  1  0
 18 19  2  0
 19 20  1  0
 16 21  1  0
 20 21  2  0
 13 22  1  0
 10 23  1  0
 22 23  1  0
  7 24  1  0
  4 25  1  0
 24 25  1  0
M  END
