piperidine-amides-26000-covalent
     RDKit          3D

 24 25  0  0  0  0  0  0  0  0999 V2000
    7.1300   -3.2630   19.1910 C   0  0  0  0  0  0  0  0  0  0  0  0
    6.3710   -3.9860   20.2170 C   0  0  0  0  0  0  0  0  0  0  0  0
    5.3210   -4.5690   19.8980 O   0  0  0  0  0  0  0  0  0  0  0  0
    6.8390   -4.0610   21.5350 N   0  0  0  0  0  0  0  0  0  0  0  0
    7.8000   -3.1150   22.0690 C   0  0  0  0  0  0  0  0  0  0  0  0
    7.3720   -2.8310   23.4720 C   0  0  0  0  0  0  0  0  0  0  0  0
    6.0080   -3.3690   23.7310 C   0  0  0  0  0  0  0  0  0  0  0  0
    5.4940   -2.9500   25.0490 C   0  0  0  0  0  0  0  0  0  0  0  0
    4.2630   -2.7090   25.2090 O   0  0  0  0  0  0  0  0  0  0  0  0
    6.3140   -2.8130   26.1800 N   0  0  0  0  0  0  0  0  0  0  0  0
    7.2940   -1.7240   26.3530 C   0  0  0  0  0  0  0  0  0  0  0  0
    6.0930   -3.7020   27.3050 C   0  0  0  0  0  0  0  0  0  0  0  0
    7.0460   -4.7930   27.2450 C   0  0  0  0  0  0  0  0  0  0  0  0
    8.3790   -4.6230   26.6380 C   0  0  0  0  0  0  0  0  0  0  0  0
    9.0390   -5.9450   26.7870 C   0  0  0  0  0  0  0  0  0  0  0  0
    8.0450   -6.7940   27.4620 N   0  0  0  0  0  0  0  0  0  0  0  0
    6.9680   -6.0490   27.6550 N   0  0  0  0  0  0  0  0  0  0  0  0
    5.8730   -6.5920   28.2320 C   0  0  0  0  0  0  0  0  0  0  0  0
    5.4540   -5.8040   29.2480 C   0  0  0  0  0  0  0  0  0  0  0  0
    5.2900   -6.3700   30.4790 F   0  0  0  0  0  0  0  0  0  0  0  0
    4.2190   -5.2890   28.9240 F   0  0  0  0  0  0  0  0  0  0  0  0
    6.2360   -4.7030   29.3310 F   0  0  0  0  0  0  0  0  0  0  0  0
    5.9570   -4.8760   23.6080 C   0  0  0  0  0  0  0  0  0  0  0  0
    6.6070   -5.2730   22.2980 C   0  0  0  0  0  0  0  0  0  0  0  0
  1  2  1  0
  2  3  2  0
  2  4  1  0
  4  5  1  0
  5  6  1  0
  6  7  1  0
  7  8  1  0
  8  9  2  0
  8 10  1  0
 10 11  1  0
 10 12  1  0
 12 13  1  0
 13 14  2  0
 14 15  1  0
 15 16  2  0
 13 17  1  0
 16 17  1  0
 17 18  1  0
 18 19  1  0
 19 20  1  0
 19 21  1  0
 19 22  1  0
  7 23  1  0
  4 24  1  0
 23 24  1  0
M  END
