piperidine-amides-6654-covalent
     RDKit          3D

 24 25  0  0  0  0  0  0  0  0999 V2000
    7.0310   -3.3350   19.3280 C   0  0  0  0  0  0  0  0  0  0  0  0
    6.3510   -4.1780   20.3290 C   0  0  0  0  0  0  0  0  0  0  0  0
    5.3800   -4.8880   19.9860 O   0  0  0  0  0  0  0  0  0  0  0  0
    6.7970   -4.2350   21.6600 N   0  0  0  0  0  0  0  0  0  0  0  0
    7.6940   -3.2050   22.1460 C   0  0  0  0  0  0  0  0  0  0  0  0
    7.5460   -3.1830   23.6600 C   0  0  0  0  0  0  0  0  0  0  0  0
    6.1330   -3.6440   23.9110 C   0  0  0  0  0  0  0  0  0  0  0  0
    5.7270   -3.2400   25.2690 C   0  0  0  0  0  0  0  0  0  0  0  0
    4.5280   -3.3670   25.6030 O   0  0  0  0  0  0  0  0  0  0  0  0
    6.7060   -2.7190   26.1380 N   0  0  0  0  0  0  0  0  0  0  0  0
    6.4600   -1.4940   26.8500 C   0  0  0  0  0  0  0  0  0  0  0  0
    6.6880   -1.3990   28.3450 C   0  0  0  0  0  0  0  0  0  0  0  0
    6.4420   -0.2260   29.0350 C   0  0  0  0  0  0  0  0  0  0  0  0
    6.6560   -0.1030   30.7510 S   0  0  0  0  0  0  0  0  0  0  0  0
    6.6470    1.3430   31.1790 O   0  0  0  0  0  0  0  0  0  0  0  0
    7.9640   -0.7450   31.0610 O   0  0  0  0  0  0  0  0  0  0  0  0
    5.3030   -0.9330   31.4540 N   0  0  0  0  0  0  0  0  0  0  0  0
    4.1050   -0.3990   30.9630 C   0  0  0  0  0  0  0  0  0  0  0  0
    6.0000    0.8800   28.3770 C   0  0  0  0  0  0  0  0  0  0  0  0
    5.7650    0.9070   27.0330 C   0  0  0  0  0  0  0  0  0  0  0  0
    5.9780   -0.2970   26.1690 C   0  0  0  0  0  0  0  0  0  0  0  0
    5.6760   -0.0840   24.8280 O   0  0  0  0  0  0  0  0  0  0  0  0
    5.9410   -5.1010   23.6530 C   0  0  0  0  0  0  0  0  0  0  0  0
    6.7050   -5.4780   22.4180 C   0  0  0  0  0  0  0  0  0  0  0  0
  1  2  1  0
  2  3  2  0
  2  4  1  0
  4  5  1  0
  5  6  1  0
  6  7  1  0
  7  8  1  0
  8  9  2  0
  8 10  1  0
 10 11  1  0
 11 12  2  0
 12 13  1  0
 13 14  1  0
 14 15  2  0
 14 16  2  0
 14 17  1  0
 17 18  1  0
 13 19  2  0
 19 20  1  0
 11 21  1  0
 20 21  2  0
 21 22  1  0
  7 23  1  0
  4 24  1  0
 23 24  1  0
M  END
