piperidine-amides-30703-covalent
     RDKit          3D

 27 29  0  0  0  0  0  0  0  0999 V2000
    7.0590   -3.2750   19.2060 C   0  0  0  0  0  0  0  0  0  0  0  0
    6.3250   -4.0630   20.2030 C   0  0  0  0  0  0  0  0  0  0  0  0
    5.2650   -4.6200   19.8940 O   0  0  0  0  0  0  0  0  0  0  0  0
    6.8270   -4.2470   21.4870 N   0  0  0  0  0  0  0  0  0  0  0  0
    7.7230   -3.2900   22.0900 C   0  0  0  0  0  0  0  0  0  0  0  0
    7.0670   -2.8320   23.3590 C   0  0  0  0  0  0  0  0  0  0  0  0
    6.6260   -4.0010   24.1760 C   0  0  0  0  0  0  0  0  0  0  0  0
    5.7340   -3.5700   25.2580 C   0  0  0  0  0  0  0  0  0  0  0  0
    4.7750   -2.7670   25.0570 O   0  0  0  0  0  0  0  0  0  0  0  0
    5.9130   -4.0460   26.5540 N   0  0  0  0  0  0  0  0  0  0  0  0
    5.7930   -3.1680   27.6950 C   0  0  0  0  0  0  0  0  0  0  0  0
    7.0440   -3.4260   28.3700 C   0  0  1  0  0  0  0  0  0  0  0  0
    7.2890   -4.8010   28.7520 C   0  0  0  0  0  0  0  0  0  0  0  0
    7.2900   -5.6880   27.5670 C   0  0  2  0  0  0  0  0  0  0  0  0
    8.6630   -5.5100   26.9850 C   0  0  0  0  0  0  0  0  0  0  0  0
    8.6010   -4.1680   26.4380 N   0  0  0  0  0  0  0  0  0  0  0  0
    9.8090   -4.0920   25.5780 C   0  0  0  0  0  0  0  0  0  0  0  0
   11.0410   -4.4590   26.0370 O   0  0  0  0  0  0  0  0  0  0  0  0
    9.8250   -3.7020   24.3580 O   0  0  0  0  0  0  0  0  0  0  0  0
   10.4610   -2.5410   23.8680 C   0  0  0  0  0  0  0  0  0  0  0  0
   10.0500   -2.1710   22.5820 C   0  0  0  0  0  0  0  0  0  0  0  0
   11.4650   -2.4440   22.7040 C   0  0  0  0  0  0  0  0  0  0  0  0
   12.0210   -2.6390   24.0500 C   0  0  0  0  0  0  0  0  0  0  0  0
    8.1340   -3.1640   27.3780 C   0  0  0  0  0  0  0  0  0  0  0  0
    6.2970   -5.4330   26.6490 C   0  0  0  0  0  0  0  0  0  0  0  0
    5.9560   -5.1030   23.4490 C   0  0  0  0  0  0  0  0  0  0  0  0
    6.5210   -5.4120   22.2400 C   0  0  0  0  0  0  0  0  0  0  0  0
  1  2  1  0
  2  3  2  0
  2  4  1  0
  4  5  1  0
  5  6  1  0
  6  7  1  0
  7  8  1  0
  8  9  2  0
  8 10  1  0
 10 11  1  0
 12 11  1  6
 12 13  1  0
 13 14  1  0
 14 15  1  6
 15 16  1  0
 16 17  1  0
 17 18  2  0
 17 19  1  0
 20 19  1  0
 20 21  1  0
 20 22  1  0
 20 23  1  0
 12 24  1  0
 16 24  1  0
 10 25  1  0
 14 25  1  0
  7 26  1  0
  4 27  1  0
 26 27  1  0
M  END
