piperidine-amides-2713-covalent
     RDKit          3D

 25 27  0  0  0  0  0  0  0  0999 V2000
    7.1100   -3.2880   19.2800 C   0  0  0  0  0  0  0  0  0  0  0  0
    6.3750   -4.0850   20.2560 C   0  0  0  0  0  0  0  0  0  0  0  0
    5.3300   -4.6500   19.9280 O   0  0  0  0  0  0  0  0  0  0  0  0
    6.9010   -4.2560   21.5840 N   0  0  0  0  0  0  0  0  0  0  0  0
    6.5830   -5.4270   22.3550 C   0  0  0  0  0  0  0  0  0  0  0  0
    6.4350   -5.0450   23.8070 C   0  0  0  0  0  0  0  0  0  0  0  0
    5.8630   -3.6380   23.8620 C   0  0  0  0  0  0  0  0  0  0  0  0
    5.5640   -3.2330   25.2620 C   0  0  0  0  0  0  0  0  0  0  0  0
    4.4260   -2.8810   25.6160 O   0  0  0  0  0  0  0  0  0  0  0  0
    6.5990   -3.2470   26.2200 N   0  0  0  0  0  0  0  0  0  0  0  0
    6.3710   -3.9840   27.4410 C   0  0  0  0  0  0  0  0  0  0  0  0
    6.6270   -5.4300   27.1240 C   0  0  0  0  0  0  0  0  0  0  0  0
    6.4540   -6.4430   27.9830 N   0  0  0  0  0  0  0  0  0  0  0  0
    5.1540   -6.7410   28.1160 C   0  0  0  0  0  0  0  0  0  0  0  0
    4.2430   -6.7290   27.0560 C   0  0  0  0  0  0  0  0  0  0  0  0
    2.9170   -7.0280   27.1310 C   0  0  0  0  0  0  0  0  0  0  0  0
    2.4530   -7.3860   28.4450 C   0  0  0  0  0  0  0  0  0  0  0  0
    3.2640   -7.4310   29.5570 C   0  0  0  0  0  0  0  0  0  0  0  0
    2.8560   -7.7720   30.8350 C   0  0  0  0  0  0  0  0  0  0  0  0
    3.6990   -7.8080   31.9230 C   0  0  0  0  0  0  0  0  0  0  0  0
    5.0930   -7.4690   31.7180 C   0  0  0  0  0  0  0  0  0  0  0  0
    5.5410   -7.1240   30.4620 C   0  0  0  0  0  0  0  0  0  0  0  0
    4.6410   -7.1020   29.3870 C   0  0  0  0  0  0  0  0  0  0  0  0
    6.7970   -2.6050   23.2790 C   0  0  0  0  0  0  0  0  0  0  0  0
    7.7010   -3.2420   22.2180 C   0  0  0  0  0  0  0  0  0  0  0  0
  1  2  1  0
  2  3  2  0
  2  4  1  0
  4  5  1  0
  5  6  1  0
  6  7  1  0
  7  8  1  0
  8  9  2  0
  8 10  1  0
 10 11  1  0
 11 12  1  0
 12 13  1  0
 13 14  1  0
 14 15  2  0
 15 16  1  0
 16 17  2  0
 17 18  1  0
 18 19  1  0
 19 20  2  0
 20 21  1  0
 21 22  2  0
 14 23  1  0
 18 23  2  0
 22 23  1  0
  7 24  1  0
  4 25  1  0
 24 25  1  0
M  END
