piperidine-amides-11385-covalent
     RDKit          3D

 20 22  0  0  0  0  0  0  0  0999 V2000
    7.0450   -3.3380   19.3400 C   0  0  0  0  0  0  0  0  0  0  0  0
    6.3750   -4.1540   20.3540 C   0  0  0  0  0  0  0  0  0  0  0  0
    5.4240   -4.8750   19.9990 O   0  0  0  0  0  0  0  0  0  0  0  0
    6.8120   -4.1700   21.6970 N   0  0  0  0  0  0  0  0  0  0  0  0
    7.7220   -3.1590   22.2130 C   0  0  0  0  0  0  0  0  0  0  0  0
    7.4410   -3.0170   23.6810 C   0  0  0  0  0  0  0  0  0  0  0  0
    6.1030   -3.5840   24.0180 C   0  0  0  0  0  0  0  0  0  0  0  0
    5.5820   -3.2590   25.3770 C   0  0  0  0  0  0  0  0  0  0  0  0
    4.3310   -3.2690   25.5680 O   0  0  0  0  0  0  0  0  0  0  0  0
    6.3780   -2.9300   26.5060 N   0  0  0  0  0  0  0  0  0  0  0  0
    6.6960   -1.5130   26.8470 C   0  0  2  0  0  0  0  0  0  0  0  0
    7.1760   -1.4720   28.2510 C   0  0  0  0  0  0  0  0  0  0  0  0
    6.4560   -0.5940   29.1760 C   0  0  0  0  0  0  0  0  0  0  0  0
    6.1750    0.7700   28.6120 C   0  0  0  0  0  0  0  0  0  0  0  0
    5.7500    0.7490   27.1550 C   0  0  0  0  0  0  0  0  0  0  0  0
    5.4840   -0.6660   26.7640 C   0  0  0  0  0  0  0  0  0  0  0  0
    4.9680    1.7840   26.9360 N   0  0  0  0  0  0  0  0  0  0  0  0
    6.2090    1.7650   26.3070 N   0  0  0  0  0  0  0  0  0  0  0  0
    6.1270   -5.0770   23.7480 C   0  0  0  0  0  0  0  0  0  0  0  0
    6.6130   -5.3840   22.4650 C   0  0  0  0  0  0  0  0  0  0  0  0
  1  2  1  0
  2  3  2  0
  2  4  1  0
  4  5  1  0
  5  6  1  0
  6  7  1  0
  7  8  1  0
  8  9  2  0
  8 10  1  0
 11 10  1  1
 11 12  1  0
 12 13  1  0
 13 14  1  0
 14 15  1  0
 11 16  1  0
 15 16  1  0
 15 17  1  0
 15 18  1  0
 17 18  2  0
  7 19  1  0
  4 20  1  0
 19 20  1  0
M  END
