piperidine-amides-29159-covalent
     RDKit          3D

 25 26  0  0  0  0  0  0  0  0999 V2000
    7.0260   -3.3420   19.3350 C   0  0  0  0  0  0  0  0  0  0  0  0
    6.3590   -4.2000   20.3150 C   0  0  0  0  0  0  0  0  0  0  0  0
    5.3410   -4.8180   19.9600 O   0  0  0  0  0  0  0  0  0  0  0  0
    6.8870   -4.3500   21.6160 N   0  0  0  0  0  0  0  0  0  0  0  0
    7.5990   -3.2380   22.1870 C   0  0  0  0  0  0  0  0  0  0  0  0
    7.2750   -3.1260   23.6420 C   0  0  0  0  0  0  0  0  0  0  0  0
    5.9070   -3.6900   23.8400 C   0  0  0  0  0  0  0  0  0  0  0  0
    5.3290   -3.3010   25.1720 C   0  0  0  0  0  0  0  0  0  0  0  0
    4.1130   -3.1520   25.1930 O   0  0  0  0  0  0  0  0  0  0  0  0
    6.1560   -3.1210   26.2770 N   0  0  0  0  0  0  0  0  0  0  0  0
    6.2340   -1.7720   26.8500 C   0  0  0  0  0  0  0  0  0  0  0  0
    6.1340   -0.5930   26.1060 C   0  0  0  0  0  0  0  0  0  0  0  0
    6.1970    0.6830   26.6750 C   0  0  0  0  0  0  0  0  0  0  0  0
    6.0450    2.1000   25.6120 Cl  0  0  0  0  0  0  0  0  0  0  0  0
    6.3760    0.9420   28.0400 C   0  0  0  0  0  0  0  0  0  0  0  0
    6.4910   -0.2750   28.8890 C   0  0  0  0  0  0  0  0  0  0  0  0
    6.4060   -1.6600   28.2530 C   0  0  0  0  0  0  0  0  0  0  0  0
    6.4990   -2.7320   29.1930 C   0  0  0  0  0  0  0  0  0  0  0  0
    6.6520   -4.3880   26.8850 C   0  0  1  0  0  0  0  0  0  0  0  0
    6.9840   -4.3080   28.3910 C   0  0  0  0  0  0  0  0  0  0  0  0
    5.6120   -5.2860   26.8890 C   0  0  0  0  0  0  0  0  0  0  0  0
    5.9750   -6.4690   27.1350 O   0  0  0  0  0  0  0  0  0  0  0  0
    5.7380   -6.7430   28.4880 C   0  0  0  0  0  0  0  0  0  0  0  0
    5.9200   -5.1710   23.6870 C   0  0  0  0  0  0  0  0  0  0  0  0
    6.6070   -5.5270   22.3970 C   0  0  0  0  0  0  0  0  0  0  0  0
  1  2  1  0
  2  3  2  0
  2  4  1  0
  4  5  1  0
  5  6  1  0
  6  7  1  0
  7  8  1  0
  8  9  2  0
  8 10  1  0
 10 11  1  0
 11 12  2  0
 12 13  1  0
 13 14  1  0
 13 15  2  0
 15 16  1  0
 11 17  1  0
 16 17  2  0
 17 18  1  0
 10 19  1  0
 19 20  1  1
 19 21  1  0
 21 22  1  0
 22 23  1  0
  7 24  1  0
  4 25  1  0
 24 25  1  0
M  END
