piperidine-amides-24099-covalent
     RDKit          3D

 24 26  0  0  0  0  0  0  0  0999 V2000
    7.0450   -3.4200   19.4290 C   0  0  0  0  0  0  0  0  0  0  0  0
    6.4100   -4.2880   20.4320 C   0  0  0  0  0  0  0  0  0  0  0  0
    5.4220   -4.9490   20.0180 O   0  0  0  0  0  0  0  0  0  0  0  0
    6.9220   -4.4140   21.7650 N   0  0  0  0  0  0  0  0  0  0  0  0
    6.5510   -5.5390   22.5620 C   0  0  0  0  0  0  0  0  0  0  0  0
    6.0400   -5.1540   23.8790 C   0  0  0  0  0  0  0  0  0  0  0  0
    5.9440   -3.6910   24.0230 C   0  0  0  0  0  0  0  0  0  0  0  0
    5.0840   -3.1530   25.1710 C   0  0  0  0  0  0  0  0  0  0  0  0
    4.0080   -2.6430   24.8350 O   0  0  0  0  0  0  0  0  0  0  0  0
    5.3160   -3.1590   26.5810 N   0  0  0  0  0  0  0  0  0  0  0  0
    6.4890   -3.3460   27.2220 C   0  0  0  0  0  0  0  0  0  0  0  0
    6.4990   -4.4700   28.1710 C   0  0  0  0  0  0  0  0  0  0  0  0
    5.4320   -4.5980   28.9550 N   0  0  0  0  0  0  0  0  0  0  0  0
    5.1930   -5.6240   29.9300 C   0  0  0  0  0  0  0  0  0  0  0  0
    6.0230   -6.6940   29.8070 C   0  0  0  0  0  0  0  0  0  0  0  0
    5.8230   -7.6550   30.7020 N   0  0  0  0  0  0  0  0  0  0  0  0
    4.8530   -7.7130   31.7860 C   0  0  0  0  0  0  0  0  0  0  0  0
    3.8790   -6.6020   32.0230 C   0  0  0  0  0  0  0  0  0  0  0  0
    2.9720   -6.7330   33.0860 F   0  0  0  0  0  0  0  0  0  0  0  0
    4.1400   -5.5120   30.9630 C   0  0  0  0  0  0  0  0  0  0  0  0
    4.5020   -3.5730   28.8670 C   0  0  0  0  0  0  0  0  0  0  0  0
    4.2690   -2.9100   27.5080 C   0  0  0  0  0  0  0  0  0  0  0  0
    7.3190   -3.0500   23.8090 C   0  0  0  0  0  0  0  0  0  0  0  0
    7.6220   -3.2300   22.3460 C   0  0  0  0  0  0  0  0  0  0  0  0
  1  2  1  0
  2  3  2  0
  2  4  1  0
  4  5  1  0
  5  6  1  0
  6  7  1  0
  7  8  1  0
  8  9  2  0
  8 10  1  0
 10 11  1  0
 11 12  1  0
 12 13  1  0
 13 14  1  0
 14 15  2  0
 15 16  1  0
 16 17  2  0
 17 18  1  0
 18 19  1  0
 14 20  1  0
 18 20  2  0
 13 21  1  0
 10 22  1  0
 21 22  1  0
  7 23  1  0
  4 24  1  0
 23 24  1  0
M  END
