piperidine-amides-1175-covalent
     RDKit          3D

 23 24  0  0  0  0  0  0  0  0999 V2000
    7.1280   -3.2800   19.2310 C   0  0  0  0  0  0  0  0  0  0  0  0
    6.3700   -4.0750   20.2350 C   0  0  0  0  0  0  0  0  0  0  0  0
    5.2890   -4.5870   19.9010 O   0  0  0  0  0  0  0  0  0  0  0  0
    6.9280   -4.2770   21.5160 N   0  0  0  0  0  0  0  0  0  0  0  0
    6.4960   -5.3660   22.3370 C   0  0  0  0  0  0  0  0  0  0  0  0
    5.6010   -4.7230   23.4050 C   0  0  0  0  0  0  0  0  0  0  0  0
    6.4290   -3.7650   24.2140 C   0  0  0  0  0  0  0  0  0  0  0  0
    5.7020   -3.3510   25.4400 C   0  0  0  0  0  0  0  0  0  0  0  0
    4.5120   -3.0580   25.2750 O   0  0  0  0  0  0  0  0  0  0  0  0
    6.3350   -3.3000   26.6890 N   0  0  0  0  0  0  0  0  0  0  0  0
    6.2650   -4.2570   27.7440 C   0  0  2  0  0  0  0  0  0  0  0  0
    6.0400   -5.6110   27.5770 C   0  0  0  0  0  0  0  0  0  0  0  0
    4.6100   -5.7950   27.7660 O   0  0  0  0  0  0  0  0  0  0  0  0
    5.2350   -3.8140   28.7510 C   0  0  0  0  0  0  0  0  0  0  0  0
    3.9940   -3.3690   28.3630 C   0  0  0  0  0  0  0  0  0  0  0  0
    2.8380   -3.5630   29.2850 C   0  0  0  0  0  0  0  0  0  0  0  0
    2.6580   -4.7030   30.3060 C   0  0  0  0  0  0  0  0  0  0  0  0
    1.3820   -4.6760   31.1300 C   0  0  0  0  0  0  0  0  0  0  0  0
    0.4570   -3.6820   30.9550 C   0  0  0  0  0  0  0  0  0  0  0  0
    0.4610   -2.5190   30.0340 C   0  0  0  0  0  0  0  0  0  0  0  0
    1.7440   -2.5420   29.2030 C   0  0  0  0  0  0  0  0  0  0  0  0
    6.8360   -2.6480   23.3400 C   0  0  0  0  0  0  0  0  0  0  0  0
    7.6480   -3.2220   22.1690 C   0  0  0  0  0  0  0  0  0  0  0  0
  1  2  1  0
  2  3  2  0
  2  4  1  0
  4  5  1  0
  5  6  1  0
  6  7  1  0
  7  8  1  0
  8  9  2  0
  8 10  1  0
 10 11  1  0
 11 12  1  6
 12 13  1  0
 11 14  1  0
 14 15  1  0
 15 16  1  0
 16 17  2  0
 17 18  1  0
 18 19  2  0
 19 20  1  0
 16 21  1  0
 20 21  2  0
  7 22  1  0
  4 23  1  0
 22 23  1  0
M  END
