piperidine-amides-2040-covalent
     RDKit          3D

 25 25  0  0  0  0  0  0  0  0999 V2000
    7.1340   -3.2650   19.1510 C   0  0  0  0  0  0  0  0  0  0  0  0
    6.3330   -3.9580   20.1920 C   0  0  0  0  0  0  0  0  0  0  0  0
    5.2650   -4.4580   19.8440 O   0  0  0  0  0  0  0  0  0  0  0  0
    6.8130   -4.0730   21.4910 N   0  0  0  0  0  0  0  0  0  0  0  0
    6.5000   -5.2150   22.3010 C   0  0  0  0  0  0  0  0  0  0  0  0
    5.8250   -4.7520   23.5650 C   0  0  0  0  0  0  0  0  0  0  0  0
    6.6140   -3.5870   24.1940 C   0  0  0  0  0  0  0  0  0  0  0  0
    5.7890   -3.0090   25.2730 C   0  0  0  0  0  0  0  0  0  0  0  0
    4.5580   -3.1830   25.2720 O   0  0  0  0  0  0  0  0  0  0  0  0
    6.3900   -2.2390   26.2940 N   0  0  0  0  0  0  0  0  0  0  0  0
    6.8300   -2.8830   27.5110 C   0  0  2  0  0  0  0  0  0  0  0  0
    8.1080   -3.6110   27.1940 C   0  0  0  0  0  0  0  0  0  0  0  0
    8.8180   -4.2510   28.1460 C   0  0  0  0  0  0  0  0  0  0  0  0
    9.6380   -5.2250   27.7310 C   0  0  0  0  0  0  0  0  0  0  0  0
    9.4230   -5.7030   26.4820 C   0  0  0  0  0  0  0  0  0  0  0  0
    8.0740   -5.8090   25.8430 C   0  0  0  0  0  0  0  0  0  0  0  0
    7.9680   -5.7830   24.4730 O   0  0  0  0  0  0  0  0  0  0  0  0
    6.9660   -5.9550   26.6540 O   0  0  0  0  0  0  0  0  0  0  0  0
    7.0910   -6.2160   28.0430 C   0  0  0  0  0  0  0  0  0  0  0  0
    5.8040   -3.9320   27.9910 C   0  0  0  0  0  0  0  0  0  0  0  0
    5.9970   -4.5250   29.2080 F   0  0  0  0  0  0  0  0  0  0  0  0
    5.3440   -4.7590   27.0330 F   0  0  0  0  0  0  0  0  0  0  0  0
    4.6320   -3.1590   28.2230 F   0  0  0  0  0  0  0  0  0  0  0  0
    7.0780   -2.5490   23.2520 C   0  0  0  0  0  0  0  0  0  0  0  0
    7.7020   -3.0640   22.0120 C   0  0  0  0  0  0  0  0  0  0  0  0
  1  2  1  0
  2  3  2  0
  2  4  1  0
  4  5  1  0
  5  6  1  0
  6  7  1  0
  7  8  1  0
  8  9  2  0
  8 10  1  0
 10 11  1  0
 11 12  1  6
 12 13  1  0
 13 14  1  0
 14 15  1  0
 15 16  1  0
 16 17  2  0
 16 18  1  0
 18 19  1  0
 11 20  1  0
 20 21  1  0
 20 22  1  0
 20 23  1  0
  7 24  1  0
  4 25  1  0
 24 25  1  0
M  END
