piperidine-amides-3412-covalent
     RDKit          3D

 21 23  0  0  0  0  0  0  0  0999 V2000
    7.1000   -3.3200   19.2990 C   0  0  0  0  0  0  0  0  0  0  0  0
    6.3870   -4.1420   20.2670 C   0  0  0  0  0  0  0  0  0  0  0  0
    5.3570   -4.7360   19.9520 O   0  0  0  0  0  0  0  0  0  0  0  0
    6.9260   -4.2980   21.5840 N   0  0  0  0  0  0  0  0  0  0  0  0
    6.4870   -5.4020   22.3960 C   0  0  0  0  0  0  0  0  0  0  0  0
    5.6980   -4.8830   23.5700 C   0  0  0  0  0  0  0  0  0  0  0  0
    6.5380   -3.8360   24.2870 C   0  0  0  0  0  0  0  0  0  0  0  0
    5.7900   -3.2990   25.4560 C   0  0  0  0  0  0  0  0  0  0  0  0
    4.5530   -3.1300   25.4250 O   0  0  0  0  0  0  0  0  0  0  0  0
    6.4950   -2.9680   26.6440 N   0  0  0  0  0  0  0  0  0  0  0  0
    6.3890   -1.6040   27.1140 C   0  0  0  0  0  0  0  0  0  0  0  0
    5.8150   -0.4560   26.3320 C   0  0  0  0  0  0  0  0  0  0  0  0
    5.7450    0.8260   26.8800 C   0  0  0  0  0  0  0  0  0  0  0  0
    6.2100    1.0970   28.1870 C   0  0  0  0  0  0  0  0  0  0  0  0
    6.7490    0.0970   28.9540 C   0  0  0  0  0  0  0  0  0  0  0  0
    6.8540   -1.2000   28.4830 C   0  0  0  0  0  0  0  0  0  0  0  0
    7.3720   -1.8700   29.3810 O   0  0  0  0  0  0  0  0  0  0  0  0
    7.9040   -0.8960   30.2920 C   0  0  0  0  0  0  0  0  0  0  0  0
    7.2000    0.3360   30.2200 C   0  0  0  0  0  0  0  0  0  0  0  0
    7.1210   -2.7630   23.4490 C   0  0  0  0  0  0  0  0  0  0  0  0
    7.6180   -3.1960   22.1540 C   0  0  0  0  0  0  0  0  0  0  0  0
  1  2  1  0
  2  3  2  0
  2  4  1  0
  4  5  1  0
  5  6  1  0
  6  7  1  0
  7  8  1  0
  8  9  2  0
  8 10  1  0
 10 11  1  0
 11 12  2  0
 12 13  1  0
 13 14  2  0
 14 15  1  0
 11 16  1  0
 15 16  2  0
 16 17  1  0
 17 18  1  0
 15 19  1  0
 18 19  1  0
  7 20  1  0
  4 21  1  0
 20 21  1  0
M  END
