piperidine-amides-19435-covalent
     RDKit          3D

 22 24  0  0  0  0  0  0  0  0999 V2000
    7.0370   -3.4180   19.3370 C   0  0  0  0  0  0  0  0  0  0  0  0
    6.3890   -4.2310   20.3410 C   0  0  0  0  0  0  0  0  0  0  0  0
    5.3460   -4.8560   19.9840 O   0  0  0  0  0  0  0  0  0  0  0  0
    6.8860   -4.4110   21.6530 N   0  0  0  0  0  0  0  0  0  0  0  0
    6.2440   -5.4670   22.4580 C   0  0  0  0  0  0  0  0  0  0  0  0
    5.1540   -4.5960   23.1990 C   0  0  0  0  0  0  0  0  0  0  0  0
    5.9100   -3.5190   23.9470 C   0  0  0  0  0  0  0  0  0  0  0  0
    5.0190   -2.8020   25.0710 C   0  0  0  0  0  0  0  0  0  0  0  0
    3.8220   -2.8340   24.8450 O   0  0  0  0  0  0  0  0  0  0  0  0
    5.8670   -2.4070   25.8970 N   0  0  0  0  0  0  0  0  0  0  0  0
    7.0200   -2.3670   26.4840 C   0  0  0  0  0  0  0  0  0  0  0  0
    7.8630   -3.3110   26.2850 C   0  0  0  0  0  0  0  0  0  0  0  0
    8.7670   -3.5650   25.2630 C   0  0  0  0  0  0  0  0  0  0  0  0
    9.4760   -4.6590   25.3450 N   0  0  0  0  0  0  0  0  0  0  0  0
    9.0120   -5.1550   26.4860 N   0  0  0  0  0  0  0  0  0  0  0  0
    9.4920   -6.2410   26.8930 C   0  0  0  0  0  0  0  0  0  0  0  0
    8.1240   -4.5130   27.1020 C   0  0  0  0  0  0  0  0  0  0  0  0
    5.6240   -1.5250   27.0480 C   0  0  0  0  0  0  0  0  0  0  0  0
    5.9810   -0.1770   26.8630 C   0  0  0  0  0  0  0  0  0  0  0  0
    6.8330   -1.0480   27.7990 C   0  0  0  0  0  0  0  0  0  0  0  0
    6.7110   -2.6350   23.0340 C   0  0  0  0  0  0  0  0  0  0  0  0
    7.6160   -3.3840   22.3270 C   0  0  0  0  0  0  0  0  0  0  0  0
  1  2  1  0
  2  3  2  0
  2  4  1  0
  4  5  1  0
  5  6  1  0
  6  7  1  0
  7  8  1  0
  8  9  2  0
  8 10  1  0
 10 11  1  0
 11 12  1  0
 12 13  1  0
 13 14  2  0
 14 15  1  0
 15 16  1  0
 12 17  2  0
 15 17  1  0
 10 18  1  0
 18 19  1  0
 18 20  1  0
 19 20  1  0
  7 21  1  0
  4 22  1  0
 21 22  1  0
M  END
