piperidine-amides-32943-covalent
     RDKit          3D

 28 30  0  0  0  0  0  0  0  0999 V2000
    7.0690   -3.2980   19.3330 C   0  0  0  0  0  0  0  0  0  0  0  0
    6.3450   -4.1280   20.3340 C   0  0  0  0  0  0  0  0  0  0  0  0
    5.3380   -4.7540   19.9580 O   0  0  0  0  0  0  0  0  0  0  0  0
    6.8280   -4.2270   21.6630 N   0  0  0  0  0  0  0  0  0  0  0  0
    6.6300   -5.4350   22.4400 C   0  0  0  0  0  0  0  0  0  0  0  0
    6.1880   -5.0630   23.8710 C   0  0  0  0  0  0  0  0  0  0  0  0
    6.1090   -3.5740   23.9640 C   0  0  0  0  0  0  0  0  0  0  0  0
    5.5500   -3.0240   25.2300 C   0  0  0  0  0  0  0  0  0  0  0  0
    4.5430   -2.3240   25.0910 O   0  0  0  0  0  0  0  0  0  0  0  0
    6.0910   -3.2780   26.4990 N   0  0  0  0  0  0  0  0  0  0  0  0
    6.5240   -2.2290   27.3560 C   0  0  0  0  0  0  0  0  0  0  0  0
    5.6890   -4.5040   27.1190 C   0  0  0  0  0  0  0  0  0  0  0  0
    5.1000   -4.5720   28.3850 C   0  0  0  0  0  0  0  0  0  0  0  0
    4.2670   -3.7540   29.0510 C   0  0  0  0  0  0  0  0  0  0  0  0
    3.7600   -2.4640   28.5160 C   0  0  0  0  0  0  0  0  0  0  0  0
    3.9330   -4.2410   30.2770 N   0  0  0  0  0  0  0  0  0  0  0  0
    4.6170   -5.4220   30.3340 N   0  0  0  0  0  0  0  0  0  0  0  0
    4.4600   -6.1760   31.5190 C   0  0  0  0  0  0  0  0  0  0  0  0
    3.4230   -5.6820   32.4850 C   0  0  0  0  0  0  0  0  0  0  0  0
    3.2460   -6.3990   33.6560 C   0  0  0  0  0  0  0  0  0  0  0  0
    3.9860   -7.6480   34.0930 C   0  0  0  0  0  0  0  0  0  0  0  0
    3.7100   -8.5090   35.5890 Cl  0  0  0  0  0  0  0  0  0  0  0  0
    5.0020   -8.0040   32.9880 C   0  0  0  0  0  0  0  0  0  0  0  0
    5.2390   -7.3570   31.8120 C   0  0  0  0  0  0  0  0  0  0  0  0
    5.3250   -5.6530   29.2320 C   0  0  0  0  0  0  0  0  0  0  0  0
    6.1890   -6.8470   28.9550 C   0  0  0  0  0  0  0  0  0  0  0  0
    7.4450   -2.9550   23.6600 C   0  0  0  0  0  0  0  0  0  0  0  0
    7.6760   -3.1510   22.2090 C   0  0  0  0  0  0  0  0  0  0  0  0
  1  2  1  0
  2  3  2  0
  2  4  1  0
  4  5  1  0
  5  6  1  0
  6  7  1  0
  7  8  1  0
  8  9  2  0
  8 10  1  0
 10 11  1  0
 10 12  1  0
 12 13  1  0
 13 14  1  0
 14 15  1  0
 14 16  2  0
 16 17  1  0
 17 18  1  0
 18 19  2  0
 19 20  1  0
 20 21  2  0
 21 22  1  0
 21 23  1  0
 18 24  1  0
 23 24  2  0
 13 25  2  0
 17 25  1  0
 25 26  1  0
  7 27  1  0
  4 28  1  0
 27 28  1  0
M  END
