piperidine-amides-11605-covalent
     RDKit          3D

 32 34  0  0  0  0  0  0  0  0999 V2000
    7.1900   -3.2540   19.1630 C   0  0  0  0  0  0  0  0  0  0  0  0
    6.4140   -3.9740   20.1610 C   0  0  0  0  0  0  0  0  0  0  0  0
    5.3350   -4.4900   19.8710 O   0  0  0  0  0  0  0  0  0  0  0  0
    6.9580   -4.1250   21.4730 N   0  0  0  0  0  0  0  0  0  0  0  0
    7.7830   -3.0650   22.0150 C   0  0  0  0  0  0  0  0  0  0  0  0
    7.5740   -2.8800   23.4860 C   0  0  0  0  0  0  0  0  0  0  0  0
    6.1120   -3.1350   23.7810 C   0  0  0  0  0  0  0  0  0  0  0  0
    5.8690   -2.9750   25.2320 C   0  0  0  0  0  0  0  0  0  0  0  0
    4.8960   -2.3280   25.6740 O   0  0  0  0  0  0  0  0  0  0  0  0
    6.7730   -3.5930   26.1270 N   0  0  0  0  0  0  0  0  0  0  0  0
    7.8790   -2.8740   26.6960 C   0  0  0  0  0  0  0  0  0  0  0  0
    7.8220   -3.2690   28.1370 C   0  0  0  0  0  0  0  0  0  0  0  0
    6.6090   -3.7840   28.5590 C   0  0  0  0  0  0  0  0  0  0  0  0
    5.4370   -3.0210   28.4390 C   0  0  0  0  0  0  0  0  0  0  0  0
    4.2150   -3.5250   28.8490 C   0  0  0  0  0  0  0  0  0  0  0  0
    4.1290   -4.8640   29.4140 C   0  0  0  0  0  0  0  0  0  0  0  0
    2.9900   -5.3130   29.7900 O   0  0  0  0  0  0  0  0  0  0  0  0
    2.4590   -6.2840   28.9290 C   0  0  0  0  0  0  0  0  0  0  0  0
    3.5420   -6.9780   28.4350 C   0  0  0  0  0  0  0  0  0  0  0  0
    4.1570   -7.8220   29.1290 O   0  0  0  0  0  0  0  0  0  0  0  0
    3.9290   -6.7080   27.1100 N   0  0  0  0  0  0  0  0  0  0  0  0
    5.2180   -6.3400   26.8780 C   0  0  0  0  0  0  0  0  0  0  0  0
    5.7290   -5.7680   25.6350 C   0  0  0  0  0  0  0  0  0  0  0  0
    7.0690   -5.4230   25.4530 C   0  0  0  0  0  0  0  0  0  0  0  0
    8.0080   -5.6050   26.4650 C   0  0  0  0  0  0  0  0  0  0  0  0
    9.4400   -5.2460   26.2630 C   0  0  0  0  0  0  0  0  0  0  0  0
    7.6130   -6.1270   27.6660 C   0  0  0  0  0  0  0  0  0  0  0  0
    6.1570   -6.5170   27.8920 C   0  0  0  0  0  0  0  0  0  0  0  0
    5.2930   -5.5850   29.5200 C   0  0  0  0  0  0  0  0  0  0  0  0
    6.5140   -5.0520   29.0990 C   0  0  0  0  0  0  0  0  0  0  0  0
    5.6300   -4.4750   23.3500 C   0  0  0  0  0  0  0  0  0  0  0  0
    6.4840   -5.1560   22.3590 C   0  0  0  0  0  0  0  0  0  0  0  0
  1  2  1  0
  2  3  2  0
  2  4  1  0
  4  5  1  0
  5  6  1  0
  6  7  1  0
  7  8  1  0
  8  9  2  0
  8 10  1  0
 10 11  1  0
 11 12  1  0
 12 13  1  0
 13 14  2  0
 14 15  1  0
 15 16  2  0
 16 17  1  0
 17 18  1  0
 18 19  1  0
 19 20  2  0
 19 21  1  0
 21 22  1  0
 22 23  2  0
 23 24  1  0
 24 25  2  0
 25 26  1  0
 25 27  1  0
 22 28  1  0
 27 28  2  0
 16 29  1  0
 13 30  1  0
 29 30  2  0
  7 31  1  0
  4 32  1  0
 31 32  1  0
M  END
