piperidine-amides-27861-covalent
     RDKit          3D

 26 28  0  0  0  0  0  0  0  0999 V2000
    7.0370   -3.3190   19.3360 C   0  0  0  0  0  0  0  0  0  0  0  0
    6.3550   -4.1720   20.3400 C   0  0  0  0  0  0  0  0  0  0  0  0
    5.3290   -4.7620   19.9500 O   0  0  0  0  0  0  0  0  0  0  0  0
    6.8500   -4.3520   21.6460 N   0  0  0  0  0  0  0  0  0  0  0  0
    6.4580   -5.5090   22.3710 C   0  0  0  0  0  0  0  0  0  0  0  0
    5.8060   -5.2290   23.6580 C   0  0  0  0  0  0  0  0  0  0  0  0
    6.3310   -4.0640   24.4220 C   0  0  0  0  0  0  0  0  0  0  0  0
    5.3170   -3.6330   25.4480 C   0  0  0  0  0  0  0  0  0  0  0  0
    4.6840   -2.5920   25.2080 O   0  0  0  0  0  0  0  0  0  0  0  0
    5.0330   -4.3400   26.6740 N   0  0  0  0  0  0  0  0  0  0  0  0
    3.8660   -3.9770   27.4590 C   0  0  0  0  0  0  0  0  0  0  0  0
    3.8570   -4.7420   28.7550 C   0  0  0  0  0  0  0  0  0  0  0  0
    2.6470   -4.8950   29.5370 C   0  0  0  0  0  0  0  0  0  0  0  0
    2.7120   -5.6100   30.6940 C   0  0  0  0  0  0  0  0  0  0  0  0
    3.8760   -6.1900   31.1430 C   0  0  0  0  0  0  0  0  0  0  0  0
    5.0480   -6.0750   30.4430 C   0  0  0  0  0  0  0  0  0  0  0  0
    5.1560   -5.3830   29.2580 C   0  0  0  0  0  0  0  0  0  0  0  0
    6.3230   -5.2970   28.6200 C   0  0  1  0  0  0  0  0  0  0  0  0
    6.7750   -6.4050   28.0380 C   0  0  0  0  0  0  0  0  0  0  0  0
    7.7290   -6.1260   26.9590 C   0  0  0  0  0  0  0  0  0  0  0  0
    9.0890   -6.2750   27.1550 O   0  0  0  0  0  0  0  0  0  0  0  0
    7.2140   -5.7450   25.8880 O   0  0  0  0  0  0  0  0  0  0  0  0
    8.2760   -5.5770   24.9920 C   0  0  0  0  0  0  0  0  0  0  0  0
    6.1300   -4.3600   27.5090 C   0  0  0  0  0  0  0  0  0  0  0  0
    6.8290   -2.9390   23.5870 C   0  0  0  0  0  0  0  0  0  0  0  0
    7.6210   -3.3440   22.3530 C   0  0  0  0  0  0  0  0  0  0  0  0
  1  2  1  0
  2  3  2  0
  2  4  1  0
  4  5  1  0
  5  6  1  0
  6  7  1  0
  7  8  1  0
  8  9  2  0
  8 10  1  0
 10 11  1  0
 11 12  1  0
 12 13  2  0
 13 14  1  0
 14 15  2  0
 15 16  1  0
 12 17  1  0
 16 17  2  0
 17 18  1  0
 18 19  1  6
 19 20  1  0
 20 21  2  0
 20 22  1  0
 22 23  1  0
 10 24  1  0
 18 24  1  0
  7 25  1  0
  4 26  1  0
 25 26  1  0
M  END
