piperidine-amides-10399-covalent
     RDKit          3D

 25 26  0  0  0  0  0  0  0  0999 V2000
    7.0800   -3.3220   19.2530 C   0  0  0  0  0  0  0  0  0  0  0  0
    6.3240   -4.0810   20.2530 C   0  0  0  0  0  0  0  0  0  0  0  0
    5.2330   -4.5730   19.8790 O   0  0  0  0  0  0  0  0  0  0  0  0
    6.8460   -4.2790   21.5300 N   0  0  0  0  0  0  0  0  0  0  0  0
    7.5790   -3.2330   22.1890 C   0  0  0  0  0  0  0  0  0  0  0  0
    6.7600   -2.8220   23.3700 C   0  0  0  0  0  0  0  0  0  0  0  0
    6.4180   -4.0130   24.2320 C   0  0  0  0  0  0  0  0  0  0  0  0
    5.4080   -3.6340   25.2480 C   0  0  0  0  0  0  0  0  0  0  0  0
    4.7010   -2.6260   25.0340 O   0  0  0  0  0  0  0  0  0  0  0  0
    5.1910   -4.3610   26.4430 N   0  0  0  0  0  0  0  0  0  0  0  0
    4.3890   -3.8120   27.5180 C   0  0  0  0  0  0  0  0  0  0  0  0
    5.1760   -2.7740   28.2520 C   0  0  0  0  0  0  0  0  0  0  0  0
    4.8620   -1.9720   29.3360 C   0  0  0  0  0  0  0  0  0  0  0  0
    5.7380   -1.0470   29.8780 C   0  0  0  0  0  0  0  0  0  0  0  0
    6.9940   -0.8970   29.3230 C   0  0  0  0  0  0  0  0  0  0  0  0
    7.8930    0.0180   29.8260 O   0  0  0  0  0  0  0  0  0  0  0  0
    8.0520    0.1830   31.2190 C   0  0  0  0  0  0  0  0  0  0  0  0
    7.3440   -1.6690   28.2560 C   0  0  0  0  0  0  0  0  0  0  0  0
    8.4380   -1.7460   27.5300 N   0  0  0  0  0  0  0  0  0  0  0  0
    8.0300   -1.9300   26.2570 C   0  0  0  0  0  0  0  0  0  0  0  0
    8.9920   -2.4010   25.1710 C   0  0  0  0  0  0  0  0  0  0  0  0
    6.8160   -1.7180   25.7110 O   0  0  0  0  0  0  0  0  0  0  0  0
    6.4260   -2.5330   27.8140 C   0  0  0  0  0  0  0  0  0  0  0  0
    5.8000   -5.1150   23.4020 C   0  0  0  0  0  0  0  0  0  0  0  0
    6.5780   -5.4810   22.3210 C   0  0  0  0  0  0  0  0  0  0  0  0
  1  2  1  0
  2  3  2  0
  2  4  1  0
  4  5  1  0
  5  6  1  0
  6  7  1  0
  7  8  1  0
  8  9  2  0
  8 10  1  0
 10 11  1  0
 11 12  1  0
 12 13  2  0
 13 14  1  0
 14 15  2  0
 15 16  1  0
 16 17  1  0
 15 18  1  0
 18 19  1  0
 19 20  1  0
 20 21  1  0
 20 22  2  0
 12 23  1  0
 18 23  2  0
  7 24  1  0
  4 25  1  0
 24 25  1  0
M  END
