piperidine-amides-23426-covalent
     RDKit          3D

 24 26  0  0  0  0  0  0  0  0999 V2000
    7.0590   -3.3680   19.4190 C   0  0  0  0  0  0  0  0  0  0  0  0
    6.4380   -4.2470   20.4240 C   0  0  0  0  0  0  0  0  0  0  0  0
    5.4520   -4.9190   20.0150 O   0  0  0  0  0  0  0  0  0  0  0  0
    6.9520   -4.3670   21.7600 N   0  0  0  0  0  0  0  0  0  0  0  0
    6.6160   -5.5240   22.5210 C   0  0  0  0  0  0  0  0  0  0  0  0
    5.9110   -5.1580   23.7410 C   0  0  0  0  0  0  0  0  0  0  0  0
    5.7390   -3.6990   23.7820 C   0  0  0  0  0  0  0  0  0  0  0  0
    4.7210   -3.1990   24.8070 C   0  0  0  0  0  0  0  0  0  0  0  0
    3.5440   -3.1660   24.4330 O   0  0  0  0  0  0  0  0  0  0  0  0
    4.9190   -2.7690   26.1430 N   0  0  0  0  0  0  0  0  0  0  0  0
    4.0110   -2.9240   27.2250 C   0  0  0  0  0  0  0  0  0  0  0  0
    4.0760   -4.1240   28.0850 C   0  0  0  0  0  0  0  0  0  0  0  0
    5.1250   -5.0460   27.4630 C   0  0  0  0  0  0  0  0  0  0  0  0
    6.2660   -4.3640   27.3950 C   0  0  0  0  0  0  0  0  0  0  0  0
    6.1510   -3.0680   26.6690 C   0  0  0  0  0  0  0  0  0  0  0  0
    7.3340   -2.1840   26.5730 C   0  0  0  0  0  0  0  0  0  0  0  0
    8.4380   -2.8940   27.2890 C   0  0  0  0  0  0  0  0  0  0  0  0
    8.4130   -4.2180   27.9520 C   0  0  0  0  0  0  0  0  0  0  0  0
    9.5490   -4.7520   28.5650 C   0  0  0  0  0  0  0  0  0  0  0  0
    7.2820   -5.0370   28.0460 C   0  0  0  0  0  0  0  0  0  0  0  0
    7.0970   -6.3400   28.6850 C   0  0  0  0  0  0  0  0  0  0  0  0
    6.6710   -6.3950   29.8680 O   0  0  0  0  0  0  0  0  0  0  0  0
    7.0430   -2.9770   23.6380 C   0  0  0  0  0  0  0  0  0  0  0  0
    7.6550   -3.2560   22.3980 C   0  0  0  0  0  0  0  0  0  0  0  0
  1  2  1  0
  2  3  2  0
  2  4  1  0
  4  5  1  0
  5  6  1  0
  6  7  1  0
  7  8  1  0
  8  9  2  0
  8 10  1  0
 10 11  1  0
 11 12  1  0
 12 13  1  0
 13 14  1  0
 10 15  1  0
 14 15  2  0
 15 16  1  0
 16 17  2  0
 17 18  1  0
 18 19  1  0
 14 20  1  0
 18 20  2  0
 20 21  1  0
 21 22  1  0
  7 23  1  0
  4 24  1  0
 23 24  1  0
M  END
