piperidine-amides-27364-covalent
     RDKit          3D

 25 27  0  0  0  0  0  0  0  0999 V2000
    7.0840   -3.3310   19.3120 C   0  0  0  0  0  0  0  0  0  0  0  0
    6.3810   -4.1500   20.3060 C   0  0  0  0  0  0  0  0  0  0  0  0
    5.3090   -4.6910   19.9320 O   0  0  0  0  0  0  0  0  0  0  0  0
    6.9190   -4.3510   21.5750 N   0  0  0  0  0  0  0  0  0  0  0  0
    6.5420   -5.5010   22.3540 C   0  0  0  0  0  0  0  0  0  0  0  0
    5.8610   -4.9940   23.5950 C   0  0  0  0  0  0  0  0  0  0  0  0
    6.6230   -3.8470   24.2110 C   0  0  0  0  0  0  0  0  0  0  0  0
    5.8420   -3.2120   25.2980 C   0  0  0  0  0  0  0  0  0  0  0  0
    4.6400   -2.9260   25.1070 O   0  0  0  0  0  0  0  0  0  0  0  0
    6.4390   -2.9370   26.5360 N   0  0  0  0  0  0  0  0  0  0  0  0
    5.6970   -3.0460   27.7730 C   0  0  0  0  0  0  0  0  0  0  0  0
    6.0770   -4.4100   28.2040 C   0  0  0  0  0  0  0  0  0  0  0  0
    5.7220   -5.1150   29.3140 C   0  0  0  0  0  0  0  0  0  0  0  0
    5.3610   -6.2010   28.5910 C   0  0  0  0  0  0  0  0  0  0  0  0
    5.8340   -5.5750   27.4480 C   0  0  0  0  0  0  0  0  0  0  0  0
    7.1820   -4.8070   27.4550 C   0  0  2  0  0  0  0  0  0  0  0  0
    6.7760   -5.2980   26.2060 F   0  0  0  0  0  0  0  0  0  0  0  0
    7.9550   -5.5380   28.2840 C   0  0  0  0  0  0  0  0  0  0  0  0
    7.4900   -6.6810   28.8970 O   0  0  0  0  0  0  0  0  0  0  0  0
    9.1860   -5.0210   28.4240 O   0  0  0  0  0  0  0  0  0  0  0  0
    9.6990   -4.7460   27.1850 C   0  0  0  0  0  0  0  0  0  0  0  0
    9.4430   -5.8710   26.2100 C   0  0  0  0  0  0  0  0  0  0  0  0
    7.5990   -3.5070   27.1910 C   0  0  0  0  0  0  0  0  0  0  0  0
    6.9470   -2.7740   23.2120 C   0  0  0  0  0  0  0  0  0  0  0  0
    7.7410   -3.3430   22.2490 C   0  0  0  0  0  0  0  0  0  0  0  0
  1  2  1  0
  2  3  2  0
  2  4  1  0
  4  5  1  0
  5  6  1  0
  6  7  1  0
  7  8  1  0
  8  9  2  0
  8 10  1  0
 10 11  1  0
 12 11  1  0
 12 13  1  0
 13 14  1  0
 12 15  1  0
 14 15  1  0
 12 16  1  0
 16 17  1  6
 16 18  1  0
 18 19  2  0
 18 20  1  0
 20 21  1  0
 21 22  1  0
 10 23  1  0
 16 23  1  0
  7 24  1  0
  4 25  1  0
 24 25  1  0
M  END
