piperidine-amides-17029-covalent
     RDKit          3D

 20 21  0  0  0  0  0  0  0  0999 V2000
    7.1190   -3.3660   19.2790 C   0  0  0  0  0  0  0  0  0  0  0  0
    6.4070   -4.1590   20.2870 C   0  0  0  0  0  0  0  0  0  0  0  0
    5.3200   -4.6750   19.9360 O   0  0  0  0  0  0  0  0  0  0  0  0
    6.9750   -4.3810   21.5630 N   0  0  0  0  0  0  0  0  0  0  0  0
    6.5100   -5.4750   22.3330 C   0  0  0  0  0  0  0  0  0  0  0  0
    6.0450   -5.1090   23.6690 C   0  0  0  0  0  0  0  0  0  0  0  0
    6.7160   -3.9550   24.3180 C   0  0  0  0  0  0  0  0  0  0  0  0
    5.9190   -3.5030   25.5000 C   0  0  0  0  0  0  0  0  0  0  0  0
    4.8740   -2.8550   25.3060 O   0  0  0  0  0  0  0  0  0  0  0  0
    6.2990   -3.7850   26.8250 N   0  0  0  0  0  0  0  0  0  0  0  0
    7.0310   -4.8790   27.2880 C   0  0  0  0  0  0  0  0  0  0  0  0
    6.3080   -5.9820   27.8010 C   0  0  0  0  0  0  0  0  0  0  0  0
    5.0340   -5.8910   28.2350 N   0  0  0  0  0  0  0  0  0  0  0  0
    4.4400   -6.7790   29.1980 C   0  0  0  0  0  0  0  0  0  0  0  0
    5.3550   -4.6290   28.8760 C   0  0  0  0  0  0  0  0  0  0  0  0
    5.2910   -3.4940   27.8280 C   0  0  1  0  0  0  0  0  0  0  0  0
    5.8930   -2.5060   28.7740 C   0  0  0  0  0  0  0  0  0  0  0  0
    4.4590   -2.2500   29.2620 C   0  0  0  0  0  0  0  0  0  0  0  0
    6.9530   -2.7870   23.3890 C   0  0  0  0  0  0  0  0  0  0  0  0
    7.7290   -3.3370   22.2230 C   0  0  0  0  0  0  0  0  0  0  0  0
  1  2  1  0
  2  3  2  0
  2  4  1  0
  4  5  1  0
  5  6  1  0
  6  7  1  0
  7  8  1  0
  8  9  2  0
  8 10  1  0
 10 11  1  0
 11 12  1  0
 12 13  1  0
 13 14  1  0
 13 15  1  0
 10 16  1  0
 15 16  1  0
 16 17  1  1
 17 18  1  0
  7 19  1  0
  4 20  1  0
 19 20  1  0
M  END
