piperidine-amides-14708-covalent
     RDKit          3D

 22 23  0  0  0  0  0  0  0  0999 V2000
    7.0720   -3.2650   19.2430 C   0  0  0  0  0  0  0  0  0  0  0  0
    6.3390   -4.0310   20.2510 C   0  0  0  0  0  0  0  0  0  0  0  0
    5.2910   -4.5970   19.9010 O   0  0  0  0  0  0  0  0  0  0  0  0
    6.8420   -4.1530   21.5710 N   0  0  0  0  0  0  0  0  0  0  0  0
    6.4880   -5.3000   22.3520 C   0  0  0  0  0  0  0  0  0  0  0  0
    5.4930   -4.8840   23.3920 C   0  0  0  0  0  0  0  0  0  0  0  0
    5.7070   -3.3980   23.6410 C   0  0  0  0  0  0  0  0  0  0  0  0
    5.2090   -3.0360   25.0190 C   0  0  0  0  0  0  0  0  0  0  0  0
    4.0090   -3.2020   25.2080 O   0  0  0  0  0  0  0  0  0  0  0  0
    6.0810   -2.5460   25.9910 N   0  0  0  0  0  0  0  0  0  0  0  0
    6.4090   -3.3300   27.1270 C   0  0  0  0  0  0  0  0  0  0  0  0
    7.5010   -4.1110   26.8580 C   0  0  1  0  0  0  0  0  0  0  0  0
    8.0970   -4.7870   27.8670 C   0  0  0  0  0  0  0  0  0  0  0  0
    9.3840   -5.2600   27.7130 C   0  0  0  0  0  0  0  0  0  0  0  0
    9.7050   -5.2120   26.2310 C   0  0  2  0  0  0  0  0  0  0  0  0
   10.6860   -4.0650   25.8770 C   0  0  0  0  0  0  0  0  0  0  0  0
   10.3710   -2.8340   25.2730 N   0  0  0  0  0  0  0  0  0  0  0  0
   11.8700   -4.3350   26.1880 O   0  0  0  0  0  0  0  0  0  0  0  0
    8.6220   -5.3460   25.4060 C   0  0  0  0  0  0  0  0  0  0  0  0
    7.2720   -4.9620   25.8260 C   0  0  0  0  0  0  0  0  0  0  0  0
    7.0700   -2.8650   23.4600 C   0  0  0  0  0  0  0  0  0  0  0  0
    7.6160   -3.1100   22.2160 C   0  0  0  0  0  0  0  0  0  0  0  0
  1  2  1  0
  2  3  2  0
  2  4  1  0
  4  5  1  0
  5  6  1  0
  6  7  1  0
  7  8  1  0
  8  9  2  0
  8 10  1  0
 10 11  1  0
 12 11  1  1
 12 13  1  0
 13 14  1  0
 14 15  1  0
 15 16  1  1
 16 17  1  0
 16 18  2  0
 15 19  1  0
 12 20  1  0
 19 20  1  0
  7 21  1  0
  4 22  1  0
 21 22  1  0
M  END
