piperidine-amides-10809-covalent
     RDKit          3D

 22 23  0  0  0  0  0  0  0  0999 V2000
    7.1080   -3.3030   19.2870 C   0  0  0  0  0  0  0  0  0  0  0  0
    6.3380   -4.0200   20.3060 C   0  0  0  0  0  0  0  0  0  0  0  0
    5.3460   -4.6790   19.9430 O   0  0  0  0  0  0  0  0  0  0  0  0
    6.7300   -4.0070   21.6640 N   0  0  0  0  0  0  0  0  0  0  0  0
    7.7250   -3.0750   22.1450 C   0  0  0  0  0  0  0  0  0  0  0  0
    7.4890   -3.0380   23.6160 C   0  0  0  0  0  0  0  0  0  0  0  0
    6.1270   -3.5880   23.8890 C   0  0  0  0  0  0  0  0  0  0  0  0
    5.6230   -3.2930   25.2580 C   0  0  0  0  0  0  0  0  0  0  0  0
    4.4050   -2.9970   25.4310 O   0  0  0  0  0  0  0  0  0  0  0  0
    6.4290   -3.3090   26.4160 N   0  0  0  0  0  0  0  0  0  0  0  0
    6.0960   -4.1830   27.5730 C   0  0  0  0  0  0  0  0  0  0  0  0
    5.9310   -5.5860   27.0940 C   0  0  0  0  0  0  0  0  0  0  0  0
    4.7540   -6.3450   27.5340 C   0  0  0  0  0  0  0  0  0  0  0  0
    4.8490   -7.0150   28.8780 C   0  0  0  0  0  0  0  0  0  0  0  0
    6.0940   -6.9340   29.7350 C   0  0  0  0  0  0  0  0  0  0  0  0
    3.6180   -7.8040   29.3690 C   0  0  0  0  0  0  0  0  0  0  0  0
    2.5360   -7.8260   28.5220 C   0  0  0  0  0  0  0  0  0  0  0  0
    2.4730   -7.2070   27.2760 C   0  0  0  0  0  0  0  0  0  0  0  0
    3.6390   -6.4230   26.7460 C   0  0  0  0  0  0  0  0  0  0  0  0
    3.5320   -5.7560   25.3710 C   0  0  0  0  0  0  0  0  0  0  0  0
    6.1140   -5.0910   23.5230 C   0  0  0  0  0  0  0  0  0  0  0  0
    6.5480   -5.2740   22.3910 C   0  0  0  0  0  0  0  0  0  0  0  0
  1  2  1  0
  2  3  2  0
  2  4  1  0
  4  5  1  0
  5  6  1  0
  6  7  1  0
  7  8  1  0
  8  9  2  0
  8 10  1  0
 10 11  1  0
 11 12  1  0
 12 13  1  0
 13 14  2  0
 14 15  1  0
 14 16  1  0
 16 17  2  0
 17 18  1  0
 13 19  1  0
 18 19  2  0
 19 20  1  0
  7 21  1  0
  4 22  1  0
 21 22  1  0
M  END
