piperidine-amides-547-covalent
     RDKit          3D

 26 28  0  0  0  0  0  0  0  0999 V2000
    7.0910   -3.4090   19.3170 C   0  0  0  0  0  0  0  0  0  0  0  0
    6.3840   -4.1400   20.3380 C   0  0  0  0  0  0  0  0  0  0  0  0
    5.3410   -4.7650   19.9750 O   0  0  0  0  0  0  0  0  0  0  0  0
    6.8380   -4.2390   21.6720 N   0  0  0  0  0  0  0  0  0  0  0  0
    7.6930   -3.1670   22.2280 C   0  0  0  0  0  0  0  0  0  0  0  0
    6.7060   -2.6100   23.3170 C   0  0  0  0  0  0  0  0  0  0  0  0
    6.4040   -3.7930   24.2020 C   0  0  0  0  0  0  0  0  0  0  0  0
    5.5140   -3.3930   25.4650 C   0  0  0  0  0  0  0  0  0  0  0  0
    4.4820   -4.0440   25.4730 O   0  0  0  0  0  0  0  0  0  0  0  0
    6.0860   -2.4870   26.1540 N   0  0  0  0  0  0  0  0  0  0  0  0
    6.6380   -1.5030   26.9130 C   0  0  2  0  0  0  0  0  0  0  0  0
    7.1460   -1.4560   28.2210 C   0  0  0  0  0  0  0  0  0  0  0  0
    6.4910   -0.7260   29.2350 C   0  0  0  0  0  0  0  0  0  0  0  0
    6.1090    0.6130   28.8290 C   0  0  0  0  0  0  0  0  0  0  0  0
    5.6250    0.6680   27.5470 N   0  0  0  0  0  0  0  0  0  0  0  0
    4.6120    1.6730   27.1940 C   0  0  0  0  0  0  0  0  0  0  0  0
    4.5690    2.6240   26.1510 O   0  0  0  0  0  0  0  0  0  0  0  0
    3.5050    1.6800   28.0560 C   0  0  0  0  0  0  0  0  0  0  0  0
    3.6610    2.3140   29.3050 C   0  0  0  0  0  0  0  0  0  0  0  0
    2.1830    1.8960   29.5340 C   0  0  0  0  0  0  0  0  0  0  0  0
    1.5600    2.3100   30.9060 C   0  0  0  0  0  0  0  0  0  0  0  0
    1.4760    1.1810   28.5300 N   0  0  0  0  0  0  0  0  0  0  0  0
    2.3410    1.0580   27.6020 O   0  0  0  0  0  0  0  0  0  0  0  0
    5.9030   -0.1950   26.4510 C   0  0  0  0  0  0  0  0  0  0  0  0
    5.8100   -5.0290   23.5110 C   0  0  0  0  0  0  0  0  0  0  0  0
    6.5910   -5.4080   22.4670 C   0  0  0  0  0  0  0  0  0  0  0  0
  1  2  1  0
  2  3  2  0
  2  4  1  0
  4  5  1  0
  5  6  1  0
  6  7  1  0
  7  8  1  0
  8  9  2  0
  8 10  1  0
 11 10  1  1
 11 12  1  0
 12 13  1  0
 13 14  1  0
 14 15  1  0
 15 16  1  0
 16 17  2  0
 16 18  1  0
 18 19  2  0
 19 20  1  0
 20 21  1  0
 20 22  2  0
 18 23  1  0
 22 23  1  0
 11 24  1  0
 15 24  1  0
  7 25  1  0
  4 26  1  0
 25 26  1  0
M  END
