piperidine-amides-10466-covalent
     RDKit          3D

 24 26  0  0  0  0  0  0  0  0999 V2000
    7.0020   -3.3550   19.3550 C   0  0  0  0  0  0  0  0  0  0  0  0
    6.3540   -4.2540   20.3170 C   0  0  0  0  0  0  0  0  0  0  0  0
    5.2900   -4.8000   19.9490 O   0  0  0  0  0  0  0  0  0  0  0  0
    6.9380   -4.5190   21.5510 N   0  0  0  0  0  0  0  0  0  0  0  0
    7.8080   -3.5700   22.1760 C   0  0  0  0  0  0  0  0  0  0  0  0
    7.1130   -3.0960   23.3940 C   0  0  0  0  0  0  0  0  0  0  0  0
    6.6820   -4.2310   24.2510 C   0  0  0  0  0  0  0  0  0  0  0  0
    6.1280   -3.6350   25.4690 C   0  0  0  0  0  0  0  0  0  0  0  0
    4.8920   -3.7020   25.6750 O   0  0  0  0  0  0  0  0  0  0  0  0
    6.9510   -2.9620   26.3870 N   0  0  0  0  0  0  0  0  0  0  0  0
    6.5680   -1.6190   26.7330 C   0  0  0  0  0  0  0  0  0  0  0  0
    7.0190   -1.5670   28.0060 C   0  0  0  0  0  0  0  0  0  0  0  0
    8.0360   -2.0630   26.8930 N   0  0  0  0  0  0  0  0  0  0  0  0
    7.7770   -1.5050   25.5390 N   0  0  0  0  0  0  0  0  0  0  0  0
    8.8760   -1.6500   24.7050 C   0  0  0  0  0  0  0  0  0  0  0  0
    8.6480   -1.5740   23.3310 C   0  0  0  0  0  0  0  0  0  0  0  0
    9.6880   -1.6860   22.3810 C   0  0  0  0  0  0  0  0  0  0  0  0
   11.0320   -1.8760   22.6850 C   0  0  0  0  0  0  0  0  0  0  0  0
   12.3580   -2.0130   21.5500 Cl  0  0  0  0  0  0  0  0  0  0  0  0
   11.2840   -1.9510   24.0060 C   0  0  0  0  0  0  0  0  0  0  0  0
   10.1950   -1.8340   25.0130 C   0  0  0  0  0  0  0  0  0  0  0  0
    6.5850   -0.8420   25.6190 C   0  0  0  0  0  0  0  0  0  0  0  0
    5.7070   -5.1450   23.4980 C   0  0  0  0  0  0  0  0  0  0  0  0
    6.5240   -5.6830   22.3270 C   0  0  0  0  0  0  0  0  0  0  0  0
  1  2  1  0
  2  3  2  0
  2  4  1  0
  4  5  1  0
  5  6  1  0
  6  7  1  0
  7  8  1  0
  8  9  2  0
  8 10  1  0
 10 11  1  0
 11 12  1  0
 12 13  2  0
 13 14  1  0
 14 15  1  0
 15 16  2  0
 16 17  1  0
 17 18  2  0
 18 19  1  0
 18 20  1  0
 15 21  1  0
 20 21  2  0
 11 22  2  0
 14 22  1  0
  7 23  1  0
  4 24  1  0
 23 24  1  0
M  END
