piperidine-amides-31315-covalent
     RDKit          3D

 28 31  0  0  0  0  0  0  0  0999 V2000
    6.9850   -3.4150   19.3360 C   0  0  0  0  0  0  0  0  0  0  0  0
    6.3150   -4.2100   20.3460 C   0  0  0  0  0  0  0  0  0  0  0  0
    5.3190   -4.8960   19.9790 O   0  0  0  0  0  0  0  0  0  0  0  0
    6.7360   -4.2940   21.6860 N   0  0  0  0  0  0  0  0  0  0  0  0
    6.6620   -5.6340   22.3330 C   0  0  0  0  0  0  0  0  0  0  0  0
    5.8170   -5.3600   23.6510 C   0  0  0  0  0  0  0  0  0  0  0  0
    5.9990   -3.8990   23.9620 C   0  0  0  0  0  0  0  0  0  0  0  0
    5.3470   -3.4070   25.3370 C   0  0  0  0  0  0  0  0  0  0  0  0
    4.4070   -2.6670   25.0970 O   0  0  0  0  0  0  0  0  0  0  0  0
    5.9570   -3.8950   26.3480 N   0  0  0  0  0  0  0  0  0  0  0  0
    6.8380   -4.4820   27.1480 C   0  0  0  0  0  0  0  0  0  0  0  0
    6.6930   -5.3180   28.1580 C   0  0  0  0  0  0  0  0  0  0  0  0
    5.5290   -4.7120   28.6100 C   0  0  0  0  0  0  0  0  0  0  0  0
    5.2530   -3.5650   27.6630 C   0  0  2  0  0  0  0  0  0  0  0  0
    3.7470   -3.8850   27.5580 C   0  0  0  0  0  0  0  0  0  0  0  0
    3.1520   -5.1550   27.9580 N   0  0  0  0  0  0  0  0  0  0  0  0
    1.8150   -4.8670   27.6430 C   0  0  0  0  0  0  0  0  0  0  0  0
    0.7770   -5.7880   27.8380 C   0  0  0  0  0  0  0  0  0  0  0  0
    1.0390   -5.6700   29.3110 C   0  0  0  0  0  0  0  0  0  0  0  0
    0.0870   -6.5620   30.1360 C   0  0  0  0  0  0  0  0  0  0  0  0
   -0.8600   -7.3380   29.4900 C   0  0  0  0  0  0  0  0  0  0  0  0
   -1.6720   -8.1030   30.2750 F   0  0  0  0  0  0  0  0  0  0  0  0
   -0.9440   -7.3090   28.0900 C   0  0  0  0  0  0  0  0  0  0  0  0
   -0.1550   -6.5580   27.2430 C   0  0  0  0  0  0  0  0  0  0  0  0
    1.6310   -3.6230   27.1350 C   0  0  0  0  0  0  0  0  0  0  0  0
    2.8470   -2.9900   27.0760 N   0  0  0  0  0  0  0  0  0  0  0  0
    7.3190   -3.3230   23.6900 C   0  0  0  0  0  0  0  0  0  0  0  0
    7.5720   -3.2540   22.2310 C   0  0  0  0  0  0  0  0  0  0  0  0
  1  2  1  0
  2  3  2  0
  2  4  1  0
  4  5  1  0
  5  6  1  0
  6  7  1  0
  7  8  1  0
  8  9  2  0
  8 10  1  0
 10 11  1  0
 11 12  1  0
 12 13  1  0
 10 14  1  0
 13 14  1  0
 14 15  1  6
 15 16  2  0
 16 17  1  0
 17 18  1  0
 18 19  2  0
 19 20  1  0
 20 21  2  0
 21 22  1  0
 21 23  1  0
 18 24  1  0
 23 24  2  0
 17 25  2  0
 15 26  1  0
 25 26  1  0
  7 27  1  0
  4 28  1  0
 27 28  1  0
M  END
