piperidine-amides-12301-covalent
     RDKit          3D

 24 26  0  0  0  0  0  0  0  0999 V2000
    7.1240   -3.3390   19.3290 C   0  0  0  0  0  0  0  0  0  0  0  0
    6.3650   -4.1330   20.2830 C   0  0  0  0  0  0  0  0  0  0  0  0
    5.3230   -4.6880   19.9390 O   0  0  0  0  0  0  0  0  0  0  0  0
    6.8780   -4.3130   21.6090 N   0  0  0  0  0  0  0  0  0  0  0  0
    7.6970   -3.2890   22.2030 C   0  0  0  0  0  0  0  0  0  0  0  0
    7.0120   -2.7240   23.4060 C   0  0  0  0  0  0  0  0  0  0  0  0
    6.4530   -3.8830   24.2090 C   0  0  0  0  0  0  0  0  0  0  0  0
    5.6600   -3.3620   25.3560 C   0  0  0  0  0  0  0  0  0  0  0  0
    4.4300   -3.1760   25.2800 O   0  0  0  0  0  0  0  0  0  0  0  0
    6.3190   -3.0740   26.5740 N   0  0  0  0  0  0  0  0  0  0  0  0
    6.6720   -1.7040   26.9010 C   0  0  2  0  0  0  0  0  0  0  0  0
    6.7270   -1.6880   28.4080 C   0  0  0  0  0  0  0  0  0  0  0  0
    6.6930   -0.4570   28.9680 C   0  0  0  0  0  0  0  0  0  0  0  0
    7.4810   -0.1940   30.1590 C   0  0  0  0  0  0  0  0  0  0  0  0
    7.3110    1.0570   30.5320 C   0  0  0  0  0  0  0  0  0  0  0  0
    6.4440    1.4610   29.5510 C   0  0  0  0  0  0  0  0  0  0  0  0
    5.6280    1.9090   28.6600 C   0  0  0  0  0  0  0  0  0  0  0  0
    5.8480    0.5390   28.3100 C   0  0  0  0  0  0  0  0  0  0  0  0
    5.1460    0.0710   27.1710 N   0  0  0  0  0  0  0  0  0  0  0  0
    4.2820    0.8810   26.5120 C   0  0  0  0  0  0  0  0  0  0  0  0
    5.9400   -0.6390   26.3310 C   0  0  0  0  0  0  0  0  0  0  0  0
    6.1000   -0.4590   25.1190 O   0  0  0  0  0  0  0  0  0  0  0  0
    5.6380   -4.8730   23.3930 C   0  0  0  0  0  0  0  0  0  0  0  0
    6.4580   -5.4200   22.4130 C   0  0  0  0  0  0  0  0  0  0  0  0
  1  2  1  0
  2  3  2  0
  2  4  1  0
  4  5  1  0
  5  6  1  0
  6  7  1  0
  7  8  1  0
  8  9  2  0
  8 10  1  0
 11 10  1  1
 11 12  1  0
 12 13  1  0
 13 14  2  0
 14 15  1  0
 15 16  2  0
 16 17  1  0
 13 18  1  0
 17 18  2  0
 18 19  1  0
 19 20  1  0
 11 21  1  0
 19 21  1  0
 21 22  2  0
  7 23  1  0
  4 24  1  0
 23 24  1  0
M  END
