piperidine-amides-6991-covalent
     RDKit          3D

 22 24  0  0  0  0  0  0  0  0999 V2000
    7.1360   -3.2530   19.2050 C   0  0  0  0  0  0  0  0  0  0  0  0
    6.3630   -4.0680   20.1550 C   0  0  0  0  0  0  0  0  0  0  0  0
    5.2330   -4.5000   19.8560 O   0  0  0  0  0  0  0  0  0  0  0  0
    6.9190   -4.4250   21.3820 N   0  0  0  0  0  0  0  0  0  0  0  0
    6.4850   -5.6690   21.9710 C   0  0  0  0  0  0  0  0  0  0  0  0
    6.1580   -5.3990   23.4380 C   0  0  0  0  0  0  0  0  0  0  0  0
    5.5050   -4.0360   23.5330 C   0  0  0  0  0  0  0  0  0  0  0  0
    5.2580   -3.7910   24.9520 C   0  0  0  0  0  0  0  0  0  0  0  0
    4.3580   -2.9890   25.3050 O   0  0  0  0  0  0  0  0  0  0  0  0
    6.0600   -4.4830   25.8720 N   0  0  0  0  0  0  0  0  0  0  0  0
    6.9760   -3.6940   26.5820 C   0  0  0  0  0  0  0  0  0  0  0  0
    7.7560   -2.8950   25.5690 C   0  0  0  0  0  0  0  0  0  0  0  0
    7.2480   -1.7890   24.7570 N   0  0  0  0  0  0  0  0  0  0  0  0
    8.3420   -1.3750   23.9590 O   0  0  0  0  0  0  0  0  0  0  0  0
    9.3940   -2.1890   24.3150 C   0  0  0  0  0  0  0  0  0  0  0  0
    9.1710   -3.0890   25.2240 C   0  0  0  0  0  0  0  0  0  0  0  0
   10.1310   -3.9300   25.6460 C   0  0  0  0  0  0  0  0  0  0  0  0
   11.3160   -3.4940   25.0690 C   0  0  0  0  0  0  0  0  0  0  0  0
   11.6530   -2.0090   25.0230 C   0  0  0  0  0  0  0  0  0  0  0  0
   10.6790   -2.2130   23.8720 C   0  0  0  0  0  0  0  0  0  0  0  0
    6.3000   -2.9200   22.9920 C   0  0  0  0  0  0  0  0  0  0  0  0
    7.4280   -3.4080   22.2200 C   0  0  0  0  0  0  0  0  0  0  0  0
  1  2  1  0
  2  3  2  0
  2  4  1  0
  4  5  1  0
  5  6  1  0
  6  7  1  0
  7  8  1  0
  8  9  2  0
  8 10  1  0
 10 11  1  0
 11 12  1  0
 12 13  2  0
 13 14  1  0
 14 15  1  0
 12 16  1  0
 15 16  2  0
 16 17  1  0
 17 18  1  0
 18 19  1  0
 15 20  1  0
 19 20  1  0
  7 21  1  0
  4 22  1  0
 21 22  1  0
M  END
