piperidine-amides-19048-covalent
     RDKit          3D

 22 24  0  0  0  0  0  0  0  0999 V2000
    6.9710   -3.4230   19.4160 C   0  0  0  0  0  0  0  0  0  0  0  0
    6.3420   -4.2330   20.4460 C   0  0  0  0  0  0  0  0  0  0  0  0
    5.4320   -5.0190   20.0280 O   0  0  0  0  0  0  0  0  0  0  0  0
    6.6940   -4.2290   21.8330 N   0  0  0  0  0  0  0  0  0  0  0  0
    6.6820   -5.5590   22.5110 C   0  0  0  0  0  0  0  0  0  0  0  0
    6.0300   -5.2560   23.9310 C   0  0  0  0  0  0  0  0  0  0  0  0
    6.0910   -3.7660   24.1060 C   0  0  0  0  0  0  0  0  0  0  0  0
    5.3460   -3.1580   25.4140 C   0  0  0  0  0  0  0  0  0  0  0  0
    4.5790   -2.2910   25.0400 O   0  0  0  0  0  0  0  0  0  0  0  0
    5.7060   -3.7000   26.5270 N   0  0  0  0  0  0  0  0  0  0  0  0
    6.2940   -4.5470   27.4250 C   0  0  0  0  0  0  0  0  0  0  0  0
    5.9550   -5.3470   28.4150 C   0  0  0  0  0  0  0  0  0  0  0  0
    6.5310   -6.5010   28.8950 C   0  0  0  0  0  0  0  0  0  0  0  0
    5.9300   -7.2770   30.0490 C   0  0  0  0  0  0  0  0  0  0  0  0
    4.5920   -6.5940   30.6090 C   0  0  0  0  0  0  0  0  0  0  0  0
    4.2190   -5.4010   29.9410 C   0  0  0  0  0  0  0  0  0  0  0  0
    5.0000   -4.9760   28.9290 C   0  0  0  0  0  0  0  0  0  0  0  0
    4.2250   -3.7710   28.6100 C   0  0  2  0  0  0  0  0  0  0  0  0
    3.0430   -4.1220   27.6460 C   0  0  0  0  0  0  0  0  0  0  0  0
    5.3120   -3.0240   27.8180 C   0  0  0  0  0  0  0  0  0  0  0  0
    7.4280   -3.1600   23.7160 C   0  0  0  0  0  0  0  0  0  0  0  0
    7.5720   -3.1860   22.3570 C   0  0  0  0  0  0  0  0  0  0  0  0
  1  2  1  0
  2  3  2  0
  2  4  1  0
  4  5  1  0
  5  6  1  0
  6  7  1  0
  7  8  1  0
  8  9  2  0
  8 10  1  0
 10 11  1  0
 11 12  1  0
 12 13  2  0
 13 14  1  0
 14 15  2  0
 15 16  1  0
 12 17  1  0
 16 17  2  0
 17 18  1  0
 18 19  1  6
 10 20  1  0
 18 20  1  0
  7 21  1  0
  4 22  1  0
 21 22  1  0
M  END
