piperidine-amides-8614-covalent
     RDKit          3D

 23 24  0  0  0  0  0  0  0  0999 V2000
    7.1100   -3.2850   19.2680 C   0  0  0  0  0  0  0  0  0  0  0  0
    6.3880   -4.0840   20.2560 C   0  0  0  0  0  0  0  0  0  0  0  0
    5.3120   -4.6040   19.9100 O   0  0  0  0  0  0  0  0  0  0  0  0
    6.9400   -4.3010   21.5470 N   0  0  0  0  0  0  0  0  0  0  0  0
    7.6630   -3.2350   22.1720 C   0  0  0  0  0  0  0  0  0  0  0  0
    6.8340   -2.6940   23.2960 C   0  0  0  0  0  0  0  0  0  0  0  0
    6.5980   -3.8380   24.2620 C   0  0  0  0  0  0  0  0  0  0  0  0
    5.8740   -3.2990   25.4570 C   0  0  0  0  0  0  0  0  0  0  0  0
    4.6620   -3.4940   25.5090 O   0  0  0  0  0  0  0  0  0  0  0  0
    6.6420   -2.6060   26.3890 N   0  0  0  0  0  0  0  0  0  0  0  0
    6.2950   -2.3980   27.7620 C   0  0  0  0  0  0  0  0  0  0  0  0
    5.3800   -3.2720   28.3620 C   0  0  0  0  0  0  0  0  0  0  0  0
    5.6730   -4.5240   28.8120 C   0  0  0  0  0  0  0  0  0  0  0  0
    4.6820   -5.2440   29.3730 C   0  0  0  0  0  0  0  0  0  0  0  0
    5.1860   -6.5830   29.7990 C   0  0  0  0  0  0  0  0  0  0  0  0
    5.0250   -6.7950   31.3260 C   0  0  0  0  0  0  0  0  0  0  0  0
    6.4120   -6.8490   29.2770 C   0  0  0  0  0  0  0  0  0  0  0  0
    4.3340   -7.6680   29.2770 C   0  0  0  0  0  0  0  0  0  0  0  0
    3.4330   -4.7130   29.4780 C   0  0  0  0  0  0  0  0  0  0  0  0
    3.1580   -3.4370   29.0150 C   0  0  0  0  0  0  0  0  0  0  0  0
    4.0470   -2.5680   28.4150 N   0  0  0  0  0  0  0  0  0  0  0  0
    5.7360   -4.8510   23.5620 C   0  0  0  0  0  0  0  0  0  0  0  0
    6.3780   -5.3830   22.3090 C   0  0  0  0  0  0  0  0  0  0  0  0
  1  2  1  0
  2  3  2  0
  2  4  1  0
  4  5  1  0
  5  6  1  0
  6  7  1  0
  7  8  1  0
  8  9  2  0
  8 10  1  0
 10 11  1  0
 11 12  1  0
 12 13  2  0
 13 14  1  0
 14 15  1  0
 15 16  1  0
 15 17  1  0
 15 18  1  0
 14 19  2  0
 19 20  1  0
 12 21  1  0
 20 21  2  0
  7 22  1  0
  4 23  1  0
 22 23  1  0
M  END
