piperidine-amides-3540-covalent
     RDKit          3D

 20 21  0  0  0  0  0  0  0  0999 V2000
    7.0800   -3.3070   19.2190 C   0  0  0  0  0  0  0  0  0  0  0  0
    6.3630   -4.0850   20.2230 C   0  0  0  0  0  0  0  0  0  0  0  0
    5.3170   -4.6520   19.9250 O   0  0  0  0  0  0  0  0  0  0  0  0
    6.9090   -4.2400   21.5470 N   0  0  0  0  0  0  0  0  0  0  0  0
    7.6370   -3.1590   22.1460 C   0  0  0  0  0  0  0  0  0  0  0  0
    6.9130   -2.6880   23.3710 C   0  0  0  0  0  0  0  0  0  0  0  0
    6.5070   -3.8960   24.2050 C   0  0  0  0  0  0  0  0  0  0  0  0
    5.7630   -3.4240   25.4050 C   0  0  0  0  0  0  0  0  0  0  0  0
    4.5250   -3.2620   25.4000 O   0  0  0  0  0  0  0  0  0  0  0  0
    6.4880   -3.1330   26.5850 N   0  0  0  0  0  0  0  0  0  0  0  0
    6.0690   -3.7020   27.8510 C   0  0  0  0  0  0  0  0  0  0  0  0
    6.1610   -5.2090   27.7980 C   0  0  0  0  0  0  0  0  0  0  0  0
    5.2300   -5.9920   28.4310 C   0  0  0  0  0  0  0  0  0  0  0  0
    5.4390   -6.7250   29.6230 C   0  0  0  0  0  0  0  0  0  0  0  0
    4.4750   -7.5050   30.2410 C   0  0  0  0  0  0  0  0  0  0  0  0
    3.1450   -7.6310   29.6890 C   0  0  0  0  0  0  0  0  0  0  0  0
    2.9350   -6.9510   28.5780 N   0  0  0  0  0  0  0  0  0  0  0  0
    3.9410   -6.1510   27.9520 C   0  0  0  0  0  0  0  0  0  0  0  0
    5.5990   -4.7910   23.3630 C   0  0  0  0  0  0  0  0  0  0  0  0
    6.3710   -5.3250   22.3340 C   0  0  0  0  0  0  0  0  0  0  0  0
  1  2  1  0
  2  3  2  0
  2  4  1  0
  4  5  1  0
  5  6  1  0
  6  7  1  0
  7  8  1  0
  8  9  2  0
  8 10  1  0
 10 11  1  0
 11 12  1  0
 12 13  1  0
 13 14  2  0
 14 15  1  0
 15 16  2  0
 16 17  1  0
 13 18  1  0
 17 18  2  0
  7 19  1  0
  4 20  1  0
 19 20  1  0
M  END
