piperidine-amides-10061-covalent
     RDKit          3D

 26 28  0  0  0  0  0  0  0  0999 V2000
    6.8730   -3.3470   19.5060 C   0  0  0  0  0  0  0  0  0  0  0  0
    6.2960   -4.2470   20.5210 C   0  0  0  0  0  0  0  0  0  0  0  0
    5.4440   -5.0480   20.0370 O   0  0  0  0  0  0  0  0  0  0  0  0
    6.6660   -4.2310   21.9130 N   0  0  0  0  0  0  0  0  0  0  0  0
    7.3830   -3.1100   22.5180 C   0  0  0  0  0  0  0  0  0  0  0  0
    7.4500   -3.2310   24.0500 C   0  0  0  0  0  0  0  0  0  0  0  0
    6.2110   -3.8790   24.6590 C   0  0  0  0  0  0  0  0  0  0  0  0
    5.9320   -3.8420   26.2020 C   0  0  0  0  0  0  0  0  0  0  0  0
    4.7050   -3.7710   26.4320 O   0  0  0  0  0  0  0  0  0  0  0  0
    6.7860   -3.8140   27.4360 N   0  0  0  0  0  0  0  0  0  0  0  0
    7.1910   -5.0080   28.3390 C   0  0  0  0  0  0  0  0  0  0  0  0
    8.7520   -5.3210   29.0700 C   0  0  0  0  0  0  0  0  0  0  0  0
   10.7160   -5.8880   29.0000 O   0  0  0  0  0  0  0  0  0  0  0  0
   13.3190   -6.0770   29.5550 C   0  0  0  0  0  0  0  0  0  0  0  0
   14.1650   -7.8580   30.3280 C   0  0  0  0  0  0  0  0  0  0  0  0
   15.0410   -8.0280   31.0560 C   0  0  0  0  0  0  0  0  0  0  0  0
   16.3970   -6.8380   32.1140 C   0  0  0  0  0  0  0  0  0  0  0  0
   17.3980   -6.9530   33.3310 C   0  0  0  0  0  0  0  0  0  0  0  0
   18.2790   -6.0870   34.1670 C   0  0  0  0  0  0  0  0  0  0  0  0
   19.4230   -6.5860   35.6340 Br  0  0  0  0  0  0  0  0  0  0  0  0
   17.9900   -4.8050   33.6250 C   0  0  0  0  0  0  0  0  0  0  0  0
   17.1130   -4.6070   32.4720 C   0  0  0  0  0  0  0  0  0  0  0  0
   16.2680   -5.5170   31.4670 C   0  0  0  0  0  0  0  0  0  0  0  0
   14.8520   -5.1130   29.5480 C   0  0  0  0  0  0  0  0  0  0  0  0
    6.1210   -5.2960   24.0840 C   0  0  0  0  0  0  0  0  0  0  0  0
    6.7530   -5.4680   22.6820 C   0  0  0  0  0  0  0  0  0  0  0  0
  1  2  1  0
  2  3  2  0
  2  4  1  0
  4  5  1  0
  5  6  1  0
  6  7  1  0
  7  8  1  0
  8  9  2  0
  8 10  1  0
 10 11  1  0
 11 12  1  0
 12 13  1  0
 13 14  1  0
 14 15  2  0
 15 16  1  0
 16 17  2  0
 17 18  1  0
 18 19  2  0
 19 20  1  0
 19 21  1  0
 21 22  2  0
 17 23  1  0
 22 23  1  0
 14 24  1  0
 23 24  2  0
  7 25  1  0
  4 26  1  0
 25 26  1  0
M  END
