piperidine-amides-2734-covalent
     RDKit          3D

 25 26  0  0  0  0  0  0  0  0999 V2000
    7.1450   -3.2840   19.2080 C   0  0  0  0  0  0  0  0  0  0  0  0
    6.3350   -3.9790   20.1930 C   0  0  0  0  0  0  0  0  0  0  0  0
    5.2650   -4.4950   19.8690 O   0  0  0  0  0  0  0  0  0  0  0  0
    6.8170   -4.1150   21.5310 N   0  0  0  0  0  0  0  0  0  0  0  0
    6.5650   -5.3290   22.2470 C   0  0  0  0  0  0  0  0  0  0  0  0
    5.7650   -4.9880   23.4590 C   0  0  0  0  0  0  0  0  0  0  0  0
    5.9830   -3.5080   23.7320 C   0  0  0  0  0  0  0  0  0  0  0  0
    5.5840   -3.2290   25.1220 C   0  0  0  0  0  0  0  0  0  0  0  0
    4.8540   -2.2850   25.4770 O   0  0  0  0  0  0  0  0  0  0  0  0
    6.0810   -4.1370   26.0470 N   0  0  0  0  0  0  0  0  0  0  0  0
    5.9030   -3.9590   27.4500 C   0  0  0  0  0  0  0  0  0  0  0  0
    5.8350   -5.3610   27.9840 C   0  0  0  0  0  0  0  0  0  0  0  0
    6.3200   -5.5960   29.2400 C   0  0  0  0  0  0  0  0  0  0  0  0
    5.0920   -6.2810   30.3640 S   0  0  0  0  0  0  0  0  0  0  0  0
    5.8360   -6.7710   31.5730 O   0  0  0  0  0  0  0  0  0  0  0  0
    4.1140   -5.2450   30.7900 O   0  0  0  0  0  0  0  0  0  0  0  0
    4.2460   -7.5880   29.5600 C   0  0  0  0  0  0  0  0  0  0  0  0
    3.2220   -8.0290   30.3780 C   0  0  0  0  0  0  0  0  0  0  0  0
    1.9410   -8.4590   29.8610 C   0  0  0  0  0  0  0  0  0  0  0  0
    0.9260   -8.9030   30.6630 C   0  0  0  0  0  0  0  0  0  0  0  0
    1.0470   -8.9730   32.0330 C   0  0  0  0  0  0  0  0  0  0  0  0
    2.2580   -8.5720   32.6140 C   0  0  0  0  0  0  0  0  0  0  0  0
    3.3610   -8.0910   31.7550 C   0  0  0  0  0  0  0  0  0  0  0  0
    7.4160   -3.0740   23.4860 C   0  0  0  0  0  0  0  0  0  0  0  0
    7.6530   -3.0960   22.1170 C   0  0  0  0  0  0  0  0  0  0  0  0
  1  2  1  0
  2  3  2  0
  2  4  1  0
  4  5  1  0
  5  6  1  0
  6  7  1  0
  7  8  1  0
  8  9  2  0
  8 10  1  0
 10 11  1  0
 11 12  1  0
 12 13  1  0
 14 13  1  0
 14 15  2  0
 14 16  2  0
 14 17  1  0
 17 18  1  0
 18 19  2  0
 19 20  1  0
 20 21  2  0
 21 22  1  0
 18 23  1  0
 22 23  2  0
  7 24  1  0
  4 25  1  0
 24 25  1  0
M  END
