piperidine-amides-12287-covalent
     RDKit          3D

 24 26  0  0  0  0  0  0  0  0999 V2000
    7.1140   -3.2800   19.2750 C   0  0  0  0  0  0  0  0  0  0  0  0
    6.3760   -4.0690   20.2580 C   0  0  0  0  0  0  0  0  0  0  0  0
    5.3370   -4.6440   19.9260 O   0  0  0  0  0  0  0  0  0  0  0  0
    6.8800   -4.2220   21.5960 N   0  0  0  0  0  0  0  0  0  0  0  0
    6.6070   -5.4400   22.3260 C   0  0  0  0  0  0  0  0  0  0  0  0
    6.1320   -5.1340   23.7230 C   0  0  0  0  0  0  0  0  0  0  0  0
    6.0570   -3.6270   23.8800 C   0  0  0  0  0  0  0  0  0  0  0  0
    5.5710   -3.2420   25.2290 C   0  0  0  0  0  0  0  0  0  0  0  0
    4.3600   -3.0990   25.4690 O   0  0  0  0  0  0  0  0  0  0  0  0
    6.4960   -3.0390   26.2730 N   0  0  0  0  0  0  0  0  0  0  0  0
    6.2070   -3.6430   27.5520 C   0  0  0  0  0  0  0  0  0  0  0  0
    5.0340   -2.9010   28.1210 C   0  0  1  0  0  0  0  0  0  0  0  0
    4.8600   -2.9170   29.4470 C   0  0  0  0  0  0  0  0  0  0  0  0
    4.9020   -1.5710   29.4720 C   0  0  1  0  0  0  0  0  0  0  0  0
    5.7870   -0.9100   30.2950 C   0  0  0  0  0  0  0  0  0  0  0  0
    7.2210   -0.8890   30.0670 C   0  0  0  0  0  0  0  0  0  0  0  0
    8.1080   -0.2330   30.8900 C   0  0  0  0  0  0  0  0  0  0  0  0
    7.6550    0.4560   32.0060 C   0  0  0  0  0  0  0  0  0  0  0  0
    8.7810    1.2950   33.0610 Cl  0  0  0  0  0  0  0  0  0  0  0  0
    6.2840    0.4630   32.2620 C   0  0  0  0  0  0  0  0  0  0  0  0
    5.3260   -0.2280   31.3990 C   0  0  0  0  0  0  0  0  0  0  0  0
    5.0760   -1.4800   28.0560 C   0  0  0  0  0  0  0  0  0  0  0  0
    7.3890   -3.0050   23.5960 C   0  0  0  0  0  0  0  0  0  0  0  0
    7.6780   -3.1730   22.1470 C   0  0  0  0  0  0  0  0  0  0  0  0
  1  2  1  0
  2  3  2  0
  2  4  1  0
  4  5  1  0
  5  6  1  0
  6  7  1  0
  7  8  1  0
  8  9  2  0
  8 10  1  0
 10 11  1  0
 12 11  1  1
 12 13  1  0
 13 14  1  0
 14 15  1  1
 15 16  2  0
 16 17  1  0
 17 18  2  0
 18 19  1  0
 18 20  1  0
 15 21  1  0
 20 21  2  0
 12 22  1  0
 14 22  1  0
  7 23  1  0
  4 24  1  0
 23 24  1  0
M  END
