piperidine-amides-26866-covalent
     RDKit          3D

 24 26  0  0  0  0  0  0  0  0999 V2000
    7.0640   -3.3710   19.3890 C   0  0  0  0  0  0  0  0  0  0  0  0
    6.4310   -4.2500   20.3750 C   0  0  0  0  0  0  0  0  0  0  0  0
    5.3950   -4.8580   19.9880 O   0  0  0  0  0  0  0  0  0  0  0  0
    6.9950   -4.4330   21.6470 N   0  0  0  0  0  0  0  0  0  0  0  0
    6.6720   -5.5540   22.4790 C   0  0  0  0  0  0  0  0  0  0  0  0
    5.8700   -5.0550   23.6530 C   0  0  0  0  0  0  0  0  0  0  0  0
    6.3820   -3.7730   24.2910 C   0  0  0  0  0  0  0  0  0  0  0  0
    5.3230   -3.2180   25.1760 C   0  0  0  0  0  0  0  0  0  0  0  0
    4.3570   -2.6760   24.6140 O   0  0  0  0  0  0  0  0  0  0  0  0
    5.2970   -3.2540   26.5880 N   0  0  0  0  0  0  0  0  0  0  0  0
    6.4510   -3.1680   27.3600 C   0  0  0  0  0  0  0  0  0  0  0  0
    6.4430   -4.3330   28.3540 C   0  0  0  0  0  0  0  0  0  0  0  0
    5.1700   -4.2210   29.1310 N   0  0  0  0  0  0  0  0  0  0  0  0
    4.7500   -5.0940   30.0410 C   0  0  0  0  0  0  0  0  0  0  0  0
    3.7300   -4.6690   30.7890 N   0  0  0  0  0  0  0  0  0  0  0  0
    3.2350   -5.4670   31.7510 C   0  0  0  0  0  0  0  0  0  0  0  0
    3.9070   -6.6890   31.8200 C   0  0  0  0  0  0  0  0  0  0  0  0
    4.9670   -7.0360   30.9800 C   0  0  0  0  0  0  0  0  0  0  0  0
    5.4800   -6.2220   29.9890 C   0  0  0  0  0  0  0  0  0  0  0  0
    6.7780   -6.5480   28.9040 Cl  0  0  0  0  0  0  0  0  0  0  0  0
    4.3070   -3.2700   28.8350 C   0  0  0  0  0  0  0  0  0  0  0  0
    4.1790   -2.9230   27.3610 C   0  0  0  0  0  0  0  0  0  0  0  0
    6.8120   -2.7120   23.2580 C   0  0  0  0  0  0  0  0  0  0  0  0
    7.7600   -3.3750   22.2860 C   0  0  0  0  0  0  0  0  0  0  0  0
  1  2  1  0
  2  3  2  0
  2  4  1  0
  4  5  1  0
  5  6  1  0
  6  7  1  0
  7  8  1  0
  8  9  2  0
  8 10  1  0
 10 11  1  0
 11 12  1  0
 12 13  1  0
 13 14  1  0
 14 15  2  0
 15 16  1  0
 16 17  2  0
 17 18  1  0
 14 19  1  0
 18 19  2  0
 19 20  1  0
 13 21  1  0
 10 22  1  0
 21 22  1  0
  7 23  1  0
  4 24  1  0
 23 24  1  0
M  END
