piperidine-amides-30222-covalent
     RDKit          3D

 27 30  0  0  0  0  0  0  0  0999 V2000
    7.0790   -3.3490   19.3710 C   0  0  0  0  0  0  0  0  0  0  0  0
    6.4020   -4.2160   20.3260 C   0  0  0  0  0  0  0  0  0  0  0  0
    5.3920   -4.8350   19.9840 O   0  0  0  0  0  0  0  0  0  0  0  0
    6.9430   -4.3900   21.6430 N   0  0  0  0  0  0  0  0  0  0  0  0
    7.6660   -3.3160   22.2790 C   0  0  0  0  0  0  0  0  0  0  0  0
    6.9150   -2.8210   23.4830 C   0  0  0  0  0  0  0  0  0  0  0  0
    6.5680   -4.0110   24.3730 C   0  0  0  0  0  0  0  0  0  0  0  0
    5.7440   -3.5560   25.5480 C   0  0  0  0  0  0  0  0  0  0  0  0
    4.6210   -3.0570   25.3540 O   0  0  0  0  0  0  0  0  0  0  0  0
    6.1880   -3.6700   26.9130 N   0  0  0  0  0  0  0  0  0  0  0  0
    5.7550   -2.6570   27.8030 C   0  0  0  0  0  0  0  0  0  0  0  0
    5.1130   -3.5530   28.8240 C   0  0  1  0  0  0  0  0  0  0  0  0
    3.9040   -3.1340   29.3590 C   0  0  0  0  0  0  0  0  0  0  0  0
    3.5540   -3.5590   30.6740 N   0  0  0  0  0  0  0  0  0  0  0  0
    2.3080   -2.9380   30.8190 C   0  0  0  0  0  0  0  0  0  0  0  0
    1.4900   -3.0060   31.9300 C   0  0  0  0  0  0  0  0  0  0  0  0
    0.4320   -3.6360   31.7590 O   0  0  0  0  0  0  0  0  0  0  0  0
    0.1940   -4.9940   31.7600 C   0  0  0  0  0  0  0  0  0  0  0  0
    1.8770   -2.2140   29.7860 N   0  0  0  0  0  0  0  0  0  0  0  0
    2.8630   -2.3340   28.8790 N   0  0  0  0  0  0  0  0  0  0  0  0
    5.0990   -4.8700   28.4040 C   0  0  2  0  0  0  0  0  0  0  0  0
    5.0690   -5.8240   29.4010 C   0  0  0  0  0  0  0  0  0  0  0  0
    5.9890   -6.7210   29.6300 C   0  0  0  0  0  0  0  0  0  0  0  0
    4.9310   -7.4320   29.1820 C   0  0  0  0  0  0  0  0  0  0  0  0
    6.1900   -4.9260   27.5740 C   0  0  0  0  0  0  0  0  0  0  0  0
    5.7860   -5.0580   23.6170 C   0  0  0  0  0  0  0  0  0  0  0  0
    6.5190   -5.5090   22.3980 C   0  0  0  0  0  0  0  0  0  0  0  0
  1  2  1  0
  2  3  2  0
  2  4  1  0
  4  5  1  0
  5  6  1  0
  6  7  1  0
  7  8  1  0
  8  9  2  0
  8 10  1  0
 10 11  1  0
 11 12  1  0
 12 13  1  6
 13 14  2  0
 14 15  1  0
 15 16  1  0
 16 17  1  0
 17 18  1  0
 15 19  2  0
 13 20  1  0
 19 20  1  0
 12 21  1  0
 21 22  1  1
 22 23  1  0
 22 24  1  0
 23 24  1  0
 10 25  1  0
 21 25  1  0
  7 26  1  0
  4 27  1  0
 26 27  1  0
M  END
