piperidine-amides-11398-covalent
     RDKit          3D

 22 24  0  0  0  0  0  0  0  0999 V2000
    7.1490   -3.2900   19.2020 C   0  0  0  0  0  0  0  0  0  0  0  0
    6.3380   -3.9920   20.1900 C   0  0  0  0  0  0  0  0  0  0  0  0
    5.2560   -4.4970   19.8600 O   0  0  0  0  0  0  0  0  0  0  0  0
    6.8100   -4.1510   21.4950 N   0  0  0  0  0  0  0  0  0  0  0  0
    7.6920   -3.1980   22.1250 C   0  0  0  0  0  0  0  0  0  0  0  0
    6.9380   -2.7060   23.3190 C   0  0  0  0  0  0  0  0  0  0  0  0
    6.5230   -3.8380   24.2040 C   0  0  0  0  0  0  0  0  0  0  0  0
    5.7380   -3.3560   25.3570 C   0  0  0  0  0  0  0  0  0  0  0  0
    4.4910   -3.5710   25.4170 O   0  0  0  0  0  0  0  0  0  0  0  0
    6.3000   -2.6280   26.4240 N   0  0  0  0  0  0  0  0  0  0  0  0
    5.6700   -1.3470   26.8080 C   0  0  1  0  0  0  0  0  0  0  0  0
    4.6530   -1.5330   27.8070 C   0  0  0  0  0  0  0  0  0  0  0  0
    5.4270   -0.7180   28.6970 C   0  0  1  0  0  0  0  0  0  0  0  0
    5.6900   -1.3770   30.0230 C   0  0  0  0  0  0  0  0  0  0  0  0
    6.3400   -0.4400   30.8790 N   0  0  0  0  0  0  0  0  0  0  0  0
    7.7610   -0.2990   30.9990 C   0  0  0  0  0  0  0  0  0  0  0  0
    7.9750    0.7540   31.9730 C   0  0  0  0  0  0  0  0  0  0  0  0
    6.7210    1.1040   32.3060 N   0  0  0  0  0  0  0  0  0  0  0  0
    5.7250    0.4270   31.6850 N   0  0  0  0  0  0  0  0  0  0  0  0
    6.5300   -0.4900   27.8250 C   0  0  0  0  0  0  0  0  0  0  0  0
    5.7200   -4.8880   23.4740 C   0  0  0  0  0  0  0  0  0  0  0  0
    6.4820   -5.3350   22.2490 C   0  0  0  0  0  0  0  0  0  0  0  0
  1  2  1  0
  2  3  2  0
  2  4  1  0
  4  5  1  0
  5  6  1  0
  6  7  1  0
  7  8  1  0
  8  9  2  0
  8 10  1  0
 11 10  1  1
 11 12  1  0
 12 13  1  0
 13 14  1  1
 14 15  1  0
 15 16  1  0
 16 17  2  0
 17 18  1  0
 15 19  1  0
 18 19  2  0
 11 20  1  0
 13 20  1  0
  7 21  1  0
  4 22  1  0
 21 22  1  0
M  END
