piperidine-amides-14238-covalent
     RDKit          3D

 24 26  0  0  0  0  0  0  0  0999 V2000
    7.0680   -3.3150   19.3150 C   0  0  0  0  0  0  0  0  0  0  0  0
    6.3680   -4.1550   20.3260 C   0  0  0  0  0  0  0  0  0  0  0  0
    5.3740   -4.8140   19.9740 O   0  0  0  0  0  0  0  0  0  0  0  0
    6.8710   -4.2200   21.6450 N   0  0  0  0  0  0  0  0  0  0  0  0
    7.7800   -3.2420   22.2040 C   0  0  0  0  0  0  0  0  0  0  0  0
    7.1660   -2.7000   23.4940 C   0  0  0  0  0  0  0  0  0  0  0  0
    6.9150   -3.8510   24.4140 C   0  0  0  0  0  0  0  0  0  0  0  0
    6.1900   -3.4270   25.6340 C   0  0  0  0  0  0  0  0  0  0  0  0
    5.0260   -3.8430   25.7290 O   0  0  0  0  0  0  0  0  0  0  0  0
    6.7630   -2.5710   26.6030 N   0  0  0  0  0  0  0  0  0  0  0  0
    6.0030   -1.4730   27.0860 C   0  0  2  0  0  0  0  0  0  0  0  0
    5.8490   -0.2230   26.5470 C   0  0  0  0  0  0  0  0  0  0  0  0
    5.1240    0.5310   27.4350 C   0  0  0  0  0  0  0  0  0  0  0  0
    4.9530   -0.2780   28.5250 C   0  0  0  0  0  0  0  0  0  0  0  0
    5.9660   -1.3490   28.5970 C   0  0  2  0  0  0  0  0  0  0  0  0
    7.0420   -0.7610   29.5100 C   0  0  0  0  0  0  0  0  0  0  0  0
    6.4980    0.3940   30.2990 C   0  0  0  0  0  0  0  0  0  0  0  0
    7.2770    1.0840   31.1800 C   0  0  0  0  0  0  0  0  0  0  0  0
    8.7160    0.8310   31.4930 C   0  0  0  0  0  0  0  0  0  0  0  0
    9.7070    1.7270   32.6220 Cl  0  0  0  0  0  0  0  0  0  0  0  0
    9.1250   -0.3730   30.6140 C   0  0  0  0  0  0  0  0  0  0  0  0
    8.4020   -1.1330   29.7030 C   0  0  0  0  0  0  0  0  0  0  0  0
    6.0970   -4.9600   23.8080 C   0  0  0  0  0  0  0  0  0  0  0  0
    6.6100   -5.3960   22.4530 C   0  0  0  0  0  0  0  0  0  0  0  0
  1  2  1  0
  2  3  2  0
  2  4  1  0
  4  5  1  0
  5  6  1  0
  6  7  1  0
  7  8  1  0
  8  9  2  0
  8 10  1  0
 11 10  1  1
 11 12  1  0
 12 13  1  0
 13 14  1  0
 11 15  1  0
 14 15  1  0
 15 16  1  6
 16 17  2  0
 17 18  1  0
 18 19  2  0
 19 20  1  0
 19 21  1  0
 16 22  1  0
 21 22  2  0
  7 23  1  0
  4 24  1  0
 23 24  1  0
M  END
