piperidine-amides-30614-covalent
     RDKit          3D

 26 28  0  0  0  0  0  0  0  0999 V2000
    7.0740   -3.3530   19.4130 C   0  0  0  0  0  0  0  0  0  0  0  0
    6.3430   -4.1760   20.3790 C   0  0  0  0  0  0  0  0  0  0  0  0
    5.3470   -4.7980   19.9720 O   0  0  0  0  0  0  0  0  0  0  0  0
    6.7430   -4.3470   21.7280 N   0  0  0  0  0  0  0  0  0  0  0  0
    6.4900   -5.5670   22.4400 C   0  0  0  0  0  0  0  0  0  0  0  0
    6.4960   -5.2520   23.9250 C   0  0  0  0  0  0  0  0  0  0  0  0
    6.5160   -3.7860   24.3160 C   0  0  0  0  0  0  0  0  0  0  0  0
    5.3160   -3.4060   25.1390 C   0  0  0  0  0  0  0  0  0  0  0  0
    4.1910   -3.3520   24.5770 O   0  0  0  0  0  0  0  0  0  0  0  0
    5.2750   -3.0840   26.5310 N   0  0  0  0  0  0  0  0  0  0  0  0
    4.2740   -3.6470   27.4000 C   0  0  0  0  0  0  0  0  0  0  0  0
    4.8630   -4.3220   28.8310 S   0  0  0  0  0  0  0  0  0  0  0  0
    6.4620   -4.2690   28.2100 C   0  0  0  0  0  0  0  0  0  0  0  0
    6.4760   -3.0630   27.2890 C   0  0  2  0  0  0  0  0  0  0  0  0
    6.6140   -1.7450   28.0240 C   0  0  0  0  0  0  0  0  0  0  0  0
    5.8830   -0.7400   27.4470 O   0  0  0  0  0  0  0  0  0  0  0  0
    7.4040   -1.4760   29.1950 N   0  0  0  0  0  0  0  0  0  0  0  0
    6.5720   -0.6760   30.0890 C   0  0  0  0  0  0  0  0  0  0  0  0
    7.1500   -0.0270   31.3090 C   0  0  0  0  0  0  0  0  0  0  0  0
    6.4590    0.7420   32.2150 C   0  0  0  0  0  0  0  0  0  0  0  0
    5.0950    0.9640   32.0230 C   0  0  0  0  0  0  0  0  0  0  0  0
    4.3640    0.3820   30.8440 C   0  0  0  0  0  0  0  0  0  0  0  0
    3.0340    0.6270   30.7000 F   0  0  0  0  0  0  0  0  0  0  0  0
    5.0900   -0.4790   29.8120 C   0  0  0  0  0  0  0  0  0  0  0  0
    6.6440   -2.9120   23.0520 C   0  0  0  0  0  0  0  0  0  0  0  0
    7.5560   -3.3150   22.3710 C   0  0  0  0  0  0  0  0  0  0  0  0
  1  2  1  0
  2  3  2  0
  2  4  1  0
  4  5  1  0
  5  6  1  0
  6  7  1  0
  7  8  1  0
  8  9  2  0
  8 10  1  0
 10 11  1  0
 11 12  1  0
 12 13  1  0
 10 14  1  0
 13 14  1  0
 14 15  1  1
 15 16  2  0
 15 17  1  0
 17 18  1  0
 18 19  2  0
 19 20  1  0
 20 21  2  0
 21 22  1  0
 22 23  1  0
 18 24  1  0
 22 24  2  0
  7 25  1  0
  4 26  1  0
 25 26  1  0
M  END
