piperidine-amides-25712-covalent
     RDKit          3D

 25 27  0  0  0  0  0  0  0  0999 V2000
    6.9880   -3.3560   19.4110 C   0  0  0  0  0  0  0  0  0  0  0  0
    6.3550   -4.2600   20.4110 C   0  0  0  0  0  0  0  0  0  0  0  0
    5.4240   -4.9550   20.0040 O   0  0  0  0  0  0  0  0  0  0  0  0
    6.8310   -4.3200   21.7310 N   0  0  0  0  0  0  0  0  0  0  0  0
    6.6810   -5.5120   22.5470 C   0  0  0  0  0  0  0  0  0  0  0  0
    6.1530   -5.1770   23.9280 C   0  0  0  0  0  0  0  0  0  0  0  0
    6.1090   -3.6600   24.1140 C   0  0  0  0  0  0  0  0  0  0  0  0
    5.6360   -3.2050   25.4630 C   0  0  0  0  0  0  0  0  0  0  0  0
    5.2610   -2.0370   25.5500 O   0  0  0  0  0  0  0  0  0  0  0  0
    5.5300   -3.9950   26.6420 N   0  0  0  0  0  0  0  0  0  0  0  0
    4.2830   -3.8840   27.3650 C   0  0  0  0  0  0  0  0  0  0  0  0
    4.4060   -4.6370   28.6930 C   0  0  0  0  0  0  0  0  0  0  0  0
    5.2120   -5.8290   28.4190 N   0  0  0  0  0  0  0  0  0  0  0  0
    5.0950   -6.8300   29.4940 C   0  0  0  0  0  0  0  0  0  0  0  0
    4.7620   -6.2300   30.6610 C   0  0  0  0  0  0  0  0  0  0  0  0
    3.6840   -6.7670   31.3070 C   0  0  0  0  0  0  0  0  0  0  0  0
    2.7770   -7.9420   30.8540 C   0  0  0  0  0  0  0  0  0  0  0  0
    1.6470   -8.3540   31.7410 C   0  0  0  0  0  0  0  0  0  0  0  0
    1.3730   -7.7770   32.8890 N   0  0  0  0  0  0  0  0  0  0  0  0
    2.1510   -6.7280   33.3330 C   0  0  0  0  0  0  0  0  0  0  0  0
    3.3250   -6.1170   32.6620 C   0  0  0  0  0  0  0  0  0  0  0  0
    6.5030   -5.2940   28.3750 C   0  0  0  0  0  0  0  0  0  0  0  0
    6.3570   -3.8820   27.8290 C   0  0  0  0  0  0  0  0  0  0  0  0
    7.4570   -3.0980   23.7500 C   0  0  0  0  0  0  0  0  0  0  0  0
    7.6620   -3.2490   22.2700 C   0  0  0  0  0  0  0  0  0  0  0  0
  1  2  1  0
  2  3  2  0
  2  4  1  0
  4  5  1  0
  5  6  1  0
  6  7  1  0
  7  8  1  0
  8  9  2  0
  8 10  1  0
 10 11  1  0
 11 12  1  0
 12 13  1  0
 13 14  1  0
 14 15  1  0
 15 16  1  0
 16 17  2  0
 17 18  1  0
 18 19  2  0
 19 20  1  0
 16 21  1  0
 20 21  2  0
 13 22  1  0
 10 23  1  0
 22 23  1  0
  7 24  1  0
  4 25  1  0
 24 25  1  0
M  END
