piperidine-amides-30239-covalent
     RDKit          3D

 27 29  0  0  0  0  0  0  0  0999 V2000
    7.0360   -3.3700   19.3710 C   0  0  0  0  0  0  0  0  0  0  0  0
    6.3740   -4.2310   20.3440 C   0  0  0  0  0  0  0  0  0  0  0  0
    5.3810   -4.8700   19.9920 O   0  0  0  0  0  0  0  0  0  0  0  0
    6.8940   -4.3870   21.6830 N   0  0  0  0  0  0  0  0  0  0  0  0
    7.6730   -3.3540   22.3120 C   0  0  0  0  0  0  0  0  0  0  0  0
    6.9490   -2.7810   23.5050 C   0  0  0  0  0  0  0  0  0  0  0  0
    6.3800   -3.8960   24.3820 C   0  0  0  0  0  0  0  0  0  0  0  0
    5.2940   -3.3250   25.2610 C   0  0  0  0  0  0  0  0  0  0  0  0
    4.3650   -2.6660   24.7700 O   0  0  0  0  0  0  0  0  0  0  0  0
    5.2750   -3.5040   26.6770 N   0  0  0  0  0  0  0  0  0  0  0  0
    4.0350   -3.5630   27.3900 C   0  0  0  0  0  0  0  0  0  0  0  0
    4.3890   -3.6280   28.8630 C   0  0  0  0  0  0  0  0  0  0  0  0
    5.3810   -4.3920   29.3110 N   0  0  0  0  0  0  0  0  0  0  0  0
    4.9030   -5.6470   29.3130 C   0  0  1  0  0  0  0  0  0  0  0  0
    5.6400   -6.7050   28.8240 C   0  0  0  0  0  0  0  0  0  0  0  0
    4.9790   -7.8950   28.9350 C   0  0  0  0  0  0  0  0  0  0  0  0
    4.6030   -5.9790   30.7520 C   0  0  0  0  0  0  0  0  0  0  0  0
    5.3990   -6.9600   31.3000 C   0  0  0  0  0  0  0  0  0  0  0  0
    5.2950   -7.4250   32.5940 C   0  0  0  0  0  0  0  0  0  0  0  0
    4.3250   -6.8850   33.4480 C   0  0  0  0  0  0  0  0  0  0  0  0
    4.1580   -7.2880   34.7300 F   0  0  0  0  0  0  0  0  0  0  0  0
    3.4840   -5.8370   32.8480 C   0  0  0  0  0  0  0  0  0  0  0  0
    3.6350   -5.4130   31.5420 C   0  0  0  0  0  0  0  0  0  0  0  0
    6.4750   -4.1540   28.4400 C   0  0  0  0  0  0  0  0  0  0  0  0
    6.4250   -3.1310   27.3390 C   0  0  0  0  0  0  0  0  0  0  0  0
    5.7410   -5.0460   23.6470 C   0  0  0  0  0  0  0  0  0  0  0  0
    6.5500   -5.5290   22.4600 C   0  0  0  0  0  0  0  0  0  0  0  0
  1  2  1  0
  2  3  2  0
  2  4  1  0
  4  5  1  0
  5  6  1  0
  6  7  1  0
  7  8  1  0
  8  9  2  0
  8 10  1  0
 10 11  1  0
 11 12  1  0
 12 13  1  0
 13 14  1  0
 14 15  1  1
 15 16  1  0
 14 17  1  0
 17 18  2  0
 18 19  1  0
 19 20  2  0
 20 21  1  0
 20 22  1  0
 17 23  1  0
 22 23  2  0
 13 24  1  0
 10 25  1  0
 24 25  1  0
  7 26  1  0
  4 27  1  0
 26 27  1  0
M  END
