piperidine-amides-8879-covalent
     RDKit          3D

 22 23  0  0  0  0  0  0  0  0999 V2000
    7.1080   -3.2620   19.2260 C   0  0  0  0  0  0  0  0  0  0  0  0
    6.3610   -4.0320   20.2210 C   0  0  0  0  0  0  0  0  0  0  0  0
    5.2860   -4.5510   19.8810 O   0  0  0  0  0  0  0  0  0  0  0  0
    6.8910   -4.2090   21.5170 N   0  0  0  0  0  0  0  0  0  0  0  0
    6.5470   -5.3870   22.2600 C   0  0  0  0  0  0  0  0  0  0  0  0
    5.7840   -4.9770   23.4810 C   0  0  0  0  0  0  0  0  0  0  0  0
    6.6040   -3.8870   24.1310 C   0  0  0  0  0  0  0  0  0  0  0  0
    5.8280   -3.2590   25.2430 C   0  0  0  0  0  0  0  0  0  0  0  0
    4.6150   -3.1770   25.0780 O   0  0  0  0  0  0  0  0  0  0  0  0
    6.5350   -2.8030   26.3490 N   0  0  0  0  0  0  0  0  0  0  0  0
    6.2290   -3.1750   27.6960 C   0  0  0  0  0  0  0  0  0  0  0  0
    5.0380   -3.8800   27.9150 C   0  0  0  0  0  0  0  0  0  0  0  0
    4.7840   -5.4990   27.4600 S   0  0  0  0  0  0  0  0  0  0  0  0
    6.1650   -6.2090   28.2660 C   0  0  0  0  0  0  0  0  0  0  0  0
    5.7610   -7.0410   29.2950 C   0  0  0  0  0  0  0  0  0  0  0  0
    4.9520   -3.8320   29.4400 C   0  0  0  0  0  0  0  0  0  0  0  0
    4.1740   -2.6380   30.0440 C   0  0  0  0  0  0  0  0  0  0  0  0
    2.9640   -2.7990   29.7690 O   0  0  0  0  0  0  0  0  0  0  0  0
    2.7810   -3.4770   28.5980 C   0  0  0  0  0  0  0  0  0  0  0  0
    3.8520   -3.2160   27.5730 C   0  0  0  0  0  0  0  0  0  0  0  0
    7.0430   -2.7850   23.2730 C   0  0  0  0  0  0  0  0  0  0  0  0
    7.7140   -3.2060   22.1590 C   0  0  0  0  0  0  0  0  0  0  0  0
  1  2  1  0
  2  3  2  0
  2  4  1  0
  4  5  1  0
  5  6  1  0
  6  7  1  0
  7  8  1  0
  8  9  2  0
  8 10  1  0
 10 11  1  0
 11 12  1  0
 12 13  1  0
 13 14  1  0
 14 15  1  0
 12 16  1  0
 16 17  1  0
 17 18  1  0
 18 19  1  0
 12 20  1  0
 19 20  1  0
  7 21  1  0
  4 22  1  0
 21 22  1  0
M  END
