piperidine-amides-6491-covalent
     RDKit          3D

 24 25  0  0  0  0  0  0  0  0999 V2000
    7.0250   -3.2750   19.2520 C   0  0  0  0  0  0  0  0  0  0  0  0
    6.2720   -4.0670   20.2470 C   0  0  0  0  0  0  0  0  0  0  0  0
    5.2480   -4.6840   19.9120 O   0  0  0  0  0  0  0  0  0  0  0  0
    6.7010   -4.1800   21.5670 N   0  0  0  0  0  0  0  0  0  0  0  0
    6.6130   -5.4650   22.2320 C   0  0  0  0  0  0  0  0  0  0  0  0
    5.9220   -5.2660   23.5940 C   0  0  0  0  0  0  0  0  0  0  0  0
    5.8910   -3.7870   23.9120 C   0  0  0  0  0  0  0  0  0  0  0  0
    5.6190   -3.5580   25.3480 C   0  0  0  0  0  0  0  0  0  0  0  0
    4.4660   -3.2010   25.6690 O   0  0  0  0  0  0  0  0  0  0  0  0
    6.6490   -3.7280   26.3160 N   0  0  0  0  0  0  0  0  0  0  0  0
    6.6710   -4.8470   27.2410 C   0  0  0  0  0  0  0  0  0  0  0  0
    7.7370   -5.7940   26.7720 C   0  0  0  0  0  0  0  0  0  0  0  0
    7.0350   -4.3550   28.5870 C   0  0  0  0  0  0  0  0  0  0  0  0
    5.4160   -5.5570   27.3710 C   0  0  0  0  0  0  0  0  0  0  0  0
    5.0880   -5.9930   28.6630 C   0  0  0  0  0  0  0  0  0  0  0  0
    3.8800   -5.6330   29.2690 C   0  0  0  0  0  0  0  0  0  0  0  0
    3.1750   -5.8970   30.6290 C   0  0  0  0  0  0  0  0  0  0  0  0
    4.3510   -6.7370   31.0780 C   0  0  0  0  0  0  0  0  0  0  0  0
    4.7970   -7.5340   32.2660 C   0  0  0  0  0  0  0  0  0  0  0  0
    3.8920   -7.8630   33.1680 N   0  0  0  0  0  0  0  0  0  0  0  0
    5.6760   -7.2000   30.5600 C   0  0  0  0  0  0  0  0  0  0  0  0
    5.9980   -6.7800   29.3030 C   0  0  0  0  0  0  0  0  0  0  0  0
    7.2540   -3.1930   23.6230 C   0  0  0  0  0  0  0  0  0  0  0  0
    7.5210   -3.1550   22.1520 C   0  0  0  0  0  0  0  0  0  0  0  0
  1  2  1  0
  2  3  2  0
  2  4  1  0
  4  5  1  0
  5  6  1  0
  6  7  1  0
  7  8  1  0
  8  9  2  0
  8 10  1  0
 11 10  1  0
 11 12  1  0
 11 13  1  0
 11 14  1  0
 14 15  1  0
 15 16  2  0
 16 17  1  0
 17 18  2  0
 18 19  1  0
 19 20  3  0
 18 21  1  0
 15 22  1  0
 21 22  2  0
  7 23  1  0
  4 24  1  0
 23 24  1  0
M  END
