piperidine-amides-9329-covalent
     RDKit          3D

 19 20  0  0  0  0  0  0  0  0999 V2000
    7.0400   -3.3310   19.3010 C   0  0  0  0  0  0  0  0  0  0  0  0
    6.3600   -4.1390   20.3170 C   0  0  0  0  0  0  0  0  0  0  0  0
    5.3880   -4.8370   19.9780 O   0  0  0  0  0  0  0  0  0  0  0  0
    6.8060   -4.1710   21.6490 N   0  0  0  0  0  0  0  0  0  0  0  0
    7.7140   -3.1640   22.1700 C   0  0  0  0  0  0  0  0  0  0  0  0
    7.4600   -3.0960   23.6490 C   0  0  0  0  0  0  0  0  0  0  0  0
    6.1010   -3.6250   23.9680 C   0  0  0  0  0  0  0  0  0  0  0  0
    5.6480   -3.3340   25.3530 C   0  0  0  0  0  0  0  0  0  0  0  0
    4.4130   -3.4010   25.6500 O   0  0  0  0  0  0  0  0  0  0  0  0
    6.5340   -2.9500   26.3850 N   0  0  0  0  0  0  0  0  0  0  0  0
    6.1470   -1.8850   27.3540 C   0  0  2  0  0  0  0  0  0  0  0  0
    6.0930   -0.6160   26.5550 C   0  0  0  0  0  0  0  0  0  0  0  0
    5.7430    0.6810   27.2010 C   0  0  0  0  0  0  0  0  0  0  0  0
    5.6810    0.5720   28.4270 O   0  0  0  0  0  0  0  0  0  0  0  0
    6.5980   -0.3410   28.8900 C   0  0  0  0  0  0  0  0  0  0  0  0
    6.8910   -1.7780   28.5650 C   0  0  2  0  0  0  0  0  0  0  0  0
    8.3420   -1.9970   28.5060 C   0  0  0  0  0  0  0  0  0  0  0  0
    6.0580   -5.1030   23.6490 C   0  0  0  0  0  0  0  0  0  0  0  0
    6.6130   -5.4010   22.3920 C   0  0  0  0  0  0  0  0  0  0  0  0
  1  2  1  0
  2  3  2  0
  2  4  1  0
  4  5  1  0
  5  6  1  0
  6  7  1  0
  7  8  1  0
  8  9  2  0
  8 10  1  0
 11 10  1  6
 11 12  1  0
 12 13  1  0
 13 14  1  0
 14 15  1  0
 11 16  1  0
 15 16  1  0
 16 17  1  6
  7 18  1  0
  4 19  1  0
 18 19  1  0
M  END
