piperidine-amides-12121-covalent
     RDKit          3D

 25 26  0  0  0  0  0  0  0  0999 V2000
    7.1120   -3.2700   19.2490 C   0  0  0  0  0  0  0  0  0  0  0  0
    6.3480   -4.0330   20.2290 C   0  0  0  0  0  0  0  0  0  0  0  0
    5.2910   -4.5630   19.8950 O   0  0  0  0  0  0  0  0  0  0  0  0
    6.8510   -4.2190   21.5640 N   0  0  0  0  0  0  0  0  0  0  0  0
    6.5070   -5.4100   22.2960 C   0  0  0  0  0  0  0  0  0  0  0  0
    5.8020   -5.0270   23.5660 C   0  0  0  0  0  0  0  0  0  0  0  0
    6.5500   -3.8590   24.1890 C   0  0  0  0  0  0  0  0  0  0  0  0
    5.7940   -3.4020   25.3910 C   0  0  0  0  0  0  0  0  0  0  0  0
    4.5440   -3.3160   25.4050 O   0  0  0  0  0  0  0  0  0  0  0  0
    6.5250   -3.0370   26.5470 N   0  0  0  0  0  0  0  0  0  0  0  0
    6.3230   -3.7380   27.8030 C   0  0  2  0  0  0  0  0  0  0  0  0
    5.8100   -5.1410   27.5690 C   0  0  0  0  0  0  0  0  0  0  0  0
    5.4000   -2.9410   28.6370 C   0  0  0  0  0  0  0  0  0  0  0  0
    5.8850   -1.7650   29.2100 C   0  0  0  0  0  0  0  0  0  0  0  0
    5.0360   -1.0000   29.9870 C   0  0  0  0  0  0  0  0  0  0  0  0
    3.6620   -1.4410   30.2040 C   0  0  0  0  0  0  0  0  0  0  0  0
    2.8970   -0.7160   30.9350 O   0  0  0  0  0  0  0  0  0  0  0  0
    3.3350   -0.6210   32.2650 C   0  0  0  0  0  0  0  0  0  0  0  0
    4.6250   -0.2520   32.3320 F   0  0  0  0  0  0  0  0  0  0  0  0
    3.1860   -1.8260   32.8930 F   0  0  0  0  0  0  0  0  0  0  0  0
    2.5530    0.3000   32.9710 F   0  0  0  0  0  0  0  0  0  0  0  0
    3.2210   -2.5950   29.6340 C   0  0  0  0  0  0  0  0  0  0  0  0
    4.1120   -3.3310   28.8480 C   0  0  0  0  0  0  0  0  0  0  0  0
    6.8400   -2.7510   23.3040 C   0  0  0  0  0  0  0  0  0  0  0  0
    7.6090   -3.1990   22.2490 C   0  0  0  0  0  0  0  0  0  0  0  0
  1  2  1  0
  2  3  2  0
  2  4  1  0
  4  5  1  0
  5  6  1  0
  6  7  1  0
  7  8  1  0
  8  9  2  0
  8 10  1  0
 10 11  1  0
 11 12  1  6
 11 13  1  0
 13 14  2  0
 14 15  1  0
 15 16  2  0
 16 17  1  0
 17 18  1  0
 18 19  1  0
 18 20  1  0
 18 21  1  0
 16 22  1  0
 13 23  1  0
 22 23  2  0
  7 24  1  0
  4 25  1  0
 24 25  1  0
M  END
