piperidine-amides-25003-covalent
     RDKit          3D

 24 25  0  0  0  0  0  0  0  0999 V2000
    7.0140   -3.3570   19.3890 C   0  0  0  0  0  0  0  0  0  0  0  0
    6.3740   -4.2560   20.3610 C   0  0  0  0  0  0  0  0  0  0  0  0
    5.3840   -4.9270   20.0000 O   0  0  0  0  0  0  0  0  0  0  0  0
    6.8770   -4.4160   21.6690 N   0  0  0  0  0  0  0  0  0  0  0  0
    6.5240   -5.5890   22.4270 C   0  0  0  0  0  0  0  0  0  0  0  0
    5.6730   -5.0930   23.6090 C   0  0  0  0  0  0  0  0  0  0  0  0
    6.4780   -4.0210   24.3270 C   0  0  0  0  0  0  0  0  0  0  0  0
    5.7100   -3.4370   25.4750 C   0  0  0  0  0  0  0  0  0  0  0  0
    5.1250   -2.3640   25.2390 O   0  0  0  0  0  0  0  0  0  0  0  0
    5.5640   -4.0290   26.7800 N   0  0  0  0  0  0  0  0  0  0  0  0
    6.3700   -3.6390   27.8770 C   0  0  0  0  0  0  0  0  0  0  0  0
    6.7890   -4.9110   28.5920 C   0  0  0  0  0  0  0  0  0  0  0  0
    5.6780   -5.3410   29.3850 N   0  0  0  0  0  0  0  0  0  0  0  0
    5.7710   -6.5260   30.2520 C   0  0  0  0  0  0  0  0  0  0  0  0
    5.9230   -7.5850   29.5870 O   0  0  0  0  0  0  0  0  0  0  0  0
    5.7080   -6.5770   31.5950 O   0  0  0  0  0  0  0  0  0  0  0  0
    4.9190   -6.8860   32.6230 C   0  0  0  0  0  0  0  0  0  0  0  0
    3.9420   -5.8950   32.7020 C   0  0  0  0  0  0  0  0  0  0  0  0
    5.6820   -6.9540   33.7670 C   0  0  0  0  0  0  0  0  0  0  0  0
    4.3850   -8.1570   32.6550 C   0  0  0  0  0  0  0  0  0  0  0  0
    4.4390   -5.0660   28.7490 C   0  0  0  0  0  0  0  0  0  0  0  0
    4.5770   -3.8690   27.8360 C   0  0  0  0  0  0  0  0  0  0  0  0
    6.8310   -2.8960   23.3730 C   0  0  0  0  0  0  0  0  0  0  0  0
    7.6420   -3.3960   22.3430 C   0  0  0  0  0  0  0  0  0  0  0  0
  1  2  1  0
  2  3  2  0
  2  4  1  0
  4  5  1  0
  5  6  1  0
  6  7  1  0
  7  8  1  0
  8  9  2  0
  8 10  1  0
 10 11  1  0
 11 12  1  0
 12 13  1  0
 13 14  1  0
 14 15  2  0
 14 16  1  0
 17 16  1  0
 17 18  1  0
 17 19  1  0
 17 20  1  0
 13 21  1  0
 10 22  1  0
 21 22  1  0
  7 23  1  0
  4 24  1  0
 23 24  1  0
M  END
