piperidine-amides-11359-covalent
     RDKit          3D

 19 20  0  0  0  0  0  0  0  0999 V2000
    7.0380   -3.3490   19.3420 C   0  0  0  0  0  0  0  0  0  0  0  0
    6.3580   -4.1740   20.3460 C   0  0  0  0  0  0  0  0  0  0  0  0
    5.3890   -4.8640   19.9890 O   0  0  0  0  0  0  0  0  0  0  0  0
    6.8040   -4.2330   21.6840 N   0  0  0  0  0  0  0  0  0  0  0  0
    7.6980   -3.2190   22.2350 C   0  0  0  0  0  0  0  0  0  0  0  0
    7.2850   -2.9090   23.6560 C   0  0  0  0  0  0  0  0  0  0  0  0
    6.0510   -3.6560   24.0550 C   0  0  0  0  0  0  0  0  0  0  0  0
    5.5460   -3.3120   25.4140 C   0  0  0  0  0  0  0  0  0  0  0  0
    4.2970   -3.3140   25.6140 O   0  0  0  0  0  0  0  0  0  0  0  0
    6.3510   -2.9700   26.5260 N   0  0  0  0  0  0  0  0  0  0  0  0
    6.7160   -1.5540   26.7900 C   0  0  2  0  0  0  0  0  0  0  0  0
    7.1390   -1.3620   28.1850 C   0  0  0  0  0  0  0  0  0  0  0  0
    6.5830   -0.0930   28.6410 C   0  0  0  0  0  0  0  0  0  0  0  0
    7.2520    0.3960   29.5660 O   0  0  0  0  0  0  0  0  0  0  0  0
    5.3990    0.3380   27.8880 N   0  0  0  0  0  0  0  0  0  0  0  0
    4.1940    0.4410   28.5410 O   0  0  0  0  0  0  0  0  0  0  0  0
    5.6040   -0.5340   26.6770 C   0  0  0  0  0  0  0  0  0  0  0  0
    6.0820   -5.1130   23.7790 C   0  0  0  0  0  0  0  0  0  0  0  0
    6.6630   -5.4390   22.4580 C   0  0  0  0  0  0  0  0  0  0  0  0
  1  2  1  0
  2  3  2  0
  2  4  1  0
  4  5  1  0
  5  6  1  0
  6  7  1  0
  7  8  1  0
  8  9  2  0
  8 10  1  0
 11 10  1  1
 11 12  1  0
 12 13  1  0
 13 14  2  0
 13 15  1  0
 15 16  1  0
 11 17  1  0
 15 17  1  0
  7 18  1  0
  4 19  1  0
 18 19  1  0
M  END
