piperidine-amides-6916-covalent
     RDKit          3D

 22 23  0  0  0  0  0  0  0  0999 V2000
    7.0510   -3.2790   19.2500 C   0  0  0  0  0  0  0  0  0  0  0  0
    6.3210   -4.0620   20.2650 C   0  0  0  0  0  0  0  0  0  0  0  0
    5.3080   -4.7100   19.9360 O   0  0  0  0  0  0  0  0  0  0  0  0
    6.7600   -4.1330   21.5960 N   0  0  0  0  0  0  0  0  0  0  0  0
    7.6540   -3.1080   22.1040 C   0  0  0  0  0  0  0  0  0  0  0  0
    7.4590   -3.0370   23.6200 C   0  0  0  0  0  0  0  0  0  0  0  0
    6.0820   -3.6080   23.8780 C   0  0  0  0  0  0  0  0  0  0  0  0
    5.6100   -3.2440   25.2310 C   0  0  0  0  0  0  0  0  0  0  0  0
    4.3900   -3.0130   25.3880 O   0  0  0  0  0  0  0  0  0  0  0  0
    6.5200   -3.1590   26.3100 N   0  0  0  0  0  0  0  0  0  0  0  0
    6.1840   -3.6560   27.6200 C   0  0  0  0  0  0  0  0  0  0  0  0
    5.8960   -5.1540   27.5690 C   0  0  0  0  0  0  0  0  0  0  0  0
    5.8860   -5.7570   26.2930 O   0  0  0  0  0  0  0  0  0  0  0  0
    5.6450   -5.8270   28.8350 N   0  0  0  0  0  0  0  0  0  0  0  0
    4.8930   -7.0750   28.9350 C   0  0  0  0  0  0  0  0  0  0  0  0
    4.2070   -7.0630   30.1310 C   0  0  0  0  0  0  0  0  0  0  0  0
    3.0440   -7.8280   30.1950 C   0  0  0  0  0  0  0  0  0  0  0  0
    2.1180   -7.6010   31.2710 N   0  0  0  0  0  0  0  0  0  0  0  0
    4.9400   -7.0400   31.2220 C   0  0  0  0  0  0  0  0  0  0  0  0
    4.2180   -5.8000   30.8870 C   0  0  0  0  0  0  0  0  0  0  0  0
    6.0120   -5.0770   23.6230 C   0  0  0  0  0  0  0  0  0  0  0  0
    6.6760   -5.3890   22.3180 C   0  0  0  0  0  0  0  0  0  0  0  0
  1  2  1  0
  2  3  2  0
  2  4  1  0
  4  5  1  0
  5  6  1  0
  6  7  1  0
  7  8  1  0
  8  9  2  0
  8 10  1  0
 10 11  1  0
 11 12  1  0
 12 13  2  0
 12 14  1  0
 14 15  1  0
 15 16  1  0
 16 17  1  0
 17 18  3  0
 16 19  1  0
 16 20  1  0
 19 20  1  0
  7 21  1  0
  4 22  1  0
 21 22  1  0
M  END
