piperidine-amides-11604-covalent
     RDKit          3D

 31 33  0  0  0  0  0  0  0  0999 V2000
    7.1690   -3.2930   19.2440 C   0  0  0  0  0  0  0  0  0  0  0  0
    6.3610   -4.0260   20.2040 C   0  0  0  0  0  0  0  0  0  0  0  0
    5.2820   -4.5150   19.8730 O   0  0  0  0  0  0  0  0  0  0  0  0
    6.8720   -4.2260   21.5250 N   0  0  0  0  0  0  0  0  0  0  0  0
    7.7080   -3.2280   22.1360 C   0  0  0  0  0  0  0  0  0  0  0  0
    6.9990   -2.6310   23.3030 C   0  0  0  0  0  0  0  0  0  0  0  0
    6.5880   -3.7620   24.2250 C   0  0  0  0  0  0  0  0  0  0  0  0
    5.8080   -3.1870   25.3460 C   0  0  0  0  0  0  0  0  0  0  0  0
    4.5630   -3.2200   25.3740 O   0  0  0  0  0  0  0  0  0  0  0  0
    6.5050   -2.5690   26.4100 N   0  0  0  0  0  0  0  0  0  0  0  0
    6.3760   -3.1230   27.7340 C   0  0  0  0  0  0  0  0  0  0  0  0
    5.0290   -2.7400   28.2890 C   0  0  1  0  0  0  0  0  0  0  0  0
    4.4930   -1.4910   27.9510 C   0  0  0  0  0  0  0  0  0  0  0  0
    3.1310   -1.5140   27.8450 C   0  0  0  0  0  0  0  0  0  0  0  0
    2.3210   -0.3710   27.7210 O   0  0  0  0  0  0  0  0  0  0  0  0
    2.7380   -2.8270   27.8880 N   0  0  0  0  0  0  0  0  0  0  0  0
    2.0280   -3.4300   26.8360 C   0  0  0  0  0  0  0  0  0  0  0  0
    0.9450   -4.2760   27.3180 C   0  0  0  0  0  0  0  0  0  0  0  0
    0.2530   -4.9060   26.3040 O   0  0  0  0  0  0  0  0  0  0  0  0
    0.3780   -4.6200   24.9400 C   0  0  0  0  0  0  0  0  0  0  0  0
    3.8830   -3.6890   28.0580 C   0  0  2  0  0  0  0  0  0  0  0  0
    3.8500   -4.5300   29.1660 C   0  0  0  0  0  0  0  0  0  0  0  0
    3.0670   -4.4380   30.3490 C   0  0  0  0  0  0  0  0  0  0  0  0
    3.2770   -5.4190   31.2480 N   0  0  0  0  0  0  0  0  0  0  0  0
    4.2170   -6.1940   30.6720 N   0  0  0  0  0  0  0  0  0  0  0  0
    4.8400   -7.4100   31.1850 C   0  0  0  0  0  0  0  0  0  0  0  0
    5.9240   -7.6760   30.3570 C   0  0  0  0  0  0  0  0  0  0  0  0
    5.0960   -7.2810   32.5190 C   0  0  0  0  0  0  0  0  0  0  0  0
    4.5740   -5.6920   29.4400 C   0  0  0  0  0  0  0  0  0  0  0  0
    5.8400   -4.8590   23.5180 C   0  0  0  0  0  0  0  0  0  0  0  0
    6.4960   -5.3820   22.2890 C   0  0  0  0  0  0  0  0  0  0  0  0
  1  2  1  0
  2  3  2  0
  2  4  1  0
  4  5  1  0
  5  6  1  0
  6  7  1  0
  7  8  1  0
  8  9  2  0
  8 10  1  0
 10 11  1  0
 12 11  1  6
 12 13  1  0
 13 14  1  0
 14 15  2  0
 14 16  1  0
 16 17  1  0
 17 18  1  0
 18 19  1  0
 19 20  1  0
 12 21  1  0
 16 21  1  0
 21 22  1  1
 22 23  1  0
 23 24  2  0
 24 25  1  0
 25 26  1  0
 26 27  1  0
 26 28  1  0
 22 29  2  0
 25 29  1  0
  7 30  1  0
  4 31  1  0
 30 31  1  0
M  END
