piperidine-amides-2627-covalent
     RDKit          3D

 25 26  0  0  0  0  0  0  0  0999 V2000
    7.0990   -3.2670   19.2430 C   0  0  0  0  0  0  0  0  0  0  0  0
    6.3550   -4.0570   20.2570 C   0  0  0  0  0  0  0  0  0  0  0  0
    5.3030   -4.5780   19.8980 O   0  0  0  0  0  0  0  0  0  0  0  0
    6.8780   -4.2270   21.5490 N   0  0  0  0  0  0  0  0  0  0  0  0
    6.5790   -5.4010   22.3150 C   0  0  0  0  0  0  0  0  0  0  0  0
    5.8820   -4.9970   23.5890 C   0  0  0  0  0  0  0  0  0  0  0  0
    6.6380   -3.8520   24.2790 C   0  0  0  0  0  0  0  0  0  0  0  0
    5.8480   -3.4640   25.4640 C   0  0  0  0  0  0  0  0  0  0  0  0
    4.6750   -3.0970   25.3130 O   0  0  0  0  0  0  0  0  0  0  0  0
    6.4050   -3.5040   26.7540 N   0  0  0  0  0  0  0  0  0  0  0  0
    6.8790   -4.7740   27.2710 C   0  0  0  0  0  0  0  0  0  0  0  0
    5.6770   -5.6290   27.5410 C   0  0  0  0  0  0  0  0  0  0  0  0
    5.3640   -6.0870   28.7930 C   0  0  0  0  0  0  0  0  0  0  0  0
    6.1560   -6.8770   29.5250 C   0  0  0  0  0  0  0  0  0  0  0  0
    5.7830   -7.2900   30.7490 C   0  0  0  0  0  0  0  0  0  0  0  0
    4.4880   -6.9260   31.4110 C   0  0  0  0  0  0  0  0  0  0  0  0
    4.2350   -7.4180   32.6710 O   0  0  0  0  0  0  0  0  0  0  0  0
    5.1680   -8.2980   33.2410 C   0  0  0  0  0  0  0  0  0  0  0  0
    3.4420   -6.0400   30.7670 C   0  0  0  0  0  0  0  0  0  0  0  0
    2.3040   -5.6740   31.2600 N   0  0  0  0  0  0  0  0  0  0  0  0
    2.0890   -5.8370   32.5710 O   0  0  0  0  0  0  0  0  0  0  0  0
    1.3790   -5.0040   30.4720 O   0  0  0  0  0  0  0  0  0  0  0  0
    4.0160   -5.6710   29.4120 C   0  0  0  0  0  0  0  0  0  0  0  0
    6.8750   -2.6950   23.3570 C   0  0  0  0  0  0  0  0  0  0  0  0
    7.6650   -3.1750   22.1600 C   0  0  0  0  0  0  0  0  0  0  0  0
  1  2  1  0
  2  3  2  0
  2  4  1  0
  4  5  1  0
  5  6  1  0
  6  7  1  0
  7  8  1  0
  8  9  2  0
  8 10  1  0
 10 11  1  0
 11 12  1  0
 12 13  1  0
 13 14  2  0
 14 15  1  0
 15 16  2  0
 16 17  1  0
 17 18  1  0
 16 19  1  0
 19 20  1  0
 20 21  2  0
 20 22  1  0
 13 23  1  0
 19 23  2  0
  7 24  1  0
  4 25  1  0
 24 25  1  0
M  CHG  2  20   1  22  -1
M  END
