piperidine-amides-33995-covalent
     RDKit          3D

 29 32  0  0  0  0  0  0  0  0999 V2000
    7.0190   -3.3470   19.3250 C   0  0  0  0  0  0  0  0  0  0  0  0
    6.3340   -4.2140   20.2990 C   0  0  0  0  0  0  0  0  0  0  0  0
    5.3230   -4.8580   19.9660 O   0  0  0  0  0  0  0  0  0  0  0  0
    6.8270   -4.3620   21.6000 N   0  0  0  0  0  0  0  0  0  0  0  0
    6.6120   -5.6240   22.2900 C   0  0  0  0  0  0  0  0  0  0  0  0
    6.1600   -5.3510   23.7450 C   0  0  0  0  0  0  0  0  0  0  0  0
    6.0620   -3.8580   23.9250 C   0  0  0  0  0  0  0  0  0  0  0  0
    5.5920   -3.4320   25.2700 C   0  0  0  0  0  0  0  0  0  0  0  0
    4.5690   -2.7210   25.2880 O   0  0  0  0  0  0  0  0  0  0  0  0
    6.2200   -3.7930   26.4960 N   0  0  0  0  0  0  0  0  0  0  0  0
    6.9370   -5.0720   26.5690 C   0  0  0  0  0  0  0  0  0  0  0  0
    7.1640   -5.4030   28.0000 C   0  0  0  0  0  0  0  0  0  0  0  0
    6.5520   -4.4730   28.6970 C   0  0  0  0  0  0  0  0  0  0  0  0
    5.6930   -3.7930   27.8900 C   0  0  1  0  0  0  0  0  0  0  0  0
    5.4270   -2.4430   28.1300 C   0  0  0  0  0  0  0  0  0  0  0  0
    5.7710   -1.4600   27.2610 O   0  0  0  0  0  0  0  0  0  0  0  0
    4.8040   -2.2970   29.3230 N   0  0  0  0  0  0  0  0  0  0  0  0
    4.9020   -1.1260   30.1370 C   0  0  0  0  0  0  0  0  0  0  0  0
    3.5930   -0.4210   30.4470 C   0  0  0  0  0  0  0  0  0  0  0  0
    2.8030   -1.4860   30.6570 N   0  0  0  0  0  0  0  0  0  0  0  0
    1.5580   -1.4130   31.3970 C   0  0  0  0  0  0  0  0  0  0  0  0
    1.7530   -1.6970   32.7780 N   0  0  0  0  0  0  0  0  0  0  0  0
    0.5720   -1.6090   33.3670 C   0  0  0  0  0  0  0  0  0  0  0  0
   -0.5060   -1.2790   32.5350 C   0  0  0  0  0  0  0  0  0  0  0  0
   -0.1060   -1.0520   30.9310 S   0  0  0  0  0  0  0  0  0  0  0  0
    2.5680   -2.4730   29.7430 C   0  0  0  0  0  0  0  0  0  0  0  0
    3.7250   -3.1860   29.6050 C   0  0  0  0  0  0  0  0  0  0  0  0
    7.3810   -3.2420   23.6310 C   0  0  0  0  0  0  0  0  0  0  0  0
    7.6140   -3.3020   22.1600 C   0  0  0  0  0  0  0  0  0  0  0  0
  1  2  1  0
  2  3  2  0
  2  4  1  0
  4  5  1  0
  5  6  1  0
  6  7  1  0
  7  8  1  0
  8  9  2  0
  8 10  1  0
 10 11  1  0
 11 12  1  0
 12 13  1  0
 10 14  1  0
 13 14  1  0
 14 15  1  1
 15 16  2  0
 15 17  1  0
 17 18  1  0
 18 19  1  0
 19 20  1  0
 20 21  1  0
 21 22  2  0
 22 23  1  0
 23 24  2  0
 21 25  1  0
 24 25  1  0
 20 26  1  0
 17 27  1  0
 26 27  1  0
  7 28  1  0
  4 29  1  0
 28 29  1  0
M  END
