piperidine-amides-14400-covalent
     RDKit          3D

 24 25  0  0  0  0  0  0  0  0999 V2000
    7.0790   -3.3470   19.3160 C   0  0  0  0  0  0  0  0  0  0  0  0
    6.4260   -4.2020   20.3040 C   0  0  0  0  0  0  0  0  0  0  0  0
    5.3800   -4.7880   19.9700 O   0  0  0  0  0  0  0  0  0  0  0  0
    7.0200   -4.3900   21.5800 N   0  0  0  0  0  0  0  0  0  0  0  0
    7.6860   -3.2740   22.1830 C   0  0  0  0  0  0  0  0  0  0  0  0
    6.7920   -2.7160   23.2400 C   0  0  0  0  0  0  0  0  0  0  0  0
    6.5610   -3.8230   24.2400 C   0  0  0  0  0  0  0  0  0  0  0  0
    5.7730   -3.2830   25.3870 C   0  0  0  0  0  0  0  0  0  0  0  0
    4.5820   -3.0580   25.1780 O   0  0  0  0  0  0  0  0  0  0  0  0
    6.4270   -3.0770   26.5910 N   0  0  0  0  0  0  0  0  0  0  0  0
    6.4370   -1.8230   27.2620 C   0  0  0  0  0  0  0  0  0  0  0  0
    7.0040   -1.4990   28.5130 C   0  0  0  0  0  0  0  0  0  0  0  0
    7.0160   -0.2910   29.1830 C   0  0  0  0  0  0  0  0  0  0  0  0
    6.4520    0.9000   28.7460 C   0  0  0  0  0  0  0  0  0  0  0  0
    5.8010    0.7530   27.4230 C   0  0  0  0  0  0  0  0  0  0  0  0
    5.2350    1.9250   26.9750 O   0  0  0  0  0  0  0  0  0  0  0  0
    4.2420    2.3230   27.8770 C   0  0  0  0  0  0  0  0  0  0  0  0
    3.0230    1.4790   27.9660 C   0  0  0  0  0  0  0  0  0  0  0  0
    2.1580    2.0240   29.0690 C   0  0  0  0  0  0  0  0  0  0  0  0
    0.8020    1.2770   29.0930 C   0  0  0  0  0  0  0  0  0  0  0  0
    0.7830    0.5400   30.2040 N   0  0  0  0  0  0  0  0  0  0  0  0
    5.7990   -0.5690   26.7110 C   0  0  0  0  0  0  0  0  0  0  0  0
    5.7580   -4.9040   23.5690 C   0  0  0  0  0  0  0  0  0  0  0  0
    6.4800   -5.4610   22.3730 C   0  0  0  0  0  0  0  0  0  0  0  0
  1  2  1  0
  2  3  2  0
  2  4  1  0
  4  5  1  0
  5  6  1  0
  6  7  1  0
  7  8  1  0
  8  9  2  0
  8 10  1  0
 10 11  1  0
 11 12  2  0
 12 13  1  0
 13 14  2  0
 14 15  1  0
 15 16  1  0
 16 17  1  0
 17 18  1  0
 18 19  1  0
 19 20  1  0
 20 21  3  0
 11 22  1  0
 15 22  2  0
  7 23  1  0
  4 24  1  0
 23 24  1  0
M  END
