piperidine-amides-2372-covalent
     RDKit          3D

 27 29  0  0  0  0  0  0  0  0999 V2000
    7.1030   -3.1740   19.0440 C   0  0  0  0  0  0  0  0  0  0  0  0
    6.2600   -3.8190   20.0860 C   0  0  0  0  0  0  0  0  0  0  0  0
    5.1840   -4.2890   19.7390 O   0  0  0  0  0  0  0  0  0  0  0  0
    6.6750   -3.9320   21.3990 N   0  0  0  0  0  0  0  0  0  0  0  0
    7.4950   -2.9190   22.0310 C   0  0  0  0  0  0  0  0  0  0  0  0
    6.7690   -2.3400   23.2190 C   0  0  0  0  0  0  0  0  0  0  0  0
    6.2910   -3.4900   24.1010 C   0  0  0  0  0  0  0  0  0  0  0  0
    5.7250   -3.0060   25.3800 C   0  0  0  0  0  0  0  0  0  0  0  0
    4.6810   -2.3410   25.3850 O   0  0  0  0  0  0  0  0  0  0  0  0
    6.3700   -3.3250   26.5950 N   0  0  0  0  0  0  0  0  0  0  0  0
    7.2400   -4.4740   26.5550 C   0  0  1  0  0  0  0  0  0  0  0  0
    6.7150   -5.3160   25.3990 C   0  0  0  0  0  0  0  0  0  0  0  0
    7.5570   -5.4600   24.3100 C   0  0  0  0  0  0  0  0  0  0  0  0
    7.2480   -6.1330   23.2130 C   0  0  0  0  0  0  0  0  0  0  0  0
    6.0610   -6.6870   23.1890 C   0  0  0  0  0  0  0  0  0  0  0  0
    5.0370   -6.6390   24.2770 C   0  0  0  0  0  0  0  0  0  0  0  0
    5.3160   -5.8830   25.5840 C   0  0  0  0  0  0  0  0  0  0  0  0
    8.6150   -4.0050   26.0920 C   0  0  0  0  0  0  0  0  0  0  0  0
    8.6690   -2.7330   25.3130 C   0  0  0  0  0  0  0  0  0  0  0  0
    9.9850   -2.2440   24.8480 C   0  0  0  0  0  0  0  0  0  0  0  0
   11.2400   -3.0040   25.1510 C   0  0  0  0  0  0  0  0  0  0  0  0
   12.8170   -2.4590   24.6220 Cl  0  0  0  0  0  0  0  0  0  0  0  0
   11.1100   -4.2580   25.9320 C   0  0  0  0  0  0  0  0  0  0  0  0
    9.7410   -4.7240   26.3870 C   0  0  0  0  0  0  0  0  0  0  0  0
    9.6710   -5.8730   27.0970 F   0  0  0  0  0  0  0  0  0  0  0  0
    5.2450   -4.2050   23.2920 C   0  0  0  0  0  0  0  0  0  0  0  0
    5.9270   -4.8880   22.1410 C   0  0  0  0  0  0  0  0  0  0  0  0
  1  2  1  0
  2  3  2  0
  2  4  1  0
  4  5  1  0
  5  6  1  0
  6  7  1  0
  7  8  1  0
  8  9  2  0
  8 10  1  0
 11 10  1  6
 11 12  1  0
 12 13  2  0
 13 14  1  0
 14 15  2  0
 15 16  1  0
 12 17  1  0
 16 17  2  0
 11 18  1  0
 18 19  2  0
 19 20  1  0
 20 21  2  0
 21 22  1  0
 21 23  1  0
 18 24  1  0
 23 24  2  0
 24 25  1  0
  7 26  1  0
  4 27  1  0
 26 27  1  0
M  END
