piperidine-amides-35253-covalent
     RDKit          3D

 31 33  0  0  0  0  0  0  0  0999 V2000
    7.0000   -3.3940   19.4180 C   0  0  0  0  0  0  0  0  0  0  0  0
    6.3430   -4.2680   20.4290 C   0  0  0  0  0  0  0  0  0  0  0  0
    5.4130   -4.9590   20.0090 O   0  0  0  0  0  0  0  0  0  0  0  0
    6.7960   -4.3170   21.7650 N   0  0  0  0  0  0  0  0  0  0  0  0
    7.6250   -3.2780   22.3450 C   0  0  0  0  0  0  0  0  0  0  0  0
    7.1750   -2.9810   23.7570 C   0  0  0  0  0  0  0  0  0  0  0  0
    5.8000   -3.6110   23.9910 C   0  0  0  0  0  0  0  0  0  0  0  0
    5.1180   -3.0360   25.2160 C   0  0  0  0  0  0  0  0  0  0  0  0
    4.4650   -2.0090   25.0620 O   0  0  0  0  0  0  0  0  0  0  0  0
    5.1620   -3.5820   26.5270 N   0  0  0  0  0  0  0  0  0  0  0  0
    4.5840   -2.9060   27.6540 C   0  0  0  0  0  0  0  0  0  0  0  0
    4.2770   -3.9790   28.6930 C   0  0  0  0  0  0  0  0  0  0  0  0
    5.5240   -4.5250   29.2240 N   0  0  0  0  0  0  0  0  0  0  0  0
    5.5790   -6.2150   28.9330 S   0  0  0  0  0  0  0  0  0  0  0  0
    7.0170   -6.5660   29.0640 O   0  0  0  0  0  0  0  0  0  0  0  0
    5.1520   -6.4760   27.5170 O   0  0  0  0  0  0  0  0  0  0  0  0
    4.5130   -7.0760   30.1580 C   0  0  0  0  0  0  0  0  0  0  0  0
    5.0930   -7.2660   31.3680 C   0  0  0  0  0  0  0  0  0  0  0  0
    4.3630   -7.8900   32.3110 C   0  0  0  0  0  0  0  0  0  0  0  0
    2.9720   -8.4250   32.2380 C   0  0  0  0  0  0  0  0  0  0  0  0
    2.3840   -8.9960   33.1760 O   0  0  0  0  0  0  0  0  0  0  0  0
    1.2460   -8.5100   33.8590 C   0  0  0  0  0  0  0  0  0  0  0  0
    0.4520   -9.5760   34.2950 F   0  0  0  0  0  0  0  0  0  0  0  0
    0.4400   -7.7340   33.0310 F   0  0  0  0  0  0  0  0  0  0  0  0
    1.6400   -7.7330   34.9220 F   0  0  0  0  0  0  0  0  0  0  0  0
    2.1650   -8.3080   30.9770 C   0  0  0  0  0  0  0  0  0  0  0  0
    3.0630   -7.5970   29.9810 C   0  0  0  0  0  0  0  0  0  0  0  0
    6.5390   -3.7980   28.5810 C   0  0  0  0  0  0  0  0  0  0  0  0
    6.3930   -3.9350   27.0810 C   0  0  0  0  0  0  0  0  0  0  0  0
    5.9530   -5.1180   23.9480 C   0  0  0  0  0  0  0  0  0  0  0  0
    6.5550   -5.4830   22.5990 C   0  0  0  0  0  0  0  0  0  0  0  0
  1  2  1  0
  2  3  2  0
  2  4  1  0
  4  5  1  0
  5  6  1  0
  6  7  1  0
  7  8  1  0
  8  9  2  0
  8 10  1  0
 10 11  1  0
 11 12  1  0
 12 13  1  0
 13 14  1  0
 14 15  2  0
 14 16  2  0
 14 17  1  0
 17 18  2  0
 18 19  1  0
 19 20  2  0
 20 21  1  0
 21 22  1  0
 22 23  1  0
 22 24  1  0
 22 25  1  0
 20 26  1  0
 17 27  1  0
 26 27  2  0
 13 28  1  0
 10 29  1  0
 28 29  1  0
  7 30  1  0
  4 31  1  0
 30 31  1  0
M  END
