piperidine-amides-27067-covalent
     RDKit          3D

 26 28  0  0  0  0  0  0  0  0999 V2000
    7.0180   -3.3420   19.3690 C   0  0  0  0  0  0  0  0  0  0  0  0
    6.3670   -4.1820   20.3810 C   0  0  0  0  0  0  0  0  0  0  0  0
    5.3810   -4.8570   19.9840 O   0  0  0  0  0  0  0  0  0  0  0  0
    6.8500   -4.2490   21.6980 N   0  0  0  0  0  0  0  0  0  0  0  0
    6.7400   -5.4880   22.4370 C   0  0  0  0  0  0  0  0  0  0  0  0
    6.1570   -5.2050   23.7940 C   0  0  0  0  0  0  0  0  0  0  0  0
    6.0860   -3.7320   24.0890 C   0  0  0  0  0  0  0  0  0  0  0  0
    5.6230   -3.4840   25.4840 C   0  0  0  0  0  0  0  0  0  0  0  0
    4.4610   -3.8630   25.7420 O   0  0  0  0  0  0  0  0  0  0  0  0
    6.3330   -2.8380   26.5290 N   0  0  0  0  0  0  0  0  0  0  0  0
    6.2580   -1.3920   26.5130 C   0  0  0  0  0  0  0  0  0  0  0  0
    6.0150   -0.7690   25.2990 N   0  0  0  0  0  0  0  0  0  0  0  0
    5.9100    0.5310   25.1810 C   0  0  0  0  0  0  0  0  0  0  0  0
    6.0460    1.2960   26.3140 C   0  0  0  0  0  0  0  0  0  0  0  0
    6.2860    0.6700   27.4990 C   0  0  0  0  0  0  0  0  0  0  0  0
    6.3940   -0.6470   27.6150 N   0  0  0  0  0  0  0  0  0  0  0  0
    6.3000   -3.5020   27.8260 C   0  0  2  0  0  0  0  0  0  0  0  0
    6.1590   -4.8810   27.8280 C   0  0  0  0  0  0  0  0  0  0  0  0
    5.4920   -2.8520   28.7260 C   0  0  0  0  0  0  0  0  0  0  0  0
    6.0680   -1.7740   29.6550 C   0  0  0  0  0  0  0  0  0  0  0  0
    5.0290   -1.1520   30.5900 C   0  0  0  0  0  0  0  0  0  0  0  0
    3.6020   -1.5790   30.5720 C   0  0  0  0  0  0  0  0  0  0  0  0
    3.1820   -2.6480   29.6090 C   0  0  0  0  0  0  0  0  0  0  0  0
    4.1330   -3.1970   28.7710 C   0  0  0  0  0  0  0  0  0  0  0  0
    7.4410   -3.1250   23.7730 C   0  0  0  0  0  0  0  0  0  0  0  0
    7.7110   -3.2160   22.2730 C   0  0  0  0  0  0  0  0  0  0  0  0
  1  2  1  0
  2  3  2  0
  2  4  1  0
  4  5  1  0
  5  6  1  0
  6  7  1  0
  7  8  1  0
  8  9  2  0
  8 10  1  0
 10 11  1  0
 11 12  2  0
 12 13  1  0
 13 14  2  0
 14 15  1  0
 11 16  1  0
 15 16  2  0
 10 17  1  0
 17 18  1  6
 17 19  1  0
 19 20  2  0
 20 21  1  0
 21 22  2  0
 22 23  1  0
 19 24  1  0
 23 24  2  0
  7 25  1  0
  4 26  1  0
 25 26  1  0
M  END
