piperidine-amides-35066-covalent
     RDKit          3D

 33 36  0  0  0  0  0  0  0  0999 V2000
    7.0790   -3.2920   19.2460 C   0  0  0  0  0  0  0  0  0  0  0  0
    6.3620   -4.1090   20.2590 C   0  0  0  0  0  0  0  0  0  0  0  0
    5.3230   -4.6630   19.9180 O   0  0  0  0  0  0  0  0  0  0  0  0
    6.8990   -4.2600   21.5330 N   0  0  0  0  0  0  0  0  0  0  0  0
    6.5500   -5.4030   22.3340 C   0  0  0  0  0  0  0  0  0  0  0  0
    5.7540   -4.9360   23.5190 C   0  0  0  0  0  0  0  0  0  0  0  0
    6.5530   -3.8500   24.2330 C   0  0  0  0  0  0  0  0  0  0  0  0
    5.7310   -3.3490   25.3460 C   0  0  0  0  0  0  0  0  0  0  0  0
    4.5140   -3.1860   25.1820 O   0  0  0  0  0  0  0  0  0  0  0  0
    6.3210   -3.0490   26.5840 N   0  0  0  0  0  0  0  0  0  0  0  0
    6.2310   -3.9970   27.6840 C   0  0  0  0  0  0  0  0  0  0  0  0
    4.9940   -3.7480   28.5140 C   0  0  0  0  0  0  0  0  0  0  0  0
    4.1940   -2.6810   28.1500 C   0  0  0  0  0  0  0  0  0  0  0  0
    3.0940   -2.3330   28.7760 C   0  0  0  0  0  0  0  0  0  0  0  0
    2.7800   -3.0760   29.8020 C   0  0  0  0  0  0  0  0  0  0  0  0
    3.5400   -4.2550   30.3090 C   0  0  0  0  0  0  0  0  0  0  0  0
    4.8340   -4.7490   29.6540 C   0  0  0  0  0  0  0  0  0  0  0  0
    5.4740   -5.8380   30.1770 O   0  0  0  0  0  0  0  0  0  0  0  0
    4.9630   -7.0780   29.7820 C   0  0  0  0  0  0  0  0  0  0  0  0
    3.6310   -6.9600   29.1150 C   0  0  0  0  0  0  0  0  0  0  0  0
    2.4320   -7.6930   29.6190 C   0  0  0  0  0  0  0  0  0  0  0  0
    6.3620   -1.7240   27.2150 C   0  0  0  0  0  0  0  0  0  0  0  0
    6.9740   -1.5950   28.5520 C   0  0  0  0  0  0  0  0  0  0  0  0
    7.0500   -0.2930   29.2750 C   0  0  0  0  0  0  0  0  0  0  0  0
    6.5490    0.8580   28.7190 C   0  0  0  0  0  0  0  0  0  0  0  0
    5.9160    0.8000   27.3600 C   0  0  0  0  0  0  0  0  0  0  0  0
    5.8580   -0.5690   26.6480 C   0  0  0  0  0  0  0  0  0  0  0  0
    5.4390    1.9960   26.8700 O   0  0  0  0  0  0  0  0  0  0  0  0
    6.0950    3.1540   27.4320 C   0  0  0  0  0  0  0  0  0  0  0  0
    5.8540    3.1730   28.7810 C   0  0  0  0  0  0  0  0  0  0  0  0
    6.6020    2.0810   29.3530 O   0  0  0  0  0  0  0  0  0  0  0  0
    7.0370   -2.7600   23.4040 C   0  0  0  0  0  0  0  0  0  0  0  0
    7.6660   -3.2300   22.1540 C   0  0  0  0  0  0  0  0  0  0  0  0
  1  2  1  0
  2  3  2  0
  2  4  1  0
  4  5  1  0
  5  6  1  0
  6  7  1  0
  7  8  1  0
  8  9  2  0
  8 10  1  0
 10 11  1  0
 11 12  1  0
 12 13  2  0
 13 14  1  0
 14 15  2  0
 15 16  1  0
 12 17  1  0
 16 17  2  0
 17 18  1  0
 18 19  1  0
 19 20  1  0
 20 21  2  3
 10 22  1  0
 22 23  2  0
 23 24  1  0
 24 25  2  0
 25 26  1  0
 22 27  1  0
 26 27  2  0
 26 28  1  0
 28 29  1  0
 29 30  1  0
 25 31  1  0
 30 31  1  0
  7 32  1  0
  4 33  1  0
 32 33  1  0
M  END
