piperidine-amides-17005-covalent
     RDKit          3D

 20 21  0  0  0  0  0  0  0  0999 V2000
    7.0760   -3.3580   19.3020 C   0  0  0  0  0  0  0  0  0  0  0  0
    6.4170   -4.1900   20.3210 C   0  0  0  0  0  0  0  0  0  0  0  0
    5.3620   -4.7740   19.9660 O   0  0  0  0  0  0  0  0  0  0  0  0
    6.9830   -4.3780   21.6090 N   0  0  0  0  0  0  0  0  0  0  0  0
    6.4750   -5.4210   22.4270 C   0  0  0  0  0  0  0  0  0  0  0  0
    5.9690   -4.9840   23.7320 C   0  0  0  0  0  0  0  0  0  0  0  0
    6.6150   -3.7890   24.3350 C   0  0  0  0  0  0  0  0  0  0  0  0
    5.7820   -3.2530   25.4590 C   0  0  0  0  0  0  0  0  0  0  0  0
    4.5780   -3.0080   25.2490 O   0  0  0  0  0  0  0  0  0  0  0  0
    6.3200   -3.0310   26.7420 N   0  0  0  0  0  0  0  0  0  0  0  0
    6.5310   -4.0160   27.7430 C   0  0  0  0  0  0  0  0  0  0  0  0
    6.6950   -1.6570   27.1040 C   0  0  2  0  0  0  0  0  0  0  0  0
    6.9810   -1.3570   28.5790 C   0  0  0  0  0  0  0  0  0  0  0  0
    7.6250   -0.1610   28.7730 C   0  0  0  0  0  0  0  0  0  0  0  0
    6.3430    0.6650   28.5460 C   0  0  0  0  0  0  0  0  0  0  0  0
    5.3290   -0.0310   27.7920 N   0  0  0  0  0  0  0  0  0  0  0  0
    4.0800    0.7380   27.8870 C   0  0  0  0  0  0  0  0  0  0  0  0
    5.6970   -0.6860   26.6780 C   0  0  0  0  0  0  0  0  0  0  0  0
    6.9200   -2.6850   23.3480 C   0  0  0  0  0  0  0  0  0  0  0  0
    7.7290   -3.3160   22.2440 C   0  0  0  0  0  0  0  0  0  0  0  0
  1  2  1  0
  2  3  2  0
  2  4  1  0
  4  5  1  0
  5  6  1  0
  6  7  1  0
  7  8  1  0
  8  9  2  0
  8 10  1  0
 10 11  1  0
 12 10  1  1
 12 13  1  0
 13 14  1  0
 14 15  1  0
 15 16  1  0
 16 17  1  0
 12 18  1  0
 16 18  1  0
  7 19  1  0
  4 20  1  0
 19 20  1  0
M  END
