piperidine-amides-11951-covalent
     RDKit          3D

 26 28  0  0  0  0  0  0  0  0999 V2000
    7.1490   -3.3180   19.2930 C   0  0  0  0  0  0  0  0  0  0  0  0
    6.3690   -4.0860   20.2450 C   0  0  0  0  0  0  0  0  0  0  0  0
    5.2980   -4.5890   19.9060 O   0  0  0  0  0  0  0  0  0  0  0  0
    6.8940   -4.3060   21.5570 N   0  0  0  0  0  0  0  0  0  0  0  0
    7.6500   -3.2750   22.2200 C   0  0  0  0  0  0  0  0  0  0  0  0
    6.7950   -2.6260   23.2670 C   0  0  0  0  0  0  0  0  0  0  0  0
    5.8780   -3.6710   23.8860 C   0  0  0  0  0  0  0  0  0  0  0  0
    5.6830   -3.4020   25.3290 C   0  0  0  0  0  0  0  0  0  0  0  0
    4.6890   -2.7890   25.7610 O   0  0  0  0  0  0  0  0  0  0  0  0
    6.6680   -3.8660   26.2300 N   0  0  0  0  0  0  0  0  0  0  0  0
    6.2350   -4.3930   27.5010 C   0  0  1  0  0  0  0  0  0  0  0  0
    7.2920   -5.3300   28.0570 C   0  0  0  0  0  0  0  0  0  0  0  0
    5.9770   -3.2640   28.4380 C   0  0  0  0  0  0  0  0  0  0  0  0
    5.0200   -3.3490   29.4760 C   0  0  0  0  0  0  0  0  0  0  0  0
    4.7620   -2.2990   30.3640 C   0  0  0  0  0  0  0  0  0  0  0  0
    5.4830   -1.0390   30.2690 C   0  0  0  0  0  0  0  0  0  0  0  0
    5.1920   -0.0740   31.1610 N   0  0  0  0  0  0  0  0  0  0  0  0
    5.9960    0.3370   32.2620 C   0  0  0  0  0  0  0  0  0  0  0  0
    5.8560    1.7360   32.2930 C   0  0  0  0  0  0  0  0  0  0  0  0
    5.0100    2.1230   31.2270 O   0  0  0  0  0  0  0  0  0  0  0  0
    4.6270    0.9580   30.5660 C   0  0  0  0  0  0  0  0  0  0  0  0
    3.7830    0.9510   29.4710 O   0  0  0  0  0  0  0  0  0  0  0  0
    6.4270   -0.9620   29.2380 C   0  0  0  0  0  0  0  0  0  0  0  0
    6.6080   -2.0370   28.4140 C   0  0  0  0  0  0  0  0  0  0  0  0
    6.3950   -5.0750   23.7200 C   0  0  0  0  0  0  0  0  0  0  0  0
    6.4580   -5.4370   22.2790 C   0  0  0  0  0  0  0  0  0  0  0  0
  1  2  1  0
  2  3  2  0
  2  4  1  0
  4  5  1  0
  5  6  1  0
  6  7  1  0
  7  8  1  0
  8  9  2  0
  8 10  1  0
 10 11  1  0
 11 12  1  1
 11 13  1  0
 13 14  2  0
 14 15  1  0
 15 16  2  0
 16 17  1  0
 17 18  1  0
 18 19  1  0
 19 20  1  0
 17 21  1  0
 20 21  1  0
 21 22  2  0
 16 23  1  0
 13 24  1  0
 23 24  2  0
  7 25  1  0
  4 26  1  0
 25 26  1  0
M  END
