piperidine-amides-11075-covalent
     RDKit          3D

 21 21  0  0  0  0  0  0  0  0999 V2000
    7.1100   -3.2690   19.1900 C   0  0  0  0  0  0  0  0  0  0  0  0
    6.3550   -3.9920   20.2170 C   0  0  0  0  0  0  0  0  0  0  0  0
    5.3030   -4.5730   19.8970 O   0  0  0  0  0  0  0  0  0  0  0  0
    6.8280   -4.0760   21.5320 N   0  0  0  0  0  0  0  0  0  0  0  0
    7.7220   -3.0680   22.0590 C   0  0  0  0  0  0  0  0  0  0  0  0
    7.1920   -2.7120   23.4100 C   0  0  0  0  0  0  0  0  0  0  0  0
    6.8660   -3.9210   24.2360 C   0  0  0  0  0  0  0  0  0  0  0  0
    6.2960   -3.5260   25.5390 C   0  0  0  0  0  0  0  0  0  0  0  0
    5.0550   -3.2690   25.6550 O   0  0  0  0  0  0  0  0  0  0  0  0
    7.1150   -3.4040   26.6940 N   0  0  0  0  0  0  0  0  0  0  0  0
    7.4470   -4.5860   27.5300 C   0  0  2  0  0  0  0  0  0  0  0  0
    8.6350   -5.2810   26.9780 C   0  0  0  0  0  0  0  0  0  0  0  0
    6.3210   -5.6300   27.4850 C   0  0  0  0  0  0  0  0  0  0  0  0
    5.4590   -5.3210   28.3330 O   0  0  0  0  0  0  0  0  0  0  0  0
    4.9980   -6.4230   29.0640 C   0  0  0  0  0  0  0  0  0  0  0  0
    3.4840   -6.4750   29.1540 C   0  0  0  0  0  0  0  0  0  0  0  0
    2.9630   -5.2570   29.7110 F   0  0  0  0  0  0  0  0  0  0  0  0
    2.8790   -6.7910   27.9970 F   0  0  0  0  0  0  0  0  0  0  0  0
    3.1180   -7.3860   30.1560 F   0  0  0  0  0  0  0  0  0  0  0  0
    5.9100   -4.8100   23.4980 C   0  0  0  0  0  0  0  0  0  0  0  0
    6.4280   -5.2200   22.3000 C   0  0  0  0  0  0  0  0  0  0  0  0
  1  2  1  0
  2  3  2  0
  2  4  1  0
  4  5  1  0
  5  6  1  0
  6  7  1  0
  7  8  1  0
  8  9  2  0
  8 10  1  0
 10 11  1  0
 11 12  1  6
 11 13  1  0
 13 14  1  0
 14 15  1  0
 15 16  1  0
 16 17  1  0
 16 18  1  0
 16 19  1  0
  7 20  1  0
  4 21  1  0
 20 21  1  0
M  END
