piperidine-amides-11888-covalent
     RDKit          3D

 27 29  0  0  0  0  0  0  0  0999 V2000
    7.1030   -3.3420   19.3390 C   0  0  0  0  0  0  0  0  0  0  0  0
    6.4060   -4.1870   20.2970 C   0  0  0  0  0  0  0  0  0  0  0  0
    5.3800   -4.7870   19.9710 O   0  0  0  0  0  0  0  0  0  0  0  0
    6.9620   -4.3570   21.6100 N   0  0  0  0  0  0  0  0  0  0  0  0
    7.7000   -3.2730   22.1970 C   0  0  0  0  0  0  0  0  0  0  0  0
    6.8940   -2.6660   23.3030 C   0  0  0  0  0  0  0  0  0  0  0  0
    6.5450   -3.7760   24.2750 C   0  0  0  0  0  0  0  0  0  0  0  0
    5.7700   -3.2190   25.4180 C   0  0  0  0  0  0  0  0  0  0  0  0
    4.5730   -2.8890   25.3090 O   0  0  0  0  0  0  0  0  0  0  0  0
    6.4110   -3.0770   26.6700 N   0  0  0  0  0  0  0  0  0  0  0  0
    6.4440   -1.7880   27.3320 C   0  0  0  0  0  0  0  0  0  0  0  0
    5.7510   -0.6350   26.6610 C   0  0  0  0  0  0  0  0  0  0  0  0
    5.7510    0.6190   27.2640 C   0  0  0  0  0  0  0  0  0  0  0  0
    6.4040    0.8080   28.5040 C   0  0  0  0  0  0  0  0  0  0  0  0
    6.3830    2.0970   29.0810 N   0  0  0  0  0  0  0  0  0  0  0  0
    7.4230    3.0240   29.1170 C   0  0  0  0  0  0  0  0  0  0  0  0
    7.0140    4.1880   29.7780 C   0  0  0  0  0  0  0  0  0  0  0  0
    5.7380    4.0800   30.1900 C   0  0  0  0  0  0  0  0  0  0  0  0
    4.9090    4.9490   30.8720 C   0  0  0  0  0  0  0  0  0  0  0  0
    5.6450    5.9910   31.4040 O   0  0  0  0  0  0  0  0  0  0  0  0
    3.5820    4.7350   30.9600 N   0  0  0  0  0  0  0  0  0  0  0  0
    2.8490    4.7040   32.0950 C   0  0  0  0  0  0  0  0  0  0  0  0
    5.3550    2.7280   29.7300 N   0  0  0  0  0  0  0  0  0  0  0  0
    7.0430   -0.2730   29.1090 C   0  0  0  0  0  0  0  0  0  0  0  0
    7.0670   -1.5280   28.5510 C   0  0  0  0  0  0  0  0  0  0  0  0
    5.7360   -4.8660   23.6200 C   0  0  0  0  0  0  0  0  0  0  0  0
    6.4470   -5.3990   22.4200 C   0  0  0  0  0  0  0  0  0  0  0  0
  1  2  1  0
  2  3  2  0
  2  4  1  0
  4  5  1  0
  5  6  1  0
  6  7  1  0
  7  8  1  0
  8  9  2  0
  8 10  1  0
 10 11  1  0
 11 12  2  0
 12 13  1  0
 13 14  2  0
 14 15  1  0
 15 16  1  0
 16 17  2  0
 17 18  1  0
 18 19  1  0
 19 20  2  0
 19 21  1  0
 21 22  1  0
 15 23  1  0
 18 23  2  0
 14 24  1  0
 11 25  1  0
 24 25  2  0
  7 26  1  0
  4 27  1  0
 26 27  1  0
M  END
