piperidine-amides-29814-covalent
     RDKit          3D

 26 28  0  0  0  0  0  0  0  0999 V2000
    7.0230   -3.3770   19.3300 C   0  0  0  0  0  0  0  0  0  0  0  0
    6.3640   -4.2300   20.3180 C   0  0  0  0  0  0  0  0  0  0  0  0
    5.3740   -4.8770   19.9890 O   0  0  0  0  0  0  0  0  0  0  0  0
    6.8950   -4.3510   21.6520 N   0  0  0  0  0  0  0  0  0  0  0  0
    6.7100   -5.5930   22.3780 C   0  0  0  0  0  0  0  0  0  0  0  0
    6.1450   -5.3120   23.7470 C   0  0  0  0  0  0  0  0  0  0  0  0
    6.2080   -3.8120   23.8830 C   0  0  0  0  0  0  0  0  0  0  0  0
    5.6490   -3.2990   25.1650 C   0  0  0  0  0  0  0  0  0  0  0  0
    5.5740   -2.0770   25.3560 O   0  0  0  0  0  0  0  0  0  0  0  0
    5.1350   -4.1370   26.1910 N   0  0  0  0  0  0  0  0  0  0  0  0
    5.9240   -5.1290   26.8420 C   0  0  0  0  0  0  0  0  0  0  0  0
    6.0280   -3.9820   27.7210 C   0  0  0  0  0  0  0  0  0  0  0  0
    6.5200   -3.5130   28.8380 C   0  0  0  0  0  0  0  0  0  0  0  0
    6.4420   -2.2280   29.4570 C   0  0  0  0  0  0  0  0  0  0  0  0
    7.1170   -4.7550   29.1220 N   0  0  0  0  0  0  0  0  0  0  0  0
    6.6720   -5.3470   27.9780 N   0  0  0  0  0  0  0  0  0  0  0  0
    6.3030   -4.0670   28.2590 C   0  0  1  0  0  0  0  0  0  0  0  0
    6.5150   -2.8460   27.4390 C   0  0  0  0  0  0  0  0  0  0  0  0
    4.9220   -3.9590   28.3770 C   0  0  0  0  0  0  0  0  0  0  0  0
    4.2840   -3.5700   27.2090 C   0  0  2  0  0  0  0  0  0  0  0  0
    2.8900   -3.7340   27.1310 C   0  0  0  0  0  0  0  0  0  0  0  0
    2.3800   -4.9870   27.0350 F   0  0  0  0  0  0  0  0  0  0  0  0
    2.1800   -3.1890   28.1460 F   0  0  0  0  0  0  0  0  0  0  0  0
    2.4630   -3.1850   25.9200 F   0  0  0  0  0  0  0  0  0  0  0  0
    7.4950   -3.2310   23.5820 C   0  0  0  0  0  0  0  0  0  0  0  0
    7.7240   -3.3050   22.2230 C   0  0  0  0  0  0  0  0  0  0  0  0
  1  2  1  0
  2  3  2  0
  2  4  1  0
  4  5  1  0
  5  6  1  0
  6  7  1  0
  7  8  1  0
  8  9  2  0
  8 10  1  0
 10 11  1  0
 11 12  2  0
 12 13  1  0
 13 14  1  0
 13 15  2  0
 11 16  1  0
 15 16  1  0
 16 17  1  0
 17 18  1  6
 17 19  1  0
 10 20  1  0
 19 20  1  0
 20 21  1  1
 21 22  1  0
 21 23  1  0
 21 24  1  0
  7 25  1  0
  4 26  1  0
 25 26  1  0
M  END
