piperidine-amides-5159-covalent
     RDKit          3D

 22 23  0  0  0  0  0  0  0  0999 V2000
    7.1160   -3.2520   19.1950 C   0  0  0  0  0  0  0  0  0  0  0  0
    6.3490   -4.0060   20.2130 C   0  0  0  0  0  0  0  0  0  0  0  0
    5.2600   -4.4850   19.8500 O   0  0  0  0  0  0  0  0  0  0  0  0
    6.8490   -4.2180   21.5010 N   0  0  0  0  0  0  0  0  0  0  0  0
    7.5830   -3.1810   22.1520 C   0  0  0  0  0  0  0  0  0  0  0  0
    7.1570   -2.8770   23.5210 C   0  0  0  0  0  0  0  0  0  0  0  0
    6.4640   -3.9730   24.2440 C   0  0  0  0  0  0  0  0  0  0  0  0
    5.7280   -3.4550   25.4290 C   0  0  0  0  0  0  0  0  0  0  0  0
    4.5260   -3.1620   25.2830 O   0  0  0  0  0  0  0  0  0  0  0  0
    6.3530   -3.2860   26.6810 N   0  0  0  0  0  0  0  0  0  0  0  0
    6.1450   -4.1990   27.8440 C   0  0  0  0  0  0  0  0  0  0  0  0
    6.0300   -5.6490   27.4680 C   0  0  0  0  0  0  0  0  0  0  0  0
    4.9540   -6.2910   27.6370 O   0  0  0  0  0  0  0  0  0  0  0  0
    4.6960   -6.7250   28.8440 C   0  0  0  0  0  0  0  0  0  0  0  0
    3.5090   -7.2940   29.2470 C   0  0  0  0  0  0  0  0  0  0  0  0
    3.2010   -7.7530   30.5020 C   0  0  0  0  0  0  0  0  0  0  0  0
    4.1540   -7.6420   31.4520 C   0  0  0  0  0  0  0  0  0  0  0  0
    3.9430   -8.0690   32.7450 F   0  0  0  0  0  0  0  0  0  0  0  0
    5.3530   -7.0890   31.1050 C   0  0  0  0  0  0  0  0  0  0  0  0
    5.6490   -6.6310   29.8400 C   0  0  0  0  0  0  0  0  0  0  0  0
    5.5670   -4.7600   23.3310 C   0  0  0  0  0  0  0  0  0  0  0  0
    6.4470   -5.3480   22.3000 C   0  0  0  0  0  0  0  0  0  0  0  0
  1  2  1  0
  2  3  2  0
  2  4  1  0
  4  5  1  0
  5  6  1  0
  6  7  1  0
  7  8  1  0
  8  9  2  0
  8 10  1  0
 10 11  1  0
 11 12  1  0
 12 13  1  0
 13 14  1  0
 14 15  2  0
 15 16  1  0
 16 17  2  0
 17 18  1  0
 17 19  1  0
 14 20  1  0
 19 20  2  0
  7 21  1  0
  4 22  1  0
 21 22  1  0
M  END
