piperidine-amides-21555-covalent
     RDKit          3D

 23 24  0  0  0  0  0  0  0  0999 V2000
    7.0300   -3.3200   19.3200 C   0  0  0  0  0  0  0  0  0  0  0  0
    6.3600   -4.1380   20.3410 C   0  0  0  0  0  0  0  0  0  0  0  0
    5.3550   -4.7950   19.9650 O   0  0  0  0  0  0  0  0  0  0  0  0
    6.8590   -4.2040   21.6520 N   0  0  0  0  0  0  0  0  0  0  0  0
    7.7370   -3.1690   22.1650 C   0  0  0  0  0  0  0  0  0  0  0  0
    7.5060   -3.0670   23.6380 C   0  0  0  0  0  0  0  0  0  0  0  0
    6.1440   -3.5960   23.9500 C   0  0  0  0  0  0  0  0  0  0  0  0
    5.7750   -3.3530   25.3650 C   0  0  0  0  0  0  0  0  0  0  0  0
    4.5560   -3.4540   25.6660 O   0  0  0  0  0  0  0  0  0  0  0  0
    6.6940   -2.9750   26.3830 N   0  0  0  0  0  0  0  0  0  0  0  0
    7.3630   -4.0210   27.1580 C   0  0  0  0  0  0  0  0  0  0  0  0
    8.3650   -4.8490   26.3530 C   0  0  0  0  0  0  0  0  0  0  0  0
    6.5930   -1.7330   27.0940 C   0  0  0  0  0  0  0  0  0  0  0  0
    7.1980   -1.6890   28.3470 C   0  0  0  0  0  0  0  0  0  0  0  0
    7.1610   -0.5530   29.1370 C   0  0  0  0  0  0  0  0  0  0  0  0
    7.7610   -0.5040   30.3830 C   0  0  0  0  0  0  0  0  0  0  0  0
    6.5240    0.5640   28.6980 C   0  0  0  0  0  0  0  0  0  0  0  0
    5.8300    0.6910   27.3860 C   0  0  0  0  0  0  0  0  0  0  0  0
    5.9250   -0.6140   26.5900 C   0  0  0  0  0  0  0  0  0  0  0  0
    5.4250   -0.7810   25.4580 O   0  0  0  0  0  0  0  0  0  0  0  0
    4.5370    0.0620   24.7970 C   0  0  0  0  0  0  0  0  0  0  0  0
    6.0320   -5.0750   23.6510 C   0  0  0  0  0  0  0  0  0  0  0  0
    6.7040   -5.4060   22.4820 C   0  0  0  0  0  0  0  0  0  0  0  0
  1  2  1  0
  2  3  2  0
  2  4  1  0
  4  5  1  0
  5  6  1  0
  6  7  1  0
  7  8  1  0
  8  9  2  0
  8 10  1  0
 10 11  1  0
 11 12  1  0
 10 13  1  0
 13 14  2  0
 14 15  1  0
 15 16  1  0
 15 17  2  0
 17 18  1  0
 13 19  1  0
 18 19  2  0
 19 20  1  0
 20 21  1  0
  7 22  1  0
  4 23  1  0
 22 23  1  0
M  END
