piperidine-amides-11213-covalent
     RDKit          3D

 20 20  0  0  0  0  0  0  0  0999 V2000
    7.1960   -3.9570   19.5770 C   0  0  0  0  0  0  0  0  0  0  0  0
    6.0130   -3.9090   20.2950 C   0  0  0  0  0  0  0  0  0  0  0  0
    4.9770   -4.0720   19.6550 O   0  0  0  0  0  0  0  0  0  0  0  0
    6.1390   -3.8120   21.6590 N   0  0  0  0  0  0  0  0  0  0  0  0
    7.3080   -3.0750   22.0940 C   0  0  0  0  0  0  0  0  0  0  0  0
    7.1540   -2.8620   23.5550 C   0  0  0  0  0  0  0  0  0  0  0  0
    5.8280   -3.3570   24.0260 C   0  0  0  0  0  0  0  0  0  0  0  0
    5.7100   -3.1340   25.4550 C   0  0  0  0  0  0  0  0  0  0  0  0
    4.5820   -2.9200   25.9900 O   0  0  0  0  0  0  0  0  0  0  0  0
    6.8570   -3.1550   26.2510 N   0  0  0  0  0  0  0  0  0  0  0  0
    7.1630   -4.3320   27.0680 C   0  0  0  0  0  0  0  0  0  0  0  0
    7.5130   -3.7590   28.3630 C   0  0  1  0  0  0  0  0  0  0  0  0
    8.6100   -3.1570   28.4340 O   0  0  0  0  0  0  0  0  0  0  0  0
    6.5420   -2.7160   28.7720 C   0  0  0  0  0  0  0  0  0  0  0  0
    7.1650   -1.3950   29.1660 C   0  0  0  0  0  0  0  0  0  0  0  0
    6.3080   -0.6490   30.1750 C   0  0  0  0  0  0  0  0  0  0  0  0
    7.2150    0.1030   31.0830 C   0  0  0  0  0  0  0  0  0  0  0  0
    6.7220    0.4370   32.3180 C   0  0  0  0  0  0  0  0  0  0  0  0
    5.6380   -4.8230   23.7590 C   0  0  0  0  0  0  0  0  0  0  0  0
    6.0020   -5.0940   22.3340 C   0  0  0  0  0  0  0  0  0  0  0  0
  1  2  1  0
  2  3  2  0
  2  4  1  0
  4  5  1  0
  5  6  1  0
  6  7  1  0
  7  8  1  0
  8  9  2  0
  8 10  1  0
 10 11  1  0
 11 12  1  0
 12 13  1  6
 12 14  1  0
 14 15  1  0
 15 16  1  0
 16 17  1  0
 17 18  1  0
  7 19  1  0
  4 20  1  0
 19 20  1  0
M  END
