piperidine-amides-9283-covalent
     RDKit          3D

 19 22  0  0  0  0  0  0  0  0999 V2000
    7.0580   -3.3280   19.3050 C   0  0  0  0  0  0  0  0  0  0  0  0
    6.3680   -4.1320   20.3150 C   0  0  0  0  0  0  0  0  0  0  0  0
    5.3810   -4.8060   19.9730 O   0  0  0  0  0  0  0  0  0  0  0  0
    6.8260   -4.1960   21.6460 N   0  0  0  0  0  0  0  0  0  0  0  0
    7.7520   -3.2130   22.1960 C   0  0  0  0  0  0  0  0  0  0  0  0
    7.3860   -3.0160   23.6410 C   0  0  0  0  0  0  0  0  0  0  0  0
    6.0850   -3.6790   23.9480 C   0  0  0  0  0  0  0  0  0  0  0  0
    5.5460   -3.3740   25.2920 C   0  0  0  0  0  0  0  0  0  0  0  0
    4.3470   -3.6730   25.5590 O   0  0  0  0  0  0  0  0  0  0  0  0
    6.2670   -2.7390   26.3240 N   0  0  0  0  0  0  0  0  0  0  0  0
    5.4870   -2.0110   27.3510 C   0  0  2  0  0  0  0  0  0  0  0  0
    5.2680   -0.6050   26.9750 C   0  0  1  0  0  0  0  0  0  0  0  0
    4.7450    0.1400   28.1120 C   0  0  0  0  0  0  0  0  0  0  0  0
    5.8090   -0.2580   29.1050 C   0  0  2  0  0  0  0  0  0  0  0  0
    6.9900   -0.4540   28.4100 C   0  0  2  0  0  0  0  0  0  0  0  0
    6.6400   -0.1260   26.9920 C   0  0  0  0  0  0  0  0  0  0  0  0
    6.3020   -1.7620   28.6360 C   0  0  2  0  0  0  0  0  0  0  0  0
    6.1720   -5.1710   23.7610 C   0  0  0  0  0  0  0  0  0  0  0  0
    6.6860   -5.4530   22.3660 C   0  0  0  0  0  0  0  0  0  0  0  0
  1  2  1  0
  2  3  2  0
  2  4  1  0
  4  5  1  0
  5  6  1  0
  6  7  1  0
  7  8  1  0
  8  9  2  0
  8 10  1  0
 11 10  1  6
 11 12  1  0
 12 13  1  1
 14 13  1  6
 14 15  1  0
 12 16  1  0
 15 16  1  6
 17 11  1  6
 14 17  1  0
 15 17  1  0
  7 18  1  0
  4 19  1  0
 18 19  1  0
M  END
