piperidine-amides-4119-covalent
     RDKit          3D

 27 29  0  0  0  0  0  0  0  0999 V2000
    7.1000   -3.3430   19.3100 C   0  0  0  0  0  0  0  0  0  0  0  0
    6.3590   -4.1170   20.3200 C   0  0  0  0  0  0  0  0  0  0  0  0
    5.3020   -4.6660   19.9300 O   0  0  0  0  0  0  0  0  0  0  0  0
    6.8480   -4.2870   21.6420 N   0  0  0  0  0  0  0  0  0  0  0  0
    7.6420   -3.2570   22.2280 C   0  0  0  0  0  0  0  0  0  0  0  0
    7.3070   -3.0090   23.6170 C   0  0  0  0  0  0  0  0  0  0  0  0
    6.0530   -3.6720   24.0080 C   0  0  0  0  0  0  0  0  0  0  0  0
    5.5900   -3.3450   25.3990 C   0  0  0  0  0  0  0  0  0  0  0  0
    4.3750   -3.4490   25.6700 O   0  0  0  0  0  0  0  0  0  0  0  0
    6.4620   -2.8900   26.4110 N   0  0  0  0  0  0  0  0  0  0  0  0
    6.4250   -1.6470   27.0890 C   0  0  0  0  0  0  0  0  0  0  0  0
    5.8250   -0.3980   26.5970 C   0  0  0  0  0  0  0  0  0  0  0  0
    5.9080    0.8400   27.5140 C   0  0  0  0  0  0  0  0  0  0  0  0
    6.5420    0.6710   28.7230 C   0  0  0  0  0  0  0  0  0  0  0  0
    6.4350    2.0740   29.3280 C   0  0  0  0  0  0  0  0  0  0  0  0
    7.3070    2.9200   28.4340 C   0  0  0  0  0  0  0  0  0  0  0  0
    7.2280    4.3430   29.0200 C   0  0  0  0  0  0  0  0  0  0  0  0
    6.4590    4.8180   30.2200 C   0  0  0  0  0  0  0  0  0  0  0  0
    6.4540    6.2540   30.7170 C   0  0  0  0  0  0  0  0  0  0  0  0
    7.7640    6.5470   31.4690 C   0  0  0  0  0  0  0  0  0  0  0  0
    8.0600    5.2720   32.1790 C   0  0  0  0  0  0  0  0  0  0  0  0
    5.6280    3.8180   31.0040 C   0  0  0  0  0  0  0  0  0  0  0  0
    5.6680    2.5360   30.5180 C   0  0  0  0  0  0  0  0  0  0  0  0
    7.1190   -0.4600   29.2430 C   0  0  0  0  0  0  0  0  0  0  0  0
    7.0830   -1.6110   28.4780 C   0  0  0  0  0  0  0  0  0  0  0  0
    6.2000   -5.1690   23.8050 C   0  0  0  0  0  0  0  0  0  0  0  0
    6.5680   -5.5060   22.3650 C   0  0  0  0  0  0  0  0  0  0  0  0
  1  2  1  0
  2  3  2  0
  2  4  1  0
  4  5  1  0
  5  6  1  0
  6  7  1  0
  7  8  1  0
  8  9  2  0
  8 10  1  0
 10 11  1  0
 11 12  2  0
 12 13  1  0
 13 14  2  0
 14 15  1  0
 15 16  2  0
 16 17  1  0
 17 18  2  0
 18 19  1  0
 19 20  1  0
 20 21  1  0
 18 22  1  0
 15 23  1  0
 22 23  2  0
 14 24  1  0
 11 25  1  0
 24 25  2  0
  7 26  1  0
  4 27  1  0
 26 27  1  0
M  END
