piperidine-amides-13274-covalent
     RDKit          3D

 16 16  0  0  0  0  0  0  0  0999 V2000
    7.1260   -3.2500   19.1600 C   0  0  0  0  0  0  0  0  0  0  0  0
    6.3510   -3.9910   20.1880 C   0  0  0  0  0  0  0  0  0  0  0  0
    5.2540   -4.4580   19.8350 O   0  0  0  0  0  0  0  0  0  0  0  0
    6.8550   -4.2000   21.4750 N   0  0  0  0  0  0  0  0  0  0  0  0
    7.5790   -3.1390   22.0900 C   0  0  0  0  0  0  0  0  0  0  0  0
    7.1350   -2.8140   23.4460 C   0  0  0  0  0  0  0  0  0  0  0  0
    6.4650   -3.9200   24.1680 C   0  0  0  0  0  0  0  0  0  0  0  0
    5.8070   -3.3810   25.3890 C   0  0  0  0  0  0  0  0  0  0  0  0
    4.5670   -3.2460   25.3900 O   0  0  0  0  0  0  0  0  0  0  0  0
    6.5760   -3.0210   26.5120 N   0  0  0  0  0  0  0  0  0  0  0  0
    6.2080   -3.3010   27.9220 C   0  0  0  0  0  0  0  0  0  0  0  0
    6.3310   -4.7270   28.3680 C   0  0  0  0  0  0  0  0  0  0  0  0
    6.0070   -5.8030   27.4400 C   0  0  0  0  0  0  0  0  0  0  0  0
    4.7430   -6.2730   27.7110 F   0  0  0  0  0  0  0  0  0  0  0  0
    5.5890   -4.7550   23.3360 C   0  0  0  0  0  0  0  0  0  0  0  0
    6.2400   -5.2550   22.2280 C   0  0  0  0  0  0  0  0  0  0  0  0
  1  2  1  0
  2  3  2  0
  2  4  1  0
  4  5  1  0
  5  6  1  0
  6  7  1  0
  7  8  1  0
  8  9  2  0
  8 10  1  0
 10 11  1  0
 11 12  1  0
 12 13  1  0
 13 14  1  0
  7 15  1  0
  4 16  1  0
 15 16  1  0
M  END
