piperidine-amides-703-covalent
     RDKit          3D

 25 27  0  0  0  0  0  0  0  0999 V2000
    6.9960   -3.3790   19.3390 C   0  0  0  0  0  0  0  0  0  0  0  0
    6.3220   -4.1410   20.3740 C   0  0  0  0  0  0  0  0  0  0  0  0
    5.3540   -4.8650   19.9870 O   0  0  0  0  0  0  0  0  0  0  0  0
    6.6970   -4.1600   21.7470 N   0  0  0  0  0  0  0  0  0  0  0  0
    6.6350   -5.4930   22.4170 C   0  0  0  0  0  0  0  0  0  0  0  0
    6.0930   -5.1640   23.8730 C   0  0  0  0  0  0  0  0  0  0  0  0
    6.1150   -3.6640   23.9910 C   0  0  0  0  0  0  0  0  0  0  0  0
    5.4680   -3.0480   25.3190 C   0  0  0  0  0  0  0  0  0  0  0  0
    4.8120   -2.0630   25.0180 O   0  0  0  0  0  0  0  0  0  0  0  0
    5.7650   -3.7170   26.3730 N   0  0  0  0  0  0  0  0  0  0  0  0
    6.0270   -4.3910   27.5390 C   0  0  2  0  0  0  0  0  0  0  0  0
    6.1760   -5.6940   27.9460 C   0  0  0  0  0  0  0  0  0  0  0  0
    5.1930   -3.8280   28.6550 C   0  0  0  0  0  0  0  0  0  0  0  0
    5.4170   -2.5740   29.1520 N   0  0  0  0  0  0  0  0  0  0  0  0
    4.4690   -2.4200   30.1680 C   0  0  0  0  0  0  0  0  0  0  0  0
    4.3770   -1.1880   30.9700 C   0  0  0  0  0  0  0  0  0  0  0  0
    3.3000   -1.4000   31.9060 C   0  0  0  0  0  0  0  0  0  0  0  0
    3.1510    0.0610   32.8970 Cl  0  0  0  0  0  0  0  0  0  0  0  0
    2.3190   -2.4580   32.2560 C   0  0  0  0  0  0  0  0  0  0  0  0
    1.1030   -2.3720   33.5030 Cl  0  0  0  0  0  0  0  0  0  0  0  0
    2.6220   -3.6520   31.2650 C   0  0  0  0  0  0  0  0  0  0  0  0
    3.7330   -3.5790   30.2190 C   0  0  0  0  0  0  0  0  0  0  0  0
    4.1700   -4.3960   29.3200 N   0  0  0  0  0  0  0  0  0  0  0  0
    7.5060   -3.1240   23.6460 C   0  0  0  0  0  0  0  0  0  0  0  0
    7.6360   -3.1710   22.2820 C   0  0  0  0  0  0  0  0  0  0  0  0
  1  2  1  0
  2  3  2  0
  2  4  1  0
  4  5  1  0
  5  6  1  0
  6  7  1  0
  7  8  1  0
  8  9  2  0
  8 10  1  0
 10 11  1  0
 11 12  1  6
 11 13  1  0
 13 14  2  0
 14 15  1  0
 15 16  2  0
 16 17  1  0
 17 18  1  0
 17 19  2  0
 19 20  1  0
 19 21  1  0
 15 22  1  0
 21 22  2  0
 13 23  1  0
 22 23  1  0
  7 24  1  0
  4 25  1  0
 24 25  1  0
M  END
