piperidine-amides-31107-covalent
     RDKit          3D

 23 25  0  0  0  0  0  0  0  0999 V2000
    7.0480   -3.3570   19.3760 C   0  0  0  0  0  0  0  0  0  0  0  0
    6.3830   -4.2090   20.3710 C   0  0  0  0  0  0  0  0  0  0  0  0
    5.4120   -4.8950   19.9970 O   0  0  0  0  0  0  0  0  0  0  0  0
    6.8290   -4.3080   21.7080 N   0  0  0  0  0  0  0  0  0  0  0  0
    6.7300   -5.5600   22.4500 C   0  0  0  0  0  0  0  0  0  0  0  0
    6.1740   -5.2390   23.8180 C   0  0  0  0  0  0  0  0  0  0  0  0
    6.1560   -3.7700   24.0530 C   0  0  0  0  0  0  0  0  0  0  0  0
    5.6760   -3.3440   25.4030 C   0  0  0  0  0  0  0  0  0  0  0  0
    4.7860   -2.4520   25.4640 O   0  0  0  0  0  0  0  0  0  0  0  0
    6.0970   -3.8690   26.6490 N   0  0  0  0  0  0  0  0  0  0  0  0
    5.5490   -5.1880   27.0680 C   0  0  0  0  0  0  0  0  0  0  0  0
    5.3180   -5.2320   28.5250 C   0  0  0  0  0  0  0  0  0  0  0  0
    4.8720   -3.9580   29.0340 C   0  0  0  0  0  0  0  0  0  0  0  0
    3.6970   -3.9010   29.9690 C   0  0  0  0  0  0  0  0  0  0  0  0
    3.2710   -2.5300   30.4680 C   0  0  0  0  0  0  0  0  0  0  0  0
    2.1560   -2.4170   31.3670 F   0  0  0  0  0  0  0  0  0  0  0  0
    4.0630   -1.3580   29.9790 C   0  0  0  0  0  0  0  0  0  0  0  0
    3.6080    0.4050   30.5500 Br  0  0  0  0  0  0  0  0  0  0  0  0
    5.1090   -1.5890   29.1180 C   0  0  0  0  0  0  0  0  0  0  0  0
    5.4960   -2.8460   28.6620 C   0  0  0  0  0  0  0  0  0  0  0  0
    6.5880   -3.1080   27.7430 C   0  0  0  0  0  0  0  0  0  0  0  0
    7.4530   -3.0980   23.7200 C   0  0  0  0  0  0  0  0  0  0  0  0
    7.7060   -3.2630   22.2420 C   0  0  0  0  0  0  0  0  0  0  0  0
  1  2  1  0
  2  3  2  0
  2  4  1  0
  4  5  1  0
  5  6  1  0
  6  7  1  0
  7  8  1  0
  8  9  2  0
  8 10  1  0
 10 11  1  0
 11 12  1  0
 12 13  1  0
 13 14  2  0
 14 15  1  0
 15 16  1  0
 15 17  2  0
 17 18  1  0
 17 19  1  0
 13 20  1  0
 19 20  2  0
 10 21  1  0
 20 21  1  0
  7 22  1  0
  4 23  1  0
 22 23  1  0
M  END
