piperidine-amides-8975-covalent
     RDKit          3D

 22 23  0  0  0  0  0  0  0  0999 V2000
    7.0790   -3.2990   19.2820 C   0  0  0  0  0  0  0  0  0  0  0  0
    6.3580   -4.0810   20.2920 C   0  0  0  0  0  0  0  0  0  0  0  0
    5.3500   -4.7160   19.9470 O   0  0  0  0  0  0  0  0  0  0  0  0
    6.8020   -4.1690   21.6300 N   0  0  0  0  0  0  0  0  0  0  0  0
    6.6950   -5.4080   22.3740 C   0  0  0  0  0  0  0  0  0  0  0  0
    6.0180   -5.0650   23.6760 C   0  0  0  0  0  0  0  0  0  0  0  0
    6.0730   -3.5950   23.9430 C   0  0  0  0  0  0  0  0  0  0  0  0
    5.6560   -3.2460   25.3260 C   0  0  0  0  0  0  0  0  0  0  0  0
    4.4260   -3.2570   25.6250 O   0  0  0  0  0  0  0  0  0  0  0  0
    6.5470   -2.8840   26.3630 N   0  0  0  0  0  0  0  0  0  0  0  0
    6.2050   -3.1910   27.7750 C   0  0  0  0  0  0  0  0  0  0  0  0
    6.1780   -1.9070   28.5290 C   0  0  0  0  0  0  0  0  0  0  0  0
    7.3800   -1.4850   29.2910 C   0  0  0  0  0  0  0  0  0  0  0  0
    7.3590   -0.1830   30.0610 C   0  0  0  0  0  0  0  0  0  0  0  0
    6.1050    0.6550   30.0230 C   0  0  0  0  0  0  0  0  0  0  0  0
    6.2930    2.1780   30.9970 S   0  0  0  0  0  0  0  0  0  0  0  0
    6.0150    1.4420   32.6500 C   0  0  0  0  0  0  0  0  0  0  0  0
    6.6170    0.2160   32.7390 C   0  0  0  0  0  0  0  0  0  0  0  0
    5.0250    0.2260   29.3100 C   0  0  0  0  0  0  0  0  0  0  0  0
    5.0620   -1.0810   28.5490 C   0  0  0  0  0  0  0  0  0  0  0  0
    7.4020   -2.9710   23.6460 C   0  0  0  0  0  0  0  0  0  0  0  0
    7.6870   -3.1390   22.1670 C   0  0  0  0  0  0  0  0  0  0  0  0
  1  2  1  0
  2  3  2  0
  2  4  1  0
  4  5  1  0
  5  6  1  0
  6  7  1  0
  7  8  1  0
  8  9  2  0
  8 10  1  0
 10 11  1  0
 11 12  1  0
 12 13  2  0
 13 14  1  0
 14 15  2  0
 15 16  1  0
 16 17  1  0
 17 18  1  0
 15 19  1  0
 12 20  1  0
 19 20  2  0
  7 21  1  0
  4 22  1  0
 21 22  1  0
M  END
