piperidine-amides-23391-covalent
     RDKit          3D

 24 26  0  0  0  0  0  0  0  0999 V2000
    7.0230   -3.3710   19.4320 C   0  0  0  0  0  0  0  0  0  0  0  0
    6.4080   -4.2680   20.4290 C   0  0  0  0  0  0  0  0  0  0  0  0
    5.4360   -4.9530   20.0120 O   0  0  0  0  0  0  0  0  0  0  0  0
    6.9080   -4.3820   21.7660 N   0  0  0  0  0  0  0  0  0  0  0  0
    6.5950   -5.5520   22.5220 C   0  0  0  0  0  0  0  0  0  0  0  0
    5.9710   -5.2210   23.7980 C   0  0  0  0  0  0  0  0  0  0  0  0
    5.8770   -3.7630   23.9440 C   0  0  0  0  0  0  0  0  0  0  0  0
    5.1310   -3.2720   25.1790 C   0  0  0  0  0  0  0  0  0  0  0  0
    4.2420   -2.4290   25.0120 O   0  0  0  0  0  0  0  0  0  0  0  0
    5.3540   -3.6910   26.5100 N   0  0  0  0  0  0  0  0  0  0  0  0
    4.4960   -3.8220   27.5780 C   0  0  0  0  0  0  0  0  0  0  0  0
    5.1880   -3.9180   28.8630 C   0  0  0  0  0  0  0  0  0  0  0  0
    5.6620   -2.4960   29.2850 C   0  0  0  0  0  0  0  0  0  0  0  0
    5.4590   -1.6040   30.3370 C   0  0  0  0  0  0  0  0  0  0  0  0
    6.3040   -0.3350   30.0380 C   0  0  0  0  0  0  0  0  0  0  0  0
    6.2960    0.7150   30.9460 O   0  0  0  0  0  0  0  0  0  0  0  0
    7.5060    0.6790   31.6430 C   0  0  0  0  0  0  0  0  0  0  0  0
    7.2350    0.3020   33.1050 C   0  0  0  0  0  0  0  0  0  0  0  0
    7.1750   -0.0830   28.8370 C   0  0  0  0  0  0  0  0  0  0  0  0
    7.2820   -1.1400   27.7790 C   0  0  0  0  0  0  0  0  0  0  0  0
    6.4850   -2.4020   28.0390 C   0  0  0  0  0  0  0  0  0  0  0  0
    6.5810   -3.4460   27.0360 C   0  0  0  0  0  0  0  0  0  0  0  0
    7.1890   -3.0940   23.6880 C   0  0  0  0  0  0  0  0  0  0  0  0
    7.6450   -3.2820   22.3740 C   0  0  0  0  0  0  0  0  0  0  0  0
  1  2  1  0
  2  3  2  0
  2  4  1  0
  4  5  1  0
  5  6  1  0
  6  7  1  0
  7  8  1  0
  8  9  2  0
  8 10  1  0
 10 11  1  0
 11 12  1  0
 12 13  1  0
 13 14  2  0
 14 15  1  0
 15 16  1  0
 16 17  1  0
 17 18  1  0
 15 19  2  0
 19 20  1  0
 13 21  1  0
 20 21  2  0
 10 22  1  0
 21 22  1  0
  7 23  1  0
  4 24  1  0
 23 24  1  0
M  END
