piperidine-amides-30679-covalent
     RDKit          3D

 27 29  0  0  0  0  0  0  0  0999 V2000
    7.1060   -3.2840   19.2330 C   0  0  0  0  0  0  0  0  0  0  0  0
    6.3810   -4.0440   20.2540 C   0  0  0  0  0  0  0  0  0  0  0  0
    5.3500   -4.6610   19.9310 O   0  0  0  0  0  0  0  0  0  0  0  0
    6.8590   -4.1180   21.5730 N   0  0  0  0  0  0  0  0  0  0  0  0
    7.7040   -3.0900   22.1350 C   0  0  0  0  0  0  0  0  0  0  0  0
    6.9260   -2.5220   23.2860 C   0  0  0  0  0  0  0  0  0  0  0  0
    6.4940   -3.5940   24.2360 C   0  0  0  0  0  0  0  0  0  0  0  0
    5.3830   -3.1590   25.1170 C   0  0  0  0  0  0  0  0  0  0  0  0
    4.4360   -3.9580   25.3600 O   0  0  0  0  0  0  0  0  0  0  0  0
    5.2670   -1.8880   25.7330 N   0  0  0  0  0  0  0  0  0  0  0  0
    6.3960   -1.2660   26.3750 C   0  0  0  0  0  0  0  0  0  0  0  0
    5.4690   -1.3370   27.5080 C   0  0  0  0  0  0  0  0  0  0  0  0
    5.9470   -2.1820   28.6200 C   0  0  0  0  0  0  0  0  0  0  0  0
    6.1740   -1.2760   29.7950 C   0  0  0  0  0  0  0  0  0  0  0  0
    6.0690    0.1440   29.2650 C   0  0  0  0  0  0  0  0  0  0  0  0
    5.2070    0.0390   28.0590 C   0  0  1  0  0  0  0  0  0  0  0  0
    5.5910    1.1300   27.2260 N   0  0  0  0  0  0  0  0  0  0  0  0
    5.2170    2.3480   27.6760 C   0  0  0  0  0  0  0  0  0  0  0  0
    4.9580    2.5810   28.9060 O   0  0  0  0  0  0  0  0  0  0  0  0
    5.1400    3.2210   26.7950 O   0  0  0  0  0  0  0  0  0  0  0  0
    3.8880    3.7670   26.6030 C   0  0  0  0  0  0  0  0  0  0  0  0
    2.7200    2.8390   26.3390 C   0  0  0  0  0  0  0  0  0  0  0  0
    4.0220    4.6570   25.4080 C   0  0  0  0  0  0  0  0  0  0  0  0
    3.5560    4.7010   27.7270 C   0  0  0  0  0  0  0  0  0  0  0  0
    4.3300   -1.8600   26.8610 C   0  0  0  0  0  0  0  0  0  0  0  0
    6.0680   -4.8920   23.6440 C   0  0  0  0  0  0  0  0  0  0  0  0
    6.5900   -5.2360   22.4150 C   0  0  0  0  0  0  0  0  0  0  0  0
  1  2  1  0
  2  3  2  0
  2  4  1  0
  4  5  1  0
  5  6  1  0
  6  7  1  0
  7  8  1  0
  8  9  2  0
  8 10  1  0
 10 11  1  0
 12 11  1  0
 12 13  1  0
 13 14  1  0
 14 15  1  0
 12 16  1  0
 15 16  1  0
 16 17  1  6
 17 18  1  0
 18 19  2  0
 18 20  1  0
 21 20  1  0
 21 22  1  0
 21 23  1  0
 21 24  1  0
 10 25  1  0
 12 25  1  0
  7 26  1  0
  4 27  1  0
 26 27  1  0
M  END
