piperidine-amides-14509-covalent
     RDKit          3D

 25 26  0  0  0  0  0  0  0  0999 V2000
    7.0690   -3.2850   19.2590 C   0  0  0  0  0  0  0  0  0  0  0  0
    6.3520   -4.0530   20.2840 C   0  0  0  0  0  0  0  0  0  0  0  0
    5.3460   -4.6970   19.9340 O   0  0  0  0  0  0  0  0  0  0  0  0
    6.8060   -4.0930   21.6260 N   0  0  0  0  0  0  0  0  0  0  0  0
    7.7290   -3.0900   22.0840 C   0  0  0  0  0  0  0  0  0  0  0  0
    7.5570   -2.9550   23.5500 C   0  0  0  0  0  0  0  0  0  0  0  0
    6.1630   -3.4670   23.8040 C   0  0  0  0  0  0  0  0  0  0  0  0
    5.7620   -3.1770   25.2110 C   0  0  0  0  0  0  0  0  0  0  0  0
    4.6430   -3.5580   25.5540 O   0  0  0  0  0  0  0  0  0  0  0  0
    6.6660   -2.4940   26.0220 N   0  0  0  0  0  0  0  0  0  0  0  0
    6.4260   -2.2850   27.4040 C   0  0  0  0  0  0  0  0  0  0  0  0
    6.4130   -0.9500   27.8280 C   0  0  0  0  0  0  0  0  0  0  0  0
    6.9520   -0.3800   28.9490 C   0  0  0  0  0  0  0  0  0  0  0  0
    7.6610   -1.0070   29.9500 C   0  0  0  0  0  0  0  0  0  0  0  0
    6.6590    1.0540   28.9390 N   0  0  0  0  0  0  0  0  0  0  0  0
    5.9570    1.4140   27.8470 N   0  0  0  0  0  0  0  0  0  0  0  0
    5.4830    2.7170   27.4690 C   0  0  0  0  0  0  0  0  0  0  0  0
    4.0320    3.1070   27.8390 C   0  0  0  0  0  0  0  0  0  0  0  0
    3.7200    2.5400   28.9160 O   0  0  0  0  0  0  0  0  0  0  0  0
    3.2900    3.9080   27.1130 O   0  0  0  0  0  0  0  0  0  0  0  0
    3.3860    3.5870   25.7650 C   0  0  0  0  0  0  0  0  0  0  0  0
    5.8560    0.1310   27.2340 C   0  0  0  0  0  0  0  0  0  0  0  0
    5.1260   -0.1090   25.8900 C   0  0  0  0  0  0  0  0  0  0  0  0
    6.1050   -4.9740   23.6170 C   0  0  0  0  0  0  0  0  0  0  0  0
    6.6660   -5.3100   22.3930 C   0  0  0  0  0  0  0  0  0  0  0  0
  1  2  1  0
  2  3  2  0
  2  4  1  0
  4  5  1  0
  5  6  1  0
  6  7  1  0
  7  8  1  0
  8  9  2  0
  8 10  1  0
 10 11  1  0
 11 12  1  0
 12 13  1  0
 13 14  1  0
 13 15  2  0
 15 16  1  0
 16 17  1  0
 17 18  1  0
 18 19  2  0
 18 20  1  0
 20 21  1  0
 12 22  2  0
 16 22  1  0
 22 23  1  0
  7 24  1  0
  4 25  1  0
 24 25  1  0
M  END
