piperidine-amides-35303-covalent
     RDKit          3D

 32 34  0  0  0  0  0  0  0  0999 V2000
    7.1600   -3.3310   19.2470 C   0  0  0  0  0  0  0  0  0  0  0  0
    6.3950   -4.1210   20.2330 C   0  0  0  0  0  0  0  0  0  0  0  0
    5.2980   -4.5510   19.8890 O   0  0  0  0  0  0  0  0  0  0  0  0
    6.9660   -4.4060   21.4710 N   0  0  0  0  0  0  0  0  0  0  0  0
    6.4400   -5.4820   22.2490 C   0  0  0  0  0  0  0  0  0  0  0  0
    5.5860   -4.8640   23.3150 C   0  0  0  0  0  0  0  0  0  0  0  0
    6.4230   -3.8510   24.0950 C   0  0  0  0  0  0  0  0  0  0  0  0
    5.5760   -3.2160   25.0920 C   0  0  0  0  0  0  0  0  0  0  0  0
    4.3420   -3.2530   25.0030 O   0  0  0  0  0  0  0  0  0  0  0  0
    6.1890   -2.5690   26.1450 N   0  0  0  0  0  0  0  0  0  0  0  0
    6.0220   -3.1830   27.3880 C   0  0  0  0  0  0  0  0  0  0  0  0
    6.2420   -2.0330   28.2970 C   0  0  1  0  0  0  0  0  0  0  0  0
    7.0790   -2.2770   29.2770 C   0  0  0  0  0  0  0  0  0  0  0  0
    7.9390   -1.2670   29.5410 C   0  0  0  0  0  0  0  0  0  0  0  0
    7.7310   -0.3130   28.6030 O   0  0  0  0  0  0  0  0  0  0  0  0
    6.9860   -0.9030   27.6050 C   0  0  0  0  0  0  0  0  0  0  0  0
    6.0460   -1.2900   26.8340 C   0  0  0  0  0  0  0  0  0  0  0  0
    6.0120   -0.0680   25.9580 C   0  0  0  0  0  0  0  0  0  0  0  0
    5.8700    1.2470   26.6900 C   0  0  0  0  0  0  0  0  0  0  0  0
    5.8340    2.4510   25.7890 C   0  0  0  0  0  0  0  0  0  0  0  0
    6.4550    3.6050   26.1860 F   0  0  0  0  0  0  0  0  0  0  0  0
    6.3870    2.0820   24.5760 F   0  0  0  0  0  0  0  0  0  0  0  0
    4.5280    2.8330   25.6550 F   0  0  0  0  0  0  0  0  0  0  0  0
    5.7640    1.4160   28.1900 C   0  0  0  0  0  0  0  0  0  0  0  0
    5.7950    0.1590   29.0250 C   0  0  0  0  0  0  0  0  0  0  0  0
    5.6770    0.2540   30.5200 C   0  0  0  0  0  0  0  0  0  0  0  0
    5.4380   -1.0010   31.0430 F   0  0  0  0  0  0  0  0  0  0  0  0
    4.6440    1.0990   30.9210 F   0  0  0  0  0  0  0  0  0  0  0  0
    6.8640    0.7660   31.0390 F   0  0  0  0  0  0  0  0  0  0  0  0
    5.9280   -1.0790   28.3560 C   0  0  0  0  0  0  0  0  0  0  0  0
    6.9470   -2.7620   23.2090 C   0  0  0  0  0  0  0  0  0  0  0  0
    7.7230   -3.3590   22.0860 C   0  0  0  0  0  0  0  0  0  0  0  0
  1  2  1  0
  2  3  2  0
  2  4  1  0
  4  5  1  0
  5  6  1  0
  6  7  1  0
  7  8  1  0
  8  9  2  0
  8 10  1  0
 10 11  1  0
 12 11  1  6
 12 13  1  0
 13 14  1  0
 14 15  1  0
 12 16  1  0
 15 16  1  0
 10 17  1  0
 17 18  2  0
 18 19  1  0
 19 20  1  0
 20 21  1  0
 20 22  1  0
 20 23  1  0
 19 24  2  0
 24 25  1  0
 25 26  1  0
 26 27  1  0
 26 28  1  0
 26 29  1  0
 17 30  1  0
 25 30  2  0
  7 31  1  0
  4 32  1  0
 31 32  1  0
M  END
