piperidine-amides-31747-covalent
     RDKit          3D

 26 28  0  0  0  0  0  0  0  0999 V2000
    7.0980   -3.3740   19.5450 C   0  0  0  0  0  0  0  0  0  0  0  0
    6.3730   -4.2090   20.4810 C   0  0  0  0  0  0  0  0  0  0  0  0
    5.4340   -4.9330   20.0120 O   0  0  0  0  0  0  0  0  0  0  0  0
    6.6890   -4.2620   21.8700 N   0  0  0  0  0  0  0  0  0  0  0  0
    6.5610   -5.6030   22.5120 C   0  0  0  0  0  0  0  0  0  0  0  0
    6.0850   -5.2670   23.9940 C   0  0  0  0  0  0  0  0  0  0  0  0
    5.8860   -3.7730   24.0420 C   0  0  0  0  0  0  0  0  0  0  0  0
    4.8610   -3.1480   25.1530 C   0  0  0  0  0  0  0  0  0  0  0  0
    3.8820   -2.7790   24.5390 O   0  0  0  0  0  0  0  0  0  0  0  0
    5.2240   -3.1430   26.3960 N   0  0  0  0  0  0  0  0  0  0  0  0
    5.3070   -2.8080   27.7210 C   0  0  0  0  0  0  0  0  0  0  0  0
    5.6140   -3.4260   28.9070 C   0  0  0  0  0  0  0  0  0  0  0  0
    6.2330   -4.6760   28.7280 C   0  0  0  0  0  0  0  0  0  0  0  0
    5.8530   -5.3010   27.4460 C   0  0  1  0  0  0  0  0  0  0  0  0
    4.5360   -5.7880   28.0810 C   0  0  0  0  0  0  0  0  0  0  0  0
    4.4740   -6.7220   29.2170 N   0  0  0  0  0  0  0  0  0  0  0  0
    3.0950   -6.8690   29.4460 C   0  0  0  0  0  0  0  0  0  0  0  0
    2.1490   -7.5090   30.2640 C   0  0  0  0  0  0  0  0  0  0  0  0
    1.3420   -8.3680   29.5710 F   0  0  0  0  0  0  0  0  0  0  0  0
    2.7220   -8.1930   31.3040 F   0  0  0  0  0  0  0  0  0  0  0  0
    1.3490   -6.5210   30.8160 F   0  0  0  0  0  0  0  0  0  0  0  0
    2.0420   -6.1970   28.6620 C   0  0  0  0  0  0  0  0  0  0  0  0
    2.9040   -5.2780   27.5130 S   0  0  0  0  0  0  0  0  0  0  0  0
    6.2080   -4.0440   26.6970 C   0  0  0  0  0  0  0  0  0  0  0  0
    7.2030   -3.0390   23.7660 C   0  0  0  0  0  0  0  0  0  0  0  0
    7.6110   -3.2900   22.4670 C   0  0  0  0  0  0  0  0  0  0  0  0
  1  2  1  0
  2  3  2  0
  2  4  1  0
  4  5  1  0
  5  6  1  0
  6  7  1  0
  7  8  1  0
  8  9  2  0
  8 10  1  0
 10 11  1  0
 11 12  1  0
 12 13  1  0
 13 14  1  0
 14 15  1  1
 15 16  2  0
 16 17  1  0
 17 18  1  0
 18 19  1  0
 18 20  1  0
 18 21  1  0
 17 22  2  0
 15 23  1  0
 22 23  1  0
 10 24  1  0
 14 24  1  0
  7 25  1  0
  4 26  1  0
 25 26  1  0
M  END
