piperidine-amides-24671-covalent
     RDKit          3D

 24 25  0  0  0  0  0  0  0  0999 V2000
    7.1870   -3.2850   19.2290 C   0  0  0  0  0  0  0  0  0  0  0  0
    6.4020   -4.0530   20.1960 C   0  0  0  0  0  0  0  0  0  0  0  0
    5.2930   -4.5390   19.8870 O   0  0  0  0  0  0  0  0  0  0  0  0
    6.9390   -4.2990   21.4560 N   0  0  0  0  0  0  0  0  0  0  0  0
    6.5030   -5.4590   22.1720 C   0  0  0  0  0  0  0  0  0  0  0  0
    5.6510   -4.8980   23.3040 C   0  0  0  0  0  0  0  0  0  0  0  0
    6.5340   -3.9440   24.0910 C   0  0  0  0  0  0  0  0  0  0  0  0
    5.7040   -3.3190   25.1180 C   0  0  0  0  0  0  0  0  0  0  0  0
    4.7750   -2.5800   24.7400 O   0  0  0  0  0  0  0  0  0  0  0  0
    5.9280   -3.5440   26.4830 N   0  0  0  0  0  0  0  0  0  0  0  0
    4.8220   -4.2050   27.1110 C   0  0  0  0  0  0  0  0  0  0  0  0
    5.2560   -4.7990   28.4090 C   0  0  0  0  0  0  0  0  0  0  0  0
    5.7910   -3.9380   29.2680 C   0  0  0  0  0  0  0  0  0  0  0  0
    4.8830   -3.1090   29.8800 C   0  0  0  0  0  0  0  0  0  0  0  0
    3.8500   -3.5940   30.6680 O   0  0  0  0  0  0  0  0  0  0  0  0
    5.0910   -1.7150   29.6310 N   0  0  0  0  0  0  0  0  0  0  0  0
    4.9110   -0.6710   30.5170 C   0  0  2  0  0  0  0  0  0  0  0  0
    6.2110   -0.3500   30.8630 C   0  0  0  0  0  0  0  0  0  0  0  0
    4.2480   -1.1220   31.8270 C   0  0  0  0  0  0  0  0  0  0  0  0
    4.5550   -0.2330   33.0110 C   0  0  0  0  0  0  0  0  0  0  0  0
    6.7640   -3.2560   28.6820 C   0  0  0  0  0  0  0  0  0  0  0  0
    6.4400   -2.5830   27.4250 C   0  0  0  0  0  0  0  0  0  0  0  0
    7.0550   -2.8260   23.2370 C   0  0  0  0  0  0  0  0  0  0  0  0
    7.6620   -3.2620   22.1090 C   0  0  0  0  0  0  0  0  0  0  0  0
  1  2  1  0
  2  3  2  0
  2  4  1  0
  4  5  1  0
  5  6  1  0
  6  7  1  0
  7  8  1  0
  8  9  2  0
  8 10  1  0
 10 11  1  0
 11 12  1  0
 12 13  1  0
 13 14  1  0
 14 15  2  0
 14 16  1  0
 16 17  1  0
 17 18  1  1
 17 19  1  0
 19 20  1  0
 13 21  1  0
 10 22  1  0
 21 22  1  0
  7 23  1  0
  4 24  1  0
 23 24  1  0
M  END
