piperidine-amides-13751-covalent
     RDKit          3D

 27 30  0  0  0  0  0  0  0  0999 V2000
    7.0650   -3.3290   19.3050 C   0  0  0  0  0  0  0  0  0  0  0  0
    6.3610   -4.1680   20.3110 C   0  0  0  0  0  0  0  0  0  0  0  0
    5.3510   -4.8010   19.9680 O   0  0  0  0  0  0  0  0  0  0  0  0
    6.8920   -4.2570   21.6110 N   0  0  0  0  0  0  0  0  0  0  0  0
    7.7180   -3.2230   22.1910 C   0  0  0  0  0  0  0  0  0  0  0  0
    6.8930   -2.5790   23.3000 C   0  0  0  0  0  0  0  0  0  0  0  0
    6.6620   -3.6590   24.2920 C   0  0  0  0  0  0  0  0  0  0  0  0
    5.8610   -3.2270   25.4610 C   0  0  0  0  0  0  0  0  0  0  0  0
    4.6360   -3.1770   25.2930 O   0  0  0  0  0  0  0  0  0  0  0  0
    6.4770   -2.8940   26.6800 N   0  0  0  0  0  0  0  0  0  0  0  0
    6.4600   -1.5920   27.2600 C   0  0  0  0  0  0  0  0  0  0  0  0
    6.1470   -0.4400   26.5850 C   0  0  0  0  0  0  0  0  0  0  0  0
    6.1360    0.8060   27.2260 C   0  0  0  0  0  0  0  0  0  0  0  0
    6.4400    0.8980   28.5620 C   0  0  0  0  0  0  0  0  0  0  0  0
    6.4450    2.1840   29.3130 C   0  0  0  0  0  0  0  0  0  0  0  0
    6.7680   -0.1980   29.3460 C   0  0  0  0  0  0  0  0  0  0  0  0
    7.0600    0.0450   30.8470 C   0  0  0  0  0  0  0  0  0  0  0  0
    6.0380   -0.0020   31.7320 N   0  0  0  0  0  0  0  0  0  0  0  0
    6.4350    0.2300   32.9750 N   0  0  0  0  0  0  0  0  0  0  0  0
    7.7140    0.4410   33.0160 N   0  0  0  0  0  0  0  0  0  0  0  0
    8.2110    0.3510   31.7340 N   0  0  0  0  0  0  0  0  0  0  0  0
    9.6130    0.5440   31.4920 C   0  0  0  0  0  0  0  0  0  0  0  0
   10.3600    0.8780   32.5770 C   0  0  0  0  0  0  0  0  0  0  0  0
   10.0750    1.8670   31.3330 C   0  0  0  0  0  0  0  0  0  0  0  0
    6.7760   -1.5040   28.6270 C   0  0  0  0  0  0  0  0  0  0  0  0
    6.0040   -4.8950   23.7400 C   0  0  0  0  0  0  0  0  0  0  0  0
    6.5980   -5.4080   22.4470 C   0  0  0  0  0  0  0  0  0  0  0  0
  1  2  1  0
  2  3  2  0
  2  4  1  0
  4  5  1  0
  5  6  1  0
  6  7  1  0
  7  8  1  0
  8  9  2  0
  8 10  1  0
 10 11  1  0
 11 12  2  0
 12 13  1  0
 13 14  2  0
 14 15  1  0
 14 16  1  0
 16 17  1  0
 17 18  2  0
 18 19  1  0
 19 20  2  0
 17 21  1  0
 20 21  1  0
 21 22  1  0
 22 23  1  0
 22 24  1  0
 23 24  1  0
 11 25  1  0
 16 25  2  0
  7 26  1  0
  4 27  1  0
 26 27  1  0
M  END
