piperidine-amides-28885-covalent
     RDKit          3D

 22 24  0  0  0  0  0  0  0  0999 V2000
    7.1000   -3.3330   19.3030 C   0  0  0  0  0  0  0  0  0  0  0  0
    6.4290   -4.1790   20.2820 C   0  0  0  0  0  0  0  0  0  0  0  0
    5.3690   -4.7420   19.9570 O   0  0  0  0  0  0  0  0  0  0  0  0
    7.0300   -4.3860   21.5460 N   0  0  0  0  0  0  0  0  0  0  0  0
    6.6370   -5.5240   22.3140 C   0  0  0  0  0  0  0  0  0  0  0  0
    5.8350   -5.0480   23.4850 C   0  0  0  0  0  0  0  0  0  0  0  0
    6.6330   -3.9290   24.1160 C   0  0  0  0  0  0  0  0  0  0  0  0
    5.8560   -3.3360   25.2440 C   0  0  0  0  0  0  0  0  0  0  0  0
    5.0500   -2.4520   24.9650 O   0  0  0  0  0  0  0  0  0  0  0  0
    6.0740   -3.8340   26.5030 N   0  0  0  0  0  0  0  0  0  0  0  0
    6.3200   -3.0180   27.6270 C   0  0  0  0  0  0  0  0  0  0  0  0
    6.7300   -3.6920   28.7850 C   0  0  0  0  0  0  0  0  0  0  0  0
    6.4420   -5.0210   28.9000 C   0  0  0  0  0  0  0  0  0  0  0  0
    5.4950   -5.5030   28.0740 C   0  0  0  0  0  0  0  0  0  0  0  0
    4.7740   -6.6710   28.6590 C   0  0  0  0  0  0  0  0  0  0  0  0
    5.2610   -7.2870   30.4080 Br  0  0  0  0  0  0  0  0  0  0  0  0
    3.6520   -7.3280   27.8000 C   0  0  0  0  0  0  0  0  0  0  0  0
    3.3690   -6.7470   26.4460 C   0  0  0  0  0  0  0  0  0  0  0  0
    4.1560   -5.5640   25.9580 C   0  0  0  0  0  0  0  0  0  0  0  0
    5.2450   -4.9660   26.8540 C   0  0  0  0  0  0  0  0  0  0  0  0
    6.8610   -2.8200   23.1330 C   0  0  0  0  0  0  0  0  0  0  0  0
    7.7340   -3.3120   22.2030 C   0  0  0  0  0  0  0  0  0  0  0  0
  1  2  1  0
  2  3  2  0
  2  4  1  0
  4  5  1  0
  5  6  1  0
  6  7  1  0
  7  8  1  0
  8  9  2  0
  8 10  1  0
 10 11  1  0
 11 12  1  0
 12 13  1  0
 13 14  1  0
 14 15  2  0
 15 16  1  0
 15 17  1  0
 17 18  2  0
 18 19  1  0
 10 20  1  0
 14 20  1  0
 19 20  2  0
  7 21  1  0
  4 22  1  0
 21 22  1  0
M  END
