piperidine-amides-411-covalent
     RDKit          3D

 27 29  0  0  0  0  0  0  0  0999 V2000
    7.2430   -3.2690   19.2740 C   0  0  0  0  0  0  0  0  0  0  0  0
    6.4280   -3.9620   20.2360 C   0  0  0  0  0  0  0  0  0  0  0  0
    5.3260   -4.4860   19.8660 O   0  0  0  0  0  0  0  0  0  0  0  0
    6.8570   -4.1070   21.5560 N   0  0  0  0  0  0  0  0  0  0  0  0
    7.7790   -3.0370   22.0570 C   0  0  0  0  0  0  0  0  0  0  0  0
    7.5220   -3.0470   23.6070 C   0  0  0  0  0  0  0  0  0  0  0  0
    6.0480   -3.2970   23.7430 C   0  0  0  0  0  0  0  0  0  0  0  0
    5.4440   -2.7120   25.0850 C   0  0  0  0  0  0  0  0  0  0  0  0
    4.3030   -2.3000   24.9190 O   0  0  0  0  0  0  0  0  0  0  0  0
    6.3160   -2.8420   25.9870 N   0  0  0  0  0  0  0  0  0  0  0  0
    7.2040   -3.0470   26.9770 C   0  0  0  0  0  0  0  0  0  0  0  0
    7.6220   -4.0540   27.7580 C   0  0  2  0  0  0  0  0  0  0  0  0
    8.5880   -4.8950   27.1980 C   0  0  0  0  0  0  0  0  0  0  0  0
    8.0410   -6.1550   26.7890 C   0  0  0  0  0  0  0  0  0  0  0  0
    7.2310   -5.4840   25.6590 C   0  0  0  0  0  0  0  0  0  0  0  0
    6.1260   -5.6250   26.5010 C   0  0  0  0  0  0  0  0  0  0  0  0
    5.0390   -6.4970   26.0440 C   0  0  0  0  0  0  0  0  0  0  0  0
    4.0690   -6.3840   27.2450 C   0  0  0  0  0  0  0  0  0  0  0  0
    4.2590   -5.5630   28.5200 C   0  0  0  0  0  0  0  0  0  0  0  0
    3.4990   -5.3770   29.6480 C   0  0  0  0  0  0  0  0  0  0  0  0
    3.1780   -4.2270   30.0530 O   0  0  0  0  0  0  0  0  0  0  0  0
    3.0540   -6.4440   30.3760 O   0  0  0  0  0  0  0  0  0  0  0  0
    3.5010   -7.7480   30.0720 C   0  0  0  0  0  0  0  0  0  0  0  0
    5.4610   -4.7810   28.6750 C   0  0  0  0  0  0  0  0  0  0  0  0
    6.3200   -4.8690   27.6450 C   0  0  0  0  0  0  0  0  0  0  0  0
    5.5690   -4.6680   23.4140 C   0  0  0  0  0  0  0  0  0  0  0  0
    6.4280   -5.2360   22.3410 C   0  0  0  0  0  0  0  0  0  0  0  0
  1  2  1  0
  2  3  2  0
  2  4  1  0
  4  5  1  0
  5  6  1  0
  6  7  1  0
  7  8  1  0
  8  9  2  0
  8 10  1  0
 10 11  1  0
 12 11  1  6
 12 13  1  0
 13 14  1  0
 14 15  1  0
 15 16  1  0
 16 17  2  0
 17 18  1  0
 18 19  2  0
 19 20  1  0
 20 21  2  0
 20 22  1  0
 22 23  1  0
 19 24  1  0
 12 25  1  0
 16 25  1  0
 24 25  2  0
  7 26  1  0
  4 27  1  0
 26 27  1  0
M  END
