piperidine-amides-12787-covalent
     RDKit          3D

 22 24  0  0  0  0  0  0  0  0999 V2000
    7.0620   -3.3450   19.3120 C   0  0  0  0  0  0  0  0  0  0  0  0
    6.3980   -4.1790   20.3370 C   0  0  0  0  0  0  0  0  0  0  0  0
    5.3660   -4.7780   19.9690 O   0  0  0  0  0  0  0  0  0  0  0  0
    6.9360   -4.3260   21.6300 N   0  0  0  0  0  0  0  0  0  0  0  0
    7.6840   -3.2680   22.2420 C   0  0  0  0  0  0  0  0  0  0  0  0
    7.2150   -2.8970   23.5720 C   0  0  0  0  0  0  0  0  0  0  0  0
    5.9700   -3.5820   23.9700 C   0  0  0  0  0  0  0  0  0  0  0  0
    5.5900   -3.2080   25.3500 C   0  0  0  0  0  0  0  0  0  0  0  0
    4.3830   -3.2040   25.6470 O   0  0  0  0  0  0  0  0  0  0  0  0
    6.5590   -2.8630   26.2980 N   0  0  0  0  0  0  0  0  0  0  0  0
    6.5040   -1.6200   27.1020 C   0  0  0  0  0  0  0  0  0  0  0  0
    7.0520   -1.5990   28.4940 C   0  0  0  0  0  0  0  0  0  0  0  0
    7.0020   -0.3750   29.2900 C   0  0  0  0  0  0  0  0  0  0  0  0
    6.4210    0.6840   28.6310 C   0  0  0  0  0  0  0  0  0  0  0  0
    5.9040    0.7520   27.3860 C   0  0  0  0  0  0  0  0  0  0  0  0
    5.4360    1.9960   27.1470 C   0  0  0  0  0  0  0  0  0  0  0  0
    5.6500    2.7750   28.2680 C   0  0  0  0  0  0  0  0  0  0  0  0
    6.2550    1.9580   29.1700 N   0  0  0  0  0  0  0  0  0  0  0  0
    6.7290    2.2380   30.5610 C   0  0  0  0  0  0  0  0  0  0  0  0
    5.9210   -0.3630   26.5860 C   0  0  0  0  0  0  0  0  0  0  0  0
    5.9740   -5.0510   23.7560 C   0  0  0  0  0  0  0  0  0  0  0  0
    6.6460   -5.4820   22.4740 C   0  0  0  0  0  0  0  0  0  0  0  0
  1  2  1  0
  2  3  2  0
  2  4  1  0
  4  5  1  0
  5  6  1  0
  6  7  1  0
  7  8  1  0
  8  9  2  0
  8 10  1  0
 10 11  1  0
 11 12  2  0
 12 13  1  0
 13 14  2  0
 14 15  1  0
 15 16  1  0
 16 17  2  0
 14 18  1  0
 17 18  1  0
 18 19  1  0
 11 20  1  0
 15 20  2  0
  7 21  1  0
  4 22  1  0
 21 22  1  0
M  END
