piperidine-amides-5009-covalent
     RDKit          3D

 23 25  0  0  0  0  0  0  0  0999 V2000
    7.0960   -3.2810   19.1920 C   0  0  0  0  0  0  0  0  0  0  0  0
    6.3600   -4.0300   20.2370 C   0  0  0  0  0  0  0  0  0  0  0  0
    5.2790   -4.5440   19.8840 O   0  0  0  0  0  0  0  0  0  0  0  0
    6.8810   -4.1990   21.5280 N   0  0  0  0  0  0  0  0  0  0  0  0
    7.6580   -3.1730   22.1400 C   0  0  0  0  0  0  0  0  0  0  0  0
    7.1940   -2.8440   23.4810 C   0  0  0  0  0  0  0  0  0  0  0  0
    5.8710   -3.4120   23.8210 C   0  0  0  0  0  0  0  0  0  0  0  0
    5.5730   -3.1350   25.2450 C   0  0  0  0  0  0  0  0  0  0  0  0
    4.3780   -3.1280   25.6290 O   0  0  0  0  0  0  0  0  0  0  0  0
    6.6210   -2.8750   26.1480 N   0  0  0  0  0  0  0  0  0  0  0  0
    7.4640   -3.9510   26.6940 C   0  0  0  0  0  0  0  0  0  0  0  0
    6.6750   -4.8620   27.5570 C   0  0  0  0  0  0  0  0  0  0  0  0
    7.3610   -5.3670   28.7210 C   0  0  0  0  0  0  0  0  0  0  0  0
    6.5810   -6.2420   29.5530 N   0  0  0  0  0  0  0  0  0  0  0  0
    5.2570   -6.6280   29.3220 C   0  0  0  0  0  0  0  0  0  0  0  0
    4.5910   -7.4740   30.1750 C   0  0  0  0  0  0  0  0  0  0  0  0
    3.3010   -7.8290   29.9170 C   0  0  0  0  0  0  0  0  0  0  0  0
    2.6720   -7.3420   28.8050 C   0  0  0  0  0  0  0  0  0  0  0  0
    3.3170   -6.5020   27.9480 C   0  0  0  0  0  0  0  0  0  0  0  0
    4.6310   -6.1420   28.2150 C   0  0  0  0  0  0  0  0  0  0  0  0
    5.3620   -5.2300   27.3030 C   0  0  0  0  0  0  0  0  0  0  0  0
    5.7070   -4.8750   23.5410 C   0  0  0  0  0  0  0  0  0  0  0  0
    6.5120   -5.3280   22.3470 C   0  0  0  0  0  0  0  0  0  0  0  0
  1  2  1  0
  2  3  2  0
  2  4  1  0
  4  5  1  0
  5  6  1  0
  6  7  1  0
  7  8  1  0
  8  9  2  0
  8 10  1  0
 10 11  1  0
 11 12  1  0
 12 13  2  0
 13 14  1  0
 14 15  2  0
 15 16  1  0
 16 17  2  0
 17 18  1  0
 18 19  2  0
 15 20  1  0
 19 20  1  0
 12 21  1  0
 20 21  2  0
  7 22  1  0
  4 23  1  0
 22 23  1  0
M  END
