piperidine-amides-7358-covalent
     RDKit          3D

 19 20  0  0  0  0  0  0  0  0999 V2000
    7.0800   -3.2810   19.2540 C   0  0  0  0  0  0  0  0  0  0  0  0
    6.3550   -4.0320   20.2850 C   0  0  0  0  0  0  0  0  0  0  0  0
    5.3080   -4.6240   19.9120 O   0  0  0  0  0  0  0  0  0  0  0  0
    6.8490   -4.1020   21.5980 N   0  0  0  0  0  0  0  0  0  0  0  0
    7.7600   -3.1110   22.1290 C   0  0  0  0  0  0  0  0  0  0  0  0
    7.4500   -2.9430   23.5850 C   0  0  0  0  0  0  0  0  0  0  0  0
    6.1000   -3.5310   23.8800 C   0  0  0  0  0  0  0  0  0  0  0  0
    5.6450   -3.2190   25.2590 C   0  0  0  0  0  0  0  0  0  0  0  0
    4.4160   -3.0820   25.4360 O   0  0  0  0  0  0  0  0  0  0  0  0
    6.4970   -3.0590   26.3690 N   0  0  0  0  0  0  0  0  0  0  0  0
    6.1360   -3.5830   27.6700 C   0  0  0  0  0  0  0  0  0  0  0  0
    5.0680   -4.6700   27.5920 C   0  0  2  0  0  0  0  0  0  0  0  0
    3.7380   -4.6070   27.9020 C   0  0  0  0  0  0  0  0  0  0  0  0
    3.8760   -5.4390   28.9950 C   0  0  0  0  0  0  0  0  0  0  0  0
    5.2040   -5.5570   28.7620 N   0  0  0  0  0  0  0  0  0  0  0  0
    5.8190   -6.7370   28.7400 C   0  0  0  0  0  0  0  0  0  0  0  0
    5.7910   -7.4170   29.9450 C   0  0  0  0  0  0  0  0  0  0  0  0
    6.0830   -5.0480   23.7180 C   0  0  0  0  0  0  0  0  0  0  0  0
    6.5800   -5.3510   22.3180 C   0  0  0  0  0  0  0  0  0  0  0  0
  1  2  1  0
  2  3  2  0
  2  4  1  0
  4  5  1  0
  5  6  1  0
  6  7  1  0
  7  8  1  0
  8  9  2  0
  8 10  1  0
 10 11  1  0
 12 11  1  1
 12 13  1  0
 13 14  1  0
 12 15  1  0
 14 15  1  0
 15 16  1  0
 16 17  1  0
  7 18  1  0
  4 19  1  0
 18 19  1  0
M  END
