piperidine-amides-29977-covalent
     RDKit          3D

 27 29  0  0  0  0  0  0  0  0999 V2000
    7.0720   -3.3340   19.3260 C   0  0  0  0  0  0  0  0  0  0  0  0
    6.3830   -4.1740   20.2960 C   0  0  0  0  0  0  0  0  0  0  0  0
    5.3730   -4.7980   19.9690 O   0  0  0  0  0  0  0  0  0  0  0  0
    6.9160   -4.3080   21.6210 N   0  0  0  0  0  0  0  0  0  0  0  0
    7.6370   -3.2170   22.2240 C   0  0  0  0  0  0  0  0  0  0  0  0
    6.8270   -2.6250   23.3410 C   0  0  0  0  0  0  0  0  0  0  0  0
    6.5460   -3.7420   24.3230 C   0  0  0  0  0  0  0  0  0  0  0  0
    5.6840   -3.2490   25.4490 C   0  0  0  0  0  0  0  0  0  0  0  0
    4.4710   -3.0190   25.2760 O   0  0  0  0  0  0  0  0  0  0  0  0
    6.2400   -3.0280   26.7500 N   0  0  0  0  0  0  0  0  0  0  0  0
    6.1590   -4.0460   27.7940 C   0  0  0  0  0  0  0  0  0  0  0  0
    6.0250   -5.4350   27.2160 C   0  0  0  0  0  0  0  0  0  0  0  0
    4.8140   -6.1000   27.3260 C   0  0  0  0  0  0  0  0  0  0  0  0
    4.8080   -7.0830   28.3680 N   0  0  0  0  0  0  0  0  0  0  0  0
    3.8710   -5.8130   26.5560 O   0  0  0  0  0  0  0  0  0  0  0  0
    6.2200   -1.6280   27.3160 C   0  0  2  0  0  0  0  0  0  0  0  0
    6.2280   -0.7430   26.2490 C   0  0  0  0  0  0  0  0  0  0  0  0
    5.6830    0.3460   26.8840 C   0  0  0  0  0  0  0  0  0  0  0  0
    5.5480   -0.2680   28.0760 O   0  0  0  0  0  0  0  0  0  0  0  0
    6.6370   -0.5390   28.8990 C   0  0  0  0  0  0  0  0  0  0  0  0
    5.9580    0.4710   29.3030 C   0  0  0  0  0  0  0  0  0  0  0  0
    6.2450    1.1240   30.3140 C   0  0  0  0  0  0  0  0  0  0  0  0
    7.4140    0.2540   30.5630 C   0  0  0  0  0  0  0  0  0  0  0  0
    7.8010   -0.9170   29.6750 C   0  0  0  0  0  0  0  0  0  0  0  0
    7.3090   -1.6290   28.3990 C   0  0  0  0  0  0  0  0  0  0  0  0
    5.8180   -4.8900   23.6480 C   0  0  0  0  0  0  0  0  0  0  0  0
    6.5960   -5.4390   22.4420 C   0  0  0  0  0  0  0  0  0  0  0  0
  1  2  1  0
  2  3  2  0
  2  4  1  0
  4  5  1  0
  5  6  1  0
  6  7  1  0
  7  8  1  0
  8  9  2  0
  8 10  1  0
 10 11  1  0
 11 12  1  0
 12 13  1  0
 13 14  1  0
 13 15  2  0
 16 10  1  6
 16 17  1  0
 17 18  1  0
 18 19  1  0
 19 20  1  0
 20 21  2  0
 21 22  1  0
 22 23  2  0
 23 24  1  0
 16 25  1  0
 20 25  1  0
 24 25  2  0
  7 26  1  0
  4 27  1  0
 26 27  1  0
M  END
