piperidine-amides-31453-covalent
     RDKit          3D

 28 30  0  0  0  0  0  0  0  0999 V2000
    7.0500   -3.4160   19.3270 C   0  0  0  0  0  0  0  0  0  0  0  0
    6.4180   -4.1970   20.3690 C   0  0  0  0  0  0  0  0  0  0  0  0
    5.4250   -4.9100   20.0130 O   0  0  0  0  0  0  0  0  0  0  0  0
    6.8880   -4.2320   21.7100 N   0  0  0  0  0  0  0  0  0  0  0  0
    6.6470   -5.4540   22.5040 C   0  0  0  0  0  0  0  0  0  0  0  0
    5.7800   -4.8670   23.6940 C   0  0  0  0  0  0  0  0  0  0  0  0
    6.4960   -3.6510   24.2800 C   0  0  0  0  0  0  0  0  0  0  0  0
    5.5690   -2.9440   25.3690 C   0  0  0  0  0  0  0  0  0  0  0  0
    4.5670   -2.5210   24.8120 O   0  0  0  0  0  0  0  0  0  0  0  0
    6.0840   -3.0070   26.5440 N   0  0  0  0  0  0  0  0  0  0  0  0
    6.5530   -3.6520   27.6450 C   0  0  0  0  0  0  0  0  0  0  0  0
    5.9640   -1.6680   27.0970 C   0  0  2  0  0  0  0  0  0  0  0  0
    5.5230   -0.6400   26.2000 C   0  0  1  0  0  0  0  0  0  0  0  0
    4.0710   -0.6210   25.9040 C   0  0  0  0  0  0  0  0  0  0  0  0
    5.9080    0.6790   26.8450 C   0  0  0  0  0  0  0  0  0  0  0  0
    5.6770    0.5870   28.2740 N   0  0  0  0  0  0  0  0  0  0  0  0
    5.4010    1.8150   28.9320 C   0  0  0  0  0  0  0  0  0  0  0  0
    4.0500    1.8800   29.3090 C   0  0  0  0  0  0  0  0  0  0  0  0
    4.3980    3.1520   30.0410 C   0  0  0  0  0  0  0  0  0  0  0  0
    3.1280    3.7280   30.7280 C   0  0  0  0  0  0  0  0  0  0  0  0
    1.9330    3.0430   30.5860 C   0  0  0  0  0  0  0  0  0  0  0  0
    1.7840    1.8620   29.8640 C   0  0  0  0  0  0  0  0  0  0  0  0
    2.8440    1.2780   29.2240 C   0  0  0  0  0  0  0  0  0  0  0  0
    6.8370   -0.1180   28.7210 C   0  0  0  0  0  0  0  0  0  0  0  0
    7.0000   -1.2280   27.9150 C   0  0  1  0  0  0  0  0  0  0  0  0
    7.2270   -1.9260   29.2070 C   0  0  0  0  0  0  0  0  0  0  0  0
    6.9350   -2.5530   23.3240 C   0  0  0  0  0  0  0  0  0  0  0  0
    7.7290   -3.1800   22.2010 C   0  0  0  0  0  0  0  0  0  0  0  0
  1  2  1  0
  2  3  2  0
  2  4  1  0
  4  5  1  0
  5  6  1  0
  6  7  1  0
  7  8  1  0
  8  9  2  0
  8 10  1  0
 10 11  1  0
 12 10  1  6
 12 13  1  0
 13 14  1  1
 13 15  1  0
 15 16  1  0
 16 17  1  0
 17 18  1  0
 18 19  2  0
 19 20  1  0
 20 21  2  0
 21 22  1  0
 18 23  1  0
 22 23  2  0
 16 24  1  0
 12 25  1  0
 24 25  1  0
 25 26  1  1
  7 27  1  0
  4 28  1  0
 27 28  1  0
M  END
