piperidine-amides-11087-covalent
     RDKit          3D

 20 21  0  0  0  0  0  0  0  0999 V2000
    7.0840   -3.2930   19.2550 C   0  0  0  0  0  0  0  0  0  0  0  0
    6.3570   -4.0530   20.2760 C   0  0  0  0  0  0  0  0  0  0  0  0
    5.3440   -4.6920   19.9390 O   0  0  0  0  0  0  0  0  0  0  0  0
    6.8040   -4.1050   21.6070 N   0  0  0  0  0  0  0  0  0  0  0  0
    7.7200   -3.1140   22.1390 C   0  0  0  0  0  0  0  0  0  0  0  0
    7.4440   -3.0340   23.6100 C   0  0  0  0  0  0  0  0  0  0  0  0
    6.0870   -3.5770   23.9180 C   0  0  0  0  0  0  0  0  0  0  0  0
    5.6340   -3.3130   25.3020 C   0  0  0  0  0  0  0  0  0  0  0  0
    4.4160   -3.4610   25.6030 O   0  0  0  0  0  0  0  0  0  0  0  0
    6.4990   -2.8910   26.3300 N   0  0  0  0  0  0  0  0  0  0  0  0
    6.1800   -3.1550   27.7500 C   0  0  0  0  0  0  0  0  0  0  0  0
    6.9500   -2.1590   28.5340 C   0  0  0  0  0  0  0  0  0  0  0  0
    6.3660   -1.4070   29.6590 C   0  0  2  0  0  0  0  0  0  0  0  0
    5.4680   -0.2780   29.2100 C   0  0  0  0  0  0  0  0  0  0  0  0
    5.5710    0.8600   30.2040 C   0  0  0  0  0  0  0  0  0  0  0  0
    6.7240    0.4400   31.0270 C   0  0  0  0  0  0  0  0  0  0  0  0
    7.1150    1.1210   32.1480 O   0  0  0  0  0  0  0  0  0  0  0  0
    7.3590   -0.7260   30.5230 N   0  0  0  0  0  0  0  0  0  0  0  0
    6.0690   -5.0570   23.6030 C   0  0  0  0  0  0  0  0  0  0  0  0
    6.6150   -5.3420   22.3400 C   0  0  0  0  0  0  0  0  0  0  0  0
  1  2  1  0
  2  3  2  0
  2  4  1  0
  4  5  1  0
  5  6  1  0
  6  7  1  0
  7  8  1  0
  8  9  2  0
  8 10  1  0
 10 11  1  0
 11 12  1  0
 13 12  1  6
 13 14  1  0
 14 15  1  0
 15 16  1  0
 16 17  2  0
 13 18  1  0
 16 18  1  0
  7 19  1  0
  4 20  1  0
 19 20  1  0
M  END
