piperidine-amides-30439-covalent
     RDKit          3D

 26 28  0  0  0  0  0  0  0  0999 V2000
    7.0600   -3.3180   19.3010 C   0  0  0  0  0  0  0  0  0  0  0  0
    6.3510   -4.1440   20.2800 C   0  0  0  0  0  0  0  0  0  0  0  0
    5.3100   -4.7210   19.9350 O   0  0  0  0  0  0  0  0  0  0  0  0
    6.8360   -4.3560   21.5760 N   0  0  0  0  0  0  0  0  0  0  0  0
    6.5080   -5.5730   22.2800 C   0  0  0  0  0  0  0  0  0  0  0  0
    5.6930   -5.1240   23.4590 C   0  0  0  0  0  0  0  0  0  0  0  0
    6.4970   -4.1760   24.2830 C   0  0  0  0  0  0  0  0  0  0  0  0
    5.7240   -3.6330   25.4440 C   0  0  0  0  0  0  0  0  0  0  0  0
    4.6610   -2.9880   25.2110 O   0  0  0  0  0  0  0  0  0  0  0  0
    6.0730   -3.7650   26.8230 N   0  0  0  0  0  0  0  0  0  0  0  0
    5.8180   -2.6670   27.7590 C   0  0  0  0  0  0  0  0  0  0  0  0
    5.6800   -3.3340   29.0630 C   0  0  0  0  0  0  0  0  0  0  0  0
    4.8140   -4.3370   28.8810 N   0  0  0  0  0  0  0  0  0  0  0  0
    3.8530   -4.7840   29.8140 C   0  0  0  0  0  0  0  0  0  0  0  0
    2.9860   -5.8200   29.1550 C   0  0  0  0  0  0  0  0  0  0  0  0
    2.1250   -5.3020   28.0040 C   0  0  0  0  0  0  0  0  0  0  0  0
    1.2600   -6.3340   27.3460 C   0  0  0  0  0  0  0  0  0  0  0  0
    1.2470   -7.6500   27.7580 C   0  0  0  0  0  0  0  0  0  0  0  0
    0.1920   -8.7630   26.9110 Cl  0  0  0  0  0  0  0  0  0  0  0  0
    2.0530   -8.0650   28.8140 C   0  0  0  0  0  0  0  0  0  0  0  0
    2.9560   -7.1220   29.5400 C   0  0  0  0  0  0  0  0  0  0  0  0
    3.8110   -7.6660   30.6900 C   0  0  0  0  0  0  0  0  0  0  0  0
    5.1810   -5.3580   27.9550 C   0  0  0  0  0  0  0  0  0  0  0  0
    6.1800   -5.0970   27.3970 C   0  0  0  0  0  0  0  0  0  0  0  0
    7.1020   -3.0470   23.5400 C   0  0  0  0  0  0  0  0  0  0  0  0
    7.5810   -3.3570   22.2850 C   0  0  0  0  0  0  0  0  0  0  0  0
  1  2  1  0
  2  3  2  0
  2  4  1  0
  4  5  1  0
  5  6  1  0
  6  7  1  0
  7  8  1  0
  8  9  2  0
  8 10  1  0
 10 11  1  0
 11 12  1  0
 12 13  1  0
 13 14  1  0
 14 15  1  0
 15 16  2  0
 16 17  1  0
 17 18  2  0
 18 19  1  0
 18 20  1  0
 15 21  1  0
 20 21  2  0
 21 22  1  0
 13 23  1  0
 10 24  1  0
 23 24  1  0
  7 25  1  0
  4 26  1  0
 25 26  1  0
M  END
