piperidine-amides-33161-covalent
     RDKit          3D

 30 33  0  0  0  0  0  0  0  0999 V2000
    6.9780   -3.3860   19.4140 C   0  0  0  0  0  0  0  0  0  0  0  0
    6.3700   -4.2680   20.4310 C   0  0  0  0  0  0  0  0  0  0  0  0
    5.4210   -4.9790   20.0150 O   0  0  0  0  0  0  0  0  0  0  0  0
    6.8370   -4.3520   21.7870 N   0  0  0  0  0  0  0  0  0  0  0  0
    6.6630   -5.5850   22.4850 C   0  0  0  0  0  0  0  0  0  0  0  0
    6.3800   -5.4350   23.9150 C   0  0  0  0  0  0  0  0  0  0  0  0
    6.2240   -4.0290   24.3430 C   0  0  0  0  0  0  0  0  0  0  0  0
    5.7020   -3.7830   25.7760 C   0  0  0  0  0  0  0  0  0  0  0  0
    4.4970   -3.4620   25.8050 O   0  0  0  0  0  0  0  0  0  0  0  0
    6.3410   -3.8230   27.0860 N   0  0  0  0  0  0  0  0  0  0  0  0
    6.6320   -4.9720   27.9190 C   0  0  0  0  0  0  0  0  0  0  0  0
    5.7870   -5.2080   29.0750 C   0  0  0  0  0  0  0  0  0  0  0  0
    5.9030   -6.5010   29.9670 C   0  0  0  0  0  0  0  0  0  0  0  0
    5.0210   -6.6430   31.0930 C   0  0  0  0  0  0  0  0  0  0  0  0
    4.9700   -7.7310   32.0050 O   0  0  0  0  0  0  0  0  0  0  0  0
    5.8760   -7.9680   33.0820 C   0  0  0  0  0  0  0  0  0  0  0  0
    6.4710   -9.2620   32.5970 C   0  0  0  0  0  0  0  0  0  0  0  0
    6.7420   -8.6210   31.1610 C   0  0  0  0  0  0  0  0  0  0  0  0
    7.3910   -9.5050   29.9850 C   0  0  0  0  0  0  0  0  0  0  0  0
    7.7170  -11.0030   30.2510 C   0  0  0  0  0  0  0  0  0  0  0  0
    7.4060  -11.6760   31.8140 C   0  0  0  0  0  0  0  0  0  0  0  0
    6.7880  -10.6740   32.9450 C   0  0  0  0  0  0  0  0  0  0  0  0
    4.0500   -5.5880   31.3560 C   0  0  0  0  0  0  0  0  0  0  0  0
    3.9340   -4.4550   30.5880 C   0  0  0  0  0  0  0  0  0  0  0  0
    4.8430   -4.2560   29.4020 C   0  0  0  0  0  0  0  0  0  0  0  0
    4.6880   -3.0980   28.6570 C   0  0  0  0  0  0  0  0  0  0  0  0
    5.8350   -2.6550   27.7690 C   0  0  1  0  0  0  0  0  0  0  0  0
    6.9560   -1.9250   28.4760 C   0  0  0  0  0  0  0  0  0  0  0  0
    7.4510   -3.2020   23.9170 C   0  0  0  0  0  0  0  0  0  0  0  0
    7.5420   -3.2020   22.3650 C   0  0  0  0  0  0  0  0  0  0  0  0
  1  2  1  0
  2  3  2  0
  2  4  1  0
  4  5  1  0
  5  6  1  0
  6  7  1  0
  7  8  1  0
  8  9  2  0
  8 10  1  0
 10 11  1  0
 11 12  1  0
 12 13  2  0
 13 14  1  0
 14 15  1  0
 15 16  1  0
 16 17  1  0
 17 18  2  0
 18 19  1  0
 19 20  2  0
 20 21  1  0
 17 22  1  0
 21 22  2  0
 14 23  2  0
 23 24  1  0
 12 25  1  0
 24 25  2  0
 25 26  1  0
 10 27  1  0
 26 27  1  0
 27 28  1  1
  7 29  1  0
  4 30  1  0
 29 30  1  0
M  END
