piperidine-amides-5580-covalent
     RDKit          3D

 18 18  0  0  0  0  0  0  0  0999 V2000
    7.0910   -3.2890   19.2390 C   0  0  0  0  0  0  0  0  0  0  0  0
    6.3700   -4.0550   20.2610 C   0  0  0  0  0  0  0  0  0  0  0  0
    5.3360   -4.6630   19.9330 O   0  0  0  0  0  0  0  0  0  0  0  0
    6.8430   -4.1610   21.5850 N   0  0  0  0  0  0  0  0  0  0  0  0
    6.6750   -5.3800   22.3570 C   0  0  0  0  0  0  0  0  0  0  0  0
    5.9770   -5.0130   23.6510 C   0  0  0  0  0  0  0  0  0  0  0  0
    6.0640   -3.5470   23.9580 C   0  0  0  0  0  0  0  0  0  0  0  0
    5.6150   -3.2160   25.3330 C   0  0  0  0  0  0  0  0  0  0  0  0
    4.3840   -3.0310   25.5580 O   0  0  0  0  0  0  0  0  0  0  0  0
    6.4800   -3.0810   26.4340 N   0  0  0  0  0  0  0  0  0  0  0  0
    6.1420   -3.6940   27.7440 C   0  0  0  0  0  0  0  0  0  0  0  0
    5.8220   -5.1240   27.5230 C   0  0  0  0  0  0  0  0  0  0  0  0
    4.7280   -5.5750   27.9310 O   0  0  0  0  0  0  0  0  0  0  0  0
    4.6890   -6.8850   28.2090 C   0  0  0  0  0  0  0  0  0  0  0  0
    5.0120   -7.4050   29.5810 C   0  0  0  0  0  0  0  0  0  0  0  0
    3.4050   -7.8680   30.2280 S   0  0  0  0  0  0  0  0  0  0  0  0
    7.3370   -2.8940   23.5680 C   0  0  0  0  0  0  0  0  0  0  0  0
    7.7050   -3.1650   22.1680 C   0  0  0  0  0  0  0  0  0  0  0  0
  1  2  1  0
  2  3  2  0
  2  4  1  0
  4  5  1  0
  5  6  1  0
  6  7  1  0
  7  8  1  0
  8  9  2  0
  8 10  1  0
 10 11  1  0
 11 12  1  0
 12 13  1  0
 13 14  1  0
 14 15  1  0
 15 16  1  0
  7 17  1  0
  4 18  1  0
 17 18  1  0
M  END
