piperidine-amides-32591-covalent
     RDKit          3D

 26 28  0  0  0  0  0  0  0  0999 V2000
    7.0140   -3.3500   19.3820 C   0  0  0  0  0  0  0  0  0  0  0  0
    6.3530   -4.2530   20.3680 C   0  0  0  0  0  0  0  0  0  0  0  0
    5.3710   -4.9090   19.9910 O   0  0  0  0  0  0  0  0  0  0  0  0
    6.8700   -4.3880   21.6830 N   0  0  0  0  0  0  0  0  0  0  0  0
    6.5360   -5.5080   22.5220 C   0  0  0  0  0  0  0  0  0  0  0  0
    5.5540   -4.9830   23.5800 C   0  0  0  0  0  0  0  0  0  0  0  0
    6.2600   -3.9420   24.3950 C   0  0  0  0  0  0  0  0  0  0  0  0
    5.3870   -3.2980   25.4410 C   0  0  0  0  0  0  0  0  0  0  0  0
    4.6780   -2.3860   25.0220 O   0  0  0  0  0  0  0  0  0  0  0  0
    5.3530   -3.7010   26.8120 N   0  0  0  0  0  0  0  0  0  0  0  0
    6.1730   -4.6080   27.3990 C   0  0  0  0  0  0  0  0  0  0  0  0
    6.0650   -5.1270   28.6410 C   0  0  0  0  0  0  0  0  0  0  0  0
    4.7390   -4.7640   29.1070 N   0  0  0  0  0  0  0  0  0  0  0  0
    3.9130   -5.6670   29.7620 C   0  0  0  0  0  0  0  0  0  0  0  0
    3.5460   -5.3230   31.0470 C   0  0  0  0  0  0  0  0  0  0  0  0
    2.6730   -6.2330   31.8370 C   0  0  0  0  0  0  0  0  0  0  0  0
    2.1960   -5.8120   33.4780 Cl  0  0  0  0  0  0  0  0  0  0  0  0
    2.1920   -7.5420   31.2110 C   0  0  0  0  0  0  0  0  0  0  0  0
    2.6930   -7.7500   29.7900 C   0  0  0  0  0  0  0  0  0  0  0  0
    3.5010   -6.8330   29.1570 C   0  0  0  0  0  0  0  0  0  0  0  0
    4.0460   -7.1210   27.5280 Cl  0  0  0  0  0  0  0  0  0  0  0  0
    5.0820   -3.3760   29.0900 C   0  0  0  0  0  0  0  0  0  0  0  0
    4.8880   -2.6970   27.7250 C   0  0  1  0  0  0  0  0  0  0  0  0
    5.5580   -1.5100   27.5670 C   0  0  0  0  0  0  0  0  0  0  0  0
    6.8860   -2.8350   23.5850 C   0  0  0  0  0  0  0  0  0  0  0  0
    7.6080   -3.3140   22.3360 C   0  0  0  0  0  0  0  0  0  0  0  0
  1  2  1  0
  2  3  2  0
  2  4  1  0
  4  5  1  0
  5  6  1  0
  6  7  1  0
  7  8  1  0
  8  9  2  0
  8 10  1  0
 10 11  1  0
 11 12  1  0
 12 13  1  0
 13 14  1  0
 14 15  2  0
 15 16  1  0
 16 17  1  0
 16 18  2  0
 18 19  1  0
 14 20  1  0
 19 20  2  0
 20 21  1  0
 13 22  1  0
 10 23  1  0
 22 23  1  0
 23 24  1  1
  7 25  1  0
  4 26  1  0
 25 26  1  0
M  END
