piperidine-amides-13144-covalent
     RDKit          3D

 20 21  0  0  0  0  0  0  0  0999 V2000
    7.0970   -3.3270   19.3170 C   0  0  0  0  0  0  0  0  0  0  0  0
    6.3550   -4.1220   20.3130 C   0  0  0  0  0  0  0  0  0  0  0  0
    5.2940   -4.6460   19.9220 O   0  0  0  0  0  0  0  0  0  0  0  0
    6.8700   -4.3190   21.6010 N   0  0  0  0  0  0  0  0  0  0  0  0
    6.4430   -5.4280   22.3800 C   0  0  0  0  0  0  0  0  0  0  0  0
    5.9600   -5.0600   23.7180 C   0  0  0  0  0  0  0  0  0  0  0  0
    6.5720   -3.8450   24.2980 C   0  0  0  0  0  0  0  0  0  0  0  0
    5.7950   -3.3880   25.4800 C   0  0  0  0  0  0  0  0  0  0  0  0
    4.5630   -3.1840   25.3840 O   0  0  0  0  0  0  0  0  0  0  0  0
    6.4280   -3.2040   26.7140 N   0  0  0  0  0  0  0  0  0  0  0  0
    6.6690   -4.3730   27.6040 C   0  0  0  0  0  0  0  0  0  0  0  0
    6.4570   -1.9040   27.2960 C   0  0  0  0  0  0  0  0  0  0  0  0
    5.8930   -0.7370   26.6370 C   0  0  0  0  0  0  0  0  0  0  0  0
    5.9050    0.5080   27.1830 C   0  0  0  0  0  0  0  0  0  0  0  0
    6.4720    0.6950   28.4160 C   0  0  0  0  0  0  0  0  0  0  0  0
    6.5270    1.9800   29.0620 N   0  0  0  0  0  0  0  0  0  0  0  0
    7.0320   -0.3370   29.1190 C   0  0  0  0  0  0  0  0  0  0  0  0
    7.0760   -1.6290   28.6620 C   0  0  0  0  0  0  0  0  0  0  0  0
    6.8550   -2.7710   23.3200 C   0  0  0  0  0  0  0  0  0  0  0  0
    7.6050   -3.2610   22.2600 C   0  0  0  0  0  0  0  0  0  0  0  0
  1  2  1  0
  2  3  2  0
  2  4  1  0
  4  5  1  0
  5  6  1  0
  6  7  1  0
  7  8  1  0
  8  9  2  0
  8 10  1  0
 10 11  1  0
 10 12  1  0
 12 13  2  0
 13 14  1  0
 14 15  2  0
 15 16  1  0
 15 17  1  0
 12 18  1  0
 17 18  2  0
  7 19  1  0
  4 20  1  0
 19 20  1  0
M  END
