piperidine-amides-15363-covalent
     RDKit          3D

 17 18  0  0  0  0  0  0  0  0999 V2000
    7.0820   -3.3410   19.3350 C   0  0  0  0  0  0  0  0  0  0  0  0
    6.3810   -4.1900   20.3060 C   0  0  0  0  0  0  0  0  0  0  0  0
    5.3440   -4.8000   19.9680 O   0  0  0  0  0  0  0  0  0  0  0  0
    6.9000   -4.3760   21.5930 N   0  0  0  0  0  0  0  0  0  0  0  0
    6.5560   -5.5670   22.3300 C   0  0  0  0  0  0  0  0  0  0  0  0
    5.6140   -5.0990   23.4430 C   0  0  0  0  0  0  0  0  0  0  0  0
    6.3970   -4.0640   24.2130 C   0  0  0  0  0  0  0  0  0  0  0  0
    5.5500   -3.4880   25.2830 C   0  0  0  0  0  0  0  0  0  0  0  0
    4.6370   -2.7230   24.9290 O   0  0  0  0  0  0  0  0  0  0  0  0
    5.7430   -3.7750   26.6590 N   0  0  0  0  0  0  0  0  0  0  0  0
    4.6050   -3.5940   27.5420 C   0  0  0  0  0  0  0  0  0  0  0  0
    4.5660   -4.6250   28.6790 C   0  0  0  0  0  0  0  0  0  0  0  0
    5.8130   -4.5670   29.2980 O   0  0  0  0  0  0  0  0  0  0  0  0
    6.8100   -4.2030   28.5030 C   0  0  0  0  0  0  0  0  0  0  0  0
    6.4450   -3.1550   27.7120 C   0  0  0  0  0  0  0  0  0  0  0  0
    6.9000   -2.9310   23.3690 C   0  0  0  0  0  0  0  0  0  0  0  0
    7.6460   -3.3500   22.2960 C   0  0  0  0  0  0  0  0  0  0  0  0
  1  2  1  0
  2  3  2  0
  2  4  1  0
  4  5  1  0
  5  6  1  0
  6  7  1  0
  7  8  1  0
  8  9  2  0
  8 10  1  0
 10 11  1  0
 11 12  1  0
 12 13  1  0
 13 14  1  0
 10 15  1  0
 14 15  1  0
  7 16  1  0
  4 17  1  0
 16 17  1  0
M  END
