piperidine-amides-12081-covalent
     RDKit          3D

 25 26  0  0  0  0  0  0  0  0999 V2000
    7.1230   -3.2870   19.2030 C   0  0  0  0  0  0  0  0  0  0  0  0
    6.3110   -3.9730   20.1970 C   0  0  0  0  0  0  0  0  0  0  0  0
    5.2560   -4.5070   19.8700 O   0  0  0  0  0  0  0  0  0  0  0  0
    6.7710   -4.0760   21.5510 N   0  0  0  0  0  0  0  0  0  0  0  0
    6.6080   -5.3160   22.2560 C   0  0  0  0  0  0  0  0  0  0  0  0
    5.9340   -5.0640   23.5710 C   0  0  0  0  0  0  0  0  0  0  0  0
    5.9620   -3.5670   23.8390 C   0  0  0  0  0  0  0  0  0  0  0  0
    5.6210   -3.3420   25.2640 C   0  0  0  0  0  0  0  0  0  0  0  0
    4.9970   -2.3520   25.6810 O   0  0  0  0  0  0  0  0  0  0  0  0
    6.0390   -4.3480   26.1410 N   0  0  0  0  0  0  0  0  0  0  0  0
    5.8900   -4.2120   27.5570 C   0  0  0  0  0  0  0  0  0  0  0  0
    5.7480   -5.6250   28.0640 C   0  0  1  0  0  0  0  0  0  0  0  0
    6.8510   -6.2930   28.4950 C   0  0  0  0  0  0  0  0  0  0  0  0
    4.9440   -5.5210   29.3670 C   0  0  0  0  0  0  0  0  0  0  0  0
    3.9140   -6.4330   29.4750 C   0  0  0  0  0  0  0  0  0  0  0  0
    2.9230   -6.7600   28.4780 C   0  0  0  0  0  0  0  0  0  0  0  0
    1.9440   -7.6770   28.7170 C   0  0  0  0  0  0  0  0  0  0  0  0
    1.8320   -8.3530   29.9180 C   0  0  0  0  0  0  0  0  0  0  0  0
    0.7700   -9.2490   29.9970 O   0  0  0  0  0  0  0  0  0  0  0  0
    0.6110  -10.0440   28.8550 C   0  0  0  0  0  0  0  0  0  0  0  0
    0.6940  -11.4780   29.1600 C   0  0  0  0  0  0  0  0  0  0  0  0
    2.7660   -8.0660   30.8870 C   0  0  0  0  0  0  0  0  0  0  0  0
    3.7770   -7.1230   30.6490 C   0  0  0  0  0  0  0  0  0  0  0  0
    7.3310   -2.9860   23.5810 C   0  0  0  0  0  0  0  0  0  0  0  0
    7.6840   -3.0990   22.0950 C   0  0  0  0  0  0  0  0  0  0  0  0
  1  2  1  0
  2  3  2  0
  2  4  1  0
  4  5  1  0
  5  6  1  0
  6  7  1  0
  7  8  1  0
  8  9  2  0
  8 10  1  0
 10 11  1  0
 11 12  1  0
 12 13  1  1
 12 14  1  0
 14 15  1  0
 15 16  2  0
 16 17  1  0
 17 18  2  0
 18 19  1  0
 19 20  1  0
 20 21  1  0
 18 22  1  0
 15 23  1  0
 22 23  2  0
  7 24  1  0
  4 25  1  0
 24 25  1  0
M  END
