piperidine-amides-8858-covalent
     RDKit          3D

 22 23  0  0  0  0  0  0  0  0999 V2000
    7.1010   -3.2840   19.2510 C   0  0  0  0  0  0  0  0  0  0  0  0
    6.4030   -4.0770   20.2640 C   0  0  0  0  0  0  0  0  0  0  0  0
    5.3510   -4.6570   19.9330 O   0  0  0  0  0  0  0  0  0  0  0  0
    6.9450   -4.2120   21.5690 N   0  0  0  0  0  0  0  0  0  0  0  0
    7.7370   -3.1530   22.1310 C   0  0  0  0  0  0  0  0  0  0  0  0
    7.0320   -2.6010   23.3250 C   0  0  0  0  0  0  0  0  0  0  0  0
    6.6170   -3.7810   24.1710 C   0  0  0  0  0  0  0  0  0  0  0  0
    5.8180   -3.2910   25.3440 C   0  0  0  0  0  0  0  0  0  0  0  0
    4.6030   -3.2000   25.1690 O   0  0  0  0  0  0  0  0  0  0  0  0
    6.4870   -2.9590   26.5220 N   0  0  0  0  0  0  0  0  0  0  0  0
    6.2030   -3.5790   27.7790 C   0  0  0  0  0  0  0  0  0  0  0  0
    5.5680   -4.8220   27.6850 C   0  0  2  0  0  0  0  0  0  0  0  0
    4.3930   -4.8170   27.2670 O   0  0  0  0  0  0  0  0  0  0  0  0
    5.4150   -5.5330   28.8450 C   0  0  0  0  0  0  0  0  0  0  0  0
    6.2080   -6.6430   29.0640 C   0  0  0  0  0  0  0  0  0  0  0  0
    6.0380   -7.4350   30.3230 C   0  0  0  0  0  0  0  0  0  0  0  0
    5.0300   -7.0780   31.4100 C   0  0  0  0  0  0  0  0  0  0  0  0
    4.8990   -7.8830   32.6430 C   0  0  0  0  0  0  0  0  0  0  0  0
    4.1900   -5.8730   31.1520 C   0  0  0  0  0  0  0  0  0  0  0  0
    4.4720   -5.1620   29.8080 C   0  0  0  0  0  0  0  0  0  0  0  0
    5.7130   -4.7110   23.3780 C   0  0  0  0  0  0  0  0  0  0  0  0
    6.5380   -5.2860   22.4340 C   0  0  0  0  0  0  0  0  0  0  0  0
  1  2  1  0
  2  3  2  0
  2  4  1  0
  4  5  1  0
  5  6  1  0
  6  7  1  0
  7  8  1  0
  8  9  2  0
  8 10  1  0
 10 11  1  0
 11 12  1  0
 12 13  1  1
 12 14  1  0
 14 15  2  0
 15 16  1  0
 16 17  2  0
 17 18  1  0
 17 19  1  0
 14 20  1  0
 19 20  2  0
  7 21  1  0
  4 22  1  0
 21 22  1  0
M  END
