piperidine-amides-5153-covalent
     RDKit          3D

 22 23  0  0  0  0  0  0  0  0999 V2000
    7.1570   -3.2740   19.1980 C   0  0  0  0  0  0  0  0  0  0  0  0
    6.3460   -3.9910   20.2050 C   0  0  0  0  0  0  0  0  0  0  0  0
    5.2470   -4.4400   19.8350 O   0  0  0  0  0  0  0  0  0  0  0  0
    6.8480   -4.1930   21.4930 N   0  0  0  0  0  0  0  0  0  0  0  0
    7.5920   -3.1610   22.1360 C   0  0  0  0  0  0  0  0  0  0  0  0
    7.1450   -2.8200   23.4880 C   0  0  0  0  0  0  0  0  0  0  0  0
    6.4640   -3.9130   24.2210 C   0  0  0  0  0  0  0  0  0  0  0  0
    5.7380   -3.3530   25.3910 C   0  0  0  0  0  0  0  0  0  0  0  0
    4.5480   -3.0210   25.2330 O   0  0  0  0  0  0  0  0  0  0  0  0
    6.3500   -3.2000   26.6500 N   0  0  0  0  0  0  0  0  0  0  0  0
    6.1220   -4.1380   27.7830 C   0  0  0  0  0  0  0  0  0  0  0  0
    5.9120   -5.5550   27.3340 C   0  0  0  0  0  0  0  0  0  0  0  0
    4.5660   -6.1160   27.4300 C   0  0  0  0  0  0  0  0  0  0  0  0
    4.1080   -6.5890   28.6360 C   0  0  0  0  0  0  0  0  0  0  0  0
    2.7270   -6.5040   28.8120 N   0  0  0  0  0  0  0  0  0  0  0  0
    2.4730   -6.9960   30.0080 N   0  0  0  0  0  0  0  0  0  0  0  0
    3.6350   -7.4000   30.6180 C   0  0  0  0  0  0  0  0  0  0  0  0
    3.7500   -7.9540   31.8570 C   0  0  0  0  0  0  0  0  0  0  0  0
    4.6020   -7.1230   29.7200 N   0  0  0  0  0  0  0  0  0  0  0  0
    5.9360   -7.4670   30.1410 C   0  0  0  0  0  0  0  0  0  0  0  0
    5.6530   -4.8400   23.4020 C   0  0  0  0  0  0  0  0  0  0  0  0
    6.3500   -5.2860   22.2830 C   0  0  0  0  0  0  0  0  0  0  0  0
  1  2  1  0
  2  3  2  0
  2  4  1  0
  4  5  1  0
  5  6  1  0
  6  7  1  0
  7  8  1  0
  8  9  2  0
  8 10  1  0
 10 11  1  0
 11 12  1  0
 12 13  1  0
 13 14  1  0
 14 15  2  0
 15 16  1  0
 16 17  2  0
 17 18  1  0
 14 19  1  0
 17 19  1  0
 19 20  1  0
  7 21  1  0
  4 22  1  0
 21 22  1  0
M  END
