piperidine-amides-14295-covalent
     RDKit          3D

 24 26  0  0  0  0  0  0  0  0999 V2000
    7.1320   -3.2860   19.2490 C   0  0  0  0  0  0  0  0  0  0  0  0
    6.3410   -4.0400   20.2140 C   0  0  0  0  0  0  0  0  0  0  0  0
    5.2390   -4.4880   19.8550 O   0  0  0  0  0  0  0  0  0  0  0  0
    6.8580   -4.3060   21.4980 N   0  0  0  0  0  0  0  0  0  0  0  0
    6.3580   -5.4420   22.2120 C   0  0  0  0  0  0  0  0  0  0  0  0
    5.5000   -4.9580   23.3400 C   0  0  0  0  0  0  0  0  0  0  0  0
    6.3340   -3.9260   24.0740 C   0  0  0  0  0  0  0  0  0  0  0  0
    5.5650   -3.3300   25.2070 C   0  0  0  0  0  0  0  0  0  0  0  0
    4.4460   -2.8890   24.9700 O   0  0  0  0  0  0  0  0  0  0  0  0
    6.1880   -3.3370   26.4410 N   0  0  0  0  0  0  0  0  0  0  0  0
    7.2510   -4.2370   26.6550 C   0  0  0  0  0  0  0  0  0  0  0  0
    8.4590   -3.8120   26.1050 C   0  0  0  0  0  0  0  0  0  0  0  0
    8.4580   -2.7890   25.0890 N   0  0  0  0  0  0  0  0  0  0  0  0
    9.7710   -2.5390   24.7290 C   0  0  0  0  0  0  0  0  0  0  0  0
   10.2020   -1.6090   23.7750 C   0  0  0  0  0  0  0  0  0  0  0  0
   11.7020   -1.5580   23.6060 C   0  0  0  0  0  0  0  0  0  0  0  0
   12.1820   -0.6720   22.6970 F   0  0  0  0  0  0  0  0  0  0  0  0
   12.6190   -2.4720   24.4370 C   0  0  0  0  0  0  0  0  0  0  0  0
   12.0920   -3.4280   25.4200 C   0  0  0  0  0  0  0  0  0  0  0  0
   10.5990   -3.3640   25.4730 C   0  0  0  0  0  0  0  0  0  0  0  0
    9.7480   -4.1090   26.2770 N   0  0  0  0  0  0  0  0  0  0  0  0
    9.9160   -5.0610   27.1980 C   0  0  0  0  0  0  0  0  0  0  0  0
    6.6640   -2.7900   23.1350 C   0  0  0  0  0  0  0  0  0  0  0  0
    7.5670   -3.2790   22.2230 C   0  0  0  0  0  0  0  0  0  0  0  0
  1  2  1  0
  2  3  2  0
  2  4  1  0
  4  5  1  0
  5  6  1  0
  6  7  1  0
  7  8  1  0
  8  9  2  0
  8 10  1  0
 10 11  1  0
 11 12  1  0
 12 13  2  0
 13 14  1  0
 14 15  2  0
 15 16  1  0
 16 17  1  0
 16 18  2  0
 18 19  1  0
 14 20  1  0
 19 20  2  0
 12 21  1  0
 20 21  1  0
 21 22  1  0
  7 23  1  0
  4 24  1  0
 23 24  1  0
M  END
