piperidine-amides-26099-covalent
     RDKit          3D

 25 27  0  0  0  0  0  0  0  0999 V2000
    7.0130   -3.3630   19.4630 C   0  0  0  0  0  0  0  0  0  0  0  0
    6.3780   -4.2520   20.4410 C   0  0  0  0  0  0  0  0  0  0  0  0
    5.4440   -4.9670   20.0210 O   0  0  0  0  0  0  0  0  0  0  0  0
    6.8020   -4.3650   21.7990 N   0  0  0  0  0  0  0  0  0  0  0  0
    6.6840   -5.6110   22.5320 C   0  0  0  0  0  0  0  0  0  0  0  0
    6.1090   -5.2270   23.8700 C   0  0  0  0  0  0  0  0  0  0  0  0
    5.9580   -3.7420   23.9330 C   0  0  0  0  0  0  0  0  0  0  0  0
    5.0940   -3.1990   25.0570 C   0  0  0  0  0  0  0  0  0  0  0  0
    3.8840   -3.0220   24.7690 O   0  0  0  0  0  0  0  0  0  0  0  0
    5.3600   -2.8520   26.4250 N   0  0  0  0  0  0  0  0  0  0  0  0
    4.2940   -2.9850   27.3890 C   0  0  0  0  0  0  0  0  0  0  0  0
    4.4230   -4.3710   27.8250 C   0  0  0  0  0  0  0  0  0  0  0  0
    5.2690   -4.4090   28.8410 N   0  0  0  0  0  0  0  0  0  0  0  0
    5.1630   -5.4420   29.7930 C   0  0  0  0  0  0  0  0  0  0  0  0
    6.1520   -6.5570   29.6690 C   0  0  0  0  0  0  0  0  0  0  0  0
    6.1280   -7.6400   30.5720 N   0  0  0  0  0  0  0  0  0  0  0  0
    5.1970   -7.6240   31.5290 C   0  0  0  0  0  0  0  0  0  0  0  0
    4.1560   -6.6010   31.7730 C   0  0  0  0  0  0  0  0  0  0  0  0
    3.2140   -6.6250   32.7640 O   0  0  0  0  0  0  0  0  0  0  0  0
    3.1540   -7.8270   33.4660 C   0  0  0  0  0  0  0  0  0  0  0  0
    4.2090   -5.4530   30.7860 C   0  0  0  0  0  0  0  0  0  0  0  0
    6.3830   -4.3240   28.0300 C   0  0  0  0  0  0  0  0  0  0  0  0
    6.5840   -3.0930   27.0610 C   0  0  0  0  0  0  0  0  0  0  0  0
    7.3400   -3.1350   23.6250 C   0  0  0  0  0  0  0  0  0  0  0  0
    7.5090   -3.1990   22.4040 C   0  0  0  0  0  0  0  0  0  0  0  0
  1  2  1  0
  2  3  2  0
  2  4  1  0
  4  5  1  0
  5  6  1  0
  6  7  1  0
  7  8  1  0
  8  9  2  0
  8 10  1  0
 10 11  1  0
 11 12  1  0
 12 13  1  0
 13 14  1  0
 14 15  2  0
 15 16  1  0
 16 17  2  0
 17 18  1  0
 18 19  1  0
 19 20  1  0
 14 21  1  0
 18 21  2  0
 13 22  1  0
 10 23  1  0
 22 23  1  0
  7 24  1  0
  4 25  1  0
 24 25  1  0
M  END
