piperidine-amides-21529-covalent
     RDKit          3D

 23 25  0  0  0  0  0  0  0  0999 V2000
    7.0590   -3.3450   19.3080 C   0  0  0  0  0  0  0  0  0  0  0  0
    6.4020   -4.1840   20.3180 C   0  0  0  0  0  0  0  0  0  0  0  0
    5.3550   -4.7800   19.9610 O   0  0  0  0  0  0  0  0  0  0  0  0
    6.9680   -4.3350   21.5860 N   0  0  0  0  0  0  0  0  0  0  0  0
    6.6760   -5.4970   22.3870 C   0  0  0  0  0  0  0  0  0  0  0  0
    5.8070   -5.0240   23.5130 C   0  0  0  0  0  0  0  0  0  0  0  0
    5.6870   -3.5140   23.5040 C   0  0  0  0  0  0  0  0  0  0  0  0
    5.0980   -3.0190   24.7700 C   0  0  0  0  0  0  0  0  0  0  0  0
    4.0960   -2.2900   24.7110 O   0  0  0  0  0  0  0  0  0  0  0  0
    5.5840   -3.3310   26.0200 N   0  0  0  0  0  0  0  0  0  0  0  0
    5.0660   -2.6620   27.2410 C   0  0  0  0  0  0  0  0  0  0  0  0
    4.8780   -3.5010   28.4900 C   0  0  0  0  0  0  0  0  0  0  0  0
    5.2090   -4.7790   28.4930 C   0  0  0  0  0  0  0  0  0  0  0  0
    6.2070   -5.0740   27.6690 C   0  0  0  0  0  0  0  0  0  0  0  0
    7.0180   -6.0440   28.0050 C   0  0  0  0  0  0  0  0  0  0  0  0
    6.6920   -6.6830   29.1710 C   0  0  0  0  0  0  0  0  0  0  0  0
    8.0750   -6.3540   27.2100 C   0  0  0  0  0  0  0  0  0  0  0  0
    8.4790   -5.7690   25.9170 C   0  0  0  0  0  0  0  0  0  0  0  0
    7.5140   -4.6900   25.5570 C   0  0  0  0  0  0  0  0  0  0  0  0
    7.7370   -4.0380   24.3800 F   0  0  0  0  0  0  0  0  0  0  0  0
    6.3930   -4.3960   26.5150 C   0  0  0  0  0  0  0  0  0  0  0  0
    6.9990   -2.7940   23.2870 C   0  0  0  0  0  0  0  0  0  0  0  0
    7.7490   -3.2750   22.2350 C   0  0  0  0  0  0  0  0  0  0  0  0
  1  2  1  0
  2  3  2  0
  2  4  1  0
  4  5  1  0
  5  6  1  0
  6  7  1  0
  7  8  1  0
  8  9  2  0
  8 10  1  0
 10 11  1  0
 11 12  1  0
 12 13  1  0
 13 14  1  0
 14 15  2  0
 15 16  1  0
 15 17  1  0
 17 18  2  0
 18 19  1  0
 19 20  1  0
 10 21  1  0
 14 21  1  0
 19 21  2  0
  7 22  1  0
  4 23  1  0
 22 23  1  0
M  END
