piperidine-amides-12142-covalent
     RDKit          3D

 25 27  0  0  0  0  0  0  0  0999 V2000
    7.1550   -3.2580   19.1950 C   0  0  0  0  0  0  0  0  0  0  0  0
    6.3780   -4.0060   20.1790 C   0  0  0  0  0  0  0  0  0  0  0  0
    5.3000   -4.5100   19.8720 O   0  0  0  0  0  0  0  0  0  0  0  0
    6.9080   -4.2050   21.4950 N   0  0  0  0  0  0  0  0  0  0  0  0
    6.4730   -5.3250   22.2810 C   0  0  0  0  0  0  0  0  0  0  0  0
    5.6410   -4.8300   23.4290 C   0  0  0  0  0  0  0  0  0  0  0  0
    6.4680   -3.8050   24.1860 C   0  0  0  0  0  0  0  0  0  0  0  0
    5.6670   -3.2210   25.2880 C   0  0  0  0  0  0  0  0  0  0  0  0
    5.4040   -2.0120   25.3720 O   0  0  0  0  0  0  0  0  0  0  0  0
    5.1540   -4.0840   26.2680 N   0  0  0  0  0  0  0  0  0  0  0  0
    5.9170   -4.3830   27.4450 C   0  0  0  0  0  0  0  0  0  0  0  0
    5.9490   -5.8900   27.5230 C   0  0  0  0  0  0  0  0  0  0  0  0
    5.3640   -6.4760   28.6160 C   0  0  0  0  0  0  0  0  0  0  0  0
    5.9880   -6.6960   29.8130 C   0  0  0  0  0  0  0  0  0  0  0  0
    5.1390   -7.2970   30.7570 N   0  0  0  0  0  0  0  0  0  0  0  0
    5.3860   -7.6760   32.0840 C   0  0  0  0  0  0  0  0  0  0  0  0
    3.9390   -7.4060   29.9600 C   0  0  0  0  0  0  0  0  0  0  0  0
    2.7970   -7.9610   30.5100 C   0  0  0  0  0  0  0  0  0  0  0  0
    2.5450   -8.4690   31.7720 C   0  0  0  0  0  0  0  0  0  0  0  0
    1.6630   -7.9780   29.4960 C   0  0  0  0  0  0  0  0  0  0  0  0
    1.8230   -7.4590   28.1300 C   0  0  0  0  0  0  0  0  0  0  0  0
    3.0380   -6.9290   27.7350 C   0  0  0  0  0  0  0  0  0  0  0  0
    4.0470   -6.9290   28.6780 C   0  0  0  0  0  0  0  0  0  0  0  0
    6.9060   -2.6670   23.3030 C   0  0  0  0  0  0  0  0  0  0  0  0
    7.7200   -3.2000   22.1300 C   0  0  0  0  0  0  0  0  0  0  0  0
  1  2  1  0
  2  3  2  0
  2  4  1  0
  4  5  1  0
  5  6  1  0
  6  7  1  0
  7  8  1  0
  8  9  2  0
  8 10  1  0
 10 11  1  0
 11 12  1  0
 12 13  1  0
 13 14  2  0
 14 15  1  0
 15 16  1  0
 15 17  1  0
 17 18  1  0
 18 19  1  0
 18 20  2  0
 20 21  1  0
 21 22  2  0
 13 23  1  0
 17 23  2  0
 22 23  1  0
  7 24  1  0
  4 25  1  0
 24 25  1  0
M  END
