piperidine-amides-10819-covalent
     RDKit          3D

 22 23  0  0  0  0  0  0  0  0999 V2000
    7.1730   -3.2870   19.1450 C   0  0  0  0  0  0  0  0  0  0  0  0
    6.3600   -3.9720   20.1450 C   0  0  0  0  0  0  0  0  0  0  0  0
    5.2570   -4.4410   19.8330 O   0  0  0  0  0  0  0  0  0  0  0  0
    6.8440   -4.1600   21.4330 N   0  0  0  0  0  0  0  0  0  0  0  0
    7.7370   -3.2080   22.0560 C   0  0  0  0  0  0  0  0  0  0  0  0
    6.9910   -2.7100   23.2470 C   0  0  0  0  0  0  0  0  0  0  0  0
    6.5040   -3.8630   24.0560 C   0  0  0  0  0  0  0  0  0  0  0  0
    5.7390   -3.4150   25.2180 C   0  0  0  0  0  0  0  0  0  0  0  0
    4.5410   -3.0220   25.1040 O   0  0  0  0  0  0  0  0  0  0  0  0
    6.3010   -3.4090   26.4910 N   0  0  0  0  0  0  0  0  0  0  0  0
    5.7870   -4.3150   27.5210 C   0  0  2  0  0  0  0  0  0  0  0  0
    6.6150   -4.1050   28.6970 C   0  0  0  0  0  0  0  0  0  0  0  0
    6.9480   -2.9180   28.9460 O   0  0  0  0  0  0  0  0  0  0  0  0
    5.8480   -5.8110   27.1510 C   0  0  0  0  0  0  0  0  0  0  0  0
    5.2630   -6.4230   28.3910 C   0  0  0  0  0  0  0  0  0  0  0  0
    3.7750   -6.7410   28.3610 C   0  0  0  0  0  0  0  0  0  0  0  0
    3.1470   -7.3450   29.5740 C   0  0  0  0  0  0  0  0  0  0  0  0
    3.9450   -7.5820   30.6660 C   0  0  0  0  0  0  0  0  0  0  0  0
    5.3120   -7.3000   30.7050 C   0  0  0  0  0  0  0  0  0  0  0  0
    5.9820   -6.6950   29.5050 C   0  0  0  0  0  0  0  0  0  0  0  0
    5.6760   -4.8750   23.3190 C   0  0  0  0  0  0  0  0  0  0  0  0
    6.5030   -5.3560   22.1620 C   0  0  0  0  0  0  0  0  0  0  0  0
  1  2  1  0
  2  3  2  0
  2  4  1  0
  4  5  1  0
  5  6  1  0
  6  7  1  0
  7  8  1  0
  8  9  2  0
  8 10  1  0
 10 11  1  0
 11 12  1  1
 12 13  1  0
 11 14  1  0
 14 15  1  0
 15 16  2  0
 16 17  1  0
 17 18  2  0
 18 19  1  0
 15 20  1  0
 19 20  2  0
  7 21  1  0
  4 22  1  0
 21 22  1  0
M  END
