piperidine-amides-7235-covalent
     RDKit          3D

 21 21  0  0  0  0  0  0  0  0999 V2000
    7.0920   -3.2740   19.2680 C   0  0  0  0  0  0  0  0  0  0  0  0
    6.3630   -4.0340   20.2920 C   0  0  0  0  0  0  0  0  0  0  0  0
    5.3050   -4.6010   19.9050 O   0  0  0  0  0  0  0  0  0  0  0  0
    6.8490   -4.1470   21.5990 N   0  0  0  0  0  0  0  0  0  0  0  0
    6.6680   -5.3720   22.3490 C   0  0  0  0  0  0  0  0  0  0  0  0
    6.0670   -5.0280   23.6860 C   0  0  0  0  0  0  0  0  0  0  0  0
    6.0460   -3.5400   23.9140 C   0  0  0  0  0  0  0  0  0  0  0  0
    5.6290   -3.1920   25.2910 C   0  0  0  0  0  0  0  0  0  0  0  0
    4.4100   -2.9890   25.4930 O   0  0  0  0  0  0  0  0  0  0  0  0
    6.5170   -3.0680   26.3750 N   0  0  0  0  0  0  0  0  0  0  0  0
    6.2070   -3.6210   27.6760 C   0  0  0  0  0  0  0  0  0  0  0  0
    5.7530   -5.0790   27.6390 C   0  0  1  0  0  0  0  0  0  0  0  0
    5.9850   -5.7560   26.6120 O   0  0  0  0  0  0  0  0  0  0  0  0
    6.0200   -5.9620   28.6520 C   0  0  0  0  0  0  0  0  0  0  0  0
    5.1370   -6.1540   29.6740 N   0  0  0  0  0  0  0  0  0  0  0  0
    3.8230   -6.3060   29.4270 C   0  0  0  0  0  0  0  0  0  0  0  0
    3.3800   -7.5150   28.9060 C   0  0  0  0  0  0  0  0  0  0  0  0
    5.4880   -7.1700   30.4730 C   0  0  0  0  0  0  0  0  0  0  0  0
    5.1820   -7.1820   31.8150 C   0  0  0  0  0  0  0  0  0  0  0  0
    7.4250   -2.9460   23.6290 C   0  0  0  0  0  0  0  0  0  0  0  0
    7.7070   -3.1070   22.1390 C   0  0  0  0  0  0  0  0  0  0  0  0
  1  2  1  0
  2  3  2  0
  2  4  1  0
  4  5  1  0
  5  6  1  0
  6  7  1  0
  7  8  1  0
  8  9  2  0
  8 10  1  0
 10 11  1  0
 11 12  1  0
 12 13  1  6
 12 14  1  0
 14 15  1  0
 15 16  1  0
 16 17  1  0
 15 18  1  0
 18 19  1  0
  7 20  1  0
  4 21  1  0
 20 21  1  0
M  END
