piperidine-amides-12577-covalent
     RDKit          3D

 23 24  0  0  0  0  0  0  0  0999 V2000
    7.0910   -3.2760   19.1690 C   0  0  0  0  0  0  0  0  0  0  0  0
    6.3250   -3.9920   20.2180 C   0  0  0  0  0  0  0  0  0  0  0  0
    5.2500   -4.5090   19.8620 O   0  0  0  0  0  0  0  0  0  0  0  0
    6.8060   -4.1210   21.5270 N   0  0  0  0  0  0  0  0  0  0  0  0
    7.6290   -3.1120   22.1090 C   0  0  0  0  0  0  0  0  0  0  0  0
    7.3870   -2.9190   23.5310 C   0  0  0  0  0  0  0  0  0  0  0  0
    6.1340   -3.5290   24.0290 C   0  0  0  0  0  0  0  0  0  0  0  0
    6.0550   -3.3760   25.5060 C   0  0  0  0  0  0  0  0  0  0  0  0
    4.9280   -3.1670   26.0010 O   0  0  0  0  0  0  0  0  0  0  0  0
    7.2210   -3.4430   26.3150 N   0  0  0  0  0  0  0  0  0  0  0  0
    7.3340   -4.2110   27.5890 C   0  0  2  0  0  0  0  0  0  0  0  0
    8.3320   -5.3210   27.4540 C   0  0  0  0  0  0  0  0  0  0  0  0
    9.0140   -5.5550   26.1830 C   0  0  0  0  0  0  0  0  0  0  0  0
    8.2130   -5.7540   25.2170 O   0  0  0  0  0  0  0  0  0  0  0  0
    6.0110   -4.7470   27.8570 C   0  0  0  0  0  0  0  0  0  0  0  0
    5.7260   -6.0760   27.6040 C   0  0  0  0  0  0  0  0  0  0  0  0
    4.4970   -6.6010   27.8530 C   0  0  0  0  0  0  0  0  0  0  0  0
    3.5040   -5.8210   28.3630 C   0  0  0  0  0  0  0  0  0  0  0  0
    3.7310   -4.5000   28.6310 C   0  0  0  0  0  0  0  0  0  0  0  0
    4.9980   -3.9680   28.3730 C   0  0  0  0  0  0  0  0  0  0  0  0
    5.3140   -2.1250   28.7500 Br  0  0  0  0  0  0  0  0  0  0  0  0
    5.8360   -4.9280   23.6050 C   0  0  0  0  0  0  0  0  0  0  0  0
    6.5760   -5.3120   22.3360 C   0  0  0  0  0  0  0  0  0  0  0  0
  1  2  1  0
  2  3  2  0
  2  4  1  0
  4  5  1  0
  5  6  1  0
  6  7  1  0
  7  8  1  0
  8  9  2  0
  8 10  1  0
 10 11  1  0
 11 12  1  6
 12 13  1  0
 13 14  1  0
 11 15  1  0
 15 16  2  0
 16 17  1  0
 17 18  2  0
 18 19  1  0
 15 20  1  0
 19 20  2  0
 20 21  1  0
  7 22  1  0
  4 23  1  0
 22 23  1  0
M  END
