piperidine-amides-24766-covalent
     RDKit          3D

 23 23  0  0  0  0  0  0  0  0999 V2000
    7.1150   -3.2870   19.3160 C   0  0  0  0  0  0  0  0  0  0  0  0
    6.3440   -4.0620   20.2980 C   0  0  0  0  0  0  0  0  0  0  0  0
    5.3230   -4.6860   19.9350 O   0  0  0  0  0  0  0  0  0  0  0  0
    6.7650   -4.1510   21.6350 N   0  0  0  0  0  0  0  0  0  0  0  0
    7.6810   -3.1410   22.1560 C   0  0  0  0  0  0  0  0  0  0  0  0
    7.4690   -3.0160   23.6710 C   0  0  0  0  0  0  0  0  0  0  0  0
    6.1280   -3.6420   23.9430 C   0  0  0  0  0  0  0  0  0  0  0  0
    5.5790   -3.2530   25.2630 C   0  0  0  0  0  0  0  0  0  0  0  0
    4.3390   -3.3040   25.3960 O   0  0  0  0  0  0  0  0  0  0  0  0
    6.4030   -2.8320   26.3440 N   0  0  0  0  0  0  0  0  0  0  0  0
    6.1680   -3.3810   27.6600 C   0  0  0  0  0  0  0  0  0  0  0  0
    5.8180   -4.8600   27.5500 C   0  0  0  0  0  0  0  0  0  0  0  0
    4.5400   -5.2590   27.8440 C   0  0  0  0  0  0  0  0  0  0  0  0
    4.3380   -5.9740   28.8690 O   0  0  0  0  0  0  0  0  0  0  0  0
    4.9600   -7.1850   28.8830 C   0  0  0  0  0  0  0  0  0  0  0  0
    6.1220   -7.2410   29.6470 C   0  0  0  0  0  0  0  0  0  0  0  0
    6.6940   -1.4070   26.6700 C   0  0  0  0  0  0  0  0  0  0  0  0
    5.5520   -0.5640   27.2220 C   0  0  0  0  0  0  0  0  0  0  0  0
    4.3210   -1.1380   27.2710 F   0  0  0  0  0  0  0  0  0  0  0  0
    5.8280   -0.1870   28.5430 F   0  0  0  0  0  0  0  0  0  0  0  0
    5.5590    0.5870   26.4900 F   0  0  0  0  0  0  0  0  0  0  0  0
    6.1480   -5.1140   23.7280 C   0  0  0  0  0  0  0  0  0  0  0  0
    6.6520   -5.4100   22.3540 C   0  0  0  0  0  0  0  0  0  0  0  0
  1  2  1  0
  2  3  2  0
  2  4  1  0
  4  5  1  0
  5  6  1  0
  6  7  1  0
  7  8  1  0
  8  9  2  0
  8 10  1  0
 10 11  1  0
 11 12  1  0
 12 13  1  0
 13 14  1  0
 14 15  1  0
 15 16  1  0
 10 17  1  0
 17 18  1  0
 18 19  1  0
 18 20  1  0
 18 21  1  0
  7 22  1  0
  4 23  1  0
 22 23  1  0
M  END
