piperidine-amides-18950-covalent
     RDKit          3D

 20 21  0  0  0  0  0  0  0  0999 V2000
    7.1160   -3.3620   19.4340 C   0  0  0  0  0  0  0  0  0  0  0  0
    6.4300   -4.2030   20.3910 C   0  0  0  0  0  0  0  0  0  0  0  0
    5.4390   -4.9000   19.9970 O   0  0  0  0  0  0  0  0  0  0  0  0
    6.8750   -4.2720   21.7240 N   0  0  0  0  0  0  0  0  0  0  0  0
    6.6280   -5.5610   22.4610 C   0  0  0  0  0  0  0  0  0  0  0  0
    5.9110   -5.0920   23.8060 C   0  0  0  0  0  0  0  0  0  0  0  0
    6.4170   -3.6950   23.9950 C   0  0  0  0  0  0  0  0  0  0  0  0
    5.5800   -2.7510   24.9530 C   0  0  0  0  0  0  0  0  0  0  0  0
    5.4900   -1.6710   24.4240 O   0  0  0  0  0  0  0  0  0  0  0  0
    5.1650   -3.2640   26.0200 N   0  0  0  0  0  0  0  0  0  0  0  0
    4.2220   -3.5670   26.9300 C   0  0  0  0  0  0  0  0  0  0  0  0
    3.5040   -4.6360   27.3470 C   0  0  0  0  0  0  0  0  0  0  0  0
    3.9890   -5.2720   28.7720 S   0  0  0  0  0  0  0  0  0  0  0  0
    5.5450   -4.6350   28.9290 C   0  0  0  0  0  0  0  0  0  0  0  0
    6.5710   -5.5550   29.4100 C   0  0  0  0  0  0  0  0  0  0  0  0
    5.4350   -3.1910   29.3490 C   0  0  0  0  0  0  0  0  0  0  0  0
    6.3310   -4.5420   27.7490 C   0  0  0  0  0  0  0  0  0  0  0  0
    6.1980   -3.3360   27.0200 C   0  0  0  0  0  0  0  0  0  0  0  0
    7.7950   -3.4870   23.7850 C   0  0  0  0  0  0  0  0  0  0  0  0
    7.8130   -3.3360   22.2480 C   0  0  0  0  0  0  0  0  0  0  0  0
  1  2  1  0
  2  3  2  0
  2  4  1  0
  4  5  1  0
  5  6  1  0
  6  7  1  0
  7  8  1  0
  8  9  2  0
  8 10  1  0
 10 11  1  0
 11 12  1  0
 12 13  1  0
 13 14  1  0
 14 15  1  0
 14 16  1  0
 14 17  1  0
 10 18  1  0
 17 18  1  0
  7 19  1  0
  4 20  1  0
 19 20  1  0
M  END
