piperidine-amides-25270-covalent
     RDKit          3D

 22 24  0  0  0  0  0  0  0  0999 V2000
    7.1350   -3.2700   19.2040 C   0  0  0  0  0  0  0  0  0  0  0  0
    6.3230   -4.0020   20.2070 C   0  0  0  0  0  0  0  0  0  0  0  0
    5.2430   -4.4480   19.8410 O   0  0  0  0  0  0  0  0  0  0  0  0
    6.8210   -4.2160   21.4900 N   0  0  0  0  0  0  0  0  0  0  0  0
    6.3650   -5.3410   22.2570 C   0  0  0  0  0  0  0  0  0  0  0  0
    5.5720   -4.8130   23.4180 C   0  0  0  0  0  0  0  0  0  0  0  0
    6.4590   -3.8540   24.2070 C   0  0  0  0  0  0  0  0  0  0  0  0
    5.6810   -3.3480   25.3580 C   0  0  0  0  0  0  0  0  0  0  0  0
    4.4460   -3.2950   25.2810 O   0  0  0  0  0  0  0  0  0  0  0  0
    6.3190   -2.9270   26.5400 N   0  0  0  0  0  0  0  0  0  0  0  0
    5.9350   -3.5170   27.7850 C   0  0  0  0  0  0  0  0  0  0  0  0
    5.9690   -2.1010   28.1700 C   0  0  0  0  0  0  0  0  0  0  0  0
    6.7670   -1.6130   29.1670 C   0  0  0  0  0  0  0  0  0  0  0  0
    6.1170    0.1210   29.4140 S   0  0  0  0  0  0  0  0  0  0  0  0
    5.5210    0.0940   31.1270 C   0  0  0  0  0  0  0  0  0  0  0  0
    6.1980    1.0240   31.9670 N   0  0  0  0  0  0  0  0  0  0  0  0
    5.7490    1.0160   33.3360 C   0  0  0  0  0  0  0  0  0  0  0  0
    4.3120    0.4830   33.4100 C   0  0  0  0  0  0  0  0  0  0  0  0
    4.3000   -0.7940   32.0550 S   0  0  0  0  0  0  0  0  0  0  0  0
    6.3480   -1.5040   26.8680 C   0  0  0  0  0  0  0  0  0  0  0  0
    6.9860   -2.7240   23.4230 C   0  0  0  0  0  0  0  0  0  0  0  0
    7.5380   -3.1370   22.1080 C   0  0  0  0  0  0  0  0  0  0  0  0
  1  2  1  0
  2  3  2  0
  2  4  1  0
  4  5  1  0
  5  6  1  0
  6  7  1  0
  7  8  1  0
  8  9  2  0
  8 10  1  0
 10 11  1  0
 11 12  1  0
 12 13  1  0
 13 14  1  0
 14 15  1  0
 15 16  2  0
 16 17  1  0
 17 18  1  0
 15 19  1  0
 18 19  1  0
 10 20  1  0
 12 20  1  0
  7 21  1  0
  4 22  1  0
 21 22  1  0
M  END
