piperidine-amides-9187-covalent
     RDKit          3D

 20 20  0  0  0  0  0  0  0  0999 V2000
    7.1340   -3.2660   19.1580 C   0  0  0  0  0  0  0  0  0  0  0  0
    6.3590   -3.9860   20.1730 C   0  0  0  0  0  0  0  0  0  0  0  0
    5.2800   -4.5130   19.8660 O   0  0  0  0  0  0  0  0  0  0  0  0
    6.8460   -4.1360   21.4720 N   0  0  0  0  0  0  0  0  0  0  0  0
    7.7900   -3.2110   22.0590 C   0  0  0  0  0  0  0  0  0  0  0  0
    7.1020   -2.6510   23.2540 C   0  0  0  0  0  0  0  0  0  0  0  0
    6.6740   -3.7410   24.1840 C   0  0  0  0  0  0  0  0  0  0  0  0
    6.0110   -3.1460   25.3480 C   0  0  0  0  0  0  0  0  0  0  0  0
    4.7440   -3.1410   25.4690 O   0  0  0  0  0  0  0  0  0  0  0  0
    6.7810   -2.5410   26.3660 N   0  0  0  0  0  0  0  0  0  0  0  0
    6.4970   -2.8320   27.7730 C   0  0  0  0  0  0  0  0  0  0  0  0
    7.4160   -3.8730   28.2400 C   0  0  0  0  0  0  0  0  0  0  0  0
    7.4470   -5.1650   27.5730 C   0  0  0  0  0  0  0  0  0  0  0  0
    6.8010   -4.9540   26.5410 O   0  0  0  0  0  0  0  0  0  0  0  0
    6.9150   -6.1220   28.6050 C   0  0  0  0  0  0  0  0  0  0  0  0
    5.6120   -6.7700   28.1770 C   0  0  0  0  0  0  0  0  0  0  0  0
    8.7840   -5.8040   27.1540 C   0  0  0  0  0  0  0  0  0  0  0  0
    9.3250   -5.5210   25.9340 C   0  0  0  0  0  0  0  0  0  0  0  0
    5.7760   -4.7530   23.5040 C   0  0  0  0  0  0  0  0  0  0  0  0
    6.4620   -5.2850   22.2650 C   0  0  0  0  0  0  0  0  0  0  0  0
  1  2  1  0
  2  3  2  0
  2  4  1  0
  4  5  1  0
  5  6  1  0
  6  7  1  0
  7  8  1  0
  8  9  2  0
  8 10  1  0
 10 11  1  0
 11 12  1  0
 12 13  1  0
 13 14  1  0
 13 15  1  0
 15 16  1  0
 13 17  1  0
 17 18  1  0
  7 19  1  0
  4 20  1  0
 19 20  1  0
M  END
