piperidine-amides-24380-covalent
     RDKit          3D

 23 25  0  0  0  0  0  0  0  0999 V2000
    7.0880   -3.3340   19.3500 C   0  0  0  0  0  0  0  0  0  0  0  0
    6.4200   -4.2140   20.3180 C   0  0  0  0  0  0  0  0  0  0  0  0
    5.3910   -4.8440   19.9860 O   0  0  0  0  0  0  0  0  0  0  0  0
    6.9640   -4.3950   21.6000 N   0  0  0  0  0  0  0  0  0  0  0  0
    6.6260   -5.5660   22.3640 C   0  0  0  0  0  0  0  0  0  0  0  0
    5.8340   -5.0640   23.5730 C   0  0  0  0  0  0  0  0  0  0  0  0
    6.6280   -3.9320   24.2080 C   0  0  0  0  0  0  0  0  0  0  0  0
    5.8600   -3.3370   25.3210 C   0  0  0  0  0  0  0  0  0  0  0  0
    5.1590   -2.3400   25.0670 O   0  0  0  0  0  0  0  0  0  0  0  0
    5.8620   -3.8770   26.6280 N   0  0  0  0  0  0  0  0  0  0  0  0
    4.6280   -3.7600   27.3320 C   0  0  0  0  0  0  0  0  0  0  0  0
    4.5410   -4.8910   28.3220 C   0  0  0  0  0  0  0  0  0  0  0  0
    5.4610   -4.9480   29.2950 C   0  0  0  0  0  0  0  0  0  0  0  0
    5.1980   -5.8080   30.3360 C   0  0  0  0  0  0  0  0  0  0  0  0
    4.1150   -5.5450   31.2410 N   0  0  0  0  0  0  0  0  0  0  0  0
    3.8820   -6.3880   32.3020 C   0  0  0  0  0  0  0  0  0  0  0  0
    4.7960   -7.3960   32.2870 C   0  0  0  0  0  0  0  0  0  0  0  0
    5.0260   -8.5750   33.2130 C   0  0  0  0  0  0  0  0  0  0  0  0
    5.9400   -7.3140   30.9330 S   0  0  0  0  0  0  0  0  0  0  0  0
    6.6400   -4.9280   28.6220 C   0  0  0  0  0  0  0  0  0  0  0  0
    6.4100   -3.6090   27.9240 C   0  0  0  0  0  0  0  0  0  0  0  0
    6.9190   -2.8310   23.2160 C   0  0  0  0  0  0  0  0  0  0  0  0
    7.7530   -3.3710   22.2410 C   0  0  0  0  0  0  0  0  0  0  0  0
  1  2  1  0
  2  3  2  0
  2  4  1  0
  4  5  1  0
  5  6  1  0
  6  7  1  0
  7  8  1  0
  8  9  2  0
  8 10  1  0
 10 11  1  0
 11 12  1  0
 12 13  1  0
 13 14  1  0
 14 15  2  0
 15 16  1  0
 16 17  2  0
 17 18  1  0
 14 19  1  0
 17 19  1  0
 13 20  1  0
 10 21  1  0
 20 21  1  0
  7 22  1  0
  4 23  1  0
 22 23  1  0
M  END
