piperidine-amides-13126-covalent
     RDKit          3D

 20 20  0  0  0  0  0  0  0  0999 V2000
    7.1600   -3.2620   19.1800 C   0  0  0  0  0  0  0  0  0  0  0  0
    6.4180   -4.0210   20.2080 C   0  0  0  0  0  0  0  0  0  0  0  0
    5.3150   -4.5010   19.8710 O   0  0  0  0  0  0  0  0  0  0  0  0
    6.9740   -4.2310   21.4730 N   0  0  0  0  0  0  0  0  0  0  0  0
    7.6790   -3.1800   22.1200 C   0  0  0  0  0  0  0  0  0  0  0  0
    7.1410   -2.8330   23.4290 C   0  0  0  0  0  0  0  0  0  0  0  0
    5.8790   -3.5190   23.8030 C   0  0  0  0  0  0  0  0  0  0  0  0
    5.6800   -3.3630   25.2590 C   0  0  0  0  0  0  0  0  0  0  0  0
    4.6130   -2.8640   25.6690 O   0  0  0  0  0  0  0  0  0  0  0  0
    6.6820   -3.7710   26.1480 N   0  0  0  0  0  0  0  0  0  0  0  0
    6.4120   -4.4270   27.4390 C   0  0  2  0  0  0  0  0  0  0  0  0
    7.6660   -4.9910   27.9400 C   0  0  0  0  0  0  0  0  0  0  0  0
    8.4850   -3.9870   28.5260 C   0  0  0  0  0  0  0  0  0  0  0  0
    8.1130   -2.6610   28.4110 C   0  0  0  0  0  0  0  0  0  0  0  0
    5.2820   -5.3370   27.4790 C   0  0  0  0  0  0  0  0  0  0  0  0
    5.3030   -6.3080   26.5490 C   0  0  0  0  0  0  0  0  0  0  0  0
    3.9520   -6.4430   26.1690 O   0  0  0  0  0  0  0  0  0  0  0  0
    3.5410   -7.4550   25.2940 C   0  0  0  0  0  0  0  0  0  0  0  0
    5.7030   -4.9230   23.3340 C   0  0  0  0  0  0  0  0  0  0  0  0
    6.5230   -5.3280   22.2790 C   0  0  0  0  0  0  0  0  0  0  0  0
  1  2  1  0
  2  3  2  0
  2  4  1  0
  4  5  1  0
  5  6  1  0
  6  7  1  0
  7  8  1  0
  8  9  2  0
  8 10  1  0
 10 11  1  0
 11 12  1  6
 12 13  1  0
 13 14  3  0
 11 15  1  0
 15 16  1  0
 16 17  1  0
 17 18  1  0
  7 19  1  0
  4 20  1  0
 19 20  1  0
M  END
