piperidine-amides-1951-covalent
     RDKit          3D

 19 22  0  0  0  0  0  0  0  0999 V2000
    7.0750   -3.3340   19.2690 C   0  0  0  0  0  0  0  0  0  0  0  0
    6.3800   -4.1590   20.2920 C   0  0  0  0  0  0  0  0  0  0  0  0
    5.3530   -4.7370   19.9500 O   0  0  0  0  0  0  0  0  0  0  0  0
    6.9330   -4.2900   21.5660 N   0  0  0  0  0  0  0  0  0  0  0  0
    7.7310   -3.2310   22.1270 C   0  0  0  0  0  0  0  0  0  0  0  0
    6.9820   -2.6340   23.2670 C   0  0  0  0  0  0  0  0  0  0  0  0
    6.6850   -3.7520   24.2510 C   0  0  0  0  0  0  0  0  0  0  0  0
    6.0170   -3.1140   25.3980 C   0  0  0  0  0  0  0  0  0  0  0  0
    4.8370   -3.3930   25.6700 O   0  0  0  0  0  0  0  0  0  0  0  0
    6.7360   -2.1690   26.1640 N   0  0  0  0  0  0  0  0  0  0  0  0
    6.2000   -1.6820   27.4090 C   0  0  0  0  0  0  0  0  0  0  0  0
    5.4160   -0.4060   27.1710 C   0  0  2  0  0  0  0  0  0  0  0  0
    5.8440    0.8080   27.1400 C   0  0  0  0  0  0  0  0  0  0  0  0
    5.6560    0.6010   28.3570 C   0  0  2  0  0  0  0  0  0  0  0  0
    6.6020    0.0620   29.1660 C   0  0  1  0  0  0  0  0  0  0  0  0
    6.3710   -1.3190   29.6390 C   0  0  0  0  0  0  0  0  0  0  0  0
    7.1740   -1.1880   28.4660 C   0  0  1  0  0  0  0  0  0  0  0  0
    5.8940   -4.8700   23.6900 C   0  0  0  0  0  0  0  0  0  0  0  0
    6.4430   -5.3590   22.3920 C   0  0  0  0  0  0  0  0  0  0  0  0
  1  2  1  0
  2  3  2  0
  2  4  1  0
  4  5  1  0
  5  6  1  0
  6  7  1  0
  7  8  1  0
  8  9  2  0
  8 10  1  0
 10 11  1  0
 11 12  1  0
 12 13  1  6
 12 14  1  0
 14 13  1  6
 14 15  1  0
 15 16  1  1
 11 17  1  0
 15 17  1  0
 17 16  1  1
  7 18  1  0
  4 19  1  0
 18 19  1  0
M  END
