piperidine-amides-27098-covalent
     RDKit          3D

 25 26  0  0  0  0  0  0  0  0999 V2000
    7.0180   -3.3870   19.4070 C   0  0  0  0  0  0  0  0  0  0  0  0
    6.3510   -4.2280   20.4030 C   0  0  0  0  0  0  0  0  0  0  0  0
    5.3630   -4.8890   19.9870 O   0  0  0  0  0  0  0  0  0  0  0  0
    6.8230   -4.3130   21.7200 N   0  0  0  0  0  0  0  0  0  0  0  0
    6.7540   -5.5610   22.4540 C   0  0  0  0  0  0  0  0  0  0  0  0
    6.2320   -5.2770   23.8370 C   0  0  0  0  0  0  0  0  0  0  0  0
    6.1510   -3.8010   24.0720 C   0  0  0  0  0  0  0  0  0  0  0  0
    5.5550   -3.4450   25.3940 C   0  0  0  0  0  0  0  0  0  0  0  0
    4.4710   -2.8280   25.3490 O   0  0  0  0  0  0  0  0  0  0  0  0
    6.0640   -3.7240   26.6880 N   0  0  0  0  0  0  0  0  0  0  0  0
    5.8630   -2.7490   27.7220 C   0  0  0  0  0  0  0  0  0  0  0  0
    6.0690   -3.3720   29.0930 C   0  0  0  0  0  0  0  0  0  0  0  0
    5.1280   -4.4820   29.2590 N   0  0  0  0  0  0  0  0  0  0  0  0
    4.0060   -4.3330   29.9550 C   0  0  0  0  0  0  0  0  0  0  0  0
    3.3120   -3.0980   30.0710 O   0  0  0  0  0  0  0  0  0  0  0  0
    3.4620   -5.4140   30.6280 C   0  0  0  0  0  0  0  0  0  0  0  0
    3.8650   -5.7400   31.9050 O   0  0  0  0  0  0  0  0  0  0  0  0
    2.5040   -6.1950   30.0770 N   0  0  0  0  0  0  0  0  0  0  0  0
    3.0460   -6.9830   29.0250 C   0  0  0  0  0  0  0  0  0  0  0  0
    2.0830   -7.8200   28.4890 C   0  0  0  0  0  0  0  0  0  0  0  0
    4.0110   -7.7340   29.6670 C   0  0  0  0  0  0  0  0  0  0  0  0
    5.0800   -5.3450   28.2610 C   0  0  0  0  0  0  0  0  0  0  0  0
    6.1050   -5.0480   27.2210 C   0  0  0  0  0  0  0  0  0  0  0  0
    7.5060   -3.1530   23.7660 C   0  0  0  0  0  0  0  0  0  0  0  0
    7.6690   -3.2290   22.2520 C   0  0  0  0  0  0  0  0  0  0  0  0
  1  2  1  0
  2  3  2  0
  2  4  1  0
  4  5  1  0
  5  6  1  0
  6  7  1  0
  7  8  1  0
  8  9  2  0
  8 10  1  0
 10 11  1  0
 11 12  1  0
 12 13  1  0
 13 14  1  0
 14 15  2  0
 14 16  1  0
 16 17  2  0
 16 18  1  0
 18 19  1  0
 19 20  1  0
 19 21  1  0
 13 22  1  0
 10 23  1  0
 22 23  1  0
  7 24  1  0
  4 25  1  0
 24 25  1  0
M  END
