piperidine-amides-4434-covalent
     RDKit          3D

 25 26  0  0  0  0  0  0  0  0999 V2000
    7.0700   -3.3020   19.2360 C   0  0  0  0  0  0  0  0  0  0  0  0
    6.2700   -4.0240   20.2410 C   0  0  0  0  0  0  0  0  0  0  0  0
    5.2130   -4.5700   19.8640 O   0  0  0  0  0  0  0  0  0  0  0  0
    6.7090   -4.1190   21.5760 N   0  0  0  0  0  0  0  0  0  0  0  0
    6.2420   -5.2150   22.3590 C   0  0  0  0  0  0  0  0  0  0  0  0
    5.4490   -4.8380   23.5360 C   0  0  0  0  0  0  0  0  0  0  0  0
    5.4330   -3.3890   23.8520 C   0  0  0  0  0  0  0  0  0  0  0  0
    4.8360   -3.1170   25.2230 C   0  0  0  0  0  0  0  0  0  0  0  0
    3.7510   -3.6540   25.4800 O   0  0  0  0  0  0  0  0  0  0  0  0
    5.3980   -2.2990   26.2390 N   0  0  0  0  0  0  0  0  0  0  0  0
    5.9420   -2.7550   27.4630 C   0  0  1  0  0  0  0  0  0  0  0  0
    5.2910   -3.7650   28.2870 C   0  0  0  0  0  0  0  0  0  0  0  0
    7.0480   -3.5450   27.0280 C   0  0  0  0  0  0  0  0  0  0  0  0
    7.3860   -4.6850   27.7240 C   0  0  0  0  0  0  0  0  0  0  0  0
    8.5320   -5.4180   27.1210 C   0  0  0  0  0  0  0  0  0  0  0  0
    9.0000   -4.7070   25.9150 C   0  0  0  0  0  0  0  0  0  0  0  0
    9.9440   -5.5930   25.6670 O   0  0  0  0  0  0  0  0  0  0  0  0
    9.6360   -6.4890   26.6180 C   0  0  0  0  0  0  0  0  0  0  0  0
    8.6730   -3.5640   25.2160 C   0  0  0  0  0  0  0  0  0  0  0  0
    9.3070   -3.0820   24.0390 N   0  0  0  0  0  0  0  0  0  0  0  0
    9.3510   -1.7380   24.1000 O   0  0  0  0  0  0  0  0  0  0  0  0
    9.0990   -3.6030   22.8050 O   0  0  0  0  0  0  0  0  0  0  0  0
    7.5390   -2.8940   25.8790 C   0  0  0  0  0  0  0  0  0  0  0  0
    6.8220   -2.7990   23.6230 C   0  0  0  0  0  0  0  0  0  0  0  0
    7.0360   -2.8030   22.1520 C   0  0  0  0  0  0  0  0  0  0  0  0
  1  2  1  0
  2  3  2  0
  2  4  1  0
  4  5  1  0
  5  6  1  0
  6  7  1  0
  7  8  1  0
  8  9  2  0
  8 10  1  0
 10 11  1  0
 11 12  1  6
 11 13  1  0
 13 14  2  0
 14 15  1  0
 15 16  2  0
 16 17  1  0
 17 18  1  0
 16 19  1  0
 19 20  1  0
 20 21  2  0
 20 22  1  0
 13 23  1  0
 19 23  2  0
  7 24  1  0
  4 25  1  0
 24 25  1  0
M  CHG  2  20   1  22  -1
M  END
