piperidine-amides-32557-covalent
     RDKit          3D

 28 29  0  0  0  0  0  0  0  0999 V2000
    7.1090   -3.3670   19.3440 C   0  0  0  0  0  0  0  0  0  0  0  0
    6.3760   -4.2070   20.3210 C   0  0  0  0  0  0  0  0  0  0  0  0
    5.3290   -4.7700   19.9620 O   0  0  0  0  0  0  0  0  0  0  0  0
    6.9320   -4.3900   21.6030 N   0  0  0  0  0  0  0  0  0  0  0  0
    6.6640   -5.5720   22.3740 C   0  0  0  0  0  0  0  0  0  0  0  0
    5.7550   -5.1390   23.5300 C   0  0  0  0  0  0  0  0  0  0  0  0
    6.4170   -4.0290   24.2900 C   0  0  0  0  0  0  0  0  0  0  0  0
    5.5730   -3.5850   25.4240 C   0  0  0  0  0  0  0  0  0  0  0  0
    4.7490   -2.6970   25.1870 O   0  0  0  0  0  0  0  0  0  0  0  0
    5.7300   -4.1720   26.6800 N   0  0  0  0  0  0  0  0  0  0  0  0
    6.9530   -4.5760   27.1480 C   0  0  0  0  0  0  0  0  0  0  0  0
    7.1010   -5.4080   28.1880 C   0  0  0  0  0  0  0  0  0  0  0  0
    6.1830   -5.1180   29.1680 C   0  0  0  0  0  0  0  0  0  0  0  0
    4.9230   -4.8130   28.7040 C   0  0  1  0  0  0  0  0  0  0  0  0
    3.9080   -4.9540   29.6020 N   0  0  0  0  0  0  0  0  0  0  0  0
    2.9700   -5.9140   29.4590 C   0  0  0  0  0  0  0  0  0  0  0  0
    3.2200   -7.2070   30.2570 C   0  0  0  0  0  0  0  0  0  0  0  0
    2.0940   -7.9040   30.6790 O   0  0  0  0  0  0  0  0  0  0  0  0
    3.5690   -3.7490   30.2800 C   0  0  0  0  0  0  0  0  0  0  0  0
    4.3470   -2.6050   30.2950 O   0  0  0  0  0  0  0  0  0  0  0  0
    2.4070   -3.6590   30.9770 O   0  0  0  0  0  0  0  0  0  0  0  0
    2.0740   -3.2360   32.2080 C   0  0  0  0  0  0  0  0  0  0  0  0
    2.1950   -1.7600   32.2840 C   0  0  0  0  0  0  0  0  0  0  0  0
    1.0560   -3.8140   32.9750 C   0  0  0  0  0  0  0  0  0  0  0  0
    3.3570   -3.2890   33.0450 C   0  0  0  0  0  0  0  0  0  0  0  0
    4.9370   -3.7400   27.8400 C   0  0  0  0  0  0  0  0  0  0  0  0
    6.8240   -2.8560   23.4480 C   0  0  0  0  0  0  0  0  0  0  0  0
    7.6550   -3.3290   22.2640 C   0  0  0  0  0  0  0  0  0  0  0  0
  1  2  1  0
  2  3  2  0
  2  4  1  0
  4  5  1  0
  5  6  1  0
  6  7  1  0
  7  8  1  0
  8  9  2  0
  8 10  1  0
 10 11  1  0
 11 12  1  0
 12 13  1  0
 13 14  1  0
 14 15  1  1
 15 16  1  0
 16 17  1  0
 17 18  1  0
 15 19  1  0
 19 20  2  0
 19 21  1  0
 22 21  1  0
 22 23  1  0
 22 24  1  0
 22 25  1  0
 10 26  1  0
 14 26  1  0
  7 27  1  0
  4 28  1  0
 27 28  1  0
M  END
