piperidine-amides-23752-covalent
     RDKit          3D

 24 25  0  0  0  0  0  0  0  0999 V2000
    7.0840   -3.2800   19.2310 C   0  0  0  0  0  0  0  0  0  0  0  0
    6.3530   -4.0470   20.2550 C   0  0  0  0  0  0  0  0  0  0  0  0
    5.2750   -4.5740   19.8920 O   0  0  0  0  0  0  0  0  0  0  0  0
    6.8460   -4.2350   21.5740 N   0  0  0  0  0  0  0  0  0  0  0  0
    7.6170   -3.2240   22.1870 C   0  0  0  0  0  0  0  0  0  0  0  0
    7.2980   -3.1550   23.5870 C   0  0  0  0  0  0  0  0  0  0  0  0
    5.9650   -3.6750   23.8590 C   0  0  0  0  0  0  0  0  0  0  0  0
    5.4890   -3.3190   25.2360 C   0  0  0  0  0  0  0  0  0  0  0  0
    4.2630   -3.2700   25.4350 O   0  0  0  0  0  0  0  0  0  0  0  0
    6.3540   -3.0260   26.3160 N   0  0  0  0  0  0  0  0  0  0  0  0
    6.7780   -1.7250   26.6570 C   0  0  0  0  0  0  0  0  0  0  0  0
    6.1530   -3.8780   27.4800 C   0  0  0  0  0  0  0  0  0  0  0  0
    4.7220   -3.8850   28.0680 C   0  0  0  0  0  0  0  0  0  0  0  0
    3.6720   -3.0230   27.8010 C   0  0  0  0  0  0  0  0  0  0  0  0
    2.3130   -3.2970   28.5730 C   0  0  0  0  0  0  0  0  0  0  0  0
    2.2020   -4.4740   29.5630 C   0  0  0  0  0  0  0  0  0  0  0  0
    3.4840   -5.2840   29.6920 C   0  0  0  0  0  0  0  0  0  0  0  0
    4.7210   -5.0190   28.9790 C   0  0  0  0  0  0  0  0  0  0  0  0
    5.8880   -5.9420   29.2530 C   0  0  0  0  0  0  0  0  0  0  0  0
    5.7420   -7.1510   29.5540 O   0  0  0  0  0  0  0  0  0  0  0  0
    7.1360   -5.4130   29.1760 O   0  0  0  0  0  0  0  0  0  0  0  0
    8.0910   -5.8110   28.2220 C   0  0  0  0  0  0  0  0  0  0  0  0
    5.8680   -5.1410   23.5460 C   0  0  0  0  0  0  0  0  0  0  0  0
    6.5710   -5.4330   22.3500 C   0  0  0  0  0  0  0  0  0  0  0  0
  1  2  1  0
  2  3  2  0
  2  4  1  0
  4  5  1  0
  5  6  1  0
  6  7  1  0
  7  8  1  0
  8  9  2  0
  8 10  1  0
 10 11  1  0
 10 12  1  0
 12 13  1  0
 13 14  2  0
 14 15  1  0
 15 16  2  0
 16 17  1  0
 13 18  1  0
 17 18  2  0
 18 19  1  0
 19 20  2  0
 19 21  1  0
 21 22  1  0
  7 23  1  0
  4 24  1  0
 23 24  1  0
M  END
