piperidine-amides-10991-covalent
     RDKit          3D

 21 22  0  0  0  0  0  0  0  0999 V2000
    7.0800   -3.3400   19.3060 C   0  0  0  0  0  0  0  0  0  0  0  0
    6.3860   -4.1620   20.2940 C   0  0  0  0  0  0  0  0  0  0  0  0
    5.3550   -4.7690   19.9590 O   0  0  0  0  0  0  0  0  0  0  0  0
    6.8870   -4.3280   21.5940 N   0  0  0  0  0  0  0  0  0  0  0  0
    6.5960   -5.4800   22.4100 C   0  0  0  0  0  0  0  0  0  0  0  0
    5.8100   -4.9550   23.5850 C   0  0  0  0  0  0  0  0  0  0  0  0
    6.4870   -3.7910   24.2610 C   0  0  0  0  0  0  0  0  0  0  0  0
    5.6700   -3.2540   25.3790 C   0  0  0  0  0  0  0  0  0  0  0  0
    4.4250   -3.0810   25.2210 O   0  0  0  0  0  0  0  0  0  0  0  0
    6.1950   -2.9130   26.6510 N   0  0  0  0  0  0  0  0  0  0  0  0
    6.7090   -1.5490   26.9140 C   0  0  0  0  0  0  0  0  0  0  0  0
    5.6800   -0.5210   26.6540 C   0  0  0  0  0  0  0  0  0  0  0  0
    5.7720    0.6640   27.5190 C   0  0  0  0  0  0  0  0  0  0  0  0
    5.7420    0.3900   28.9510 N   0  0  0  0  0  0  0  0  0  0  0  0
    6.4260    1.5660   29.5630 C   0  0  0  0  0  0  0  0  0  0  0  0
    6.8580    1.3840   31.0060 C   0  0  0  0  0  0  0  0  0  0  0  0
    5.9160    2.0490   31.8640 F   0  0  0  0  0  0  0  0  0  0  0  0
    6.1130   -0.9980   29.1900 C   0  0  0  0  0  0  0  0  0  0  0  0
    7.1480   -1.4210   28.4000 C   0  0  0  0  0  0  0  0  0  0  0  0
    6.8110   -2.6910   23.2920 C   0  0  0  0  0  0  0  0  0  0  0  0
    7.6760   -3.2790   22.2080 C   0  0  0  0  0  0  0  0  0  0  0  0
  1  2  1  0
  2  3  2  0
  2  4  1  0
  4  5  1  0
  5  6  1  0
  6  7  1  0
  7  8  1  0
  8  9  2  0
  8 10  1  0
 10 11  1  0
 11 12  1  0
 12 13  1  0
 13 14  1  0
 14 15  1  0
 15 16  1  0
 16 17  1  0
 14 18  1  0
 11 19  1  0
 18 19  1  0
  7 20  1  0
  4 21  1  0
 20 21  1  0
M  END
