piperidine-amides-8781-covalent
     RDKit          3D

 22 23  0  0  0  0  0  0  0  0999 V2000
    7.0640   -3.2940   19.3140 C   0  0  0  0  0  0  0  0  0  0  0  0
    6.3860   -4.1070   20.3210 C   0  0  0  0  0  0  0  0  0  0  0  0
    5.3850   -4.7540   19.9620 O   0  0  0  0  0  0  0  0  0  0  0  0
    6.8800   -4.1860   21.6530 N   0  0  0  0  0  0  0  0  0  0  0  0
    6.6890   -5.4080   22.3920 C   0  0  0  0  0  0  0  0  0  0  0  0
    6.0480   -5.0960   23.7150 C   0  0  0  0  0  0  0  0  0  0  0  0
    6.0500   -3.5930   23.8140 C   0  0  0  0  0  0  0  0  0  0  0  0
    5.5450   -3.1380   25.1490 C   0  0  0  0  0  0  0  0  0  0  0  0
    4.3400   -2.9060   25.1990 O   0  0  0  0  0  0  0  0  0  0  0  0
    6.4120   -3.0180   26.2330 N   0  0  0  0  0  0  0  0  0  0  0  0
    6.1440   -3.7200   27.4430 C   0  0  0  0  0  0  0  0  0  0  0  0
    5.4770   -3.0130   28.4400 C   0  0  0  0  0  0  0  0  0  0  0  0
    5.0050   -3.8290   29.4290 C   0  0  0  0  0  0  0  0  0  0  0  0
    3.8850   -3.3820   30.0910 O   0  0  0  0  0  0  0  0  0  0  0  0
    5.7320   -5.0310   29.6490 N   0  0  0  0  0  0  0  0  0  0  0  0
    4.9610   -6.2020   29.7130 C   0  0  0  0  0  0  0  0  0  0  0  0
    5.8520   -7.4000   29.6710 C   0  0  0  0  0  0  0  0  0  0  0  0
    6.0720   -1.9310   29.1310 C   0  0  0  0  0  0  0  0  0  0  0  0
    5.2500   -0.8290   28.7430 C   0  0  0  0  0  0  0  0  0  0  0  0
    4.6000   -1.9450   28.0200 C   0  0  0  0  0  0  0  0  0  0  0  0
    7.3290   -2.9420   23.5280 C   0  0  0  0  0  0  0  0  0  0  0  0
    7.7390   -3.1570   22.2310 C   0  0  0  0  0  0  0  0  0  0  0  0
  1  2  1  0
  2  3  2  0
  2  4  1  0
  4  5  1  0
  5  6  1  0
  6  7  1  0
  7  8  1  0
  8  9  2  0
  8 10  1  0
 10 11  1  0
 11 12  1  0
 12 13  1  0
 13 14  2  0
 13 15  1  0
 15 16  1  0
 16 17  1  0
 12 18  1  0
 18 19  1  0
 12 20  1  0
 19 20  1  0
  7 21  1  0
  4 22  1  0
 21 22  1  0
M  END
