piperidine-amides-30689-covalent
     RDKit          3D

 27 29  0  0  0  0  0  0  0  0999 V2000
    7.0910   -3.3510   19.3010 C   0  0  0  0  0  0  0  0  0  0  0  0
    6.4030   -4.1850   20.2850 C   0  0  0  0  0  0  0  0  0  0  0  0
    5.3670   -4.7860   19.9630 O   0  0  0  0  0  0  0  0  0  0  0  0
    6.9360   -4.3510   21.5650 N   0  0  0  0  0  0  0  0  0  0  0  0
    7.7710   -3.3150   22.1550 C   0  0  0  0  0  0  0  0  0  0  0  0
    7.2940   -3.1280   23.5570 C   0  0  0  0  0  0  0  0  0  0  0  0
    5.9340   -3.6690   23.7410 C   0  0  0  0  0  0  0  0  0  0  0  0
    5.3830   -3.3400   25.0660 C   0  0  0  0  0  0  0  0  0  0  0  0
    4.1730   -2.9930   25.1720 O   0  0  0  0  0  0  0  0  0  0  0  0
    6.1200   -3.3740   26.2570 N   0  0  0  0  0  0  0  0  0  0  0  0
    6.8560   -4.6050   26.5240 C   0  0  0  0  0  0  0  0  0  0  0  0
    5.8830   -5.5560   26.9910 C   0  0  1  0  0  0  0  0  0  0  0  0
    6.3910   -6.3240   28.0870 C   0  0  0  0  0  0  0  0  0  0  0  0
    6.5130   -5.4870   29.3180 C   0  0  0  0  0  0  0  0  0  0  0  0
    6.4230   -3.9970   29.0470 C   0  0  0  0  0  0  0  0  0  0  0  0
    5.2620   -3.6640   28.2440 C   0  0  1  0  0  0  0  0  0  0  0  0
    5.5530   -2.6620   27.3590 C   0  0  0  0  0  0  0  0  0  0  0  0
    4.9180   -4.8010   27.5050 N   0  0  0  0  0  0  0  0  0  0  0  0
    3.9910   -5.6260   28.2460 C   0  0  0  0  0  0  0  0  0  0  0  0
    2.9930   -6.3110   27.5460 O   0  0  0  0  0  0  0  0  0  0  0  0
    4.1000   -5.7150   29.6420 O   0  0  0  0  0  0  0  0  0  0  0  0
    4.2050   -6.9750   30.2550 C   0  0  0  0  0  0  0  0  0  0  0  0
    5.6050   -7.6090   30.3460 C   0  0  0  0  0  0  0  0  0  0  0  0
    3.2980   -7.8350   29.3880 C   0  0  0  0  0  0  0  0  0  0  0  0
    3.6680   -7.0680   31.6830 C   0  0  0  0  0  0  0  0  0  0  0  0
    5.8450   -5.1120   23.4720 C   0  0  0  0  0  0  0  0  0  0  0  0
    6.5850   -5.4790   22.3790 C   0  0  0  0  0  0  0  0  0  0  0  0
  1  2  1  0
  2  3  2  0
  2  4  1  0
  4  5  1  0
  5  6  1  0
  6  7  1  0
  7  8  1  0
  8  9  2  0
  8 10  1  0
 10 11  1  0
 12 11  1  1
 12 13  1  0
 13 14  1  0
 14 15  1  0
 16 15  1  6
 10 17  1  0
 16 17  1  0
 12 18  1  0
 16 18  1  0
 18 19  1  0
 19 20  2  0
 19 21  1  0
 22 21  1  0
 22 23  1  0
 22 24  1  0
 22 25  1  0
  7 26  1  0
  4 27  1  0
 26 27  1  0
M  END
