piperidine-amides-1863-covalent
     RDKit          3D

 18 18  0  0  0  0  0  0  0  0999 V2000
    7.0930   -3.2550   19.2310 C   0  0  0  0  0  0  0  0  0  0  0  0
    6.3430   -4.0390   20.2500 C   0  0  0  0  0  0  0  0  0  0  0  0
    5.2950   -4.5700   19.8900 O   0  0  0  0  0  0  0  0  0  0  0  0
    6.8550   -4.1850   21.5420 N   0  0  0  0  0  0  0  0  0  0  0  0
    7.6790   -3.1610   22.1430 C   0  0  0  0  0  0  0  0  0  0  0  0
    7.3320   -3.0010   23.5960 C   0  0  0  0  0  0  0  0  0  0  0  0
    5.9550   -3.6110   23.8730 C   0  0  0  0  0  0  0  0  0  0  0  0
    5.5820   -3.3760   25.2810 C   0  0  0  0  0  0  0  0  0  0  0  0
    4.3870   -3.3410   25.6030 O   0  0  0  0  0  0  0  0  0  0  0  0
    6.5750   -3.1770   26.2480 N   0  0  0  0  0  0  0  0  0  0  0  0
    6.5820   -3.9710   27.4520 C   0  0  1  0  0  0  0  0  0  0  0  0
    6.1560   -5.3960   27.1660 C   0  0  0  0  0  0  0  0  0  0  0  0
    5.9800   -6.3050   28.1720 C   0  0  0  0  0  0  0  0  0  0  0  0
    7.9870   -3.8640   27.9030 C   0  0  0  0  0  0  0  0  0  0  0  0
    8.5600   -5.0480   28.2830 O   0  0  0  0  0  0  0  0  0  0  0  0
    8.9930   -5.7740   27.1990 C   0  0  0  0  0  0  0  0  0  0  0  0
    5.9790   -5.1050   23.5950 C   0  0  0  0  0  0  0  0  0  0  0  0
    6.5910   -5.3810   22.2650 C   0  0  0  0  0  0  0  0  0  0  0  0
  1  2  1  0
  2  3  2  0
  2  4  1  0
  4  5  1  0
  5  6  1  0
  6  7  1  0
  7  8  1  0
  8  9  2  0
  8 10  1  0
 10 11  1  0
 11 12  1  6
 12 13  1  0
 11 14  1  0
 14 15  1  0
 15 16  1  0
  7 17  1  0
  4 18  1  0
 17 18  1  0
M  END
