piperidine-amides-30569-covalent
     RDKit          3D

 23 25  0  0  0  0  0  0  0  0999 V2000
    7.1490   -3.3570   19.2840 C   0  0  0  0  0  0  0  0  0  0  0  0
    6.4250   -4.1240   20.2900 C   0  0  0  0  0  0  0  0  0  0  0  0
    5.3880   -4.7360   19.9660 O   0  0  0  0  0  0  0  0  0  0  0  0
    6.9450   -4.2100   21.5900 N   0  0  0  0  0  0  0  0  0  0  0  0
    7.8180   -3.2050   22.1360 C   0  0  0  0  0  0  0  0  0  0  0  0
    7.1020   -2.7070   23.3470 C   0  0  0  0  0  0  0  0  0  0  0  0
    6.5210   -3.8270   24.1530 C   0  0  0  0  0  0  0  0  0  0  0  0
    5.6570   -3.3070   25.2290 C   0  0  0  0  0  0  0  0  0  0  0  0
    4.4700   -2.9590   24.9660 O   0  0  0  0  0  0  0  0  0  0  0  0
    6.0520   -3.2060   26.5650 N   0  0  0  0  0  0  0  0  0  0  0  0
    6.2250   -1.8620   27.2170 C   0  0  0  0  0  0  0  0  0  0  0  0
    6.9210   -1.8140   28.5010 C   0  0  0  0  0  0  0  0  0  0  0  0
    7.1190   -0.5540   29.2090 C   0  0  0  0  0  0  0  0  0  0  0  0
    6.6110    0.7450   28.6400 C   0  0  0  0  0  0  0  0  0  0  0  0
    5.8850    0.7350   27.3010 C   0  0  0  0  0  0  0  0  0  0  0  0
    5.7140   -0.5860   26.6220 C   0  0  0  0  0  0  0  0  0  0  0  0
    4.7990   -0.5820   24.9470 Br  0  0  0  0  0  0  0  0  0  0  0  0
    5.6250   -4.3400   27.3390 C   0  0  0  0  0  0  0  0  0  0  0  0
    4.3070   -4.3540   27.6350 C   0  0  0  0  0  0  0  0  0  0  0  0
    4.6910   -4.5280   29.0070 C   0  0  0  0  0  0  0  0  0  0  0  0
    6.2520   -4.5040   28.8260 C   0  0  0  0  0  0  0  0  0  0  0  0
    5.7380   -4.8180   23.2590 C   0  0  0  0  0  0  0  0  0  0  0  0
    6.4910   -5.2900   22.4470 C   0  0  0  0  0  0  0  0  0  0  0  0
  1  2  1  0
  2  3  2  0
  2  4  1  0
  4  5  1  0
  5  6  1  0
  6  7  1  0
  7  8  1  0
  8  9  2  0
  8 10  1  0
 10 11  1  0
 11 12  2  0
 12 13  1  0
 13 14  2  0
 14 15  1  0
 11 16  1  0
 15 16  2  0
 16 17  1  0
 10 18  1  0
 18 19  1  0
 19 20  1  0
 18 21  1  0
 20 21  1  0
  7 22  1  0
  4 23  1  0
 22 23  1  0
M  END
