piperidine-amides-11066-covalent
     RDKit          3D

 20 21  0  0  0  0  0  0  0  0999 V2000
    7.1460   -3.2970   19.2180 C   0  0  0  0  0  0  0  0  0  0  0  0
    6.3620   -3.9970   20.2310 C   0  0  0  0  0  0  0  0  0  0  0  0
    5.2980   -4.5510   19.8970 O   0  0  0  0  0  0  0  0  0  0  0  0
    6.8360   -4.0980   21.5490 N   0  0  0  0  0  0  0  0  0  0  0  0
    7.7380   -3.0930   22.0810 C   0  0  0  0  0  0  0  0  0  0  0  0
    7.3860   -2.9610   23.5310 C   0  0  0  0  0  0  0  0  0  0  0  0
    6.0530   -3.5790   23.7990 C   0  0  0  0  0  0  0  0  0  0  0  0
    5.5640   -3.3260   25.1630 C   0  0  0  0  0  0  0  0  0  0  0  0
    4.3350   -3.1190   25.3730 O   0  0  0  0  0  0  0  0  0  0  0  0
    6.4120   -3.3040   26.2770 N   0  0  0  0  0  0  0  0  0  0  0  0
    6.0630   -4.0830   27.4700 C   0  0  0  0  0  0  0  0  0  0  0  0
    6.3540   -3.2240   28.6120 C   0  0  0  0  0  0  0  0  0  0  0  0
    5.4090   -1.8850   29.0900 S   0  0  0  0  0  0  0  0  0  0  0  0
    4.8450   -2.0240   30.4430 O   0  0  0  0  0  0  0  0  0  0  0  0
    4.2600   -1.6350   28.1420 O   0  0  0  0  0  0  0  0  0  0  0  0
    6.6600   -0.6330   28.9570 C   0  0  0  0  0  0  0  0  0  0  0  0
    7.3960   -0.7560   30.1140 C   0  0  0  0  0  0  0  0  0  0  0  0
    6.7170    0.6300   29.8870 C   0  0  0  0  0  0  0  0  0  0  0  0
    6.1130   -5.0470   23.5350 C   0  0  0  0  0  0  0  0  0  0  0  0
    6.5240   -5.3090   22.2560 C   0  0  0  0  0  0  0  0  0  0  0  0
  1  2  1  0
  2  3  2  0
  2  4  1  0
  4  5  1  0
  5  6  1  0
  6  7  1  0
  7  8  1  0
  8  9  2  0
  8 10  1  0
 10 11  1  0
 11 12  1  0
 13 12  1  0
 13 14  2  0
 13 15  2  0
 13 16  1  0
 16 17  1  0
 16 18  1  0
 17 18  1  0
  7 19  1  0
  4 20  1  0
 19 20  1  0
M  END
