piperidine-amides-19436-covalent
     RDKit          3D

 22 24  0  0  0  0  0  0  0  0999 V2000
    7.0450   -3.3270   19.2620 C   0  0  0  0  0  0  0  0  0  0  0  0
    6.3090   -4.0340   20.2910 C   0  0  0  0  0  0  0  0  0  0  0  0
    5.2710   -4.6560   19.9220 O   0  0  0  0  0  0  0  0  0  0  0  0
    6.7040   -4.1140   21.6500 N   0  0  0  0  0  0  0  0  0  0  0  0
    6.5950   -5.4600   22.2700 C   0  0  0  0  0  0  0  0  0  0  0  0
    6.0200   -5.1300   23.7070 C   0  0  0  0  0  0  0  0  0  0  0  0
    5.9580   -3.6280   23.7990 C   0  0  0  0  0  0  0  0  0  0  0  0
    5.0300   -3.1420   25.0070 C   0  0  0  0  0  0  0  0  0  0  0  0
    3.8540   -3.3950   24.7940 O   0  0  0  0  0  0  0  0  0  0  0  0
    5.7680   -2.6250   25.8820 N   0  0  0  0  0  0  0  0  0  0  0  0
    6.8290   -2.4430   26.6310 C   0  0  0  0  0  0  0  0  0  0  0  0
    5.0730   -1.5530   26.4540 C   0  0  0  0  0  0  0  0  0  0  0  0
    5.5240   -1.1110   27.7310 C   0  0  0  0  0  0  0  0  0  0  0  0
    5.8280   -1.9340   28.7640 N   0  0  0  0  0  0  0  0  0  0  0  0
    6.2240   -1.1010   29.7980 C   0  0  0  0  0  0  0  0  0  0  0  0
    6.1310    0.3280   29.3100 C   0  0  0  0  0  0  0  0  0  0  0  0
    5.7030    0.1980   28.0640 N   0  0  0  0  0  0  0  0  0  0  0  0
    5.5350    1.3340   27.4000 C   0  0  0  0  0  0  0  0  0  0  0  0
    4.3300    1.3020   26.6700 C   0  0  0  0  0  0  0  0  0  0  0  0
    5.6580    1.4430   25.9140 C   0  0  0  0  0  0  0  0  0  0  0  0
    7.2970   -3.0140   23.5580 C   0  0  0  0  0  0  0  0  0  0  0  0
    7.5760   -3.1200   22.2210 C   0  0  0  0  0  0  0  0  0  0  0  0
  1  2  1  0
  2  3  2  0
  2  4  1  0
  4  5  1  0
  5  6  1  0
  6  7  1  0
  7  8  1  0
  8  9  2  0
  8 10  1  0
 10 11  1  0
 10 12  1  0
 12 13  1  0
 13 14  2  0
 14 15  1  0
 15 16  2  0
 13 17  1  0
 16 17  1  0
 17 18  1  0
 18 19  1  0
 18 20  1  0
 19 20  1  0
  7 21  1  0
  4 22  1  0
 21 22  1  0
M  END
