piperidine-amides-28996-covalent
     RDKit          3D

 26 28  0  0  0  0  0  0  0  0999 V2000
    7.0610   -3.3370   19.3070 C   0  0  0  0  0  0  0  0  0  0  0  0
    6.4040   -4.1700   20.3090 C   0  0  0  0  0  0  0  0  0  0  0  0
    5.3860   -4.8050   19.9730 O   0  0  0  0  0  0  0  0  0  0  0  0
    6.9640   -4.2800   21.6050 N   0  0  0  0  0  0  0  0  0  0  0  0
    6.6560   -5.4360   22.3900 C   0  0  0  0  0  0  0  0  0  0  0  0
    5.8800   -5.0160   23.6100 C   0  0  0  0  0  0  0  0  0  0  0  0
    6.6580   -3.9170   24.3300 C   0  0  0  0  0  0  0  0  0  0  0  0
    5.8850   -3.4230   25.5300 C   0  0  0  0  0  0  0  0  0  0  0  0
    4.6950   -3.1330   25.3600 O   0  0  0  0  0  0  0  0  0  0  0  0
    6.5300   -3.3390   26.7670 N   0  0  0  0  0  0  0  0  0  0  0  0
    5.9920   -2.5420   27.8130 C   0  0  0  0  0  0  0  0  0  0  0  0
    5.7310   -3.6180   28.6500 C   0  0  1  0  0  0  0  0  0  0  0  0
    5.4110   -4.5970   27.8360 C   0  0  0  0  0  0  0  0  0  0  0  0
    6.6790   -4.6020   27.4670 C   0  0  1  0  0  0  0  0  0  0  0  0
    6.6550   -5.8560   26.7150 C   0  0  0  0  0  0  0  0  0  0  0  0
    5.3990   -6.2310   26.3530 N   0  0  0  0  0  0  0  0  0  0  0  0
    4.6650   -7.0720   27.0820 C   0  0  0  0  0  0  0  0  0  0  0  0
    4.9760   -7.3140   28.2730 O   0  0  0  0  0  0  0  0  0  0  0  0
    3.6660   -7.5580   26.3810 O   0  0  0  0  0  0  0  0  0  0  0  0
    2.4600   -7.5130   27.0750 C   0  0  0  0  0  0  0  0  0  0  0  0
    1.6000   -8.6950   26.7360 C   0  0  0  0  0  0  0  0  0  0  0  0
    2.6550   -7.3820   28.4310 C   0  0  0  0  0  0  0  0  0  0  0  0
    1.8810   -6.3090   26.7050 C   0  0  0  0  0  0  0  0  0  0  0  0
    7.0580   -4.4700   28.7840 C   0  0  0  0  0  0  0  0  0  0  0  0
    6.9210   -2.7590   23.4300 C   0  0  0  0  0  0  0  0  0  0  0  0
    7.6720   -3.1860   22.2110 C   0  0  0  0  0  0  0  0  0  0  0  0
  1  2  1  0
  2  3  2  0
  2  4  1  0
  4  5  1  0
  5  6  1  0
  6  7  1  0
  7  8  1  0
  8  9  2  0
  8 10  1  0
 10 11  1  0
 12 11  1  6
 12 13  1  0
 10 14  1  0
 13 14  1  0
 14 15  1  6
 15 16  1  0
 16 17  1  0
 17 18  2  0
 17 19  1  0
 20 19  1  0
 20 21  1  0
 20 22  1  0
 20 23  1  0
 12 24  1  0
 14 24  1  0
  7 25  1  0
  4 26  1  0
 25 26  1  0
M  END
