piperidine-amides-12194-covalent
     RDKit          3D

 25 26  0  0  0  0  0  0  0  0999 V2000
    7.1000   -3.3030   19.2150 C   0  0  0  0  0  0  0  0  0  0  0  0
    6.3650   -4.0660   20.2160 C   0  0  0  0  0  0  0  0  0  0  0  0
    5.3070   -4.6140   19.9140 O   0  0  0  0  0  0  0  0  0  0  0  0
    6.9120   -4.2280   21.5370 N   0  0  0  0  0  0  0  0  0  0  0  0
    7.6240   -3.1420   22.1420 C   0  0  0  0  0  0  0  0  0  0  0  0
    6.8630   -2.6760   23.3470 C   0  0  0  0  0  0  0  0  0  0  0  0
    6.4800   -3.8900   24.1760 C   0  0  0  0  0  0  0  0  0  0  0  0
    5.7130   -3.4670   25.3890 C   0  0  0  0  0  0  0  0  0  0  0  0
    4.4640   -3.5140   25.4690 O   0  0  0  0  0  0  0  0  0  0  0  0
    6.4270   -2.9760   26.5090 N   0  0  0  0  0  0  0  0  0  0  0  0
    6.7160   -1.5640   26.5950 C   0  0  0  0  0  0  0  0  0  0  0  0
    5.4090   -0.8210   26.7550 C   0  0  0  0  0  0  0  0  0  0  0  0
    4.3960   -1.3810   27.5020 C   0  0  0  0  0  0  0  0  0  0  0  0
    3.2010   -0.7130   27.6570 C   0  0  0  0  0  0  0  0  0  0  0  0
    3.0360    0.5030   27.0660 C   0  0  0  0  0  0  0  0  0  0  0  0
    1.9550    1.1030   27.2100 O   0  0  0  0  0  0  0  0  0  0  0  0
    0.8180    1.1030   26.4230 C   0  0  0  0  0  0  0  0  0  0  0  0
    0.2190    2.3420   26.4330 C   0  0  0  0  0  0  0  0  0  0  0  0
    0.8950    3.4280   26.0150 F   0  0  0  0  0  0  0  0  0  0  0  0
   -0.2680    2.6080   27.6880 F   0  0  0  0  0  0  0  0  0  0  0  0
   -0.9030    2.1730   25.6080 F   0  0  0  0  0  0  0  0  0  0  0  0
    4.0890    1.0810   26.2910 N   0  0  0  0  0  0  0  0  0  0  0  0
    5.2400    0.3970   26.1640 N   0  0  0  0  0  0  0  0  0  0  0  0
    5.6200   -4.8350   23.3340 C   0  0  0  0  0  0  0  0  0  0  0  0
    6.4200   -5.3420   22.3130 C   0  0  0  0  0  0  0  0  0  0  0  0
  1  2  1  0
  2  3  2  0
  2  4  1  0
  4  5  1  0
  5  6  1  0
  6  7  1  0
  7  8  1  0
  8  9  2  0
  8 10  1  0
 10 11  1  0
 11 12  1  0
 12 13  2  0
 13 14  1  0
 14 15  2  0
 15 16  1  0
 16 17  1  0
 17 18  1  0
 18 19  1  0
 18 20  1  0
 18 21  1  0
 15 22  1  0
 12 23  1  0
 22 23  2  0
  7 24  1  0
  4 25  1  0
 24 25  1  0
M  END
