piperidine-amides-14278-covalent
     RDKit          3D

 24 25  0  0  0  0  0  0  0  0999 V2000
    7.0910   -3.3300   19.3010 C   0  0  0  0  0  0  0  0  0  0  0  0
    6.3900   -4.1910   20.2870 C   0  0  0  0  0  0  0  0  0  0  0  0
    5.3430   -4.7660   19.9570 O   0  0  0  0  0  0  0  0  0  0  0  0
    6.9710   -4.3860   21.5570 N   0  0  0  0  0  0  0  0  0  0  0  0
    7.6890   -3.3370   22.2220 C   0  0  0  0  0  0  0  0  0  0  0  0
    6.7750   -2.8590   23.3510 C   0  0  0  0  0  0  0  0  0  0  0  0
    6.5110   -4.0020   24.2790 C   0  0  0  0  0  0  0  0  0  0  0  0
    5.8550   -3.4960   25.4980 C   0  0  0  0  0  0  0  0  0  0  0  0
    4.6180   -3.4720   25.4790 O   0  0  0  0  0  0  0  0  0  0  0  0
    6.6180   -3.0610   26.5790 N   0  0  0  0  0  0  0  0  0  0  0  0
    6.3860   -1.8670   27.3120 C   0  0  1  0  0  0  0  0  0  0  0  0
    7.2900   -1.5610   28.3020 C   0  0  0  0  0  0  0  0  0  0  0  0
    6.9450   -0.6350   29.2880 C   0  0  0  0  0  0  0  0  0  0  0  0
    6.2660    0.4520   28.8310 C   0  0  0  0  0  0  0  0  0  0  0  0
    5.7130    0.3870   27.6090 N   0  0  0  0  0  0  0  0  0  0  0  0
    4.7570    1.2390   27.1910 C   0  0  0  0  0  0  0  0  0  0  0  0
    4.7530    2.5330   27.5100 O   0  0  0  0  0  0  0  0  0  0  0  0
    3.5710    0.8190   26.3150 C   0  0  0  0  0  0  0  0  0  0  0  0
    3.0210   -0.4650   26.9460 C   0  0  0  0  0  0  0  0  0  0  0  0
    2.6090   -1.4300   26.0500 C   0  0  0  0  0  0  0  0  0  0  0  0
    1.7840   -0.0140   27.6260 C   0  0  0  0  0  0  0  0  0  0  0  0
    6.0050   -0.5960   26.6200 C   0  0  0  0  0  0  0  0  0  0  0  0
    5.7430   -5.0340   23.5540 C   0  0  0  0  0  0  0  0  0  0  0  0
    6.5710   -5.5030   22.3430 C   0  0  0  0  0  0  0  0  0  0  0  0
  1  2  1  0
  2  3  2  0
  2  4  1  0
  4  5  1  0
  5  6  1  0
  6  7  1  0
  7  8  1  0
  8  9  2  0
  8 10  1  0
 11 10  1  6
 11 12  1  0
 12 13  1  0
 13 14  1  0
 14 15  1  0
 15 16  1  0
 16 17  2  0
 16 18  1  0
 18 19  1  0
 19 20  1  0
 19 21  1  0
 11 22  1  0
 15 22  1  0
  7 23  1  0
  4 24  1  0
 23 24  1  0
M  END
