piperidine-amides-3371-covalent
     RDKit          3D

 21 22  0  0  0  0  0  0  0  0999 V2000
    7.0480   -3.3400   19.3890 C   0  0  0  0  0  0  0  0  0  0  0  0
    6.3640   -4.1880   20.3610 C   0  0  0  0  0  0  0  0  0  0  0  0
    5.4070   -4.8770   19.9960 O   0  0  0  0  0  0  0  0  0  0  0  0
    6.8290   -4.2450   21.7240 N   0  0  0  0  0  0  0  0  0  0  0  0
    6.6210   -5.4500   22.4940 C   0  0  0  0  0  0  0  0  0  0  0  0
    6.0400   -5.1150   23.8420 C   0  0  0  0  0  0  0  0  0  0  0  0
    6.1180   -3.6090   24.0160 C   0  0  0  0  0  0  0  0  0  0  0  0
    5.5990   -3.2130   25.3650 C   0  0  0  0  0  0  0  0  0  0  0  0
    4.3750   -3.1960   25.5920 O   0  0  0  0  0  0  0  0  0  0  0  0
    6.4730   -2.8460   26.4260 N   0  0  0  0  0  0  0  0  0  0  0  0
    6.5950   -1.4470   26.8020 C   0  0  2  0  0  0  0  0  0  0  0  0
    7.1440   -1.4300   28.2110 C   0  0  0  0  0  0  0  0  0  0  0  0
    6.5860   -0.5910   29.1360 C   0  0  0  0  0  0  0  0  0  0  0  0
    5.7380    0.4430   28.7360 C   0  0  1  0  0  0  0  0  0  0  0  0
    4.4400    0.2370   29.1590 C   0  0  0  0  0  0  0  0  0  0  0  0
    6.2590    1.6760   29.0540 C   0  0  0  0  0  0  0  0  0  0  0  0
    6.6310    1.8170   30.3750 C   0  0  0  0  0  0  0  0  0  0  0  0
    5.7700    0.6380   27.3690 C   0  0  0  0  0  0  0  0  0  0  0  0
    5.6380   -0.5090   26.5750 C   0  0  0  0  0  0  0  0  0  0  0  0
    7.3890   -3.0180   23.6430 C   0  0  0  0  0  0  0  0  0  0  0  0
    7.6620   -3.2000   22.2940 C   0  0  0  0  0  0  0  0  0  0  0  0
  1  2  1  0
  2  3  2  0
  2  4  1  0
  4  5  1  0
  5  6  1  0
  6  7  1  0
  7  8  1  0
  8  9  2  0
  8 10  1  0
 11 10  1  1
 11 12  1  0
 12 13  1  0
 13 14  1  0
 14 15  1  1
 14 16  1  0
 16 17  1  0
 14 18  1  0
 11 19  1  0
 18 19  1  0
  7 20  1  0
  4 21  1  0
 20 21  1  0
M  END
