piperidine-amides-24697-covalent
     RDKit          3D

 24 26  0  0  0  0  0  0  0  0999 V2000
    7.1430   -3.3210   19.2800 C   0  0  0  0  0  0  0  0  0  0  0  0
    6.4570   -4.1730   20.2520 C   0  0  0  0  0  0  0  0  0  0  0  0
    5.3870   -4.7530   19.9610 O   0  0  0  0  0  0  0  0  0  0  0  0
    7.0520   -4.3920   21.4920 N   0  0  0  0  0  0  0  0  0  0  0  0
    6.6590   -5.5570   22.2290 C   0  0  0  0  0  0  0  0  0  0  0  0
    5.7800   -5.0150   23.3490 C   0  0  0  0  0  0  0  0  0  0  0  0
    6.5840   -3.9560   24.0810 C   0  0  0  0  0  0  0  0  0  0  0  0
    5.7360   -3.3870   25.1230 C   0  0  0  0  0  0  0  0  0  0  0  0
    4.8010   -2.6090   24.8330 O   0  0  0  0  0  0  0  0  0  0  0  0
    6.0390   -3.7650   26.4170 N   0  0  0  0  0  0  0  0  0  0  0  0
    4.9730   -3.7550   27.4000 C   0  0  0  0  0  0  0  0  0  0  0  0
    4.7600   -5.1470   27.9460 C   0  0  0  0  0  0  0  0  0  0  0  0
    5.7820   -6.0060   27.7680 C   0  0  0  0  0  0  0  0  0  0  0  0
    6.9310   -5.3590   27.8220 C   0  0  2  0  0  0  0  0  0  0  0  0
    7.0260   -4.7080   28.9830 C   0  0  0  0  0  0  0  0  0  0  0  0
    7.0510   -3.4020   28.6780 N   0  0  0  0  0  0  0  0  0  0  0  0
    8.3080   -2.9360   28.3750 C   0  0  0  0  0  0  0  0  0  0  0  0
    8.6060   -1.6140   28.8790 C   0  0  0  0  0  0  0  0  0  0  0  0
    7.7760   -0.7660   29.1270 O   0  0  0  0  0  0  0  0  0  0  0  0
    6.5620   -1.1850   29.7250 C   0  0  0  0  0  0  0  0  0  0  0  0
    5.9930   -2.3970   29.0010 C   0  0  0  0  0  0  0  0  0  0  0  0
    7.2040   -4.5220   26.8010 C   0  0  0  0  0  0  0  0  0  0  0  0
    7.0010   -2.8360   23.1830 C   0  0  0  0  0  0  0  0  0  0  0  0
    7.6990   -3.2950   22.1250 C   0  0  0  0  0  0  0  0  0  0  0  0
  1  2  1  0
  2  3  2  0
  2  4  1  0
  4  5  1  0
  5  6  1  0
  6  7  1  0
  7  8  1  0
  8  9  2  0
  8 10  1  0
 10 11  1  0
 11 12  1  0
 12 13  1  0
 13 14  1  0
 14 15  1  1
 15 16  1  0
 16 17  1  0
 17 18  1  0
 18 19  1  0
 19 20  1  0
 16 21  1  0
 20 21  1  0
 10 22  1  0
 14 22  1  0
  7 23  1  0
  4 24  1  0
 23 24  1  0
M  END
