piperidine-amides-33170-covalent
     RDKit          3D

 28 30  0  0  0  0  0  0  0  0999 V2000
    7.0620   -3.3760   19.4080 C   0  0  0  0  0  0  0  0  0  0  0  0
    6.4180   -4.2680   20.3850 C   0  0  0  0  0  0  0  0  0  0  0  0
    5.3870   -4.8710   19.9930 O   0  0  0  0  0  0  0  0  0  0  0  0
    6.9760   -4.4800   21.6800 N   0  0  0  0  0  0  0  0  0  0  0  0
    6.5940   -5.6260   22.4210 C   0  0  0  0  0  0  0  0  0  0  0  0
    6.1680   -5.2720   23.7690 C   0  0  0  0  0  0  0  0  0  0  0  0
    5.7800   -3.8530   23.8890 C   0  0  0  0  0  0  0  0  0  0  0  0
    5.3520   -3.4480   25.2810 C   0  0  0  0  0  0  0  0  0  0  0  0
    4.6940   -2.4040   25.4050 O   0  0  0  0  0  0  0  0  0  0  0  0
    5.6390   -4.1780   26.4480 N   0  0  0  0  0  0  0  0  0  0  0  0
    6.9100   -4.4690   26.8520 C   0  0  0  0  0  0  0  0  0  0  0  0
    7.1790   -5.4940   27.8400 C   0  0  0  0  0  0  0  0  0  0  0  0
    6.2170   -5.1240   28.9620 C   0  0  0  0  0  0  0  0  0  0  0  0
    4.9410   -4.9290   28.4700 C   0  0  1  0  0  0  0  0  0  0  0  0
    4.4860   -4.7710   29.9190 C   0  0  0  0  0  0  0  0  0  0  0  0
    3.0890   -5.1130   29.5340 C   0  0  0  0  0  0  0  0  0  0  0  0
    2.3840   -3.7830   29.7340 C   0  0  0  0  0  0  0  0  0  0  0  0
    0.9220   -3.6390   29.4620 C   0  0  0  0  0  0  0  0  0  0  0  0
    0.2420   -4.9210   28.9810 C   0  0  0  0  0  0  0  0  0  0  0  0
    1.0880   -6.2210   28.8200 C   0  0  0  0  0  0  0  0  0  0  0  0
    0.0610   -7.4720   28.2770 S   0  0  0  0  0  0  0  0  0  0  0  0
   -0.3220   -8.5230   29.6660 C   0  0  0  0  0  0  0  0  0  0  0  0
    0.7650   -8.2440   27.1960 O   0  0  0  0  0  0  0  0  0  0  0  0
   -1.2240   -6.9220   27.7730 O   0  0  0  0  0  0  0  0  0  0  0  0
    2.4520   -6.2690   29.0960 C   0  0  0  0  0  0  0  0  0  0  0  0
    4.8260   -3.8590   27.6030 C   0  0  0  0  0  0  0  0  0  0  0  0
    6.8140   -2.8980   23.3640 C   0  0  0  0  0  0  0  0  0  0  0  0
    7.6740   -3.4360   22.3980 C   0  0  0  0  0  0  0  0  0  0  0  0
  1  2  1  0
  2  3  2  0
  2  4  1  0
  4  5  1  0
  5  6  1  0
  6  7  1  0
  7  8  1  0
  8  9  2  0
  8 10  1  0
 10 11  1  0
 11 12  1  0
 12 13  1  0
 13 14  1  0
 14 15  1  1
 15 16  1  0
 16 17  2  0
 17 18  1  0
 18 19  2  0
 19 20  1  0
 20 21  1  0
 21 22  1  0
 21 23  2  0
 21 24  2  0
 16 25  1  0
 20 25  2  0
 10 26  1  0
 14 26  1  0
  7 27  1  0
  4 28  1  0
 27 28  1  0
M  END
