piperidine-amides-8327-covalent
     RDKit          3D

 24 25  0  0  0  0  0  0  0  0999 V2000
    7.0920   -3.3460   19.2950 C   0  0  0  0  0  0  0  0  0  0  0  0
    6.3640   -4.1280   20.2880 C   0  0  0  0  0  0  0  0  0  0  0  0
    5.3180   -4.7020   19.9380 O   0  0  0  0  0  0  0  0  0  0  0  0
    6.8870   -4.2650   21.5950 N   0  0  0  0  0  0  0  0  0  0  0  0
    7.7140   -3.2180   22.1390 C   0  0  0  0  0  0  0  0  0  0  0  0
    6.9870   -2.5770   23.2690 C   0  0  0  0  0  0  0  0  0  0  0  0
    6.6500   -3.7130   24.1860 C   0  0  0  0  0  0  0  0  0  0  0  0
    5.8030   -3.2090   25.3150 C   0  0  0  0  0  0  0  0  0  0  0  0
    4.6140   -3.0210   25.0650 O   0  0  0  0  0  0  0  0  0  0  0  0
    6.4080   -2.9990   26.5500 N   0  0  0  0  0  0  0  0  0  0  0  0
    6.4330   -1.7390   27.2340 C   0  0  0  0  0  0  0  0  0  0  0  0
    7.0410   -1.6050   28.4710 C   0  0  0  0  0  0  0  0  0  0  0  0
    7.0750   -0.4120   29.1480 C   0  0  0  0  0  0  0  0  0  0  0  0
    6.5240    0.8010   28.7000 C   0  0  0  0  0  0  0  0  0  0  0  0
    5.8410    0.7500   27.3500 C   0  0  0  0  0  0  0  0  0  0  0  0
    5.1290    2.2390   26.7180 Cl  0  0  0  0  0  0  0  0  0  0  0  0
    5.8040   -0.6020   26.6010 C   0  0  0  0  0  0  0  0  0  0  0  0
    5.2070   -0.5420   25.4890 O   0  0  0  0  0  0  0  0  0  0  0  0
    3.8560   -0.2650   25.5470 C   0  0  0  0  0  0  0  0  0  0  0  0
    3.0310   -1.2780   26.3070 C   0  0  0  0  0  0  0  0  0  0  0  0
    2.3370   -2.2660   25.6330 F   0  0  0  0  0  0  0  0  0  0  0  0
    2.0960   -0.5740   27.0370 F   0  0  0  0  0  0  0  0  0  0  0  0
    5.9630   -4.8740   23.5870 C   0  0  0  0  0  0  0  0  0  0  0  0
    6.5600   -5.3790   22.4530 C   0  0  0  0  0  0  0  0  0  0  0  0
  1  2  1  0
  2  3  2  0
  2  4  1  0
  4  5  1  0
  5  6  1  0
  6  7  1  0
  7  8  1  0
  8  9  2  0
  8 10  1  0
 10 11  1  0
 11 12  2  0
 12 13  1  0
 13 14  2  0
 14 15  1  0
 15 16  1  0
 11 17  1  0
 15 17  2  0
 17 18  1  0
 18 19  1  0
 19 20  1  0
 20 21  1  0
 20 22  1  0
  7 23  1  0
  4 24  1  0
 23 24  1  0
M  END
