piperidine-amides-11939-covalent
     RDKit          3D

 26 28  0  0  0  0  0  0  0  0999 V2000
    7.0530   -3.3520   19.2810 C   0  0  0  0  0  0  0  0  0  0  0  0
    6.3610   -4.1630   20.2750 C   0  0  0  0  0  0  0  0  0  0  0  0
    5.3430   -4.7740   19.9620 O   0  0  0  0  0  0  0  0  0  0  0  0
    6.8990   -4.2980   21.5990 N   0  0  0  0  0  0  0  0  0  0  0  0
    7.6840   -3.2360   22.1720 C   0  0  0  0  0  0  0  0  0  0  0  0
    6.9480   -2.6250   23.3210 C   0  0  0  0  0  0  0  0  0  0  0  0
    6.6370   -3.7490   24.2820 C   0  0  0  0  0  0  0  0  0  0  0  0
    5.8470   -3.2150   25.4240 C   0  0  0  0  0  0  0  0  0  0  0  0
    4.6090   -3.0750   25.3720 O   0  0  0  0  0  0  0  0  0  0  0  0
    6.5380   -2.8590   26.6070 N   0  0  0  0  0  0  0  0  0  0  0  0
    6.3540   -1.5420   27.1780 C   0  0  0  0  0  0  0  0  0  0  0  0
    6.7840   -1.4600   28.6040 C   0  0  0  0  0  0  0  0  0  0  0  0
    6.4890   -0.1060   28.9140 N   0  0  0  0  0  0  0  0  0  0  0  0
    5.9710    1.1050   28.3810 C   0  0  0  0  0  0  0  0  0  0  0  0
    6.3400    1.1830   29.6580 N   0  0  0  0  0  0  0  0  0  0  0  0
    7.3890    1.9950   30.2400 C   0  0  0  0  0  0  0  0  0  0  0  0
    8.0530    1.3250   31.2390 C   0  0  0  0  0  0  0  0  0  0  0  0
    7.3420    0.1580   31.7150 C   0  0  0  0  0  0  0  0  0  0  0  0
    5.9670    0.0680   31.6630 C   0  0  0  0  0  0  0  0  0  0  0  0
    5.3950    0.9110   30.7360 C   0  0  1  0  0  0  0  0  0  0  0  0
    4.6980    1.9780   31.2930 C   0  0  0  0  0  0  0  0  0  0  0  0
    5.6750    0.7590   27.0910 C   0  0  0  0  0  0  0  0  0  0  0  0
    5.1400    1.6070   26.1370 C   0  0  0  0  0  0  0  0  0  0  0  0
    5.8490   -0.5250   26.4820 C   0  0  0  0  0  0  0  0  0  0  0  0
    5.8280   -4.8480   23.6240 C   0  0  0  0  0  0  0  0  0  0  0  0
    6.5830   -5.4350   22.4210 C   0  0  0  0  0  0  0  0  0  0  0  0
  1  2  1  0
  2  3  2  0
  2  4  1  0
  4  5  1  0
  5  6  1  0
  6  7  1  0
  7  8  1  0
  8  9  2  0
  8 10  1  0
 10 11  1  0
 11 12  2  0
 12 13  1  0
 13 14  2  0
 14 15  1  0
 15 16  1  0
 16 17  1  0
 17 18  1  0
 18 19  1  0
 15 20  1  0
 19 20  1  0
 20 21  1  1
 14 22  1  0
 22 23  1  0
 11 24  1  0
 22 24  2  0
  7 25  1  0
  4 26  1  0
 25 26  1  0
M  END
