piperidine-amides-23924-covalent
     RDKit          3D

 23 25  0  0  0  0  0  0  0  0999 V2000
    7.1160   -3.3010   19.2390 C   0  0  0  0  0  0  0  0  0  0  0  0
    6.4010   -4.1080   20.2380 C   0  0  0  0  0  0  0  0  0  0  0  0
    5.2980   -4.5970   19.8980 O   0  0  0  0  0  0  0  0  0  0  0  0
    6.9680   -4.3740   21.5000 N   0  0  0  0  0  0  0  0  0  0  0  0
    6.4020   -5.4470   22.2330 C   0  0  0  0  0  0  0  0  0  0  0  0
    5.7030   -4.9890   23.4180 C   0  0  0  0  0  0  0  0  0  0  0  0
    6.3480   -3.8350   24.0740 C   0  0  0  0  0  0  0  0  0  0  0  0
    5.5930   -3.4120   25.2960 C   0  0  0  0  0  0  0  0  0  0  0  0
    4.6090   -2.6580   25.2660 O   0  0  0  0  0  0  0  0  0  0  0  0
    6.1060   -3.9610   26.4520 N   0  0  0  0  0  0  0  0  0  0  0  0
    6.9310   -5.0470   26.3330 C   0  0  0  0  0  0  0  0  0  0  0  0
    7.1140   -5.9790   27.4470 C   0  0  1  0  0  0  0  0  0  0  0  0
    8.6240   -6.2100   27.3390 C   0  0  0  0  0  0  0  0  0  0  0  0
    6.6800   -5.9040   28.8920 C   0  0  0  0  0  0  0  0  0  0  0  0
    4.9380   -5.8450   29.4940 S   0  0  0  0  0  0  0  0  0  0  0  0
    4.5790   -4.2100   28.8930 C   0  0  0  0  0  0  0  0  0  0  0  0
    3.6450   -3.0310   29.4960 C   0  0  0  0  0  0  0  0  0  0  0  0
    3.6520   -1.6840   28.6000 C   0  0  0  0  0  0  0  0  0  0  0  0
    4.4810   -1.7180   27.4050 C   0  0  0  0  0  0  0  0  0  0  0  0
    4.7330   -3.0200   27.8840 C   0  0  0  0  0  0  0  0  0  0  0  0
    5.4140   -4.1990   27.6420 C   0  0  0  0  0  0  0  0  0  0  0  0
    6.6740   -2.7480   23.1060 C   0  0  0  0  0  0  0  0  0  0  0  0
    7.6190   -3.3170   22.2480 C   0  0  0  0  0  0  0  0  0  0  0  0
  1  2  1  0
  2  3  2  0
  2  4  1  0
  4  5  1  0
  5  6  1  0
  6  7  1  0
  7  8  1  0
  8  9  2  0
  8 10  1  0
 10 11  1  0
 11 12  1  0
 12 13  1  1
 12 14  1  0
 14 15  1  0
 15 16  1  0
 16 17  1  0
 17 18  2  0
 18 19  1  0
 19 20  2  0
 10 21  1  0
 16 21  2  0
 20 21  1  0
  7 22  1  0
  4 23  1  0
 22 23  1  0
M  END
