piperidine-amides-885-covalent
     RDKit          3D

 24 25  0  0  0  0  0  0  0  0999 V2000
    7.0750   -3.3780   19.3290 C   0  0  0  0  0  0  0  0  0  0  0  0
    6.3540   -4.0890   20.3580 C   0  0  0  0  0  0  0  0  0  0  0  0
    5.3520   -4.7690   19.9740 O   0  0  0  0  0  0  0  0  0  0  0  0
    6.7370   -4.1150   21.7250 N   0  0  0  0  0  0  0  0  0  0  0  0
    7.7070   -3.0620   22.1820 C   0  0  0  0  0  0  0  0  0  0  0  0
    7.5060   -2.9960   23.7530 C   0  0  0  0  0  0  0  0  0  0  0  0
    6.2100   -3.7050   23.9820 C   0  0  0  0  0  0  0  0  0  0  0  0
    5.4050   -3.4740   25.3350 C   0  0  0  0  0  0  0  0  0  0  0  0
    4.3840   -4.1380   25.2680 O   0  0  0  0  0  0  0  0  0  0  0  0
    5.9280   -2.6750   26.1870 N   0  0  0  0  0  0  0  0  0  0  0  0
    6.1780   -1.8210   27.2320 C   0  0  0  0  0  0  0  0  0  0  0  0
    7.0780   -1.2700   28.0450 C   0  0  0  0  0  0  0  0  0  0  0  0
    6.2950   -0.0680   27.9320 N   0  0  0  0  0  0  0  0  0  0  0  0
    5.7210    0.5560   28.9850 C   0  0  0  0  0  0  0  0  0  0  0  0
    5.0230   -0.5670   29.6650 C   0  0  0  0  0  0  0  0  0  0  0  0
    3.7910   -0.9060   29.1030 O   0  0  0  0  0  0  0  0  0  0  0  0
    5.5810   -1.1760   30.7660 O   0  0  0  0  0  0  0  0  0  0  0  0
    5.4370   -0.2770   31.8510 C   0  0  0  0  0  0  0  0  0  0  0  0
    4.2130    0.3930   31.8910 C   0  0  0  0  0  0  0  0  0  0  0  0
    4.4770   -0.8570   32.8770 C   0  0  0  0  0  0  0  0  0  0  0  0
    6.7160    0.2270   32.4270 C   0  0  0  0  0  0  0  0  0  0  0  0
    5.4950   -0.4550   26.8830 C   0  0  0  0  0  0  0  0  0  0  0  0
    6.3760   -5.2040   23.7140 C   0  0  0  0  0  0  0  0  0  0  0  0
    6.7230   -5.4000   22.4130 C   0  0  0  0  0  0  0  0  0  0  0  0
  1  2  1  0
  2  3  2  0
  2  4  1  0
  4  5  1  0
  5  6  1  0
  6  7  1  0
  7  8  1  0
  8  9  2  0
  8 10  1  0
 10 11  1  0
 11 12  1  0
 12 13  1  0
 13 14  1  0
 14 15  1  0
 15 16  2  0
 15 17  1  0
 18 17  1  0
 18 19  1  0
 18 20  1  0
 18 21  1  0
 11 22  1  0
 13 22  1  0
  7 23  1  0
  4 24  1  0
 23 24  1  0
M  END
