piperidine-amides-27893-covalent
     RDKit          3D

 26 28  0  0  0  0  0  0  0  0999 V2000
    7.0880   -3.2830   19.2000 C   0  0  0  0  0  0  0  0  0  0  0  0
    6.3660   -4.0400   20.2500 C   0  0  0  0  0  0  0  0  0  0  0  0
    5.2980   -4.5770   19.9020 O   0  0  0  0  0  0  0  0  0  0  0  0
    6.8910   -4.1770   21.5470 N   0  0  0  0  0  0  0  0  0  0  0  0
    6.5520   -5.3190   22.3370 C   0  0  0  0  0  0  0  0  0  0  0  0
    5.9530   -4.9450   23.6180 C   0  0  0  0  0  0  0  0  0  0  0  0
    6.1060   -3.5050   23.9120 C   0  0  0  0  0  0  0  0  0  0  0  0
    5.7390   -3.1910   25.3170 C   0  0  0  0  0  0  0  0  0  0  0  0
    4.5900   -3.5050   25.6890 O   0  0  0  0  0  0  0  0  0  0  0  0
    6.6240   -2.5440   26.2090 N   0  0  0  0  0  0  0  0  0  0  0  0
    7.8460   -3.2120   26.7100 C   0  0  0  0  0  0  0  0  0  0  0  0
    7.5760   -4.4840   27.4300 C   0  0  0  0  0  0  0  0  0  0  0  0
    8.4760   -5.6170   27.3670 C   0  0  0  0  0  0  0  0  0  0  0  0
    7.8630   -6.6250   28.1840 N   0  0  0  0  0  0  0  0  0  0  0  0
    6.7560   -6.1220   28.6490 N   0  0  0  0  0  0  0  0  0  0  0  0
    6.0470   -6.9550   29.4470 C   0  0  0  0  0  0  0  0  0  0  0  0
    6.5250   -4.8520   28.2420 C   0  0  0  0  0  0  0  0  0  0  0  0
    6.3010   -1.3370   26.9430 C   0  0  0  0  0  0  0  0  0  0  0  0
    5.9070   -0.3330   26.0910 C   0  0  0  0  0  0  0  0  0  0  0  0
    5.2210   -0.2350   24.9380 C   0  0  0  0  0  0  0  0  0  0  0  0
    5.0030    0.9560   24.3480 N   0  0  0  0  0  0  0  0  0  0  0  0
    5.5790    1.8580   25.1220 N   0  0  0  0  0  0  0  0  0  0  0  0
    5.6260    3.2880   24.9190 C   0  0  0  0  0  0  0  0  0  0  0  0
    6.1290    1.1700   26.1660 C   0  0  0  0  0  0  0  0  0  0  0  0
    7.4630   -2.9860   23.5990 C   0  0  0  0  0  0  0  0  0  0  0  0
    7.7280   -3.1360   22.1250 C   0  0  0  0  0  0  0  0  0  0  0  0
  1  2  1  0
  2  3  2  0
  2  4  1  0
  4  5  1  0
  5  6  1  0
  6  7  1  0
  7  8  1  0
  8  9  2  0
  8 10  1  0
 10 11  1  0
 11 12  1  0
 12 13  1  0
 13 14  2  0
 14 15  1  0
 15 16  1  0
 12 17  2  0
 15 17  1  0
 10 18  1  0
 18 19  1  0
 19 20  1  0
 20 21  2  0
 21 22  1  0
 22 23  1  0
 19 24  2  0
 22 24  1  0
  7 25  1  0
  4 26  1  0
 25 26  1  0
M  END
