piperidine-amides-4092-covalent
     RDKit          3D

 27 29  0  0  0  0  0  0  0  0999 V2000
    7.1420   -3.3410   19.3180 C   0  0  0  0  0  0  0  0  0  0  0  0
    6.4040   -4.1310   20.3130 C   0  0  0  0  0  0  0  0  0  0  0  0
    5.3240   -4.6480   19.9310 O   0  0  0  0  0  0  0  0  0  0  0  0
    6.9340   -4.3490   21.6090 N   0  0  0  0  0  0  0  0  0  0  0  0
    7.6750   -3.2890   22.2180 C   0  0  0  0  0  0  0  0  0  0  0  0
    7.2470   -2.9930   23.5680 C   0  0  0  0  0  0  0  0  0  0  0  0
    6.0080   -3.6990   23.9380 C   0  0  0  0  0  0  0  0  0  0  0  0
    5.5360   -3.2850   25.2850 C   0  0  0  0  0  0  0  0  0  0  0  0
    4.3320   -3.4010   25.5740 O   0  0  0  0  0  0  0  0  0  0  0  0
    6.4260   -2.7540   26.2220 N   0  0  0  0  0  0  0  0  0  0  0  0
    6.2540   -1.6050   27.0240 C   0  0  0  0  0  0  0  0  0  0  0  0
    6.3670   -0.2010   26.3990 C   0  0  0  0  0  0  0  0  0  0  0  0
    6.1360    0.5270   27.5970 N   0  0  0  0  0  0  0  0  0  0  0  0
    5.9510   -0.2850   28.5510 N   0  0  0  0  0  0  0  0  0  0  0  0
    5.7140    0.1670   29.7970 C   0  0  0  0  0  0  0  0  0  0  0  0
    6.2660    1.4300   29.9310 C   0  0  0  0  0  0  0  0  0  0  0  0
    6.0870    2.1160   31.3440 C   0  0  0  0  0  0  0  0  0  0  0  0
    5.3370    1.3680   32.4530 C   0  0  0  0  0  0  0  0  0  0  0  0
    4.7970   -0.0130   32.1250 C   0  0  0  0  0  0  0  0  0  0  0  0
    4.1170   -0.7430   33.0610 F   0  0  0  0  0  0  0  0  0  0  0  0
    4.9880   -0.6030   30.8060 C   0  0  0  0  0  0  0  0  0  0  0  0
    5.9870   -1.6470   28.3400 C   0  0  0  0  0  0  0  0  0  0  0  0
    5.7840   -2.8500   29.2680 C   0  0  0  0  0  0  0  0  0  0  0  0
    6.4130   -4.0150   28.5990 C   0  0  0  0  0  0  0  0  0  0  0  0
    6.1250   -5.2700   29.1340 C   0  0  0  0  0  0  0  0  0  0  0  0
    6.0700   -5.1740   23.7460 C   0  0  0  0  0  0  0  0  0  0  0  0
    6.5610   -5.5230   22.3600 C   0  0  0  0  0  0  0  0  0  0  0  0
  1  2  1  0
  2  3  2  0
  2  4  1  0
  4  5  1  0
  5  6  1  0
  6  7  1  0
  7  8  1  0
  8  9  2  0
  8 10  1  0
 10 11  1  0
 11 12  1  0
 12 13  2  0
 13 14  1  0
 14 15  1  0
 15 16  2  0
 16 17  1  0
 17 18  2  0
 18 19  1  0
 19 20  1  0
 15 21  1  0
 19 21  2  0
 11 22  2  0
 14 22  1  0
 22 23  1  0
 23 24  1  0
 24 25  1  0
  7 26  1  0
  4 27  1  0
 26 27  1  0
M  END
