piperidine-amides-8285-covalent
     RDKit          3D

 25 27  0  0  0  0  0  0  0  0999 V2000
    7.0990   -3.2690   19.2380 C   0  0  0  0  0  0  0  0  0  0  0  0
    6.3700   -4.0440   20.2390 C   0  0  0  0  0  0  0  0  0  0  0  0
    5.3040   -4.5860   19.8990 O   0  0  0  0  0  0  0  0  0  0  0  0
    6.9030   -4.2090   21.5430 N   0  0  0  0  0  0  0  0  0  0  0  0
    6.4920   -5.3490   22.3020 C   0  0  0  0  0  0  0  0  0  0  0  0
    5.6560   -4.8800   23.4570 C   0  0  0  0  0  0  0  0  0  0  0  0
    6.5130   -3.9160   24.2520 C   0  0  0  0  0  0  0  0  0  0  0  0
    5.7470   -3.4060   25.4380 C   0  0  0  0  0  0  0  0  0  0  0  0
    4.5380   -3.2590   25.2740 O   0  0  0  0  0  0  0  0  0  0  0  0
    6.4380   -3.1260   26.6120 N   0  0  0  0  0  0  0  0  0  0  0  0
    6.3040   -3.9150   27.8050 C   0  0  2  0  0  0  0  0  0  0  0  0
    5.8310   -5.2300   27.6350 C   0  0  0  0  0  0  0  0  0  0  0  0
    5.3440   -3.1700   28.6350 C   0  0  0  0  0  0  0  0  0  0  0  0
    5.7390   -1.8710   29.0010 C   0  0  0  0  0  0  0  0  0  0  0  0
    4.8320   -1.0430   29.8430 C   0  0  0  0  0  0  0  0  0  0  0  0
    3.4940   -1.5850   30.3080 C   0  0  0  0  0  0  0  0  0  0  0  0
    3.1110   -2.9040   29.9260 C   0  0  0  0  0  0  0  0  0  0  0  0
    4.1010   -3.6560   29.0730 C   0  0  0  0  0  0  0  0  0  0  0  0
    1.8940   -3.2290   30.4230 C   0  0  0  0  0  0  0  0  0  0  0  0
    1.5240   -2.0880   31.1610 C   0  0  0  0  0  0  0  0  0  0  0  0
    0.4220   -2.1710   31.7670 O   0  0  0  0  0  0  0  0  0  0  0  0
    2.4540   -1.0740   31.0830 N   0  0  0  0  0  0  0  0  0  0  0  0
    2.9230   -0.4210   32.2570 C   0  0  0  0  0  0  0  0  0  0  0  0
    6.9820   -2.7510   23.4540 C   0  0  0  0  0  0  0  0  0  0  0  0
    7.6550   -3.1640   22.1820 C   0  0  0  0  0  0  0  0  0  0  0  0
  1  2  1  0
  2  3  2  0
  2  4  1  0
  4  5  1  0
  5  6  1  0
  6  7  1  0
  7  8  1  0
  8  9  2  0
  8 10  1  0
 10 11  1  0
 11 12  1  6
 11 13  1  0
 13 14  2  0
 14 15  1  0
 15 16  2  0
 16 17  1  0
 13 18  1  0
 17 18  2  0
 17 19  1  0
 19 20  1  0
 20 21  2  0
 16 22  1  0
 20 22  1  0
 22 23  1  0
  7 24  1  0
  4 25  1  0
 24 25  1  0
M  END
