piperidine-amides-3158-covalent
     RDKit          3D

 22 23  0  0  0  0  0  0  0  0999 V2000
    7.1360   -3.2960   19.2570 C   0  0  0  0  0  0  0  0  0  0  0  0
    6.4030   -4.0910   20.2330 C   0  0  0  0  0  0  0  0  0  0  0  0
    5.3360   -4.6190   19.9200 O   0  0  0  0  0  0  0  0  0  0  0  0
    6.9630   -4.3090   21.5380 N   0  0  0  0  0  0  0  0  0  0  0  0
    7.7620   -3.2770   22.1520 C   0  0  0  0  0  0  0  0  0  0  0  0
    6.9240   -2.5540   23.1500 C   0  0  0  0  0  0  0  0  0  0  0  0
    5.9360   -3.5660   23.6980 C   0  0  0  0  0  0  0  0  0  0  0  0
    5.5470   -3.1310   25.0510 C   0  0  0  0  0  0  0  0  0  0  0  0
    4.3970   -2.7330   25.3130 O   0  0  0  0  0  0  0  0  0  0  0  0
    6.5030   -3.1690   26.0790 N   0  0  0  0  0  0  0  0  0  0  0  0
    5.9810   -3.1430   27.4110 C   0  0  0  0  0  0  0  0  0  0  0  0
    4.8830   -4.1900   27.4790 C   0  0  2  0  0  0  0  0  0  0  0  0
    3.9710   -4.1430   28.5100 C   0  0  0  0  0  0  0  0  0  0  0  0
    2.7120   -4.7450   28.3970 C   0  0  0  0  0  0  0  0  0  0  0  0
    5.7510   -5.4450   27.7360 C   0  0  0  0  0  0  0  0  0  0  0  0
    4.9520   -6.3860   28.5240 C   0  0  0  0  0  0  0  0  0  0  0  0
    5.6030   -7.3410   29.2340 C   0  0  0  0  0  0  0  0  0  0  0  0
    6.8780   -7.2020   29.0650 O   0  0  0  0  0  0  0  0  0  0  0  0
    7.7160   -6.2690   28.3860 C   0  0  0  0  0  0  0  0  0  0  0  0
    6.9500   -5.1500   28.5540 C   0  0  0  0  0  0  0  0  0  0  0  0
    6.3360   -4.9610   23.6530 C   0  0  0  0  0  0  0  0  0  0  0  0
    6.5610   -5.4160   22.3650 C   0  0  0  0  0  0  0  0  0  0  0  0
  1  2  1  0
  2  3  2  0
  2  4  1  0
  4  5  1  0
  5  6  1  0
  6  7  1  0
  7  8  1  0
  8  9  2  0
  8 10  1  0
 10 11  1  0
 12 11  1  1
 12 13  1  0
 13 14  1  0
 12 15  1  0
 15 16  1  0
 16 17  1  0
 17 18  1  0
 18 19  1  0
 15 20  1  0
 19 20  1  0
  7 21  1  0
  4 22  1  0
 21 22  1  0
M  END
