piperidine-amides-29847-covalent
     RDKit          3D

 27 31  0  0  0  0  0  0  0  0999 V2000
    7.1030   -3.3620   19.2930 C   0  0  0  0  0  0  0  0  0  0  0  0
    6.4220   -4.2050   20.2620 C   0  0  0  0  0  0  0  0  0  0  0  0
    5.3610   -4.7550   19.9620 O   0  0  0  0  0  0  0  0  0  0  0  0
    7.0330   -4.4560   21.5320 N   0  0  0  0  0  0  0  0  0  0  0  0
    7.7540   -3.4030   22.1980 C   0  0  0  0  0  0  0  0  0  0  0  0
    6.8680   -2.7700   23.2180 C   0  0  0  0  0  0  0  0  0  0  0  0
    6.3380   -3.8810   24.1020 C   0  0  0  0  0  0  0  0  0  0  0  0
    5.3410   -3.3260   25.0380 C   0  0  0  0  0  0  0  0  0  0  0  0
    4.6630   -2.3200   24.7960 O   0  0  0  0  0  0  0  0  0  0  0  0
    5.1660   -3.9880   26.2520 N   0  0  0  0  0  0  0  0  0  0  0  0
    4.2150   -3.4450   27.1400 C   0  0  0  0  0  0  0  0  0  0  0  0
    4.9260   -3.6560   28.4010 C   0  0  2  0  0  0  0  0  0  0  0  0
    5.4270   -2.5110   28.9540 C   0  0  0  0  0  0  0  0  0  0  0  0
    6.7610   -2.7230   28.9500 C   0  0  0  0  0  0  0  0  0  0  0  0
    6.8950   -4.0980   28.9820 C   0  0  0  0  0  0  0  0  0  0  0  0
    5.8560   -4.7120   28.2390 C   0  0  1  0  0  0  0  0  0  0  0  0
    5.2240   -5.8710   28.6260 C   0  0  0  0  0  0  0  0  0  0  0  0
    5.9770   -6.8540   29.2130 N   0  0  0  0  0  0  0  0  0  0  0  0
    5.0440   -7.8240   29.4660 N   0  0  0  0  0  0  0  0  0  0  0  0
    3.6990   -7.4520   29.0380 C   0  0  0  0  0  0  0  0  0  0  0  0
    2.4300   -8.0320   29.0550 C   0  0  0  0  0  0  0  0  0  0  0  0
    1.6450   -8.1080   30.1150 C   0  0  0  0  0  0  0  0  0  0  0  0
    1.9880   -6.7490   29.9530 C   0  0  0  0  0  0  0  0  0  0  0  0
    4.0040   -6.2500   28.5570 O   0  0  0  0  0  0  0  0  0  0  0  0
    6.2430   -4.6050   26.9420 C   0  0  0  0  0  0  0  0  0  0  0  0
    5.6650   -4.9980   23.3400 C   0  0  0  0  0  0  0  0  0  0  0  0
    6.6360   -5.5850   22.3170 C   0  0  0  0  0  0  0  0  0  0  0  0
  1  2  1  0
  2  3  2  0
  2  4  1  0
  4  5  1  0
  5  6  1  0
  6  7  1  0
  7  8  1  0
  8  9  2  0
  8 10  1  0
 10 11  1  0
 12 11  1  6
 12 13  1  0
 13 14  1  0
 14 15  1  0
 12 16  1  0
 15 16  1  0
 16 17  1  1
 17 18  2  0
 18 19  1  0
 19 20  2  0
 20 21  1  0
 21 22  1  0
 21 23  1  0
 22 23  1  0
 17 24  1  0
 20 24  1  0
 10 25  1  0
 16 25  1  0
  7 26  1  0
  4 27  1  0
 26 27  1  0
M  END
