piperidine-amides-10620-covalent
     RDKit          3D

 25 26  0  0  0  0  0  0  0  0999 V2000
    7.1100   -3.2870   19.2540 C   0  0  0  0  0  0  0  0  0  0  0  0
    6.3210   -4.0170   20.2500 C   0  0  0  0  0  0  0  0  0  0  0  0
    5.2330   -4.5050   19.8610 O   0  0  0  0  0  0  0  0  0  0  0  0
    6.8090   -4.1950   21.5440 N   0  0  0  0  0  0  0  0  0  0  0  0
    6.5450   -5.4090   22.2760 C   0  0  0  0  0  0  0  0  0  0  0  0
    5.9620   -5.0330   23.6090 C   0  0  0  0  0  0  0  0  0  0  0  0
    6.7250   -3.9080   24.2670 C   0  0  0  0  0  0  0  0  0  0  0  0
    5.9660   -3.3830   25.4220 C   0  0  0  0  0  0  0  0  0  0  0  0
    4.8080   -2.9470   25.2210 O   0  0  0  0  0  0  0  0  0  0  0  0
    6.4870   -3.3520   26.7310 N   0  0  0  0  0  0  0  0  0  0  0  0
    6.7310   -4.5840   27.4510 C   0  0  0  0  0  0  0  0  0  0  0  0
    5.4620   -5.3870   27.6290 C   0  0  1  0  0  0  0  0  0  0  0  0
    5.0090   -6.3490   26.7640 C   0  0  0  0  0  0  0  0  0  0  0  0
    5.3830   -6.0120   28.9920 C   0  0  0  0  0  0  0  0  0  0  0  0
    4.2910   -5.4580   29.6230 C   0  0  0  0  0  0  0  0  0  0  0  0
    3.9580   -5.8520   30.9090 C   0  0  0  0  0  0  0  0  0  0  0  0
    4.6880   -6.8030   31.6130 C   0  0  0  0  0  0  0  0  0  0  0  0
    4.0210   -7.0710   33.1680 S   0  0  0  0  0  0  0  0  0  0  0  0
    3.1130   -8.6030   33.0160 C   0  0  0  0  0  0  0  0  0  0  0  0
    5.1380   -7.2220   34.1370 O   0  0  0  0  0  0  0  0  0  0  0  0
    3.1430   -5.9120   33.4760 O   0  0  0  0  0  0  0  0  0  0  0  0
    5.7790   -7.3710   31.0140 C   0  0  0  0  0  0  0  0  0  0  0  0
    6.1440   -6.9430   29.6180 C   0  0  0  0  0  0  0  0  0  0  0  0
    6.9290   -2.7620   23.3110 C   0  0  0  0  0  0  0  0  0  0  0  0
    7.6390   -3.1950   22.2180 C   0  0  0  0  0  0  0  0  0  0  0  0
  1  2  1  0
  2  3  2  0
  2  4  1  0
  4  5  1  0
  5  6  1  0
  6  7  1  0
  7  8  1  0
  8  9  2  0
  8 10  1  0
 10 11  1  0
 11 12  1  0
 12 13  1  6
 12 14  1  0
 14 15  2  0
 15 16  1  0
 16 17  2  0
 17 18  1  0
 18 19  1  0
 18 20  2  0
 18 21  2  0
 17 22  1  0
 14 23  1  0
 22 23  2  0
  7 24  1  0
  4 25  1  0
 24 25  1  0
M  END
