piperidine-amides-8577-covalent
     RDKit          3D

 23 24  0  0  0  0  0  0  0  0999 V2000
    7.0350   -3.3640   19.3520 C   0  0  0  0  0  0  0  0  0  0  0  0
    6.3420   -4.1780   20.3520 C   0  0  0  0  0  0  0  0  0  0  0  0
    5.3750   -4.8630   19.9790 O   0  0  0  0  0  0  0  0  0  0  0  0
    6.7920   -4.2040   21.6940 N   0  0  0  0  0  0  0  0  0  0  0  0
    7.7230   -3.1920   22.1370 C   0  0  0  0  0  0  0  0  0  0  0  0
    7.4650   -2.8850   23.5670 C   0  0  0  0  0  0  0  0  0  0  0  0
    6.1370   -3.5230   23.8650 C   0  0  0  0  0  0  0  0  0  0  0  0
    5.7590   -3.1820   25.2650 C   0  0  0  0  0  0  0  0  0  0  0  0
    4.6030   -3.4170   25.6120 O   0  0  0  0  0  0  0  0  0  0  0  0
    6.7580   -2.6150   26.0410 N   0  0  0  0  0  0  0  0  0  0  0  0
    6.5260   -1.5970   27.0050 C   0  0  0  0  0  0  0  0  0  0  0  0
    6.1870   -0.3290   26.7370 C   0  0  0  0  0  0  0  0  0  0  0  0
    5.9740    0.6190   27.6420 C   0  0  0  0  0  0  0  0  0  0  0  0
    6.0170    0.6090   29.0280 C   0  0  0  0  0  0  0  0  0  0  0  0
    6.1900    0.0690   30.4260 C   0  0  0  0  0  0  0  0  0  0  0  0
    5.3350   -0.9730   30.6860 O   0  0  0  0  0  0  0  0  0  0  0  0
    7.0640    0.5360   31.3490 N   0  0  0  0  0  0  0  0  0  0  0  0
    6.7360    0.5130   32.6410 C   0  0  0  0  0  0  0  0  0  0  0  0
    8.4630    0.3170   31.1690 C   0  0  0  0  0  0  0  0  0  0  0  0
    6.3830   -0.7850   29.0160 N   0  0  0  0  0  0  0  0  0  0  0  0
    6.7150   -2.1150   28.4030 C   0  0  0  0  0  0  0  0  0  0  0  0
    6.0640   -4.9890   23.7020 C   0  0  0  0  0  0  0  0  0  0  0  0
    6.6580   -5.3890   22.5180 C   0  0  0  0  0  0  0  0  0  0  0  0
  1  2  1  0
  2  3  2  0
  2  4  1  0
  4  5  1  0
  5  6  1  0
  6  7  1  0
  7  8  1  0
  8  9  2  0
  8 10  1  0
 10 11  1  0
 11 12  2  0
 12 13  1  0
 13 14  2  0
 14 15  1  0
 15 16  2  0
 15 17  1  0
 17 18  1  0
 17 19  1  0
 14 20  1  0
 11 21  1  0
 20 21  2  0
  7 22  1  0
  4 23  1  0
 22 23  1  0
M  END
