piperidine-amides-8477-covalent
     RDKit          3D

 24 26  0  0  0  0  0  0  0  0999 V2000
    7.0420   -3.3320   19.3730 C   0  0  0  0  0  0  0  0  0  0  0  0
    6.3940   -4.1910   20.3630 C   0  0  0  0  0  0  0  0  0  0  0  0
    5.4070   -4.8530   19.9910 O   0  0  0  0  0  0  0  0  0  0  0  0
    6.9150   -4.2900   21.6880 N   0  0  0  0  0  0  0  0  0  0  0  0
    7.6630   -3.1840   22.2360 C   0  0  0  0  0  0  0  0  0  0  0  0
    7.4790   -3.1210   23.7280 C   0  0  0  0  0  0  0  0  0  0  0  0
    6.0810   -3.6250   23.9910 C   0  0  0  0  0  0  0  0  0  0  0  0
    5.5540   -3.2250   25.3480 C   0  0  0  0  0  0  0  0  0  0  0  0
    4.3300   -3.1990   25.4360 O   0  0  0  0  0  0  0  0  0  0  0  0
    6.4210   -2.9170   26.3990 N   0  0  0  0  0  0  0  0  0  0  0  0
    6.7220   -1.5740   26.8120 C   0  0  2  0  0  0  0  0  0  0  0  0
    7.0570   -1.4490   28.2200 C   0  0  0  0  0  0  0  0  0  0  0  0
    6.4210   -0.5180   28.9320 C   0  0  0  0  0  0  0  0  0  0  0  0
    5.5320   -0.1380   27.9890 N   0  0  0  0  0  0  0  0  0  0  0  0
    4.6950    0.9190   28.4200 C   0  0  0  0  0  0  0  0  0  0  0  0
    4.4600    1.0780   29.8730 C   0  0  0  0  0  0  0  0  0  0  0  0
    3.5730    2.1890   30.4530 C   0  0  0  0  0  0  0  0  0  0  0  0
    2.9180    3.1540   29.5190 C   0  0  0  0  0  0  0  0  0  0  0  0
    3.1710    2.9760   28.0290 C   0  0  0  0  0  0  0  0  0  0  0  0
    2.3330    4.2080   26.8100 Br  0  0  0  0  0  0  0  0  0  0  0  0
    4.0880    1.8120   27.5510 C   0  0  0  0  0  0  0  0  0  0  0  0
    5.4140   -0.6960   26.6830 C   0  0  0  0  0  0  0  0  0  0  0  0
    6.1450   -5.1150   23.8590 C   0  0  0  0  0  0  0  0  0  0  0  0
    6.5500   -5.4650   22.4470 C   0  0  0  0  0  0  0  0  0  0  0  0
  1  2  1  0
  2  3  2  0
  2  4  1  0
  4  5  1  0
  5  6  1  0
  6  7  1  0
  7  8  1  0
  8  9  2  0
  8 10  1  0
 11 10  1  1
 11 12  1  0
 12 13  1  0
 13 14  1  0
 14 15  1  0
 15 16  2  0
 16 17  1  0
 17 18  2  0
 18 19  1  0
 19 20  1  0
 15 21  1  0
 19 21  2  0
 11 22  1  0
 14 22  1  0
  7 23  1  0
  4 24  1  0
 23 24  1  0
M  END
