piperidine-amides-10709-covalent
     RDKit          3D

 22 22  0  0  0  0  0  0  0  0999 V2000
    7.1240   -3.2540   19.1740 C   0  0  0  0  0  0  0  0  0  0  0  0
    6.3380   -3.9800   20.1800 C   0  0  0  0  0  0  0  0  0  0  0  0
    5.2250   -4.4310   19.8200 O   0  0  0  0  0  0  0  0  0  0  0  0
    6.8440   -4.2050   21.4570 N   0  0  0  0  0  0  0  0  0  0  0  0
    6.3810   -5.3080   22.2620 C   0  0  0  0  0  0  0  0  0  0  0  0
    5.7710   -4.7420   23.5190 C   0  0  0  0  0  0  0  0  0  0  0  0
    6.7490   -3.8270   24.2090 C   0  0  0  0  0  0  0  0  0  0  0  0
    6.1910   -3.2660   25.4520 C   0  0  0  0  0  0  0  0  0  0  0  0
    4.9600   -3.0200   25.5160 O   0  0  0  0  0  0  0  0  0  0  0  0
    7.0270   -3.0050   26.5580 N   0  0  0  0  0  0  0  0  0  0  0  0
    7.5990   -4.1110   27.2800 C   0  0  1  0  0  0  0  0  0  0  0  0
    6.3940   -4.8580   27.7950 C   0  0  0  0  0  0  0  0  0  0  0  0
    6.4350   -6.0580   28.4210 C   0  0  0  0  0  0  0  0  0  0  0  0
    5.3190   -6.5580   29.0360 C   0  0  0  0  0  0  0  0  0  0  0  0
    4.2660   -6.8890   28.1990 C   0  0  0  0  0  0  0  0  0  0  0  0
    4.7350   -5.6990   30.1260 C   0  0  0  0  0  0  0  0  0  0  0  0
    5.5870   -7.8530   29.7510 C   0  0  0  0  0  0  0  0  0  0  0  0
    8.5720   -4.8510   26.5860 C   0  0  0  0  0  0  0  0  0  0  0  0
    9.0510   -6.1480   26.9270 N   0  0  0  0  0  0  0  0  0  0  0  0
    9.2150   -4.4100   25.4590 O   0  0  0  0  0  0  0  0  0  0  0  0
    7.1240   -2.6820   23.3450 C   0  0  0  0  0  0  0  0  0  0  0  0
    7.6480   -3.1100   22.0090 C   0  0  0  0  0  0  0  0  0  0  0  0
  1  2  1  0
  2  3  2  0
  2  4  1  0
  4  5  1  0
  5  6  1  0
  6  7  1  0
  7  8  1  0
  8  9  2  0
  8 10  1  0
 10 11  1  0
 11 12  1  6
 12 13  1  0
 14 13  1  0
 14 15  1  0
 14 16  1  0
 14 17  1  0
 11 18  1  0
 18 19  1  0
 18 20  2  0
  7 21  1  0
  4 22  1  0
 21 22  1  0
M  END
