piperidine-amides-23264-covalent
     RDKit          3D

 24 26  0  0  0  0  0  0  0  0999 V2000
    7.0300   -3.3660   19.3560 C   0  0  0  0  0  0  0  0  0  0  0  0
    6.3960   -4.2210   20.3780 C   0  0  0  0  0  0  0  0  0  0  0  0
    5.3930   -4.8730   19.9930 O   0  0  0  0  0  0  0  0  0  0  0  0
    6.9070   -4.3520   21.7060 N   0  0  0  0  0  0  0  0  0  0  0  0
    6.4880   -5.4510   22.4970 C   0  0  0  0  0  0  0  0  0  0  0  0
    6.1540   -5.1130   23.8890 C   0  0  0  0  0  0  0  0  0  0  0  0
    6.4150   -3.7180   24.3450 C   0  0  0  0  0  0  0  0  0  0  0  0
    5.2810   -3.2250   25.2360 C   0  0  0  0  0  0  0  0  0  0  0  0
    4.2180   -2.8930   24.6940 O   0  0  0  0  0  0  0  0  0  0  0  0
    5.3490   -3.1200   26.6560 N   0  0  0  0  0  0  0  0  0  0  0  0
    6.4560   -3.3630   27.3870 C   0  0  0  0  0  0  0  0  0  0  0  0
    6.4140   -4.5940   28.1770 C   0  0  0  0  0  0  0  0  0  0  0  0
    5.2800   -4.9240   28.8010 N   0  0  0  0  0  0  0  0  0  0  0  0
    5.1510   -5.7700   29.9550 C   0  0  0  0  0  0  0  0  0  0  0  0
    4.0590   -5.3490   30.8010 C   0  0  0  0  0  0  0  0  0  0  0  0
    3.8880   -6.2230   32.0700 C   0  0  0  0  0  0  0  0  0  0  0  0
    4.9400   -7.1970   31.9400 C   0  0  0  0  0  0  0  0  0  0  0  0
    5.0080   -8.2090   33.0930 C   0  0  0  0  0  0  0  0  0  0  0  0
    5.9830   -7.7040   31.2500 C   0  0  0  0  0  0  0  0  0  0  0  0
    6.1090   -6.8340   30.0400 C   0  0  0  0  0  0  0  0  0  0  0  0
    4.5060   -3.7500   28.7900 C   0  0  0  0  0  0  0  0  0  0  0  0
    4.1490   -3.2260   27.4280 C   0  0  0  0  0  0  0  0  0  0  0  0
    6.6840   -2.7480   23.2280 C   0  0  0  0  0  0  0  0  0  0  0  0
    7.6200   -3.2900   22.3610 C   0  0  0  0  0  0  0  0  0  0  0  0
  1  2  1  0
  2  3  2  0
  2  4  1  0
  4  5  1  0
  5  6  1  0
  6  7  1  0
  7  8  1  0
  8  9  2  0
  8 10  1  0
 10 11  1  0
 11 12  1  0
 12 13  1  0
 13 14  1  0
 14 15  2  0
 15 16  1  0
 16 17  2  0
 17 18  1  0
 17 19  1  0
 14 20  1  0
 19 20  2  0
 13 21  1  0
 10 22  1  0
 21 22  1  0
  7 23  1  0
  4 24  1  0
 23 24  1  0
M  END
