piperidine-amides-2222-covalent
     RDKit          3D

 29 31  0  0  0  0  0  0  0  0999 V2000
    7.0220   -3.3430   19.3620 C   0  0  0  0  0  0  0  0  0  0  0  0
    6.3630   -4.1990   20.3840 C   0  0  0  0  0  0  0  0  0  0  0  0
    5.4090   -4.8740   19.9930 O   0  0  0  0  0  0  0  0  0  0  0  0
    6.8440   -4.2480   21.7050 N   0  0  0  0  0  0  0  0  0  0  0  0
    6.6940   -5.4410   22.5080 C   0  0  0  0  0  0  0  0  0  0  0  0
    5.9680   -5.0870   23.7740 C   0  0  0  0  0  0  0  0  0  0  0  0
    5.9970   -3.5680   23.9240 C   0  0  0  0  0  0  0  0  0  0  0  0
    5.6140   -3.1680   25.3020 C   0  0  0  0  0  0  0  0  0  0  0  0
    4.4140   -3.1000   25.5930 O   0  0  0  0  0  0  0  0  0  0  0  0
    6.5790   -2.8660   26.2790 N   0  0  0  0  0  0  0  0  0  0  0  0
    6.4810   -1.6500   27.0620 C   0  0  0  0  0  0  0  0  0  0  0  0
    5.8140   -0.4630   26.4650 C   0  0  0  0  0  0  0  0  0  0  0  0
    5.6020    0.7880   27.0000 C   0  0  0  0  0  0  0  0  0  0  0  0
    6.0020    1.1780   28.2760 C   0  0  0  0  0  0  0  0  0  0  0  0
    5.8100    2.4080   28.8500 C   0  0  0  0  0  0  0  0  0  0  0  0
    4.6270    2.7470   28.3750 N   0  0  0  0  0  0  0  0  0  0  0  0
    3.5140    2.6740   29.3460 C   0  0  0  0  0  0  0  0  0  0  0  0
    2.2910    3.3070   28.7610 C   0  0  0  0  0  0  0  0  0  0  0  0
    2.4630    4.5040   28.1230 O   0  0  0  0  0  0  0  0  0  0  0  0
    3.7380    5.0670   28.1960 C   0  0  0  0  0  0  0  0  0  0  0  0
    4.7400    4.0560   27.7560 C   0  0  0  0  0  0  0  0  0  0  0  0
    6.7210   -0.0190   28.9860 C   0  0  0  0  0  0  0  0  0  0  0  0
    7.2850    0.0580   30.3890 C   0  0  0  0  0  0  0  0  0  0  0  0
    6.4620   -0.2840   31.4310 F   0  0  0  0  0  0  0  0  0  0  0  0
    7.7100    1.3160   30.6950 F   0  0  0  0  0  0  0  0  0  0  0  0
    8.3300   -0.8360   30.5040 F   0  0  0  0  0  0  0  0  0  0  0  0
    6.9630   -1.4070   28.4060 C   0  0  0  0  0  0  0  0  0  0  0  0
    7.3870   -3.0480   23.5990 C   0  0  0  0  0  0  0  0  0  0  0  0
    7.6670   -3.1650   22.2510 C   0  0  0  0  0  0  0  0  0  0  0  0
  1  2  1  0
  2  3  2  0
  2  4  1  0
  4  5  1  0
  5  6  1  0
  6  7  1  0
  7  8  1  0
  8  9  2  0
  8 10  1  0
 10 11  1  0
 11 12  2  0
 12 13  1  0
 13 14  2  0
 14 15  1  0
 15 16  1  0
 16 17  1  0
 17 18  1  0
 18 19  1  0
 19 20  1  0
 16 21  1  0
 20 21  1  0
 14 22  1  0
 22 23  1  0
 23 24  1  0
 23 25  1  0
 23 26  1  0
 11 27  1  0
 22 27  2  0
  7 28  1  0
  4 29  1  0
 28 29  1  0
M  END
