piperidine-amides-2227-covalent
     RDKit          3D

 29 31  0  0  0  0  0  0  0  0999 V2000
    7.0430   -3.3360   19.3030 C   0  0  0  0  0  0  0  0  0  0  0  0
    6.3610   -4.1730   20.3220 C   0  0  0  0  0  0  0  0  0  0  0  0
    5.3580   -4.7890   19.9620 O   0  0  0  0  0  0  0  0  0  0  0  0
    6.8810   -4.2740   21.6150 N   0  0  0  0  0  0  0  0  0  0  0  0
    6.6140   -5.4140   22.4490 C   0  0  0  0  0  0  0  0  0  0  0  0
    5.9260   -4.9570   23.7080 C   0  0  0  0  0  0  0  0  0  0  0  0
    6.6300   -3.7140   24.2680 C   0  0  0  0  0  0  0  0  0  0  0  0
    5.8070   -3.1280   25.3520 C   0  0  0  0  0  0  0  0  0  0  0  0
    4.6870   -2.6780   25.0780 O   0  0  0  0  0  0  0  0  0  0  0  0
    6.2720   -3.1000   26.6880 N   0  0  0  0  0  0  0  0  0  0  0  0
    6.4210   -1.8510   27.4260 C   0  0  0  0  0  0  0  0  0  0  0  0
    5.7010   -0.7300   26.7150 C   0  0  0  0  0  0  0  0  0  0  0  0
    5.7360    0.4260   27.4010 C   0  0  0  0  0  0  0  0  0  0  0  0
    6.5690    0.4160   28.5260 N   0  0  0  0  0  0  0  0  0  0  0  0
    6.3200    1.1840   29.7220 C   0  0  0  0  0  0  0  0  0  0  0  0
    6.5110    0.6450   30.9750 C   0  0  0  0  0  0  0  0  0  0  0  0
    6.2930    1.3380   32.3350 C   0  0  0  0  0  0  0  0  0  0  0  0
    5.8130    2.7720   32.2100 C   0  0  0  0  0  0  0  0  0  0  0  0
    5.5490    3.6190   33.2490 O   0  0  0  0  0  0  0  0  0  0  0  0
    4.3250    3.4510   33.8980 C   0  0  0  0  0  0  0  0  0  0  0  0
    3.8090    4.6750   34.2090 F   0  0  0  0  0  0  0  0  0  0  0  0
    4.5310    2.6370   34.9550 F   0  0  0  0  0  0  0  0  0  0  0  0
    3.3300    2.7690   33.1480 F   0  0  0  0  0  0  0  0  0  0  0  0
    5.6020    3.3600   30.8430 C   0  0  0  0  0  0  0  0  0  0  0  0
    5.8360    2.6240   29.5950 C   0  0  0  0  0  0  0  0  0  0  0  0
    7.0880   -0.8900   28.8110 C   0  0  0  0  0  0  0  0  0  0  0  0
    6.0490   -1.9670   28.8770 C   0  0  0  0  0  0  0  0  0  0  0  0
    6.8360   -2.6750   23.1870 C   0  0  0  0  0  0  0  0  0  0  0  0
    7.6470   -3.1860   22.2030 C   0  0  0  0  0  0  0  0  0  0  0  0
  1  2  1  0
  2  3  2  0
  2  4  1  0
  4  5  1  0
  5  6  1  0
  6  7  1  0
  7  8  1  0
  8  9  2  0
  8 10  1  0
 10 11  1  0
 11 12  1  0
 12 13  1  0
 13 14  1  0
 14 15  1  0
 15 16  2  0
 16 17  1  0
 17 18  2  0
 18 19  1  0
 19 20  1  0
 20 21  1  0
 20 22  1  0
 20 23  1  0
 18 24  1  0
 15 25  1  0
 24 25  2  0
 14 26  1  0
 11 27  1  0
 26 27  1  0
  7 28  1  0
  4 29  1  0
 28 29  1  0
M  END
