piperidine-amides-309-covalent
     RDKit          3D

 30 32  0  0  0  0  0  0  0  0999 V2000
    7.2130   -3.2990   19.3250 C   0  0  0  0  0  0  0  0  0  0  0  0
    6.4790   -4.0940   20.2760 C   0  0  0  0  0  0  0  0  0  0  0  0
    5.3710   -4.6110   19.9180 O   0  0  0  0  0  0  0  0  0  0  0  0
    6.9960   -4.3560   21.5550 N   0  0  0  0  0  0  0  0  0  0  0  0
    6.6130   -5.6150   22.2050 C   0  0  0  0  0  0  0  0  0  0  0  0
    5.4640   -5.0540   23.1110 C   0  0  0  0  0  0  0  0  0  0  0  0
    6.0860   -3.9570   23.9520 C   0  0  0  0  0  0  0  0  0  0  0  0
    4.9680   -3.3660   24.9000 C   0  0  0  0  0  0  0  0  0  0  0  0
    3.9460   -3.1090   24.2950 O   0  0  0  0  0  0  0  0  0  0  0  0
    5.4410   -3.3150   26.0470 N   0  0  0  0  0  0  0  0  0  0  0  0
    5.9610   -3.2270   27.2590 C   0  0  1  0  0  0  0  0  0  0  0  0
    6.4190   -2.2610   28.0460 C   0  0  0  0  0  0  0  0  0  0  0  0
    5.6900   -1.0750   28.1610 C   0  0  0  0  0  0  0  0  0  0  0  0
    6.0700    0.0870   29.0060 C   0  0  0  0  0  0  0  0  0  0  0  0
    7.4180   -0.2110   29.7470 C   0  0  0  0  0  0  0  0  0  0  0  0
    7.9960   -1.4730   29.4830 C   0  0  0  0  0  0  0  0  0  0  0  0
    7.4850   -2.4580   28.6560 C   0  0  0  0  0  0  0  0  0  0  0  0
    8.1870   -4.0390   28.3540 Cl  0  0  0  0  0  0  0  0  0  0  0  0
    5.1070   -3.9040   28.2410 C   0  0  0  0  0  0  0  0  0  0  0  0
    5.4300   -5.4010   28.0090 C   0  0  0  0  0  0  0  0  0  0  0  0
    4.8000   -6.3180   28.7770 C   0  0  0  0  0  0  0  0  0  0  0  0
    3.9060   -5.8860   29.7260 C   0  0  0  0  0  0  0  0  0  0  0  0
    3.3220   -6.7070   30.4360 O   0  0  0  0  0  0  0  0  0  0  0  0
    3.5020   -8.0790   30.2120 C   0  0  0  0  0  0  0  0  0  0  0  0
    3.5900   -4.5570   29.9650 C   0  0  0  0  0  0  0  0  0  0  0  0
    4.1960   -3.5390   29.2160 C   0  0  0  0  0  0  0  0  0  0  0  0
    3.8540   -2.2250   29.4950 O   0  0  0  0  0  0  0  0  0  0  0  0
    4.0870   -1.7240   30.7870 C   0  0  0  0  0  0  0  0  0  0  0  0
    6.8100   -2.7930   23.2930 C   0  0  0  0  0  0  0  0  0  0  0  0
    7.7420   -3.3280   22.2240 C   0  0  0  0  0  0  0  0  0  0  0  0
  1  2  1  0
  2  3  2  0
  2  4  1  0
  4  5  1  0
  5  6  1  0
  6  7  1  0
  7  8  1  0
  8  9  2  0
  8 10  1  0
 11 10  1  6
 11 12  1  0
 12 13  2  0
 13 14  1  0
 14 15  2  0
 15 16  1  0
 12 17  1  0
 16 17  2  0
 17 18  1  0
 11 19  1  0
 19 20  2  0
 20 21  1  0
 21 22  2  0
 22 23  1  0
 23 24  1  0
 22 25  1  0
 19 26  1  0
 25 26  2  0
 26 27  1  0
 27 28  1  0
  7 29  1  0
  4 30  1  0
 29 30  1  0
M  END
