piperidine-amides-23950-covalent
     RDKit          3D

 24 25  0  0  0  0  0  0  0  0999 V2000
    7.0740   -3.3120   19.2960 C   0  0  0  0  0  0  0  0  0  0  0  0
    6.3860   -4.1240   20.3140 C   0  0  0  0  0  0  0  0  0  0  0  0
    5.3460   -4.7230   19.9500 O   0  0  0  0  0  0  0  0  0  0  0  0
    6.9110   -4.2700   21.6320 N   0  0  0  0  0  0  0  0  0  0  0  0
    7.7140   -3.2270   22.1810 C   0  0  0  0  0  0  0  0  0  0  0  0
    7.5010   -3.0380   23.6030 C   0  0  0  0  0  0  0  0  0  0  0  0
    6.2820   -3.7120   24.0610 C   0  0  0  0  0  0  0  0  0  0  0  0
    5.8810   -3.3530   25.4680 C   0  0  0  0  0  0  0  0  0  0  0  0
    4.6680   -3.3600   25.7520 O   0  0  0  0  0  0  0  0  0  0  0  0
    6.8120   -3.0100   26.4800 N   0  0  0  0  0  0  0  0  0  0  0  0
    7.5610   -3.9810   27.2250 C   0  0  0  0  0  0  0  0  0  0  0  0
    8.4070   -4.9850   26.5780 C   0  0  0  0  0  0  0  0  0  0  0  0
    6.6600   -1.7170   27.1790 C   0  0  0  0  0  0  0  0  0  0  0  0
    7.2940   -1.7970   28.4730 C   0  0  0  0  0  0  0  0  0  0  0  0
    7.2400   -0.5330   29.3860 C   0  0  0  0  0  0  0  0  0  0  0  0
    6.5130    0.4000   28.5730 C   0  0  0  0  0  0  0  0  0  0  0  0
    6.2940    1.7800   29.2110 C   0  0  0  0  0  0  0  0  0  0  0  0
    5.8730    0.6630   27.4090 C   0  0  0  0  0  0  0  0  0  0  0  0
    5.9550   -0.5840   26.5780 C   0  0  0  0  0  0  0  0  0  0  0  0
    5.4380   -0.7340   25.3490 N   0  0  0  0  0  0  0  0  0  0  0  0
    4.2090   -1.3970   25.2150 O   0  0  0  0  0  0  0  0  0  0  0  0
    5.7100    0.1910   24.4040 O   0  0  0  0  0  0  0  0  0  0  0  0
    6.3980   -5.2320   23.8540 C   0  0  0  0  0  0  0  0  0  0  0  0
    6.5320   -5.4920   22.3810 C   0  0  0  0  0  0  0  0  0  0  0  0
  1  2  1  0
  2  3  2  0
  2  4  1  0
  4  5  1  0
  5  6  1  0
  6  7  1  0
  7  8  1  0
  8  9  2  0
  8 10  1  0
 10 11  1  0
 11 12  1  0
 10 13  1  0
 13 14  2  0
 14 15  1  0
 15 16  2  0
 16 17  1  0
 16 18  1  0
 13 19  1  0
 18 19  2  0
 19 20  1  0
 20 21  2  0
 20 22  1  0
  7 23  1  0
  4 24  1  0
 23 24  1  0
M  CHG  2  20   1  22  -1
M  END
