piperidine-amides-28849-covalent
     RDKit          3D

 26 28  0  0  0  0  0  0  0  0999 V2000
    7.0650   -3.3540   19.3660 C   0  0  0  0  0  0  0  0  0  0  0  0
    6.4270   -4.2290   20.3430 C   0  0  0  0  0  0  0  0  0  0  0  0
    5.4010   -4.8410   19.9890 O   0  0  0  0  0  0  0  0  0  0  0  0
    7.0100   -4.4070   21.6280 N   0  0  0  0  0  0  0  0  0  0  0  0
    6.5910   -5.5210   22.4150 C   0  0  0  0  0  0  0  0  0  0  0  0
    5.7240   -5.0130   23.5320 C   0  0  0  0  0  0  0  0  0  0  0  0
    6.5160   -3.9830   24.3210 C   0  0  0  0  0  0  0  0  0  0  0  0
    5.7100   -3.5080   25.5000 C   0  0  0  0  0  0  0  0  0  0  0  0
    4.6430   -2.9760   25.2020 O   0  0  0  0  0  0  0  0  0  0  0  0
    6.1640   -3.6730   26.8170 N   0  0  0  0  0  0  0  0  0  0  0  0
    5.9630   -2.6590   27.7830 C   0  0  0  0  0  0  0  0  0  0  0  0
    5.8710   -3.1380   29.0940 C   0  0  0  0  0  0  0  0  0  0  0  0
    4.7060   -4.0260   29.0730 N   0  0  0  0  0  0  0  0  0  0  0  0
    3.4840   -4.0270   29.7930 C   0  0  0  0  0  0  0  0  0  0  0  0
    3.4280   -4.9970   30.7990 C   0  0  0  0  0  0  0  0  0  0  0  0
    2.2800   -5.9380   30.5210 C   0  0  0  0  0  0  0  0  0  0  0  0
    2.3210   -6.2920   29.2290 N   0  0  0  0  0  0  0  0  0  0  0  0
    2.9020   -7.4240   28.7580 C   0  0  0  0  0  0  0  0  0  0  0  0
    3.2620   -7.4630   27.3130 C   0  0  0  0  0  0  0  0  0  0  0  0
    4.1090   -7.8860   29.5330 C   0  0  0  0  0  0  0  0  0  0  0  0
    1.9370   -5.2920   28.4380 C   0  0  0  0  0  0  0  0  0  0  0  0
    2.3250   -4.0440   28.8180 C   0  0  0  0  0  0  0  0  0  0  0  0
    4.9900   -5.1710   28.2920 C   0  0  0  0  0  0  0  0  0  0  0  0
    6.1280   -5.0080   27.3730 C   0  0  0  0  0  0  0  0  0  0  0  0
    6.8860   -2.8020   23.4090 C   0  0  0  0  0  0  0  0  0  0  0  0
    7.7230   -3.3560   22.2820 C   0  0  0  0  0  0  0  0  0  0  0  0
  1  2  1  0
  2  3  2  0
  2  4  1  0
  4  5  1  0
  5  6  1  0
  6  7  1  0
  7  8  1  0
  8  9  2  0
  8 10  1  0
 10 11  1  0
 11 12  1  0
 12 13  1  0
 13 14  1  0
 14 15  1  0
 15 16  1  0
 16 17  1  0
 17 18  1  0
 18 19  1  0
 18 20  1  0
 17 21  1  0
 14 22  1  0
 21 22  1  0
 13 23  1  0
 10 24  1  0
 23 24  1  0
  7 25  1  0
  4 26  1  0
 25 26  1  0
M  END
