piperidine-amides-2257-covalent
     RDKit          3D

 28 30  0  0  0  0  0  0  0  0999 V2000
    7.0970   -3.3160   19.2790 C   0  0  0  0  0  0  0  0  0  0  0  0
    6.3310   -4.0850   20.2900 C   0  0  0  0  0  0  0  0  0  0  0  0
    5.2850   -4.6070   19.9090 O   0  0  0  0  0  0  0  0  0  0  0  0
    6.8260   -4.2310   21.5940 N   0  0  0  0  0  0  0  0  0  0  0  0
    6.5400   -5.4130   22.3620 C   0  0  0  0  0  0  0  0  0  0  0  0
    6.0910   -5.0360   23.7580 C   0  0  0  0  0  0  0  0  0  0  0  0
    6.0150   -3.5110   23.9150 C   0  0  0  0  0  0  0  0  0  0  0  0
    5.6410   -3.1820   25.3090 C   0  0  0  0  0  0  0  0  0  0  0  0
    4.4460   -3.1100   25.6110 O   0  0  0  0  0  0  0  0  0  0  0  0
    6.6390   -2.9360   26.2690 N   0  0  0  0  0  0  0  0  0  0  0  0
    6.3360   -2.9210   27.6910 C   0  0  0  0  0  0  0  0  0  0  0  0
    5.1300   -3.7750   27.9910 C   0  0  0  0  0  0  0  0  0  0  0  0
    4.6770   -4.8510   27.2390 C   0  0  0  0  0  0  0  0  0  0  0  0
    3.5550   -5.5750   27.5980 C   0  0  0  0  0  0  0  0  0  0  0  0
    2.8560   -5.2370   28.7310 C   0  0  0  0  0  0  0  0  0  0  0  0
    1.8300   -6.0560   28.8850 N   0  0  0  0  0  0  0  0  0  0  0  0
    2.1520   -7.4970   28.7940 C   0  0  0  0  0  0  0  0  0  0  0  0
    2.6470   -8.0500   30.1040 C   0  0  0  0  0  0  0  0  0  0  0  0
    2.6830   -6.8910   31.0680 C   0  0  0  0  0  0  0  0  0  0  0  0
    1.2450   -6.5030   31.1440 C   0  0  1  0  0  0  0  0  0  0  0  0
    0.8870   -5.7910   32.4100 C   0  0  0  0  0  0  0  0  0  0  0  0
    0.9340   -6.7020   33.5760 N   0  0  0  0  0  0  0  0  0  0  0  0
    0.5830   -4.5510   32.4470 O   0  0  0  0  0  0  0  0  0  0  0  0
    0.9780   -5.6590   29.9390 C   0  0  0  0  0  0  0  0  0  0  0  0
    3.2280   -4.1990   29.5280 C   0  0  0  0  0  0  0  0  0  0  0  0
    4.4310   -3.4310   29.1310 C   0  0  0  0  0  0  0  0  0  0  0  0
    7.3610   -2.9380   23.5750 C   0  0  0  0  0  0  0  0  0  0  0  0
    7.6560   -3.1790   22.1200 C   0  0  0  0  0  0  0  0  0  0  0  0
  1  2  1  0
  2  3  2  0
  2  4  1  0
  4  5  1  0
  5  6  1  0
  6  7  1  0
  7  8  1  0
  8  9  2  0
  8 10  1  0
 10 11  1  0
 11 12  1  0
 12 13  2  0
 13 14  1  0
 14 15  2  0
 15 16  1  0
 16 17  1  0
 17 18  1  0
 18 19  1  0
 19 20  1  0
 20 21  1  1
 21 22  1  0
 21 23  2  0
 16 24  1  0
 20 24  1  0
 15 25  1  0
 12 26  1  0
 25 26  2  0
  7 27  1  0
  4 28  1  0
 27 28  1  0
M  END
