piperidine-amides-27460-covalent
     RDKit          3D

 23 25  0  0  0  0  0  0  0  0999 V2000
    7.1250   -3.3250   19.2550 C   0  0  0  0  0  0  0  0  0  0  0  0
    6.3920   -4.0670   20.2850 C   0  0  0  0  0  0  0  0  0  0  0  0
    5.3300   -4.6380   19.9220 O   0  0  0  0  0  0  0  0  0  0  0  0
    6.9000   -4.1550   21.5820 N   0  0  0  0  0  0  0  0  0  0  0  0
    6.7280   -5.3470   22.3750 C   0  0  0  0  0  0  0  0  0  0  0  0
    6.1190   -4.9250   23.6770 C   0  0  0  0  0  0  0  0  0  0  0  0
    6.2630   -3.4360   23.8890 C   0  0  0  0  0  0  0  0  0  0  0  0
    5.8570   -3.0370   25.2520 C   0  0  0  0  0  0  0  0  0  0  0  0
    5.1580   -2.0160   25.4050 O   0  0  0  0  0  0  0  0  0  0  0  0
    6.1920   -3.7980   26.3590 N   0  0  0  0  0  0  0  0  0  0  0  0
    6.2500   -3.2440   27.6960 C   0  0  0  0  0  0  0  0  0  0  0  0
    6.4670   -4.3400   28.7430 C   0  0  0  0  0  0  0  0  0  0  0  0
    5.6010   -5.3830   28.7860 C   0  0  0  0  0  0  0  0  0  0  0  0
    4.9870   -6.1000   29.8090 C   0  0  0  0  0  0  0  0  0  0  0  0
    4.0760   -7.1140   29.5350 C   0  0  0  0  0  0  0  0  0  0  0  0
    3.3300   -7.9390   30.8890 Cl  0  0  0  0  0  0  0  0  0  0  0  0
    3.7590   -7.4510   28.2270 C   0  0  0  0  0  0  0  0  0  0  0  0
    4.3280   -6.8080   27.1580 C   0  0  0  0  0  0  0  0  0  0  0  0
    3.9130   -7.2320   25.4950 Cl  0  0  0  0  0  0  0  0  0  0  0  0
    5.2960   -5.7290   27.5370 C   0  0  0  0  0  0  0  0  0  0  0  0
    5.8070   -5.1420   26.2630 C   0  0  0  0  0  0  0  0  0  0  0  0
    7.6890   -3.0100   23.5660 C   0  0  0  0  0  0  0  0  0  0  0  0
    7.8160   -3.1100   22.0640 C   0  0  0  0  0  0  0  0  0  0  0  0
  1  2  1  0
  2  3  2  0
  2  4  1  0
  4  5  1  0
  5  6  1  0
  6  7  1  0
  7  8  1  0
  8  9  2  0
  8 10  1  0
 10 11  1  0
 11 12  1  0
 12 13  1  0
 13 14  2  0
 14 15  1  0
 15 16  1  0
 15 17  2  0
 17 18  1  0
 18 19  1  0
 13 20  1  0
 18 20  2  0
 10 21  1  0
 20 21  1  0
  7 22  1  0
  4 23  1  0
 22 23  1  0
M  END
