piperidine-amides-15305-covalent
     RDKit          3D

 16 17  0  0  0  0  0  0  0  0999 V2000
    7.0830   -3.2820   19.3180 C   0  0  0  0  0  0  0  0  0  0  0  0
    6.3550   -4.0950   20.2990 C   0  0  0  0  0  0  0  0  0  0  0  0
    5.3520   -4.7520   19.9460 O   0  0  0  0  0  0  0  0  0  0  0  0
    6.7870   -4.1760   21.6320 N   0  0  0  0  0  0  0  0  0  0  0  0
    6.6340   -5.4420   22.3180 C   0  0  0  0  0  0  0  0  0  0  0  0
    6.1470   -5.1600   23.7440 C   0  0  0  0  0  0  0  0  0  0  0  0
    6.0530   -3.6600   23.8900 C   0  0  0  0  0  0  0  0  0  0  0  0
    5.5150   -3.3290   25.2280 C   0  0  0  0  0  0  0  0  0  0  0  0
    4.2770   -3.3920   25.3720 O   0  0  0  0  0  0  0  0  0  0  0  0
    6.3440   -2.9490   26.3080 N   0  0  0  0  0  0  0  0  0  0  0  0
    6.4700   -1.5760   26.5910 C   0  0  0  0  0  0  0  0  0  0  0  0
    5.9840   -2.0530   27.8990 C   0  0  0  0  0  0  0  0  0  0  0  0
    6.7800   -1.7280   28.9430 F   0  0  0  0  0  0  0  0  0  0  0  0
    5.9210   -3.4240   27.6590 C   0  0  0  0  0  0  0  0  0  0  0  0
    7.3760   -3.0600   23.5720 C   0  0  0  0  0  0  0  0  0  0  0  0
    7.6570   -3.1830   22.2120 C   0  0  0  0  0  0  0  0  0  0  0  0
  1  2  1  0
  2  3  2  0
  2  4  1  0
  4  5  1  0
  5  6  1  0
  6  7  1  0
  7  8  1  0
  8  9  2  0
  8 10  1  0
 10 11  1  0
 11 12  1  0
 12 13  1  0
 10 14  1  0
 12 14  1  0
  7 15  1  0
  4 16  1  0
 15 16  1  0
M  END
