piperidine-amides-28074-covalent
     RDKit          3D

 26 29  0  0  0  0  0  0  0  0999 V2000
    7.0440   -3.3610   19.2890 C   0  0  0  0  0  0  0  0  0  0  0  0
    6.4170   -4.2040   20.3300 C   0  0  0  0  0  0  0  0  0  0  0  0
    5.3890   -4.8240   19.9830 O   0  0  0  0  0  0  0  0  0  0  0  0
    6.9910   -4.3270   21.6060 N   0  0  0  0  0  0  0  0  0  0  0  0
    6.7080   -5.4820   22.4010 C   0  0  0  0  0  0  0  0  0  0  0  0
    6.1470   -5.1390   23.7070 C   0  0  0  0  0  0  0  0  0  0  0  0
    6.1340   -3.6830   23.9190 C   0  0  0  0  0  0  0  0  0  0  0  0
    5.5730   -3.3000   25.2320 C   0  0  0  0  0  0  0  0  0  0  0  0
    4.7240   -2.3970   25.2440 O   0  0  0  0  0  0  0  0  0  0  0  0
    5.9340   -3.9180   26.4280 N   0  0  0  0  0  0  0  0  0  0  0  0
    5.1750   -5.0770   26.8810 C   0  0  0  0  0  0  0  0  0  0  0  0
    5.2480   -5.2880   28.3530 C   0  0  0  0  0  0  0  0  0  0  0  0
    5.8140   -4.2920   29.2320 C   0  0  0  0  0  0  0  0  0  0  0  0
    4.9010   -3.3570   29.7100 C   0  0  0  0  0  0  0  0  0  0  0  0
    3.7300   -3.6940   29.9730 O   0  0  0  0  0  0  0  0  0  0  0  0
    3.1390   -2.6470   30.3930 N   0  0  0  0  0  0  0  0  0  0  0  0
    4.1440   -1.6220   30.3420 C   0  0  0  0  0  0  0  0  0  0  0  0
    5.3850   -1.9280   29.9040 C   0  0  0  0  0  0  0  0  0  0  0  0
    6.5140   -1.1730   29.7530 C   0  0  0  0  0  0  0  0  0  0  0  0
    6.1820    0.1580   29.8680 C   0  0  0  0  0  0  0  0  0  0  0  0
    5.2450    0.3570   30.9060 C   0  0  0  0  0  0  0  0  0  0  0  0
    3.9370   -0.3300   30.7160 C   0  0  0  0  0  0  0  0  0  0  0  0
    6.8200   -3.5230   28.7360 C   0  0  0  0  0  0  0  0  0  0  0  0
    6.4140   -3.0060   27.3970 C   0  0  0  0  0  0  0  0  0  0  0  0
    7.3850   -2.9990   23.6030 C   0  0  0  0  0  0  0  0  0  0  0  0
    7.8090   -3.2520   22.1780 C   0  0  0  0  0  0  0  0  0  0  0  0
  1  2  1  0
  2  3  2  0
  2  4  1  0
  4  5  1  0
  5  6  1  0
  6  7  1  0
  7  8  1  0
  8  9  2  0
  8 10  1  0
 10 11  1  0
 11 12  1  0
 12 13  1  0
 13 14  1  0
 14 15  1  0
 15 16  1  0
 16 17  2  0
 14 18  2  0
 17 18  1  0
 18 19  1  0
 19 20  1  0
 20 21  1  0
 17 22  1  0
 21 22  1  0
 13 23  1  0
 10 24  1  0
 23 24  1  0
  7 25  1  0
  4 26  1  0
 25 26  1  0
M  END
