piperidine-amides-34878-covalent
     RDKit          3D

 31 33  0  0  0  0  0  0  0  0999 V2000
    7.0600   -3.3280   19.3610 C   0  0  0  0  0  0  0  0  0  0  0  0
    6.3190   -4.2070   20.3140 C   0  0  0  0  0  0  0  0  0  0  0  0
    5.2630   -4.6760   19.9130 O   0  0  0  0  0  0  0  0  0  0  0  0
    6.8310   -4.5140   21.5800 N   0  0  0  0  0  0  0  0  0  0  0  0
    7.6440   -3.5860   22.2900 C   0  0  0  0  0  0  0  0  0  0  0  0
    6.7390   -2.8250   23.1980 C   0  0  0  0  0  0  0  0  0  0  0  0
    5.8320   -3.8160   23.8930 C   0  0  0  0  0  0  0  0  0  0  0  0
    5.6710   -3.3690   25.2990 C   0  0  0  0  0  0  0  0  0  0  0  0
    4.6140   -3.6220   25.8910 O   0  0  0  0  0  0  0  0  0  0  0  0
    6.6830   -2.6380   25.9690 N   0  0  0  0  0  0  0  0  0  0  0  0
    6.8290   -2.8540   27.3840 C   0  0  0  0  0  0  0  0  0  0  0  0
    7.1040   -1.4050   25.3970 C   0  0  0  0  0  0  0  0  0  0  0  0
    8.0600   -1.6260   24.4440 C   0  0  0  0  0  0  0  0  0  0  0  0
    7.9760   -1.2040   23.1200 C   0  0  0  0  0  0  0  0  0  0  0  0
    8.9040   -1.4170   22.0780 C   0  0  0  0  0  0  0  0  0  0  0  0
   10.2130   -2.0160   21.6640 C   0  0  0  0  0  0  0  0  0  0  0  0
   10.0720   -2.1730   22.5500 C   0  0  0  0  0  0  0  0  0  0  0  0
   10.9900   -2.3890   21.4980 O   0  0  0  0  0  0  0  0  0  0  0  0
   12.2710   -1.8050   21.5530 C   0  0  0  0  0  0  0  0  0  0  0  0
   12.3210   -1.3050   22.8680 C   0  0  0  0  0  0  0  0  0  0  0  0
   13.2930   -1.9830   23.7520 C   0  0  0  0  0  0  0  0  0  0  0  0
   13.4180   -1.5640   25.1540 C   0  0  0  0  0  0  0  0  0  0  0  0
   12.5320   -0.4710   25.5370 C   0  0  0  0  0  0  0  0  0  0  0  0
   11.5920    0.1220   24.5470 C   0  0  0  0  0  0  0  0  0  0  0  0
   11.5160   -0.2840   23.2960 C   0  0  0  0  0  0  0  0  0  0  0  0
   10.3280    0.5840   22.3370 Cl  0  0  0  0  0  0  0  0  0  0  0  0
   10.2160   -2.6340   23.9710 C   0  0  0  0  0  0  0  0  0  0  0  0
   11.4260   -3.3970   24.4160 C   0  0  0  0  0  0  0  0  0  0  0  0
    9.2350   -2.3660   24.8700 C   0  0  0  0  0  0  0  0  0  0  0  0
    6.2400   -5.2660   23.7780 C   0  0  0  0  0  0  0  0  0  0  0  0
    6.2440   -5.6390   22.2750 C   0  0  0  0  0  0  0  0  0  0  0  0
  1  2  1  0
  2  3  2  0
  2  4  1  0
  4  5  1  0
  5  6  1  0
  6  7  1  0
  7  8  1  0
  8  9  2  0
  8 10  1  0
 10 11  1  0
 10 12  1  0
 12 13  1  0
 13 14  2  0
 14 15  1  0
 15 16  1  0
 15 17  2  0
 17 18  1  0
 18 19  1  0
 19 20  1  0
 20 21  2  0
 21 22  1  0
 22 23  2  0
 23 24  1  0
 20 25  1  0
 24 25  2  0
 25 26  1  0
 17 27  1  0
 27 28  1  0
 13 29  1  0
 27 29  2  0
  7 30  1  0
  4 31  1  0
 30 31  1  0
M  END
