piperidine-amides-21747-covalent
     RDKit          3D

 23 25  0  0  0  0  0  0  0  0999 V2000
    7.0420   -3.3720   19.3750 C   0  0  0  0  0  0  0  0  0  0  0  0
    6.4180   -4.2470   20.3740 C   0  0  0  0  0  0  0  0  0  0  0  0
    5.3940   -4.8730   19.9920 O   0  0  0  0  0  0  0  0  0  0  0  0
    6.9700   -4.4100   21.6600 N   0  0  0  0  0  0  0  0  0  0  0  0
    6.6960   -5.5910   22.4640 C   0  0  0  0  0  0  0  0  0  0  0  0
    6.1600   -5.1590   23.8120 C   0  0  0  0  0  0  0  0  0  0  0  0
    6.0910   -3.6620   23.8990 C   0  0  0  0  0  0  0  0  0  0  0  0
    5.5350   -3.1480   25.1750 C   0  0  0  0  0  0  0  0  0  0  0  0
    4.8990   -2.0850   25.1110 O   0  0  0  0  0  0  0  0  0  0  0  0
    5.6150   -3.7430   26.4410 N   0  0  0  0  0  0  0  0  0  0  0  0
    6.3450   -3.0690   27.4410 C   0  0  0  0  0  0  0  0  0  0  0  0
    6.7440   -4.1230   28.4460 C   0  0  0  0  0  0  0  0  0  0  0  0
    6.0040   -4.4540   29.4960 C   0  0  0  0  0  0  0  0  0  0  0  0
    4.8570   -5.1030   29.3180 C   0  0  1  0  0  0  0  0  0  0  0  0
    3.8280   -4.4750   29.9180 N   0  0  0  0  0  0  0  0  0  0  0  0
    3.6150   -3.1880   29.9140 C   0  0  0  0  0  0  0  0  0  0  0  0
    2.5450   -3.3140   30.6270 C   0  0  0  0  0  0  0  0  0  0  0  0
    1.9370   -4.0970   31.1100 N   0  0  0  0  0  0  0  0  0  0  0  0
    2.7990   -5.0980   30.6580 N   0  0  0  0  0  0  0  0  0  0  0  0
    4.7580   -5.5070   27.8710 C   0  0  0  0  0  0  0  0  0  0  0  0
    4.4670   -4.3930   26.9030 C   0  0  0  0  0  0  0  0  0  0  0  0
    7.4210   -3.0620   23.6360 C   0  0  0  0  0  0  0  0  0  0  0  0
    7.7530   -3.2780   22.1880 C   0  0  0  0  0  0  0  0  0  0  0  0
  1  2  1  0
  2  3  2  0
  2  4  1  0
  4  5  1  0
  5  6  1  0
  6  7  1  0
  7  8  1  0
  8  9  2  0
  8 10  1  0
 10 11  1  0
 11 12  1  0
 12 13  1  0
 13 14  1  0
 14 15  1  6
 15 16  1  0
 16 17  2  0
 17 18  1  0
 15 19  1  0
 18 19  2  0
 14 20  1  0
 10 21  1  0
 20 21  1  0
  7 22  1  0
  4 23  1  0
 22 23  1  0
M  END
