piperidine-amides-15268-covalent
     RDKit          3D

 17 17  0  0  0  0  0  0  0  0999 V2000
    7.0780   -3.2710   19.2310 C   0  0  0  0  0  0  0  0  0  0  0  0
    6.3400   -4.0440   20.2420 C   0  0  0  0  0  0  0  0  0  0  0  0
    5.3020   -4.6580   19.9230 O   0  0  0  0  0  0  0  0  0  0  0  0
    6.8100   -4.1470   21.5610 N   0  0  0  0  0  0  0  0  0  0  0  0
    6.6060   -5.3970   22.2680 C   0  0  0  0  0  0  0  0  0  0  0  0
    6.1120   -5.1190   23.7050 C   0  0  0  0  0  0  0  0  0  0  0  0
    5.9980   -3.6250   23.9320 C   0  0  0  0  0  0  0  0  0  0  0  0
    5.5570   -3.3500   25.3150 C   0  0  0  0  0  0  0  0  0  0  0  0
    4.3440   -3.1270   25.5100 O   0  0  0  0  0  0  0  0  0  0  0  0
    6.4900   -3.3370   26.3800 N   0  0  0  0  0  0  0  0  0  0  0  0
    6.1890   -3.9500   27.6530 C   0  0  0  0  0  0  0  0  0  0  0  0
    5.9580   -5.4470   27.4920 C   0  0  2  0  0  0  0  0  0  0  0  0
    5.1450   -5.9510   26.5200 C   0  0  0  0  0  0  0  0  0  0  0  0
    5.3630   -5.9120   28.8010 C   0  0  0  0  0  0  0  0  0  0  0  0
    6.1410   -6.8630   29.4530 C   0  0  0  0  0  0  0  0  0  0  0  0
    7.2350   -2.9020   23.5720 C   0  0  0  0  0  0  0  0  0  0  0  0
    7.6610   -3.1440   22.1590 C   0  0  0  0  0  0  0  0  0  0  0  0
  1  2  1  0
  2  3  2  0
  2  4  1  0
  4  5  1  0
  5  6  1  0
  6  7  1  0
  7  8  1  0
  8  9  2  0
  8 10  1  0
 10 11  1  0
 11 12  1  0
 12 13  1  6
 12 14  1  0
 14 15  1  0
  7 16  1  0
  4 17  1  0
 16 17  1  0
M  END
