piperidine-amides-30989-covalent
     RDKit          3D

 27 29  0  0  0  0  0  0  0  0999 V2000
    7.0670   -3.3470   19.3420 C   0  0  0  0  0  0  0  0  0  0  0  0
    6.4020   -4.1850   20.3410 C   0  0  0  0  0  0  0  0  0  0  0  0
    5.4130   -4.8550   19.9920 O   0  0  0  0  0  0  0  0  0  0  0  0
    6.8910   -4.2780   21.6600 N   0  0  0  0  0  0  0  0  0  0  0  0
    7.7430   -3.2420   22.2230 C   0  0  0  0  0  0  0  0  0  0  0  0
    7.4500   -3.1610   23.7000 C   0  0  0  0  0  0  0  0  0  0  0  0
    6.1540   -3.8360   24.0240 C   0  0  0  0  0  0  0  0  0  0  0  0
    5.5410   -3.4540   25.3240 C   0  0  0  0  0  0  0  0  0  0  0  0
    4.4560   -2.8050   25.3100 O   0  0  0  0  0  0  0  0  0  0  0  0
    6.0360   -3.7380   26.6140 N   0  0  0  0  0  0  0  0  0  0  0  0
    6.4790   -2.5840   27.3790 C   0  0  0  0  0  0  0  0  0  0  0  0
    6.8120   -3.1060   28.7060 C   0  0  0  0  0  0  0  0  0  0  0  0
    5.8700   -3.6240   29.3090 O   0  0  0  0  0  0  0  0  0  0  0  0
    5.5040   -4.8070   28.8110 C   0  0  2  0  0  0  0  0  0  0  0  0
    6.2210   -6.0810   29.1800 C   0  0  0  0  0  0  0  0  0  0  0  0
    5.9780   -6.3150   30.5010 O   0  0  0  0  0  0  0  0  0  0  0  0
    4.7400   -6.8690   30.9200 C   0  0  0  0  0  0  0  0  0  0  0  0
    3.8850   -7.6000   29.9290 C   0  0  0  0  0  0  0  0  0  0  0  0
    2.6850   -8.1530   30.2680 C   0  0  0  0  0  0  0  0  0  0  0  0
    2.0500   -8.1600   31.4970 C   0  0  0  0  0  0  0  0  0  0  0  0
    0.8580   -8.7560   31.6470 F   0  0  0  0  0  0  0  0  0  0  0  0
    2.7740   -7.4690   32.6090 C   0  0  0  0  0  0  0  0  0  0  0  0
    2.2350   -7.4070   33.8930 F   0  0  0  0  0  0  0  0  0  0  0  0
    4.1330   -6.8130   32.3300 C   0  0  0  0  0  0  0  0  0  0  0  0
    5.2790   -4.7670   27.3300 C   0  0  0  0  0  0  0  0  0  0  0  0
    6.3060   -5.2960   23.7710 C   0  0  0  0  0  0  0  0  0  0  0  0
    6.6320   -5.5170   22.3420 C   0  0  0  0  0  0  0  0  0  0  0  0
  1  2  1  0
  2  3  2  0
  2  4  1  0
  4  5  1  0
  5  6  1  0
  6  7  1  0
  7  8  1  0
  8  9  2  0
  8 10  1  0
 10 11  1  0
 11 12  1  0
 12 13  1  0
 13 14  1  0
 14 15  1  6
 15 16  1  0
 16 17  1  0
 17 18  2  0
 18 19  1  0
 19 20  2  0
 20 21  1  0
 20 22  1  0
 22 23  1  0
 17 24  1  0
 22 24  2  0
 10 25  1  0
 14 25  1  0
  7 26  1  0
  4 27  1  0
 26 27  1  0
M  END
