piperidine-amides-30732-covalent
     RDKit          3D

 26 28  0  0  0  0  0  0  0  0999 V2000
    7.0850   -3.3880   19.4060 C   0  0  0  0  0  0  0  0  0  0  0  0
    6.3830   -4.2280   20.3750 C   0  0  0  0  0  0  0  0  0  0  0  0
    5.3760   -4.8460   19.9900 O   0  0  0  0  0  0  0  0  0  0  0  0
    6.8500   -4.4010   21.6980 N   0  0  0  0  0  0  0  0  0  0  0  0
    6.4380   -5.5120   22.5060 C   0  0  0  0  0  0  0  0  0  0  0  0
    5.5350   -4.8950   23.5540 C   0  0  0  0  0  0  0  0  0  0  0  0
    6.1830   -3.8260   24.4140 C   0  0  0  0  0  0  0  0  0  0  0  0
    5.2020   -3.2010   25.3800 C   0  0  0  0  0  0  0  0  0  0  0  0
    4.3870   -2.3430   24.9540 O   0  0  0  0  0  0  0  0  0  0  0  0
    5.1120   -3.5110   26.7790 N   0  0  0  0  0  0  0  0  0  0  0  0
    4.7490   -2.4810   27.7710 C   0  0  0  0  0  0  0  0  0  0  0  0
    5.0580   -2.9930   29.1450 C   0  0  0  0  0  0  0  0  0  0  0  0
    6.0400   -3.7440   29.3240 O   0  0  0  0  0  0  0  0  0  0  0  0
    6.0740   -4.7970   28.5180 C   0  0  1  0  0  0  0  0  0  0  0  0
    5.0170   -5.8600   28.5830 C   0  0  0  0  0  0  0  0  0  0  0  0
    4.3370   -6.3390   29.7450 N   0  0  0  0  0  0  0  0  0  0  0  0
    3.4030   -7.3480   29.2470 C   0  0  0  0  0  0  0  0  0  0  0  0
    2.4890   -8.0980   30.1470 C   0  0  0  0  0  0  0  0  0  0  0  0
    1.6790   -7.4250   31.0290 C   0  0  0  0  0  0  0  0  0  0  0  0
    2.9020   -8.2010   31.6050 C   0  0  0  0  0  0  0  0  0  0  0  0
    1.3210   -9.0050   29.7720 C   0  0  0  0  0  0  0  0  0  0  0  0
    3.3580   -7.6410   27.7600 C   0  0  0  0  0  0  0  0  0  0  0  0
    4.5160   -6.6250   27.0420 S   0  0  0  0  0  0  0  0  0  0  0  0
    6.1920   -4.2750   27.1570 C   0  0  0  0  0  0  0  0  0  0  0  0
    6.8920   -2.7940   23.5680 C   0  0  0  0  0  0  0  0  0  0  0  0
    7.5220   -3.3100   22.3210 C   0  0  0  0  0  0  0  0  0  0  0  0
  1  2  1  0
  2  3  2  0
  2  4  1  0
  4  5  1  0
  5  6  1  0
  6  7  1  0
  7  8  1  0
  8  9  2  0
  8 10  1  0
 10 11  1  0
 11 12  1  0
 12 13  1  0
 13 14  1  0
 14 15  1  6
 15 16  2  0
 16 17  1  0
 17 18  1  0
 18 19  1  0
 18 20  1  0
 18 21  1  0
 17 22  2  0
 15 23  1  0
 22 23  1  0
 10 24  1  0
 14 24  1  0
  7 25  1  0
  4 26  1  0
 25 26  1  0
M  END
