piperidine-amides-10954-covalent
     RDKit          3D

 21 22  0  0  0  0  0  0  0  0999 V2000
    7.0530   -3.3380   19.3400 C   0  0  0  0  0  0  0  0  0  0  0  0
    6.3640   -4.1600   20.3350 C   0  0  0  0  0  0  0  0  0  0  0  0
    5.3700   -4.8200   19.9780 O   0  0  0  0  0  0  0  0  0  0  0  0
    6.8190   -4.2630   21.6650 N   0  0  0  0  0  0  0  0  0  0  0  0
    6.7180   -5.4920   22.4250 C   0  0  0  0  0  0  0  0  0  0  0  0
    6.1040   -5.1240   23.7550 C   0  0  0  0  0  0  0  0  0  0  0  0
    6.0790   -3.6410   23.9660 C   0  0  0  0  0  0  0  0  0  0  0  0
    5.5880   -3.2530   25.3160 C   0  0  0  0  0  0  0  0  0  0  0  0
    4.3400   -3.1940   25.5110 O   0  0  0  0  0  0  0  0  0  0  0  0
    6.4180   -2.9510   26.4230 N   0  0  0  0  0  0  0  0  0  0  0  0
    6.6180   -1.5520   26.8930 C   0  0  0  0  0  0  0  0  0  0  0  0
    5.4310   -0.7240   26.5550 C   0  0  0  0  0  0  0  0  0  0  0  0
    5.0640    0.0230   27.6210 N   0  0  0  0  0  0  0  0  0  0  0  0
    5.7250    1.1710   28.1200 C   0  0  0  0  0  0  0  0  0  0  0  0
    4.4600   -0.6220   28.8320 C   0  0  0  0  0  0  0  0  0  0  0  0
    4.6960   -2.1110   29.0160 C   0  0  0  0  0  0  0  0  0  0  0  0
    5.9650   -2.5400   29.0310 N   0  0  0  0  0  0  0  0  0  0  0  0
    6.1800   -3.8510   28.8760 C   0  0  0  0  0  0  0  0  0  0  0  0
    6.8260   -1.5460   28.4310 C   0  0  0  0  0  0  0  0  0  0  0  0
    7.4150   -3.0310   23.6590 C   0  0  0  0  0  0  0  0  0  0  0  0
    7.7130   -3.2320   22.1920 C   0  0  0  0  0  0  0  0  0  0  0  0
  1  2  1  0
  2  3  2  0
  2  4  1  0
  4  5  1  0
  5  6  1  0
  6  7  1  0
  7  8  1  0
  8  9  2  0
  8 10  1  0
 10 11  1  0
 11 12  1  0
 12 13  1  0
 13 14  1  0
 13 15  1  0
 15 16  1  0
 16 17  1  0
 17 18  1  0
 11 19  1  0
 17 19  1  0
  7 20  1  0
  4 21  1  0
 20 21  1  0
M  END
