piperidine-amides-13913-covalent
     RDKit          3D

 26 27  0  0  0  0  0  0  0  0999 V2000
    7.0870   -3.3440   19.3190 C   0  0  0  0  0  0  0  0  0  0  0  0
    6.4020   -4.2110   20.3140 C   0  0  0  0  0  0  0  0  0  0  0  0
    5.3720   -4.8170   19.9770 O   0  0  0  0  0  0  0  0  0  0  0  0
    6.9770   -4.3620   21.5990 N   0  0  0  0  0  0  0  0  0  0  0  0
    7.7030   -3.2980   22.2290 C   0  0  0  0  0  0  0  0  0  0  0  0
    6.7760   -2.7490   23.3120 C   0  0  0  0  0  0  0  0  0  0  0  0
    6.4470   -3.8630   24.2550 C   0  0  0  0  0  0  0  0  0  0  0  0
    5.7680   -3.3210   25.4550 C   0  0  0  0  0  0  0  0  0  0  0  0
    4.5410   -3.2100   25.3680 O   0  0  0  0  0  0  0  0  0  0  0  0
    6.4820   -2.9570   26.6000 N   0  0  0  0  0  0  0  0  0  0  0  0
    6.4310   -1.6760   27.2110 C   0  0  0  0  0  0  0  0  0  0  0  0
    5.8420   -0.5940   26.5700 C   0  0  0  0  0  0  0  0  0  0  0  0
    5.7280    0.7070   27.0770 C   0  0  0  0  0  0  0  0  0  0  0  0
    6.2060    1.0540   28.3040 C   0  0  0  0  0  0  0  0  0  0  0  0
    6.8650    0.0440   29.1340 C   0  0  0  0  0  0  0  0  0  0  0  0
    7.4450    0.3080   30.5300 C   0  0  0  0  0  0  0  0  0  0  0  0
    8.6630   -0.2160   30.9050 O   0  0  0  0  0  0  0  0  0  0  0  0
    6.6820    1.1440   31.4150 N   0  0  0  0  0  0  0  0  0  0  0  0
    6.0510    0.6020   32.5660 C   0  0  0  0  0  0  0  0  0  0  0  0
    6.7690    0.9420   33.6980 C   0  0  0  0  0  0  0  0  0  0  0  0
    7.3460    2.1940   33.6780 O   0  0  0  0  0  0  0  0  0  0  0  0
    6.9610    0.2140   34.8110 N   0  0  0  0  0  0  0  0  0  0  0  0
    8.2260   -0.4950   34.7740 C   0  0  0  0  0  0  0  0  0  0  0  0
    6.9660   -1.3250   28.5550 C   0  0  0  0  0  0  0  0  0  0  0  0
    5.6780   -4.8920   23.5310 C   0  0  0  0  0  0  0  0  0  0  0  0
    6.5930   -5.4650   22.4270 C   0  0  0  0  0  0  0  0  0  0  0  0
  1  2  1  0
  2  3  2  0
  2  4  1  0
  4  5  1  0
  5  6  1  0
  6  7  1  0
  7  8  1  0
  8  9  2  0
  8 10  1  0
 10 11  1  0
 11 12  2  0
 12 13  1  0
 13 14  2  0
 14 15  1  0
 15 16  1  0
 16 17  2  0
 16 18  1  0
 18 19  1  0
 19 20  1  0
 20 21  2  0
 20 22  1  0
 22 23  1  0
 11 24  1  0
 15 24  2  0
  7 25  1  0
  4 26  1  0
 25 26  1  0
M  END
