piperidine-amides-13860-covalent
     RDKit          3D

 26 28  0  0  0  0  0  0  0  0999 V2000
    7.0420   -3.3320   19.3260 C   0  0  0  0  0  0  0  0  0  0  0  0
    6.3460   -4.1810   20.3350 C   0  0  0  0  0  0  0  0  0  0  0  0
    5.3610   -4.8490   19.9770 O   0  0  0  0  0  0  0  0  0  0  0  0
    6.8450   -4.2360   21.6520 N   0  0  0  0  0  0  0  0  0  0  0  0
    7.6920   -3.1730   22.1610 C   0  0  0  0  0  0  0  0  0  0  0  0
    7.5290   -3.1290   23.6760 C   0  0  0  0  0  0  0  0  0  0  0  0
    6.1650   -3.6390   23.9690 C   0  0  0  0  0  0  0  0  0  0  0  0
    5.6490   -3.2290   25.2940 C   0  0  0  0  0  0  0  0  0  0  0  0
    4.4210   -3.2080   25.4190 O   0  0  0  0  0  0  0  0  0  0  0  0
    6.5250   -2.8930   26.3280 N   0  0  0  0  0  0  0  0  0  0  0  0
    6.5010   -1.7350   27.1470 C   0  0  0  0  0  0  0  0  0  0  0  0
    7.0550   -1.5480   28.4160 C   0  0  0  0  0  0  0  0  0  0  0  0
    7.0040   -0.3610   29.2010 C   0  0  0  0  0  0  0  0  0  0  0  0
    6.3690    0.7990   28.7800 C   0  0  0  0  0  0  0  0  0  0  0  0
    6.1950    1.9940   29.3270 O   0  0  0  0  0  0  0  0  0  0  0  0
    6.5610    2.0060   30.5870 C   0  0  0  0  0  0  0  0  0  0  0  0
    6.6950    3.4720   31.0370 C   0  0  0  0  0  0  0  0  0  0  0  0
    5.6920    3.5090   32.1850 C   0  0  0  0  0  0  0  0  0  0  0  0
    5.1000    2.2800   32.3440 C   0  0  0  0  0  0  0  0  0  0  0  0
    5.6370    1.3180   31.3540 C   0  0  0  0  0  0  0  0  0  0  0  0
    5.8230    0.6440   27.5510 C   0  0  0  0  0  0  0  0  0  0  0  0
    5.1050    1.3020   26.5820 C   0  0  0  0  0  0  0  0  0  0  0  0
    4.3720    2.0090   25.5890 N   0  0  0  0  0  0  0  0  0  0  0  0
    5.8030   -0.4930   26.6530 C   0  0  0  0  0  0  0  0  0  0  0  0
    6.0060   -5.1100   23.7510 C   0  0  0  0  0  0  0  0  0  0  0  0
    6.7170   -5.4500   22.4370 C   0  0  0  0  0  0  0  0  0  0  0  0
  1  2  1  0
  2  3  2  0
  2  4  1  0
  4  5  1  0
  5  6  1  0
  6  7  1  0
  7  8  1  0
  8  9  2  0
  8 10  1  0
 10 11  1  0
 11 12  2  0
 12 13  1  0
 13 14  2  0
 14 15  1  0
 15 16  1  0
 16 17  1  0
 17 18  1  0
 18 19  1  0
 16 20  1  0
 19 20  1  0
 14 21  1  0
 21 22  1  0
 22 23  3  0
 11 24  1  0
 21 24  2  0
  7 25  1  0
  4 26  1  0
 25 26  1  0
M  END
