piperidine-amides-2922-covalent
     RDKit          3D

 24 25  0  0  0  0  0  0  0  0999 V2000
    7.1320   -3.2560   19.2110 C   0  0  0  0  0  0  0  0  0  0  0  0
    6.3610   -4.0060   20.1970 C   0  0  0  0  0  0  0  0  0  0  0  0
    5.3000   -4.5430   19.8820 O   0  0  0  0  0  0  0  0  0  0  0  0
    6.8700   -4.1640   21.5270 N   0  0  0  0  0  0  0  0  0  0  0  0
    7.7380   -3.1500   22.0760 C   0  0  0  0  0  0  0  0  0  0  0  0
    7.3620   -2.9340   23.4960 C   0  0  0  0  0  0  0  0  0  0  0  0
    6.0010   -3.5770   23.6390 C   0  0  0  0  0  0  0  0  0  0  0  0
    5.4380   -3.2620   24.9540 C   0  0  0  0  0  0  0  0  0  0  0  0
    4.4410   -2.5370   25.1230 O   0  0  0  0  0  0  0  0  0  0  0  0
    6.0770   -3.8280   26.0510 N   0  0  0  0  0  0  0  0  0  0  0  0
    6.2230   -3.0280   27.2150 C   0  0  0  0  0  0  0  0  0  0  0  0
    6.5030   -4.0160   28.2950 C   0  0  0  0  0  0  0  0  0  0  0  0
    6.4150   -4.5050   29.5630 O   0  0  0  0  0  0  0  0  0  0  0  0
    5.7940   -3.1440   29.0580 N   0  0  0  0  0  0  0  0  0  0  0  0
    6.3590   -1.9060   29.0550 C   0  0  0  0  0  0  0  0  0  0  0  0
    6.5990   -1.1080   30.1810 C   0  0  0  0  0  0  0  0  0  0  0  0
    6.4960    0.2610   30.0990 C   0  0  0  0  0  0  0  0  0  0  0  0
    7.4450    1.1670   30.7460 C   0  0  0  0  0  0  0  0  0  0  0  0
    7.3510    2.5470   30.6710 C   0  0  0  0  0  0  0  0  0  0  0  0
    6.3020    3.0820   29.9460 C   0  0  0  0  0  0  0  0  0  0  0  0
    5.3590    2.2960   29.3030 C   0  0  0  0  0  0  0  0  0  0  0  0
    5.4640    0.8420   29.3850 C   0  0  0  0  0  0  0  0  0  0  0  0
    6.0190   -5.0830   23.4300 C   0  0  0  0  0  0  0  0  0  0  0  0
    6.6710   -5.3960   22.2400 C   0  0  0  0  0  0  0  0  0  0  0  0
  1  2  1  0
  2  3  2  0
  2  4  1  0
  4  5  1  0
  5  6  1  0
  6  7  1  0
  7  8  1  0
  8  9  2  0
  8 10  1  0
 10 11  1  0
 11 12  1  0
 12 13  2  0
 12 14  1  0
 14 15  1  0
 15 16  1  0
 16 17  1  0
 17 18  2  0
 18 19  1  0
 19 20  2  0
 20 21  1  0
 17 22  1  0
 21 22  2  0
  7 23  1  0
  4 24  1  0
 23 24  1  0
M  END
