piperidine-amides-32823-covalent
     RDKit          3D

 29 31  0  0  0  0  0  0  0  0999 V2000
    7.0690   -3.3230   19.3440 C   0  0  0  0  0  0  0  0  0  0  0  0
    6.3650   -4.1950   20.3230 C   0  0  0  0  0  0  0  0  0  0  0  0
    5.3330   -4.7810   19.9620 O   0  0  0  0  0  0  0  0  0  0  0  0
    6.8950   -4.3960   21.6180 N   0  0  0  0  0  0  0  0  0  0  0  0
    6.5240   -5.5690   22.3610 C   0  0  0  0  0  0  0  0  0  0  0  0
    5.6350   -5.0700   23.5000 C   0  0  0  0  0  0  0  0  0  0  0  0
    6.4580   -4.1040   24.2760 C   0  0  0  0  0  0  0  0  0  0  0  0
    5.7130   -3.4600   25.4050 C   0  0  0  0  0  0  0  0  0  0  0  0
    5.0290   -2.4820   25.1020 O   0  0  0  0  0  0  0  0  0  0  0  0
    5.7460   -3.9470   26.7310 N   0  0  0  0  0  0  0  0  0  0  0  0
    4.5890   -4.1630   27.5510 C   0  0  0  0  0  0  0  0  0  0  0  0
    4.5170   -4.1870   28.9480 C   0  0  0  0  0  0  0  0  0  0  0  0
    5.5860   -4.9990   29.4740 N   0  0  0  0  0  0  0  0  0  0  0  0
    5.4560   -6.2660   30.0610 C   0  0  0  0  0  0  0  0  0  0  0  0
    6.3060   -6.7680   31.0350 O   0  0  0  0  0  0  0  0  0  0  0  0
    4.3720   -6.9980   29.6420 C   0  0  0  0  0  0  0  0  0  0  0  0
    3.3780   -7.2240   30.7240 C   0  0  0  0  0  0  0  0  0  0  0  0
    3.8320   -6.7650   32.1230 C   0  0  0  0  0  0  0  0  0  0  0  0
    5.0160   -7.6200   32.5770 C   0  0  0  0  0  0  0  0  0  0  0  0
    5.6110   -7.4040   33.8040 C   0  0  0  0  0  0  0  0  0  0  0  0
    5.1650   -6.3540   34.7510 C   0  0  0  0  0  0  0  0  0  0  0  0
    5.8210   -6.1940   35.9740 O   0  0  0  0  0  0  0  0  0  0  0  0
    7.2200   -6.4880   36.0750 C   0  0  0  0  0  0  0  0  0  0  0  0
    4.0010   -5.4900   34.3430 C   0  0  0  0  0  0  0  0  0  0  0  0
    3.3020   -5.6890   32.9900 C   0  0  0  0  0  0  0  0  0  0  0  0
    6.7540   -4.8940   28.6780 C   0  0  0  0  0  0  0  0  0  0  0  0
    6.3900   -3.5960   27.9480 C   0  0  0  0  0  0  0  0  0  0  0  0
    6.9710   -2.9370   23.4490 C   0  0  0  0  0  0  0  0  0  0  0  0
    7.5700   -3.3020   22.2540 C   0  0  0  0  0  0  0  0  0  0  0  0
  1  2  1  0
  2  3  2  0
  2  4  1  0
  4  5  1  0
  5  6  1  0
  6  7  1  0
  7  8  1  0
  8  9  2  0
  8 10  1  0
 10 11  1  0
 11 12  1  0
 12 13  1  0
 13 14  1  0
 14 15  2  0
 14 16  1  0
 16 17  1  0
 17 18  1  0
 18 19  2  0
 19 20  1  0
 20 21  2  0
 21 22  1  0
 22 23  1  0
 21 24  1  0
 18 25  1  0
 24 25  2  0
 13 26  1  0
 10 27  1  0
 26 27  1  0
  7 28  1  0
  4 29  1  0
 28 29  1  0
M  END
