piperidine-amides-3249-covalent
     RDKit          3D

 22 23  0  0  0  0  0  0  0  0999 V2000
    7.1290   -3.2580   19.2250 C   0  0  0  0  0  0  0  0  0  0  0  0
    6.3620   -4.0060   20.2140 C   0  0  0  0  0  0  0  0  0  0  0  0
    5.3090   -4.5620   19.8930 O   0  0  0  0  0  0  0  0  0  0  0  0
    6.8500   -4.1430   21.5540 N   0  0  0  0  0  0  0  0  0  0  0  0
    6.4270   -5.2790   22.3160 C   0  0  0  0  0  0  0  0  0  0  0  0
    5.9980   -4.8320   23.6900 C   0  0  0  0  0  0  0  0  0  0  0  0
    6.1390   -3.3110   23.7770 C   0  0  0  0  0  0  0  0  0  0  0  0
    5.5740   -2.8130   25.0650 C   0  0  0  0  0  0  0  0  0  0  0  0
    4.5600   -3.3210   25.5860 O   0  0  0  0  0  0  0  0  0  0  0  0
    6.2060   -1.7100   25.7050 N   0  0  0  0  0  0  0  0  0  0  0  0
    6.1070   -1.6080   27.1380 C   0  0  0  0  0  0  0  0  0  0  0  0
    6.5560   -2.9290   27.5860 C   0  0  0  0  0  0  0  0  0  0  0  0
    5.9320   -3.6350   28.6210 C   0  0  0  0  0  0  0  0  0  0  0  0
    6.8110   -5.1710   28.7770 S   0  0  0  0  0  0  0  0  0  0  0  0
    7.9040   -4.7750   27.5080 C   0  0  0  0  0  0  0  0  0  0  0  0
    8.8760   -5.5860   27.1050 C   0  0  0  0  0  0  0  0  0  0  0  0
    9.7000   -5.7530   28.1430 F   0  0  0  0  0  0  0  0  0  0  0  0
    9.5490   -5.0760   25.9710 F   0  0  0  0  0  0  0  0  0  0  0  0
    8.3510   -6.7210   26.7990 F   0  0  0  0  0  0  0  0  0  0  0  0
    7.6090   -3.5300   26.9930 N   0  0  0  0  0  0  0  0  0  0  0  0
    7.5460   -3.0280   23.4700 C   0  0  0  0  0  0  0  0  0  0  0  0
    7.6380   -3.1030   22.1070 C   0  0  0  0  0  0  0  0  0  0  0  0
  1  2  1  0
  2  3  2  0
  2  4  1  0
  4  5  1  0
  5  6  1  0
  6  7  1  0
  7  8  1  0
  8  9  2  0
  8 10  1  0
 10 11  1  0
 11 12  1  0
 12 13  2  0
 13 14  1  0
 14 15  1  0
 15 16  1  0
 16 17  1  0
 16 18  1  0
 16 19  1  0
 12 20  1  0
 15 20  2  0
  7 21  1  0
  4 22  1  0
 21 22  1  0
M  END
