piperidine-amides-25809-covalent
     RDKit          3D

 23 24  0  0  0  0  0  0  0  0999 V2000
    7.0360   -3.3560   19.3490 C   0  0  0  0  0  0  0  0  0  0  0  0
    6.3960   -4.2340   20.3650 C   0  0  0  0  0  0  0  0  0  0  0  0
    5.4040   -4.8630   19.9890 O   0  0  0  0  0  0  0  0  0  0  0  0
    6.9320   -4.3650   21.6550 N   0  0  0  0  0  0  0  0  0  0  0  0
    6.7700   -5.5950   22.4080 C   0  0  0  0  0  0  0  0  0  0  0  0
    6.1840   -5.3110   23.7660 C   0  0  0  0  0  0  0  0  0  0  0  0
    6.1210   -3.8030   23.9450 C   0  0  0  0  0  0  0  0  0  0  0  0
    5.5220   -3.4550   25.2480 C   0  0  0  0  0  0  0  0  0  0  0  0
    4.6480   -2.5860   25.2620 O   0  0  0  0  0  0  0  0  0  0  0  0
    5.8640   -4.0540   26.4750 N   0  0  0  0  0  0  0  0  0  0  0  0
    4.7800   -4.7250   27.1200 C   0  0  0  0  0  0  0  0  0  0  0  0
    4.6400   -3.9710   28.4100 C   0  0  0  0  0  0  0  0  0  0  0  0
    5.7030   -3.2480   28.8240 C   0  0  0  0  0  0  0  0  0  0  0  0
    5.9380   -2.0790   28.1460 C   0  0  0  0  0  0  0  0  0  0  0  0
    6.3800   -1.0140   29.4260 S   0  0  0  0  0  0  0  0  0  0  0  0
    7.8380   -1.1040   29.7170 O   0  0  0  0  0  0  0  0  0  0  0  0
    5.5160   -1.2190   30.6400 O   0  0  0  0  0  0  0  0  0  0  0  0
    6.0890    0.4730   28.6480 C   0  0  0  0  0  0  0  0  0  0  0  0
    6.5530    1.5030   29.6590 C   0  0  0  0  0  0  0  0  0  0  0  0
    6.8890   -4.0550   28.5780 C   0  0  0  0  0  0  0  0  0  0  0  0
    6.4020   -3.1650   27.4470 C   0  0  0  0  0  0  0  0  0  0  0  0
    7.3600   -3.0920   23.6190 C   0  0  0  0  0  0  0  0  0  0  0  0
    7.7460   -3.2900   22.2010 C   0  0  0  0  0  0  0  0  0  0  0  0
  1  2  1  0
  2  3  2  0
  2  4  1  0
  4  5  1  0
  5  6  1  0
  6  7  1  0
  7  8  1  0
  8  9  2  0
  8 10  1  0
 10 11  1  0
 11 12  1  0
 12 13  1  0
 13 14  1  0
 15 14  1  0
 15 16  2  0
 15 17  2  0
 15 18  1  0
 18 19  1  0
 13 20  1  0
 10 21  1  0
 20 21  1  0
  7 22  1  0
  4 23  1  0
 22 23  1  0
M  END
