piperidine-amides-23607-covalent
     RDKit          3D

 24 25  0  0  0  0  0  0  0  0999 V2000
    7.1280   -3.2700   19.2080 C   0  0  0  0  0  0  0  0  0  0  0  0
    6.3800   -4.0220   20.2320 C   0  0  0  0  0  0  0  0  0  0  0  0
    5.2960   -4.5440   19.8820 O   0  0  0  0  0  0  0  0  0  0  0  0
    6.9010   -4.1920   21.5380 N   0  0  0  0  0  0  0  0  0  0  0  0
    7.6020   -3.0990   22.1070 C   0  0  0  0  0  0  0  0  0  0  0  0
    7.2100   -2.7620   23.4690 C   0  0  0  0  0  0  0  0  0  0  0  0
    6.5710   -3.8540   24.2300 C   0  0  0  0  0  0  0  0  0  0  0  0
    5.8690   -3.3050   25.4410 C   0  0  0  0  0  0  0  0  0  0  0  0
    4.6380   -3.1100   25.3980 O   0  0  0  0  0  0  0  0  0  0  0  0
    6.5830   -3.0030   26.6210 N   0  0  0  0  0  0  0  0  0  0  0  0
    7.2840   -1.8100   26.8960 C   0  0  0  0  0  0  0  0  0  0  0  0
    7.0120   -4.1410   27.4100 C   0  0  2  0  0  0  0  0  0  0  0  0
    7.5130   -5.3840   26.6790 C   0  0  0  0  0  0  0  0  0  0  0  0
    8.8620   -5.4320   26.5710 C   0  0  0  0  0  0  0  0  0  0  0  0
    9.5010   -5.9720   27.6570 N   0  0  0  0  0  0  0  0  0  0  0  0
    9.4710   -4.9460   25.4430 O   0  0  0  0  0  0  0  0  0  0  0  0
    5.8440   -4.7870   28.2620 C   0  0  0  0  0  0  0  0  0  0  0  0
    5.5010   -6.2430   28.0390 C   0  0  0  0  0  0  0  0  0  0  0  0
    4.3400   -6.6080   28.9890 C   0  0  0  0  0  0  0  0  0  0  0  0
    3.5930   -5.7680   29.9980 C   0  0  0  0  0  0  0  0  0  0  0  0
    4.0160   -4.3310   30.1360 C   0  0  0  0  0  0  0  0  0  0  0  0
    5.1590   -3.8700   29.2420 C   0  0  0  0  0  0  0  0  0  0  0  0
    5.6610   -4.6810   23.3690 C   0  0  0  0  0  0  0  0  0  0  0  0
    6.4750   -5.2720   22.4000 C   0  0  0  0  0  0  0  0  0  0  0  0
  1  2  1  0
  2  3  2  0
  2  4  1  0
  4  5  1  0
  5  6  1  0
  6  7  1  0
  7  8  1  0
  8  9  2  0
  8 10  1  0
 10 11  1  0
 10 12  1  0
 12 13  1  6
 13 14  1  0
 14 15  1  0
 14 16  2  0
 12 17  1  0
 17 18  2  0
 18 19  1  0
 19 20  2  0
 20 21  1  0
 17 22  1  0
 21 22  2  0
  7 23  1  0
  4 24  1  0
 23 24  1  0
M  END
