piperidine-amides-8431-covalent
     RDKit          3D

 24 26  0  0  0  0  0  0  0  0999 V2000
    7.1820   -3.9510   19.6460 C   0  0  0  0  0  0  0  0  0  0  0  0
    5.9710   -3.8900   20.3270 C   0  0  0  0  0  0  0  0  0  0  0  0
    4.9680   -4.0250   19.6200 O   0  0  0  0  0  0  0  0  0  0  0  0
    6.0560   -3.7990   21.7160 N   0  0  0  0  0  0  0  0  0  0  0  0
    5.6510   -5.0140   22.3920 C   0  0  0  0  0  0  0  0  0  0  0  0
    6.0730   -4.9730   23.8220 C   0  0  0  0  0  0  0  0  0  0  0  0
    6.0090   -3.5240   24.2020 C   0  0  0  0  0  0  0  0  0  0  0  0
    6.0220   -3.3620   25.6700 C   0  0  0  0  0  0  0  0  0  0  0  0
    4.9440   -3.0560   26.1820 O   0  0  0  0  0  0  0  0  0  0  0  0
    7.2320   -3.5730   26.3200 N   0  0  0  0  0  0  0  0  0  0  0  0
    7.3020   -3.9000   27.6980 C   0  0  0  0  0  0  0  0  0  0  0  0
    6.8960   -2.8510   28.5320 C   0  0  0  0  0  0  0  0  0  0  0  0
    5.7140   -2.9010   29.2930 C   0  0  0  0  0  0  0  0  0  0  0  0
    5.3240   -1.8460   30.1210 C   0  0  0  0  0  0  0  0  0  0  0  0
    4.0300   -2.1890   30.7990 C   0  0  0  0  0  0  0  0  0  0  0  0
    3.8530   -1.5600   32.0140 C   0  0  0  0  0  0  0  0  0  0  0  0
    2.9650   -1.2050   30.7780 C   0  0  0  0  0  0  0  0  0  0  0  0
    6.1100   -0.7000   30.2160 C   0  0  0  0  0  0  0  0  0  0  0  0
    7.3850   -0.6260   29.4020 C   0  0  0  0  0  0  0  0  0  0  0  0
    7.7040   -1.6940   28.6120 C   0  0  0  0  0  0  0  0  0  0  0  0
    8.7760   -1.5220   27.9800 O   0  0  0  0  0  0  0  0  0  0  0  0
    8.4270   -0.7860   26.8430 C   0  0  0  0  0  0  0  0  0  0  0  0
    7.1420   -2.7680   23.6200 C   0  0  0  0  0  0  0  0  0  0  0  0
    7.2550   -3.1330   22.1840 C   0  0  0  0  0  0  0  0  0  0  0  0
  1  2  1  0
  2  3  2  0
  2  4  1  0
  4  5  1  0
  5  6  1  0
  6  7  1  0
  7  8  1  0
  8  9  2  0
  8 10  1  0
 10 11  1  0
 11 12  1  0
 12 13  2  0
 13 14  1  0
 14 15  1  0
 15 16  1  0
 15 17  1  0
 16 17  1  0
 14 18  2  0
 18 19  1  0
 12 20  1  0
 19 20  2  0
 20 21  1  0
 21 22  1  0
  7 23  1  0
  4 24  1  0
 23 24  1  0
M  END
