piperidine-amides-24679-covalent
     RDKit          3D

 24 26  0  0  0  0  0  0  0  0999 V2000
    7.0910   -3.3630   19.3860 C   0  0  0  0  0  0  0  0  0  0  0  0
    6.3810   -4.2080   20.3560 C   0  0  0  0  0  0  0  0  0  0  0  0
    5.3920   -4.8840   19.9930 O   0  0  0  0  0  0  0  0  0  0  0  0
    6.8410   -4.2900   21.6770 N   0  0  0  0  0  0  0  0  0  0  0  0
    6.5630   -5.4900   22.4530 C   0  0  0  0  0  0  0  0  0  0  0  0
    6.2200   -5.0770   23.9040 C   0  0  0  0  0  0  0  0  0  0  0  0
    6.3490   -3.5670   23.9870 C   0  0  0  0  0  0  0  0  0  0  0  0
    6.1500   -2.9710   25.3270 C   0  0  0  0  0  0  0  0  0  0  0  0
    6.2780   -1.7460   25.4200 O   0  0  0  0  0  0  0  0  0  0  0  0
    5.7660   -3.7090   26.4530 N   0  0  0  0  0  0  0  0  0  0  0  0
    4.3610   -3.6650   26.7330 C   0  0  0  0  0  0  0  0  0  0  0  0
    4.2110   -4.4810   27.9750 C   0  0  2  0  0  0  0  0  0  0  0  0
    3.5670   -3.6500   28.9850 N   0  0  0  0  0  0  0  0  0  0  0  0
    2.5960   -4.1650   29.9390 C   0  0  0  0  0  0  0  0  0  0  0  0
    4.1870   -2.4330   29.3110 C   0  0  0  0  0  0  0  0  0  0  0  0
    5.5280   -4.8130   28.3470 C   0  0  0  0  0  0  0  0  0  0  0  0
    5.6560   -5.0020   29.6780 C   0  0  0  0  0  0  0  0  0  0  0  0
    5.5940   -6.3810   30.2690 C   0  0  0  0  0  0  0  0  0  0  0  0
    6.4810   -7.0610   29.8880 O   0  0  0  0  0  0  0  0  0  0  0  0
    7.0920   -6.3630   28.8370 C   0  0  0  0  0  0  0  0  0  0  0  0
    5.9800   -6.0480   27.9020 C   0  0  0  0  0  0  0  0  0  0  0  0
    6.3320   -3.8760   27.7790 C   0  0  0  0  0  0  0  0  0  0  0  0
    7.6930   -3.1610   23.4950 C   0  0  0  0  0  0  0  0  0  0  0  0
    7.7140   -3.2620   22.1550 C   0  0  0  0  0  0  0  0  0  0  0  0
  1  2  1  0
  2  3  2  0
  2  4  1  0
  4  5  1  0
  5  6  1  0
  6  7  1  0
  7  8  1  0
  8  9  2  0
  8 10  1  0
 10 11  1  0
 11 12  1  0
 12 13  1  1
 13 14  1  0
 13 15  1  0
 12 16  1  0
 16 17  1  0
 17 18  1  0
 18 19  1  0
 19 20  1  0
 16 21  1  0
 20 21  1  0
 10 22  1  0
 16 22  1  0
  7 23  1  0
  4 24  1  0
 23 24  1  0
M  END
