piperidine-amides-9207-covalent
     RDKit          3D

 20 21  0  0  0  0  0  0  0  0999 V2000
    7.1120   -3.3070   19.2900 C   0  0  0  0  0  0  0  0  0  0  0  0
    6.3340   -4.0470   20.2790 C   0  0  0  0  0  0  0  0  0  0  0  0
    5.2940   -4.6100   19.9080 O   0  0  0  0  0  0  0  0  0  0  0  0
    6.7670   -4.1830   21.6130 N   0  0  0  0  0  0  0  0  0  0  0  0
    6.6370   -5.4360   22.3280 C   0  0  0  0  0  0  0  0  0  0  0  0
    6.1100   -5.0830   23.6950 C   0  0  0  0  0  0  0  0  0  0  0  0
    6.0480   -3.5980   23.8800 C   0  0  0  0  0  0  0  0  0  0  0  0
    5.5660   -3.1390   25.2100 C   0  0  0  0  0  0  0  0  0  0  0  0
    4.4610   -2.5300   25.2910 O   0  0  0  0  0  0  0  0  0  0  0  0
    6.2590   -3.3260   26.4270 N   0  0  0  0  0  0  0  0  0  0  0  0
    5.9360   -4.4660   27.3260 C   0  0  0  0  0  0  0  0  0  0  0  0
    4.4790   -4.4560   27.6160 C   0  0  2  0  0  0  0  0  0  0  0  0
    4.0760   -4.6760   29.0160 C   0  0  0  0  0  0  0  0  0  0  0  0
    4.7010   -5.6500   29.4820 O   0  0  0  0  0  0  0  0  0  0  0  0
    4.4610   -6.8580   28.8150 C   0  0  0  0  0  0  0  0  0  0  0  0
    4.5350   -6.7570   27.3040 C   0  0  0  0  0  0  0  0  0  0  0  0
    3.9370   -5.4740   26.9220 N   0  0  0  0  0  0  0  0  0  0  0  0
    2.5210   -5.7360   26.7690 C   0  0  0  0  0  0  0  0  0  0  0  0
    7.3950   -3.0230   23.5210 C   0  0  0  0  0  0  0  0  0  0  0  0
    7.6410   -3.1510   22.1520 C   0  0  0  0  0  0  0  0  0  0  0  0
  1  2  1  0
  2  3  2  0
  2  4  1  0
  4  5  1  0
  5  6  1  0
  6  7  1  0
  7  8  1  0
  8  9  2  0
  8 10  1  0
 10 11  1  0
 12 11  1  1
 12 13  1  0
 13 14  1  0
 14 15  1  0
 15 16  1  0
 12 17  1  0
 16 17  1  0
 17 18  1  0
  7 19  1  0
  4 20  1  0
 19 20  1  0
M  END
