piperidine-amides-504-covalent
     RDKit          3D

 27 29  0  0  0  0  0  0  0  0999 V2000
    7.1750   -3.3020   19.3590 C   0  0  0  0  0  0  0  0  0  0  0  0
    6.4270   -4.0960   20.3060 C   0  0  0  0  0  0  0  0  0  0  0  0
    5.3420   -4.6390   19.9250 O   0  0  0  0  0  0  0  0  0  0  0  0
    6.9000   -4.3170   21.6140 N   0  0  0  0  0  0  0  0  0  0  0  0
    7.7610   -3.2740   22.2120 C   0  0  0  0  0  0  0  0  0  0  0  0
    6.7180   -2.6470   23.1970 C   0  0  0  0  0  0  0  0  0  0  0  0
    6.4080   -3.7650   24.1560 C   0  0  0  0  0  0  0  0  0  0  0  0
    5.7090   -3.1690   25.4530 C   0  0  0  0  0  0  0  0  0  0  0  0
    5.1220   -2.1350   25.1700 O   0  0  0  0  0  0  0  0  0  0  0  0
    5.9120   -3.9130   26.4710 N   0  0  0  0  0  0  0  0  0  0  0  0
    6.0000   -4.6480   27.6230 C   0  0  0  0  0  0  0  0  0  0  0  0
    5.2010   -5.1850   28.5960 C   0  0  0  0  0  0  0  0  0  0  0  0
    5.7820   -6.3500   29.2150 C   0  0  0  0  0  0  0  0  0  0  0  0
    5.2300   -7.2010   30.2870 C   0  0  0  0  0  0  0  0  0  0  0  0
    3.9190   -6.5060   30.5270 C   0  0  0  0  0  0  0  0  0  0  0  0
    3.2540   -7.2250   31.5440 C   0  0  0  0  0  0  0  0  0  0  0  0
    4.0170   -8.0540   32.3940 N   0  0  0  0  0  0  0  0  0  0  0  0
    3.3120   -9.0270   33.2170 C   0  0  0  0  0  0  0  0  0  0  0  0
    2.1250   -9.6040   32.8840 O   0  0  0  0  0  0  0  0  0  0  0  0
    4.1530   -9.2160   34.4540 C   0  0  0  0  0  0  0  0  0  0  0  0
    5.2580   -8.3610   34.2970 N   0  0  0  0  0  0  0  0  0  0  0  0
    5.1890   -7.7040   32.9970 C   0  0  0  0  0  0  0  0  0  0  0  0
    6.0840   -6.9480   32.5500 O   0  0  0  0  0  0  0  0  0  0  0  0
    3.4140   -5.3690   29.8880 C   0  0  0  0  0  0  0  0  0  0  0  0
    3.8630   -4.5260   28.8930 C   0  0  0  0  0  0  0  0  0  0  0  0
    5.7420   -4.9770   23.5080 C   0  0  0  0  0  0  0  0  0  0  0  0
    6.4540   -5.4290   22.4190 C   0  0  0  0  0  0  0  0  0  0  0  0
  1  2  1  0
  2  3  2  0
  2  4  1  0
  4  5  1  0
  5  6  1  0
  6  7  1  0
  7  8  1  0
  8  9  2  0
  8 10  1  0
 10 11  1  0
 11 12  1  0
 12 13  2  0
 13 14  1  0
 14 15  2  0
 15 16  1  0
 16 17  1  0
 17 18  1  0
 18 19  2  0
 18 20  1  0
 20 21  1  0
 17 22  1  0
 21 22  1  0
 22 23  2  0
 15 24  1  0
 12 25  1  0
 24 25  2  0
  7 26  1  0
  4 27  1  0
 26 27  1  0
M  END
