piperidine-amides-2917-covalent
     RDKit          3D

 24 25  0  0  0  0  0  0  0  0999 V2000
    7.0730   -3.3290   19.3340 C   0  0  0  0  0  0  0  0  0  0  0  0
    6.3860   -4.1720   20.3050 C   0  0  0  0  0  0  0  0  0  0  0  0
    5.3820   -4.8050   19.9730 O   0  0  0  0  0  0  0  0  0  0  0  0
    6.9100   -4.3010   21.6370 N   0  0  0  0  0  0  0  0  0  0  0  0
    7.6890   -3.2320   22.2050 C   0  0  0  0  0  0  0  0  0  0  0  0
    6.9760   -2.6450   23.3860 C   0  0  0  0  0  0  0  0  0  0  0  0
    6.5270   -3.7950   24.2650 C   0  0  0  0  0  0  0  0  0  0  0  0
    5.7060   -3.2480   25.3870 C   0  0  0  0  0  0  0  0  0  0  0  0
    4.4730   -3.1030   25.2860 O   0  0  0  0  0  0  0  0  0  0  0  0
    6.3360   -2.8840   26.6120 N   0  0  0  0  0  0  0  0  0  0  0  0
    6.5720   -1.4760   26.8840 C   0  0  0  0  0  0  0  0  0  0  0  0
    7.1090   -1.4260   28.2990 C   0  0  0  0  0  0  0  0  0  0  0  0
    6.5310   -0.6020   29.2400 C   0  0  0  0  0  0  0  0  0  0  0  0
    5.3800    0.1010   28.7570 N   0  0  0  0  0  0  0  0  0  0  0  0
    4.6510    0.8010   29.7740 C   0  0  0  0  0  0  0  0  0  0  0  0
    5.0980    2.0860   30.0120 C   0  0  0  0  0  0  0  0  0  0  0  0
    6.2610    2.5090   29.8760 O   0  0  0  0  0  0  0  0  0  0  0  0
    4.0030    2.9120   30.4630 N   0  0  0  0  0  0  0  0  0  0  0  0
    3.6780    2.4910   31.7690 C   0  0  0  0  0  0  0  0  0  0  0  0
    4.3340    4.2170   30.3800 C   0  0  0  0  0  0  0  0  0  0  0  0
    5.7020    0.5890   27.4480 C   0  0  0  0  0  0  0  0  0  0  0  0
    5.6940   -0.4910   26.5610 C   0  0  0  0  0  0  0  0  0  0  0  0
    5.8480   -4.9000   23.5920 C   0  0  0  0  0  0  0  0  0  0  0  0
    6.5460   -5.3910   22.5010 C   0  0  0  0  0  0  0  0  0  0  0  0
  1  2  1  0
  2  3  2  0
  2  4  1  0
  4  5  1  0
  5  6  1  0
  6  7  1  0
  7  8  1  0
  8  9  2  0
  8 10  1  0
 10 11  1  0
 11 12  1  0
 12 13  1  0
 13 14  1  0
 14 15  1  0
 15 16  1  0
 16 17  2  0
 16 18  1  0
 18 19  1  0
 18 20  1  0
 14 21  1  0
 11 22  1  0
 21 22  1  0
  7 23  1  0
  4 24  1  0
 23 24  1  0
M  END
