piperidine-amides-10093-covalent
     RDKit          3D

 26 27  0  0  0  0  0  0  0  0999 V2000
    7.1330   -3.3060   19.2620 C   0  0  0  0  0  0  0  0  0  0  0  0
    6.3670   -4.0430   20.2670 C   0  0  0  0  0  0  0  0  0  0  0  0
    5.2800   -4.5500   19.8880 O   0  0  0  0  0  0  0  0  0  0  0  0
    6.8820   -4.1990   21.5550 N   0  0  0  0  0  0  0  0  0  0  0  0
    7.7330   -3.1940   22.1580 C   0  0  0  0  0  0  0  0  0  0  0  0
    7.2450   -2.9160   23.5510 C   0  0  0  0  0  0  0  0  0  0  0  0
    5.9440   -3.6180   23.8320 C   0  0  0  0  0  0  0  0  0  0  0  0
    5.5200   -3.3350   25.2120 C   0  0  0  0  0  0  0  0  0  0  0  0
    4.3260   -3.0260   25.4160 O   0  0  0  0  0  0  0  0  0  0  0  0
    6.3950   -3.3920   26.2900 N   0  0  0  0  0  0  0  0  0  0  0  0
    6.0600   -4.1070   27.4940 C   0  0  0  0  0  0  0  0  0  0  0  0
    5.7280   -5.6050   27.3300 C   0  0  0  0  0  0  0  0  0  0  0  0
    5.1150   -6.3190   28.3550 C   0  0  0  0  0  0  0  0  0  0  0  0
    3.8590   -6.9130   28.2580 C   0  0  0  0  0  0  0  0  0  0  0  0
    3.2290   -7.6130   29.2880 C   0  0  0  0  0  0  0  0  0  0  0  0
    3.8010   -7.7860   30.5290 C   0  0  0  0  0  0  0  0  0  0  0  0
    3.1570   -8.4790   31.5610 O   0  0  0  0  0  0  0  0  0  0  0  0
    1.7780   -8.7510   31.4050 C   0  0  0  0  0  0  0  0  0  0  0  0
    5.1810   -7.1600   30.6750 C   0  0  0  0  0  0  0  0  0  0  0  0
    5.9040   -7.2280   31.8380 O   0  0  0  0  0  0  0  0  0  0  0  0
    5.5470   -8.1010   32.9300 C   0  0  0  0  0  0  0  0  0  0  0  0
    5.6950   -6.5020   29.5950 C   0  0  0  0  0  0  0  0  0  0  0  0
    6.9110   -5.9600   29.7730 O   0  0  0  0  0  0  0  0  0  0  0  0
    7.0640   -4.8100   29.0050 C   0  0  0  0  0  0  0  0  0  0  0  0
    6.0220   -5.0880   23.6180 C   0  0  0  0  0  0  0  0  0  0  0  0
    6.6170   -5.4140   22.2700 C   0  0  0  0  0  0  0  0  0  0  0  0
  1  2  1  0
  2  3  2  0
  2  4  1  0
  4  5  1  0
  5  6  1  0
  6  7  1  0
  7  8  1  0
  8  9  2  0
  8 10  1  0
 10 11  1  0
 11 12  1  0
 12 13  1  0
 13 14  2  0
 14 15  1  0
 15 16  2  0
 16 17  1  0
 17 18  1  0
 16 19  1  0
 19 20  1  0
 20 21  1  0
 13 22  1  0
 19 22  2  0
 22 23  1  0
 23 24  1  0
  7 25  1  0
  4 26  1  0
 25 26  1  0
M  END
