piperidine-amides-2310-covalent
     RDKit          3D

 28 30  0  0  0  0  0  0  0  0999 V2000
    7.0230   -3.2980   19.2630 C   0  0  0  0  0  0  0  0  0  0  0  0
    6.3720   -4.1600   20.2850 C   0  0  0  0  0  0  0  0  0  0  0  0
    5.3380   -4.7280   19.9450 O   0  0  0  0  0  0  0  0  0  0  0  0
    6.9460   -4.3520   21.5470 N   0  0  0  0  0  0  0  0  0  0  0  0
    6.6330   -5.4880   22.3630 C   0  0  0  0  0  0  0  0  0  0  0  0
    5.7720   -5.0540   23.5210 C   0  0  0  0  0  0  0  0  0  0  0  0
    6.3530   -3.8100   24.2120 C   0  0  0  0  0  0  0  0  0  0  0  0
    5.3780   -3.4190   25.2530 C   0  0  0  0  0  0  0  0  0  0  0  0
    4.5730   -4.2510   25.6770 O   0  0  0  0  0  0  0  0  0  0  0  0
    5.3270   -2.1130   25.7660 N   0  0  0  0  0  0  0  0  0  0  0  0
    6.2030   -1.7620   26.8430 C   0  0  0  0  0  0  0  0  0  0  0  0
    6.8240   -0.4350   26.4400 C   0  0  0  0  0  0  0  0  0  0  0  0
    6.5150    0.8690   26.7710 C   0  0  0  0  0  0  0  0  0  0  0  0
    7.2360    1.9310   26.2660 C   0  0  0  0  0  0  0  0  0  0  0  0
    8.3540    1.7230   25.3620 N   0  0  0  0  0  0  0  0  0  0  0  0
    8.7130    0.3900   24.9950 C   0  0  0  0  0  0  0  0  0  0  0  0
    9.7320    0.0740   24.1710 O   0  0  0  0  0  0  0  0  0  0  0  0
   10.1910   -1.1510   24.4980 C   0  0  0  0  0  0  0  0  0  0  0  0
    9.0890   -2.1750   24.5680 C   0  0  0  0  0  0  0  0  0  0  0  0
    9.5130   -3.5860   24.9640 C   0  0  0  0  0  0  0  0  0  0  0  0
   10.9420   -3.9230   25.2590 C   0  0  0  0  0  0  0  0  0  0  0  0
   12.0460   -2.9310   25.1810 C   0  0  0  0  0  0  0  0  0  0  0  0
   13.5310   -3.0430   25.4220 C   0  0  0  0  0  0  0  0  0  0  0  0
   11.6000   -1.5720   24.7980 C   0  0  0  0  0  0  0  0  0  0  0  0
   12.7350   -0.5980   24.7370 C   0  0  0  0  0  0  0  0  0  0  0  0
    7.9580   -0.5850   25.5330 C   0  0  0  0  0  0  0  0  0  0  0  0
    6.6140   -2.7450   23.1880 C   0  0  0  0  0  0  0  0  0  0  0  0
    7.6760   -3.2780   22.2230 C   0  0  0  0  0  0  0  0  0  0  0  0
  1  2  1  0
  2  3  2  0
  2  4  1  0
  4  5  1  0
  5  6  1  0
  6  7  1  0
  7  8  1  0
  8  9  2  0
  8 10  1  0
 10 11  1  0
 11 12  1  0
 12 13  2  0
 13 14  1  0
 14 15  2  0
 15 16  1  0
 16 17  1  0
 17 18  1  0
 18 19  2  0
 19 20  1  0
 20 21  2  0
 21 22  1  0
 22 23  1  0
 18 24  1  0
 22 24  2  0
 24 25  1  0
 12 26  1  0
 16 26  2  0
  7 27  1  0
  4 28  1  0
 27 28  1  0
M  END
