piperidine-amides-23755-covalent
     RDKit          3D

 24 26  0  0  0  0  0  0  0  0999 V2000
    7.1290   -3.3910   19.3420 C   0  0  0  0  0  0  0  0  0  0  0  0
    6.4380   -4.2210   20.3320 C   0  0  0  0  0  0  0  0  0  0  0  0
    5.3500   -4.7310   19.9630 O   0  0  0  0  0  0  0  0  0  0  0  0
    7.0230   -4.4980   21.5950 N   0  0  0  0  0  0  0  0  0  0  0  0
    6.4860   -5.5380   22.3810 C   0  0  0  0  0  0  0  0  0  0  0  0
    5.9840   -5.0950   23.6850 C   0  0  0  0  0  0  0  0  0  0  0  0
    6.5000   -3.8120   24.2360 C   0  0  0  0  0  0  0  0  0  0  0  0
    5.5350   -3.2280   25.2210 C   0  0  0  0  0  0  0  0  0  0  0  0
    4.7090   -2.3930   24.8230 O   0  0  0  0  0  0  0  0  0  0  0  0
    5.4880   -3.5930   26.5740 N   0  0  0  0  0  0  0  0  0  0  0  0
    4.4150   -4.1800   27.2190 C   0  0  0  0  0  0  0  0  0  0  0  0
    4.6980   -5.1400   28.2600 C   0  0  0  0  0  0  0  0  0  0  0  0
    5.5160   -4.4430   29.3380 C   0  0  0  0  0  0  0  0  0  0  0  0
    5.6240   -5.4640   30.2520 O   0  0  0  0  0  0  0  0  0  0  0  0
    5.0170   -3.2540   29.8570 C   0  0  0  0  0  0  0  0  0  0  0  0
    3.6550   -3.5870   30.3520 C   0  0  0  0  0  0  0  0  0  0  0  0
    2.9510   -2.4890   30.9430 N   0  0  0  0  0  0  0  0  0  0  0  0
    3.6580   -1.1470   30.9950 C   0  0  0  0  0  0  0  0  0  0  0  0
    5.1060   -1.0810   30.3920 C   0  0  0  0  0  0  0  0  0  0  0  0
    5.7180   -2.1620   29.8440 N   0  0  0  0  0  0  0  0  0  0  0  0
    6.6680   -4.3720   28.4110 C   0  0  0  0  0  0  0  0  0  0  0  0
    6.4330   -3.1640   27.4890 C   0  0  0  0  0  0  0  0  0  0  0  0
    6.7900   -2.7470   23.1670 C   0  0  0  0  0  0  0  0  0  0  0  0
    7.7440   -3.3940   22.2440 C   0  0  0  0  0  0  0  0  0  0  0  0
  1  2  1  0
  2  3  2  0
  2  4  1  0
  4  5  1  0
  5  6  1  0
  6  7  1  0
  7  8  1  0
  8  9  2  0
  8 10  1  0
 10 11  1  0
 11 12  1  0
 12 13  1  0
 13 14  1  0
 13 15  1  0
 15 16  2  0
 16 17  1  0
 17 18  2  0
 18 19  1  0
 15 20  1  0
 19 20  2  0
 13 21  1  0
 10 22  1  0
 21 22  1  0
  7 23  1  0
  4 24  1  0
 23 24  1  0
M  END
