piperidine-amides-25630-covalent
     RDKit          3D

 25 27  0  0  0  0  0  0  0  0999 V2000
    7.0090   -3.3180   19.3460 C   0  0  0  0  0  0  0  0  0  0  0  0
    6.3620   -4.2080   20.3460 C   0  0  0  0  0  0  0  0  0  0  0  0
    5.3730   -4.8370   19.9750 O   0  0  0  0  0  0  0  0  0  0  0  0
    6.8970   -4.3460   21.6340 N   0  0  0  0  0  0  0  0  0  0  0  0
    6.6920   -5.5370   22.4130 C   0  0  0  0  0  0  0  0  0  0  0  0
    6.1250   -5.1650   23.7570 C   0  0  0  0  0  0  0  0  0  0  0  0
    5.9310   -3.6450   23.8360 C   0  0  0  0  0  0  0  0  0  0  0  0
    5.2880   -3.2770   25.1190 C   0  0  0  0  0  0  0  0  0  0  0  0
    4.0850   -3.0100   25.1330 O   0  0  0  0  0  0  0  0  0  0  0  0
    5.9910   -3.2300   26.3250 N   0  0  0  0  0  0  0  0  0  0  0  0
    5.1930   -3.2650   27.5290 C   0  0  0  0  0  0  0  0  0  0  0  0
    5.7530   -4.4210   28.2210 C   0  0  0  0  0  0  0  0  0  0  0  0
    6.9770   -4.7410   27.8010 C   0  0  0  0  0  0  0  0  0  0  0  0
    8.0290   -5.6440   28.3290 C   0  0  0  0  0  0  0  0  0  0  0  0
    9.2530   -5.7200   27.5630 C   0  0  0  0  0  0  0  0  0  0  0  0
    9.0340   -4.8840   26.5010 C   0  0  0  0  0  0  0  0  0  0  0  0
    9.9780   -4.6140   25.3660 C   0  0  0  0  0  0  0  0  0  0  0  0
   10.8810   -3.4460   25.6430 C   0  0  0  0  0  0  0  0  0  0  0  0
   10.2540   -2.2290   25.4930 O   0  0  0  0  0  0  0  0  0  0  0  0
   12.2140   -3.7280   25.9600 O   0  0  0  0  0  0  0  0  0  0  0  0
   13.3350   -3.0330   25.4660 C   0  0  0  0  0  0  0  0  0  0  0  0
    7.8860   -4.8290   27.2950 C   0  0  0  0  0  0  0  0  0  0  0  0
    7.2950   -3.9520   26.4530 C   0  0  0  0  0  0  0  0  0  0  0  0
    7.2560   -2.9550   23.6200 C   0  0  0  0  0  0  0  0  0  0  0  0
    7.7150   -3.2990   22.2280 C   0  0  0  0  0  0  0  0  0  0  0  0
  1  2  1  0
  2  3  2  0
  2  4  1  0
  4  5  1  0
  5  6  1  0
  6  7  1  0
  7  8  1  0
  8  9  2  0
  8 10  1  0
 10 11  1  0
 11 12  1  0
 12 13  1  0
 13 14  1  0
 14 15  2  0
 15 16  1  0
 16 17  1  0
 17 18  1  0
 18 19  2  0
 18 20  1  0
 20 21  1  0
 16 22  2  0
 10 23  1  0
 13 23  2  0
 22 23  1  0
  7 24  1  0
  4 25  1  0
 24 25  1  0
M  END
