piperidine-amides-29822-covalent
     RDKit          3D

 25 27  0  0  0  0  0  0  0  0999 V2000
    7.0830   -3.3720   19.3370 C   0  0  0  0  0  0  0  0  0  0  0  0
    6.3570   -4.1720   20.3080 C   0  0  0  0  0  0  0  0  0  0  0  0
    5.3390   -4.7680   19.9650 O   0  0  0  0  0  0  0  0  0  0  0  0
    6.8740   -4.3200   21.6380 N   0  0  0  0  0  0  0  0  0  0  0  0
    6.5870   -5.5070   22.3850 C   0  0  0  0  0  0  0  0  0  0  0  0
    5.8650   -5.1280   23.6450 C   0  0  0  0  0  0  0  0  0  0  0  0
    6.5410   -3.9190   24.2840 C   0  0  0  0  0  0  0  0  0  0  0  0
    5.6200   -3.4300   25.3640 C   0  0  0  0  0  0  0  0  0  0  0  0
    4.3970   -3.3350   25.1360 O   0  0  0  0  0  0  0  0  0  0  0  0
    6.0810   -3.0320   26.6580 N   0  0  0  0  0  0  0  0  0  0  0  0
    5.1230   -2.4860   27.6260 C   0  0  0  0  0  0  0  0  0  0  0  0
    5.2900   -3.3810   28.9290 C   0  0  0  0  0  0  0  0  0  0  0  0
    5.4960   -5.0630   28.3410 S   0  0  0  0  0  0  0  0  0  0  0  0
    5.3130   -4.0900   27.0360 C   0  0  0  0  0  0  0  0  0  0  0  0
    4.0800   -4.8440   26.9220 C   0  0  0  0  0  0  0  0  0  0  0  0
    4.8750   -5.2530   27.8470 C   0  0  0  0  0  0  0  0  0  0  0  0
    5.6200   -5.7900   28.8590 C   0  0  0  0  0  0  0  0  0  0  0  0
    5.4210   -6.8570   29.7480 C   0  0  0  0  0  0  0  0  0  0  0  0
    5.2070   -6.6480   31.0570 F   0  0  0  0  0  0  0  0  0  0  0  0
    6.4260   -7.7630   29.6620 F   0  0  0  0  0  0  0  0  0  0  0  0
    4.2840   -7.5050   29.2370 F   0  0  0  0  0  0  0  0  0  0  0  0
    6.6280   -4.9010   28.6710 C   0  0  0  0  0  0  0  0  0  0  0  0
    6.6040   -3.8010   27.6570 C   0  0  0  0  0  0  0  0  0  0  0  0
    6.9490   -2.8420   23.4020 C   0  0  0  0  0  0  0  0  0  0  0  0
    7.6440   -3.2980   22.2980 C   0  0  0  0  0  0  0  0  0  0  0  0
  1  2  1  0
  2  3  2  0
  2  4  1  0
  4  5  1  0
  5  6  1  0
  6  7  1  0
  7  8  1  0
  8  9  2  0
  8 10  1  0
 10 11  1  0
 11 12  1  0
 12 13  1  0
 13 14  1  0
 14 15  2  0
 15 16  1  0
 16 17  2  0
 17 18  1  0
 18 19  1  0
 18 20  1  0
 18 21  1  0
 17 22  1  0
 10 23  1  0
 14 23  1  0
 22 23  2  0
  7 24  1  0
  4 25  1  0
 24 25  1  0
M  END
