piperidine-amides-29785-covalent
     RDKit          3D

 27 29  0  0  0  0  0  0  0  0999 V2000
    7.1910   -3.0660   18.8570 C   0  0  0  0  0  0  0  0  0  0  0  0
    6.1910   -3.5280   19.8100 C   0  0  0  0  0  0  0  0  0  0  0  0
    5.0970   -3.9470   19.4630 O   0  0  0  0  0  0  0  0  0  0  0  0
    6.4520   -3.5410   21.1880 N   0  0  0  0  0  0  0  0  0  0  0  0
    5.7150   -4.4830   21.9710 C   0  0  0  0  0  0  0  0  0  0  0  0
    4.9310   -3.7700   23.0230 C   0  0  0  0  0  0  0  0  0  0  0  0
    5.9490   -3.0010   23.8420 C   0  0  0  0  0  0  0  0  0  0  0  0
    5.3110   -2.5000   25.0820 C   0  0  0  0  0  0  0  0  0  0  0  0
    4.0770   -2.3580   25.1800 O   0  0  0  0  0  0  0  0  0  0  0  0
    6.1180   -2.2070   26.1990 N   0  0  0  0  0  0  0  0  0  0  0  0
    6.8710   -1.0250   26.1810 C   0  0  0  0  0  0  0  0  0  0  0  0
    5.6430   -2.6330   27.4670 C   0  0  0  0  0  0  0  0  0  0  0  0
    6.0930   -3.8010   27.9030 C   0  0  1  0  0  0  0  0  0  0  0  0
    5.5130   -4.4760   28.9620 C   0  0  0  0  0  0  0  0  0  0  0  0
    6.1650   -5.6230   29.2530 C   0  0  0  0  0  0  0  0  0  0  0  0
    7.3280   -5.8570   28.4480 C   0  0  0  0  0  0  0  0  0  0  0  0
    7.3100   -5.7060   27.0970 C   0  0  0  0  0  0  0  0  0  0  0  0
    6.6570   -4.5590   26.8270 N   0  0  0  0  0  0  0  0  0  0  0  0
    5.6260   -4.7220   25.8420 C   0  0  0  0  0  0  0  0  0  0  0  0
    6.2210   -4.8650   24.5930 C   0  0  0  0  0  0  0  0  0  0  0  0
    5.9150   -5.9820   23.7630 C   0  0  0  0  0  0  0  0  0  0  0  0
    6.3270   -6.4010   22.5150 C   0  0  0  0  0  0  0  0  0  0  0  0
    7.2250   -5.3370   22.2190 C   0  0  0  0  0  0  0  0  0  0  0  0
    7.8380   -4.0250   22.7280 C   0  0  0  0  0  0  0  0  0  0  0  0
    7.1070   -4.0050   24.0500 C   0  0  0  0  0  0  0  0  0  0  0  0
    6.6090   -1.9560   22.9970 C   0  0  0  0  0  0  0  0  0  0  0  0
    7.2900   -2.5090   21.7840 C   0  0  0  0  0  0  0  0  0  0  0  0
  1  2  1  0
  2  3  2  0
  2  4  1  0
  4  5  1  0
  5  6  1  0
  6  7  1  0
  7  8  1  0
  8  9  2  0
  8 10  1  0
 10 11  1  0
 10 12  1  0
 13 12  1  6
 13 14  1  0
 14 15  1  0
 15 16  1  0
 16 17  1  0
 13 18  1  0
 17 18  1  0
 18 19  1  0
 19 20  1  0
 20 21  2  0
 21 22  1  0
 22 23  2  0
 23 24  1  0
 20 25  1  0
 24 25  2  0
  7 26  1  0
  4 27  1  0
 26 27  1  0
M  END
