piperidine-amides-35607-covalent
     RDKit          3D

 38 40  0  0  0  0  0  0  0  0999 V2000
    7.1910   -4.0370   19.7110 C   0  0  0  0  0  0  0  0  0  0  0  0
    5.9640   -4.0730   20.4150 C   0  0  0  0  0  0  0  0  0  0  0  0
    4.9830   -4.2000   19.7150 O   0  0  0  0  0  0  0  0  0  0  0  0
    6.0340   -4.0570   21.7830 N   0  0  0  0  0  0  0  0  0  0  0  0
    7.0020   -3.1890   22.3650 C   0  0  0  0  0  0  0  0  0  0  0  0
    6.3970   -2.6100   23.6030 C   0  0  0  0  0  0  0  0  0  0  0  0
    5.4670   -3.6370   24.2390 C   0  0  0  0  0  0  0  0  0  0  0  0
    5.3650   -3.3300   25.6810 C   0  0  0  0  0  0  0  0  0  0  0  0
    4.2390   -3.3510   26.1910 O   0  0  0  0  0  0  0  0  0  0  0  0
    6.4800   -2.9980   26.4820 N   0  0  0  0  0  0  0  0  0  0  0  0
    7.6660   -3.7970   26.4130 C   0  0  0  0  0  0  0  0  0  0  0  0
    8.6970   -2.8690   25.8210 C   0  0  0  0  0  0  0  0  0  0  0  0
    8.3710   -2.6830   24.3660 N   0  0  0  0  0  0  0  0  0  0  0  0
    8.3740   -1.2370   23.9930 C   0  0  0  0  0  0  0  0  0  0  0  0
    8.0850   -0.0310   24.2550 O   0  0  0  0  0  0  0  0  0  0  0  0
    8.9960   -1.7660   22.9150 N   0  0  0  0  0  0  0  0  0  0  0  0
   10.0650   -2.2620   23.4960 C   0  0  0  0  0  0  0  0  0  0  0  0
    9.9420   -2.8230   24.6970 C   0  0  0  0  0  0  0  0  0  0  0  0
   10.9660   -3.4200   25.5680 C   0  0  0  0  0  0  0  0  0  0  0  0
   12.3040   -3.3210   24.9400 C   0  0  0  0  0  0  0  0  0  0  0  0
   13.5580   -3.7940   25.7620 C   0  0  0  0  0  0  0  0  0  0  0  0
   12.4270   -2.7240   23.5690 C   0  0  0  0  0  0  0  0  0  0  0  0
   13.6620   -2.6780   22.9620 N   0  0  0  0  0  0  0  0  0  0  0  0
   13.3310   -2.5420   21.5290 C   0  0  0  0  0  0  0  0  0  0  0  0
   12.7340   -1.5720   21.0480 O   0  0  0  0  0  0  0  0  0  0  0  0
   13.7450   -3.5690   20.4630 C   0  0  0  0  0  0  0  0  0  0  0  0
   14.2180   -4.7120   21.0290 N   0  0  0  0  0  0  0  0  0  0  0  0
   15.3710   -4.9770   21.2900 C   0  0  0  0  0  0  0  0  0  0  0  0
   14.5100   -5.4460   20.0370 C   0  0  0  0  0  0  0  0  0  0  0  0
   11.3070   -2.2330   22.9410 C   0  0  0  0  0  0  0  0  0  0  0  0
    6.5100   -1.7510   27.2050 C   0  0  0  0  0  0  0  0  0  0  0  0
    7.3700   -1.5120   28.4300 C   0  0  0  0  0  0  0  0  0  0  0  0
    7.3780   -0.2520   29.1460 C   0  0  0  0  0  0  0  0  0  0  0  0
    6.5880    0.6800   28.6680 C   0  0  0  0  0  0  0  0  0  0  0  0
    5.8360    0.4230   27.5650 N   0  0  0  0  0  0  0  0  0  0  0  0
    5.5720   -0.6090   26.6450 C   0  0  0  0  0  0  0  0  0  0  0  0
    5.9860   -5.0260   23.9630 C   0  0  0  0  0  0  0  0  0  0  0  0
    5.8780   -5.3270   22.4780 C   0  0  0  0  0  0  0  0  0  0  0  0
  1  2  1  0
  2  3  2  0
  2  4  1  0
  4  5  1  0
  5  6  1  0
  6  7  1  0
  7  8  1  0
  8  9  2  0
  8 10  1  0
 10 11  1  0
 11 12  1  0
 12 13  1  0
 13 14  1  0
 14 15  2  0
 14 16  1  0
 16 17  1  0
 17 18  2  0
 18 19  1  0
 19 20  2  0
 20 21  1  0
 20 22  1  0
 22 23  1  0
 23 24  1  0
 24 25  2  0
 24 26  1  0
 26 27  1  0
 27 28  1  0
 27 29  1  0
 17 30  1  0
 22 30  2  0
 10 31  1  0
 31 32  2  0
 32 33  1  0
 33 34  2  0
 34 35  1  0
 31 36  1  0
 35 36  2  0
  7 37  1  0
  4 38  1  0
 37 38  1  0
M  END
