piperidine-amides-30898-covalent
     RDKit          3D

 28 31  0  0  0  0  0  0  0  0999 V2000
    7.0180   -3.3620   19.3900 C   0  0  0  0  0  0  0  0  0  0  0  0
    6.3680   -4.2280   20.3800 C   0  0  0  0  0  0  0  0  0  0  0  0
    5.4070   -4.9230   20.0050 O   0  0  0  0  0  0  0  0  0  0  0  0
    6.8280   -4.3320   21.7160 N   0  0  0  0  0  0  0  0  0  0  0  0
    6.7070   -5.5850   22.4510 C   0  0  0  0  0  0  0  0  0  0  0  0
    6.1170   -5.2470   23.8000 C   0  0  0  0  0  0  0  0  0  0  0  0
    6.0460   -3.7660   23.9720 C   0  0  0  0  0  0  0  0  0  0  0  0
    5.3410   -3.2590   25.1910 C   0  0  0  0  0  0  0  0  0  0  0  0
    4.5700   -2.2740   25.0650 O   0  0  0  0  0  0  0  0  0  0  0  0
    5.4190   -3.7660   26.5130 N   0  0  0  0  0  0  0  0  0  0  0  0
    4.1680   -4.0600   27.2090 C   0  0  0  0  0  0  0  0  0  0  0  0
    4.4680   -4.7130   28.5120 C   0  0  0  0  0  0  0  0  0  0  0  0
    5.6210   -4.2280   29.2760 C   0  0  0  0  0  0  0  0  0  0  0  0
    5.9850   -5.2160   29.9360 O   0  0  0  0  0  0  0  0  0  0  0  0
    5.4190   -2.8220   29.8030 C   0  0  0  0  0  0  0  0  0  0  0  0
    6.4930   -1.7980   29.4920 C   0  0  0  0  0  0  0  0  0  0  0  0
    6.2460   -0.4340   30.0390 C   0  0  0  0  0  0  0  0  0  0  0  0
    5.1460   -0.0500   30.7840 C   0  0  0  0  0  0  0  0  0  0  0  0
    4.1350   -0.9720   31.0890 C   0  0  0  0  0  0  0  0  0  0  0  0
    2.8110   -0.7300   31.9210 C   0  0  0  0  0  0  0  0  0  0  0  0
    1.8280   -1.6450   32.2150 N   0  0  0  0  0  0  0  0  0  0  0  0
    2.1550   -2.8910   31.6590 C   0  0  0  0  0  0  0  0  0  0  0  0
    3.4000   -2.9390   30.9280 C   0  0  0  0  0  0  0  0  0  0  0  0
    4.3480   -2.4060   30.5410 C   0  0  0  0  0  0  0  0  0  0  0  0
    6.6950   -4.1190   28.3240 C   0  0  0  0  0  0  0  0  0  0  0  0
    6.3810   -3.2200   27.3150 C   0  0  0  0  0  0  0  0  0  0  0  0
    7.3750   -3.1200   23.7390 C   0  0  0  0  0  0  0  0  0  0  0  0
    7.7060   -3.2920   22.2580 C   0  0  0  0  0  0  0  0  0  0  0  0
  1  2  1  0
  2  3  2  0
  2  4  1  0
  4  5  1  0
  5  6  1  0
  6  7  1  0
  7  8  1  0
  8  9  2  0
  8 10  1  0
 10 11  1  0
 11 12  1  0
 12 13  1  0
 13 14  1  0
 13 15  1  0
 15 16  2  0
 16 17  1  0
 17 18  2  0
 18 19  1  0
 19 20  1  0
 20 21  2  0
 21 22  1  0
 22 23  2  0
 15 24  1  0
 19 24  2  0
 23 24  1  0
 13 25  1  0
 10 26  1  0
 25 26  1  0
  7 27  1  0
  4 28  1  0
 27 28  1  0
M  END
