piperidine-amides-24482-covalent
     RDKit          3D

 24 26  0  0  0  0  0  0  0  0999 V2000
    7.0810   -3.3580   19.3790 C   0  0  0  0  0  0  0  0  0  0  0  0
    6.3870   -4.2080   20.3560 C   0  0  0  0  0  0  0  0  0  0  0  0
    5.3980   -4.8890   19.9950 O   0  0  0  0  0  0  0  0  0  0  0  0
    6.8500   -4.2990   21.6800 N   0  0  0  0  0  0  0  0  0  0  0  0
    6.6770   -5.5490   22.4030 C   0  0  0  0  0  0  0  0  0  0  0  0
    6.2060   -5.2370   23.8400 C   0  0  0  0  0  0  0  0  0  0  0  0
    6.1860   -3.7320   23.9550 C   0  0  0  0  0  0  0  0  0  0  0  0
    5.7100   -3.2590   25.2740 C   0  0  0  0  0  0  0  0  0  0  0  0
    5.0280   -2.2190   25.2800 O   0  0  0  0  0  0  0  0  0  0  0  0
    5.9630   -3.9360   26.4900 N   0  0  0  0  0  0  0  0  0  0  0  0
    4.8870   -4.7750   26.9260 C   0  0  0  0  0  0  0  0  0  0  0  0
    5.3770   -5.7930   27.9320 C   0  0  0  0  0  0  0  0  0  0  0  0
    5.7570   -5.0100   29.0390 N   0  0  0  0  0  0  0  0  0  0  0  0
    4.7190   -4.2920   29.7660 C   0  0  0  0  0  0  0  0  0  0  0  0
    3.7030   -4.8320   30.2940 O   0  0  0  0  0  0  0  0  0  0  0  0
    5.0330   -3.0060   29.7700 N   0  0  0  0  0  0  0  0  0  0  0  0
    4.2950   -2.0780   30.4150 C   0  0  0  0  0  0  0  0  0  0  0  0
    3.4400   -2.5150   31.4230 C   0  0  0  0  0  0  0  0  0  0  0  0
    6.3450   -2.8270   29.2200 C   0  0  0  0  0  0  0  0  0  0  0  0
    7.1900   -1.7480   29.0600 O   0  0  0  0  0  0  0  0  0  0  0  0
    6.7930   -4.2000   28.7770 C   0  0  2  0  0  0  0  0  0  0  0  0
    6.4280   -3.2300   27.6640 C   0  0  0  0  0  0  0  0  0  0  0  0
    7.4590   -3.1010   23.6180 C   0  0  0  0  0  0  0  0  0  0  0  0
    7.7250   -3.2850   22.2030 C   0  0  0  0  0  0  0  0  0  0  0  0
  1  2  1  0
  2  3  2  0
  2  4  1  0
  4  5  1  0
  5  6  1  0
  6  7  1  0
  7  8  1  0
  8  9  2  0
  8 10  1  0
 10 11  1  0
 11 12  1  0
 12 13  1  0
 13 14  1  0
 14 15  2  0
 14 16  1  0
 16 17  1  0
 17 18  1  0
 16 19  1  0
 19 20  2  0
 13 21  1  0
 19 21  1  0
 10 22  1  0
 21 22  1  6
  7 23  1  0
  4 24  1  0
 23 24  1  0
M  END
