piperidine-amides-28913-covalent
     RDKit          3D

 27 30  0  0  0  0  0  0  0  0999 V2000
    7.0430   -3.3630   19.3890 C   0  0  0  0  0  0  0  0  0  0  0  0
    6.4100   -4.2500   20.3590 C   0  0  0  0  0  0  0  0  0  0  0  0
    5.3950   -4.8700   19.9900 O   0  0  0  0  0  0  0  0  0  0  0  0
    6.9700   -4.4370   21.6540 N   0  0  0  0  0  0  0  0  0  0  0  0
    7.6320   -3.3420   22.3060 C   0  0  0  0  0  0  0  0  0  0  0  0
    6.7540   -2.8060   23.4000 C   0  0  0  0  0  0  0  0  0  0  0  0
    6.4490   -3.9380   24.3650 C   0  0  0  0  0  0  0  0  0  0  0  0
    5.6170   -3.4420   25.5340 C   0  0  0  0  0  0  0  0  0  0  0  0
    4.5600   -2.9200   25.1960 O   0  0  0  0  0  0  0  0  0  0  0  0
    6.0290   -3.5760   26.8840 N   0  0  0  0  0  0  0  0  0  0  0  0
    6.3050   -4.8170   27.5170 C   0  0  0  0  0  0  0  0  0  0  0  0
    5.7060   -5.4430   28.6090 C   0  0  0  0  0  0  0  0  0  0  0  0
    6.3100   -6.6390   28.9320 C   0  0  0  0  0  0  0  0  0  0  0  0
    5.9940   -7.5540   29.9370 C   0  0  0  0  0  0  0  0  0  0  0  0
    4.8310   -7.1800   30.7860 C   0  0  0  0  0  0  0  0  0  0  0  0
    4.1320   -5.8580   30.4740 C   0  0  0  0  0  0  0  0  0  0  0  0
    4.6180   -5.0140   29.3670 C   0  0  0  0  0  0  0  0  0  0  0  0
    3.9210   -3.7670   29.1130 N   0  0  0  0  0  0  0  0  0  0  0  0
    2.4940   -3.9270   29.2840 C   0  0  0  0  0  0  0  0  0  0  0  0
    4.5790   -2.4760   29.0910 C   0  0  0  0  0  0  0  0  0  0  0  0
    4.3570   -1.5330   29.8530 N   0  0  0  0  0  0  0  0  0  0  0  0
    5.1830   -1.0900   29.1770 C   0  0  0  0  0  0  0  0  0  0  0  0
    4.5260   -2.3820   29.2070 N   0  0  0  0  0  0  0  0  0  0  0  0
    4.7840   -3.3430   28.3970 C   0  0  0  0  0  0  0  0  0  0  0  0
    5.6710   -2.5830   27.8130 C   0  0  0  0  0  0  0  0  0  0  0  0
    5.7210   -5.0600   23.6000 C   0  0  0  0  0  0  0  0  0  0  0  0
    6.5900   -5.5480   22.4560 C   0  0  0  0  0  0  0  0  0  0  0  0
  1  2  1  0
  2  3  2  0
  2  4  1  0
  4  5  1  0
  5  6  1  0
  6  7  1  0
  7  8  1  0
  8  9  2  0
  8 10  1  0
 10 11  1  0
 11 12  1  0
 12 13  1  0
 13 14  2  0
 14 15  1  0
 15 16  2  0
 12 17  2  0
 16 17  1  0
 17 18  1  0
 18 19  1  0
 18 20  1  0
 20 21  1  0
 21 22  2  0
 22 23  1  0
 23 24  2  0
 10 25  1  0
 20 25  2  0
 24 25  1  0
  7 26  1  0
  4 27  1  0
 26 27  1  0
M  END
