piperidine-amides-1371-covalent
     RDKit          3D

 22 23  0  0  0  0  0  0  0  0999 V2000
    7.1210   -3.2230   19.2050 C   0  0  0  0  0  0  0  0  0  0  0  0
    6.3390   -3.9410   20.2510 C   0  0  0  0  0  0  0  0  0  0  0  0
    5.3250   -4.5770   19.9040 O   0  0  0  0  0  0  0  0  0  0  0  0
    6.7770   -3.9200   21.5940 N   0  0  0  0  0  0  0  0  0  0  0  0
    6.3440   -4.9350   22.5060 C   0  0  0  0  0  0  0  0  0  0  0  0
    5.3470   -4.2530   23.4580 C   0  0  0  0  0  0  0  0  0  0  0  0
    5.8350   -2.8640   23.8120 C   0  0  0  0  0  0  0  0  0  0  0  0
    5.3900   -2.4480   25.2020 C   0  0  0  0  0  0  0  0  0  0  0  0
    4.2460   -2.8260   25.4910 O   0  0  0  0  0  0  0  0  0  0  0  0
    6.1740   -1.7000   26.1400 N   0  0  0  0  0  0  0  0  0  0  0  0
    6.9000   -2.3180   27.1930 C   0  0  0  0  0  0  0  0  0  0  0  0
    7.3660   -3.4840   26.8020 C   0  0  0  0  0  0  0  0  0  0  0  0
    8.3690   -4.2070   27.4320 C   0  0  0  0  0  0  0  0  0  0  0  0
    8.7550   -5.3780   26.8800 C   0  0  0  0  0  0  0  0  0  0  0  0
    8.0780   -5.8130   25.6390 C   0  0  0  0  0  0  0  0  0  0  0  0
    8.2900   -7.0060   24.8040 C   0  0  0  0  0  0  0  0  0  0  0  0
    9.4060   -7.6470   25.3070 N   0  0  0  0  0  0  0  0  0  0  0  0
    7.4450   -7.2970   23.7420 O   0  0  0  0  0  0  0  0  0  0  0  0
    7.1440   -5.0740   25.1440 N   0  0  0  0  0  0  0  0  0  0  0  0
    6.7890   -3.9500   25.6890 C   0  0  0  0  0  0  0  0  0  0  0  0
    7.3500   -2.7370   23.5410 C   0  0  0  0  0  0  0  0  0  0  0  0
    7.4790   -2.7370   22.0530 C   0  0  0  0  0  0  0  0  0  0  0  0
  1  2  1  0
  2  3  2  0
  2  4  1  0
  4  5  1  0
  5  6  1  0
  6  7  1  0
  7  8  1  0
  8  9  2  0
  8 10  1  0
 10 11  1  0
 11 12  1  0
 12 13  2  0
 13 14  1  0
 14 15  2  0
 15 16  1  0
 16 17  1  0
 16 18  2  0
 15 19  1  0
 12 20  1  0
 19 20  2  0
  7 21  1  0
  4 22  1  0
 21 22  1  0
M  END
