piperidine-amides-2721-covalent
     RDKit          3D

 25 27  0  0  0  0  0  0  0  0999 V2000
    7.0690   -3.2870   19.2120 C   0  0  0  0  0  0  0  0  0  0  0  0
    6.3350   -4.0640   20.2080 C   0  0  0  0  0  0  0  0  0  0  0  0
    5.2710   -4.5950   19.8980 O   0  0  0  0  0  0  0  0  0  0  0  0
    6.8680   -4.2710   21.5250 N   0  0  0  0  0  0  0  0  0  0  0  0
    6.4990   -5.4460   22.2550 C   0  0  0  0  0  0  0  0  0  0  0  0
    5.7690   -5.0410   23.5030 C   0  0  0  0  0  0  0  0  0  0  0  0
    6.5330   -3.8930   24.1500 C   0  0  0  0  0  0  0  0  0  0  0  0
    5.7940   -3.4090   25.3530 C   0  0  0  0  0  0  0  0  0  0  0  0
    4.5530   -3.2720   25.3630 O   0  0  0  0  0  0  0  0  0  0  0  0
    6.5320   -3.0840   26.5140 N   0  0  0  0  0  0  0  0  0  0  0  0
    6.2480   -3.7240   27.7860 C   0  0  0  0  0  0  0  0  0  0  0  0
    5.8030   -5.1670   27.5970 C   0  0  0  0  0  0  0  0  0  0  0  0
    5.5140   -5.9110   28.7250 C   0  0  0  0  0  0  0  0  0  0  0  0
    4.6300   -5.4530   29.7190 C   0  0  0  0  0  0  0  0  0  0  0  0
    3.8690   -4.2820   29.5460 N   0  0  0  0  0  0  0  0  0  0  0  0
    3.1230   -4.0690   30.6250 N   0  0  0  0  0  0  0  0  0  0  0  0
    3.3660   -5.0530   31.4930 C   0  0  0  0  0  0  0  0  0  0  0  0
    4.2680   -5.8720   30.9340 N   0  0  0  0  0  0  0  0  0  0  0  0
    4.6680   -7.0160   31.7310 C   0  0  0  0  0  0  0  0  0  0  0  0
    3.4960   -7.7040   31.9710 C   0  0  0  0  0  0  0  0  0  0  0  0
    2.8220   -7.4280   33.1420 C   0  0  0  0  0  0  0  0  0  0  0  0
    1.9910   -6.3150   33.0490 C   0  0  0  0  0  0  0  0  0  0  0  0
    2.7310   -5.0950   32.7160 C   0  0  0  0  0  0  0  0  0  0  0  0
    6.8020   -2.7440   23.1940 C   0  0  0  0  0  0  0  0  0  0  0  0
    7.6260   -3.2520   22.1970 C   0  0  0  0  0  0  0  0  0  0  0  0
  1  2  1  0
  2  3  2  0
  2  4  1  0
  4  5  1  0
  5  6  1  0
  6  7  1  0
  7  8  1  0
  8  9  2  0
  8 10  1  0
 10 11  1  0
 11 12  1  0
 12 13  1  0
 13 14  1  0
 14 15  2  0
 15 16  1  0
 16 17  2  0
 14 18  1  0
 17 18  1  0
 18 19  1  0
 19 20  1  0
 20 21  1  0
 21 22  1  0
 17 23  1  0
 22 23  1  0
  7 24  1  0
  4 25  1  0
 24 25  1  0
M  END
