piperidine-amides-14566-covalent
     RDKit          3D

 23 24  0  0  0  0  0  0  0  0999 V2000
    7.0870   -3.2960   19.2920 C   0  0  0  0  0  0  0  0  0  0  0  0
    6.3280   -4.0360   20.2970 C   0  0  0  0  0  0  0  0  0  0  0  0
    5.3180   -4.6580   19.9240 O   0  0  0  0  0  0  0  0  0  0  0  0
    6.7610   -4.0750   21.6460 N   0  0  0  0  0  0  0  0  0  0  0  0
    7.6940   -3.0940   22.1390 C   0  0  0  0  0  0  0  0  0  0  0  0
    7.4470   -2.8790   23.6000 C   0  0  0  0  0  0  0  0  0  0  0  0
    6.1000   -3.5060   23.8390 C   0  0  0  0  0  0  0  0  0  0  0  0
    5.5720   -3.2040   25.2150 C   0  0  0  0  0  0  0  0  0  0  0  0
    4.3580   -3.0250   25.2920 O   0  0  0  0  0  0  0  0  0  0  0  0
    6.4550   -3.1370   26.2860 N   0  0  0  0  0  0  0  0  0  0  0  0
    6.0810   -3.5180   27.6140 C   0  0  0  0  0  0  0  0  0  0  0  0
    5.4260   -4.7560   27.7380 C   0  0  0  0  0  0  0  0  0  0  0  0
    5.6940   -5.7510   26.6790 N   0  0  0  0  0  0  0  0  0  0  0  0
    4.9780   -6.8620   26.9870 N   0  0  0  0  0  0  0  0  0  0  0  0
    4.3340   -6.5770   28.1230 N   0  0  0  0  0  0  0  0  0  0  0  0
    3.4320   -7.4520   28.8750 C   0  0  0  0  0  0  0  0  0  0  0  0
    4.5130   -5.2980   28.7060 C   0  0  0  0  0  0  0  0  0  0  0  0
    3.8800   -4.7800   29.9660 C   0  0  0  0  0  0  0  0  0  0  0  0
    4.1330   -5.5700   31.0400 F   0  0  0  0  0  0  0  0  0  0  0  0
    4.3460   -3.4890   30.1730 F   0  0  0  0  0  0  0  0  0  0  0  0
    2.5210   -4.6970   29.6700 F   0  0  0  0  0  0  0  0  0  0  0  0
    6.0980   -4.9990   23.6970 C   0  0  0  0  0  0  0  0  0  0  0  0
    6.5550   -5.3620   22.3290 C   0  0  0  0  0  0  0  0  0  0  0  0
  1  2  1  0
  2  3  2  0
  2  4  1  0
  4  5  1  0
  5  6  1  0
  6  7  1  0
  7  8  1  0
  8  9  2  0
  8 10  1  0
 10 11  1  0
 11 12  1  0
 12 13  1  0
 13 14  2  0
 14 15  1  0
 15 16  1  0
 12 17  2  0
 15 17  1  0
 17 18  1  0
 18 19  1  0
 18 20  1  0
 18 21  1  0
  7 22  1  0
  4 23  1  0
 22 23  1  0
M  END
