piperidine-amides-3417-covalent
     RDKit          3D

 21 21  0  0  0  0  0  0  0  0999 V2000
    7.1220   -3.2680   19.2390 C   0  0  0  0  0  0  0  0  0  0  0  0
    6.3630   -4.0430   20.2140 C   0  0  0  0  0  0  0  0  0  0  0  0
    5.3010   -4.5730   19.8910 O   0  0  0  0  0  0  0  0  0  0  0  0
    6.8760   -4.2380   21.5400 N   0  0  0  0  0  0  0  0  0  0  0  0
    7.6750   -3.2120   22.1590 C   0  0  0  0  0  0  0  0  0  0  0  0
    7.0090   -2.6880   23.4020 C   0  0  0  0  0  0  0  0  0  0  0  0
    6.6090   -3.8520   24.3040 C   0  0  0  0  0  0  0  0  0  0  0  0
    5.7590   -3.3220   25.4050 C   0  0  0  0  0  0  0  0  0  0  0  0
    4.6610   -2.7720   25.1930 O   0  0  0  0  0  0  0  0  0  0  0  0
    6.2170   -3.4570   26.7400 N   0  0  0  0  0  0  0  0  0  0  0  0
    6.6310   -4.7640   27.1810 C   0  0  1  0  0  0  0  0  0  0  0  0
    7.7240   -4.6400   28.1720 C   0  0  0  0  0  0  0  0  0  0  0  0
    8.7790   -5.4020   27.8690 C   0  0  0  0  0  0  0  0  0  0  0  0
    9.2830   -5.0900   26.8060 O   0  0  0  0  0  0  0  0  0  0  0  0
    9.6020   -6.0880   25.9600 C   0  0  0  0  0  0  0  0  0  0  0  0
    5.5000   -5.5170   27.7470 C   0  0  0  0  0  0  0  0  0  0  0  0
    5.7880   -6.5290   28.7600 C   0  0  0  0  0  0  0  0  0  0  0  0
    4.9290   -6.3430   26.8150 C   0  0  0  0  0  0  0  0  0  0  0  0
    4.5730   -4.5580   28.0930 C   0  0  0  0  0  0  0  0  0  0  0  0
    5.9830   -5.0300   23.6370 C   0  0  0  0  0  0  0  0  0  0  0  0
    6.4260   -5.3510   22.2810 C   0  0  0  0  0  0  0  0  0  0  0  0
  1  2  1  0
  2  3  2  0
  2  4  1  0
  4  5  1  0
  5  6  1  0
  6  7  1  0
  7  8  1  0
  8  9  2  0
  8 10  1  0
 10 11  1  0
 11 12  1  1
 12 13  1  0
 13 14  1  0
 14 15  1  0
 11 16  1  0
 16 17  1  0
 16 18  1  0
 16 19  1  0
  7 20  1  0
  4 21  1  0
 20 21  1  0
M  END
