piperidine-amides-25801-covalent
     RDKit          3D

 25 27  0  0  0  0  0  0  0  0999 V2000
    7.0330   -3.3250   19.3770 C   0  0  0  0  0  0  0  0  0  0  0  0
    6.3830   -4.1920   20.3940 C   0  0  0  0  0  0  0  0  0  0  0  0
    5.4350   -4.8750   19.9990 O   0  0  0  0  0  0  0  0  0  0  0  0
    6.8650   -4.2490   21.7170 N   0  0  0  0  0  0  0  0  0  0  0  0
    6.7510   -5.4640   22.4860 C   0  0  0  0  0  0  0  0  0  0  0  0
    6.1200   -5.1500   23.8100 C   0  0  0  0  0  0  0  0  0  0  0  0
    6.1050   -3.6320   24.0000 C   0  0  0  0  0  0  0  0  0  0  0  0
    5.5780   -3.2340   25.3500 C   0  0  0  0  0  0  0  0  0  0  0  0
    4.3520   -3.0670   25.4230 O   0  0  0  0  0  0  0  0  0  0  0  0
    6.3240   -3.0050   26.5470 N   0  0  0  0  0  0  0  0  0  0  0  0
    6.2340   -3.9810   27.6360 C   0  0  0  0  0  0  0  0  0  0  0  0
    5.3950   -5.2130   27.3320 C   0  0  0  0  0  0  0  0  0  0  0  0
    4.9700   -5.4220   26.0380 C   0  0  0  0  0  0  0  0  0  0  0  0
    4.2360   -6.4400   25.6500 C   0  0  0  0  0  0  0  0  0  0  0  0
    3.9120   -7.2830   26.5860 C   0  0  0  0  0  0  0  0  0  0  0  0
    4.2980   -7.1960   28.0260 C   0  0  0  0  0  0  0  0  0  0  0  0
    5.1500   -6.0480   28.5760 C   0  0  0  0  0  0  0  0  0  0  0  0
    5.4710   -6.0100   29.8980 O   0  0  0  0  0  0  0  0  0  0  0  0
    6.0140   -1.7310   27.1740 C   0  0  0  0  0  0  0  0  0  0  0  0
    5.9030   -0.4470   26.4010 C   0  0  0  0  0  0  0  0  0  0  0  0
    5.9650    0.6160   27.4290 C   0  0  0  0  0  0  0  0  0  0  0  0
    6.4690   -0.0330   28.6870 C   0  0  0  0  0  0  0  0  0  0  0  0
    6.9410   -1.3960   28.3320 C   0  0  0  0  0  0  0  0  0  0  0  0
    7.4660   -3.0480   23.6590 C   0  0  0  0  0  0  0  0  0  0  0  0
    7.6800   -3.1670   22.2870 C   0  0  0  0  0  0  0  0  0  0  0  0
  1  2  1  0
  2  3  2  0
  2  4  1  0
  4  5  1  0
  5  6  1  0
  6  7  1  0
  7  8  1  0
  8  9  2  0
  8 10  1  0
 10 11  1  0
 11 12  1  0
 12 13  2  0
 13 14  1  0
 14 15  2  0
 15 16  1  0
 12 17  1  0
 16 17  2  0
 17 18  1  0
 10 19  1  0
 19 20  1  0
 20 21  1  0
 21 22  1  0
 19 23  1  0
 22 23  1  0
  7 24  1  0
  4 25  1  0
 24 25  1  0
M  END
