piperidine-amides-26055-covalent
     RDKit          3D

 25 27  0  0  0  0  0  0  0  0999 V2000
    7.1110   -3.3410   19.3000 C   0  0  0  0  0  0  0  0  0  0  0  0
    6.4140   -4.1760   20.2720 C   0  0  0  0  0  0  0  0  0  0  0  0
    5.3430   -4.7230   19.9480 O   0  0  0  0  0  0  0  0  0  0  0  0
    6.9550   -4.4290   21.5410 N   0  0  0  0  0  0  0  0  0  0  0  0
    6.5820   -5.5940   22.2900 C   0  0  0  0  0  0  0  0  0  0  0  0
    5.7450   -5.0390   23.4070 C   0  0  0  0  0  0  0  0  0  0  0  0
    6.4850   -4.0210   24.2260 C   0  0  0  0  0  0  0  0  0  0  0  0
    5.6750   -3.5900   25.3870 C   0  0  0  0  0  0  0  0  0  0  0  0
    4.5690   -3.0050   25.1880 O   0  0  0  0  0  0  0  0  0  0  0  0
    6.0280   -3.7820   26.7350 N   0  0  0  0  0  0  0  0  0  0  0  0
    6.4410   -2.6010   27.4760 C   0  0  0  0  0  0  0  0  0  0  0  0
    6.7950   -3.0880   28.8110 C   0  0  0  0  0  0  0  0  0  0  0  0
    5.9370   -3.7650   29.3950 O   0  0  0  0  0  0  0  0  0  0  0  0
    5.7480   -4.9570   28.8310 C   0  0  1  0  0  0  0  0  0  0  0  0
    5.0410   -6.0960   29.5340 C   0  0  0  0  0  0  0  0  0  0  0  0
    5.7240   -6.3770   30.6860 O   0  0  0  0  0  0  0  0  0  0  0  0
    5.0390   -6.8050   31.8580 C   0  0  0  0  0  0  0  0  0  0  0  0
    3.8450   -6.0150   32.3560 C   0  0  0  0  0  0  0  0  0  0  0  0
    3.1430   -6.3740   33.4780 C   0  0  0  0  0  0  0  0  0  0  0  0
    3.3970   -7.4520   34.2870 C   0  0  0  0  0  0  0  0  0  0  0  0
    4.5340   -8.3400   33.9510 C   0  0  0  0  0  0  0  0  0  0  0  0
    5.3860   -8.0340   32.7210 C   0  0  0  0  0  0  0  0  0  0  0  0
    5.2360   -4.7830   27.4440 C   0  0  0  0  0  0  0  0  0  0  0  0
    6.9170   -2.8570   23.3920 C   0  0  0  0  0  0  0  0  0  0  0  0
    7.6170   -3.3360   22.1840 C   0  0  0  0  0  0  0  0  0  0  0  0
  1  2  1  0
  2  3  2  0
  2  4  1  0
  4  5  1  0
  5  6  1  0
  6  7  1  0
  7  8  1  0
  8  9  2  0
  8 10  1  0
 10 11  1  0
 11 12  1  0
 12 13  1  0
 13 14  1  0
 14 15  1  1
 15 16  1  0
 16 17  1  0
 17 18  2  0
 18 19  1  0
 19 20  2  0
 20 21  1  0
 17 22  1  0
 21 22  2  0
 10 23  1  0
 14 23  1  0
  7 24  1  0
  4 25  1  0
 24 25  1  0
M  END
