piperidine-amides-13792-covalent
     RDKit          3D

 26 27  0  0  0  0  0  0  0  0999 V2000
    7.0670   -3.2690   19.2310 C   0  0  0  0  0  0  0  0  0  0  0  0
    6.2880   -4.0710   20.2220 C   0  0  0  0  0  0  0  0  0  0  0  0
    5.2200   -4.5880   19.8740 O   0  0  0  0  0  0  0  0  0  0  0  0
    6.7990   -4.2580   21.5130 N   0  0  0  0  0  0  0  0  0  0  0  0
    7.5890   -3.2410   22.1530 C   0  0  0  0  0  0  0  0  0  0  0  0
    7.0660   -3.0990   23.5750 C   0  0  0  0  0  0  0  0  0  0  0  0
    5.7590   -3.8200   23.6390 C   0  0  0  0  0  0  0  0  0  0  0  0
    5.0010   -3.6270   24.9050 C   0  0  0  0  0  0  0  0  0  0  0  0
    3.7740   -3.6460   24.8110 O   0  0  0  0  0  0  0  0  0  0  0  0
    5.6280   -3.4140   26.1220 N   0  0  0  0  0  0  0  0  0  0  0  0
    6.0860   -2.1610   26.5290 C   0  0  0  0  0  0  0  0  0  0  0  0
    6.8510   -1.4180   25.6840 C   0  0  0  0  0  0  0  0  0  0  0  0
    8.1310   -1.8650   25.4930 C   0  0  0  0  0  0  0  0  0  0  0  0
    9.1680   -1.2480   24.8640 C   0  0  0  0  0  0  0  0  0  0  0  0
   10.4800   -1.9110   24.8260 C   0  0  0  0  0  0  0  0  0  0  0  0
   10.6660   -3.2790   25.4890 C   0  0  0  0  0  0  0  0  0  0  0  0
   11.9140   -3.8620   25.4630 O   0  0  0  0  0  0  0  0  0  0  0  0
   13.0980   -3.0900   25.2570 C   0  0  0  0  0  0  0  0  0  0  0  0
    9.5170   -3.8680   26.1130 C   0  0  0  0  0  0  0  0  0  0  0  0
    9.4550   -5.3640   26.9120 S   0  0  0  0  0  0  0  0  0  0  0  0
    7.8170   -5.7800   27.2370 N   0  0  0  0  0  0  0  0  0  0  0  0
    9.9850   -6.4070   26.0320 O   0  0  0  0  0  0  0  0  0  0  0  0
   10.2180   -5.2550   28.1730 O   0  0  0  0  0  0  0  0  0  0  0  0
    8.2900   -3.0900   26.0640 C   0  0  0  0  0  0  0  0  0  0  0  0
    5.8370   -5.2800   23.3450 C   0  0  0  0  0  0  0  0  0  0  0  0
    6.5860   -5.4940   22.2130 C   0  0  0  0  0  0  0  0  0  0  0  0
  1  2  1  0
  2  3  2  0
  2  4  1  0
  4  5  1  0
  5  6  1  0
  6  7  1  0
  7  8  1  0
  8  9  2  0
  8 10  1  0
 10 11  1  0
 11 12  1  0
 12 13  1  0
 13 14  2  0
 14 15  1  0
 15 16  2  0
 16 17  1  0
 17 18  1  0
 16 19  1  0
 19 20  1  0
 20 21  1  0
 20 22  2  0
 20 23  2  0
 13 24  1  0
 19 24  2  0
  7 25  1  0
  4 26  1  0
 25 26  1  0
M  END
