piperidine-amides-34268-covalent
     RDKit          3D

 30 32  0  0  0  0  0  0  0  0999 V2000
    7.0600   -3.3330   19.3570 C   0  0  0  0  0  0  0  0  0  0  0  0
    6.3920   -4.1980   20.3460 C   0  0  0  0  0  0  0  0  0  0  0  0
    5.4160   -4.9030   19.9970 O   0  0  0  0  0  0  0  0  0  0  0  0
    6.8650   -4.2680   21.6680 N   0  0  0  0  0  0  0  0  0  0  0  0
    6.7090   -5.5230   22.3990 C   0  0  0  0  0  0  0  0  0  0  0  0
    6.1590   -5.2050   23.8030 C   0  0  0  0  0  0  0  0  0  0  0  0
    6.1910   -3.7070   23.9210 C   0  0  0  0  0  0  0  0  0  0  0  0
    5.6620   -3.1700   25.1930 C   0  0  0  0  0  0  0  0  0  0  0  0
    5.1080   -2.0610   25.1500 O   0  0  0  0  0  0  0  0  0  0  0  0
    5.7190   -3.8650   26.4160 N   0  0  0  0  0  0  0  0  0  0  0  0
    6.3880   -3.2130   27.4800 C   0  0  0  0  0  0  0  0  0  0  0  0
    6.7780   -4.2900   28.4640 C   0  0  0  0  0  0  0  0  0  0  0  0
    5.9930   -4.4820   29.5110 C   0  0  0  0  0  0  0  0  0  0  0  0
    4.7560   -4.9980   29.2160 N   0  0  0  0  0  0  0  0  0  0  0  0
    4.0990   -5.7380   30.2130 C   0  0  0  0  0  0  0  0  0  0  0  0
    4.3400   -7.0610   30.5450 O   0  0  0  0  0  0  0  0  0  0  0  0
    3.1400   -4.9810   30.9010 C   0  0  0  0  0  0  0  0  0  0  0  0
    3.2700   -3.6520   31.0370 C   0  0  0  0  0  0  0  0  0  0  0  0
    2.3720   -2.6600   31.7270 C   0  0  0  0  0  0  0  0  0  0  0  0
    1.3050   -3.6730   32.1970 C   0  0  0  0  0  0  0  0  0  0  0  0
    0.9540   -5.1630   32.1660 C   0  0  0  0  0  0  0  0  0  0  0  0
    2.0910   -5.6870   31.4110 C   0  0  0  0  0  0  0  0  0  0  0  0
    1.9770   -7.0790   31.2580 C   0  0  0  0  0  0  0  0  0  0  0  0
    0.7610   -7.5520   31.6710 F   0  0  0  0  0  0  0  0  0  0  0  0
    2.2680   -7.6360   30.0450 F   0  0  0  0  0  0  0  0  0  0  0  0
    2.8780   -7.6040   32.1660 F   0  0  0  0  0  0  0  0  0  0  0  0
    4.6400   -5.5460   27.9320 C   0  0  0  0  0  0  0  0  0  0  0  0
    4.5410   -4.4720   26.8850 C   0  0  0  0  0  0  0  0  0  0  0  0
    7.5650   -3.1500   23.6760 C   0  0  0  0  0  0  0  0  0  0  0  0
    7.7320   -3.2110   22.1620 C   0  0  0  0  0  0  0  0  0  0  0  0
  1  2  1  0
  2  3  2  0
  2  4  1  0
  4  5  1  0
  5  6  1  0
  6  7  1  0
  7  8  1  0
  8  9  2  0
  8 10  1  0
 10 11  1  0
 11 12  1  0
 12 13  1  0
 13 14  1  0
 14 15  1  0
 15 16  2  0
 15 17  1  0
 17 18  2  0
 18 19  1  0
 19 20  2  0
 20 21  1  0
 17 22  1  0
 21 22  2  0
 22 23  1  0
 23 24  1  0
 23 25  1  0
 23 26  1  0
 14 27  1  0
 10 28  1  0
 27 28  1  0
  7 29  1  0
  4 30  1  0
 29 30  1  0
M  END
