piperidine-amides-27761-covalent
     RDKit          3D

 24 26  0  0  0  0  0  0  0  0999 V2000
    7.0880   -3.3760   19.3870 C   0  0  0  0  0  0  0  0  0  0  0  0
    6.4070   -4.2270   20.3810 C   0  0  0  0  0  0  0  0  0  0  0  0
    5.3870   -4.8330   19.9840 O   0  0  0  0  0  0  0  0  0  0  0  0
    6.9320   -4.3740   21.6810 N   0  0  0  0  0  0  0  0  0  0  0  0
    6.5220   -5.4560   22.4980 C   0  0  0  0  0  0  0  0  0  0  0  0
    5.9090   -5.0540   23.7800 C   0  0  0  0  0  0  0  0  0  0  0  0
    6.3280   -3.7570   24.3980 C   0  0  0  0  0  0  0  0  0  0  0  0
    5.2320   -3.2130   25.2710 C   0  0  0  0  0  0  0  0  0  0  0  0
    4.1850   -2.8820   24.6950 O   0  0  0  0  0  0  0  0  0  0  0  0
    5.3020   -3.0550   26.6840 N   0  0  0  0  0  0  0  0  0  0  0  0
    6.5440   -3.1360   27.3880 C   0  0  0  0  0  0  0  0  0  0  0  0
    6.5110   -4.3290   28.2850 C   0  0  0  0  0  0  0  0  0  0  0  0
    5.3910   -4.4250   29.1030 N   0  0  0  0  0  0  0  0  0  0  0  0
    4.7230   -5.6960   29.1900 C   0  0  1  0  0  0  0  0  0  0  0  0
    5.7250   -6.6690   29.0420 C   0  0  0  0  0  0  0  0  0  0  0  0
    5.7540   -7.6900   29.9420 C   0  0  0  0  0  0  0  0  0  0  0  0
    4.9110   -7.1040   31.2880 S   0  0  0  0  0  0  0  0  0  0  0  0
    5.8200   -6.6000   32.3620 O   0  0  0  0  0  0  0  0  0  0  0  0
    3.9860   -8.1700   31.7070 O   0  0  0  0  0  0  0  0  0  0  0  0
    4.0710   -5.7480   30.5610 C   0  0  0  0  0  0  0  0  0  0  0  0
    4.5010   -3.3550   28.9000 C   0  0  0  0  0  0  0  0  0  0  0  0
    4.1480   -3.3660   27.5660 C   0  0  0  0  0  0  0  0  0  0  0  0
    6.7810   -2.7470   23.3690 C   0  0  0  0  0  0  0  0  0  0  0  0
    7.6810   -3.3440   22.3580 C   0  0  0  0  0  0  0  0  0  0  0  0
  1  2  1  0
  2  3  2  0
  2  4  1  0
  4  5  1  0
  5  6  1  0
  6  7  1  0
  7  8  1  0
  8  9  2  0
  8 10  1  0
 10 11  1  0
 11 12  1  0
 12 13  1  0
 14 13  1  1
 14 15  1  0
 15 16  1  0
 17 16  1  0
 17 18  2  0
 17 19  2  0
 14 20  1  0
 17 20  1  0
 13 21  1  0
 10 22  1  0
 21 22  1  0
  7 23  1  0
  4 24  1  0
 23 24  1  0
M  END
