piperidine-amides-12713-covalent
     RDKit          3D

 22 23  0  0  0  0  0  0  0  0999 V2000
    7.0980   -3.2870   19.1680 C   0  0  0  0  0  0  0  0  0  0  0  0
    6.3490   -4.0180   20.2130 C   0  0  0  0  0  0  0  0  0  0  0  0
    5.2600   -4.5230   19.8690 O   0  0  0  0  0  0  0  0  0  0  0  0
    6.8760   -4.1800   21.5010 N   0  0  0  0  0  0  0  0  0  0  0  0
    6.4880   -5.2920   22.2960 C   0  0  0  0  0  0  0  0  0  0  0  0
    6.0750   -4.9330   23.6560 C   0  0  0  0  0  0  0  0  0  0  0  0
    6.6620   -3.6760   24.1940 C   0  0  0  0  0  0  0  0  0  0  0  0
    5.8620   -3.2040   25.3530 C   0  0  0  0  0  0  0  0  0  0  0  0
    4.6260   -3.1610   25.2270 O   0  0  0  0  0  0  0  0  0  0  0  0
    6.4730   -2.8020   26.5600 N   0  0  0  0  0  0  0  0  0  0  0  0
    6.1890   -3.4190   27.8860 C   0  0  0  0  0  0  0  0  0  0  0  0
    4.9660   -4.2780   27.9150 C   0  0  0  0  0  0  0  0  0  0  0  0
    4.9700   -5.6950   28.2610 C   0  0  0  0  0  0  0  0  0  0  0  0
    6.0660   -6.2580   28.5630 O   0  0  0  0  0  0  0  0  0  0  0  0
    5.8880   -7.1920   29.5850 C   0  0  0  0  0  0  0  0  0  0  0  0
    3.5490   -6.3100   28.2040 C   0  0  0  0  0  0  0  0  0  0  0  0
    2.4010   -5.6430   27.8870 C   0  0  0  0  0  0  0  0  0  0  0  0
    2.3600   -4.2660   27.5570 N   0  0  0  0  0  0  0  0  0  0  0  0
    3.6360   -3.6310   27.5760 C   0  0  0  0  0  0  0  0  0  0  0  0
    3.8500   -2.2510   27.2850 O   0  0  0  0  0  0  0  0  0  0  0  0
    6.9160   -2.6160   23.1990 C   0  0  0  0  0  0  0  0  0  0  0  0
    7.6310   -3.1180   22.1190 C   0  0  0  0  0  0  0  0  0  0  0  0
  1  2  1  0
  2  3  2  0
  2  4  1  0
  4  5  1  0
  5  6  1  0
  6  7  1  0
  7  8  1  0
  8  9  2  0
  8 10  1  0
 10 11  1  0
 11 12  1  0
 12 13  2  0
 13 14  1  0
 14 15  1  0
 13 16  1  0
 16 17  2  0
 17 18  1  0
 12 19  1  0
 18 19  1  0
 19 20  2  0
  7 21  1  0
  4 22  1  0
 21 22  1  0
M  END
