piperidine-amides-11445-covalent
     RDKit          3D

 22 23  0  0  0  0  0  0  0  0999 V2000
    7.1080   -3.2790   19.2410 C   0  0  0  0  0  0  0  0  0  0  0  0
    6.3570   -4.0460   20.2390 C   0  0  0  0  0  0  0  0  0  0  0  0
    5.2900   -4.5790   19.8990 O   0  0  0  0  0  0  0  0  0  0  0  0
    6.8380   -4.2400   21.5460 N   0  0  0  0  0  0  0  0  0  0  0  0
    6.6320   -5.4460   22.2940 C   0  0  0  0  0  0  0  0  0  0  0  0
    5.8650   -5.0220   23.5150 C   0  0  0  0  0  0  0  0  0  0  0  0
    6.4840   -3.8770   24.2770 C   0  0  0  0  0  0  0  0  0  0  0  0
    5.4690   -3.2690   25.1580 C   0  0  0  0  0  0  0  0  0  0  0  0
    4.4070   -2.7930   24.6680 O   0  0  0  0  0  0  0  0  0  0  0  0
    5.6010   -3.1710   26.5490 N   0  0  0  0  0  0  0  0  0  0  0  0
    5.4710   -4.3570   27.4150 C   0  0  0  0  0  0  0  0  0  0  0  0
    4.2880   -4.0810   28.2720 C   0  0  1  0  0  0  0  0  0  0  0  0
    2.9820   -4.4980   27.7510 C   0  0  0  0  0  0  0  0  0  0  0  0
    2.2400   -5.3690   28.7460 C   0  0  0  0  0  0  0  0  0  0  0  0
    3.0920   -5.4910   29.8280 O   0  0  0  0  0  0  0  0  0  0  0  0
    4.2310   -4.7710   29.5790 C   0  0  1  0  0  0  0  0  0  0  0  0
    5.3140   -5.7490   29.8430 C   0  0  0  0  0  0  0  0  0  0  0  0
    5.2130   -6.8990   30.3260 O   0  0  0  0  0  0  0  0  0  0  0  0
    6.5760   -5.3270   29.5330 O   0  0  0  0  0  0  0  0  0  0  0  0
    7.1030   -6.2550   28.6720 C   0  0  0  0  0  0  0  0  0  0  0  0
    7.0130   -2.7510   23.4120 C   0  0  0  0  0  0  0  0  0  0  0  0
    7.7010   -3.2600   22.1700 C   0  0  0  0  0  0  0  0  0  0  0  0
  1  2  1  0
  2  3  2  0
  2  4  1  0
  4  5  1  0
  5  6  1  0
  6  7  1  0
  7  8  1  0
  8  9  2  0
  8 10  1  0
 10 11  1  0
 12 11  1  6
 12 13  1  0
 13 14  1  0
 14 15  1  0
 12 16  1  0
 15 16  1  0
 16 17  1  6
 17 18  2  0
 17 19  1  0
 19 20  1  0
  7 21  1  0
  4 22  1  0
 21 22  1  0
M  END
