piperidine-amides-29278-covalent
     RDKit          3D

 27 30  0  0  0  0  0  0  0  0999 V2000
    7.0550   -3.3540   19.3500 C   0  0  0  0  0  0  0  0  0  0  0  0
    6.4130   -4.2170   20.3410 C   0  0  0  0  0  0  0  0  0  0  0  0
    5.3900   -4.8340   19.9850 O   0  0  0  0  0  0  0  0  0  0  0  0
    6.9680   -4.3890   21.6370 N   0  0  0  0  0  0  0  0  0  0  0  0
    7.7130   -3.3280   22.2560 C   0  0  0  0  0  0  0  0  0  0  0  0
    6.8970   -2.7240   23.3520 C   0  0  0  0  0  0  0  0  0  0  0  0
    6.5750   -3.8130   24.3570 C   0  0  0  0  0  0  0  0  0  0  0  0
    5.7150   -3.2350   25.4430 C   0  0  0  0  0  0  0  0  0  0  0  0
    4.5260   -3.1040   25.1620 O   0  0  0  0  0  0  0  0  0  0  0  0
    6.2850   -2.8980   26.6690 N   0  0  0  0  0  0  0  0  0  0  0  0
    6.5440   -3.9390   27.6200 C   0  0  0  0  0  0  0  0  0  0  0  0
    6.6240   -1.5210   26.9750 C   0  0  2  0  0  0  0  0  0  0  0  0
    7.1900   -1.4290   28.2480 C   0  0  0  0  0  0  0  0  0  0  0  0
    6.6610   -0.7780   29.3700 C   0  0  0  0  0  0  0  0  0  0  0  0
    6.2760    0.6060   28.9340 C   0  0  0  0  0  0  0  0  0  0  0  0
    5.4900    0.5970   27.6340 C   0  0  0  0  0  0  0  0  0  0  0  0
    5.7330   -0.4940   26.7400 C   0  0  0  0  0  0  0  0  0  0  0  0
    4.9130   -0.3140   25.6080 N   0  0  0  0  0  0  0  0  0  0  0  0
    4.1490    0.9140   25.8210 C   0  0  0  0  0  0  0  0  0  0  0  0
    3.0890    1.6900   25.0090 C   0  0  0  0  0  0  0  0  0  0  0  0
    2.5240    2.8640   25.4950 C   0  0  0  0  0  0  0  0  0  0  0  0
    2.8760    3.4080   26.7320 C   0  0  0  0  0  0  0  0  0  0  0  0
    2.3520    4.6620   27.3840 C   0  0  0  0  0  0  0  0  0  0  0  0
    3.9160    2.6920   27.5710 C   0  0  0  0  0  0  0  0  0  0  0  0
    4.5390    1.4220   27.0660 C   0  0  0  0  0  0  0  0  0  0  0  0
    5.8430   -4.9750   23.6820 C   0  0  0  0  0  0  0  0  0  0  0  0
    6.6520   -5.5020   22.4900 C   0  0  0  0  0  0  0  0  0  0  0  0
  1  2  1  0
  2  3  2  0
  2  4  1  0
  4  5  1  0
  5  6  1  0
  6  7  1  0
  7  8  1  0
  8  9  2  0
  8 10  1  0
 10 11  1  0
 12 10  1  1
 12 13  1  0
 13 14  1  0
 14 15  1  0
 15 16  1  0
 12 17  1  0
 16 17  2  0
 17 18  1  0
 18 19  1  0
 19 20  1  0
 20 21  2  0
 21 22  1  0
 22 23  1  0
 22 24  2  0
 16 25  1  0
 19 25  2  0
 24 25  1  0
  7 26  1  0
  4 27  1  0
 26 27  1  0
M  END
