piperidine-amides-29167-covalent
     RDKit          3D

 22 24  0  0  0  0  0  0  0  0999 V2000
    7.0790   -3.3440   19.3150 C   0  0  0  0  0  0  0  0  0  0  0  0
    6.4070   -4.1820   20.2990 C   0  0  0  0  0  0  0  0  0  0  0  0
    5.3640   -4.7710   19.9630 O   0  0  0  0  0  0  0  0  0  0  0  0
    6.9790   -4.3500   21.5820 N   0  0  0  0  0  0  0  0  0  0  0  0
    7.6600   -3.2170   22.1650 C   0  0  0  0  0  0  0  0  0  0  0  0
    7.4770   -3.1760   23.6580 C   0  0  0  0  0  0  0  0  0  0  0  0
    6.0780   -3.6690   23.9340 C   0  0  0  0  0  0  0  0  0  0  0  0
    5.5720   -3.2390   25.2710 C   0  0  0  0  0  0  0  0  0  0  0  0
    4.3870   -2.9140   25.3080 O   0  0  0  0  0  0  0  0  0  0  0  0
    6.4280   -3.2260   26.3660 N   0  0  0  0  0  0  0  0  0  0  0  0
    6.1500   -4.1470   27.4220 C   0  0  0  0  0  0  0  0  0  0  0  0
    5.0260   -4.0260   28.2050 N   0  0  0  0  0  0  0  0  0  0  0  0
    4.7340   -4.8880   29.2010 C   0  0  0  0  0  0  0  0  0  0  0  0
    5.6060   -5.9270   29.4380 N   0  0  0  0  0  0  0  0  0  0  0  0
    6.8030   -6.0890   28.6320 C   0  0  0  0  0  0  0  0  0  0  0  0
    7.1280   -5.2330   27.6100 C   0  0  0  0  0  0  0  0  0  0  0  0
    8.7160   -5.5270   26.5980 Br  0  0  0  0  0  0  0  0  0  0  0  0
    6.9010   -1.7800   26.6720 C   0  0  0  0  0  0  0  0  0  0  0  0
    6.9630   -1.6440   28.0380 C   0  0  0  0  0  0  0  0  0  0  0  0
    6.2220   -0.5900   27.1270 C   0  0  0  0  0  0  0  0  0  0  0  0
    6.0030   -5.1270   23.6950 C   0  0  0  0  0  0  0  0  0  0  0  0
    6.5900   -5.5180   22.3320 C   0  0  0  0  0  0  0  0  0  0  0  0
  1  2  1  0
  2  3  2  0
  2  4  1  0
  4  5  1  0
  5  6  1  0
  6  7  1  0
  7  8  1  0
  8  9  2  0
  8 10  1  0
 10 11  1  0
 11 12  2  0
 12 13  1  0
 13 14  2  0
 14 15  1  0
 11 16  1  0
 15 16  2  0
 16 17  1  0
 10 18  1  0
 18 19  1  0
 18 20  1  0
 19 20  1  0
  7 21  1  0
  4 22  1  0
 21 22  1  0
M  END
