piperidine-amides-9825-covalent
     RDKit          3D

 30 33  0  0  0  0  0  0  0  0999 V2000
    7.1150   -3.3390   19.2620 C   0  0  0  0  0  0  0  0  0  0  0  0
    6.3800   -4.1180   20.2580 C   0  0  0  0  0  0  0  0  0  0  0  0
    5.2840   -4.6180   19.9030 O   0  0  0  0  0  0  0  0  0  0  0  0
    6.9400   -4.3150   21.5120 N   0  0  0  0  0  0  0  0  0  0  0  0
    7.6740   -3.2450   22.1340 C   0  0  0  0  0  0  0  0  0  0  0  0
    6.8440   -2.7650   23.2800 C   0  0  0  0  0  0  0  0  0  0  0  0
    6.6000   -3.8710   24.2640 C   0  0  0  0  0  0  0  0  0  0  0  0
    5.8760   -3.3290   25.4280 C   0  0  0  0  0  0  0  0  0  0  0  0
    4.6260   -3.2860   25.3830 O   0  0  0  0  0  0  0  0  0  0  0  0
    6.5250   -2.8490   26.5790 N   0  0  0  0  0  0  0  0  0  0  0  0
    5.9500   -1.7720   27.3350 C   0  0  2  0  0  0  0  0  0  0  0  0
    5.6710   -0.5440   26.4770 C   0  0  0  0  0  0  0  0  0  0  0  0
    5.3680    0.6500   27.0590 C   0  0  0  0  0  0  0  0  0  0  0  0
    5.2340    0.5390   28.4560 O   0  0  0  0  0  0  0  0  0  0  0  0
    6.1680   -0.0980   29.1890 C   0  0  0  0  0  0  0  0  0  0  0  0
    7.2020    0.6990   29.6180 C   0  0  0  0  0  0  0  0  0  0  0  0
    6.8540    1.8320   30.3350 C   0  0  0  0  0  0  0  0  0  0  0  0
    6.0540    1.5740   31.3820 N   0  0  0  0  0  0  0  0  0  0  0  0
    6.1090    2.2540   32.5520 C   0  0  0  0  0  0  0  0  0  0  0  0
    4.8660    3.1110   32.5670 C   0  0  0  0  0  0  0  0  0  0  0  0
    5.1130    4.3610   31.7410 C   0  0  0  0  0  0  0  0  0  0  0  0
    4.0160    5.3650   31.6090 C   0  0  0  0  0  0  0  0  0  0  0  0
    2.6950    5.1000   32.3040 C   0  0  0  0  0  0  0  0  0  0  0  0
    2.4910    3.9480   33.0540 C   0  0  0  0  0  0  0  0  0  0  0  0
    3.6170    2.9140   33.1920 C   0  0  0  0  0  0  0  0  0  0  0  0
    6.0790    0.1510   31.6790 C   0  0  0  0  0  0  0  0  0  0  0  0
    5.4490   -0.5400   30.4590 C   0  0  0  0  0  0  0  0  0  0  0  0
    6.7520   -1.3110   28.5520 C   0  0  0  0  0  0  0  0  0  0  0  0
    5.8270   -4.9580   23.5560 C   0  0  0  0  0  0  0  0  0  0  0  0
    6.4190   -5.3960   22.2880 C   0  0  0  0  0  0  0  0  0  0  0  0
  1  2  1  0
  2  3  2  0
  2  4  1  0
  4  5  1  0
  5  6  1  0
  6  7  1  0
  7  8  1  0
  8  9  2  0
  8 10  1  0
 11 10  1  6
 11 12  1  0
 12 13  1  0
 13 14  1  0
 15 14  1  0
 15 16  1  0
 16 17  1  0
 17 18  1  0
 18 19  1  0
 19 20  1  0
 20 21  2  0
 21 22  1  0
 22 23  2  0
 23 24  1  0
 20 25  1  0
 24 25  2  0
 18 26  1  0
 15 27  1  0
 26 27  1  0
 11 28  1  0
 15 28  1  0
  7 29  1  0
  4 30  1  0
 29 30  1  0
M  END
