piperidine-amides-2208-covalent
     RDKit          3D

 28 31  0  0  0  0  0  0  0  0999 V2000
    7.0330   -3.2540   19.2570 C   0  0  0  0  0  0  0  0  0  0  0  0
    6.2760   -4.0470   20.2630 C   0  0  0  0  0  0  0  0  0  0  0  0
    5.2450   -4.5860   19.8810 O   0  0  0  0  0  0  0  0  0  0  0  0
    6.7460   -4.1920   21.5690 N   0  0  0  0  0  0  0  0  0  0  0  0
    6.4750   -5.3680   22.3490 C   0  0  0  0  0  0  0  0  0  0  0  0
    5.7630   -4.9750   23.6170 C   0  0  0  0  0  0  0  0  0  0  0  0
    5.8780   -3.4590   23.8590 C   0  0  0  0  0  0  0  0  0  0  0  0
    5.3860   -3.1520   25.2300 C   0  0  0  0  0  0  0  0  0  0  0  0
    4.2110   -3.4160   25.5090 O   0  0  0  0  0  0  0  0  0  0  0  0
    6.1990   -2.5590   26.2260 N   0  0  0  0  0  0  0  0  0  0  0  0
    6.6680   -3.3980   27.3040 C   0  0  0  0  0  0  0  0  0  0  0  0
    7.6830   -4.2560   26.6330 C   0  0  2  0  0  0  0  0  0  0  0  0
    8.2740   -5.3430   27.1540 C   0  0  0  0  0  0  0  0  0  0  0  0
    9.5160   -5.5080   26.6700 C   0  0  0  0  0  0  0  0  0  0  0  0
    9.7460   -5.0550   25.3920 C   0  0  0  0  0  0  0  0  0  0  0  0
    9.5980   -3.7340   25.3380 N   0  0  0  0  0  0  0  0  0  0  0  0
   10.7060   -2.9060   24.8170 C   0  0  0  0  0  0  0  0  0  0  0  0
   12.0470   -3.2580   25.1310 N   0  0  0  0  0  0  0  0  0  0  0  0
   13.1570   -2.4790   24.6420 C   0  0  0  0  0  0  0  0  0  0  0  0
   12.8820   -1.2820   23.8080 C   0  0  0  0  0  0  0  0  0  0  0  0
   11.5960   -0.9160   23.5030 N   0  0  0  0  0  0  0  0  0  0  0  0
   11.1500    0.1350   22.7740 C   0  0  0  0  0  0  0  0  0  0  0  0
    9.8180    0.0240   22.7850 N   0  0  0  0  0  0  0  0  0  0  0  0
    9.4050   -1.0520   23.4900 N   0  0  0  0  0  0  0  0  0  0  0  0
   10.4690   -1.6890   23.9740 C   0  0  0  0  0  0  0  0  0  0  0  0
    8.7650   -3.2300   26.3510 C   0  0  0  0  0  0  0  0  0  0  0  0
    7.3070   -3.0150   23.6400 C   0  0  0  0  0  0  0  0  0  0  0  0
    7.6050   -3.1950   22.1740 C   0  0  0  0  0  0  0  0  0  0  0  0
  1  2  1  0
  2  3  2  0
  2  4  1  0
  4  5  1  0
  5  6  1  0
  6  7  1  0
  7  8  1  0
  8  9  2  0
  8 10  1  0
 10 11  1  0
 12 11  1  1
 12 13  1  0
 13 14  1  0
 14 15  1  0
 15 16  1  0
 16 17  1  0
 17 18  2  0
 18 19  1  0
 19 20  2  0
 20 21  1  0
 21 22  1  0
 22 23  2  0
 23 24  1  0
 17 25  1  0
 21 25  1  0
 24 25  2  0
 12 26  1  0
 16 26  1  0
  7 27  1  0
  4 28  1  0
 27 28  1  0
M  END
