piperidine-amides-19407-covalent
     RDKit          3D

 22 24  0  0  0  0  0  0  0  0999 V2000
    7.0880   -3.3820   19.5350 C   0  0  0  0  0  0  0  0  0  0  0  0
    6.3660   -4.2200   20.4690 C   0  0  0  0  0  0  0  0  0  0  0  0
    5.4300   -4.9520   20.0080 O   0  0  0  0  0  0  0  0  0  0  0  0
    6.6820   -4.2710   21.8530 N   0  0  0  0  0  0  0  0  0  0  0  0
    6.5990   -5.6170   22.4890 C   0  0  0  0  0  0  0  0  0  0  0  0
    6.1850   -5.3040   23.9950 C   0  0  0  0  0  0  0  0  0  0  0  0
    5.9620   -3.8180   24.0930 C   0  0  0  0  0  0  0  0  0  0  0  0
    5.1040   -3.2750   25.3580 C   0  0  0  0  0  0  0  0  0  0  0  0
    4.0910   -2.7650   24.9210 O   0  0  0  0  0  0  0  0  0  0  0  0
    5.6370   -3.4860   26.5090 N   0  0  0  0  0  0  0  0  0  0  0  0
    6.4920   -3.7130   27.4900 C   0  0  0  0  0  0  0  0  0  0  0  0
    6.8580   -4.7980   28.2440 C   0  0  0  0  0  0  0  0  0  0  0  0
    5.7820   -5.1120   29.0390 C   0  0  0  0  0  0  0  0  0  0  0  0
    5.7170   -6.1150   30.1060 C   0  0  0  0  0  0  0  0  0  0  0  0
    4.3640   -6.2250   30.8150 C   0  0  0  0  0  0  0  0  0  0  0  0
    3.3290   -5.3760   30.3850 C   0  0  0  0  0  0  0  0  0  0  0  0
    2.2640   -5.7120   31.2060 F   0  0  0  0  0  0  0  0  0  0  0  0
    3.1030   -4.3670   29.4290 C   0  0  0  0  0  0  0  0  0  0  0  0
    4.5060   -4.3740   28.8180 C   0  0  0  0  0  0  0  0  0  0  0  0
    4.7360   -3.3590   27.6280 C   0  0  0  0  0  0  0  0  0  0  0  0
    7.2420   -3.0420   23.7410 C   0  0  0  0  0  0  0  0  0  0  0  0
    7.5950   -3.2900   22.4360 C   0  0  0  0  0  0  0  0  0  0  0  0
  1  2  1  0
  2  3  2  0
  2  4  1  0
  4  5  1  0
  5  6  1  0
  6  7  1  0
  7  8  1  0
  8  9  2  0
  8 10  1  0
 10 11  1  0
 11 12  1  0
 12 13  1  0
 13 14  2  0
 14 15  1  0
 15 16  2  0
 16 17  1  0
 16 18  1  0
 13 19  1  0
 18 19  2  0
 10 20  1  0
 19 20  1  0
  7 21  1  0
  4 22  1  0
 21 22  1  0
M  END
