piperidine-amides-31306-covalent
     RDKit          3D

 28 31  0  0  0  0  0  0  0  0999 V2000
    7.1670   -3.3140   19.4110 C   0  0  0  0  0  0  0  0  0  0  0  0
    6.3920   -4.0570   20.3810 C   0  0  0  0  0  0  0  0  0  0  0  0
    5.4130   -4.7600   19.9640 O   0  0  0  0  0  0  0  0  0  0  0  0
    6.7160   -4.0350   21.7530 N   0  0  0  0  0  0  0  0  0  0  0  0
    6.5500   -5.3120   22.4860 C   0  0  0  0  0  0  0  0  0  0  0  0
    5.7470   -4.8560   23.7800 C   0  0  0  0  0  0  0  0  0  0  0  0
    6.1940   -3.4480   24.0520 C   0  0  0  0  0  0  0  0  0  0  0  0
    5.5370   -2.7200   25.3320 C   0  0  0  0  0  0  0  0  0  0  0  0
    4.9440   -1.7490   24.9060 O   0  0  0  0  0  0  0  0  0  0  0  0
    5.7180   -3.2640   26.4870 N   0  0  0  0  0  0  0  0  0  0  0  0
    5.3560   -4.0220   27.5780 C   0  0  0  0  0  0  0  0  0  0  0  0
    5.7360   -4.1960   28.8730 C   0  0  0  0  0  0  0  0  0  0  0  0
    6.6310   -3.2050   29.2190 O   0  0  0  0  0  0  0  0  0  0  0  0
    7.5200   -2.9390   28.2160 C   0  0  1  0  0  0  0  0  0  0  0  0
    7.9720   -4.2080   27.7690 C   0  0  0  0  0  0  0  0  0  0  0  0
    8.8490   -5.1350   28.2460 N   0  0  0  0  0  0  0  0  0  0  0  0
    8.7180   -6.0110   27.2760 O   0  0  0  0  0  0  0  0  0  0  0  0
    7.7530   -5.5480   26.3090 C   0  0  0  0  0  0  0  0  0  0  0  0
    7.4250   -6.3240   25.2440 C   0  0  0  0  0  0  0  0  0  0  0  0
    5.9970   -6.3790   25.0450 C   0  0  0  0  0  0  0  0  0  0  0  0
    5.8470   -7.3020   23.8170 C   0  0  0  0  0  0  0  0  0  0  0  0
    7.0780   -7.9130   23.1130 C   0  0  0  0  0  0  0  0  0  0  0  0
    8.2890   -7.6460   23.5670 C   0  0  0  0  0  0  0  0  0  0  0  0
    8.4630   -6.8810   24.6050 C   0  0  0  0  0  0  0  0  0  0  0  0
    7.3590   -4.4080   26.6970 N   0  0  0  0  0  0  0  0  0  0  0  0
    6.8400   -2.3880   26.9730 C   0  0  0  0  0  0  0  0  0  0  0  0
    7.5860   -3.1070   23.6750 C   0  0  0  0  0  0  0  0  0  0  0  0
    7.6200   -3.0360   22.2810 C   0  0  0  0  0  0  0  0  0  0  0  0
  1  2  1  0
  2  3  2  0
  2  4  1  0
  4  5  1  0
  5  6  1  0
  6  7  1  0
  7  8  1  0
  8  9  2  0
  8 10  1  0
 10 11  1  0
 11 12  1  0
 12 13  1  0
 13 14  1  0
 14 15  1  6
 15 16  2  0
 16 17  1  0
 17 18  1  0
 18 19  1  0
 19 20  2  0
 20 21  1  0
 21 22  2  0
 22 23  1  0
 19 24  1  0
 23 24  2  0
 15 25  1  0
 18 25  2  0
 10 26  1  0
 14 26  1  0
  7 27  1  0
  4 28  1  0
 27 28  1  0
M  END
