piperidine-amides-32692-covalent
     RDKit          3D

 29 32  0  0  0  0  0  0  0  0999 V2000
    7.1650   -3.2780   19.2240 C   0  0  0  0  0  0  0  0  0  0  0  0
    6.4020   -4.0920   20.2060 C   0  0  0  0  0  0  0  0  0  0  0  0
    5.2910   -4.5420   19.8840 O   0  0  0  0  0  0  0  0  0  0  0  0
    6.9970   -4.3900   21.4500 N   0  0  0  0  0  0  0  0  0  0  0  0
    6.6290   -5.5630   22.1990 C   0  0  0  0  0  0  0  0  0  0  0  0
    6.0370   -5.0440   23.5100 C   0  0  0  0  0  0  0  0  0  0  0  0
    5.8050   -3.5850   23.2990 C   0  0  0  0  0  0  0  0  0  0  0  0
    4.8730   -3.0010   24.2630 C   0  0  0  0  0  0  0  0  0  0  0  0
    3.6860   -3.2930   24.1370 O   0  0  0  0  0  0  0  0  0  0  0  0
    5.3350   -2.2080   25.2850 N   0  0  0  0  0  0  0  0  0  0  0  0
    6.2130   -1.0800   25.1480 C   0  0  0  0  0  0  0  0  0  0  0  0
    6.3900   -0.3390   23.9960 C   0  0  0  0  0  0  0  0  0  0  0  0
    5.2590    0.2690   23.3930 C   0  0  0  0  0  0  0  0  0  0  0  0
    5.3020    1.0350   22.2400 C   0  0  0  0  0  0  0  0  0  0  0  0
    6.5960    1.2560   21.5650 C   0  0  0  0  0  0  0  0  0  0  0  0
    7.8590    0.6490   22.1320 C   0  0  0  0  0  0  0  0  0  0  0  0
    7.6140   -0.1580   23.4010 C   0  0  0  0  0  0  0  0  0  0  0  0
    5.2200   -2.9300   26.4800 C   0  0  0  0  0  0  0  0  0  0  0  0
    6.4540   -3.4510   26.9580 C   0  0  1  0  0  0  0  0  0  0  0  0
    7.1050   -4.0390   26.0720 O   0  0  0  0  0  0  0  0  0  0  0  0
    6.7810   -2.0300   27.2910 C   0  0  0  0  0  0  0  0  0  0  0  0
    7.1250   -1.7070   28.5140 N   0  0  0  0  0  0  0  0  0  0  0  0
    6.1830   -2.0820   29.3910 C   0  0  0  0  0  0  0  0  0  0  0  0
    5.7680   -3.5540   29.1760 C   0  0  0  0  0  0  0  0  0  0  0  0
    6.6670   -4.0840   28.1030 C   0  0  0  0  0  0  0  0  0  0  0  0
    8.1150   -3.7460   28.3350 C   0  0  0  0  0  0  0  0  0  0  0  0
    8.3360   -2.2540   28.6300 C   0  0  0  0  0  0  0  0  0  0  0  0
    7.1050   -2.8290   23.1860 C   0  0  0  0  0  0  0  0  0  0  0  0
    7.7650   -3.3570   22.1360 C   0  0  0  0  0  0  0  0  0  0  0  0
  1  2  1  0
  2  3  2  0
  2  4  1  0
  4  5  1  0
  5  6  1  0
  6  7  1  0
  7  8  1  0
  8  9  2  0
  8 10  1  0
 10 11  1  0
 11 12  1  0
 12 13  2  0
 13 14  1  0
 14 15  2  0
 15 16  1  0
 12 17  1  0
 16 17  2  0
 10 18  1  0
 18 19  1  0
 19 20  1  6
 19 21  1  0
 21 22  1  0
 22 23  1  0
 23 24  1  0
 19 25  1  0
 24 25  1  0
 25 26  1  0
 22 27  1  0
 26 27  1  0
  7 28  1  0
  4 29  1  0
 28 29  1  0
M  END
