piperidine-amides-31900-covalent
     RDKit          3D

 27 28  0  0  0  0  0  0  0  0999 V2000
    7.0240   -3.4120   19.3150 C   0  0  0  0  0  0  0  0  0  0  0  0
    6.3870   -4.2050   20.3390 C   0  0  0  0  0  0  0  0  0  0  0  0
    5.3760   -4.8850   19.9930 O   0  0  0  0  0  0  0  0  0  0  0  0
    6.8620   -4.2970   21.6660 N   0  0  0  0  0  0  0  0  0  0  0  0
    7.7570   -3.1900   22.1430 C   0  0  0  0  0  0  0  0  0  0  0  0
    7.5670   -3.2100   23.7060 C   0  0  0  0  0  0  0  0  0  0  0  0
    6.2190   -3.8330   23.8700 C   0  0  0  0  0  0  0  0  0  0  0  0
    5.3860   -3.2940   25.1030 C   0  0  0  0  0  0  0  0  0  0  0  0
    4.7990   -2.2760   24.7880 O   0  0  0  0  0  0  0  0  0  0  0  0
    5.5040   -4.0350   26.1170 N   0  0  0  0  0  0  0  0  0  0  0  0
    5.6200   -5.0290   27.0350 C   0  0  0  0  0  0  0  0  0  0  0  0
    6.0860   -5.1720   28.3090 C   0  0  0  0  0  0  0  0  0  0  0  0
    6.6160   -3.9680   28.8080 C   0  0  0  0  0  0  0  0  0  0  0  0
    6.5280   -2.8050   27.9250 C   0  0  2  0  0  0  0  0  0  0  0  0
    6.5270   -1.8000   29.1000 C   0  0  0  0  0  0  0  0  0  0  0  0
    7.6670   -1.0290   29.4310 O   0  0  0  0  0  0  0  0  0  0  0  0
    5.2540   -1.7130   29.8280 N   0  0  0  0  0  0  0  0  0  0  0  0
    4.0640   -1.7720   29.0470 C   0  0  0  0  0  0  0  0  0  0  0  0
    2.9550   -1.6310   29.8880 C   0  0  0  0  0  0  0  0  0  0  0  0
    5.3690   -0.6680   30.8260 C   0  0  0  0  0  0  0  0  0  0  0  0
    4.6380    0.6460   30.3660 C   0  0  0  0  0  0  0  0  0  0  0  0
    4.4700    0.6980   28.9770 F   0  0  0  0  0  0  0  0  0  0  0  0
    5.2810    1.7950   30.6820 F   0  0  0  0  0  0  0  0  0  0  0  0
    3.3260    0.6920   30.8820 F   0  0  0  0  0  0  0  0  0  0  0  0
    5.2910   -3.4490   27.3920 C   0  0  0  0  0  0  0  0  0  0  0  0
    6.2100   -5.3140   23.6150 C   0  0  0  0  0  0  0  0  0  0  0  0
    6.7310   -5.5510   22.3890 C   0  0  0  0  0  0  0  0  0  0  0  0
  1  2  1  0
  2  3  2  0
  2  4  1  0
  4  5  1  0
  5  6  1  0
  6  7  1  0
  7  8  1  0
  8  9  2  0
  8 10  1  0
 10 11  1  0
 11 12  1  0
 12 13  1  0
 13 14  1  0
 14 15  1  1
 15 16  2  0
 15 17  1  0
 17 18  1  0
 18 19  1  0
 17 20  1  0
 20 21  1  0
 21 22  1  0
 21 23  1  0
 21 24  1  0
 10 25  1  0
 14 25  1  0
  7 26  1  0
  4 27  1  0
 26 27  1  0
M  END
