piperidine-amides-25522-covalent
     RDKit          3D

 23 25  0  0  0  0  0  0  0  0999 V2000
    7.0480   -3.3290   19.3480 C   0  0  0  0  0  0  0  0  0  0  0  0
    6.3920   -4.2090   20.3540 C   0  0  0  0  0  0  0  0  0  0  0  0
    5.3920   -4.8240   19.9780 O   0  0  0  0  0  0  0  0  0  0  0  0
    6.9260   -4.3590   21.6450 N   0  0  0  0  0  0  0  0  0  0  0  0
    6.6880   -5.5740   22.4030 C   0  0  0  0  0  0  0  0  0  0  0  0
    6.2220   -5.2620   23.8080 C   0  0  0  0  0  0  0  0  0  0  0  0
    6.2170   -3.7510   24.0510 C   0  0  0  0  0  0  0  0  0  0  0  0
    5.7720   -3.4350   25.4330 C   0  0  0  0  0  0  0  0  0  0  0  0
    4.6240   -2.9840   25.5500 O   0  0  0  0  0  0  0  0  0  0  0  0
    6.5380   -3.6000   26.6220 N   0  0  0  0  0  0  0  0  0  0  0  0
    7.5580   -4.6180   26.6830 C   0  0  0  0  0  0  0  0  0  0  0  0
    7.2110   -5.2400   28.0080 C   0  0  0  0  0  0  0  0  0  0  0  0
    6.1180   -4.6910   28.6340 C   0  0  2  0  0  0  0  0  0  0  0  0
    4.8440   -5.3250   28.7490 N   0  0  0  0  0  0  0  0  0  0  0  0
    3.6220   -4.4870   29.0010 C   0  0  0  0  0  0  0  0  0  0  0  0
    2.9890   -4.8000   30.1970 C   0  0  0  0  0  0  0  0  0  0  0  0
    3.6120   -5.9270   30.9190 C   0  0  0  0  0  0  0  0  0  0  0  0
    4.9740   -6.5140   30.0220 S   0  0  0  0  0  0  0  0  0  0  0  0
    6.2380   -6.3420   30.7780 O   0  0  0  0  0  0  0  0  0  0  0  0
    4.8070   -7.9330   29.5640 O   0  0  0  0  0  0  0  0  0  0  0  0
    5.8380   -3.4330   27.8660 C   0  0  0  0  0  0  0  0  0  0  0  0
    7.4680   -3.0920   23.6610 C   0  0  0  0  0  0  0  0  0  0  0  0
    7.6870   -3.2630   22.2050 C   0  0  0  0  0  0  0  0  0  0  0  0
  1  2  1  0
  2  3  2  0
  2  4  1  0
  4  5  1  0
  5  6  1  0
  6  7  1  0
  7  8  1  0
  8  9  2  0
  8 10  1  0
 10 11  1  0
 11 12  1  0
 12 13  1  0
 13 14  1  6
 14 15  1  0
 15 16  1  0
 16 17  1  0
 18 14  1  0
 17 18  1  0
 18 19  2  0
 18 20  2  0
 10 21  1  0
 13 21  1  0
  7 22  1  0
  4 23  1  0
 22 23  1  0
M  END
