piperidine-amides-3072-covalent
     RDKit          3D

 23 24  0  0  0  0  0  0  0  0999 V2000
    7.0590   -3.2890   19.2120 C   0  0  0  0  0  0  0  0  0  0  0  0
    6.2910   -4.0280   20.2170 C   0  0  0  0  0  0  0  0  0  0  0  0
    5.2610   -4.6090   19.8940 O   0  0  0  0  0  0  0  0  0  0  0  0
    6.7500   -4.1190   21.5740 N   0  0  0  0  0  0  0  0  0  0  0  0
    7.6430   -3.1170   22.0800 C   0  0  0  0  0  0  0  0  0  0  0  0
    7.5290   -3.0880   23.5640 C   0  0  0  0  0  0  0  0  0  0  0  0
    6.1360   -3.5610   23.9070 C   0  0  0  0  0  0  0  0  0  0  0  0
    5.8560   -3.3410   25.3530 C   0  0  0  0  0  0  0  0  0  0  0  0
    4.6950   -3.2270   25.7940 O   0  0  0  0  0  0  0  0  0  0  0  0
    6.9490   -3.2540   26.2530 N   0  0  0  0  0  0  0  0  0  0  0  0
    7.2390   -4.3800   27.1090 C   0  0  0  0  0  0  0  0  0  0  0  0
    8.1940   -5.2760   26.3680 C   0  0  0  0  0  0  0  0  0  0  0  0
    9.8820   -4.8850   26.7330 S   0  0  0  0  0  0  0  0  0  0  0  0
   10.6100   -3.6470   25.7190 C   0  0  0  0  0  0  0  0  0  0  0  0
    9.7810   -2.7180   25.0260 C   0  0  0  0  0  0  0  0  0  0  0  0
   10.2690   -1.6890   24.1890 C   0  0  0  0  0  0  0  0  0  0  0  0
   11.7010   -1.4970   23.9730 C   0  0  0  0  0  0  0  0  0  0  0  0
   12.3560   -0.5600   23.1980 C   0  0  0  0  0  0  0  0  0  0  0  0
   12.3380   -2.4080   24.6700 C   0  0  0  0  0  0  0  0  0  0  0  0
   13.6040   -2.8610   24.9800 C   0  0  0  0  0  0  0  0  0  0  0  0
   11.9430   -3.4740   25.5290 C   0  0  0  0  0  0  0  0  0  0  0  0
    5.8500   -5.0040   23.4990 C   0  0  0  0  0  0  0  0  0  0  0  0
    6.5690   -5.3240   22.3380 C   0  0  0  0  0  0  0  0  0  0  0  0
  1  2  1  0
  2  3  2  0
  2  4  1  0
  4  5  1  0
  5  6  1  0
  6  7  1  0
  7  8  1  0
  8  9  2  0
  8 10  1  0
 10 11  1  0
 11 12  1  0
 12 13  1  0
 13 14  1  0
 14 15  2  0
 15 16  1  0
 16 17  2  0
 17 18  1  0
 17 19  1  0
 19 20  1  0
 14 21  1  0
 19 21  2  0
  7 22  1  0
  4 23  1  0
 22 23  1  0
M  END
