piperidine-amides-10658-covalent
     RDKit          3D

 23 25  0  0  0  0  0  0  0  0999 V2000
    7.0640   -3.2780   19.2480 C   0  0  0  0  0  0  0  0  0  0  0  0
    6.3080   -4.0580   20.2390 C   0  0  0  0  0  0  0  0  0  0  0  0
    5.2120   -4.5340   19.8600 O   0  0  0  0  0  0  0  0  0  0  0  0
    6.8220   -4.2940   21.5080 N   0  0  0  0  0  0  0  0  0  0  0  0
    7.6200   -3.3050   22.1830 C   0  0  0  0  0  0  0  0  0  0  0  0
    7.1540   -3.2110   23.5980 C   0  0  0  0  0  0  0  0  0  0  0  0
    5.8280   -3.8740   23.8360 C   0  0  0  0  0  0  0  0  0  0  0  0
    5.4460   -3.6990   25.2540 C   0  0  0  0  0  0  0  0  0  0  0  0
    4.2320   -3.5490   25.5160 O   0  0  0  0  0  0  0  0  0  0  0  0
    6.3690   -3.6760   26.3150 N   0  0  0  0  0  0  0  0  0  0  0  0
    7.0450   -2.4470   26.5930 C   0  0  0  0  0  0  0  0  0  0  0  0
    7.6650   -1.8110   25.3480 C   0  0  0  0  0  0  0  0  0  0  0  0
    8.8940   -2.1400   24.7330 C   0  0  0  0  0  0  0  0  0  0  0  0
    9.3860   -1.5140   23.5810 C   0  0  0  0  0  0  0  0  0  0  0  0
    8.7030   -0.5120   22.9480 C   0  0  0  0  0  0  0  0  0  0  0  0
    7.5130   -0.1240   23.4590 C   0  0  0  0  0  0  0  0  0  0  0  0
    6.4150    0.7030   23.3700 C   0  0  0  0  0  0  0  0  0  0  0  0
    6.8050   -0.6720   24.6940 C   0  0  0  0  0  0  0  0  0  0  0  0
    7.9310   -2.3280   27.7420 C   0  0  0  0  0  0  0  0  0  0  0  0
    7.0450   -1.5000   28.4940 C   0  0  0  0  0  0  0  0  0  0  0  0
    6.0550   -1.4660   27.3430 C   0  0  0  0  0  0  0  0  0  0  0  0
    5.8370   -5.3090   23.4710 C   0  0  0  0  0  0  0  0  0  0  0  0
    6.5460   -5.5500   22.1560 C   0  0  0  0  0  0  0  0  0  0  0  0
  1  2  1  0
  2  3  2  0
  2  4  1  0
  4  5  1  0
  5  6  1  0
  6  7  1  0
  7  8  1  0
  8  9  2  0
  8 10  1  0
 11 10  1  0
 11 12  1  0
 12 13  2  0
 13 14  1  0
 14 15  2  0
 15 16  1  0
 16 17  1  0
 12 18  1  0
 16 18  2  0
 11 19  1  0
 19 20  1  0
 11 21  1  0
 20 21  1  0
  7 22  1  0
  4 23  1  0
 22 23  1  0
M  END
