piperidine-amides-32181-covalent
     RDKit          3D

 28 30  0  0  0  0  0  0  0  0999 V2000
    7.0130   -3.3600   19.4200 C   0  0  0  0  0  0  0  0  0  0  0  0
    6.3450   -4.2690   20.3970 C   0  0  0  0  0  0  0  0  0  0  0  0
    5.3740   -4.9340   19.9990 O   0  0  0  0  0  0  0  0  0  0  0  0
    6.8330   -4.3930   21.7240 N   0  0  0  0  0  0  0  0  0  0  0  0
    6.6070   -5.6050   22.4910 C   0  0  0  0  0  0  0  0  0  0  0  0
    6.1340   -5.2500   23.9240 C   0  0  0  0  0  0  0  0  0  0  0  0
    5.9230   -3.7740   24.0040 C   0  0  0  0  0  0  0  0  0  0  0  0
    5.2380   -3.2050   25.2230 C   0  0  0  0  0  0  0  0  0  0  0  0
    4.6500   -2.1500   25.0120 O   0  0  0  0  0  0  0  0  0  0  0  0
    5.2270   -3.7800   26.5130 N   0  0  0  0  0  0  0  0  0  0  0  0
    6.2350   -4.5500   26.9620 C   0  0  0  0  0  0  0  0  0  0  0  0
    6.2950   -5.1120   28.1760 C   0  0  0  0  0  0  0  0  0  0  0  0
    5.9800   -4.2150   29.1500 C   0  0  0  0  0  0  0  0  0  0  0  0
    4.8740   -3.4280   28.8940 C   0  0  2  0  0  0  0  0  0  0  0  0
    4.7110   -2.3840   29.9150 C   0  0  0  0  0  0  0  0  0  0  0  0
    3.5140   -2.7320   30.7490 C   0  0  0  0  0  0  0  0  0  0  0  0
    2.9340   -3.8600   30.0950 N   0  0  0  0  0  0  0  0  0  0  0  0
    2.1170   -4.7730   30.8070 C   0  0  0  0  0  0  0  0  0  0  0  0
    1.3210   -4.3000   31.8350 O   0  0  0  0  0  0  0  0  0  0  0  0
    2.0600   -6.1280   30.5400 O   0  0  0  0  0  0  0  0  0  0  0  0
    3.1770   -6.9410   30.8010 C   0  0  0  0  0  0  0  0  0  0  0  0
    2.6700   -8.1630   31.4690 C   0  0  0  0  0  0  0  0  0  0  0  0
    4.3790   -6.3910   31.2550 C   0  0  0  0  0  0  0  0  0  0  0  0
    3.4700   -7.7790   29.5450 C   0  0  0  0  0  0  0  0  0  0  0  0
    3.7500   -4.2330   28.9470 C   0  0  0  0  0  0  0  0  0  0  0  0
    4.8850   -2.8530   27.6250 C   0  0  0  0  0  0  0  0  0  0  0  0
    7.2180   -3.0500   23.7260 C   0  0  0  0  0  0  0  0  0  0  0  0
    7.6260   -3.3060   22.3180 C   0  0  0  0  0  0  0  0  0  0  0  0
  1  2  1  0
  2  3  2  0
  2  4  1  0
  4  5  1  0
  5  6  1  0
  6  7  1  0
  7  8  1  0
  8  9  2  0
  8 10  1  0
 10 11  1  0
 11 12  1  0
 12 13  1  0
 14 13  1  1
 14 15  1  0
 15 16  1  0
 16 17  1  0
 17 18  1  0
 18 19  2  0
 18 20  1  0
 21 20  1  0
 21 22  1  0
 21 23  1  0
 21 24  1  0
 14 25  1  0
 17 25  1  0
 10 26  1  0
 14 26  1  0
  7 27  1  0
  4 28  1  0
 27 28  1  0
M  END
