piperidine-amides-3674-covalent
     RDKit          3D

 29 30  0  0  0  0  0  0  0  0999 V2000
    7.1320   -3.2730   19.1380 C   0  0  0  0  0  0  0  0  0  0  0  0
    6.3850   -3.9850   20.1850 C   0  0  0  0  0  0  0  0  0  0  0  0
    5.2820   -4.4870   19.8650 O   0  0  0  0  0  0  0  0  0  0  0  0
    6.9340   -4.1450   21.4770 N   0  0  0  0  0  0  0  0  0  0  0  0
    7.6360   -3.0390   22.0340 C   0  0  0  0  0  0  0  0  0  0  0  0
    7.1340   -2.6570   23.3330 C   0  0  0  0  0  0  0  0  0  0  0  0
    6.6580   -3.7960   24.1270 C   0  0  0  0  0  0  0  0  0  0  0  0
    5.9510   -3.2940   25.3400 C   0  0  0  0  0  0  0  0  0  0  0  0
    4.8930   -2.6430   25.2210 O   0  0  0  0  0  0  0  0  0  0  0  0
    6.4820   -3.5570   26.6080 N   0  0  0  0  0  0  0  0  0  0  0  0
    6.8880   -4.8200   27.0850 C   0  0  1  0  0  0  0  0  0  0  0  0
    7.3110   -4.9420   28.4610 C   0  0  0  0  0  0  0  0  0  0  0  0
    6.0750   -5.3180   29.3170 C   0  0  0  0  0  0  0  0  0  0  0  0
    6.0090   -6.6270   29.7660 C   0  0  0  0  0  0  0  0  0  0  0  0
    4.7610   -7.0060   30.6410 C   0  0  0  0  0  0  0  0  0  0  0  0
    3.6850   -5.9860   30.9710 C   0  0  0  0  0  0  0  0  0  0  0  0
    3.9150   -4.5990   30.3960 C   0  0  0  0  0  0  0  0  0  0  0  0
    2.9630   -3.4360   30.6070 C   0  0  0  0  0  0  0  0  0  0  0  0
    2.2820   -3.6380   31.7840 F   0  0  0  0  0  0  0  0  0  0  0  0
    3.7440   -2.2820   30.7120 F   0  0  0  0  0  0  0  0  0  0  0  0
    2.0700   -3.3180   29.5580 F   0  0  0  0  0  0  0  0  0  0  0  0
    5.1320   -4.3380   29.5770 C   0  0  0  0  0  0  0  0  0  0  0  0
    5.3240   -3.0860   29.0730 F   0  0  0  0  0  0  0  0  0  0  0  0
    5.7830   -5.8110   26.8460 C   0  0  0  0  0  0  0  0  0  0  0  0
    4.8650   -5.6430   25.9690 O   0  0  0  0  0  0  0  0  0  0  0  0
    5.6270   -6.8930   27.4550 O   0  0  0  0  0  0  0  0  0  0  0  0
    4.3670   -7.3580   27.8820 C   0  0  0  0  0  0  0  0  0  0  0  0
    5.8010   -4.7610   23.3590 C   0  0  0  0  0  0  0  0  0  0  0  0
    6.5580   -5.2510   22.3060 C   0  0  0  0  0  0  0  0  0  0  0  0
  1  2  1  0
  2  3  2  0
  2  4  1  0
  4  5  1  0
  5  6  1  0
  6  7  1  0
  7  8  1  0
  8  9  2  0
  8 10  1  0
 10 11  1  0
 11 12  1  1
 12 13  1  0
 13 14  2  0
 14 15  1  0
 15 16  2  0
 16 17  1  0
 17 18  1  0
 18 19  1  0
 18 20  1  0
 18 21  1  0
 13 22  1  0
 17 22  2  0
 22 23  1  0
 11 24  1  0
 24 25  2  0
 24 26  1  0
 26 27  1  0
  7 28  1  0
  4 29  1  0
 28 29  1  0
M  END
