piperidine-amides-12786-covalent
     RDKit          3D

 22 22  0  0  0  0  0  0  0  0999 V2000
    7.1300   -3.2430   19.1740 C   0  0  0  0  0  0  0  0  0  0  0  0
    6.3510   -3.9830   20.1950 C   0  0  0  0  0  0  0  0  0  0  0  0
    5.2560   -4.4560   19.8360 O   0  0  0  0  0  0  0  0  0  0  0  0
    6.8440   -4.1910   21.4840 N   0  0  0  0  0  0  0  0  0  0  0  0
    7.6060   -3.1590   22.1130 C   0  0  0  0  0  0  0  0  0  0  0  0
    7.3050   -2.9460   23.5290 C   0  0  0  0  0  0  0  0  0  0  0  0
    6.4490   -3.9770   24.1670 C   0  0  0  0  0  0  0  0  0  0  0  0
    5.7850   -3.3860   25.3620 C   0  0  0  0  0  0  0  0  0  0  0  0
    4.5710   -3.1200   25.2840 O   0  0  0  0  0  0  0  0  0  0  0  0
    6.5060   -3.1140   26.5500 N   0  0  0  0  0  0  0  0  0  0  0  0
    6.3790   -3.8870   27.8210 C   0  0  0  0  0  0  0  0  0  0  0  0
    5.9380   -5.3080   27.6450 C   0  0  2  0  0  0  0  0  0  0  0  0
    6.0650   -5.8920   26.5370 O   0  0  0  0  0  0  0  0  0  0  0  0
    4.5900   -5.6460   28.1210 C   0  0  0  0  0  0  0  0  0  0  0  0
    3.8480   -4.5000   27.9610 F   0  0  0  0  0  0  0  0  0  0  0  0
    4.0730   -6.5440   27.1900 F   0  0  0  0  0  0  0  0  0  0  0  0
    4.4240   -6.3070   29.3220 C   0  0  0  0  0  0  0  0  0  0  0  0
    3.5220   -5.7120   30.1740 F   0  0  0  0  0  0  0  0  0  0  0  0
    5.6150   -6.6100   29.9650 F   0  0  0  0  0  0  0  0  0  0  0  0
    3.8580   -7.5510   29.0110 F   0  0  0  0  0  0  0  0  0  0  0  0
    5.4950   -4.6370   23.2290 C   0  0  0  0  0  0  0  0  0  0  0  0
    6.2190   -5.2250   22.2370 C   0  0  0  0  0  0  0  0  0  0  0  0
  1  2  1  0
  2  3  2  0
  2  4  1  0
  4  5  1  0
  5  6  1  0
  6  7  1  0
  7  8  1  0
  8  9  2  0
  8 10  1  0
 10 11  1  0
 11 12  1  0
 12 13  1  6
 12 14  1  0
 14 15  1  0
 14 16  1  0
 14 17  1  0
 17 18  1  0
 17 19  1  0
 17 20  1  0
  7 21  1  0
  4 22  1  0
 21 22  1  0
M  END
