piperidine-amides-31375-covalent
     RDKit          3D

 22 24  0  0  0  0  0  0  0  0999 V2000
    7.0600   -3.3910   19.3050 C   0  0  0  0  0  0  0  0  0  0  0  0
    6.3630   -4.1230   20.3430 C   0  0  0  0  0  0  0  0  0  0  0  0
    5.3500   -4.7940   19.9740 O   0  0  0  0  0  0  0  0  0  0  0  0
    6.7630   -4.1770   21.7020 N   0  0  0  0  0  0  0  0  0  0  0  0
    6.4600   -5.4290   22.4280 C   0  0  0  0  0  0  0  0  0  0  0  0
    6.5360   -4.8900   23.9060 C   0  0  0  0  0  0  0  0  0  0  0  0
    5.9810   -3.4880   23.8160 C   0  0  0  0  0  0  0  0  0  0  0  0
    5.1830   -3.0360   25.1130 C   0  0  0  0  0  0  0  0  0  0  0  0
    4.0730   -2.6170   24.8340 O   0  0  0  0  0  0  0  0  0  0  0  0
    5.9230   -3.2370   26.1090 N   0  0  0  0  0  0  0  0  0  0  0  0
    6.5540   -3.8980   27.1090 C   0  0  0  0  0  0  0  0  0  0  0  0
    6.1400   -4.8870   27.9610 C   0  0  0  0  0  0  0  0  0  0  0  0
    6.9780   -5.7570   28.7170 C   0  0  0  0  0  0  0  0  0  0  0  0
    6.1050   -6.8860   29.6720 S   0  0  0  0  0  0  0  0  0  0  0  0
    4.5120   -6.3950   29.2240 C   0  0  0  0  0  0  0  0  0  0  0  0
    2.8950   -7.1720   29.8590 Br  0  0  0  0  0  0  0  0  0  0  0  0
    4.6010   -5.2100   28.2150 C   0  0  0  0  0  0  0  0  0  0  0  0
    6.6980   -2.0770   26.6350 C   0  0  0  0  0  0  0  0  0  0  0  0
    5.9350   -0.9370   26.9650 C   0  0  0  0  0  0  0  0  0  0  0  0
    6.6440   -1.7060   28.0850 C   0  0  0  0  0  0  0  0  0  0  0  0
    6.9320   -2.5130   23.2110 C   0  0  0  0  0  0  0  0  0  0  0  0
    7.6630   -3.2060   22.2880 C   0  0  0  0  0  0  0  0  0  0  0  0
  1  2  1  0
  2  3  2  0
  2  4  1  0
  4  5  1  0
  5  6  1  0
  6  7  1  0
  7  8  1  0
  8  9  2  0
  8 10  1  0
 10 11  1  0
 11 12  1  0
 12 13  2  0
 13 14  1  0
 14 15  1  0
 15 16  1  0
 12 17  1  0
 15 17  2  0
 10 18  1  0
 18 19  1  0
 18 20  1  0
 19 20  1  0
  7 21  1  0
  4 22  1  0
 21 22  1  0
M  END
