piperidine-amides-33940-covalent
     RDKit          3D

 30 32  0  0  0  0  0  0  0  0999 V2000
    7.0740   -3.3450   19.2690 C   0  0  0  0  0  0  0  0  0  0  0  0
    6.4270   -4.1840   20.2920 C   0  0  0  0  0  0  0  0  0  0  0  0
    5.3700   -4.7690   19.9630 O   0  0  0  0  0  0  0  0  0  0  0  0
    7.0180   -4.3630   21.5670 N   0  0  0  0  0  0  0  0  0  0  0  0
    6.6250   -5.5010   22.3280 C   0  0  0  0  0  0  0  0  0  0  0  0
    6.2770   -5.1590   23.7050 C   0  0  0  0  0  0  0  0  0  0  0  0
    6.3370   -3.7140   23.9840 C   0  0  0  0  0  0  0  0  0  0  0  0
    5.8740   -3.3540   25.3540 C   0  0  0  0  0  0  0  0  0  0  0  0
    5.7590   -2.1590   25.6540 O   0  0  0  0  0  0  0  0  0  0  0  0
    5.5180   -4.3170   26.2990 N   0  0  0  0  0  0  0  0  0  0  0  0
    4.3350   -4.3720   27.0090 C   0  0  0  0  0  0  0  0  0  0  0  0
    4.5900   -5.1310   28.2070 C   0  0  1  0  0  0  0  0  0  0  0  0
    4.4280   -6.6210   27.8330 C   0  0  0  0  0  0  0  0  0  0  0  0
    4.3110   -7.3580   28.9900 O   0  0  0  0  0  0  0  0  0  0  0  0
    4.3980   -7.1280   26.6790 O   0  0  0  0  0  0  0  0  0  0  0  0
    3.3460   -7.2940   25.8620 C   0  0  0  0  0  0  0  0  0  0  0  0
    3.7270   -7.3830   24.3860 C   0  0  0  0  0  0  0  0  0  0  0  0
    2.4100   -8.4570   26.2220 C   0  0  0  0  0  0  0  0  0  0  0  0
    2.5680   -6.0660   25.5690 C   0  0  0  0  0  0  0  0  0  0  0  0
    5.9890   -4.7130   28.4410 C   0  0  2  0  0  0  0  0  0  0  0  0
    5.3880   -3.3090   28.8540 C   0  0  0  0  0  0  0  0  0  0  0  0
    5.9500   -2.0470   29.5400 C   0  0  0  0  0  0  0  0  0  0  0  0
    5.1070   -0.9400   29.7650 N   0  0  0  0  0  0  0  0  0  0  0  0
    3.9540   -1.3600   29.2730 N   0  0  0  0  0  0  0  0  0  0  0  0
    2.8060   -0.4530   29.3370 C   0  0  0  0  0  0  0  0  0  0  0  0
    4.0290   -2.7220   28.7290 C   0  0  0  0  0  0  0  0  0  0  0  0
    2.8520   -3.2400   28.1970 C   0  0  0  0  0  0  0  0  0  0  0  0
    6.4310   -5.0380   27.1300 C   0  0  0  0  0  0  0  0  0  0  0  0
    7.6790   -3.1710   23.6340 C   0  0  0  0  0  0  0  0  0  0  0  0
    7.7900   -3.2880   22.1280 C   0  0  0  0  0  0  0  0  0  0  0  0
  1  2  1  0
  2  3  2  0
  2  4  1  0
  4  5  1  0
  5  6  1  0
  6  7  1  0
  7  8  1  0
  8  9  2  0
  8 10  1  0
 10 11  1  0
 11 12  1  0
 12 13  1  6
 13 14  2  0
 13 15  1  0
 16 15  1  0
 16 17  1  0
 16 18  1  0
 16 19  1  0
 12 20  1  0
 20 21  1  6
 21 22  1  0
 22 23  2  0
 23 24  1  0
 24 25  1  0
 21 26  2  0
 24 26  1  0
 26 27  1  0
 10 28  1  0
 20 28  1  0
  7 29  1  0
  4 30  1  0
 29 30  1  0
M  END
