piperidine-amides-27598-covalent
     RDKit          3D

 25 26  0  0  0  0  0  0  0  0999 V2000
    7.0150   -3.3540   19.3570 C   0  0  0  0  0  0  0  0  0  0  0  0
    6.3420   -4.2120   20.3410 C   0  0  0  0  0  0  0  0  0  0  0  0
    5.3070   -4.8080   19.9540 O   0  0  0  0  0  0  0  0  0  0  0  0
    6.8640   -4.3810   21.6210 N   0  0  0  0  0  0  0  0  0  0  0  0
    6.6140   -5.5750   22.3970 C   0  0  0  0  0  0  0  0  0  0  0  0
    5.7860   -5.1900   23.5960 C   0  0  0  0  0  0  0  0  0  0  0  0
    6.0460   -3.7650   24.0030 C   0  0  0  0  0  0  0  0  0  0  0  0
    5.5830   -3.5070   25.4010 C   0  0  0  0  0  0  0  0  0  0  0  0
    4.3480   -3.5450   25.5970 O   0  0  0  0  0  0  0  0  0  0  0  0
    6.4220   -3.2050   26.5020 N   0  0  0  0  0  0  0  0  0  0  0  0
    7.3330   -4.2400   26.9630 C   0  0  0  0  0  0  0  0  0  0  0  0
    6.5720   -5.4700   27.4510 C   0  0  0  0  0  0  0  0  0  0  0  0
    7.1090   -6.2200   28.2990 O   0  0  0  0  0  0  0  0  0  0  0  0
    6.8540   -1.8800   26.7730 C   0  0  0  0  0  0  0  0  0  0  0  0
    7.6370   -1.6170   25.6810 C   0  0  0  0  0  0  0  0  0  0  0  0
    8.9390   -2.0630   25.5190 O   0  0  0  0  0  0  0  0  0  0  0  0
    7.0330   -0.8690   24.6930 O   0  0  0  0  0  0  0  0  0  0  0  0
    7.7240   -0.2830   23.6100 C   0  0  0  0  0  0  0  0  0  0  0  0
    7.4810   -1.8690   28.0140 C   0  0  0  0  0  0  0  0  0  0  0  0
    7.0790   -1.0070   29.0140 C   0  0  0  0  0  0  0  0  0  0  0  0
    7.0050    0.2990   28.6060 O   0  0  0  0  0  0  0  0  0  0  0  0
    6.1770    0.4830   27.4700 C   0  0  0  0  0  0  0  0  0  0  0  0
    5.8510   -0.9260   26.9260 C   0  0  0  0  0  0  0  0  0  0  0  0
    7.5140   -3.4150   23.7250 C   0  0  0  0  0  0  0  0  0  0  0  0
    7.6380   -3.2990   22.2180 C   0  0  0  0  0  0  0  0  0  0  0  0
  1  2  1  0
  2  3  2  0
  2  4  1  0
  4  5  1  0
  5  6  1  0
  6  7  1  0
  7  8  1  0
  8  9  2  0
  8 10  1  0
 10 11  1  0
 11 12  1  0
 12 13  1  0
 10 14  1  0
 14 15  1  0
 15 16  2  0
 15 17  1  0
 17 18  1  0
 14 19  1  0
 19 20  1  0
 20 21  1  0
 21 22  1  0
 14 23  1  0
 22 23  1  0
  7 24  1  0
  4 25  1  0
 24 25  1  0
M  END
