piperidine-amides-5259-covalent
     RDKit          3D

 21 23  0  0  0  0  0  0  0  0999 V2000
    7.0810   -3.3030   19.2870 C   0  0  0  0  0  0  0  0  0  0  0  0
    6.3750   -4.1300   20.2920 C   0  0  0  0  0  0  0  0  0  0  0  0
    5.3070   -4.6530   19.9220 O   0  0  0  0  0  0  0  0  0  0  0  0
    6.9220   -4.3570   21.5670 N   0  0  0  0  0  0  0  0  0  0  0  0
    6.4360   -5.4430   22.3510 C   0  0  0  0  0  0  0  0  0  0  0  0
    5.8870   -5.0310   23.6460 C   0  0  0  0  0  0  0  0  0  0  0  0
    6.5110   -3.8150   24.2130 C   0  0  0  0  0  0  0  0  0  0  0  0
    5.7780   -3.3280   25.4090 C   0  0  0  0  0  0  0  0  0  0  0  0
    4.5290   -3.4140   25.4680 O   0  0  0  0  0  0  0  0  0  0  0  0
    6.5040   -2.7650   26.4680 N   0  0  0  0  0  0  0  0  0  0  0  0
    6.0340   -1.6480   27.3110 C   0  0  1  0  0  0  0  0  0  0  0  0
    6.9840   -1.4130   28.4230 C   0  0  0  0  0  0  0  0  0  0  0  0
    6.7430   -0.2860   29.2940 C   0  0  0  0  0  0  0  0  0  0  0  0
    6.2320    0.8690   28.7310 C   0  0  0  0  0  0  0  0  0  0  0  0
    5.9150    0.9300   27.3810 C   0  0  0  0  0  0  0  0  0  0  0  0
    5.6970    2.0140   26.6850 C   0  0  0  0  0  0  0  0  0  0  0  0
    5.4110    1.5770   25.3600 N   0  0  0  0  0  0  0  0  0  0  0  0
    5.4760    0.2130   25.3300 N   0  0  0  0  0  0  0  0  0  0  0  0
    5.8180   -0.3290   26.6790 C   0  0  0  0  0  0  0  0  0  0  0  0
    6.8150   -2.7510   23.2380 C   0  0  0  0  0  0  0  0  0  0  0  0
    7.6250   -3.2900   22.2460 C   0  0  0  0  0  0  0  0  0  0  0  0
  1  2  1  0
  2  3  2  0
  2  4  1  0
  4  5  1  0
  5  6  1  0
  6  7  1  0
  7  8  1  0
  8  9  2  0
  8 10  1  0
 11 10  1  6
 11 12  1  0
 12 13  1  0
 13 14  1  0
 14 15  1  0
 15 16  2  0
 16 17  1  0
 17 18  1  0
 11 19  1  0
 15 19  1  0
 18 19  2  0
  7 20  1  0
  4 21  1  0
 20 21  1  0
M  END
