piperidine-amides-25529-covalent
     RDKit          3D

 25 27  0  0  0  0  0  0  0  0999 V2000
    7.0160   -3.3660   19.4090 C   0  0  0  0  0  0  0  0  0  0  0  0
    6.3810   -4.2670   20.4100 C   0  0  0  0  0  0  0  0  0  0  0  0
    5.4350   -4.9470   20.0050 O   0  0  0  0  0  0  0  0  0  0  0  0
    6.8800   -4.3400   21.7240 N   0  0  0  0  0  0  0  0  0  0  0  0
    6.6950   -5.5260   22.5430 C   0  0  0  0  0  0  0  0  0  0  0  0
    6.1080   -5.1400   23.8810 C   0  0  0  0  0  0  0  0  0  0  0  0
    6.1730   -3.6210   23.9830 C   0  0  0  0  0  0  0  0  0  0  0  0
    5.7720   -3.0670   25.3050 C   0  0  0  0  0  0  0  0  0  0  0  0
    5.4260   -1.8880   25.3460 O   0  0  0  0  0  0  0  0  0  0  0  0
    5.6970   -3.7890   26.5110 N   0  0  0  0  0  0  0  0  0  0  0  0
    6.3760   -3.2890   27.6580 C   0  0  0  0  0  0  0  0  0  0  0  0
    6.6030   -4.5240   28.5200 C   0  0  0  0  0  0  0  0  0  0  0  0
    5.6790   -4.9700   29.4110 C   0  0  0  0  0  0  0  0  0  0  0  0
    5.7530   -6.1240   30.2160 N   0  0  0  0  0  0  0  0  0  0  0  0
    6.2180   -7.2960   29.5440 C   0  0  0  0  0  0  0  0  0  0  0  0
    4.8240   -6.3740   31.2880 C   0  0  0  0  0  0  0  0  0  0  0  0
    5.1600   -7.5310   32.2180 C   0  0  0  0  0  0  0  0  0  0  0  0
    4.1360   -7.7150   33.3040 C   0  0  0  0  0  0  0  0  0  0  0  0
    2.9350   -6.8180   33.4030 C   0  0  0  0  0  0  0  0  0  0  0  0
    2.7610   -5.7320   32.4070 C   0  0  0  0  0  0  0  0  0  0  0  0
    3.6700   -5.4100   31.2730 C   0  0  0  0  0  0  0  0  0  0  0  0
    4.7570   -5.2490   28.2710 C   0  0  0  0  0  0  0  0  0  0  0  0
    4.5610   -4.2300   27.2190 C   0  0  0  0  0  0  0  0  0  0  0  0
    7.5650   -3.1500   23.6130 C   0  0  0  0  0  0  0  0  0  0  0  0
    7.7240   -3.2580   22.2490 C   0  0  0  0  0  0  0  0  0  0  0  0
  1  2  1  0
  2  3  2  0
  2  4  1  0
  4  5  1  0
  5  6  1  0
  6  7  1  0
  7  8  1  0
  8  9  2  0
  8 10  1  0
 10 11  1  0
 11 12  1  0
 12 13  1  0
 13 14  1  0
 14 15  1  0
 14 16  1  0
 16 17  2  0
 17 18  1  0
 18 19  2  0
 19 20  1  0
 16 21  1  0
 20 21  2  0
 13 22  1  0
 10 23  1  0
 22 23  1  0
  7 24  1  0
  4 25  1  0
 24 25  1  0
M  END
