piperidine-amides-30580-covalent
     RDKit          3D

 23 25  0  0  0  0  0  0  0  0999 V2000
    6.9390   -3.3860   19.4310 C   0  0  0  0  0  0  0  0  0  0  0  0
    6.2790   -4.2870   20.3930 C   0  0  0  0  0  0  0  0  0  0  0  0
    5.3380   -4.9750   19.9870 O   0  0  0  0  0  0  0  0  0  0  0  0
    6.6710   -4.4360   21.7400 N   0  0  0  0  0  0  0  0  0  0  0  0
    6.4360   -5.6310   22.5070 C   0  0  0  0  0  0  0  0  0  0  0  0
    6.2960   -5.1510   23.9390 C   0  0  0  0  0  0  0  0  0  0  0  0
    5.7750   -3.7320   24.0340 C   0  0  0  0  0  0  0  0  0  0  0  0
    5.3620   -3.2100   25.4120 C   0  0  0  0  0  0  0  0  0  0  0  0
    4.1860   -2.7690   25.5360 O   0  0  0  0  0  0  0  0  0  0  0  0
    6.1380   -3.1730   26.6230 N   0  0  0  0  0  0  0  0  0  0  0  0
    5.5330   -2.8070   27.9200 C   0  0  0  0  0  0  0  0  0  0  0  0
    5.0630   -4.0450   28.5810 C   0  0  0  0  0  0  0  0  0  0  0  0
    6.0600   -5.1030   28.7920 C   0  0  0  0  0  0  0  0  0  0  0  0
    7.1570   -5.1310   27.7880 C   0  0  0  0  0  0  0  0  0  0  0  0
    8.1890   -6.1680   27.8900 C   0  0  0  0  0  0  0  0  0  0  0  0
    9.1260   -6.0200   26.8100 C   0  0  0  0  0  0  0  0  0  0  0  0
    8.9110   -4.9970   25.9720 C   0  0  0  0  0  0  0  0  0  0  0  0
    9.3580   -4.3800   24.8830 C   0  0  0  0  0  0  0  0  0  0  0  0
    8.1050   -3.8000   25.5420 C   0  0  0  0  0  0  0  0  0  0  0  0
    8.2230   -2.4880   24.1340 Br  0  0  0  0  0  0  0  0  0  0  0  0
    7.1950   -4.1080   26.6850 C   0  0  0  0  0  0  0  0  0  0  0  0
    6.6330   -2.7550   23.1750 C   0  0  0  0  0  0  0  0  0  0  0  0
    7.3680   -3.3430   22.3910 C   0  0  0  0  0  0  0  0  0  0  0  0
  1  2  1  0
  2  3  2  0
  2  4  1  0
  4  5  1  0
  5  6  1  0
  6  7  1  0
  7  8  1  0
  8  9  2  0
  8 10  1  0
 10 11  1  0
 11 12  1  0
 12 13  1  0
 13 14  1  0
 14 15  2  0
 15 16  1  0
 16 17  2  0
 17 18  1  0
 17 19  1  0
 19 20  1  0
 10 21  1  0
 14 21  1  0
 19 21  2  0
  7 22  1  0
  4 23  1  0
 22 23  1  0
M  END
