piperidine-amides-2689-covalent
     RDKit          3D

 25 26  0  0  0  0  0  0  0  0999 V2000
    7.0920   -3.3600   19.3200 C   0  0  0  0  0  0  0  0  0  0  0  0
    6.3560   -4.1490   20.2960 C   0  0  0  0  0  0  0  0  0  0  0  0
    5.3230   -4.7260   19.9540 O   0  0  0  0  0  0  0  0  0  0  0  0
    6.8780   -4.3080   21.6290 N   0  0  0  0  0  0  0  0  0  0  0  0
    6.5030   -5.4430   22.4210 C   0  0  0  0  0  0  0  0  0  0  0  0
    5.8150   -4.9740   23.6750 C   0  0  0  0  0  0  0  0  0  0  0  0
    6.5640   -3.7670   24.2320 C   0  0  0  0  0  0  0  0  0  0  0  0
    5.7900   -3.1650   25.3540 C   0  0  0  0  0  0  0  0  0  0  0  0
    4.6120   -2.7820   25.2280 O   0  0  0  0  0  0  0  0  0  0  0  0
    6.4240   -3.0520   26.6080 N   0  0  0  0  0  0  0  0  0  0  0  0
    6.4190   -1.7910   27.3200 C   0  0  0  0  0  0  0  0  0  0  0  0
    5.7800   -0.6130   26.6330 C   0  0  0  0  0  0  0  0  0  0  0  0
    5.7370    0.6200   27.2640 C   0  0  0  0  0  0  0  0  0  0  0  0
    6.2940    0.7640   28.5490 C   0  0  0  0  0  0  0  0  0  0  0  0
    6.2150    2.0340   29.1380 O   0  0  0  0  0  0  0  0  0  0  0  0
    4.9910    2.4940   29.6830 C   0  0  0  0  0  0  0  0  0  0  0  0
    4.3060    3.3610   28.7330 C   0  0  0  0  0  0  0  0  0  0  0  0
    3.4830    4.1710   29.4110 N   0  0  0  0  0  0  0  0  0  0  0  0
    2.6130    3.8230   30.5040 C   0  0  0  0  0  0  0  0  0  0  0  0
    3.0370    5.2910   28.6330 C   0  0  0  0  0  0  0  0  0  0  0  0
    6.8920   -0.2900   29.2120 C   0  0  0  0  0  0  0  0  0  0  0  0
    7.4020   -0.0790   30.4480 F   0  0  0  0  0  0  0  0  0  0  0  0
    6.9660   -1.6120   28.5940 C   0  0  0  0  0  0  0  0  0  0  0  0
    6.8860   -2.7030   23.2030 C   0  0  0  0  0  0  0  0  0  0  0  0
    7.6880   -3.2880   22.2390 C   0  0  0  0  0  0  0  0  0  0  0  0
  1  2  1  0
  2  3  2  0
  2  4  1  0
  4  5  1  0
  5  6  1  0
  6  7  1  0
  7  8  1  0
  8  9  2  0
  8 10  1  0
 10 11  1  0
 11 12  2  0
 12 13  1  0
 13 14  2  0
 14 15  1  0
 15 16  1  0
 16 17  1  0
 17 18  1  0
 18 19  1  0
 18 20  1  0
 14 21  1  0
 21 22  1  0
 11 23  1  0
 21 23  2  0
  7 24  1  0
  4 25  1  0
 24 25  1  0
M  END
