piperidine-amides-130-covalent
     RDKit          3D

 23 25  0  0  0  0  0  0  0  0999 V2000
    7.1100   -3.4260   19.3340 C   0  0  0  0  0  0  0  0  0  0  0  0
    6.4220   -4.1690   20.3580 C   0  0  0  0  0  0  0  0  0  0  0  0
    5.3900   -4.8190   19.9930 O   0  0  0  0  0  0  0  0  0  0  0  0
    6.8820   -4.2490   21.6930 N   0  0  0  0  0  0  0  0  0  0  0  0
    7.8000   -3.2140   22.2040 C   0  0  0  0  0  0  0  0  0  0  0  0
    6.8130   -2.5460   23.2130 C   0  0  0  0  0  0  0  0  0  0  0  0
    6.5490   -3.5930   24.2670 C   0  0  0  0  0  0  0  0  0  0  0  0
    5.4680   -3.0710   25.3070 C   0  0  0  0  0  0  0  0  0  0  0  0
    4.3540   -3.2840   24.8580 O   0  0  0  0  0  0  0  0  0  0  0  0
    5.9810   -2.5540   26.3600 N   0  0  0  0  0  0  0  0  0  0  0  0
    6.3150   -1.9920   27.5590 C   0  0  1  0  0  0  0  0  0  0  0  0
    7.2400   -1.3330   28.2870 C   0  0  0  0  0  0  0  0  0  0  0  0
    6.3030   -0.4570   28.8420 C   0  0  1  0  0  0  0  0  0  0  0  0
    6.4450    0.9920   28.8280 C   0  0  0  0  0  0  0  0  0  0  0  0
    5.3000    0.8780   27.8410 C   0  0  1  0  0  0  0  0  0  0  0  0
    5.2950    2.2780   27.7190 C   0  0  0  0  0  0  0  0  0  0  0  0
    6.3170    2.9720   27.9190 O   0  0  0  0  0  0  0  0  0  0  0  0
    4.1120    2.9560   27.3620 O   0  0  0  0  0  0  0  0  0  0  0  0
    3.1350    3.3850   28.2360 C   0  0  0  0  0  0  0  0  0  0  0  0
    5.6250    0.0530   26.6460 C   0  0  0  0  0  0  0  0  0  0  0  0
    5.2300   -0.8980   27.8540 C   0  0  1  0  0  0  0  0  0  0  0  0
    6.0280   -4.9500   23.6940 C   0  0  0  0  0  0  0  0  0  0  0  0
    6.6600   -5.3870   22.5530 C   0  0  0  0  0  0  0  0  0  0  0  0
  1  2  1  0
  2  3  2  0
  2  4  1  0
  4  5  1  0
  5  6  1  0
  6  7  1  0
  7  8  1  0
  8  9  2  0
  8 10  1  0
 11 10  1  6
 11 12  1  0
 13 12  1  6
 13 14  1  0
 14 15  1  0
 15 16  1  6
 16 17  2  0
 16 18  1  0
 18 19  1  0
 15 20  1  0
 11 21  1  0
 13 21  1  0
 21 20  1  6
  7 22  1  0
  4 23  1  0
 22 23  1  0
M  END
