piperidine-amides-8995-covalent
     RDKit          3D

 21 22  0  0  0  0  0  0  0  0999 V2000
    7.1190   -3.2750   19.1960 C   0  0  0  0  0  0  0  0  0  0  0  0
    6.3580   -4.0040   20.2140 C   0  0  0  0  0  0  0  0  0  0  0  0
    5.2960   -4.5650   19.8940 O   0  0  0  0  0  0  0  0  0  0  0  0
    6.8320   -4.1200   21.5280 N   0  0  0  0  0  0  0  0  0  0  0  0
    7.7640   -3.1760   22.0930 C   0  0  0  0  0  0  0  0  0  0  0  0
    7.1380   -2.7010   23.3580 C   0  0  0  0  0  0  0  0  0  0  0  0
    6.7210   -3.8360   24.2510 C   0  0  0  0  0  0  0  0  0  0  0  0
    6.0590   -3.3140   25.4630 C   0  0  0  0  0  0  0  0  0  0  0  0
    4.8820   -3.6710   25.7720 O   0  0  0  0  0  0  0  0  0  0  0  0
    6.7250   -2.3840   26.3000 N   0  0  0  0  0  0  0  0  0  0  0  0
    6.3410   -2.1890   27.7080 C   0  0  0  0  0  0  0  0  0  0  0  0
    5.7180   -0.8460   27.8760 C   0  0  0  0  0  0  0  0  0  0  0  0
    4.8490    0.1260   26.7760 S   0  0  0  0  0  0  0  0  0  0  0  0
    3.5430   -0.4720   26.4230 O   0  0  0  0  0  0  0  0  0  0  0  0
    4.5750    1.5110   27.3370 O   0  0  0  0  0  0  0  0  0  0  0  0
    6.0160    0.1500   25.4350 C   0  0  0  0  0  0  0  0  0  0  0  0
    5.1890   -0.2930   24.2570 C   0  0  0  0  0  0  0  0  0  0  0  0
    6.4180    0.1500   28.8410 C   0  0  0  0  0  0  0  0  0  0  0  0
    5.4240   -0.5510   29.3790 C   0  0  0  0  0  0  0  0  0  0  0  0
    5.8400   -4.8090   23.4840 C   0  0  0  0  0  0  0  0  0  0  0  0
    6.4540   -5.2710   22.3130 C   0  0  0  0  0  0  0  0  0  0  0  0
  1  2  1  0
  2  3  2  0
  2  4  1  0
  4  5  1  0
  5  6  1  0
  6  7  1  0
  7  8  1  0
  8  9  2  0
  8 10  1  0
 10 11  1  0
 12 11  1  0
 12 13  1  0
 13 14  2  0
 13 15  2  0
 13 16  1  0
 16 17  1  0
 12 18  1  0
 12 19  1  0
 18 19  1  0
  7 20  1  0
  4 21  1  0
 20 21  1  0
M  END
