piperidine-amides-31802-covalent
     RDKit          3D

 27 29  0  0  0  0  0  0  0  0999 V2000
    7.1550   -3.3670   19.4280 C   0  0  0  0  0  0  0  0  0  0  0  0
    6.4370   -4.1790   20.3750 C   0  0  0  0  0  0  0  0  0  0  0  0
    5.4100   -4.8230   19.9810 O   0  0  0  0  0  0  0  0  0  0  0  0
    6.8810   -4.3080   21.7060 N   0  0  0  0  0  0  0  0  0  0  0  0
    7.6780   -3.2060   22.2830 C   0  0  0  0  0  0  0  0  0  0  0  0
    6.6360   -2.7060   23.3500 C   0  0  0  0  0  0  0  0  0  0  0  0
    6.3530   -3.9170   24.2040 C   0  0  0  0  0  0  0  0  0  0  0  0
    5.3530   -3.5840   25.4080 C   0  0  0  0  0  0  0  0  0  0  0  0
    4.2440   -3.9840   25.0980 O   0  0  0  0  0  0  0  0  0  0  0  0
    5.8930   -2.9810   26.3960 N   0  0  0  0  0  0  0  0  0  0  0  0
    6.6090   -2.0770   27.0990 C   0  0  0  0  0  0  0  0  0  0  0  0
    6.8180   -2.4540   28.7700 S   0  0  0  0  0  0  0  0  0  0  0  0
    5.9970   -3.8670   28.3910 C   0  0  0  0  0  0  0  0  0  0  0  0
    4.9750   -3.5060   27.4560 C   0  0  1  0  0  0  0  0  0  0  0  0
    3.8750   -2.6490   27.9600 C   0  0  0  0  0  0  0  0  0  0  0  0
    3.7460   -1.4110   27.3270 O   0  0  0  0  0  0  0  0  0  0  0  0
    2.9330   -2.8840   28.9810 N   0  0  0  0  0  0  0  0  0  0  0  0
    2.7100   -1.9990   30.1260 C   0  0  0  0  0  0  0  0  0  0  0  0
    3.4270   -0.7920   30.1490 C   0  0  0  0  0  0  0  0  0  0  0  0
    3.4690    0.3080   31.0870 C   0  0  0  0  0  0  0  0  0  0  0  0
    2.4520   -0.1530   32.1960 C   0  0  0  0  0  0  0  0  0  0  0  0
    2.2260    0.8110   33.4070 C   0  0  0  0  0  0  0  0  0  0  0  0
    1.6430   -1.4020   32.2760 C   0  0  0  0  0  0  0  0  0  0  0  0
    0.7710   -1.7420   33.2780 C   0  0  0  0  0  0  0  0  0  0  0  0
    1.7640   -2.3740   31.2090 C   0  0  0  0  0  0  0  0  0  0  0  0
    5.8990   -5.1870   23.5300 C   0  0  0  0  0  0  0  0  0  0  0  0
    6.7380   -5.5030   22.4650 C   0  0  0  0  0  0  0  0  0  0  0  0
  1  2  1  0
  2  3  2  0
  2  4  1  0
  4  5  1  0
  5  6  1  0
  6  7  1  0
  7  8  1  0
  8  9  2  0
  8 10  1  0
 10 11  1  0
 11 12  1  0
 12 13  1  0
 10 14  1  0
 13 14  1  0
 14 15  1  1
 15 16  2  0
 15 17  1  0
 17 18  1  0
 18 19  2  0
 19 20  1  0
 20 21  2  0
 21 22  1  0
 21 23  1  0
 23 24  1  0
 18 25  1  0
 23 25  2  0
  7 26  1  0
  4 27  1  0
 26 27  1  0
M  END
