piperidine-amides-29799-covalent
     RDKit          3D

 26 28  0  0  0  0  0  0  0  0999 V2000
    7.0570   -3.3670   19.3540 C   0  0  0  0  0  0  0  0  0  0  0  0
    6.3320   -4.1550   20.3430 C   0  0  0  0  0  0  0  0  0  0  0  0
    5.3690   -4.8300   19.9810 O   0  0  0  0  0  0  0  0  0  0  0  0
    6.7640   -4.1860   21.7180 N   0  0  0  0  0  0  0  0  0  0  0  0
    6.5320   -5.3610   22.5180 C   0  0  0  0  0  0  0  0  0  0  0  0
    6.0730   -4.9620   23.9020 C   0  0  0  0  0  0  0  0  0  0  0  0
    5.8470   -3.4490   23.9150 C   0  0  0  0  0  0  0  0  0  0  0  0
    5.2840   -2.9550   25.2260 C   0  0  0  0  0  0  0  0  0  0  0  0
    4.1040   -2.5630   25.2880 O   0  0  0  0  0  0  0  0  0  0  0  0
    6.0400   -2.9210   26.4350 N   0  0  0  0  0  0  0  0  0  0  0  0
    6.1050   -4.1320   27.1880 C   0  0  0  0  0  0  0  0  0  0  0  0
    7.4000   -4.6300   26.7410 C   0  0  0  0  0  0  0  0  0  0  0  0
    8.0470   -5.6710   27.3580 C   0  0  0  0  0  0  0  0  0  0  0  0
    9.2680   -6.0720   26.8650 C   0  0  0  0  0  0  0  0  0  0  0  0
    9.8040   -5.4640   25.8150 C   0  0  0  0  0  0  0  0  0  0  0  0
    9.1270   -4.3950   25.1880 C   0  0  0  0  0  0  0  0  0  0  0  0
    7.9500   -3.9970   25.6570 C   0  0  0  0  0  0  0  0  0  0  0  0
    6.3340   -1.7390   27.2140 C   0  0  0  0  0  0  0  0  0  0  0  0
    7.0470   -1.7590   28.3320 C   0  0  0  0  0  0  0  0  0  0  0  0
    7.2440   -0.5360   29.0010 C   0  0  0  0  0  0  0  0  0  0  0  0
    6.8250    0.4920   28.6300 N   0  0  0  0  0  0  0  0  0  0  0  0
    6.0030    0.8570   27.4410 C   0  0  0  0  0  0  0  0  0  0  0  0
    6.3180    2.3140   28.3610 Cl  0  0  0  0  0  0  0  0  0  0  0  0
    5.8270   -0.4230   26.7900 C   0  0  0  0  0  0  0  0  0  0  0  0
    7.0930   -2.6710   23.5480 C   0  0  0  0  0  0  0  0  0  0  0  0
    7.6860   -3.2020   22.2360 C   0  0  0  0  0  0  0  0  0  0  0  0
  1  2  1  0
  2  3  2  0
  2  4  1  0
  4  5  1  0
  5  6  1  0
  6  7  1  0
  7  8  1  0
  8  9  2  0
  8 10  1  0
 10 11  1  0
 11 12  1  0
 12 13  2  0
 13 14  1  0
 14 15  2  0
 15 16  1  0
 12 17  1  0
 16 17  2  0
 10 18  1  0
 18 19  2  0
 19 20  1  0
 20 21  2  0
 21 22  1  0
 22 23  1  0
 18 24  1  0
 22 24  2  0
  7 25  1  0
  4 26  1  0
 25 26  1  0
M  END
