piperidine-amides-27942-covalent
     RDKit          3D

 26 28  0  0  0  0  0  0  0  0999 V2000
    7.0560   -3.3550   19.3620 C   0  0  0  0  0  0  0  0  0  0  0  0
    6.4070   -4.2330   20.3610 C   0  0  0  0  0  0  0  0  0  0  0  0
    5.3820   -4.8390   19.9820 O   0  0  0  0  0  0  0  0  0  0  0  0
    6.9610   -4.4080   21.6450 N   0  0  0  0  0  0  0  0  0  0  0  0
    6.5550   -5.4820   22.4760 C   0  0  0  0  0  0  0  0  0  0  0  0
    5.9240   -5.0760   23.7470 C   0  0  0  0  0  0  0  0  0  0  0  0
    6.3040   -3.7540   24.3230 C   0  0  0  0  0  0  0  0  0  0  0  0
    5.1930   -3.2890   25.2130 C   0  0  0  0  0  0  0  0  0  0  0  0
    4.1360   -2.9550   24.6640 O   0  0  0  0  0  0  0  0  0  0  0  0
    5.2880   -3.2140   26.6210 N   0  0  0  0  0  0  0  0  0  0  0  0
    6.5810   -3.0050   27.1930 C   0  0  0  0  0  0  0  0  0  0  0  0
    6.5520   -3.9850   28.2910 C   0  0  0  0  0  0  0  0  0  0  0  0
    5.1800   -4.1240   28.6450 C   0  0  1  0  0  0  0  0  0  0  0  0
    4.7670   -3.2780   29.6430 C   0  0  0  0  0  0  0  0  0  0  0  0
    5.3690   -2.0360   29.8380 C   0  0  0  0  0  0  0  0  0  0  0  0
    4.9420   -1.2040   30.8390 C   0  0  0  0  0  0  0  0  0  0  0  0
    3.9240   -1.5440   31.6810 C   0  0  0  0  0  0  0  0  0  0  0  0
    3.6320   -0.7050   32.5470 O   0  0  0  0  0  0  0  0  0  0  0  0
    4.1560   -1.0320   33.7570 C   0  0  0  0  0  0  0  0  0  0  0  0
    3.2930   -2.7630   31.5310 C   0  0  0  0  0  0  0  0  0  0  0  0
    3.7360   -3.6650   30.4660 C   0  0  0  0  0  0  0  0  0  0  0  0
    4.3700   -3.7540   27.5580 C   0  0  0  0  0  0  0  0  0  0  0  0
    3.6650   -5.0300   27.1920 C   0  0  0  0  0  0  0  0  0  0  0  0
    3.3250   -2.6830   27.8400 C   0  0  0  0  0  0  0  0  0  0  0  0
    6.8270   -2.7770   23.3610 C   0  0  0  0  0  0  0  0  0  0  0  0
    7.7150   -3.3640   22.3220 C   0  0  0  0  0  0  0  0  0  0  0  0
  1  2  1  0
  2  3  2  0
  2  4  1  0
  4  5  1  0
  5  6  1  0
  6  7  1  0
  7  8  1  0
  8  9  2  0
  8 10  1  0
 10 11  1  0
 11 12  1  0
 12 13  1  0
 13 14  1  1
 14 15  2  0
 15 16  1  0
 16 17  2  0
 17 18  1  0
 18 19  1  0
 17 20  1  0
 14 21  1  0
 20 21  2  0
 10 22  1  0
 13 22  1  0
 22 23  1  0
 22 24  1  0
  7 25  1  0
  4 26  1  0
 25 26  1  0
M  END
