piperidine-amides-4120-covalent
     RDKit          3D

 27 30  0  0  0  0  0  0  0  0999 V2000
    7.0290   -3.3610   19.3540 C   0  0  0  0  0  0  0  0  0  0  0  0
    6.3990   -4.1880   20.4040 C   0  0  0  0  0  0  0  0  0  0  0  0
    5.4460   -4.9130   20.0130 O   0  0  0  0  0  0  0  0  0  0  0  0
    6.8710   -4.2020   21.7570 N   0  0  0  0  0  0  0  0  0  0  0  0
    7.5980   -3.0860   22.2400 C   0  0  0  0  0  0  0  0  0  0  0  0
    7.1360   -2.5130   23.5130 C   0  0  0  0  0  0  0  0  0  0  0  0
    6.4360   -3.3720   24.5210 C   0  0  0  0  0  0  0  0  0  0  0  0
    5.5110   -2.5960   25.4990 C   0  0  0  0  0  0  0  0  0  0  0  0
    4.3760   -3.0940   25.6680 O   0  0  0  0  0  0  0  0  0  0  0  0
    5.9130   -1.3770   26.2660 N   0  0  0  0  0  0  0  0  0  0  0  0
    7.2600   -1.3660   26.5050 C   0  0  0  0  0  0  0  0  0  0  0  0
    6.7790   -0.9110   25.3510 C   0  0  0  0  0  0  0  0  0  0  0  0
    5.6630   -0.4210   24.3870 C   0  0  0  0  0  0  0  0  0  0  0  0
    5.0480   -0.9400   23.2700 C   0  0  0  0  0  0  0  0  0  0  0  0
    3.9460   -0.0560   22.5590 C   0  0  0  0  0  0  0  0  0  0  0  0
    3.5810    1.3310   23.1160 C   0  0  0  0  0  0  0  0  0  0  0  0
    4.3880    1.6950   24.3560 C   0  0  0  0  0  0  0  0  0  0  0  0
    5.4120    0.8760   25.0060 C   0  0  0  0  0  0  0  0  0  0  0  0
    5.4640   -0.9780   26.0370 N   0  0  0  0  0  0  0  0  0  0  0  0
    4.9680   -1.4770   27.3860 C   0  0  0  0  0  0  0  0  0  0  0  0
    4.3510   -1.0570   26.2770 C   0  0  0  0  0  0  0  0  0  0  0  0
    5.2350   -0.3230   27.3540 C   0  0  0  0  0  0  0  0  0  0  0  0
    6.1550   -0.4980   28.5650 C   0  0  0  0  0  0  0  0  0  0  0  0
    6.9660   -1.6130   28.7880 C   0  0  0  0  0  0  0  0  0  0  0  0
    6.4810   -1.5000   27.5820 C   0  0  0  0  0  0  0  0  0  0  0  0
    5.7470   -4.5940   23.9080 C   0  0  0  0  0  0  0  0  0  0  0  0
    6.4380   -5.1910   22.6780 C   0  0  0  0  0  0  0  0  0  0  0  0
  1  2  1  0
  2  3  2  0
  2  4  1  0
  4  5  1  0
  5  6  1  0
  6  7  1  0
  7  8  1  0
  8  9  2  0
  8 10  1  0
 10 11  1  0
 11 12  2  0
 12 13  1  0
 13 14  2  0
 14 15  1  0
 15 16  2  0
 16 17  1  0
 13 18  1  0
 17 18  2  0
 12 19  1  0
 19 20  1  0
 20 21  2  0
 21 22  1  0
 22 23  2  0
 23 24  1  0
 11 25  1  0
 20 25  1  0
 24 25  2  0
  7 26  1  0
  4 27  1  0
 26 27  1  0
M  END
