piperidine-amides-4220-covalent
     RDKit          3D

 26 28  0  0  0  0  0  0  0  0999 V2000
    7.0950   -3.3060   19.2580 C   0  0  0  0  0  0  0  0  0  0  0  0
    6.3830   -4.1100   20.2640 C   0  0  0  0  0  0  0  0  0  0  0  0
    5.3030   -4.6390   19.9120 O   0  0  0  0  0  0  0  0  0  0  0  0
    6.9220   -4.3310   21.5510 N   0  0  0  0  0  0  0  0  0  0  0  0
    7.6300   -3.2580   22.1610 C   0  0  0  0  0  0  0  0  0  0  0  0
    7.4190   -3.0940   23.5900 C   0  0  0  0  0  0  0  0  0  0  0  0
    6.5190   -4.0690   24.2430 C   0  0  0  0  0  0  0  0  0  0  0  0
    5.7740   -3.3990   25.3510 C   0  0  0  0  0  0  0  0  0  0  0  0
    4.5490   -3.1960   25.2360 O   0  0  0  0  0  0  0  0  0  0  0  0
    6.4440   -2.9880   26.5140 N   0  0  0  0  0  0  0  0  0  0  0  0
    6.0260   -2.0450   27.4680 C   0  0  0  0  0  0  0  0  0  0  0  0
    4.8780   -2.3450   28.3220 C   0  0  0  0  0  0  0  0  0  0  0  0
    3.9860   -1.1210   28.6820 C   0  0  0  0  0  0  0  0  0  0  0  0
    2.9380   -1.5500   29.4950 C   0  0  0  0  0  0  0  0  0  0  0  0
    2.1570   -0.2560   29.7670 C   0  0  0  0  0  0  0  0  0  0  0  0
    2.9900    0.6140   30.4670 F   0  0  0  0  0  0  0  0  0  0  0  0
    1.6620    0.3010   28.5990 F   0  0  0  0  0  0  0  0  0  0  0  0
    1.0640   -0.5270   30.5290 F   0  0  0  0  0  0  0  0  0  0  0  0
    2.4820   -2.8940   30.0910 C   0  0  0  0  0  0  0  0  0  0  0  0
    3.4480   -3.9810   29.6530 C   0  0  0  0  0  0  0  0  0  0  0  0
    4.6480   -3.7630   28.7810 C   0  0  0  0  0  0  0  0  0  0  0  0
    5.6640   -5.1280   28.3690 Cl  0  0  0  0  0  0  0  0  0  0  0  0
    6.8120   -0.9180   27.9600 C   0  0  0  0  0  0  0  0  0  0  0  0
    6.0270   -0.6030   26.8940 C   0  0  0  0  0  0  0  0  0  0  0  0
    5.6170   -4.7620   23.2770 C   0  0  0  0  0  0  0  0  0  0  0  0
    6.4600   -5.4150   22.3820 C   0  0  0  0  0  0  0  0  0  0  0  0
  1  2  1  0
  2  3  2  0
  2  4  1  0
  4  5  1  0
  5  6  1  0
  6  7  1  0
  7  8  1  0
  8  9  2  0
  8 10  1  0
 11 10  1  0
 11 12  1  0
 12 13  2  0
 13 14  1  0
 14 15  1  0
 15 16  1  0
 15 17  1  0
 15 18  1  0
 14 19  2  0
 19 20  1  0
 12 21  1  0
 20 21  2  0
 21 22  1  0
 11 23  1  0
 11 24  1  0
 23 24  1  0
  7 25  1  0
  4 26  1  0
 25 26  1  0
M  END
