piperidine-amides-29996-covalent
     RDKit          3D

 27 30  0  0  0  0  0  0  0  0999 V2000
    7.1190   -3.3250   19.2810 C   0  0  0  0  0  0  0  0  0  0  0  0
    6.4240   -4.1690   20.2420 C   0  0  0  0  0  0  0  0  0  0  0  0
    5.3640   -4.7190   19.9470 O   0  0  0  0  0  0  0  0  0  0  0  0
    7.0290   -4.4160   21.5110 N   0  0  0  0  0  0  0  0  0  0  0  0
    7.7890   -3.3730   22.1470 C   0  0  0  0  0  0  0  0  0  0  0  0
    7.0370   -2.8450   23.3180 C   0  0  0  0  0  0  0  0  0  0  0  0
    6.5590   -4.0310   24.1340 C   0  0  0  0  0  0  0  0  0  0  0  0
    5.5930   -3.5520   25.1370 C   0  0  0  0  0  0  0  0  0  0  0  0
    4.5340   -2.9880   24.8130 O   0  0  0  0  0  0  0  0  0  0  0  0
    5.8690   -3.7380   26.4880 N   0  0  0  0  0  0  0  0  0  0  0  0
    6.4850   -2.6270   27.1070 C   0  0  0  0  0  0  0  0  0  0  0  0
    6.8080   -3.1500   28.4580 C   0  0  0  0  0  0  0  0  0  0  0  0
    5.7390   -3.5400   29.1460 C   0  0  0  0  0  0  0  0  0  0  0  0
    4.9020   -2.3800   29.3550 N   0  0  0  0  0  0  0  0  0  0  0  0
    5.6130   -1.1210   29.3280 C   0  0  0  0  0  0  0  0  0  0  0  0
    5.3310   -0.4680   30.5450 C   0  0  0  0  0  0  0  0  0  0  0  0
    4.4400   -1.3360   31.3240 C   0  0  0  0  0  0  0  0  0  0  0  0
    3.8280   -1.2530   32.5700 C   0  0  0  0  0  0  0  0  0  0  0  0
    3.0080   -2.2830   33.0320 C   0  0  0  0  0  0  0  0  0  0  0  0
    2.4690   -2.0850   34.2610 F   0  0  0  0  0  0  0  0  0  0  0  0
    2.7930   -3.4120   32.2430 C   0  0  0  0  0  0  0  0  0  0  0  0
    3.4400   -3.4860   30.9440 C   0  0  0  0  0  0  0  0  0  0  0  0
    4.2290   -2.4340   30.5680 C   0  0  0  0  0  0  0  0  0  0  0  0
    5.2360   -4.6990   28.5790 C   0  0  0  0  0  0  0  0  0  0  0  0
    4.9100   -4.5950   27.1310 C   0  0  0  0  0  0  0  0  0  0  0  0
    5.8310   -5.1220   23.4090 C   0  0  0  0  0  0  0  0  0  0  0  0
    6.6770   -5.5780   22.2530 C   0  0  0  0  0  0  0  0  0  0  0  0
  1  2  1  0
  2  3  2  0
  2  4  1  0
  4  5  1  0
  5  6  1  0
  6  7  1  0
  7  8  1  0
  8  9  2  0
  8 10  1  0
 10 11  1  0
 11 12  1  0
 12 13  1  0
 13 14  1  0
 14 15  1  0
 15 16  1  0
 16 17  1  0
 17 18  1  0
 18 19  2  0
 19 20  1  0
 19 21  1  0
 21 22  2  0
 14 23  1  0
 17 23  2  0
 22 23  1  0
 13 24  1  0
 10 25  1  0
 24 25  1  0
  7 26  1  0
  4 27  1  0
 26 27  1  0
M  END
