piperidine-amides-23947-covalent
     RDKit          3D

 24 26  0  0  0  0  0  0  0  0999 V2000
    7.1660   -3.3100   19.1950 C   0  0  0  0  0  0  0  0  0  0  0  0
    6.4330   -4.1010   20.1880 C   0  0  0  0  0  0  0  0  0  0  0  0
    5.2880   -4.4980   19.8720 O   0  0  0  0  0  0  0  0  0  0  0  0
    7.0370   -4.4730   21.4090 N   0  0  0  0  0  0  0  0  0  0  0  0
    6.5430   -5.6470   22.0030 C   0  0  0  0  0  0  0  0  0  0  0  0
    5.8430   -5.3680   23.2330 C   0  0  0  0  0  0  0  0  0  0  0  0
    6.4570   -4.3280   24.0690 C   0  0  0  0  0  0  0  0  0  0  0  0
    5.5640   -4.0780   25.2130 C   0  0  0  0  0  0  0  0  0  0  0  0
    4.4010   -3.6870   25.0110 O   0  0  0  0  0  0  0  0  0  0  0  0
    5.9920   -4.2360   26.5110 N   0  0  0  0  0  0  0  0  0  0  0  0
    5.2480   -4.6820   27.5400 C   0  0  0  0  0  0  0  0  0  0  0  0
    5.3470   -3.6470   28.5410 C   0  0  0  0  0  0  0  0  0  0  0  0
    6.4010   -2.8500   28.4000 O   0  0  0  0  0  0  0  0  0  0  0  0
    6.5500   -1.9940   27.2670 C   0  0  0  0  0  0  0  0  0  0  0  0
    6.6990   -1.5750   28.5340 C   0  0  0  0  0  0  0  0  0  0  0  0
    6.8360   -0.8250   27.4320 C   0  0  0  0  0  0  0  0  0  0  0  0
    6.8550   -0.9630   28.9880 C   0  0  0  0  0  0  0  0  0  0  0  0
    6.7250   -1.6240   30.1090 N   0  0  0  0  0  0  0  0  0  0  0  0
    5.4830   -2.0450   30.4200 O   0  0  0  0  0  0  0  0  0  0  0  0
    7.3420   -0.9890   31.1570 O   0  0  0  0  0  0  0  0  0  0  0  0
    6.4720   -2.6720   28.7080 C   0  0  0  0  0  0  0  0  0  0  0  0
    6.2900   -3.1530   27.2710 C   0  0  0  0  0  0  0  0  0  0  0  0
    6.7890   -3.0470   23.3270 C   0  0  0  0  0  0  0  0  0  0  0  0
    7.7000   -3.4580   22.1750 C   0  0  0  0  0  0  0  0  0  0  0  0
  1  2  1  0
  2  3  2  0
  2  4  1  0
  4  5  1  0
  5  6  1  0
  6  7  1  0
  7  8  1  0
  8  9  2  0
  8 10  1  0
 10 11  1  0
 11 12  1  0
 12 13  1  0
 13 14  1  0
 14 15  2  0
 15 16  1  0
 16 17  2  0
 17 18  1  0
 18 19  2  0
 18 20  1  0
 17 21  1  0
 10 22  1  0
 14 22  1  0
 21 22  2  0
  7 23  1  0
  4 24  1  0
 23 24  1  0
M  CHG  2  18   1  20  -1
M  END
