piperidine-amides-19832-covalent
     RDKit          3D

 21 23  0  0  0  0  0  0  0  0999 V2000
    7.0790   -3.3260   19.3150 C   0  0  0  0  0  0  0  0  0  0  0  0
    6.4060   -4.1790   20.3330 C   0  0  0  0  0  0  0  0  0  0  0  0
    5.4050   -4.7990   19.9700 O   0  0  0  0  0  0  0  0  0  0  0  0
    6.9260   -4.2870   21.6300 N   0  0  0  0  0  0  0  0  0  0  0  0
    6.5390   -5.3670   22.5010 C   0  0  0  0  0  0  0  0  0  0  0  0
    5.8160   -4.8050   23.7020 C   0  0  0  0  0  0  0  0  0  0  0  0
    6.5920   -3.6110   24.2840 C   0  0  0  0  0  0  0  0  0  0  0  0
    5.7670   -2.9580   25.3370 C   0  0  0  0  0  0  0  0  0  0  0  0
    4.5910   -2.6470   25.1130 O   0  0  0  0  0  0  0  0  0  0  0  0
    6.3510   -2.7410   26.5980 N   0  0  0  0  0  0  0  0  0  0  0  0
    5.4370   -2.4170   27.6780 C   0  0  0  0  0  0  0  0  0  0  0  0
    5.4270   -3.6900   28.4020 C   0  0  0  0  0  0  0  0  0  0  0  0
    6.4560   -4.4310   28.0280 C   0  0  0  0  0  0  0  0  0  0  0  0
    6.6500   -5.5910   28.8090 C   0  0  0  0  0  0  0  0  0  0  0  0
    7.6750   -6.3230   28.4090 C   0  0  0  0  0  0  0  0  0  0  0  0
    8.3770   -5.8030   27.3250 C   0  0  0  0  0  0  0  0  0  0  0  0
    9.6570   -5.9410   26.1940 Cl  0  0  0  0  0  0  0  0  0  0  0  0
    7.2870   -4.8960   27.6320 C   0  0  0  0  0  0  0  0  0  0  0  0
    7.2620   -3.8450   26.7510 C   0  0  0  0  0  0  0  0  0  0  0  0
    7.0850   -2.6280   23.3040 C   0  0  0  0  0  0  0  0  0  0  0  0
    7.7810   -3.2560   22.1560 C   0  0  0  0  0  0  0  0  0  0  0  0
  1  2  1  0
  2  3  2  0
  2  4  1  0
  4  5  1  0
  5  6  1  0
  6  7  1  0
  7  8  1  0
  8  9  2  0
  8 10  1  0
 10 11  1  0
 11 12  1  0
 12 13  1  0
 13 14  1  0
 14 15  2  0
 15 16  1  0
 16 17  1  0
 16 18  2  0
 10 19  1  0
 13 19  2  0
 18 19  1  0
  7 20  1  0
  4 21  1  0
 20 21  1  0
M  END
