piperidine-amides-23935-covalent
     RDKit          3D

 23 25  0  0  0  0  0  0  0  0999 V2000
    6.9650   -3.4180   19.4470 C   0  0  0  0  0  0  0  0  0  0  0  0
    6.3260   -4.3530   20.3900 C   0  0  0  0  0  0  0  0  0  0  0  0
    5.3160   -4.9650   19.9850 O   0  0  0  0  0  0  0  0  0  0  0  0
    6.8650   -4.5790   21.6780 N   0  0  0  0  0  0  0  0  0  0  0  0
    6.4150   -5.6500   22.4780 C   0  0  0  0  0  0  0  0  0  0  0  0
    6.2120   -5.2220   23.8680 C   0  0  0  0  0  0  0  0  0  0  0  0
    5.7170   -3.8310   23.9990 C   0  0  0  0  0  0  0  0  0  0  0  0
    5.4520   -3.3240   25.4070 C   0  0  0  0  0  0  0  0  0  0  0  0
    4.5840   -2.4460   25.5370 O   0  0  0  0  0  0  0  0  0  0  0  0
    6.0790   -3.7680   26.5990 N   0  0  0  0  0  0  0  0  0  0  0  0
    5.5890   -4.6080   27.5920 C   0  0  0  0  0  0  0  0  0  0  0  0
    6.7000   -5.2160   28.2990 C   0  0  0  0  0  0  0  0  0  0  0  0
    7.8950   -4.5460   27.5580 C   0  0  0  0  0  0  0  0  0  0  0  0
    7.4010   -3.3910   26.9450 C   0  0  1  0  0  0  0  0  0  0  0  0
    8.3400   -3.3260   25.7420 C   0  0  0  0  0  0  0  0  0  0  0  0
    7.8170   -2.0600   25.1180 C   0  0  0  0  0  0  0  0  0  0  0  0
    8.6540   -1.7160   23.8770 C   0  0  0  0  0  0  0  0  0  0  0  0
    8.8180   -0.3780   23.2350 C   0  0  0  0  0  0  0  0  0  0  0  0
    9.7440   -0.6550   22.0890 C   0  0  0  0  0  0  0  0  0  0  0  0
   10.1650   -2.1300   21.9890 C   0  0  0  0  0  0  0  0  0  0  0  0
    9.4400   -3.0590   23.2370 S   0  0  0  0  0  0  0  0  0  0  0  0
    6.4540   -2.8380   23.1350 C   0  0  0  0  0  0  0  0  0  0  0  0
    7.4480   -3.4990   22.4090 C   0  0  0  0  0  0  0  0  0  0  0  0
  1  2  1  0
  2  3  2  0
  2  4  1  0
  4  5  1  0
  5  6  1  0
  6  7  1  0
  7  8  1  0
  8  9  2  0
  8 10  1  0
 10 11  1  0
 11 12  1  0
 12 13  1  0
 10 14  1  0
 13 14  1  0
 14 15  1  6
 15 16  2  3
 16 17  1  0
 17 18  2  0
 18 19  1  0
 19 20  2  0
 17 21  1  0
 20 21  1  0
  7 22  1  0
  4 23  1  0
 22 23  1  0
M  END
