piperidine-amides-932-covalent
     RDKit          3D

 24 25  0  0  0  0  0  0  0  0999 V2000
    7.1350   -3.2870   19.2580 C   0  0  0  0  0  0  0  0  0  0  0  0
    6.3280   -4.0590   20.2360 C   0  0  0  0  0  0  0  0  0  0  0  0
    5.2470   -4.5470   19.8740 O   0  0  0  0  0  0  0  0  0  0  0  0
    6.8310   -4.2720   21.5340 N   0  0  0  0  0  0  0  0  0  0  0  0
    6.4720   -5.4410   22.2880 C   0  0  0  0  0  0  0  0  0  0  0  0
    5.6750   -4.9470   23.5000 C   0  0  0  0  0  0  0  0  0  0  0  0
    6.5130   -3.8910   24.1390 C   0  0  0  0  0  0  0  0  0  0  0  0
    5.9100   -3.2810   25.3430 C   0  0  0  0  0  0  0  0  0  0  0  0
    4.6960   -3.4430   25.5300 O   0  0  0  0  0  0  0  0  0  0  0  0
    6.7510   -2.5500   26.1790 N   0  0  0  0  0  0  0  0  0  0  0  0
    6.5400   -2.0780   27.4990 C   0  0  0  0  0  0  0  0  0  0  0  0
    7.0740   -0.8680   27.9130 C   0  0  0  0  0  0  0  0  0  0  0  0
    6.6840    0.3420   27.2950 C   0  0  0  0  0  0  0  0  0  0  0  0
    7.2000    1.5670   27.6810 C   0  0  0  0  0  0  0  0  0  0  0  0
    8.1970    1.6140   28.7750 C   0  0  0  0  0  0  0  0  0  0  0  0
    8.7890    3.2370   29.1880 S   0  0  0  0  0  0  0  0  0  0  0  0
    8.8020    4.3210   27.8080 C   0  0  0  0  0  0  0  0  0  0  0  0
    7.8030    3.8020   30.1920 O   0  0  0  0  0  0  0  0  0  0  0  0
   10.1500    3.2060   29.8070 O   0  0  0  0  0  0  0  0  0  0  0  0
    8.5620    0.4590   29.3510 C   0  0  0  0  0  0  0  0  0  0  0  0
    9.4810    0.3580   30.3700 C   0  0  0  0  0  0  0  0  0  0  0  0
    7.9930   -0.8350   28.9250 C   0  0  0  0  0  0  0  0  0  0  0  0
    6.9280   -2.7740   23.2370 C   0  0  0  0  0  0  0  0  0  0  0  0
    7.6420   -3.2830   22.1920 C   0  0  0  0  0  0  0  0  0  0  0  0
  1  2  1  0
  2  3  2  0
  2  4  1  0
  4  5  1  0
  5  6  1  0
  6  7  1  0
  7  8  1  0
  8  9  2  0
  8 10  1  0
 10 11  1  0
 11 12  1  0
 12 13  2  0
 13 14  1  0
 14 15  2  0
 15 16  1  0
 16 17  1  0
 16 18  2  0
 16 19  2  0
 15 20  1  0
 20 21  1  0
 12 22  1  0
 20 22  2  0
  7 23  1  0
  4 24  1  0
 23 24  1  0
M  END
