piperidine-amides-3685-covalent
     RDKit          3D

 20 21  0  0  0  0  0  0  0  0999 V2000
    7.0520   -3.3440   19.3430 C   0  0  0  0  0  0  0  0  0  0  0  0
    6.3730   -4.2090   20.3260 C   0  0  0  0  0  0  0  0  0  0  0  0
    5.3140   -4.7610   19.9490 O   0  0  0  0  0  0  0  0  0  0  0  0
    6.9110   -4.4620   21.6120 N   0  0  0  0  0  0  0  0  0  0  0  0
    7.6400   -3.4200   22.2460 C   0  0  0  0  0  0  0  0  0  0  0  0
    7.1300   -3.0840   23.5510 C   0  0  0  0  0  0  0  0  0  0  0  0
    5.9710   -3.8740   23.9640 C   0  0  0  0  0  0  0  0  0  0  0  0
    5.5310   -3.5110   25.3460 C   0  0  0  0  0  0  0  0  0  0  0  0
    4.3580   -3.7330   25.6930 O   0  0  0  0  0  0  0  0  0  0  0  0
    6.4040   -2.8950   26.2550 N   0  0  0  0  0  0  0  0  0  0  0  0
    6.6650   -1.5150   26.3950 C   0  0  2  0  0  0  0  0  0  0  0  0
    6.5980   -0.4940   25.3350 C   0  0  0  0  0  0  0  0  0  0  0  0
    5.9270    0.5650   25.5540 O   0  0  0  0  0  0  0  0  0  0  0  0
    7.2070   -0.6080   24.0860 O   0  0  0  0  0  0  0  0  0  0  0  0
    8.5430   -1.0730   23.8940 C   0  0  0  0  0  0  0  0  0  0  0  0
    6.8550   -1.0120   27.6930 C   0  0  0  0  0  0  0  0  0  0  0  0
    5.4610   -0.8570   27.3760 C   0  0  1  0  0  0  0  0  0  0  0  0
    5.6400    0.5300   27.9050 C   0  0  0  0  0  0  0  0  0  0  0  0
    6.2700   -5.3640   23.8190 C   0  0  0  0  0  0  0  0  0  0  0  0
    6.6130   -5.6610   22.3670 C   0  0  0  0  0  0  0  0  0  0  0  0
  1  2  1  0
  2  3  2  0
  2  4  1  0
  4  5  1  0
  5  6  1  0
  6  7  1  0
  7  8  1  0
  8  9  2  0
  8 10  1  0
 11 10  1  1
 11 12  1  0
 12 13  2  0
 12 14  1  0
 14 15  1  0
 11 16  1  0
 11 17  1  0
 16 17  1  0
 17 18  1  6
  7 19  1  0
  4 20  1  0
 19 20  1  0
M  END
