piperidine-amides-12763-covalent
     RDKit          3D

 22 23  0  0  0  0  0  0  0  0999 V2000
    7.0840   -3.3250   19.2490 C   0  0  0  0  0  0  0  0  0  0  0  0
    6.3340   -4.0890   20.2680 C   0  0  0  0  0  0  0  0  0  0  0  0
    5.2560   -4.5880   19.8950 O   0  0  0  0  0  0  0  0  0  0  0  0
    6.8510   -4.2800   21.5580 N   0  0  0  0  0  0  0  0  0  0  0  0
    6.4700   -5.4080   22.3280 C   0  0  0  0  0  0  0  0  0  0  0  0
    6.1820   -5.0510   23.7200 C   0  0  0  0  0  0  0  0  0  0  0  0
    5.7600   -3.6420   23.9430 C   0  0  0  0  0  0  0  0  0  0  0  0
    5.5670   -3.3220   25.3880 C   0  0  0  0  0  0  0  0  0  0  0  0
    4.3930   -3.2230   25.7890 O   0  0  0  0  0  0  0  0  0  0  0  0
    6.6290   -3.1290   26.2960 N   0  0  0  0  0  0  0  0  0  0  0  0
    7.5250   -4.2190   26.7330 C   0  0  0  0  0  0  0  0  0  0  0  0
    8.8720   -3.9960   26.1580 C   0  0  0  0  0  0  0  0  0  0  0  0
   10.1610   -4.6100   26.3820 C   0  0  0  0  0  0  0  0  0  0  0  0
   11.1490   -3.9800   25.5360 N   0  0  0  0  0  0  0  0  0  0  0  0
   10.7440   -2.9360   24.6730 C   0  0  0  0  0  0  0  0  0  0  0  0
   11.2910   -2.0870   23.7300 C   0  0  0  0  0  0  0  0  0  0  0  0
   12.6500   -2.1270   23.7040 C   0  0  0  0  0  0  0  0  0  0  0  0
   13.1850   -2.1720   24.9560 C   0  0  0  0  0  0  0  0  0  0  0  0
   13.0980   -0.9930   23.0450 C   0  0  0  0  0  0  0  0  0  0  0  0
    8.9580   -2.6950   24.9310 S   0  0  0  0  0  0  0  0  0  0  0  0
    6.6460   -2.6270   23.2440 C   0  0  0  0  0  0  0  0  0  0  0  0
    7.5790   -3.2670   22.2830 C   0  0  0  0  0  0  0  0  0  0  0  0
  1  2  1  0
  2  3  2  0
  2  4  1  0
  4  5  1  0
  5  6  1  0
  6  7  1  0
  7  8  1  0
  8  9  2  0
  8 10  1  0
 10 11  1  0
 11 12  1  0
 12 13  2  0
 13 14  1  0
 14 15  2  0
 15 16  1  0
 16 17  1  0
 17 18  1  0
 17 19  1  0
 12 20  1  0
 15 20  1  0
  7 21  1  0
  4 22  1  0
 21 22  1  0
M  END
