piperidine-amides-34278-covalent
     RDKit          3D

 30 32  0  0  0  0  0  0  0  0999 V2000
    7.0280   -3.3470   19.3870 C   0  0  0  0  0  0  0  0  0  0  0  0
    6.3710   -4.2190   20.3790 C   0  0  0  0  0  0  0  0  0  0  0  0
    5.4210   -4.9420   20.0080 O   0  0  0  0  0  0  0  0  0  0  0  0
    6.8160   -4.2850   21.7210 N   0  0  0  0  0  0  0  0  0  0  0  0
    6.6060   -5.5240   22.4580 C   0  0  0  0  0  0  0  0  0  0  0  0
    6.1640   -5.1900   23.9020 C   0  0  0  0  0  0  0  0  0  0  0  0
    6.2250   -3.6850   24.0600 C   0  0  0  0  0  0  0  0  0  0  0  0
    5.8980   -3.2200   25.4430 C   0  0  0  0  0  0  0  0  0  0  0  0
    5.4490   -2.0660   25.5610 O   0  0  0  0  0  0  0  0  0  0  0  0
    6.0340   -4.0610   26.5860 N   0  0  0  0  0  0  0  0  0  0  0  0
    5.0200   -5.0350   26.7220 C   0  0  0  0  0  0  0  0  0  0  0  0
    4.1820   -4.6780   27.9350 C   0  0  0  0  0  0  0  0  0  0  0  0
    4.9160   -5.0600   29.1070 N   0  0  0  0  0  0  0  0  0  0  0  0
    4.5090   -6.1010   30.0690 C   0  0  0  0  0  0  0  0  0  0  0  0
    3.3100   -6.7110   29.6320 C   0  0  0  0  0  0  0  0  0  0  0  0
    2.6700   -7.7370   30.3800 C   0  0  0  0  0  0  0  0  0  0  0  0
    3.1290   -8.2250   31.5690 C   0  0  0  0  0  0  0  0  0  0  0  0
    4.3830   -7.5510   31.9680 C   0  0  0  0  0  0  0  0  0  0  0  0
    4.3830   -8.4160   33.2170 C   0  0  0  0  0  0  0  0  0  0  0  0
    3.3330   -9.2490   33.4070 F   0  0  0  0  0  0  0  0  0  0  0  0
    4.2860   -7.5220   34.2990 F   0  0  0  0  0  0  0  0  0  0  0  0
    5.6160   -8.9630   33.3270 F   0  0  0  0  0  0  0  0  0  0  0  0
    5.0730   -6.5200   31.2450 C   0  0  0  0  0  0  0  0  0  0  0  0
    6.3150   -4.9030   28.7340 C   0  0  0  0  0  0  0  0  0  0  0  0
    6.0390   -3.7130   27.9990 C   0  0  1  0  0  0  0  0  0  0  0  0
    6.7880   -2.6230   28.3100 C   0  0  0  0  0  0  0  0  0  0  0  0
    6.2670   -1.6060   29.2930 C   0  0  0  0  0  0  0  0  0  0  0  0
    7.2450   -0.7480   30.0690 C   0  0  0  0  0  0  0  0  0  0  0  0
    7.4910   -3.0600   23.5920 C   0  0  0  0  0  0  0  0  0  0  0  0
    7.6450   -3.2050   22.2340 C   0  0  0  0  0  0  0  0  0  0  0  0
  1  2  1  0
  2  3  2  0
  2  4  1  0
  4  5  1  0
  5  6  1  0
  6  7  1  0
  7  8  1  0
  8  9  2  0
  8 10  1  0
 10 11  1  0
 11 12  1  0
 12 13  1  0
 13 14  1  0
 14 15  2  0
 15 16  1  0
 16 17  2  0
 17 18  1  0
 18 19  1  0
 19 20  1  0
 19 21  1  0
 19 22  1  0
 14 23  1  0
 18 23  2  0
 13 24  1  0
 10 25  1  0
 24 25  1  0
 25 26  1  6
 26 27  1  0
 27 28  1  0
  7 29  1  0
  4 30  1  0
 29 30  1  0
M  END
