piperidine-amides-32390-covalent
     RDKit          3D

 28 30  0  0  0  0  0  0  0  0999 V2000
    7.0710   -3.3410   19.3350 C   0  0  0  0  0  0  0  0  0  0  0  0
    6.4130   -4.1930   20.3640 C   0  0  0  0  0  0  0  0  0  0  0  0
    5.4430   -4.8930   20.0060 O   0  0  0  0  0  0  0  0  0  0  0  0
    6.9360   -4.2110   21.6870 N   0  0  0  0  0  0  0  0  0  0  0  0
    7.8060   -3.1460   22.1670 C   0  0  0  0  0  0  0  0  0  0  0  0
    7.5460   -2.9630   23.6650 C   0  0  0  0  0  0  0  0  0  0  0  0
    6.1460   -3.4080   23.8290 C   0  0  0  0  0  0  0  0  0  0  0  0
    5.4500   -2.9860   25.0760 C   0  0  0  0  0  0  0  0  0  0  0  0
    4.2820   -2.6280   24.9120 O   0  0  0  0  0  0  0  0  0  0  0  0
    6.0210   -3.0000   26.3500 N   0  0  0  0  0  0  0  0  0  0  0  0
    5.8020   -4.1950   27.1010 C   0  0  0  0  0  0  0  0  0  0  0  0
    5.1270   -5.2890   26.5830 C   0  0  0  0  0  0  0  0  0  0  0  0
    4.8980   -6.4820   27.2930 C   0  0  0  0  0  0  0  0  0  0  0  0
    5.3520   -6.6150   28.5760 C   0  0  0  0  0  0  0  0  0  0  0  0
    5.1690   -7.8210   29.4230 C   0  0  0  0  0  0  0  0  0  0  0  0
    5.5940   -7.5980   30.7490 N   0  0  0  0  0  0  0  0  0  0  0  0
    6.0370   -5.6090   29.2060 C   0  0  0  0  0  0  0  0  0  0  0  0
    6.2590   -4.3400   28.4070 C   0  0  0  0  0  0  0  0  0  0  0  0
    6.1260   -1.6610   26.9230 C   0  0  0  0  0  0  0  0  0  0  0  0
    5.6780   -0.5270   26.1030 C   0  0  0  0  0  0  0  0  0  0  0  0
    5.8400    0.8290   26.8570 C   0  0  0  0  0  0  0  0  0  0  0  0
    6.2930    1.3200   28.1070 C   0  0  0  0  0  0  0  0  0  0  0  0
    6.3900    2.9520   28.7640 Cl  0  0  0  0  0  0  0  0  0  0  0  0
    6.6820   -0.0370   28.7130 C   0  0  0  0  0  0  0  0  0  0  0  0
    6.5870   -1.3860   28.1340 C   0  0  0  0  0  0  0  0  0  0  0  0
    7.0600   -2.4490   29.0440 C   0  0  0  0  0  0  0  0  0  0  0  0
    6.0060   -4.9100   23.7020 C   0  0  0  0  0  0  0  0  0  0  0  0
    6.5880   -5.3320   22.5080 C   0  0  0  0  0  0  0  0  0  0  0  0
  1  2  1  0
  2  3  2  0
  2  4  1  0
  4  5  1  0
  5  6  1  0
  6  7  1  0
  7  8  1  0
  8  9  2  0
  8 10  1  0
 10 11  1  0
 11 12  2  0
 12 13  1  0
 13 14  2  0
 14 15  1  0
 15 16  3  0
 14 17  1  0
 11 18  1  0
 17 18  2  0
 10 19  1  0
 19 20  2  0
 20 21  1  0
 21 22  2  0
 22 23  1  0
 22 24  1  0
 19 25  1  0
 24 25  2  0
 25 26  1  0
  7 27  1  0
  4 28  1  0
 27 28  1  0
M  END
