piperidine-amides-1246-covalent
     RDKit          3D

 22 24  0  0  0  0  0  0  0  0999 V2000
    7.0990   -3.2960   19.3090 C   0  0  0  0  0  0  0  0  0  0  0  0
    6.3020   -4.0700   20.3030 C   0  0  0  0  0  0  0  0  0  0  0  0
    5.2740   -4.6470   19.9160 O   0  0  0  0  0  0  0  0  0  0  0  0
    6.7510   -4.1710   21.6390 N   0  0  0  0  0  0  0  0  0  0  0  0
    6.6710   -5.4170   22.3710 C   0  0  0  0  0  0  0  0  0  0  0  0
    6.0230   -5.1430   23.7370 C   0  0  0  0  0  0  0  0  0  0  0  0
    6.0340   -3.6710   23.9710 C   0  0  0  0  0  0  0  0  0  0  0  0
    5.5850   -3.2740   25.3330 C   0  0  0  0  0  0  0  0  0  0  0  0
    4.3660   -3.1440   25.4780 O   0  0  0  0  0  0  0  0  0  0  0  0
    6.5030   -3.0630   26.3720 N   0  0  0  0  0  0  0  0  0  0  0  0
    6.3490   -3.3290   27.7650 C   0  0  0  0  0  0  0  0  0  0  0  0
    5.2770   -3.9240   28.3820 C   0  0  0  0  0  0  0  0  0  0  0  0
    3.9480   -3.6080   28.2290 C   0  0  0  0  0  0  0  0  0  0  0  0
    3.2130   -4.4170   29.0060 C   0  0  0  0  0  0  0  0  0  0  0  0
    4.0090   -5.2750   29.6820 N   0  0  0  0  0  0  0  0  0  0  0  0
    3.6120   -6.2270   30.5500 C   0  0  0  0  0  0  0  0  0  0  0  0
    2.7590   -7.3800   30.0370 C   0  0  0  0  0  0  0  0  0  0  0  0
    1.7500   -6.8000   30.9700 C   0  0  0  0  0  0  0  0  0  0  0  0
    2.4870   -5.7360   31.4730 C   0  0  0  0  0  0  0  0  0  0  0  0
    5.2750   -4.9660   29.2940 N   0  0  0  0  0  0  0  0  0  0  0  0
    7.3310   -3.0230   23.6380 C   0  0  0  0  0  0  0  0  0  0  0  0
    7.6220   -3.1270   22.1550 C   0  0  0  0  0  0  0  0  0  0  0  0
  1  2  1  0
  2  3  2  0
  2  4  1  0
  4  5  1  0
  5  6  1  0
  6  7  1  0
  7  8  1  0
  8  9  2  0
  8 10  1  0
 10 11  1  0
 11 12  1  0
 12 13  1  0
 13 14  2  0
 14 15  1  0
 15 16  1  0
 16 17  1  0
 17 18  1  0
 16 19  1  0
 18 19  1  0
 12 20  2  0
 15 20  1  0
  7 21  1  0
  4 22  1  0
 21 22  1  0
M  END
