piperidine-amides-25373-covalent
     RDKit          3D

 25 27  0  0  0  0  0  0  0  0999 V2000
    7.0560   -3.3500   19.3670 C   0  0  0  0  0  0  0  0  0  0  0  0
    6.4030   -4.2430   20.3640 C   0  0  0  0  0  0  0  0  0  0  0  0
    5.4080   -4.8600   19.9880 O   0  0  0  0  0  0  0  0  0  0  0  0
    6.9500   -4.3840   21.6530 N   0  0  0  0  0  0  0  0  0  0  0  0
    6.6750   -5.5700   22.4410 C   0  0  0  0  0  0  0  0  0  0  0  0
    6.2100   -5.1800   23.8300 C   0  0  0  0  0  0  0  0  0  0  0  0
    6.0910   -3.6590   23.9090 C   0  0  0  0  0  0  0  0  0  0  0  0
    5.5590   -3.1820   25.2040 C   0  0  0  0  0  0  0  0  0  0  0  0
    4.9740   -2.0990   25.2190 O   0  0  0  0  0  0  0  0  0  0  0  0
    5.6350   -3.8800   26.4100 N   0  0  0  0  0  0  0  0  0  0  0  0
    6.3960   -3.2780   27.4330 C   0  0  0  0  0  0  0  0  0  0  0  0
    6.6520   -4.4160   28.4010 C   0  0  0  0  0  0  0  0  0  0  0  0
    5.6650   -4.8410   29.1800 C   0  0  0  0  0  0  0  0  0  0  0  0
    5.7760   -5.9830   29.8990 C   0  0  0  0  0  0  0  0  0  0  0  0
    4.9870   -3.6430   29.8420 C   0  0  0  0  0  0  0  0  0  0  0  0
    5.8070   -2.3510   29.7550 C   0  0  0  0  0  0  0  0  0  0  0  0
    5.1490   -1.1700   30.4100 C   0  0  0  0  0  0  0  0  0  0  0  0
    3.8090   -1.3410   31.0630 C   0  0  0  0  0  0  0  0  0  0  0  0
    3.2970   -0.0770   31.6670 C   0  0  0  0  0  0  0  0  0  0  0  0
    3.0080   -2.6090   31.1440 C   0  0  0  0  0  0  0  0  0  0  0  0
    3.6420   -3.8140   30.4950 C   0  0  0  0  0  0  0  0  0  0  0  0
    4.7900   -5.3790   28.0710 C   0  0  0  0  0  0  0  0  0  0  0  0
    4.4540   -4.2510   27.1360 C   0  0  0  0  0  0  0  0  0  0  0  0
    7.4400   -3.0740   23.6270 C   0  0  0  0  0  0  0  0  0  0  0  0
    7.7260   -3.2870   22.1720 C   0  0  0  0  0  0  0  0  0  0  0  0
  1  2  1  0
  2  3  2  0
  2  4  1  0
  4  5  1  0
  5  6  1  0
  6  7  1  0
  7  8  1  0
  8  9  2  0
  8 10  1  0
 10 11  1  0
 11 12  1  0
 12 13  1  0
 13 14  1  0
 13 15  1  0
 15 16  2  0
 16 17  1  0
 17 18  2  0
 18 19  1  0
 18 20  1  0
 15 21  1  0
 20 21  2  0
 13 22  1  0
 10 23  1  0
 22 23  1  0
  7 24  1  0
  4 25  1  0
 24 25  1  0
M  END
