piperidine-amides-32899-covalent
     RDKit          3D

 29 31  0  0  0  0  0  0  0  0999 V2000
    7.0780   -3.3340   19.3350 C   0  0  0  0  0  0  0  0  0  0  0  0
    6.4040   -4.2300   20.3090 C   0  0  0  0  0  0  0  0  0  0  0  0
    5.3540   -4.7980   19.9680 O   0  0  0  0  0  0  0  0  0  0  0  0
    6.9990   -4.4700   21.5650 N   0  0  0  0  0  0  0  0  0  0  0  0
    6.6180   -5.6060   22.3450 C   0  0  0  0  0  0  0  0  0  0  0  0
    5.6030   -5.0640   23.3510 C   0  0  0  0  0  0  0  0  0  0  0  0
    6.2940   -4.0560   24.2190 C   0  0  0  0  0  0  0  0  0  0  0  0
    5.3700   -3.4290   25.1960 C   0  0  0  0  0  0  0  0  0  0  0  0
    4.5630   -2.6310   24.7310 O   0  0  0  0  0  0  0  0  0  0  0  0
    5.4120   -3.7380   26.5550 N   0  0  0  0  0  0  0  0  0  0  0  0
    4.3290   -4.0670   27.3940 C   0  0  0  0  0  0  0  0  0  0  0  0
    4.4930   -4.4680   28.7010 C   0  0  0  0  0  0  0  0  0  0  0  0
    5.6810   -4.1560   29.3280 C   0  0  0  0  0  0  0  0  0  0  0  0
    5.7950   -2.9340   29.9780 O   0  0  0  0  0  0  0  0  0  0  0  0
    4.7810   -2.0780   30.3930 C   0  0  0  0  0  0  0  0  0  0  0  0
    3.5890   -2.6600   31.0720 C   0  0  0  0  0  0  0  0  0  0  0  0
    2.4010   -1.8450   31.5950 C   0  0  0  0  0  0  0  0  0  0  0  0
    2.5800   -0.3500   31.3380 C   0  0  0  0  0  0  0  0  0  0  0  0
    1.5920    0.5190   31.7570 C   0  0  0  0  0  0  0  0  0  0  0  0
    0.3470    0.4090   31.1790 O   0  0  0  0  0  0  0  0  0  0  0  0
    1.7720    1.4630   32.6990 N   0  0  0  0  0  0  0  0  0  0  0  0
    1.9190    0.8140   33.9460 C   0  0  0  0  0  0  0  0  0  0  0  0
    0.7120    2.3820   32.5130 C   0  0  0  0  0  0  0  0  0  0  0  0
    3.7180    0.0880   30.7020 C   0  0  0  0  0  0  0  0  0  0  0  0
    4.7400   -0.6610   30.2570 N   0  0  0  0  0  0  0  0  0  0  0  0
    6.7300   -4.1340   28.4350 C   0  0  0  0  0  0  0  0  0  0  0  0
    6.4610   -3.1320   27.3270 C   0  0  0  0  0  0  0  0  0  0  0  0
    6.9380   -2.9170   23.4430 C   0  0  0  0  0  0  0  0  0  0  0  0
    7.6880   -3.3830   22.2490 C   0  0  0  0  0  0  0  0  0  0  0  0
  1  2  1  0
  2  3  2  0
  2  4  1  0
  4  5  1  0
  5  6  1  0
  6  7  1  0
  7  8  1  0
  8  9  2  0
  8 10  1  0
 10 11  1  0
 11 12  1  0
 12 13  1  0
 13 14  1  0
 14 15  1  0
 15 16  2  0
 16 17  1  0
 17 18  2  0
 18 19  1  0
 19 20  2  0
 19 21  1  0
 21 22  1  0
 21 23  1  0
 18 24  1  0
 15 25  1  0
 24 25  2  0
 13 26  1  0
 10 27  1  0
 26 27  1  0
  7 28  1  0
  4 29  1  0
 28 29  1  0
M  END
