piperidine-amides-24768-covalent
     RDKit          3D

 24 25  0  0  0  0  0  0  0  0999 V2000
    7.0830   -3.2640   19.2610 C   0  0  0  0  0  0  0  0  0  0  0  0
    6.3620   -4.0550   20.2720 C   0  0  0  0  0  0  0  0  0  0  0  0
    5.3280   -4.6770   19.9370 O   0  0  0  0  0  0  0  0  0  0  0  0
    6.8230   -4.1810   21.5960 N   0  0  0  0  0  0  0  0  0  0  0  0
    6.6290   -5.4570   22.2400 C   0  0  0  0  0  0  0  0  0  0  0  0
    6.2040   -5.2030   23.6940 C   0  0  0  0  0  0  0  0  0  0  0  0
    6.0530   -3.7090   23.8950 C   0  0  0  0  0  0  0  0  0  0  0  0
    5.5630   -3.3710   25.2700 C   0  0  0  0  0  0  0  0  0  0  0  0
    4.3610   -3.0470   25.3590 O   0  0  0  0  0  0  0  0  0  0  0  0
    6.3800   -3.3680   26.4440 N   0  0  0  0  0  0  0  0  0  0  0  0
    6.6820   -2.0610   26.9730 C   0  0  0  0  0  0  0  0  0  0  0  0
    6.3150   -4.5170   27.3780 C   0  0  1  0  0  0  0  0  0  0  0  0
    6.9200   -4.1670   28.5520 C   0  0  0  0  0  0  0  0  0  0  0  0
    4.9850   -5.0500   27.8570 C   0  0  0  0  0  0  0  0  0  0  0  0
    4.3170   -5.9850   27.0610 C   0  0  0  0  0  0  0  0  0  0  0  0
    4.7770   -6.4360   25.9060 C   0  0  0  0  0  0  0  0  0  0  0  0
    5.9890   -5.8530   25.6390 F   0  0  0  0  0  0  0  0  0  0  0  0
    4.1790   -7.4190   24.9430 C   0  0  0  0  0  0  0  0  0  0  0  0
    2.8840   -7.7280   25.7470 C   0  0  0  0  0  0  0  0  0  0  0  0
    2.1840   -7.3320   27.0660 C   0  0  0  0  0  0  0  0  0  0  0  0
    3.1510   -6.3770   27.5990 C   0  0  0  0  0  0  0  0  0  0  0  0
    2.7540   -5.8450   28.8190 F   0  0  0  0  0  0  0  0  0  0  0  0
    7.3440   -3.0290   23.5530 C   0  0  0  0  0  0  0  0  0  0  0  0
    7.5910   -3.1320   22.2100 C   0  0  0  0  0  0  0  0  0  0  0  0
  1  2  1  0
  2  3  2  0
  2  4  1  0
  4  5  1  0
  5  6  1  0
  6  7  1  0
  7  8  1  0
  8  9  2  0
  8 10  1  0
 10 11  1  0
 10 12  1  0
 12 13  1  1
 12 14  1  0
 14 15  1  0
 15 16  2  0
 16 17  1  0
 16 18  1  0
 18 19  2  0
 19 20  1  0
 15 21  1  0
 20 21  2  0
 21 22  1  0
  7 23  1  0
  4 24  1  0
 23 24  1  0
M  END
