piperidine-amides-29953-covalent
     RDKit          3D

 26 27  0  0  0  0  0  0  0  0999 V2000
    7.0950   -3.3620   19.2950 C   0  0  0  0  0  0  0  0  0  0  0  0
    6.3530   -4.1300   20.2820 C   0  0  0  0  0  0  0  0  0  0  0  0
    5.3260   -4.7200   19.9500 O   0  0  0  0  0  0  0  0  0  0  0  0
    6.8490   -4.2490   21.6190 N   0  0  0  0  0  0  0  0  0  0  0  0
    7.6880   -3.2130   22.1700 C   0  0  0  0  0  0  0  0  0  0  0  0
    7.0680   -2.6710   23.4200 C   0  0  0  0  0  0  0  0  0  0  0  0
    6.5310   -3.8360   24.2260 C   0  0  0  0  0  0  0  0  0  0  0  0
    5.7570   -3.2850   25.3740 C   0  0  0  0  0  0  0  0  0  0  0  0
    4.5410   -3.0310   25.2770 O   0  0  0  0  0  0  0  0  0  0  0  0
    6.4030   -3.0440   26.6160 N   0  0  0  0  0  0  0  0  0  0  0  0
    6.1950   -4.0170   27.6610 C   0  0  0  0  0  0  0  0  0  0  0  0
    5.7530   -5.3010   27.0150 C   0  0  0  0  0  0  0  0  0  0  0  0
    6.2760   -6.3660   27.7040 O   0  0  0  0  0  0  0  0  0  0  0  0
    6.4930   -6.4060   29.0460 C   0  0  0  0  0  0  0  0  0  0  0  0
    6.3210   -1.6580   27.1690 C   0  0  0  0  0  0  0  0  0  0  0  0
    6.9420   -1.5600   28.4070 C   0  0  0  0  0  0  0  0  0  0  0  0
    6.9620   -0.3010   29.1270 C   0  0  0  0  0  0  0  0  0  0  0  0
    6.4010    0.8640   28.6850 C   0  0  0  0  0  0  0  0  0  0  0  0
    6.3510    2.1170   29.2740 C   0  0  0  0  0  0  0  0  0  0  0  0
    7.3340    2.2570   30.2020 F   0  0  0  0  0  0  0  0  0  0  0  0
    6.5230    3.0700   28.2930 F   0  0  0  0  0  0  0  0  0  0  0  0
    5.0900    2.3340   29.8280 F   0  0  0  0  0  0  0  0  0  0  0  0
    5.7540    0.6760   27.3350 C   0  0  0  0  0  0  0  0  0  0  0  0
    5.7220   -0.4740   26.6550 N   0  0  0  0  0  0  0  0  0  0  0  0
    5.7530   -4.8350   23.4970 C   0  0  0  0  0  0  0  0  0  0  0  0
    6.5160   -5.3540   22.4660 C   0  0  0  0  0  0  0  0  0  0  0  0
  1  2  1  0
  2  3  2  0
  2  4  1  0
  4  5  1  0
  5  6  1  0
  6  7  1  0
  7  8  1  0
  8  9  2  0
  8 10  1  0
 10 11  1  0
 11 12  1  0
 12 13  1  0
 13 14  1  0
 10 15  1  0
 15 16  2  0
 16 17  1  0
 17 18  2  0
 18 19  1  0
 19 20  1  0
 19 21  1  0
 19 22  1  0
 18 23  1  0
 15 24  1  0
 23 24  2  0
  7 25  1  0
  4 26  1  0
 25 26  1  0
M  END
