piperidine-amides-25397-covalent
     RDKit          3D

 25 27  0  0  0  0  0  0  0  0999 V2000
    7.0720   -3.3220   19.3190 C   0  0  0  0  0  0  0  0  0  0  0  0
    6.3870   -4.1730   20.3260 C   0  0  0  0  0  0  0  0  0  0  0  0
    5.3740   -4.7660   19.9610 O   0  0  0  0  0  0  0  0  0  0  0  0
    6.9190   -4.3160   21.6150 N   0  0  0  0  0  0  0  0  0  0  0  0
    6.4210   -5.3450   22.4760 C   0  0  0  0  0  0  0  0  0  0  0  0
    5.6200   -4.6820   23.5700 C   0  0  0  0  0  0  0  0  0  0  0  0
    6.4680   -3.6370   24.3290 C   0  0  0  0  0  0  0  0  0  0  0  0
    5.6150   -3.0070   25.3820 C   0  0  0  0  0  0  0  0  0  0  0  0
    4.4070   -2.8540   25.1620 O   0  0  0  0  0  0  0  0  0  0  0  0
    6.1530   -2.5970   26.6320 N   0  0  0  0  0  0  0  0  0  0  0  0
    5.2650   -2.2280   27.7310 C   0  0  0  0  0  0  0  0  0  0  0  0
    5.2980   -3.4970   28.5250 C   0  0  0  0  0  0  0  0  0  0  0  0
    5.8060   -4.4600   27.7650 C   0  0  2  0  0  0  0  0  0  0  0  0
    6.2270   -5.6290   28.1690 C   0  0  0  0  0  0  0  0  0  0  0  0
    7.1310   -5.6830   27.2370 C   0  0  0  0  0  0  0  0  0  0  0  0
    7.0460   -5.6400   25.7590 C   0  0  0  0  0  0  0  0  0  0  0  0
    8.3800   -5.6710   25.1510 C   0  0  0  0  0  0  0  0  0  0  0  0
    9.6110   -5.7500   26.0260 C   0  0  0  0  0  0  0  0  0  0  0  0
    9.4470   -5.7900   27.5010 C   0  0  0  0  0  0  0  0  0  0  0  0
    8.1840   -5.7580   28.2120 C   0  0  0  0  0  0  0  0  0  0  0  0
    6.9830   -3.5150   27.3880 C   0  0  0  0  0  0  0  0  0  0  0  0
    8.0360   -3.9670   26.4490 C   0  0  0  0  0  0  0  0  0  0  0  0
    7.6740   -2.9120   28.4260 C   0  0  0  0  0  0  0  0  0  0  0  0
    6.9360   -2.5950   23.3450 C   0  0  0  0  0  0  0  0  0  0  0  0
    7.6510   -3.2110   22.1690 C   0  0  0  0  0  0  0  0  0  0  0  0
  1  2  1  0
  2  3  2  0
  2  4  1  0
  4  5  1  0
  5  6  1  0
  6  7  1  0
  7  8  1  0
  8  9  2  0
  8 10  1  0
 10 11  1  0
 11 12  1  0
 12 13  1  0
 13 14  1  1
 14 15  1  0
 15 16  2  0
 16 17  1  0
 17 18  2  0
 18 19  1  0
 15 20  1  0
 19 20  2  0
 10 21  1  0
 13 21  1  0
 21 22  1  0
 21 23  1  0
  7 24  1  0
  4 25  1  0
 24 25  1  0
M  END
