piperidine-amides-24839-covalent
     RDKit          3D

 24 25  0  0  0  0  0  0  0  0999 V2000
    7.1090   -3.3750   19.3440 C   0  0  0  0  0  0  0  0  0  0  0  0
    6.4050   -4.2180   20.3130 C   0  0  0  0  0  0  0  0  0  0  0  0
    5.3570   -4.8140   19.9800 O   0  0  0  0  0  0  0  0  0  0  0  0
    6.9480   -4.4180   21.5910 N   0  0  0  0  0  0  0  0  0  0  0  0
    6.6110   -5.6220   22.3000 C   0  0  0  0  0  0  0  0  0  0  0  0
    5.6800   -5.1730   23.4320 C   0  0  0  0  0  0  0  0  0  0  0  0
    6.3930   -4.1100   24.2520 C   0  0  0  0  0  0  0  0  0  0  0  0
    5.4350   -3.6140   25.2650 C   0  0  0  0  0  0  0  0  0  0  0  0
    4.5940   -2.7600   24.9310 O   0  0  0  0  0  0  0  0  0  0  0  0
    5.4990   -4.1250   26.5760 N   0  0  0  0  0  0  0  0  0  0  0  0
    6.8140   -4.2720   27.0350 C   0  0  0  0  0  0  0  0  0  0  0  0
    6.7540   -4.9860   28.3210 C   0  0  0  0  0  0  0  0  0  0  0  0
    5.6080   -4.5720   28.8340 C   0  0  0  0  0  0  0  0  0  0  0  0
    5.0240   -3.7130   27.9180 C   0  0  1  0  0  0  0  0  0  0  0  0
    5.2970   -2.3410   27.9210 C   0  0  0  0  0  0  0  0  0  0  0  0
    4.6590   -1.6080   28.8980 C   0  0  0  0  0  0  0  0  0  0  0  0
    5.0760   -1.5570   30.1840 O   0  0  0  0  0  0  0  0  0  0  0  0
    3.5410   -0.8910   28.5310 O   0  0  0  0  0  0  0  0  0  0  0  0
    2.2410   -1.2910   28.9450 C   0  0  0  0  0  0  0  0  0  0  0  0
    1.9440   -2.7350   28.6210 C   0  0  0  0  0  0  0  0  0  0  0  0
    1.1440   -0.3210   29.0330 C   0  0  0  0  0  0  0  0  0  0  0  0
    1.7590   -0.9400   30.2490 C   0  0  0  0  0  0  0  0  0  0  0  0
    6.8000   -2.9490   23.3770 C   0  0  0  0  0  0  0  0  0  0  0  0
    7.5210   -3.3210   22.2840 C   0  0  0  0  0  0  0  0  0  0  0  0
  1  2  1  0
  2  3  2  0
  2  4  1  0
  4  5  1  0
  5  6  1  0
  6  7  1  0
  7  8  1  0
  8  9  2  0
  8 10  1  0
 10 11  1  0
 11 12  1  0
 12 13  1  0
 10 14  1  0
 13 14  1  0
 14 15  1  1
 15 16  1  0
 16 17  2  0
 16 18  1  0
 19 18  1  0
 19 20  1  0
 19 21  1  0
 19 22  1  0
  7 23  1  0
  4 24  1  0
 23 24  1  0
M  END
