piperidine-amides-6946-covalent
     RDKit          3D

 23 24  0  0  0  0  0  0  0  0999 V2000
    7.0210   -3.2510   19.2080 C   0  0  0  0  0  0  0  0  0  0  0  0
    6.2850   -4.0300   20.2250 C   0  0  0  0  0  0  0  0  0  0  0  0
    5.2840   -4.6950   19.9120 O   0  0  0  0  0  0  0  0  0  0  0  0
    6.7050   -4.0750   21.5530 N   0  0  0  0  0  0  0  0  0  0  0  0
    7.6400   -3.0920   22.0280 C   0  0  0  0  0  0  0  0  0  0  0  0
    7.2170   -2.7530   23.4500 C   0  0  0  0  0  0  0  0  0  0  0  0
    5.8790   -3.4180   23.7140 C   0  0  0  0  0  0  0  0  0  0  0  0
    5.4350   -3.0980   25.0870 C   0  0  0  0  0  0  0  0  0  0  0  0
    4.4160   -3.6640   25.5330 O   0  0  0  0  0  0  0  0  0  0  0  0
    6.1700   -2.1600   25.8560 N   0  0  0  0  0  0  0  0  0  0  0  0
    6.6020   -2.4870   27.1930 C   0  0  0  0  0  0  0  0  0  0  0  0
    8.1130   -2.3550   27.2310 C   0  0  0  0  0  0  0  0  0  0  0  0
    8.6180   -2.1040   25.8750 N   0  0  0  0  0  0  0  0  0  0  0  0
    9.0860   -3.1730   24.9910 C   0  0  0  0  0  0  0  0  0  0  0  0
    9.8950   -2.8450   24.0740 O   0  0  0  0  0  0  0  0  0  0  0  0
    8.5330   -4.3640   25.3580 C   0  0  0  0  0  0  0  0  0  0  0  0
    9.2930   -5.4460   25.7510 C   0  0  0  0  0  0  0  0  0  0  0  0
    9.0370   -5.9660   27.0280 C   0  0  0  0  0  0  0  0  0  0  0  0
    7.6810   -6.0250   27.7870 C   0  0  0  0  0  0  0  0  0  0  0  0
    8.1470   -4.6510   27.6760 C   0  0  0  0  0  0  0  0  0  0  0  0
    7.7270   -4.1010   26.3770 C   0  0  0  0  0  0  0  0  0  0  0  0
    5.8850   -4.9280   23.5190 C   0  0  0  0  0  0  0  0  0  0  0  0
    6.5430   -5.2790   22.3240 C   0  0  0  0  0  0  0  0  0  0  0  0
  1  2  1  0
  2  3  2  0
  2  4  1  0
  4  5  1  0
  5  6  1  0
  6  7  1  0
  7  8  1  0
  8  9  2  0
  8 10  1  0
 10 11  1  0
 11 12  1  0
 12 13  1  0
 13 14  1  0
 14 15  2  0
 14 16  1  0
 16 17  1  0
 17 18  1  0
 18 19  1  0
 19 20  1  0
 16 21  1  0
 20 21  1  0
  7 22  1  0
  4 23  1  0
 22 23  1  0
M  END
