piperidine-amides-18875-covalent
     RDKit          3D

 21 22  0  0  0  0  0  0  0  0999 V2000
    7.1050   -3.3530   19.4380 C   0  0  0  0  0  0  0  0  0  0  0  0
    6.4140   -4.1850   20.3970 C   0  0  0  0  0  0  0  0  0  0  0  0
    5.4350   -4.8960   19.9960 O   0  0  0  0  0  0  0  0  0  0  0  0
    6.8310   -4.2410   21.7430 N   0  0  0  0  0  0  0  0  0  0  0  0
    6.7690   -5.5910   22.3850 C   0  0  0  0  0  0  0  0  0  0  0  0
    6.0940   -5.3080   23.7950 C   0  0  0  0  0  0  0  0  0  0  0  0
    6.3390   -3.8530   24.0630 C   0  0  0  0  0  0  0  0  0  0  0  0
    5.3610   -3.2570   25.1770 C   0  0  0  0  0  0  0  0  0  0  0  0
    4.5830   -2.5050   24.6220 O   0  0  0  0  0  0  0  0  0  0  0  0
    5.5610   -3.6690   26.3700 N   0  0  0  0  0  0  0  0  0  0  0  0
    5.2880   -4.3450   27.5180 C   0  0  0  0  0  0  0  0  0  0  0  0
    5.9110   -4.9410   28.5610 C   0  0  1  0  0  0  0  0  0  0  0  0
    6.3350   -6.2620   28.2710 C   0  0  0  0  0  0  0  0  0  0  0  0
    7.0870   -4.2940   28.8010 O   0  0  0  0  0  0  0  0  0  0  0  0
    6.7340   -2.9950   28.4920 C   0  0  2  0  0  0  0  0  0  0  0  0
    5.5320   -2.4570   29.2830 C   0  0  0  0  0  0  0  0  0  0  0  0
    4.8350   -1.5330   28.7860 O   0  0  0  0  0  0  0  0  0  0  0  0
    5.3140   -0.2680   29.0680 C   0  0  0  0  0  0  0  0  0  0  0  0
    6.3720   -2.6790   27.0450 C   0  0  0  0  0  0  0  0  0  0  0  0
    7.6520   -3.3620   23.8340 C   0  0  0  0  0  0  0  0  0  0  0  0
    7.7190   -3.2690   22.2850 C   0  0  0  0  0  0  0  0  0  0  0  0
  1  2  1  0
  2  3  2  0
  2  4  1  0
  4  5  1  0
  5  6  1  0
  6  7  1  0
  7  8  1  0
  8  9  2  0
  8 10  1  0
 10 11  1  0
 11 12  1  0
 12 13  1  6
 12 14  1  0
 14 15  1  0
 15 16  1  1
 16 17  1  0
 17 18  1  0
 10 19  1  0
 15 19  1  0
  7 20  1  0
  4 21  1  0
 20 21  1  0
M  END
