piperidine-amides-30376-covalent
     RDKit          3D

 27 29  0  0  0  0  0  0  0  0999 V2000
    7.0270   -3.3560   19.3880 C   0  0  0  0  0  0  0  0  0  0  0  0
    6.3690   -4.1930   20.4000 C   0  0  0  0  0  0  0  0  0  0  0  0
    5.4460   -4.9400   20.0160 O   0  0  0  0  0  0  0  0  0  0  0  0
    6.7770   -4.1910   21.7580 N   0  0  0  0  0  0  0  0  0  0  0  0
    7.7430   -3.2180   22.2530 C   0  0  0  0  0  0  0  0  0  0  0  0
    7.4290   -2.9900   23.7000 C   0  0  0  0  0  0  0  0  0  0  0  0
    6.2290   -3.7840   24.0870 C   0  0  0  0  0  0  0  0  0  0  0  0
    5.6940   -3.4870   25.4620 C   0  0  0  0  0  0  0  0  0  0  0  0
    4.6820   -2.7350   25.5470 O   0  0  0  0  0  0  0  0  0  0  0  0
    6.1910   -3.9660   26.7180 N   0  0  0  0  0  0  0  0  0  0  0  0
    6.1100   -3.1140   27.9140 C   0  0  0  0  0  0  0  0  0  0  0  0
    4.8660   -3.4900   28.6260 C   0  0  0  0  0  0  0  0  0  0  0  0
    4.9800   -4.6790   29.2570 N   0  0  0  0  0  0  0  0  0  0  0  0
    4.0440   -5.1460   30.2280 C   0  0  0  0  0  0  0  0  0  0  0  0
    2.6310   -4.9460   29.7050 C   0  0  0  0  0  0  0  0  0  0  0  0
    2.5680   -3.6360   29.3040 O   0  0  0  0  0  0  0  0  0  0  0  0
    1.5920   -5.9120   29.6700 N   0  0  0  0  0  0  0  0  0  0  0  0
    1.5060   -6.7390   28.6150 C   0  0  0  0  0  0  0  0  0  0  0  0
    1.8210   -8.1040   28.2940 C   0  0  0  0  0  0  0  0  0  0  0  0
    1.4410   -8.1800   27.0180 C   0  0  0  0  0  0  0  0  0  0  0  0
    1.5480   -9.3320   26.2240 C   0  0  0  0  0  0  0  0  0  0  0  0
    0.9640   -7.1140   26.5560 O   0  0  0  0  0  0  0  0  0  0  0  0
    0.9720   -6.1640   27.5040 N   0  0  0  0  0  0  0  0  0  0  0  0
    4.9170   -5.3840   28.1020 C   0  0  0  0  0  0  0  0  0  0  0  0
    6.0230   -5.3660   27.0820 C   0  0  0  0  0  0  0  0  0  0  0  0
    6.5390   -5.2510   23.7460 C   0  0  0  0  0  0  0  0  0  0  0  0
    6.4530   -5.4090   22.5330 C   0  0  0  0  0  0  0  0  0  0  0  0
  1  2  1  0
  2  3  2  0
  2  4  1  0
  4  5  1  0
  5  6  1  0
  6  7  1  0
  7  8  1  0
  8  9  2  0
  8 10  1  0
 10 11  1  0
 11 12  1  0
 12 13  1  0
 13 14  1  0
 14 15  1  0
 15 16  2  0
 15 17  1  0
 17 18  1  0
 18 19  1  0
 19 20  2  0
 20 21  1  0
 20 22  1  0
 18 23  2  0
 22 23  1  0
 13 24  1  0
 10 25  1  0
 24 25  1  0
  7 26  1  0
  4 27  1  0
 26 27  1  0
M  END
