piperidine-amides-872-covalent
     RDKit          3D

 24 25  0  0  0  0  0  0  0  0999 V2000
    7.0320   -3.3600   19.3080 C   0  0  0  0  0  0  0  0  0  0  0  0
    6.3540   -4.1070   20.3530 C   0  0  0  0  0  0  0  0  0  0  0  0
    5.3640   -4.8050   19.9790 O   0  0  0  0  0  0  0  0  0  0  0  0
    6.7520   -4.1450   21.7220 N   0  0  0  0  0  0  0  0  0  0  0  0
    6.7120   -5.5010   22.3260 C   0  0  0  0  0  0  0  0  0  0  0  0
    6.2980   -5.2080   23.8220 C   0  0  0  0  0  0  0  0  0  0  0  0
    6.1610   -3.7140   23.9120 C   0  0  0  0  0  0  0  0  0  0  0  0
    5.1780   -3.2520   25.0820 C   0  0  0  0  0  0  0  0  0  0  0  0
    4.0350   -3.2580   24.6610 O   0  0  0  0  0  0  0  0  0  0  0  0
    5.7860   -2.9900   26.1730 N   0  0  0  0  0  0  0  0  0  0  0  0
    6.3210   -2.6520   27.3730 C   0  0  0  0  0  0  0  0  0  0  0  0
    6.1340   -1.9320   28.5270 C   0  0  0  0  0  0  0  0  0  0  0  0
    7.2080   -1.3350   29.2620 C   0  0  0  0  0  0  0  0  0  0  0  0
    7.2930   -0.5290   30.4990 C   0  0  0  0  0  0  0  0  0  0  0  0
    5.8940   -0.3260   31.0610 C   0  0  0  0  0  0  0  0  0  0  0  0
    4.7270   -0.8740   30.4160 N   0  0  0  0  0  0  0  0  0  0  0  0
    4.7770   -1.6410   29.2210 C   0  0  0  0  0  0  0  0  0  0  0  0
    3.6800   -2.0530   28.7760 O   0  0  0  0  0  0  0  0  0  0  0  0
    2.4560   -1.8910   29.3800 C   0  0  0  0  0  0  0  0  0  0  0  0
    1.6720   -3.1110   29.8750 C   0  0  0  0  0  0  0  0  0  0  0  0
    0.7170   -3.6130   29.0700 F   0  0  0  0  0  0  0  0  0  0  0  0
    0.9460   -2.7720   31.0460 F   0  0  0  0  0  0  0  0  0  0  0  0
    7.4590   -3.0390   23.6240 C   0  0  0  0  0  0  0  0  0  0  0  0
    7.6400   -3.1190   22.2520 C   0  0  0  0  0  0  0  0  0  0  0  0
  1  2  1  0
  2  3  2  0
  2  4  1  0
  4  5  1  0
  5  6  1  0
  6  7  1  0
  7  8  1  0
  8  9  2  0
  8 10  1  0
 10 11  1  0
 11 12  1  0
 12 13  2  0
 13 14  1  0
 14 15  2  0
 15 16  1  0
 12 17  1  0
 16 17  2  0
 17 18  1  0
 18 19  1  0
 19 20  1  0
 20 21  1  0
 20 22  1  0
  7 23  1  0
  4 24  1  0
 23 24  1  0
M  END
