piperidine-amides-3958-covalent
     RDKit          3D

 30 32  0  0  0  0  0  0  0  0999 V2000
    7.1120   -3.2920   19.2280 C   0  0  0  0  0  0  0  0  0  0  0  0
    6.3820   -4.0470   20.2610 C   0  0  0  0  0  0  0  0  0  0  0  0
    5.3010   -4.5720   19.9020 O   0  0  0  0  0  0  0  0  0  0  0  0
    6.8990   -4.2310   21.5750 N   0  0  0  0  0  0  0  0  0  0  0  0
    7.6570   -3.1710   22.1540 C   0  0  0  0  0  0  0  0  0  0  0  0
    7.3300   -2.9160   23.5510 C   0  0  0  0  0  0  0  0  0  0  0  0
    6.0680   -3.5560   23.9720 C   0  0  0  0  0  0  0  0  0  0  0  0
    5.5990   -3.0980   25.3230 C   0  0  0  0  0  0  0  0  0  0  0  0
    4.4980   -2.5250   25.4000 O   0  0  0  0  0  0  0  0  0  0  0  0
    6.3260   -3.2980   26.5100 N   0  0  0  0  0  0  0  0  0  0  0  0
    6.0460   -4.2400   27.5250 C   0  0  0  0  0  0  0  0  0  0  0  0
    5.7120   -5.6210   27.1770 C   0  0  0  0  0  0  0  0  0  0  0  0
    5.9190   -6.5270   28.3920 C   0  0  0  0  0  0  0  0  0  0  0  0
    5.3660   -6.0970   29.5690 C   0  0  0  0  0  0  0  0  0  0  0  0
    4.3880   -7.2710   29.6420 C   0  0  0  0  0  0  0  0  0  0  0  0
    3.5450   -6.5050   30.6140 C   0  0  0  0  0  0  0  0  0  0  0  0
    4.4120   -7.1040   31.7330 C   0  0  0  0  0  0  0  0  0  0  0  0
    4.0040   -8.2530   32.4170 N   0  0  0  0  0  0  0  0  0  0  0  0
    5.0770   -8.4300   33.3230 C   0  0  0  0  0  0  0  0  0  0  0  0
    5.0010   -9.6230   34.2550 C   0  0  0  0  0  0  0  0  0  0  0  0
    6.1680  -10.6140   34.3580 C   0  0  0  0  0  0  0  0  0  0  0  0
    6.0410  -11.7740   35.2830 C   0  0  0  0  0  0  0  0  0  0  0  0
    4.8940  -11.9850   36.0550 C   0  0  0  0  0  0  0  0  0  0  0  0
    4.7510  -13.3610   37.1410 Cl  0  0  0  0  0  0  0  0  0  0  0  0
    3.8640  -11.0740   35.9400 C   0  0  0  0  0  0  0  0  0  0  0  0
    3.9090   -9.8740   35.0300 C   0  0  0  0  0  0  0  0  0  0  0  0
    6.0030   -7.4120   33.1340 N   0  0  0  0  0  0  0  0  0  0  0  0
    5.6250   -6.6130   32.1820 O   0  0  0  0  0  0  0  0  0  0  0  0
    6.1530   -5.0440   23.7900 C   0  0  0  0  0  0  0  0  0  0  0  0
    6.4840   -5.3750   22.3360 C   0  0  0  0  0  0  0  0  0  0  0  0
  1  2  1  0
  2  3  2  0
  2  4  1  0
  4  5  1  0
  5  6  1  0
  6  7  1  0
  7  8  1  0
  8  9  2  0
  8 10  1  0
 10 11  1  0
 11 12  1  0
 12 13  1  0
 13 14  1  0
 14 15  1  0
 15 16  1  0
 16 17  1  0
 17 18  2  0
 18 19  1  0
 19 20  1  0
 20 21  2  0
 21 22  1  0
 22 23  2  0
 23 24  1  0
 23 25  1  0
 20 26  1  0
 25 26  2  0
 19 27  2  0
 17 28  1  0
 27 28  1  0
  7 29  1  0
  4 30  1  0
 29 30  1  0
M  END
