piperidine-amides-23717-covalent
     RDKit          3D

 24 27  0  0  0  0  0  0  0  0999 V2000
    7.1120   -3.3320   19.2860 C   0  0  0  0  0  0  0  0  0  0  0  0
    6.3690   -4.0900   20.3030 C   0  0  0  0  0  0  0  0  0  0  0  0
    5.2980   -4.6200   19.9200 O   0  0  0  0  0  0  0  0  0  0  0  0
    6.8750   -4.2620   21.6220 N   0  0  0  0  0  0  0  0  0  0  0  0
    6.5240   -5.4260   22.3640 C   0  0  0  0  0  0  0  0  0  0  0  0
    6.0280   -5.1030   23.6950 C   0  0  0  0  0  0  0  0  0  0  0  0
    6.0010   -3.6560   23.9530 C   0  0  0  0  0  0  0  0  0  0  0  0
    5.3940   -3.2930   25.2870 C   0  0  0  0  0  0  0  0  0  0  0  0
    4.1810   -3.0260   25.3130 O   0  0  0  0  0  0  0  0  0  0  0  0
    6.0970   -3.2440   26.5060 N   0  0  0  0  0  0  0  0  0  0  0  0
    6.3460   -2.1350   27.2910 C   0  0  0  0  0  0  0  0  0  0  0  0
    6.3330   -2.9410   28.4530 C   0  0  0  0  0  0  0  0  0  0  0  0
    5.2250   -2.5610   29.4470 C   0  0  0  0  0  0  0  0  0  0  0  0
    4.0480   -3.3510   29.5920 N   0  0  0  0  0  0  0  0  0  0  0  0
    3.2560   -2.7990   30.5280 N   0  0  0  0  0  0  0  0  0  0  0  0
    3.8720   -1.6290   31.0390 C   0  0  0  0  0  0  0  0  0  0  0  0
    5.2070   -1.3950   30.3600 C   0  0  0  0  0  0  0  0  0  0  0  0
    6.3210   -0.4370   30.3850 C   0  0  0  0  0  0  0  0  0  0  0  0
    5.8920    0.4930   31.3490 O   0  0  0  0  0  0  0  0  0  0  0  0
    4.8960    0.1690   32.2630 C   0  0  0  0  0  0  0  0  0  0  0  0
    3.6250   -0.6390   31.9690 C   0  0  0  0  0  0  0  0  0  0  0  0
    5.8620   -4.1710   27.6220 C   0  0  0  0  0  0  0  0  0  0  0  0
    7.3850   -3.0390   23.7060 C   0  0  0  0  0  0  0  0  0  0  0  0
    7.5900   -3.1060   22.2200 C   0  0  0  0  0  0  0  0  0  0  0  0
  1  2  1  0
  2  3  2  0
  2  4  1  0
  4  5  1  0
  5  6  1  0
  6  7  1  0
  7  8  1  0
  8  9  2  0
  8 10  1  0
 10 11  1  0
 11 12  1  0
 12 13  1  0
 13 14  2  0
 14 15  1  0
 15 16  1  0
 13 17  1  0
 16 17  2  0
 17 18  1  0
 18 19  1  0
 19 20  1  0
 16 21  1  0
 20 21  1  0
 10 22  1  0
 12 22  1  0
  7 23  1  0
  4 24  1  0
 23 24  1  0
M  END
