piperidine-amides-1582-covalent
     RDKit          3D

 21 22  0  0  0  0  0  0  0  0999 V2000
    7.1560   -3.3060   19.2360 C   0  0  0  0  0  0  0  0  0  0  0  0
    6.3670   -4.0620   20.2400 C   0  0  0  0  0  0  0  0  0  0  0  0
    5.2850   -4.5700   19.9000 O   0  0  0  0  0  0  0  0  0  0  0  0
    6.9140   -4.2260   21.5310 N   0  0  0  0  0  0  0  0  0  0  0  0
    7.7140   -3.1960   22.1350 C   0  0  0  0  0  0  0  0  0  0  0  0
    6.8800   -2.6540   23.2900 C   0  0  0  0  0  0  0  0  0  0  0  0
    6.4560   -3.8240   24.1220 C   0  0  0  0  0  0  0  0  0  0  0  0
    5.7480   -3.3900   25.3420 C   0  0  0  0  0  0  0  0  0  0  0  0
    4.5160   -3.4840   25.3270 O   0  0  0  0  0  0  0  0  0  0  0  0
    6.4620   -2.8980   26.4350 N   0  0  0  0  0  0  0  0  0  0  0  0
    6.4660   -1.5690   26.9220 C   0  0  0  0  0  0  0  0  0  0  0  0
    6.0860   -1.2410   28.1970 C   0  0  0  0  0  0  0  0  0  0  0  0
    6.2670    0.0840   28.6240 C   0  0  0  0  0  0  0  0  0  0  0  0
    5.3690    1.0620   28.2200 O   0  0  0  0  0  0  0  0  0  0  0  0
    7.3090    0.4710   29.4440 O   0  0  0  0  0  0  0  0  0  0  0  0
    7.3840    0.1570   30.8360 C   0  0  0  0  0  0  0  0  0  0  0  0
    6.0410    0.0760   31.4700 C   0  0  0  0  0  0  0  0  0  0  0  0
    6.3210   -2.2190   29.2910 C   0  0  0  0  0  0  0  0  0  0  0  0
    5.0700   -1.9230   28.9360 C   0  0  0  0  0  0  0  0  0  0  0  0
    5.5340   -4.7680   23.3340 C   0  0  0  0  0  0  0  0  0  0  0  0
    6.4210   -5.3370   22.2960 C   0  0  0  0  0  0  0  0  0  0  0  0
  1  2  1  0
  2  3  2  0
  2  4  1  0
  4  5  1  0
  5  6  1  0
  6  7  1  0
  7  8  1  0
  8  9  2  0
  8 10  1  0
 10 11  1  0
 11 12  1  0
 12 13  1  0
 13 14  2  0
 13 15  1  0
 15 16  1  0
 16 17  1  0
 12 18  1  0
 12 19  1  0
 18 19  1  0
  7 20  1  0
  4 21  1  0
 20 21  1  0
M  END
