piperidine-amides-32551-covalent
     RDKit          3D

 28 29  0  0  0  0  0  0  0  0999 V2000
    7.0430   -3.3710   19.3600 C   0  0  0  0  0  0  0  0  0  0  0  0
    6.3800   -4.2860   20.3290 C   0  0  0  0  0  0  0  0  0  0  0  0
    5.3530   -4.8890   19.9800 O   0  0  0  0  0  0  0  0  0  0  0  0
    6.9630   -4.4830   21.5960 N   0  0  0  0  0  0  0  0  0  0  0  0
    6.6240   -5.6110   22.4170 C   0  0  0  0  0  0  0  0  0  0  0  0
    5.6330   -5.1140   23.4880 C   0  0  0  0  0  0  0  0  0  0  0  0
    6.1450   -3.8810   24.1870 C   0  0  0  0  0  0  0  0  0  0  0  0
    5.0620   -3.3010   25.0420 C   0  0  0  0  0  0  0  0  0  0  0  0
    3.9380   -3.3520   24.5450 O   0  0  0  0  0  0  0  0  0  0  0  0
    5.2440   -2.7380   26.3180 N   0  0  0  0  0  0  0  0  0  0  0  0
    4.3220   -2.9200   27.3710 C   0  0  0  0  0  0  0  0  0  0  0  0
    4.9010   -3.4710   28.4370 C   0  0  1  0  0  0  0  0  0  0  0  0
    4.3120   -4.7820   28.6610 O   0  0  0  0  0  0  0  0  0  0  0  0
    5.2360   -5.7620   29.0170 C   0  0  0  0  0  0  0  0  0  0  0  0
    6.2410   -3.7220   27.8920 C   0  0  0  0  0  0  0  0  0  0  0  0
    6.5470   -2.6250   26.8640 C   0  0  2  0  0  0  0  0  0  0  0  0
    6.7270   -1.2250   27.4630 C   0  0  0  0  0  0  0  0  0  0  0  0
    7.3530   -2.8090   25.7470 C   0  0  0  0  0  0  0  0  0  0  0  0
    8.3240   -1.8820   25.4730 N   0  0  0  0  0  0  0  0  0  0  0  0
    9.4930   -2.2720   24.8740 C   0  0  0  0  0  0  0  0  0  0  0  0
    9.5810   -3.5800   24.4540 O   0  0  0  0  0  0  0  0  0  0  0  0
   10.6040   -1.4120   24.6700 O   0  0  0  0  0  0  0  0  0  0  0  0
   11.7220   -1.6490   23.8260 C   0  0  0  0  0  0  0  0  0  0  0  0
   12.4170   -0.3610   23.4080 C   0  0  0  0  0  0  0  0  0  0  0  0
   12.7370   -2.6390   24.3270 C   0  0  0  0  0  0  0  0  0  0  0  0
   11.2900   -2.2040   22.4430 C   0  0  0  0  0  0  0  0  0  0  0  0
    6.6920   -2.8150   23.2690 C   0  0  0  0  0  0  0  0  0  0  0  0
    7.6530   -3.4160   22.2610 C   0  0  0  0  0  0  0  0  0  0  0  0
  1  2  1  0
  2  3  2  0
  2  4  1  0
  4  5  1  0
  5  6  1  0
  6  7  1  0
  7  8  1  0
  8  9  2  0
  8 10  1  0
 10 11  1  0
 11 12  1  0
 12 13  1  6
 13 14  1  0
 12 15  1  0
 10 16  1  0
 15 16  1  0
 16 17  1  1
 16 18  1  0
 18 19  1  0
 19 20  1  0
 20 21  2  0
 20 22  1  0
 23 22  1  0
 23 24  1  0
 23 25  1  0
 23 26  1  0
  7 27  1  0
  4 28  1  0
 27 28  1  0
M  END
