piperidine-amides-8170-covalent
     RDKit          3D

 25 27  0  0  0  0  0  0  0  0999 V2000
    7.0610   -3.3490   19.3520 C   0  0  0  0  0  0  0  0  0  0  0  0
    6.4090   -4.1930   20.3530 C   0  0  0  0  0  0  0  0  0  0  0  0
    5.4080   -4.8440   19.9890 O   0  0  0  0  0  0  0  0  0  0  0  0
    6.9450   -4.2900   21.6680 N   0  0  0  0  0  0  0  0  0  0  0  0
    6.6400   -5.4270   22.4730 C   0  0  0  0  0  0  0  0  0  0  0  0
    5.8730   -4.9810   23.6870 C   0  0  0  0  0  0  0  0  0  0  0  0
    6.6090   -3.8360   24.3910 C   0  0  0  0  0  0  0  0  0  0  0  0
    5.6470   -3.2050   25.3560 C   0  0  0  0  0  0  0  0  0  0  0  0
    4.4990   -3.0960   24.9350 O   0  0  0  0  0  0  0  0  0  0  0  0
    6.0490   -2.7860   26.6360 N   0  0  0  0  0  0  0  0  0  0  0  0
    7.2360   -2.0660   26.9310 C   0  0  0  0  0  0  0  0  0  0  0  0
    8.1130   -0.9800   27.2940 C   0  0  0  0  0  0  0  0  0  0  0  0
    7.5380    0.3540   27.5870 N   0  0  0  0  0  0  0  0  0  0  0  0
    6.2670    0.3210   27.4550 N   0  0  0  0  0  0  0  0  0  0  0  0
    5.3190    1.3870   27.6410 C   0  0  0  0  0  0  0  0  0  0  0  0
    5.4320    2.1700   28.7940 C   0  0  0  0  0  0  0  0  0  0  0  0
    6.7490    2.8340   28.5660 C   0  0  0  0  0  0  0  0  0  0  0  0
    6.9310    2.9890   27.0570 C   0  0  0  0  0  0  0  0  0  0  0  0
    5.6780    2.3920   26.5430 C   0  0  0  0  0  0  0  0  0  0  0  0
    6.0730   -1.0400   27.0830 C   0  0  0  0  0  0  0  0  0  0  0  0
    4.5470   -1.2820   26.8790 C   0  0  0  0  0  0  0  0  0  0  0  0
    4.0070   -0.8500   25.6860 C   0  0  0  0  0  0  0  0  0  0  0  0
    2.8010   -1.3790   25.2890 C   0  0  0  0  0  0  0  0  0  0  0  0
    7.0780   -2.7410   23.4830 C   0  0  0  0  0  0  0  0  0  0  0  0
    7.7510   -3.2470   22.2440 C   0  0  0  0  0  0  0  0  0  0  0  0
  1  2  1  0
  2  3  2  0
  2  4  1  0
  4  5  1  0
  5  6  1  0
  6  7  1  0
  7  8  1  0
  8  9  2  0
  8 10  1  0
 10 11  1  0
 11 12  1  0
 12 13  2  0
 13 14  1  0
 14 15  1  0
 15 16  1  0
 16 17  1  0
 17 18  1  0
 15 19  1  0
 18 19  1  0
 11 20  2  0
 14 20  1  0
 20 21  1  0
 21 22  1  0
 22 23  1  0
  7 24  1  0
  4 25  1  0
 24 25  1  0
M  END
