piperidine-amides-31177-covalent
     RDKit          3D

 27 28  0  0  0  0  0  0  0  0999 V2000
    7.1860   -4.0160   19.6410 C   0  0  0  0  0  0  0  0  0  0  0  0
    5.9930   -3.9290   20.3390 C   0  0  0  0  0  0  0  0  0  0  0  0
    4.9730   -4.1960   19.7120 O   0  0  0  0  0  0  0  0  0  0  0  0
    6.0810   -3.6530   21.6780 N   0  0  0  0  0  0  0  0  0  0  0  0
    7.2290   -2.8720   22.0440 C   0  0  0  0  0  0  0  0  0  0  0  0
    6.9490   -2.4420   23.4380 C   0  0  0  0  0  0  0  0  0  0  0  0
    6.9000   -3.5910   24.3770 C   0  0  0  0  0  0  0  0  0  0  0  0
    5.9790   -3.3010   25.4880 C   0  0  0  0  0  0  0  0  0  0  0  0
    4.9570   -2.5780   25.2960 O   0  0  0  0  0  0  0  0  0  0  0  0
    6.1600   -3.8140   26.7820 N   0  0  0  0  0  0  0  0  0  0  0  0
    5.8630   -5.2430   26.9560 C   0  0  0  0  0  0  0  0  0  0  0  0
    5.9870   -5.6430   28.3730 C   0  0  2  0  0  0  0  0  0  0  0  0
    5.5510   -7.0570   28.6310 C   0  0  0  0  0  0  0  0  0  0  0  0
    4.6140   -7.0510   29.4630 O   0  0  0  0  0  0  0  0  0  0  0  0
    4.8210   -6.2220   30.5330 C   0  0  0  0  0  0  0  0  0  0  0  0
    4.8540   -6.9370   31.8700 C   0  0  0  0  0  0  0  0  0  0  0  0
    5.9730   -7.2670   32.4240 O   0  0  0  0  0  0  0  0  0  0  0  0
    3.5450   -7.1330   32.4940 N   0  0  0  0  0  0  0  0  0  0  0  0
    3.3340   -8.5550   32.6360 C   0  0  0  0  0  0  0  0  0  0  0  0
    3.2330   -6.4190   33.5940 C   0  0  0  0  0  0  0  0  0  0  0  0
    5.0980   -4.7970   29.1080 O   0  0  0  0  0  0  0  0  0  0  0  0
    4.7410   -3.5620   28.5920 C   0  0  0  0  0  0  0  0  0  0  0  0
    4.1460   -2.6010   29.6030 C   0  0  0  0  0  0  0  0  0  0  0  0
    3.6710   -3.7570   27.5630 C   0  0  0  0  0  0  0  0  0  0  0  0
    5.8740   -2.9160   27.8690 C   0  0  0  0  0  0  0  0  0  0  0  0
    6.5950   -4.8960   23.6910 C   0  0  0  0  0  0  0  0  0  0  0  0
    5.7120   -4.7440   22.5140 C   0  0  0  0  0  0  0  0  0  0  0  0
  1  2  1  0
  2  3  2  0
  2  4  1  0
  4  5  1  0
  5  6  1  0
  6  7  1  0
  7  8  1  0
  8  9  2  0
  8 10  1  0
 10 11  1  0
 11 12  1  0
 12 13  1  6
 13 14  1  0
 14 15  1  0
 15 16  1  0
 16 17  2  0
 16 18  1  0
 18 19  1  0
 18 20  1  0
 12 21  1  0
 21 22  1  0
 22 23  1  0
 22 24  1  0
 10 25  1  0
 22 25  1  0
  7 26  1  0
  4 27  1  0
 26 27  1  0
M  END
