piperidine-amides-10650-covalent
     RDKit          3D

 23 24  0  0  0  0  0  0  0  0999 V2000
    7.0830   -3.1620   19.1260 C   0  0  0  0  0  0  0  0  0  0  0  0
    6.2710   -3.7860   20.1690 C   0  0  0  0  0  0  0  0  0  0  0  0
    5.2080   -4.3440   19.7890 O   0  0  0  0  0  0  0  0  0  0  0  0
    6.6690   -3.8070   21.5030 N   0  0  0  0  0  0  0  0  0  0  0  0
    6.1550   -4.8220   22.3440 C   0  0  0  0  0  0  0  0  0  0  0  0
    5.1570   -4.2060   23.2710 C   0  0  0  0  0  0  0  0  0  0  0  0
    5.6950   -3.0250   24.0310 C   0  0  0  0  0  0  0  0  0  0  0  0
    5.3740   -3.2010   25.4920 C   0  0  0  0  0  0  0  0  0  0  0  0
    4.1550   -3.3260   25.7910 O   0  0  0  0  0  0  0  0  0  0  0  0
    6.2980   -3.2420   26.5810 N   0  0  0  0  0  0  0  0  0  0  0  0
    6.6880   -4.5030   27.2020 C   0  0  2  0  0  0  0  0  0  0  0  0
    6.1820   -4.6770   28.6140 C   0  0  0  0  0  0  0  0  0  0  0  0
    8.1440   -4.6460   27.1360 C   0  0  0  0  0  0  0  0  0  0  0  0
    8.6050   -4.3140   25.9020 C   0  0  0  0  0  0  0  0  0  0  0  0
    8.6940   -4.2920   24.5090 C   0  0  0  0  0  0  0  0  0  0  0  0
    7.9900   -4.9220   23.5250 C   0  0  0  0  0  0  0  0  0  0  0  0
    6.9960   -5.7710   23.7100 C   0  0  0  0  0  0  0  0  0  0  0  0
    6.0880   -6.6030   22.2820 Br  0  0  0  0  0  0  0  0  0  0  0  0
    6.6540   -6.0100   25.0910 C   0  0  0  0  0  0  0  0  0  0  0  0
    7.5340   -5.2200   26.0730 C   0  0  0  0  0  0  0  0  0  0  0  0
    7.1460   -5.4990   27.3600 F   0  0  0  0  0  0  0  0  0  0  0  0
    7.1660   -2.7470   23.6720 C   0  0  0  0  0  0  0  0  0  0  0  0
    7.2570   -2.6240   22.1400 C   0  0  0  0  0  0  0  0  0  0  0  0
  1  2  1  0
  2  3  2  0
  2  4  1  0
  4  5  1  0
  5  6  1  0
  6  7  1  0
  7  8  1  0
  8  9  2  0
  8 10  1  0
 10 11  1  0
 11 12  1  1
 11 13  1  0
 13 14  1  0
 14 15  2  0
 15 16  1  0
 16 17  2  0
 17 18  1  0
 17 19  1  0
 14 20  1  0
 19 20  2  0
 20 21  1  0
  7 22  1  0
  4 23  1  0
 22 23  1  0
M  END
