piperidine-amides-2971-covalent
     RDKit          3D

 23 24  0  0  0  0  0  0  0  0999 V2000
    7.0410   -3.3520   19.3240 C   0  0  0  0  0  0  0  0  0  0  0  0
    6.3770   -4.1900   20.3180 C   0  0  0  0  0  0  0  0  0  0  0  0
    5.3860   -4.8410   19.9890 O   0  0  0  0  0  0  0  0  0  0  0  0
    6.9090   -4.2930   21.6550 N   0  0  0  0  0  0  0  0  0  0  0  0
    7.6520   -3.1720   22.2140 C   0  0  0  0  0  0  0  0  0  0  0  0
    7.3820   -2.9590   23.6850 C   0  0  0  0  0  0  0  0  0  0  0  0
    6.0620   -3.6180   24.0230 C   0  0  0  0  0  0  0  0  0  0  0  0
    5.5870   -3.2230   25.3770 C   0  0  0  0  0  0  0  0  0  0  0  0
    4.3760   -3.1850   25.6580 O   0  0  0  0  0  0  0  0  0  0  0  0
    6.5260   -2.8810   26.3780 N   0  0  0  0  0  0  0  0  0  0  0  0
    6.4040   -1.6090   27.0570 C   0  0  0  0  0  0  0  0  0  0  0  0
    7.0000   -1.5970   28.4170 C   0  0  0  0  0  0  0  0  0  0  0  0
    6.9510   -0.4500   29.1610 C   0  0  0  0  0  0  0  0  0  0  0  0
    6.3340    0.7100   28.6300 C   0  0  0  0  0  0  0  0  0  0  0  0
    6.2470    1.8940   29.3360 C   0  0  0  0  0  0  0  0  0  0  0  0
    6.5030    2.9640   28.7530 O   0  0  0  0  0  0  0  0  0  0  0  0
    5.8890    1.9850   30.6600 O   0  0  0  0  0  0  0  0  0  0  0  0
    4.7200    1.4630   31.0980 C   0  0  0  0  0  0  0  0  0  0  0  0
    5.7310    0.8090   27.3310 N   0  0  0  0  0  0  0  0  0  0  0  0
    5.8200   -0.4400   26.5980 C   0  0  0  0  0  0  0  0  0  0  0  0
    5.2600   -0.4030   25.3360 C   0  0  0  0  0  0  0  0  0  0  0  0
    6.0310   -5.0720   23.7560 C   0  0  0  0  0  0  0  0  0  0  0  0
    6.5640   -5.4280   22.4440 C   0  0  0  0  0  0  0  0  0  0  0  0
  1  2  1  0
  2  3  2  0
  2  4  1  0
  4  5  1  0
  5  6  1  0
  6  7  1  0
  7  8  1  0
  8  9  2  0
  8 10  1  0
 10 11  1  0
 11 12  2  0
 12 13  1  0
 13 14  2  0
 14 15  1  0
 15 16  2  0
 15 17  1  0
 17 18  1  0
 14 19  1  0
 11 20  1  0
 19 20  2  0
 20 21  1  0
  7 22  1  0
  4 23  1  0
 22 23  1  0
M  END
