piperidine-amides-13036-covalent
     RDKit          3D

 23 24  0  0  0  0  0  0  0  0999 V2000
    7.1030   -3.2760   19.2450 C   0  0  0  0  0  0  0  0  0  0  0  0
    6.3850   -4.0630   20.2780 C   0  0  0  0  0  0  0  0  0  0  0  0
    5.3240   -4.6090   19.9100 O   0  0  0  0  0  0  0  0  0  0  0  0
    6.9000   -4.2230   21.5770 N   0  0  0  0  0  0  0  0  0  0  0  0
    7.6830   -3.1960   22.1980 C   0  0  0  0  0  0  0  0  0  0  0  0
    7.2690   -2.8870   23.5640 C   0  0  0  0  0  0  0  0  0  0  0  0
    6.0190   -3.5660   23.9520 C   0  0  0  0  0  0  0  0  0  0  0  0
    5.6030   -3.2300   25.3370 C   0  0  0  0  0  0  0  0  0  0  0  0
    4.3880   -3.0680   25.5430 O   0  0  0  0  0  0  0  0  0  0  0  0
    6.5130   -3.0890   26.3980 N   0  0  0  0  0  0  0  0  0  0  0  0
    6.2490   -3.6470   27.7460 C   0  0  0  0  0  0  0  0  0  0  0  0
    5.9260   -5.1060   27.7260 C   0  0  0  0  0  0  0  0  0  0  0  0
    5.8390   -5.7810   29.0090 C   0  0  0  0  0  0  0  0  0  0  0  0
    4.7780   -5.4690   29.8230 C   0  0  0  0  0  0  0  0  0  0  0  0
    4.7990   -6.4130   30.8560 N   0  0  0  0  0  0  0  0  0  0  0  0
    3.6230   -7.2490   30.9820 C   0  0  0  0  0  0  0  0  0  0  0  0
    3.0830   -7.7200   29.8250 C   0  0  0  0  0  0  0  0  0  0  0  0
    1.9930   -8.4990   29.7990 C   0  0  0  0  0  0  0  0  0  0  0  0
    1.3780   -8.8530   30.9390 C   0  0  0  0  0  0  0  0  0  0  0  0
    1.8780   -8.4080   32.1640 C   0  0  0  0  0  0  0  0  0  0  0  0
    2.9850   -7.6130   32.2300 N   0  0  0  0  0  0  0  0  0  0  0  0
    5.9890   -5.0300   23.7010 C   0  0  0  0  0  0  0  0  0  0  0  0
    6.6340   -5.4090   22.3850 C   0  0  0  0  0  0  0  0  0  0  0  0
  1  2  1  0
  2  3  2  0
  2  4  1  0
  4  5  1  0
  5  6  1  0
  6  7  1  0
  7  8  1  0
  8  9  2  0
  8 10  1  0
 10 11  1  0
 11 12  1  0
 12 13  1  0
 13 14  1  0
 14 15  1  0
 15 16  1  0
 16 17  2  0
 17 18  1  0
 18 19  2  0
 19 20  1  0
 16 21  1  0
 20 21  2  0
  7 22  1  0
  4 23  1  0
 22 23  1  0
M  END
