piperidine-amides-27565-covalent
     RDKit          3D

 25 26  0  0  0  0  0  0  0  0999 V2000
    7.0500   -3.2840   19.2790 C   0  0  0  0  0  0  0  0  0  0  0  0
    6.3360   -4.0590   20.3040 C   0  0  0  0  0  0  0  0  0  0  0  0
    5.2880   -4.6380   19.9170 O   0  0  0  0  0  0  0  0  0  0  0  0
    6.8250   -4.1760   21.6140 N   0  0  0  0  0  0  0  0  0  0  0  0
    6.7060   -5.4340   22.3200 C   0  0  0  0  0  0  0  0  0  0  0  0
    6.1030   -5.1570   23.6640 C   0  0  0  0  0  0  0  0  0  0  0  0
    6.0130   -3.6810   23.9120 C   0  0  0  0  0  0  0  0  0  0  0  0
    5.6150   -3.4130   25.3200 C   0  0  0  0  0  0  0  0  0  0  0  0
    4.3950   -3.5050   25.5720 O   0  0  0  0  0  0  0  0  0  0  0  0
    6.4720   -3.0530   26.3850 N   0  0  0  0  0  0  0  0  0  0  0  0
    6.3900   -3.7770   27.6480 C   0  0  0  0  0  0  0  0  0  0  0  0
    6.1440   -5.2830   27.4950 C   0  0  0  0  0  0  0  0  0  0  0  0
    5.1030   -5.9430   28.1070 C   0  0  0  0  0  0  0  0  0  0  0  0
    4.0640   -5.1490   28.4930 F   0  0  0  0  0  0  0  0  0  0  0  0
    5.5690   -6.6320   29.1860 F   0  0  0  0  0  0  0  0  0  0  0  0
    4.6260   -6.8860   27.2480 F   0  0  0  0  0  0  0  0  0  0  0  0
    6.8140   -1.6580   26.5340 C   0  0  0  0  0  0  0  0  0  0  0  0
    5.6800   -0.9230   26.2360 C   0  0  0  0  0  0  0  0  0  0  0  0
    5.5310   -0.2620   25.0210 C   0  0  0  0  0  0  0  0  0  0  0  0
    4.4160    0.4820   24.6660 C   0  0  0  0  0  0  0  0  0  0  0  0
    3.2050    0.6790   25.5510 C   0  0  0  0  0  0  0  0  0  0  0  0
    3.4090   -0.0560   26.8680 C   0  0  0  0  0  0  0  0  0  0  0  0
    4.6610   -0.8400   27.1580 C   0  0  0  0  0  0  0  0  0  0  0  0
    7.3020   -2.9890   23.5630 C   0  0  0  0  0  0  0  0  0  0  0  0
    7.6710   -3.1360   22.2370 C   0  0  0  0  0  0  0  0  0  0  0  0
  1  2  1  0
  2  3  2  0
  2  4  1  0
  4  5  1  0
  5  6  1  0
  6  7  1  0
  7  8  1  0
  8  9  2  0
  8 10  1  0
 10 11  1  0
 11 12  1  0
 12 13  1  0
 13 14  1  0
 13 15  1  0
 13 16  1  0
 10 17  1  0
 17 18  1  0
 18 19  2  0
 19 20  1  0
 20 21  2  0
 21 22  1  0
 18 23  1  0
 22 23  2  0
  7 24  1  0
  4 25  1  0
 24 25  1  0
M  END
