piperidine-amides-11820-covalent
     RDKit          3D

 27 29  0  0  0  0  0  0  0  0999 V2000
    7.0500   -3.3330   19.3390 C   0  0  0  0  0  0  0  0  0  0  0  0
    6.3640   -4.1710   20.3210 C   0  0  0  0  0  0  0  0  0  0  0  0
    5.3840   -4.8330   19.9800 O   0  0  0  0  0  0  0  0  0  0  0  0
    6.8560   -4.2560   21.6720 N   0  0  0  0  0  0  0  0  0  0  0  0
    7.7130   -3.2080   22.1830 C   0  0  0  0  0  0  0  0  0  0  0  0
    7.3840   -2.8870   23.6080 C   0  0  0  0  0  0  0  0  0  0  0  0
    6.0290   -3.4920   23.9060 C   0  0  0  0  0  0  0  0  0  0  0  0
    5.6220   -3.1620   25.2970 C   0  0  0  0  0  0  0  0  0  0  0  0
    4.4390   -3.1890   25.6840 O   0  0  0  0  0  0  0  0  0  0  0  0
    6.6500   -2.8000   26.1910 N   0  0  0  0  0  0  0  0  0  0  0  0
    6.4910   -1.6800   27.0910 C   0  0  0  0  0  0  0  0  0  0  0  0
    5.8330   -0.4530   26.5420 C   0  0  0  0  0  0  0  0  0  0  0  0
    5.6590    0.6500   27.3570 C   0  0  0  0  0  0  0  0  0  0  0  0
    6.0990    0.6210   28.7020 C   0  0  0  0  0  0  0  0  0  0  0  0
    5.8930    1.7740   29.4730 O   0  0  0  0  0  0  0  0  0  0  0  0
    6.2840    1.7990   30.8350 C   0  0  0  0  0  0  0  0  0  0  0  0
    7.7060    1.5040   30.9720 C   0  0  0  0  0  0  0  0  0  0  0  0
    8.6800    2.4190   30.6460 C   0  0  0  0  0  0  0  0  0  0  0  0
    8.4560    3.6520   30.0440 C   0  0  0  0  0  0  0  0  0  0  0  0
    9.4770    4.5310   29.7410 C   0  0  0  0  0  0  0  0  0  0  0  0
   10.8290    4.1490   30.0630 C   0  0  0  0  0  0  0  0  0  0  0  0
   11.0870    2.9410   30.6540 C   0  0  0  0  0  0  0  0  0  0  0  0
   10.0210    2.0870   30.9420 C   0  0  0  0  0  0  0  0  0  0  0  0
    6.7280   -0.5180   29.2750 N   0  0  0  0  0  0  0  0  0  0  0  0
    6.8980   -1.6330   28.4280 C   0  0  0  0  0  0  0  0  0  0  0  0
    5.9850   -4.9800   23.7490 C   0  0  0  0  0  0  0  0  0  0  0  0
    6.6280   -5.4420   22.4530 C   0  0  0  0  0  0  0  0  0  0  0  0
  1  2  1  0
  2  3  2  0
  2  4  1  0
  4  5  1  0
  5  6  1  0
  6  7  1  0
  7  8  1  0
  8  9  2  0
  8 10  1  0
 10 11  1  0
 11 12  2  0
 12 13  1  0
 13 14  2  0
 14 15  1  0
 15 16  1  0
 16 17  1  0
 17 18  1  0
 18 19  2  0
 19 20  1  0
 20 21  2  0
 21 22  1  0
 18 23  1  0
 22 23  2  0
 14 24  1  0
 11 25  1  0
 24 25  2  0
  7 26  1  0
  4 27  1  0
 26 27  1  0
M  END
