piperidine-amides-32916-covalent
     RDKit          3D

 29 31  0  0  0  0  0  0  0  0999 V2000
    7.0840   -3.3430   19.3480 C   0  0  0  0  0  0  0  0  0  0  0  0
    6.3020   -4.1790   20.3020 C   0  0  0  0  0  0  0  0  0  0  0  0
    5.2520   -4.7060   19.9210 O   0  0  0  0  0  0  0  0  0  0  0  0
    6.8020   -4.3930   21.5990 N   0  0  0  0  0  0  0  0  0  0  0  0
    6.5680   -5.6450   22.2970 C   0  0  0  0  0  0  0  0  0  0  0  0
    6.1150   -5.3500   23.7450 C   0  0  0  0  0  0  0  0  0  0  0  0
    6.0460   -3.8750   23.9110 C   0  0  0  0  0  0  0  0  0  0  0  0
    5.7160   -3.3570   25.2680 C   0  0  0  0  0  0  0  0  0  0  0  0
    4.7870   -2.5480   25.3030 O   0  0  0  0  0  0  0  0  0  0  0  0
    6.3780   -3.7550   26.4400 N   0  0  0  0  0  0  0  0  0  0  0  0
    6.9400   -5.0600   26.6490 C   0  0  0  0  0  0  0  0  0  0  0  0
    6.9280   -5.5820   27.8900 C   0  0  0  0  0  0  0  0  0  0  0  0
    5.8890   -4.9560   28.4990 C   0  0  1  0  0  0  0  0  0  0  0  0
    5.6600   -5.0320   29.8580 O   0  0  0  0  0  0  0  0  0  0  0  0
    4.7470   -5.9410   30.3990 C   0  0  0  0  0  0  0  0  0  0  0  0
    4.0810   -6.9000   29.4740 C   0  0  0  0  0  0  0  0  0  0  0  0
    3.0600   -7.9470   29.9230 C   0  0  0  0  0  0  0  0  0  0  0  0
    2.8170   -7.8880   31.4230 C   0  0  0  0  0  0  0  0  0  0  0  0
    1.9300   -8.7610   32.0170 C   0  0  0  0  0  0  0  0  0  0  0  0
    0.6990   -8.3050   32.3070 N   0  0  0  0  0  0  0  0  0  0  0  0
    0.8190   -7.1980   33.1810 C   0  0  0  0  0  0  0  0  0  0  0  0
   -0.0390   -9.4480   32.7060 C   0  0  0  0  0  0  0  0  0  0  0  0
    0.4650  -10.7160   32.5110 C   0  0  0  0  0  0  0  0  0  0  0  0
    0.7330   -9.9860   33.8510 C   0  0  0  0  0  0  0  0  0  0  0  0
    3.4500   -6.9940   32.2350 C   0  0  0  0  0  0  0  0  0  0  0  0
    4.3360   -6.0990   31.7550 N   0  0  0  0  0  0  0  0  0  0  0  0
    6.0120   -3.5800   27.8740 C   0  0  0  0  0  0  0  0  0  0  0  0
    7.3430   -3.2370   23.5350 C   0  0  0  0  0  0  0  0  0  0  0  0
    7.5290   -3.3220   22.1860 C   0  0  0  0  0  0  0  0  0  0  0  0
  1  2  1  0
  2  3  2  0
  2  4  1  0
  4  5  1  0
  5  6  1  0
  6  7  1  0
  7  8  1  0
  8  9  2  0
  8 10  1  0
 10 11  1  0
 11 12  1  0
 12 13  1  0
 13 14  1  1
 14 15  1  0
 15 16  2  0
 16 17  1  0
 17 18  2  0
 18 19  1  0
 19 20  1  0
 20 21  1  0
 20 22  1  0
 22 23  1  0
 22 24  1  0
 18 25  1  0
 15 26  1  0
 25 26  2  0
 10 27  1  0
 13 27  1  0
  7 28  1  0
  4 29  1  0
 28 29  1  0
M  END
