piperidine-amides-27238-covalent
     RDKit          3D

 26 29  0  0  0  0  0  0  0  0999 V2000
    7.1040   -3.3330   19.3060 C   0  0  0  0  0  0  0  0  0  0  0  0
    6.4310   -4.1740   20.3000 C   0  0  0  0  0  0  0  0  0  0  0  0
    5.3520   -4.7130   19.9430 O   0  0  0  0  0  0  0  0  0  0  0  0
    7.0040   -4.4010   21.5540 N   0  0  0  0  0  0  0  0  0  0  0  0
    6.6270   -5.5570   22.3240 C   0  0  0  0  0  0  0  0  0  0  0  0
    5.8730   -5.0660   23.5280 C   0  0  0  0  0  0  0  0  0  0  0  0
    6.6180   -3.9780   24.2610 C   0  0  0  0  0  0  0  0  0  0  0  0
    5.7800   -3.4330   25.3430 C   0  0  0  0  0  0  0  0  0  0  0  0
    4.5370   -3.3890   25.1920 O   0  0  0  0  0  0  0  0  0  0  0  0
    6.3380   -2.9540   26.5300 N   0  0  0  0  0  0  0  0  0  0  0  0
    5.5230   -2.3970   27.5970 C   0  0  0  0  0  0  0  0  0  0  0  0
    6.3880   -2.7920   28.7320 C   0  0  0  0  0  0  0  0  0  0  0  0
    7.3120   -3.6100   28.2310 C   0  0  1  0  0  0  0  0  0  0  0  0
    7.1270   -4.9090   28.4600 C   0  0  0  0  0  0  0  0  0  0  0  0
    7.9970   -5.9290   28.0830 C   0  0  0  0  0  0  0  0  0  0  0  0
    9.1820   -5.8160   27.4080 C   0  0  0  0  0  0  0  0  0  0  0  0
    7.4140   -7.0060   28.5290 N   0  0  0  0  0  0  0  0  0  0  0  0
    6.2800   -6.7100   29.1050 C   0  0  0  0  0  0  0  0  0  0  0  0
    5.4520   -7.8270   29.6630 C   0  0  0  0  0  0  0  0  0  0  0  0
    4.1770   -7.2700   30.2950 C   0  0  0  0  0  0  0  0  0  0  0  0
    3.8880   -5.7940   30.3020 C   0  0  0  0  0  0  0  0  0  0  0  0
    4.8730   -4.8400   29.6720 C   0  0  0  0  0  0  0  0  0  0  0  0
    6.0050   -5.3970   29.1170 C   0  0  0  0  0  0  0  0  0  0  0  0
    7.6090   -3.5630   26.9250 C   0  0  0  0  0  0  0  0  0  0  0  0
    6.9790   -2.8400   23.3560 C   0  0  0  0  0  0  0  0  0  0  0  0
    7.7940   -3.3540   22.1790 C   0  0  0  0  0  0  0  0  0  0  0  0
  1  2  1  0
  2  3  2  0
  2  4  1  0
  4  5  1  0
  5  6  1  0
  6  7  1  0
  7  8  1  0
  8  9  2  0
  8 10  1  0
 10 11  1  0
 11 12  1  0
 12 13  1  0
 13 14  1  6
 14 15  2  0
 15 16  1  0
 15 17  1  0
 17 18  1  0
 18 19  1  0
 19 20  2  0
 20 21  1  0
 21 22  2  0
 14 23  1  0
 18 23  2  0
 22 23  1  0
 10 24  1  0
 13 24  1  0
  7 25  1  0
  4 26  1  0
 25 26  1  0
M  END
