piperidine-amides-3787-covalent
     RDKit          3D

 25 27  0  0  0  0  0  0  0  0999 V2000
    7.1530   -3.2960   19.2480 C   0  0  0  0  0  0  0  0  0  0  0  0
    6.3700   -4.0270   20.2520 C   0  0  0  0  0  0  0  0  0  0  0  0
    5.2830   -4.5250   19.8790 O   0  0  0  0  0  0  0  0  0  0  0  0
    6.8610   -4.2140   21.5640 N   0  0  0  0  0  0  0  0  0  0  0  0
    7.6710   -3.1970   22.1450 C   0  0  0  0  0  0  0  0  0  0  0  0
    7.2710   -2.8480   23.4880 C   0  0  0  0  0  0  0  0  0  0  0  0
    6.0940   -3.6010   23.9450 C   0  0  0  0  0  0  0  0  0  0  0  0
    5.7270   -3.2490   25.3480 C   0  0  0  0  0  0  0  0  0  0  0  0
    4.5980   -3.5440   25.7820 O   0  0  0  0  0  0  0  0  0  0  0  0
    6.6440   -2.5770   26.1750 N   0  0  0  0  0  0  0  0  0  0  0  0
    6.3930   -1.7170   27.2640 C   0  0  0  0  0  0  0  0  0  0  0  0
    5.7350   -0.4190   27.1250 C   0  0  0  0  0  0  0  0  0  0  0  0
    5.0560    0.2080   26.1050 N   0  0  0  0  0  0  0  0  0  0  0  0
    4.6210    1.4430   26.4820 N   0  0  0  0  0  0  0  0  0  0  0  0
    4.9840    1.6750   27.7290 C   0  0  0  0  0  0  0  0  0  0  0  0
    5.6490    0.5910   28.1500 C   0  0  0  0  0  0  0  0  0  0  0  0
    6.1140    0.7570   29.5980 C   0  0  0  0  0  0  0  0  0  0  0  0
    7.4850    0.8450   29.8340 O   0  0  0  0  0  0  0  0  0  0  0  0
    5.2330    0.8120   30.6500 O   0  0  0  0  0  0  0  0  0  0  0  0
    5.5340   -0.1540   31.4670 C   0  0  0  0  0  0  0  0  0  0  0  0
    4.5920    2.9640   28.2880 C   0  0  0  0  0  0  0  0  0  0  0  0
    3.8660    3.6380   27.1390 C   0  0  0  0  0  0  0  0  0  0  0  0
    3.8730    2.6340   25.9700 C   0  0  0  0  0  0  0  0  0  0  0  0
    6.3250   -5.1100   23.7810 C   0  0  0  0  0  0  0  0  0  0  0  0
    6.3330   -5.3740   22.3080 C   0  0  0  0  0  0  0  0  0  0  0  0
  1  2  1  0
  2  3  2  0
  2  4  1  0
  4  5  1  0
  5  6  1  0
  6  7  1  0
  7  8  1  0
  8  9  2  0
  8 10  1  0
 10 11  1  0
 11 12  1  0
 12 13  2  0
 13 14  1  0
 14 15  1  0
 12 16  1  0
 15 16  2  0
 16 17  1  0
 17 18  2  0
 17 19  1  0
 19 20  1  0
 15 21  1  0
 21 22  1  0
 14 23  1  0
 22 23  1  0
  7 24  1  0
  4 25  1  0
 24 25  1  0
M  END
