piperidine-amides-28629-covalent
     RDKit          3D

 26 28  0  0  0  0  0  0  0  0999 V2000
    7.0390   -3.3920   19.4280 C   0  0  0  0  0  0  0  0  0  0  0  0
    6.3840   -4.2680   20.3970 C   0  0  0  0  0  0  0  0  0  0  0  0
    5.3990   -4.9170   20.0030 O   0  0  0  0  0  0  0  0  0  0  0  0
    6.8980   -4.4020   21.7190 N   0  0  0  0  0  0  0  0  0  0  0  0
    6.4260   -5.4800   22.5260 C   0  0  0  0  0  0  0  0  0  0  0  0
    5.4610   -4.9380   23.5470 C   0  0  0  0  0  0  0  0  0  0  0  0
    6.1520   -3.8630   24.3740 C   0  0  0  0  0  0  0  0  0  0  0  0
    5.1520   -3.2010   25.3210 C   0  0  0  0  0  0  0  0  0  0  0  0
    4.3790   -2.4180   24.7960 O   0  0  0  0  0  0  0  0  0  0  0  0
    5.1580   -3.5130   26.6950 N   0  0  0  0  0  0  0  0  0  0  0  0
    4.5450   -2.7440   27.7110 C   0  0  0  0  0  0  0  0  0  0  0  0
    4.8340   -3.1120   29.0480 C   0  0  0  0  0  0  0  0  0  0  0  0
    5.2400   -4.5220   29.0420 N   0  0  0  0  0  0  0  0  0  0  0  0
    4.9850   -5.5520   29.9660 C   0  0  0  0  0  0  0  0  0  0  0  0
    5.9890   -6.5050   30.0630 C   0  0  0  0  0  0  0  0  0  0  0  0
    5.8070   -7.6220   31.0330 C   0  0  0  0  0  0  0  0  0  0  0  0
    4.5340   -7.6990   31.8830 C   0  0  0  0  0  0  0  0  0  0  0  0
    3.5740   -6.6140   31.6470 C   0  0  0  0  0  0  0  0  0  0  0  0
    2.5000   -6.6000   32.3000 O   0  0  0  0  0  0  0  0  0  0  0  0
    2.1950   -7.8560   32.8170 C   0  0  0  0  0  0  0  0  0  0  0  0
    3.8240   -5.6200   30.7360 C   0  0  0  0  0  0  0  0  0  0  0  0
    2.8850   -4.6250   30.5640 F   0  0  0  0  0  0  0  0  0  0  0  0
    6.4430   -4.0700   28.4220 C   0  0  0  0  0  0  0  0  0  0  0  0
    6.2860   -4.1630   27.0730 C   0  0  0  0  0  0  0  0  0  0  0  0
    6.8090   -2.7950   23.5410 C   0  0  0  0  0  0  0  0  0  0  0  0
    7.6060   -3.3420   22.3790 C   0  0  0  0  0  0  0  0  0  0  0  0
  1  2  1  0
  2  3  2  0
  2  4  1  0
  4  5  1  0
  5  6  1  0
  6  7  1  0
  7  8  1  0
  8  9  2  0
  8 10  1  0
 10 11  1  0
 11 12  1  0
 12 13  1  0
 13 14  1  0
 14 15  2  0
 15 16  1  0
 16 17  2  0
 17 18  1  0
 18 19  1  0
 19 20  1  0
 14 21  1  0
 18 21  2  0
 21 22  1  0
 13 23  1  0
 10 24  1  0
 23 24  1  0
  7 25  1  0
  4 26  1  0
 25 26  1  0
M  END
