piperidine-amides-19529-covalent
     RDKit          3D

 19 20  0  0  0  0  0  0  0  0999 V2000
    7.0240   -3.4090   19.3780 C   0  0  0  0  0  0  0  0  0  0  0  0
    6.3660   -4.2060   20.3940 C   0  0  0  0  0  0  0  0  0  0  0  0
    5.3790   -4.9000   19.9990 O   0  0  0  0  0  0  0  0  0  0  0  0
    6.7700   -4.3060   21.7560 N   0  0  0  0  0  0  0  0  0  0  0  0
    6.5730   -5.6370   22.3840 C   0  0  0  0  0  0  0  0  0  0  0  0
    6.5810   -5.2690   23.9230 C   0  0  0  0  0  0  0  0  0  0  0  0
    6.0160   -3.8840   23.9980 C   0  0  0  0  0  0  0  0  0  0  0  0
    5.3150   -3.5450   25.3980 C   0  0  0  0  0  0  0  0  0  0  0  0
    4.2650   -2.9550   25.2050 O   0  0  0  0  0  0  0  0  0  0  0  0
    6.0250   -3.9690   26.3680 N   0  0  0  0  0  0  0  0  0  0  0  0
    6.9710   -4.5330   27.0880 C   0  0  0  0  0  0  0  0  0  0  0  0
    7.1230   -5.5270   27.9620 C   0  0  0  0  0  0  0  0  0  0  0  0
    5.9530   -5.5200   28.7040 C   0  0  0  0  0  0  0  0  0  0  0  0
    5.5130   -6.8900   29.7740 Cl  0  0  0  0  0  0  0  0  0  0  0  0
    4.9980   -4.3710   28.6130 C   0  0  0  0  0  0  0  0  0  0  0  0
    3.4520   -4.1640   29.4230 Cl  0  0  0  0  0  0  0  0  0  0  0  0
    5.6580   -3.3440   27.6260 C   0  0  0  0  0  0  0  0  0  0  0  0
    6.8110   -2.7600   23.3660 C   0  0  0  0  0  0  0  0  0  0  0  0
    7.6500   -3.3450   22.4010 C   0  0  0  0  0  0  0  0  0  0  0  0
  1  2  1  0
  2  3  2  0
  2  4  1  0
  4  5  1  0
  5  6  1  0
  6  7  1  0
  7  8  1  0
  8  9  2  0
  8 10  1  0
 10 11  1  0
 11 12  1  0
 12 13  1  0
 13 14  1  0
 13 15  2  0
 15 16  1  0
 10 17  1  0
 15 17  1  0
  7 18  1  0
  4 19  1  0
 18 19  1  0
M  END
