piperidine-amides-3189-covalent
     RDKit          3D

 22 24  0  0  0  0  0  0  0  0999 V2000
    7.0600   -3.3520   19.2860 C   0  0  0  0  0  0  0  0  0  0  0  0
    6.3730   -4.1670   20.2820 C   0  0  0  0  0  0  0  0  0  0  0  0
    5.3530   -4.7780   19.9660 O   0  0  0  0  0  0  0  0  0  0  0  0
    6.9090   -4.3070   21.6040 N   0  0  0  0  0  0  0  0  0  0  0  0
    7.7160   -3.2520   22.1660 C   0  0  0  0  0  0  0  0  0  0  0  0
    7.0410   -2.6790   23.3690 C   0  0  0  0  0  0  0  0  0  0  0  0
    6.5020   -3.8380   24.1860 C   0  0  0  0  0  0  0  0  0  0  0  0
    5.7460   -3.2760   25.3380 C   0  0  0  0  0  0  0  0  0  0  0  0
    4.5230   -3.0500   25.2960 O   0  0  0  0  0  0  0  0  0  0  0  0
    6.4630   -3.0210   26.5270 N   0  0  0  0  0  0  0  0  0  0  0  0
    6.4370   -1.7290   27.1880 C   0  0  0  0  0  0  0  0  0  0  0  0
    7.0490   -1.5780   28.5530 C   0  0  0  0  0  0  0  0  0  0  0  0
    7.0510   -0.3810   29.2350 C   0  0  0  0  0  0  0  0  0  0  0  0
    6.4690    0.7620   28.6630 C   0  0  0  0  0  0  0  0  0  0  0  0
    5.8900    0.7030   27.4090 C   0  0  0  0  0  0  0  0  0  0  0  0
    5.8160   -0.4830   26.5840 C   0  0  0  0  0  0  0  0  0  0  0  0
    5.2390   -0.5450   25.3360 C   0  0  0  0  0  0  0  0  0  0  0  0
    5.0930    0.6910   24.7210 C   0  0  0  0  0  0  0  0  0  0  0  0
    4.4530    1.5530   25.6050 O   0  0  0  0  0  0  0  0  0  0  0  0
    5.2500    1.8570   26.7150 C   0  0  0  0  0  0  0  0  0  0  0  0
    5.7340   -4.8420   23.4640 C   0  0  0  0  0  0  0  0  0  0  0  0
    6.5290   -5.3900   22.4700 C   0  0  0  0  0  0  0  0  0  0  0  0
  1  2  1  0
  2  3  2  0
  2  4  1  0
  4  5  1  0
  5  6  1  0
  6  7  1  0
  7  8  1  0
  8  9  2  0
  8 10  1  0
 10 11  1  0
 11 12  2  0
 12 13  1  0
 13 14  2  0
 14 15  1  0
 11 16  1  0
 15 16  2  0
 16 17  1  0
 17 18  1  0
 18 19  1  0
 15 20  1  0
 19 20  1  0
  7 21  1  0
  4 22  1  0
 21 22  1  0
M  END
