piperidine-amides-19157-covalent
     RDKit          3D

 21 22  0  0  0  0  0  0  0  0999 V2000
    7.0670   -3.4130   19.3300 C   0  0  0  0  0  0  0  0  0  0  0  0
    6.4450   -4.1950   20.3710 C   0  0  0  0  0  0  0  0  0  0  0  0
    5.4440   -4.9030   20.0170 O   0  0  0  0  0  0  0  0  0  0  0  0
    6.9320   -4.2400   21.7070 N   0  0  0  0  0  0  0  0  0  0  0  0
    6.5670   -5.4010   22.5350 C   0  0  0  0  0  0  0  0  0  0  0  0
    5.6700   -4.6920   23.6310 C   0  0  0  0  0  0  0  0  0  0  0  0
    6.4250   -3.4840   24.1960 C   0  0  0  0  0  0  0  0  0  0  0  0
    5.5390   -2.8850   25.3850 C   0  0  0  0  0  0  0  0  0  0  0  0
    4.5790   -2.3140   24.8910 O   0  0  0  0  0  0  0  0  0  0  0  0
    6.0110   -3.1430   26.5500 N   0  0  0  0  0  0  0  0  0  0  0  0
    6.2050   -3.9120   27.6670 C   0  0  0  0  0  0  0  0  0  0  0  0
    6.0710   -5.2540   27.9550 C   0  0  0  0  0  0  0  0  0  0  0  0
    4.7770   -5.6040   28.1720 F   0  0  0  0  0  0  0  0  0  0  0  0
    6.8050   -5.4780   29.0810 F   0  0  0  0  0  0  0  0  0  0  0  0
    6.4210   -1.7480   26.9250 C   0  0  0  0  0  0  0  0  0  0  0  0
    5.3990   -0.6990   26.6540 C   0  0  0  0  0  0  0  0  0  0  0  0
    6.0020    0.3850   27.6010 C   0  0  0  0  0  0  0  0  0  0  0  0
    6.2660   -0.4830   28.6730 C   0  0  0  0  0  0  0  0  0  0  0  0
    6.9170   -1.6560   28.3310 C   0  0  0  0  0  0  0  0  0  0  0  0
    6.9780   -2.5180   23.2850 C   0  0  0  0  0  0  0  0  0  0  0  0
    7.8420   -3.3430   22.2970 C   0  0  0  0  0  0  0  0  0  0  0  0
  1  2  1  0
  2  3  2  0
  2  4  1  0
  4  5  1  0
  5  6  1  0
  6  7  1  0
  7  8  1  0
  8  9  2  0
  8 10  1  0
 10 11  1  0
 11 12  1  0
 12 13  1  0
 12 14  1  0
 10 15  1  0
 15 16  1  0
 16 17  1  0
 17 18  1  0
 15 19  1  0
 18 19  1  0
  7 20  1  0
  4 21  1  0
 20 21  1  0
M  END
