piperidine-amides-11244-covalent
     RDKit          3D

 19 20  0  0  0  0  0  0  0  0999 V2000
    7.0780   -3.2720   19.2360 C   0  0  0  0  0  0  0  0  0  0  0  0
    6.3270   -4.0280   20.2460 C   0  0  0  0  0  0  0  0  0  0  0  0
    5.2860   -4.6130   19.9030 O   0  0  0  0  0  0  0  0  0  0  0  0
    6.7690   -4.1470   21.5780 N   0  0  0  0  0  0  0  0  0  0  0  0
    7.7040   -3.2000   22.1530 C   0  0  0  0  0  0  0  0  0  0  0  0
    7.0830   -2.6730   23.4150 C   0  0  0  0  0  0  0  0  0  0  0  0
    5.9520   -3.5360   23.8940 C   0  0  0  0  0  0  0  0  0  0  0  0
    5.5460   -3.1950   25.2810 C   0  0  0  0  0  0  0  0  0  0  0  0
    4.3340   -2.9450   25.5370 O   0  0  0  0  0  0  0  0  0  0  0  0
    6.4380   -3.1300   26.3790 N   0  0  0  0  0  0  0  0  0  0  0  0
    6.2000   -3.9810   27.5650 C   0  0  0  0  0  0  0  0  0  0  0  0
    7.0880   -5.1340   27.4130 C   0  0  0  0  0  0  0  0  0  0  0  0
    8.3610   -4.8430   26.7960 C   0  0  0  0  0  0  0  0  0  0  0  0
    8.5880   -4.1970   25.5040 N   0  0  0  0  0  0  0  0  0  0  0  0
    9.8830   -4.0180   25.1520 N   0  0  0  0  0  0  0  0  0  0  0  0
   10.8390   -4.4710   26.0540 C   0  0  0  0  0  0  0  0  0  0  0  0
    9.8900   -5.1440   27.3930 S   0  0  0  0  0  0  0  0  0  0  0  0
    6.0800   -5.0070   23.6680 C   0  0  0  0  0  0  0  0  0  0  0  0
    6.5850   -5.3650   22.3160 C   0  0  0  0  0  0  0  0  0  0  0  0
  1  2  1  0
  2  3  2  0
  2  4  1  0
  4  5  1  0
  5  6  1  0
  6  7  1  0
  7  8  1  0
  8  9  2  0
  8 10  1  0
 10 11  1  0
 11 12  1  0
 12 13  1  0
 13 14  2  0
 14 15  1  0
 15 16  2  0
 13 17  1  0
 16 17  1  0
  7 18  1  0
  4 19  1  0
 18 19  1  0
M  END
