piperidine-amides-19750-covalent
     RDKit          3D

 22 25  0  0  0  0  0  0  0  0999 V2000
    7.1350   -3.3360   19.2650 C   0  0  0  0  0  0  0  0  0  0  0  0
    6.3920   -4.1210   20.2790 C   0  0  0  0  0  0  0  0  0  0  0  0
    5.3340   -4.6440   19.9260 O   0  0  0  0  0  0  0  0  0  0  0  0
    6.9410   -4.2810   21.5480 N   0  0  0  0  0  0  0  0  0  0  0  0
    6.7260   -5.4990   22.2960 C   0  0  0  0  0  0  0  0  0  0  0  0
    6.1550   -5.1480   23.6330 C   0  0  0  0  0  0  0  0  0  0  0  0
    6.2410   -3.6340   23.7890 C   0  0  0  0  0  0  0  0  0  0  0  0
    5.6950   -3.2570   25.0820 C   0  0  0  0  0  0  0  0  0  0  0  0
    4.7620   -2.4500   25.1390 O   0  0  0  0  0  0  0  0  0  0  0  0
    6.1990   -3.8170   26.2400 N   0  0  0  0  0  0  0  0  0  0  0  0
    6.2580   -2.9550   27.3660 C   0  0  0  0  0  0  0  0  0  0  0  0
    5.4250   -3.7820   28.2550 C   0  0  1  0  0  0  0  0  0  0  0  0
    4.7750   -3.3200   29.3520 C   0  0  0  0  0  0  0  0  0  0  0  0
    3.7780   -2.6900   28.7730 C   0  0  0  0  0  0  0  0  0  0  0  0
    3.9410   -3.1700   27.5270 C   0  0  0  0  0  0  0  0  0  0  0  0
    4.4650   -4.6110   27.3850 C   0  0  2  0  0  0  0  0  0  0  0  0
    4.2670   -5.1280   28.8090 C   0  0  0  0  0  0  0  0  0  0  0  0
    5.3380   -5.6600   29.4030 O   0  0  0  0  0  0  0  0  0  0  0  0
    6.2930   -4.8560   28.9380 C   0  0  0  0  0  0  0  0  0  0  0  0
    5.5510   -5.0920   26.5060 C   0  0  0  0  0  0  0  0  0  0  0  0
    7.6190   -3.1260   23.5520 C   0  0  0  0  0  0  0  0  0  0  0  0
    7.8150   -3.2330   22.0670 C   0  0  0  0  0  0  0  0  0  0  0  0
  1  2  1  0
  2  3  2  0
  2  4  1  0
  4  5  1  0
  5  6  1  0
  6  7  1  0
  7  8  1  0
  8  9  2  0
  8 10  1  0
 10 11  1  0
 12 11  1  6
 12 13  1  0
 13 14  1  0
 14 15  1  0
 12 16  1  0
 16 15  1  6
 16 17  1  0
 17 18  1  0
 12 19  1  0
 18 19  1  0
 10 20  1  0
 16 20  1  0
  7 21  1  0
  4 22  1  0
 21 22  1  0
M  END
