piperidine-amides-4845-covalent
     RDKit          3D

 23 24  0  0  0  0  0  0  0  0999 V2000
    7.1480   -3.2750   19.1930 C   0  0  0  0  0  0  0  0  0  0  0  0
    6.3320   -3.9830   20.2000 C   0  0  0  0  0  0  0  0  0  0  0  0
    5.2360   -4.4420   19.8280 O   0  0  0  0  0  0  0  0  0  0  0  0
    6.8150   -4.1680   21.4930 N   0  0  0  0  0  0  0  0  0  0  0  0
    6.3620   -5.2770   22.2620 C   0  0  0  0  0  0  0  0  0  0  0  0
    5.9140   -4.9090   23.6090 C   0  0  0  0  0  0  0  0  0  0  0  0
    6.7090   -3.8390   24.2610 C   0  0  0  0  0  0  0  0  0  0  0  0
    6.0630   -3.3450   25.4980 C   0  0  0  0  0  0  0  0  0  0  0  0
    4.8430   -3.0660   25.4610 O   0  0  0  0  0  0  0  0  0  0  0  0
    6.8170   -3.1870   26.6770 N   0  0  0  0  0  0  0  0  0  0  0  0
    7.1370   -4.3220   27.5810 C   0  0  1  0  0  0  0  0  0  0  0  0
    5.8510   -4.8960   28.0940 C   0  0  0  0  0  0  0  0  0  0  0  0
    4.8800   -4.1600   28.8750 C   0  0  0  0  0  0  0  0  0  0  0  0
    3.7450   -4.8100   29.2810 C   0  0  0  0  0  0  0  0  0  0  0  0
    3.4910   -6.1350   28.9760 C   0  0  0  0  0  0  0  0  0  0  0  0
    2.3330   -6.6740   29.4320 F   0  0  0  0  0  0  0  0  0  0  0  0
    4.3870   -6.8660   28.2370 C   0  0  0  0  0  0  0  0  0  0  0  0
    5.5660   -6.3490   27.7620 C   0  0  0  0  0  0  0  0  0  0  0  0
    8.1190   -5.2580   27.1950 C   0  0  0  0  0  0  0  0  0  0  0  0
    9.0630   -5.4870   28.1660 F   0  0  0  0  0  0  0  0  0  0  0  0
    8.8030   -4.7550   26.0920 F   0  0  0  0  0  0  0  0  0  0  0  0
    6.9730   -2.7030   23.3150 C   0  0  0  0  0  0  0  0  0  0  0  0
    7.6900   -3.2100   22.1350 C   0  0  0  0  0  0  0  0  0  0  0  0
  1  2  1  0
  2  3  2  0
  2  4  1  0
  4  5  1  0
  5  6  1  0
  6  7  1  0
  7  8  1  0
  8  9  2  0
  8 10  1  0
 11 10  1  6
 11 12  1  0
 12 13  2  0
 13 14  1  0
 14 15  2  0
 15 16  1  0
 15 17  1  0
 12 18  1  0
 17 18  2  0
 11 19  1  0
 19 20  1  0
 19 21  1  0
  7 22  1  0
  4 23  1  0
 22 23  1  0
M  END
