piperidine-amides-19897-covalent
     RDKit          3D

 22 23  0  0  0  0  0  0  0  0999 V2000
    7.1220   -3.2400   19.1940 C   0  0  0  0  0  0  0  0  0  0  0  0
    6.3410   -4.0040   20.2030 C   0  0  0  0  0  0  0  0  0  0  0  0
    5.2680   -4.4780   19.8480 O   0  0  0  0  0  0  0  0  0  0  0  0
    6.8570   -4.2040   21.4830 N   0  0  0  0  0  0  0  0  0  0  0  0
    6.4580   -5.3380   22.2670 C   0  0  0  0  0  0  0  0  0  0  0  0
    5.6870   -4.8420   23.4580 C   0  0  0  0  0  0  0  0  0  0  0  0
    6.5480   -3.8220   24.2020 C   0  0  0  0  0  0  0  0  0  0  0  0
    5.7770   -3.3610   25.3750 C   0  0  0  0  0  0  0  0  0  0  0  0
    4.5410   -3.4310   25.3400 O   0  0  0  0  0  0  0  0  0  0  0  0
    6.4090   -2.8510   26.5300 N   0  0  0  0  0  0  0  0  0  0  0  0
    6.3550   -3.6730   27.7180 C   0  0  0  0  0  0  0  0  0  0  0  0
    6.6180   -1.4360   26.6300 C   0  0  0  0  0  0  0  0  0  0  0  0
    5.5570   -0.8080   27.2300 C   0  0  0  0  0  0  0  0  0  0  0  0
    4.2250   -0.6930   26.7860 N   0  0  0  0  0  0  0  0  0  0  0  0
    3.5220   -0.0070   27.6580 N   0  0  0  0  0  0  0  0  0  0  0  0
    4.3220    0.3510   28.6820 C   0  0  0  0  0  0  0  0  0  0  0  0
    5.5480   -0.1390   28.4100 N   0  0  0  0  0  0  0  0  0  0  0  0
    6.5890    0.0460   29.2410 C   0  0  0  0  0  0  0  0  0  0  0  0
    7.5200   -1.1270   29.4900 C   0  0  0  0  0  0  0  0  0  0  0  0
    6.3960   -0.8560   30.3570 C   0  0  0  0  0  0  0  0  0  0  0  0
    6.9860   -2.6820   23.3890 C   0  0  0  0  0  0  0  0  0  0  0  0
    7.5540   -3.0980   22.0820 C   0  0  0  0  0  0  0  0  0  0  0  0
  1  2  1  0
  2  3  2  0
  2  4  1  0
  4  5  1  0
  5  6  1  0
  6  7  1  0
  7  8  1  0
  8  9  2  0
  8 10  1  0
 10 11  1  0
 10 12  1  0
 12 13  1  0
 13 14  2  0
 14 15  1  0
 15 16  2  0
 13 17  1  0
 16 17  1  0
 17 18  1  0
 18 19  1  0
 18 20  1  0
  7 21  1  0
  4 22  1  0
 21 22  1  0
M  END
