piperidine-amides-19564-covalent
     RDKit          3D

 22 24  0  0  0  0  0  0  0  0999 V2000
    7.1640   -3.3790   19.4710 C   0  0  0  0  0  0  0  0  0  0  0  0
    6.5100   -4.2560   20.4060 C   0  0  0  0  0  0  0  0  0  0  0  0
    5.4700   -4.8850   20.0090 O   0  0  0  0  0  0  0  0  0  0  0  0
    7.0300   -4.4670   21.7100 N   0  0  0  0  0  0  0  0  0  0  0  0
    6.6100   -5.6540   22.4540 C   0  0  0  0  0  0  0  0  0  0  0  0
    5.6170   -4.9580   23.4610 C   0  0  0  0  0  0  0  0  0  0  0  0
    6.3280   -3.7960   24.1510 C   0  0  0  0  0  0  0  0  0  0  0  0
    5.3080   -3.1580   25.1960 C   0  0  0  0  0  0  0  0  0  0  0  0
    4.3110   -2.8140   24.5890 O   0  0  0  0  0  0  0  0  0  0  0  0
    5.7150   -3.1440   26.4010 N   0  0  0  0  0  0  0  0  0  0  0  0
    6.3460   -2.7760   27.5630 C   0  0  0  0  0  0  0  0  0  0  0  0
    6.8010   -3.3740   28.7240 C   0  0  0  0  0  0  0  0  0  0  0  0
    6.4810   -4.7220   28.7250 C   0  0  0  0  0  0  0  0  0  0  0  0
    5.3690   -4.9590   27.8790 C   0  0  0  0  0  0  0  0  0  0  0  0
    5.1290   -6.4840   27.9410 C   0  0  0  0  0  0  0  0  0  0  0  0
    4.8570   -6.6050   29.3140 C   0  0  0  0  0  0  0  0  0  0  0  0
    6.0480   -6.4240   29.9690 C   0  0  0  0  0  0  0  0  0  0  0  0
    6.1620   -6.9260   31.2370 O   0  0  0  0  0  0  0  0  0  0  0  0
    6.9730   -5.7480   29.3480 N   0  0  0  0  0  0  0  0  0  0  0  0
    4.7500   -3.9020   27.1470 C   0  0  0  0  0  0  0  0  0  0  0  0
    6.9820   -2.8120   23.2240 C   0  0  0  0  0  0  0  0  0  0  0  0
    7.8220   -3.4880   22.3860 C   0  0  0  0  0  0  0  0  0  0  0  0
  1  2  1  0
  2  3  2  0
  2  4  1  0
  4  5  1  0
  5  6  1  0
  6  7  1  0
  7  8  1  0
  8  9  2  0
  8 10  1  0
 10 11  1  0
 11 12  1  0
 12 13  1  0
 13 14  2  0
 14 15  1  0
 15 16  1  0
 16 17  1  0
 17 18  2  0
 13 19  1  0
 17 19  1  0
 10 20  1  0
 14 20  1  0
  7 21  1  0
  4 22  1  0
 21 22  1  0
M  END
