piperidine-amides-32396-covalent
     RDKit          3D

 24 26  0  0  0  0  0  0  0  0999 V2000
    7.0550   -3.3360   19.3750 C   0  0  0  0  0  0  0  0  0  0  0  0
    6.3570   -4.2120   20.3540 C   0  0  0  0  0  0  0  0  0  0  0  0
    5.3480   -4.8360   19.9790 O   0  0  0  0  0  0  0  0  0  0  0  0
    6.8780   -4.3580   21.6640 N   0  0  0  0  0  0  0  0  0  0  0  0
    6.6760   -5.5640   22.4200 C   0  0  0  0  0  0  0  0  0  0  0  0
    5.8700   -5.1650   23.6600 C   0  0  0  0  0  0  0  0  0  0  0  0
    6.4990   -3.9430   24.2550 C   0  0  0  0  0  0  0  0  0  0  0  0
    5.6920   -3.4050   25.3970 C   0  0  0  0  0  0  0  0  0  0  0  0
    4.6510   -2.8440   25.0450 O   0  0  0  0  0  0  0  0  0  0  0  0
    6.0270   -3.5030   26.7760 N   0  0  0  0  0  0  0  0  0  0  0  0
    6.3490   -4.6550   27.4980 C   0  0  0  0  0  0  0  0  0  0  0  0
    5.5750   -4.8930   28.5030 C   0  0  0  0  0  0  0  0  0  0  0  0
    4.7300   -3.8050   28.6350 C   0  0  2  0  0  0  0  0  0  0  0  0
    3.3870   -4.0790   28.4200 O   0  0  0  0  0  0  0  0  0  0  0  0
    2.7340   -5.2090   28.8930 C   0  0  0  0  0  0  0  0  0  0  0  0
    2.7440   -5.5590   30.3420 C   0  0  0  0  0  0  0  0  0  0  0  0
    2.0590   -6.7220   30.7350 N   0  0  0  0  0  0  0  0  0  0  0  0
    1.4010   -7.4900   29.7180 C   0  0  0  0  0  0  0  0  0  0  0  0
    1.4490   -7.0470   28.2560 C   0  0  0  0  0  0  0  0  0  0  0  0
    0.5610   -8.0890   26.9220 Br  0  0  0  0  0  0  0  0  0  0  0  0
    2.1250   -5.8980   27.8830 C   0  0  0  0  0  0  0  0  0  0  0  0
    5.2550   -2.7810   27.8130 C   0  0  0  0  0  0  0  0  0  0  0  0
    6.7570   -2.8410   23.2740 C   0  0  0  0  0  0  0  0  0  0  0  0
    7.6260   -3.3180   22.3220 C   0  0  0  0  0  0  0  0  0  0  0  0
  1  2  1  0
  2  3  2  0
  2  4  1  0
  4  5  1  0
  5  6  1  0
  6  7  1  0
  7  8  1  0
  8  9  2  0
  8 10  1  0
 10 11  1  0
 11 12  1  0
 12 13  1  0
 13 14  1  6
 14 15  1  0
 15 16  2  0
 16 17  1  0
 17 18  2  0
 18 19  1  0
 19 20  1  0
 15 21  1  0
 19 21  2  0
 10 22  1  0
 13 22  1  0
  7 23  1  0
  4 24  1  0
 23 24  1  0
M  END
