piperidine-amides-4460-covalent
     RDKit          3D

 25 27  0  0  0  0  0  0  0  0999 V2000
    7.0580   -3.3350   19.3190 C   0  0  0  0  0  0  0  0  0  0  0  0
    6.4060   -4.1770   20.3370 C   0  0  0  0  0  0  0  0  0  0  0  0
    5.3780   -4.8000   19.9770 O   0  0  0  0  0  0  0  0  0  0  0  0
    6.9520   -4.3100   21.6460 N   0  0  0  0  0  0  0  0  0  0  0  0
    6.5920   -5.4490   22.4260 C   0  0  0  0  0  0  0  0  0  0  0  0
    6.0380   -5.0860   23.7190 C   0  0  0  0  0  0  0  0  0  0  0  0
    6.2130   -3.6540   24.0080 C   0  0  0  0  0  0  0  0  0  0  0  0
    5.7740   -3.2940   25.3990 C   0  0  0  0  0  0  0  0  0  0  0  0
    4.6630   -3.6990   25.7890 O   0  0  0  0  0  0  0  0  0  0  0  0
    6.5420   -2.4970   26.2760 N   0  0  0  0  0  0  0  0  0  0  0  0
    6.0350   -1.4860   27.1330 C   0  0  2  0  0  0  0  0  0  0  0  0
    5.6780   -0.1740   26.5970 C   0  0  0  0  0  0  0  0  0  0  0  0
    5.7400    0.8240   27.7830 C   0  0  0  0  0  0  0  0  0  0  0  0
    6.6800    0.1590   28.6960 N   0  0  0  0  0  0  0  0  0  0  0  0
    6.5360    0.5360   30.0760 C   0  0  0  0  0  0  0  0  0  0  0  0
    7.5990   -0.1280   30.9610 C   0  0  0  0  0  0  0  0  0  0  0  0
    7.4690    0.2650   32.4300 C   0  0  0  0  0  0  0  0  0  0  0  0
    6.3140    1.2450   32.7770 C   0  0  0  0  0  0  0  0  0  0  0  0
    6.1590    1.6210   34.0820 F   0  0  0  0  0  0  0  0  0  0  0  0
    5.3170    1.8440   31.8210 C   0  0  0  0  0  0  0  0  0  0  0  0
    4.0520    2.9420   32.3240 Cl  0  0  0  0  0  0  0  0  0  0  0  0
    5.5480    1.3850   30.4230 C   0  0  0  0  0  0  0  0  0  0  0  0
    6.9320   -1.1620   28.2860 C   0  0  0  0  0  0  0  0  0  0  0  0
    7.6040   -3.2560   23.6570 C   0  0  0  0  0  0  0  0  0  0  0  0
    7.6870   -3.2010   22.2580 C   0  0  0  0  0  0  0  0  0  0  0  0
  1  2  1  0
  2  3  2  0
  2  4  1  0
  4  5  1  0
  5  6  1  0
  6  7  1  0
  7  8  1  0
  8  9  2  0
  8 10  1  0
 11 10  1  6
 11 12  1  0
 12 13  1  0
 13 14  1  0
 14 15  1  0
 15 16  2  0
 16 17  1  0
 17 18  2  0
 18 19  1  0
 18 20  1  0
 20 21  1  0
 15 22  1  0
 20 22  2  0
 11 23  1  0
 14 23  1  0
  7 24  1  0
  4 25  1  0
 24 25  1  0
M  END
