piperidine-amides-3363-covalent
     RDKit          3D

 21 22  0  0  0  0  0  0  0  0999 V2000
    7.1020   -3.2730   19.1460 C   0  0  0  0  0  0  0  0  0  0  0  0
    6.3350   -3.9960   20.1560 C   0  0  0  0  0  0  0  0  0  0  0  0
    5.2570   -4.5020   19.8630 O   0  0  0  0  0  0  0  0  0  0  0  0
    6.8640   -4.1740   21.4750 N   0  0  0  0  0  0  0  0  0  0  0  0
    6.4890   -5.3260   22.2510 C   0  0  0  0  0  0  0  0  0  0  0  0
    5.7270   -4.8720   23.4640 C   0  0  0  0  0  0  0  0  0  0  0  0
    6.5280   -3.7480   24.0930 C   0  0  0  0  0  0  0  0  0  0  0  0
    5.8490   -3.2340   25.3150 C   0  0  0  0  0  0  0  0  0  0  0  0
    4.7380   -2.6700   25.2790 O   0  0  0  0  0  0  0  0  0  0  0  0
    6.4930   -3.4000   26.5640 N   0  0  0  0  0  0  0  0  0  0  0  0
    5.9870   -4.4010   27.4710 C   0  0  2  0  0  0  0  0  0  0  0  0
    6.8170   -4.4420   28.7230 C   0  0  0  0  0  0  0  0  0  0  0  0
    6.3260   -5.4270   29.5620 O   0  0  0  0  0  0  0  0  0  0  0  0
    6.0060   -5.7410   26.8550 C   0  0  0  0  0  0  0  0  0  0  0  0
    4.8440   -6.5140   26.7310 C   0  0  0  0  0  0  0  0  0  0  0  0
    4.2170   -6.8850   25.4900 N   0  0  0  0  0  0  0  0  0  0  0  0
    3.0660   -7.6570   25.5840 C   0  0  0  0  0  0  0  0  0  0  0  0
    2.7720   -7.9040   26.9510 C   0  0  0  0  0  0  0  0  0  0  0  0
    3.8470   -7.2310   28.0610 S   0  0  0  0  0  0  0  0  0  0  0  0
    6.8440   -2.6120   23.1620 C   0  0  0  0  0  0  0  0  0  0  0  0
    7.6280   -3.1270   22.1530 C   0  0  0  0  0  0  0  0  0  0  0  0
  1  2  1  0
  2  3  2  0
  2  4  1  0
  4  5  1  0
  5  6  1  0
  6  7  1  0
  7  8  1  0
  8  9  2  0
  8 10  1  0
 10 11  1  0
 11 12  1  1
 12 13  1  0
 11 14  1  0
 14 15  1  0
 15 16  2  0
 16 17  1  0
 17 18  2  0
 15 19  1  0
 18 19  1  0
  7 20  1  0
  4 21  1  0
 20 21  1  0
M  END
