piperidine-amides-8908-covalent
     RDKit          3D

 22 23  0  0  0  0  0  0  0  0999 V2000
    7.1270   -3.2720   19.1950 C   0  0  0  0  0  0  0  0  0  0  0  0
    6.3860   -4.0340   20.2010 C   0  0  0  0  0  0  0  0  0  0  0  0
    5.2970   -4.5360   19.8790 O   0  0  0  0  0  0  0  0  0  0  0  0
    6.9370   -4.2370   21.4840 N   0  0  0  0  0  0  0  0  0  0  0  0
    6.4170   -5.3140   22.2670 C   0  0  0  0  0  0  0  0  0  0  0  0
    5.5620   -4.7280   23.3510 C   0  0  0  0  0  0  0  0  0  0  0  0
    6.4910   -3.9600   24.2610 C   0  0  0  0  0  0  0  0  0  0  0  0
    5.7390   -3.4360   25.4350 C   0  0  0  0  0  0  0  0  0  0  0  0
    4.5150   -3.3870   25.3310 O   0  0  0  0  0  0  0  0  0  0  0  0
    6.4750   -3.0400   26.5410 N   0  0  0  0  0  0  0  0  0  0  0  0
    6.1950   -3.5140   27.8510 C   0  0  0  0  0  0  0  0  0  0  0  0
    6.1940   -2.4970   28.8090 C   0  0  0  0  0  0  0  0  0  0  0  0
    4.9900   -2.4630   29.6490 N   0  0  0  0  0  0  0  0  0  0  0  0
    4.9320   -1.4770   30.6140 C   0  0  0  0  0  0  0  0  0  0  0  0
    3.9890   -1.1430   31.5700 C   0  0  0  0  0  0  0  0  0  0  0  0
    2.9520   -0.3720   31.0690 N   0  0  0  0  0  0  0  0  0  0  0  0
    2.1040   -0.9500   30.0720 C   0  0  0  0  0  0  0  0  0  0  0  0
    2.7720    0.8790   31.5550 C   0  0  0  0  0  0  0  0  0  0  0  0
    6.1550   -0.6140   30.6010 C   0  0  0  0  0  0  0  0  0  0  0  0
    7.2030   -1.2000   29.3470 S   0  0  0  0  0  0  0  0  0  0  0  0
    7.2080   -2.8840   23.5350 C   0  0  0  0  0  0  0  0  0  0  0  0
    7.6310   -3.1250   22.0800 C   0  0  0  0  0  0  0  0  0  0  0  0
  1  2  1  0
  2  3  2  0
  2  4  1  0
  4  5  1  0
  5  6  1  0
  6  7  1  0
  7  8  1  0
  8  9  2  0
  8 10  1  0
 10 11  1  0
 11 12  1  0
 12 13  2  0
 13 14  1  0
 14 15  1  0
 15 16  1  0
 16 17  1  0
 16 18  1  0
 14 19  2  0
 12 20  1  0
 19 20  1  0
  7 21  1  0
  4 22  1  0
 21 22  1  0
M  END
