piperidine-amides-8094-covalent
     RDKit          3D

 26 28  0  0  0  0  0  0  0  0999 V2000
    7.2060   -3.2820   19.1930 C   0  0  0  0  0  0  0  0  0  0  0  0
    6.4180   -3.9730   20.2140 C   0  0  0  0  0  0  0  0  0  0  0  0
    5.3470   -4.5240   19.8840 O   0  0  0  0  0  0  0  0  0  0  0  0
    6.9140   -4.0330   21.5360 N   0  0  0  0  0  0  0  0  0  0  0  0
    6.4020   -5.0590   22.4060 C   0  0  0  0  0  0  0  0  0  0  0  0
    5.6140   -4.4510   23.5430 C   0  0  0  0  0  0  0  0  0  0  0  0
    5.7140   -2.9390   23.4390 C   0  0  0  0  0  0  0  0  0  0  0  0
    5.0260   -2.2420   24.5760 C   0  0  0  0  0  0  0  0  0  0  0  0
    4.4130   -2.9820   25.3520 O   0  0  0  0  0  0  0  0  0  0  0  0
    5.1140   -0.8250   24.6900 N   0  0  0  0  0  0  0  0  0  0  0  0
    5.1660   -0.2410   25.9900 C   0  0  0  0  0  0  0  0  0  0  0  0
    5.3770   -1.3110   26.7270 C   0  0  0  0  0  0  0  0  0  0  0  0
    4.7660   -1.8970   27.8260 C   0  0  0  0  0  0  0  0  0  0  0  0
    5.1810   -3.1010   28.3860 C   0  0  0  0  0  0  0  0  0  0  0  0
    6.3490   -3.7120   27.6960 C   0  0  0  0  0  0  0  0  0  0  0  0
    6.8910   -4.8100   27.9790 N   0  0  0  0  0  0  0  0  0  0  0  0
    8.1720   -4.8840   27.7980 C   0  0  0  0  0  0  0  0  0  0  0  0
    8.8020   -6.1110   28.0580 C   0  0  0  0  0  0  0  0  0  0  0  0
    7.6230   -6.8810   28.4870 N   0  0  0  0  0  0  0  0  0  0  0  0
    6.4480   -6.0810   28.4400 C   0  0  0  0  0  0  0  0  0  0  0  0
    5.1700   -6.8440   28.8690 C   0  0  0  0  0  0  0  0  0  0  0  0
    7.0320   -3.1010   26.5500 C   0  0  0  0  0  0  0  0  0  0  0  0
    8.1390   -3.6990   25.9350 F   0  0  0  0  0  0  0  0  0  0  0  0
    6.5490   -1.9940   26.1410 C   0  0  0  0  0  0  0  0  0  0  0  0
    7.1220   -2.4760   23.3590 C   0  0  0  0  0  0  0  0  0  0  0  0
    7.6800   -2.9300   22.0620 C   0  0  0  0  0  0  0  0  0  0  0  0
  1  2  1  0
  2  3  2  0
  2  4  1  0
  4  5  1  0
  5  6  1  0
  6  7  1  0
  7  8  1  0
  8  9  2  0
  8 10  1  0
 10 11  1  0
 11 12  1  0
 12 13  2  0
 13 14  1  0
 14 15  2  0
 15 16  1  0
 16 17  1  0
 17 18  2  0
 18 19  1  0
 16 20  1  0
 19 20  2  0
 20 21  1  0
 15 22  1  0
 22 23  1  0
 12 24  1  0
 22 24  2  0
  7 25  1  0
  4 26  1  0
 25 26  1  0
M  END
