piperidine-amides-4186-covalent
     RDKit          3D

 26 28  0  0  0  0  0  0  0  0999 V2000
    7.0610   -3.3230   19.3360 C   0  0  0  0  0  0  0  0  0  0  0  0
    6.3870   -4.1580   20.3450 C   0  0  0  0  0  0  0  0  0  0  0  0
    5.3530   -4.7630   19.9610 O   0  0  0  0  0  0  0  0  0  0  0  0
    6.8890   -4.3260   21.6700 N   0  0  0  0  0  0  0  0  0  0  0  0
    7.6600   -3.2600   22.2460 C   0  0  0  0  0  0  0  0  0  0  0  0
    7.2080   -2.8390   23.5570 C   0  0  0  0  0  0  0  0  0  0  0  0
    6.1090   -3.6780   24.0270 C   0  0  0  0  0  0  0  0  0  0  0  0
    5.5730   -3.2760   25.3830 C   0  0  0  0  0  0  0  0  0  0  0  0
    4.3380   -3.2740   25.5350 O   0  0  0  0  0  0  0  0  0  0  0  0
    6.3800   -2.8930   26.4850 N   0  0  0  0  0  0  0  0  0  0  0  0
    6.6960   -1.5840   26.9650 C   0  0  2  0  0  0  0  0  0  0  0  0
    7.0060   -1.4330   28.4010 C   0  0  0  0  0  0  0  0  0  0  0  0
    6.7310   -0.0060   28.8590 C   0  0  0  0  0  0  0  0  0  0  0  0
    5.4100    0.2520   28.7780 C   0  0  0  0  0  0  0  0  0  0  0  0
    4.4960    0.7460   29.7330 N   0  0  0  0  0  0  0  0  0  0  0  0
    3.2830    0.7820   29.0620 C   0  0  0  0  0  0  0  0  0  0  0  0
    2.0300    1.2510   29.7370 C   0  0  0  0  0  0  0  0  0  0  0  0
    0.8810    0.5580   29.3520 O   0  0  0  0  0  0  0  0  0  0  0  0
    2.0000    2.2870   30.6750 O   0  0  0  0  0  0  0  0  0  0  0  0
    1.6240    3.5830   30.2590 C   0  0  0  0  0  0  0  0  0  0  0  0
    0.2850    3.8900   30.8850 C   0  0  0  0  0  0  0  0  0  0  0  0
    3.4370    0.3150   27.6910 C   0  0  0  0  0  0  0  0  0  0  0  0
    4.8700   -0.0260   27.5530 N   0  0  0  0  0  0  0  0  0  0  0  0
    5.6900   -0.5450   26.4470 C   0  0  0  0  0  0  0  0  0  0  0  0
    6.5120   -5.1070   23.8780 C   0  0  0  0  0  0  0  0  0  0  0  0
    6.3340   -5.3870   22.5080 C   0  0  0  0  0  0  0  0  0  0  0  0
  1  2  1  0
  2  3  2  0
  2  4  1  0
  4  5  1  0
  5  6  1  0
  6  7  1  0
  7  8  1  0
  8  9  2  0
  8 10  1  0
 11 10  1  1
 11 12  1  0
 12 13  1  0
 13 14  1  0
 14 15  2  0
 15 16  1  0
 16 17  1  0
 17 18  2  0
 17 19  1  0
 19 20  1  0
 20 21  1  0
 16 22  2  0
 14 23  1  0
 22 23  1  0
 11 24  1  0
 23 24  1  0
  7 25  1  0
  4 26  1  0
 25 26  1  0
M  END
