piperidine-amides-25246-covalent
     RDKit          3D

 25 26  0  0  0  0  0  0  0  0999 V2000
    7.0610   -3.2820   19.3190 C   0  0  0  0  0  0  0  0  0  0  0  0
    6.3510   -4.1010   20.3360 C   0  0  0  0  0  0  0  0  0  0  0  0
    5.3470   -4.6990   19.9460 O   0  0  0  0  0  0  0  0  0  0  0  0
    6.8350   -4.2180   21.6500 N   0  0  0  0  0  0  0  0  0  0  0  0
    6.7000   -5.4540   22.3770 C   0  0  0  0  0  0  0  0  0  0  0  0
    6.0660   -5.1660   23.7030 C   0  0  0  0  0  0  0  0  0  0  0  0
    6.0200   -3.6540   23.8850 C   0  0  0  0  0  0  0  0  0  0  0  0
    5.5390   -3.3420   25.2560 C   0  0  0  0  0  0  0  0  0  0  0  0
    4.3280   -3.4630   25.4730 O   0  0  0  0  0  0  0  0  0  0  0  0
    6.3600   -2.9070   26.3190 N   0  0  0  0  0  0  0  0  0  0  0  0
    6.1930   -3.6370   27.5670 C   0  0  0  0  0  0  0  0  0  0  0  0
    5.6980   -5.0340   27.2450 C   0  0  0  0  0  0  0  0  0  0  0  0
    5.6770   -6.0550   28.1570 C   0  0  0  0  0  0  0  0  0  0  0  0
    6.6570   -6.0700   29.0850 C   0  0  0  0  0  0  0  0  0  0  0  0
    6.7490   -1.5660   26.5390 C   0  0  0  0  0  0  0  0  0  0  0  0
    5.6140   -0.5690   26.6850 C   0  0  0  0  0  0  0  0  0  0  0  0
    4.3510   -1.2500   27.0800 C   0  0  0  0  0  0  0  0  0  0  0  0
    3.1820   -0.2850   27.2360 C   0  0  0  0  0  0  0  0  0  0  0  0
    3.3790    1.2000   26.9950 C   0  0  0  0  0  0  0  0  0  0  0  0
    4.6590    1.8730   26.5970 C   0  0  0  0  0  0  0  0  0  0  0  0
    4.9690    3.3380   26.3290 C   0  0  0  0  0  0  0  0  0  0  0  0
    6.0280    3.9560   26.8880 N   0  0  0  0  0  0  0  0  0  0  0  0
    5.8140    0.9190   26.4420 C   0  0  0  0  0  0  0  0  0  0  0  0
    7.3810   -3.0490   23.5880 C   0  0  0  0  0  0  0  0  0  0  0  0
    7.6920   -3.1770   22.2410 C   0  0  0  0  0  0  0  0  0  0  0  0
  1  2  1  0
  2  3  2  0
  2  4  1  0
  4  5  1  0
  5  6  1  0
  6  7  1  0
  7  8  1  0
  8  9  2  0
  8 10  1  0
 10 11  1  0
 11 12  1  0
 12 13  1  0
 13 14  1  0
 10 15  1  0
 15 16  1  0
 16 17  2  0
 17 18  1  0
 18 19  2  0
 19 20  1  0
 20 21  1  0
 21 22  3  0
 16 23  1  0
 20 23  2  0
  7 24  1  0
  4 25  1  0
 24 25  1  0
M  END
