piperidine-amides-24856-covalent
     RDKit          3D

 24 25  0  0  0  0  0  0  0  0999 V2000
    7.0640   -3.3450   19.3580 C   0  0  0  0  0  0  0  0  0  0  0  0
    6.4000   -4.2210   20.3300 C   0  0  0  0  0  0  0  0  0  0  0  0
    5.3730   -4.8480   19.9860 O   0  0  0  0  0  0  0  0  0  0  0  0
    6.9290   -4.4250   21.6160 N   0  0  0  0  0  0  0  0  0  0  0  0
    6.4740   -5.5660   22.3450 C   0  0  0  0  0  0  0  0  0  0  0  0
    5.4620   -4.9780   23.3240 C   0  0  0  0  0  0  0  0  0  0  0  0
    6.2340   -4.0740   24.2760 C   0  0  0  0  0  0  0  0  0  0  0  0
    5.2690   -3.4380   25.2280 C   0  0  0  0  0  0  0  0  0  0  0  0
    4.4010   -2.6900   24.7440 O   0  0  0  0  0  0  0  0  0  0  0  0
    5.3330   -3.6580   26.6380 N   0  0  0  0  0  0  0  0  0  0  0  0
    4.2340   -3.3150   27.5030 C   0  0  0  0  0  0  0  0  0  0  0  0
    4.4860   -3.7560   28.9610 C   0  0  0  0  0  0  0  0  0  0  0  0
    5.7200   -4.1460   29.3720 C   0  0  0  0  0  0  0  0  0  0  0  0
    6.4730   -4.5100   28.3660 C   0  0  1  0  0  0  0  0  0  0  0  0
    6.0810   -5.7620   27.8900 C   0  0  0  0  0  0  0  0  0  0  0  0
    6.9560   -6.6270   27.3580 O   0  0  0  0  0  0  0  0  0  0  0  0
    4.7590   -6.1370   27.9960 O   0  0  0  0  0  0  0  0  0  0  0  0
    4.0280   -6.6680   26.9070 C   0  0  0  0  0  0  0  0  0  0  0  0
    2.5830   -6.2220   26.9710 C   0  0  0  0  0  0  0  0  0  0  0  0
    2.9690   -7.6850   27.1010 C   0  0  0  0  0  0  0  0  0  0  0  0
    4.4110   -6.6520   25.6110 C   0  0  0  0  0  0  0  0  0  0  0  0
    6.4250   -3.4690   27.4550 C   0  0  0  0  0  0  0  0  0  0  0  0
    6.9440   -2.9770   23.5020 C   0  0  0  0  0  0  0  0  0  0  0  0
    7.5430   -3.3460   22.3200 C   0  0  0  0  0  0  0  0  0  0  0  0
  1  2  1  0
  2  3  2  0
  2  4  1  0
  4  5  1  0
  5  6  1  0
  6  7  1  0
  7  8  1  0
  8  9  2  0
  8 10  1  0
 10 11  1  0
 11 12  1  0
 12 13  1  0
 13 14  1  0
 14 15  1  6
 15 16  2  0
 15 17  1  0
 18 17  1  0
 18 19  1  0
 18 20  1  0
 18 21  1  0
 10 22  1  0
 14 22  1  0
  7 23  1  0
  4 24  1  0
 23 24  1  0
M  END
