piperidine-amides-2433-covalent
     RDKit          3D

 26 28  0  0  0  0  0  0  0  0999 V2000
    7.0370   -3.3610   19.3540 C   0  0  0  0  0  0  0  0  0  0  0  0
    6.3300   -4.1810   20.3710 C   0  0  0  0  0  0  0  0  0  0  0  0
    5.3720   -4.8480   19.9800 O   0  0  0  0  0  0  0  0  0  0  0  0
    6.7860   -4.1970   21.6910 N   0  0  0  0  0  0  0  0  0  0  0  0
    7.7160   -3.1960   22.1570 C   0  0  0  0  0  0  0  0  0  0  0  0
    7.4610   -2.9300   23.5970 C   0  0  0  0  0  0  0  0  0  0  0  0
    6.0840   -3.4800   23.9410 C   0  0  0  0  0  0  0  0  0  0  0  0
    5.8260   -3.1530   25.3590 C   0  0  0  0  0  0  0  0  0  0  0  0
    4.7570   -3.4830   25.8900 O   0  0  0  0  0  0  0  0  0  0  0  0
    6.8190   -2.4490   26.0690 N   0  0  0  0  0  0  0  0  0  0  0  0
    6.4410   -1.4230   27.0210 C   0  0  0  0  0  0  0  0  0  0  0  0
    6.9940   -1.7990   28.4330 C   0  0  0  0  0  0  0  0  0  0  0  0
    6.3360   -0.5650   28.6560 N   0  0  0  0  0  0  0  0  0  0  0  0
    5.7200    0.1750   27.8590 N   0  0  0  0  0  0  0  0  0  0  0  0
    5.2520    1.2600   28.4920 C   0  0  0  0  0  0  0  0  0  0  0  0
    6.2140    2.1520   28.2630 C   0  0  0  0  0  0  0  0  0  0  0  0
    6.1880    3.3770   28.6980 C   0  0  0  0  0  0  0  0  0  0  0  0
    5.1450    4.0320   29.5030 C   0  0  0  0  0  0  0  0  0  0  0  0
    4.0460    3.0090   29.7650 C   0  0  0  0  0  0  0  0  0  0  0  0
    3.9720    1.5180   29.2950 C   0  0  0  0  0  0  0  0  0  0  0  0
    5.6170   -0.2240   26.4800 C   0  0  0  0  0  0  0  0  0  0  0  0
    4.8330    1.0370   26.2600 C   0  0  0  0  0  0  0  0  0  0  0  0
    3.3290    0.9370   26.4690 C   0  0  0  0  0  0  0  0  0  0  0  0
    2.7030    2.2050   26.9390 C   0  0  0  0  0  0  0  0  0  0  0  0
    6.0150   -4.9930   23.7080 C   0  0  0  0  0  0  0  0  0  0  0  0
    6.6260   -5.3860   22.5230 C   0  0  0  0  0  0  0  0  0  0  0  0
  1  2  1  0
  2  3  2  0
  2  4  1  0
  4  5  1  0
  5  6  1  0
  6  7  1  0
  7  8  1  0
  8  9  2  0
  8 10  1  0
 10 11  1  0
 11 12  1  0
 12 13  2  0
 13 14  1  0
 14 15  1  0
 15 16  2  0
 16 17  1  0
 17 18  2  0
 18 19  1  0
 15 20  1  0
 19 20  2  0
 11 21  2  0
 14 21  1  0
 21 22  1  0
 22 23  1  0
 23 24  1  0
  7 25  1  0
  4 26  1  0
 25 26  1  0
M  END
