piperidine-amides-21556-covalent
     RDKit          3D

 23 25  0  0  0  0  0  0  0  0999 V2000
    7.0690   -3.3220   19.2870 C   0  0  0  0  0  0  0  0  0  0  0  0
    6.3760   -4.1410   20.2860 C   0  0  0  0  0  0  0  0  0  0  0  0
    5.3030   -4.6860   19.9260 O   0  0  0  0  0  0  0  0  0  0  0  0
    6.9300   -4.3330   21.5490 N   0  0  0  0  0  0  0  0  0  0  0  0
    6.6650   -5.5390   22.2870 C   0  0  0  0  0  0  0  0  0  0  0  0
    6.0320   -5.1330   23.5820 C   0  0  0  0  0  0  0  0  0  0  0  0
    6.7690   -3.9910   24.2450 C   0  0  0  0  0  0  0  0  0  0  0  0
    5.8950   -3.4070   25.2690 C   0  0  0  0  0  0  0  0  0  0  0  0
    4.8850   -2.7740   24.8960 O   0  0  0  0  0  0  0  0  0  0  0  0
    6.1200   -3.5360   26.6360 N   0  0  0  0  0  0  0  0  0  0  0  0
    5.0610   -3.8120   27.5370 C   0  0  0  0  0  0  0  0  0  0  0  0
    5.7460   -4.4180   28.7290 C   0  0  0  0  0  0  0  0  0  0  0  0
    6.9890   -4.9880   28.6320 C   0  0  1  0  0  0  0  0  0  0  0  0
    7.0820   -6.3020   28.3250 C   0  0  0  0  0  0  0  0  0  0  0  0
    7.9010   -4.2550   27.9020 C   0  0  0  0  0  0  0  0  0  0  0  0
    7.3390   -3.1750   27.2470 C   0  0  2  0  0  0  0  0  0  0  0  0
    7.1100   -2.0430   28.0020 C   0  0  0  0  0  0  0  0  0  0  0  0
    8.0560   -1.6360   29.0850 C   0  0  0  0  0  0  0  0  0  0  0  0
    7.3100   -0.4350   29.5200 C   0  0  0  0  0  0  0  0  0  0  0  0
    6.0710   -0.2330   28.7120 C   0  0  0  0  0  0  0  0  0  0  0  0
    5.9240   -1.2670   27.7220 O   0  0  0  0  0  0  0  0  0  0  0  0
    7.0890   -2.8650   23.2950 C   0  0  0  0  0  0  0  0  0  0  0  0
    7.7740   -3.3310   22.2080 C   0  0  0  0  0  0  0  0  0  0  0  0
  1  2  1  0
  2  3  2  0
  2  4  1  0
  4  5  1  0
  5  6  1  0
  6  7  1  0
  7  8  1  0
  8  9  2  0
  8 10  1  0
 10 11  1  0
 11 12  1  0
 12 13  1  0
 13 14  1  6
 13 15  1  0
 10 16  1  0
 15 16  1  0
 16 17  1  1
 17 18  2  0
 18 19  1  0
 19 20  2  0
 17 21  1  0
 20 21  1  0
  7 22  1  0
  4 23  1  0
 22 23  1  0
M  END
