piperidine-amides-25892-covalent
     RDKit          3D

 25 26  0  0  0  0  0  0  0  0999 V2000
    7.1070   -3.2620   19.2320 C   0  0  0  0  0  0  0  0  0  0  0  0
    6.3750   -4.0590   20.2480 C   0  0  0  0  0  0  0  0  0  0  0  0
    5.3180   -4.5820   19.8970 O   0  0  0  0  0  0  0  0  0  0  0  0
    6.9140   -4.2300   21.5250 N   0  0  0  0  0  0  0  0  0  0  0  0
    7.6740   -3.1980   22.1770 C   0  0  0  0  0  0  0  0  0  0  0  0
    6.9040   -2.7040   23.3630 C   0  0  0  0  0  0  0  0  0  0  0  0
    6.5500   -3.8810   24.2710 C   0  0  0  0  0  0  0  0  0  0  0  0
    5.8060   -3.3400   25.4330 C   0  0  0  0  0  0  0  0  0  0  0  0
    4.5670   -3.3410   25.4150 O   0  0  0  0  0  0  0  0  0  0  0  0
    6.4870   -2.7960   26.5500 N   0  0  0  0  0  0  0  0  0  0  0  0
    6.9550   -1.4500   26.3950 C   0  0  0  0  0  0  0  0  0  0  0  0
    6.2480   -3.2760   27.8780 C   0  0  0  0  0  0  0  0  0  0  0  0
    5.5150   -4.4130   27.9280 C   0  0  0  0  0  0  0  0  0  0  0  0
    5.8250   -5.4140   27.2210 O   0  0  0  0  0  0  0  0  0  0  0  0
    4.3680   -4.5750   28.7480 N   0  0  0  0  0  0  0  0  0  0  0  0
    4.4800   -5.3870   29.9260 C   0  0  0  0  0  0  0  0  0  0  0  0
    5.3240   -6.4130   29.9650 C   0  0  0  0  0  0  0  0  0  0  0  0
    6.3490   -7.2000   29.2060 C   0  0  0  0  0  0  0  0  0  0  0  0
    5.6580   -7.3870   30.9740 C   0  0  0  0  0  0  0  0  0  0  0  0
    4.9070   -7.2410   32.2810 C   0  0  0  0  0  0  0  0  0  0  0  0
    3.9150   -6.0990   32.3410 C   0  0  0  0  0  0  0  0  0  0  0  0
    3.6650   -5.1500   31.2010 C   0  0  0  0  0  0  0  0  0  0  0  0
    2.6530   -4.0260   31.3420 C   0  0  0  0  0  0  0  0  0  0  0  0
    5.7020   -4.8900   23.5150 C   0  0  0  0  0  0  0  0  0  0  0  0
    6.5300   -5.3530   22.3460 C   0  0  0  0  0  0  0  0  0  0  0  0
  1  2  1  0
  2  3  2  0
  2  4  1  0
  4  5  1  0
  5  6  1  0
  6  7  1  0
  7  8  1  0
  8  9  2  0
  8 10  1  0
 10 11  1  0
 10 12  1  0
 12 13  1  0
 13 14  2  0
 13 15  1  0
 15 16  1  0
 16 17  2  0
 17 18  1  0
 17 19  1  0
 19 20  2  0
 20 21  1  0
 16 22  1  0
 21 22  2  0
 22 23  1  0
  7 24  1  0
  4 25  1  0
 24 25  1  0
M  END
