piperidine-amides-955-covalent
     RDKit          3D

 24 26  0  0  0  0  0  0  0  0999 V2000
    7.0340   -3.3380   19.3250 C   0  0  0  0  0  0  0  0  0  0  0  0
    6.3480   -4.1820   20.3440 C   0  0  0  0  0  0  0  0  0  0  0  0
    5.3860   -4.8840   19.9880 O   0  0  0  0  0  0  0  0  0  0  0  0
    6.8360   -4.1860   21.6730 N   0  0  0  0  0  0  0  0  0  0  0  0
    7.7360   -3.1460   22.1330 C   0  0  0  0  0  0  0  0  0  0  0  0
    7.6210   -3.1060   23.6480 C   0  0  0  0  0  0  0  0  0  0  0  0
    6.2420   -3.5670   23.9320 C   0  0  0  0  0  0  0  0  0  0  0  0
    5.7900   -3.2410   25.3050 C   0  0  0  0  0  0  0  0  0  0  0  0
    4.6530   -3.6230   25.6090 O   0  0  0  0  0  0  0  0  0  0  0  0
    6.6190   -2.5210   26.1740 N   0  0  0  0  0  0  0  0  0  0  0  0
    6.1960   -1.6430   27.2150 C   0  0  1  0  0  0  0  0  0  0  0  0
    6.9970   -1.4630   28.3260 C   0  0  0  0  0  0  0  0  0  0  0  0
    6.5830   -0.4200   29.1250 C   0  0  0  0  0  0  0  0  0  0  0  0
    5.7690    0.1890   28.1170 N   0  0  0  0  0  0  0  0  0  0  0  0
    4.9430    1.2290   28.4140 C   0  0  0  0  0  0  0  0  0  0  0  0
    4.3270    1.0990   29.6930 N   0  0  0  0  0  0  0  0  0  0  0  0
    3.4650    2.1520   30.0430 C   0  0  0  0  0  0  0  0  0  0  0  0
    3.1880    3.3450   29.1550 C   0  0  0  0  0  0  0  0  0  0  0  0
    3.9430    3.2970   27.8280 C   0  0  0  0  0  0  0  0  0  0  0  0
    4.7990    2.2450   27.4900 C   0  0  0  0  0  0  0  0  0  0  0  0
    5.4700    2.2140   26.2980 F   0  0  0  0  0  0  0  0  0  0  0  0
    5.6710   -0.3100   26.7870 C   0  0  0  0  0  0  0  0  0  0  0  0
    5.9810   -5.0120   23.6270 C   0  0  0  0  0  0  0  0  0  0  0  0
    6.7000   -5.3630   22.5010 C   0  0  0  0  0  0  0  0  0  0  0  0
  1  2  1  0
  2  3  2  0
  2  4  1  0
  4  5  1  0
  5  6  1  0
  6  7  1  0
  7  8  1  0
  8  9  2  0
  8 10  1  0
 11 10  1  6
 11 12  1  0
 12 13  1  0
 13 14  1  0
 14 15  1  0
 15 16  2  0
 16 17  1  0
 17 18  2  0
 18 19  1  0
 15 20  1  0
 19 20  2  0
 20 21  1  0
 11 22  1  0
 14 22  1  0
  7 23  1  0
  4 24  1  0
 23 24  1  0
M  END
