piperidine-amides-33217-covalent
     RDKit          3D

 28 29  0  0  0  0  0  0  0  0999 V2000
    7.1340   -3.3370   19.2810 C   0  0  0  0  0  0  0  0  0  0  0  0
    6.4450   -4.1940   20.2570 C   0  0  0  0  0  0  0  0  0  0  0  0
    5.3280   -4.6480   19.9250 O   0  0  0  0  0  0  0  0  0  0  0  0
    7.0630   -4.5600   21.4810 N   0  0  0  0  0  0  0  0  0  0  0  0
    6.5020   -5.6430   22.1930 C   0  0  0  0  0  0  0  0  0  0  0  0
    5.9010   -5.2370   23.4540 C   0  0  0  0  0  0  0  0  0  0  0  0
    6.5350   -4.0930   24.1410 C   0  0  0  0  0  0  0  0  0  0  0  0
    5.6440   -3.5960   25.2250 C   0  0  0  0  0  0  0  0  0  0  0  0
    4.5320   -3.1140   24.9400 O   0  0  0  0  0  0  0  0  0  0  0  0
    6.0230   -3.6760   26.5590 N   0  0  0  0  0  0  0  0  0  0  0  0
    5.1760   -4.0730   27.6140 C   0  0  0  0  0  0  0  0  0  0  0  0
    5.6850   -5.0530   28.5480 C   0  0  0  0  0  0  0  0  0  0  0  0
    7.1990   -4.8590   28.4890 C   0  0  0  0  0  0  0  0  0  0  0  0
    7.5220   -3.5310   28.3200 C   0  0  2  0  0  0  0  0  0  0  0  0
    6.6310   -2.6970   29.0570 N   0  0  0  0  0  0  0  0  0  0  0  0
    7.0310   -1.4520   29.6310 C   0  0  0  0  0  0  0  0  0  0  0  0
    8.2880   -0.8660   29.7420 O   0  0  0  0  0  0  0  0  0  0  0  0
    5.9750   -0.5730   30.2410 C   0  0  0  0  0  0  0  0  0  0  0  0
    6.4410   -0.1560   31.4980 F   0  0  0  0  0  0  0  0  0  0  0  0
    4.7930   -1.2210   30.3370 F   0  0  0  0  0  0  0  0  0  0  0  0
    5.7340    0.5480   29.5050 F   0  0  0  0  0  0  0  0  0  0  0  0
    7.2800   -3.1130   26.9260 C   0  0  2  0  0  0  0  0  0  0  0  0
    7.0950   -1.6520   26.5980 C   0  0  0  0  0  0  0  0  0  0  0  0
    6.9910   -0.6730   27.5340 O   0  0  0  0  0  0  0  0  0  0  0  0
    6.9890   -1.2220   25.2480 O   0  0  0  0  0  0  0  0  0  0  0  0
    6.3440   -0.0370   25.0340 C   0  0  0  0  0  0  0  0  0  0  0  0
    6.8530   -2.9230   23.1940 C   0  0  0  0  0  0  0  0  0  0  0  0
    7.7770   -3.4940   22.1940 C   0  0  0  0  0  0  0  0  0  0  0  0
  1  2  1  0
  2  3  2  0
  2  4  1  0
  4  5  1  0
  5  6  1  0
  6  7  1  0
  7  8  1  0
  8  9  2  0
  8 10  1  0
 10 11  1  0
 11 12  1  0
 12 13  1  0
 13 14  1  0
 14 15  1  1
 15 16  1  0
 16 17  2  0
 16 18  1  0
 18 19  1  0
 18 20  1  0
 18 21  1  0
 10 22  1  0
 14 22  1  0
 22 23  1  1
 23 24  2  0
 23 25  1  0
 25 26  1  0
  7 27  1  0
  4 28  1  0
 27 28  1  0
M  END
