piperidine-amides-11522-covalent
     RDKit          3D

 21 23  0  0  0  0  0  0  0  0999 V2000
    7.1280   -3.2520   19.1880 C   0  0  0  0  0  0  0  0  0  0  0  0
    6.3440   -3.9900   20.1850 C   0  0  0  0  0  0  0  0  0  0  0  0
    5.2640   -4.5000   19.8600 O   0  0  0  0  0  0  0  0  0  0  0  0
    6.8130   -4.1790   21.4850 N   0  0  0  0  0  0  0  0  0  0  0  0
    6.5880   -5.4090   22.2040 C   0  0  0  0  0  0  0  0  0  0  0  0
    5.8570   -5.0100   23.4580 C   0  0  0  0  0  0  0  0  0  0  0  0
    6.5850   -3.9210   24.1830 C   0  0  0  0  0  0  0  0  0  0  0  0
    5.8270   -3.4250   25.3450 C   0  0  0  0  0  0  0  0  0  0  0  0
    4.5610   -3.4290   25.3300 O   0  0  0  0  0  0  0  0  0  0  0  0
    6.4610   -2.9220   26.4970 N   0  0  0  0  0  0  0  0  0  0  0  0
    6.1760   -3.4980   27.8330 C   0  0  2  0  0  0  0  0  0  0  0  0
    5.9560   -4.9650   27.7140 C   0  0  0  0  0  0  0  0  0  0  0  0
    4.8910   -2.8690   28.4050 C   0  0  1  0  0  0  0  0  0  0  0  0
    5.2890   -2.3760   29.7660 C   0  0  0  0  0  0  0  0  0  0  0  0
    5.0060   -0.8820   29.8190 C   0  0  0  0  0  0  0  0  0  0  0  0
    3.6050   -0.6210   29.3950 C   0  0  0  0  0  0  0  0  0  0  0  0
    3.3840   -0.8870   28.0700 C   0  0  0  0  0  0  0  0  0  0  0  0
    3.9330   -2.0890   27.6160 C   0  0  2  0  0  0  0  0  0  0  0  0
    3.5590   -3.3090   28.0410 C   0  0  0  0  0  0  0  0  0  0  0  0
    6.9490   -2.7270   23.3530 C   0  0  0  0  0  0  0  0  0  0  0  0
    7.6540   -3.1800   22.1120 C   0  0  0  0  0  0  0  0  0  0  0  0
  1  2  1  0
  2  3  2  0
  2  4  1  0
  4  5  1  0
  5  6  1  0
  6  7  1  0
  7  8  1  0
  8  9  2  0
  8 10  1  0
 10 11  1  0
 11 12  1  6
 11 13  1  0
 13 14  1  1
 14 15  1  0
 15 16  1  0
 16 17  1  0
 13 18  1  0
 18 17  1  1
 13 19  1  0
 18 19  1  0
  7 20  1  0
  4 21  1  0
 20 21  1  0
M  END
