piperidine-amides-2200-covalent
     RDKit          3D

 28 30  0  0  0  0  0  0  0  0999 V2000
    7.0830   -3.2550   19.1620 C   0  0  0  0  0  0  0  0  0  0  0  0
    6.3280   -4.0110   20.1970 C   0  0  0  0  0  0  0  0  0  0  0  0
    5.2590   -4.5100   19.8600 O   0  0  0  0  0  0  0  0  0  0  0  0
    6.8460   -4.1810   21.4790 N   0  0  0  0  0  0  0  0  0  0  0  0
    7.7030   -3.2020   22.1120 C   0  0  0  0  0  0  0  0  0  0  0  0
    7.0390   -2.6790   23.3470 C   0  0  0  0  0  0  0  0  0  0  0  0
    6.5970   -3.8690   24.1860 C   0  0  0  0  0  0  0  0  0  0  0  0
    5.8980   -3.3150   25.3590 C   0  0  0  0  0  0  0  0  0  0  0  0
    4.6600   -3.2930   25.4030 O   0  0  0  0  0  0  0  0  0  0  0  0
    6.6630   -2.7870   26.4130 N   0  0  0  0  0  0  0  0  0  0  0  0
    6.3460   -3.0770   27.7930 C   0  0  0  0  0  0  0  0  0  0  0  0
    5.9780   -4.5320   27.9980 C   0  0  0  0  0  0  0  0  0  0  0  0
    4.9370   -4.4060   29.0430 N   0  0  0  0  0  0  0  0  0  0  0  0
    4.0300   -5.5670   29.1500 C   0  0  0  0  0  0  0  0  0  0  0  0
    3.9010   -5.3010   27.8640 N   0  0  0  0  0  0  0  0  0  0  0  0
    3.0240   -6.1850   27.2930 C   0  0  0  0  0  0  0  0  0  0  0  0
    2.4150   -7.1680   28.0470 N   0  0  0  0  0  0  0  0  0  0  0  0
    2.5830   -7.3950   29.3720 C   0  0  0  0  0  0  0  0  0  0  0  0
    1.8230   -8.5250   30.0430 C   0  0  0  0  0  0  0  0  0  0  0  0
    2.0670   -8.7020   31.5150 C   0  0  0  0  0  0  0  0  0  0  0  0
    3.0060   -7.8320   32.3110 C   0  0  0  0  0  0  0  0  0  0  0  0
    3.2530   -7.9830   33.7040 N   0  0  0  0  0  0  0  0  0  0  0  0
    4.4210   -7.9980   34.1190 O   0  0  0  0  0  0  0  0  0  0  0  0
    2.2310   -7.9790   34.6140 O   0  0  0  0  0  0  0  0  0  0  0  0
    3.6580   -6.7820   31.4800 C   0  0  0  0  0  0  0  0  0  0  0  0
    3.5280   -6.4690   30.0300 C   0  0  0  0  0  0  0  0  0  0  0  0
    5.8580   -4.9320   23.4680 C   0  0  0  0  0  0  0  0  0  0  0  0
    6.5280   -5.3800   22.2210 C   0  0  0  0  0  0  0  0  0  0  0  0
  1  2  1  0
  2  3  2  0
  2  4  1  0
  4  5  1  0
  5  6  1  0
  6  7  1  0
  7  8  1  0
  8  9  2  0
  8 10  1  0
 10 11  1  0
 11 12  1  0
 12 13  1  0
 13 14  1  0
 14 15  2  0
 15 16  1  0
 16 17  2  0
 17 18  1  0
 18 19  1  0
 19 20  2  0
 20 21  1  0
 21 22  1  0
 22 23  2  0
 22 24  1  0
 21 25  2  0
 14 26  1  0
 18 26  2  0
 25 26  1  0
  7 27  1  0
  4 28  1  0
 27 28  1  0
M  CHG  2  22   1  24  -1
M  END
