piperidine-amides-8460-covalent
     RDKit          3D

 24 26  0  0  0  0  0  0  0  0999 V2000
    7.0910   -3.2850   19.2500 C   0  0  0  0  0  0  0  0  0  0  0  0
    6.3750   -4.0720   20.2540 C   0  0  0  0  0  0  0  0  0  0  0  0
    5.3110   -4.6140   19.9120 O   0  0  0  0  0  0  0  0  0  0  0  0
    6.9140   -4.2500   21.5560 N   0  0  0  0  0  0  0  0  0  0  0  0
    6.5300   -5.4010   22.3120 C   0  0  0  0  0  0  0  0  0  0  0  0
    5.7320   -4.9420   23.4980 C   0  0  0  0  0  0  0  0  0  0  0  0
    6.5480   -3.8600   24.1780 C   0  0  0  0  0  0  0  0  0  0  0  0
    5.7750   -3.2720   25.3220 C   0  0  0  0  0  0  0  0  0  0  0  0
    4.5750   -3.0910   25.1310 O   0  0  0  0  0  0  0  0  0  0  0  0
    6.4440   -2.9740   26.5030 N   0  0  0  0  0  0  0  0  0  0  0  0
    6.2420   -3.7240   27.7030 C   0  0  0  0  0  0  0  0  0  0  0  0
    4.9350   -3.6930   28.2110 C   0  0  0  0  0  0  0  0  0  0  0  0
    3.9630   -2.7020   27.9960 C   0  0  0  0  0  0  0  0  0  0  0  0
    2.6390   -2.6560   28.5010 C   0  0  0  0  0  0  0  0  0  0  0  0
    2.1940   -3.7900   29.3750 C   0  0  0  0  0  0  0  0  0  0  0  0
    3.2430   -4.8630   29.6090 C   0  0  0  0  0  0  0  0  0  0  0  0
    3.0880   -6.0260   30.3830 N   0  0  0  0  0  0  0  0  0  0  0  0
    1.7680   -6.5990   30.7760 C   0  0  0  0  0  0  0  0  0  0  0  0
    2.0850   -7.8050   31.5740 C   0  0  0  0  0  0  0  0  0  0  0  0
    3.5230   -7.5140   31.3680 C   0  0  0  0  0  0  0  0  0  0  0  0
    4.1740   -6.7480   30.8540 N   0  0  0  0  0  0  0  0  0  0  0  0
    4.5360   -4.8050   29.0530 N   0  0  0  0  0  0  0  0  0  0  0  0
    6.7970   -2.7270   23.2150 C   0  0  0  0  0  0  0  0  0  0  0  0
    7.6350   -3.1950   22.2360 C   0  0  0  0  0  0  0  0  0  0  0  0
  1  2  1  0
  2  3  2  0
  2  4  1  0
  4  5  1  0
  5  6  1  0
  6  7  1  0
  7  8  1  0
  8  9  2  0
  8 10  1  0
 10 11  1  0
 11 12  1  0
 12 13  2  0
 13 14  1  0
 14 15  2  0
 15 16  1  0
 16 17  1  0
 17 18  1  0
 18 19  2  0
 19 20  1  0
 17 21  1  0
 20 21  2  0
 12 22  1  0
 16 22  2  0
  7 23  1  0
  4 24  1  0
 23 24  1  0
M  END
