piperidine-amides-25689-covalent
     RDKit          3D

 25 28  0  0  0  0  0  0  0  0999 V2000
    7.0610   -3.3470   19.3740 C   0  0  0  0  0  0  0  0  0  0  0  0
    6.3980   -4.2400   20.3590 C   0  0  0  0  0  0  0  0  0  0  0  0
    5.3870   -4.8300   19.9800 O   0  0  0  0  0  0  0  0  0  0  0  0
    6.9480   -4.4230   21.6350 N   0  0  0  0  0  0  0  0  0  0  0  0
    6.5380   -5.5030   22.4820 C   0  0  0  0  0  0  0  0  0  0  0  0
    5.5950   -4.9620   23.5250 C   0  0  0  0  0  0  0  0  0  0  0  0
    6.2270   -3.7990   24.3160 C   0  0  0  0  0  0  0  0  0  0  0  0
    5.1920   -3.2170   25.2200 C   0  0  0  0  0  0  0  0  0  0  0  0
    4.4440   -2.3370   24.8000 O   0  0  0  0  0  0  0  0  0  0  0  0
    5.0570   -3.6640   26.5520 N   0  0  0  0  0  0  0  0  0  0  0  0
    6.2450   -4.1070   27.0390 C   0  0  0  0  0  0  0  0  0  0  0  0
    6.1170   -4.0730   28.4990 C   0  0  0  0  0  0  0  0  0  0  0  0
    4.8670   -3.8120   28.9500 C   0  0  2  0  0  0  0  0  0  0  0  0
    3.8400   -4.7690   29.1660 N   0  0  0  0  0  0  0  0  0  0  0  0
    3.7170   -6.2030   28.9250 C   0  0  0  0  0  0  0  0  0  0  0  0
    2.4730   -6.5540   29.3490 N   0  0  0  0  0  0  0  0  0  0  0  0
    1.7380   -5.4180   29.8730 C   0  0  0  0  0  0  0  0  0  0  0  0
    2.6230   -4.2000   29.7670 C   0  0  0  0  0  0  0  0  0  0  0  0
    2.1610   -2.8480   30.2250 C   0  0  0  0  0  0  0  0  0  0  0  0
    0.9660   -3.1650   31.0740 C   0  0  0  0  0  0  0  0  0  0  0  0
    0.2020   -3.9780   30.0900 C   0  0  0  0  0  0  0  0  0  0  0  0
    0.3400   -5.4140   30.4340 C   0  0  0  0  0  0  0  0  0  0  0  0
    4.6500   -2.9010   27.7440 C   0  0  0  0  0  0  0  0  0  0  0  0
    6.7760   -2.7450   23.3690 C   0  0  0  0  0  0  0  0  0  0  0  0
    7.6550   -3.3620   22.3170 C   0  0  0  0  0  0  0  0  0  0  0  0
  1  2  1  0
  2  3  2  0
  2  4  1  0
  4  5  1  0
  5  6  1  0
  6  7  1  0
  7  8  1  0
  8  9  2  0
  8 10  1  0
 10 11  1  0
 11 12  1  0
 12 13  1  0
 13 14  1  6
 14 15  1  0
 15 16  2  0
 16 17  1  0
 14 18  1  0
 17 18  2  0
 18 19  1  0
 19 20  1  0
 20 21  1  0
 17 22  1  0
 21 22  1  0
 10 23  1  0
 13 23  1  0
  7 24  1  0
  4 25  1  0
 24 25  1  0
M  END
