piperidine-amides-25131-covalent
     RDKit          3D

 24 25  0  0  0  0  0  0  0  0999 V2000
    7.0190   -3.3620   19.3760 C   0  0  0  0  0  0  0  0  0  0  0  0
    6.3710   -4.2410   20.3860 C   0  0  0  0  0  0  0  0  0  0  0  0
    5.4040   -4.8930   19.9970 O   0  0  0  0  0  0  0  0  0  0  0  0
    6.8790   -4.3400   21.6980 N   0  0  0  0  0  0  0  0  0  0  0  0
    6.7210   -5.5630   22.4550 C   0  0  0  0  0  0  0  0  0  0  0  0
    6.2100   -5.2570   23.8440 C   0  0  0  0  0  0  0  0  0  0  0  0
    6.1830   -3.7440   24.0260 C   0  0  0  0  0  0  0  0  0  0  0  0
    5.5140   -3.3640   25.3000 C   0  0  0  0  0  0  0  0  0  0  0  0
    4.4220   -2.7960   25.2010 O   0  0  0  0  0  0  0  0  0  0  0  0
    5.9970   -3.5910   26.6120 N   0  0  0  0  0  0  0  0  0  0  0  0
    6.6210   -2.4560   27.2130 C   0  0  0  0  0  0  0  0  0  0  0  0
    6.9520   -2.8700   28.6280 C   0  0  0  0  0  0  0  0  0  0  0  0
    5.8090   -3.2450   29.2200 O   0  0  0  0  0  0  0  0  0  0  0  0
    5.2880   -4.3970   28.8970 C   0  0  1  0  0  0  0  0  0  0  0  0
    4.1100   -4.6540   29.5020 C   0  0  0  0  0  0  0  0  0  0  0  0
    3.5890   -3.8190   30.2670 O   0  0  0  0  0  0  0  0  0  0  0  0
    3.4610   -5.8610   29.2840 O   0  0  0  0  0  0  0  0  0  0  0  0
    4.3370   -6.7980   28.7280 C   0  0  0  0  0  0  0  0  0  0  0  0
    4.7390   -7.9280   29.6390 C   0  0  0  0  0  0  0  0  0  0  0  0
    5.7570   -6.9040   29.0720 C   0  0  0  0  0  0  0  0  0  0  0  0
    4.2430   -7.0940   27.2730 C   0  0  0  0  0  0  0  0  0  0  0  0
    4.9440   -4.2040   27.4110 C   0  0  0  0  0  0  0  0  0  0  0  0
    7.5100   -3.1220   23.7350 C   0  0  0  0  0  0  0  0  0  0  0  0
    7.7000   -3.2560   22.2320 C   0  0  0  0  0  0  0  0  0  0  0  0
  1  2  1  0
  2  3  2  0
  2  4  1  0
  4  5  1  0
  5  6  1  0
  6  7  1  0
  7  8  1  0
  8  9  2  0
  8 10  1  0
 10 11  1  0
 11 12  1  0
 12 13  1  0
 13 14  1  0
 14 15  1  1
 15 16  2  0
 15 17  1  0
 18 17  1  0
 18 19  1  0
 18 20  1  0
 18 21  1  0
 10 22  1  0
 14 22  1  0
  7 23  1  0
  4 24  1  0
 23 24  1  0
M  END
