piperidine-amides-4770-covalent
     RDKit          3D

 24 25  0  0  0  0  0  0  0  0999 V2000
    7.0750   -3.3000   19.1960 C   0  0  0  0  0  0  0  0  0  0  0  0
    6.3540   -4.0690   20.2330 C   0  0  0  0  0  0  0  0  0  0  0  0
    5.2720   -4.5840   19.8930 O   0  0  0  0  0  0  0  0  0  0  0  0
    6.8950   -4.2560   21.5100 N   0  0  0  0  0  0  0  0  0  0  0  0
    7.6210   -3.2010   22.1450 C   0  0  0  0  0  0  0  0  0  0  0  0
    7.1050   -2.7930   23.4500 C   0  0  0  0  0  0  0  0  0  0  0  0
    6.4700   -3.8720   24.2210 C   0  0  0  0  0  0  0  0  0  0  0  0
    5.7330   -3.2940   25.3700 C   0  0  0  0  0  0  0  0  0  0  0  0
    4.5210   -3.0390   25.2290 O   0  0  0  0  0  0  0  0  0  0  0  0
    6.3810   -3.0440   26.5890 N   0  0  0  0  0  0  0  0  0  0  0  0
    6.4000   -1.7200   27.2560 C   0  0  0  0  0  0  0  0  0  0  0  0
    7.0020   -1.6130   28.5960 C   0  0  0  0  0  0  0  0  0  0  0  0
    7.0400   -0.3470   29.2980 C   0  0  0  0  0  0  0  0  0  0  0  0
    6.4860    0.7370   28.6440 C   0  0  0  0  0  0  0  0  0  0  0  0
    6.5800    1.9070   29.4180 N   0  0  0  0  0  0  0  0  0  0  0  0
    5.3930    2.7210   29.5970 C   0  0  0  0  0  0  0  0  0  0  0  0
    4.6690    3.0880   28.5780 O   0  0  0  0  0  0  0  0  0  0  0  0
    5.0770    3.0880   30.9130 O   0  0  0  0  0  0  0  0  0  0  0  0
    3.8450    3.7550   31.1240 C   0  0  0  0  0  0  0  0  0  0  0  0
    3.7880    4.8200   30.2750 C   0  0  0  0  0  0  0  0  0  0  0  0
    5.9020    0.6920   27.3690 C   0  0  0  0  0  0  0  0  0  0  0  0
    5.8310   -0.5030   26.6280 C   0  0  0  0  0  0  0  0  0  0  0  0
    5.6550   -4.8350   23.4510 C   0  0  0  0  0  0  0  0  0  0  0  0
    6.5100   -5.3860   22.3410 C   0  0  0  0  0  0  0  0  0  0  0  0
  1  2  1  0
  2  3  2  0
  2  4  1  0
  4  5  1  0
  5  6  1  0
  6  7  1  0
  7  8  1  0
  8  9  2  0
  8 10  1  0
 10 11  1  0
 11 12  2  0
 12 13  1  0
 13 14  2  0
 14 15  1  0
 15 16  1  0
 16 17  2  0
 16 18  1  0
 18 19  1  0
 19 20  1  0
 14 21  1  0
 11 22  1  0
 21 22  2  0
  7 23  1  0
  4 24  1  0
 23 24  1  0
M  END
