piperidine-amides-16129-covalent
     RDKit          3D

 19 20  0  0  0  0  0  0  0  0999 V2000
    7.1020   -3.3320   19.3400 C   0  0  0  0  0  0  0  0  0  0  0  0
    6.3420   -4.1440   20.3200 C   0  0  0  0  0  0  0  0  0  0  0  0
    5.3050   -4.6690   19.9260 O   0  0  0  0  0  0  0  0  0  0  0  0
    6.8440   -4.3230   21.6090 N   0  0  0  0  0  0  0  0  0  0  0  0
    6.6000   -5.5100   22.3700 C   0  0  0  0  0  0  0  0  0  0  0  0
    5.8590   -5.1230   23.6160 C   0  0  0  0  0  0  0  0  0  0  0  0
    6.6410   -4.0660   24.4180 C   0  0  0  0  0  0  0  0  0  0  0  0
    5.7490   -3.6670   25.5320 C   0  0  0  0  0  0  0  0  0  0  0  0
    4.5430   -3.4610   25.3330 O   0  0  0  0  0  0  0  0  0  0  0  0
    6.2110   -3.5100   26.8570 N   0  0  0  0  0  0  0  0  0  0  0  0
    7.6080   -3.6780   27.1290 C   0  0  1  0  0  0  0  0  0  0  0  0
    8.0520   -2.3370   27.6750 C   0  0  0  0  0  0  0  0  0  0  0  0
    7.8170   -4.7250   28.1790 C   0  0  0  0  0  0  0  0  0  0  0  0
    6.9220   -4.7840   29.0890 O   0  0  0  0  0  0  0  0  0  0  0  0
    5.6250   -4.6880   28.6100 C   0  0  0  0  0  0  0  0  0  0  0  0
    5.4040   -3.4860   28.0150 C   0  0  1  0  0  0  0  0  0  0  0  0
    5.4900   -2.1830   28.7920 C   0  0  0  0  0  0  0  0  0  0  0  0
    7.0690   -2.8910   23.5830 C   0  0  0  0  0  0  0  0  0  0  0  0
    7.6100   -3.2630   22.2350 C   0  0  0  0  0  0  0  0  0  0  0  0
  1  2  1  0
  2  3  2  0
  2  4  1  0
  4  5  1  0
  5  6  1  0
  6  7  1  0
  7  8  1  0
  8  9  2  0
  8 10  1  0
 10 11  1  0
 11 12  1  1
 11 13  1  0
 13 14  1  0
 14 15  1  0
 10 16  1  0
 15 16  1  0
 16 17  1  1
  7 18  1  0
  4 19  1  0
 18 19  1  0
M  END
