piperidine-amides-34382-covalent
     RDKit          3D

 28 29  0  0  0  0  0  0  0  0999 V2000
    7.1540   -3.2570   19.2390 C   0  0  0  0  0  0  0  0  0  0  0  0
    6.3440   -3.9820   20.2280 C   0  0  0  0  0  0  0  0  0  0  0  0
    5.2850   -4.5530   19.8870 O   0  0  0  0  0  0  0  0  0  0  0  0
    6.7780   -4.0880   21.5560 N   0  0  0  0  0  0  0  0  0  0  0  0
    7.6960   -3.0880   22.0730 C   0  0  0  0  0  0  0  0  0  0  0  0
    7.6790   -3.2060   23.5980 C   0  0  0  0  0  0  0  0  0  0  0  0
    6.2610   -3.5750   23.9440 C   0  0  0  0  0  0  0  0  0  0  0  0
    5.9820   -3.3610   25.3790 C   0  0  0  0  0  0  0  0  0  0  0  0
    4.7820   -3.3160   25.7270 O   0  0  0  0  0  0  0  0  0  0  0  0
    7.0550   -3.1960   26.3090 N   0  0  0  0  0  0  0  0  0  0  0  0
    7.3780   -1.8680   26.6940 C   0  0  0  0  0  0  0  0  0  0  0  0
    6.5250   -1.5130   27.9000 C   0  0  0  0  0  0  0  0  0  0  0  0
    5.1570   -1.6440   28.0210 C   0  0  0  0  0  0  0  0  0  0  0  0
    4.4710   -1.2840   29.1610 C   0  0  0  0  0  0  0  0  0  0  0  0
    5.0780   -0.7550   30.2870 C   0  0  0  0  0  0  0  0  0  0  0  0
    4.1180   -0.3170   31.6990 Cl  0  0  0  0  0  0  0  0  0  0  0  0
    6.4260   -0.5750   30.2960 C   0  0  0  0  0  0  0  0  0  0  0  0
    7.1260    0.1070   31.7440 Cl  0  0  0  0  0  0  0  0  0  0  0  0
    7.2670   -0.9500   29.0990 C   0  0  0  0  0  0  0  0  0  0  0  0
    7.2200   -3.9450   27.5370 C   0  0  0  0  0  0  0  0  0  0  0  0
    7.6290   -5.3410   27.2240 C   0  0  0  0  0  0  0  0  0  0  0  0
    8.1780   -4.7430   28.4100 C   0  0  0  0  0  0  0  0  0  0  0  0
    8.5190   -5.6140   26.1640 C   0  0  0  0  0  0  0  0  0  0  0  0
    6.7000   -6.2770   27.2190 N   0  0  0  0  0  0  0  0  0  0  0  0
    5.6730   -5.8220   26.3590 C   0  0  0  0  0  0  0  0  0  0  0  0
    6.1050   -6.6450   28.4470 C   0  0  0  0  0  0  0  0  0  0  0  0
    5.9120   -5.0070   23.5810 C   0  0  0  0  0  0  0  0  0  0  0  0
    6.5960   -5.3350   22.2490 C   0  0  0  0  0  0  0  0  0  0  0  0
  1  2  1  0
  2  3  2  0
  2  4  1  0
  4  5  1  0
  5  6  1  0
  6  7  1  0
  7  8  1  0
  8  9  2  0
  8 10  1  0
 10 11  1  0
 11 12  1  0
 12 13  2  0
 13 14  1  0
 14 15  2  0
 15 16  1  0
 15 17  1  0
 17 18  1  0
 12 19  1  0
 17 19  2  0
 10 20  1  0
 20 21  1  0
 21 22  1  0
 21 23  1  0
 21 24  1  0
 24 25  1  0
 24 26  1  0
  7 27  1  0
  4 28  1  0
 27 28  1  0
M  END
