piperidine-amides-13676-covalent
     RDKit          3D

 27 29  0  0  0  0  0  0  0  0999 V2000
    7.0390   -3.2590   19.2320 C   0  0  0  0  0  0  0  0  0  0  0  0
    6.3300   -4.0660   20.2640 C   0  0  0  0  0  0  0  0  0  0  0  0
    5.3240   -4.7150   19.9360 O   0  0  0  0  0  0  0  0  0  0  0  0
    6.8260   -4.1100   21.5810 N   0  0  0  0  0  0  0  0  0  0  0  0
    7.7590   -3.1220   22.0780 C   0  0  0  0  0  0  0  0  0  0  0  0
    7.6240   -3.0530   23.6040 C   0  0  0  0  0  0  0  0  0  0  0  0
    6.1980   -3.3350   23.9530 C   0  0  0  0  0  0  0  0  0  0  0  0
    5.9100   -3.2290   25.4060 C   0  0  0  0  0  0  0  0  0  0  0  0
    4.7180   -3.3180   25.7320 O   0  0  0  0  0  0  0  0  0  0  0  0
    6.9570   -3.0290   26.3290 N   0  0  0  0  0  0  0  0  0  0  0  0
    7.1670   -3.7010   27.5670 C   0  0  0  0  0  0  0  0  0  0  0  0
    7.9950   -4.7820   27.7160 C   0  0  0  0  0  0  0  0  0  0  0  0
    8.6710   -5.2570   26.5990 C   0  0  2  0  0  0  0  0  0  0  0  0
    8.0190   -6.0040   25.7090 C   0  0  0  0  0  0  0  0  0  0  0  0
    8.8920   -6.9360   25.0300 C   0  0  2  0  0  0  0  0  0  0  0  0
    8.1350   -7.5100   23.7880 C   0  0  0  0  0  0  0  0  0  0  0  0
    9.6590   -7.4740   26.1340 N   0  0  0  0  0  0  0  0  0  0  0  0
   10.0040   -9.1130   26.4420 C   0  0  0  0  0  0  0  0  0  0  0  0
    9.8810  -10.6350   28.1240 C   0  0  0  0  0  0  0  0  0  0  0  0
   10.6540  -11.0140   29.4560 C   0  0  0  0  0  0  0  0  0  0  0  0
   10.5710  -11.9120   30.6200 C   0  0  0  0  0  0  0  0  0  0  0  0
    9.7230  -12.7110   31.0020 C   0  0  0  0  0  0  0  0  0  0  0  0
    9.0590  -12.1410   29.7630 C   0  0  0  0  0  0  0  0  0  0  0  0
    9.0480  -11.3580   28.6270 C   0  0  0  0  0  0  0  0  0  0  0  0
    9.7470   -6.2500   27.0030 C   0  0  0  0  0  0  0  0  0  0  0  0
    5.7380   -4.7260   23.5600 C   0  0  0  0  0  0  0  0  0  0  0  0
    6.3450   -5.1650   22.3960 C   0  0  0  0  0  0  0  0  0  0  0  0
  1  2  1  0
  2  3  2  0
  2  4  1  0
  4  5  1  0
  5  6  1  0
  6  7  1  0
  7  8  1  0
  8  9  2  0
  8 10  1  0
 10 11  1  0
 11 12  1  0
 13 12  1  1
 13 14  1  0
 14 15  1  0
 15 16  1  1
 15 17  1  0
 17 18  1  0
 18 19  1  0
 19 20  2  0
 20 21  1  0
 21 22  2  0
 22 23  1  0
 19 24  1  0
 23 24  2  0
 13 25  1  0
 17 25  1  0
  7 26  1  0
  4 27  1  0
 26 27  1  0
M  END
