piperidine-amides-1600-covalent
     RDKit          3D

 21 22  0  0  0  0  0  0  0  0999 V2000
    7.0820   -3.3240   19.3080 C   0  0  0  0  0  0  0  0  0  0  0  0
    6.3890   -4.1880   20.3020 C   0  0  0  0  0  0  0  0  0  0  0  0
    5.3540   -4.7820   19.9620 O   0  0  0  0  0  0  0  0  0  0  0  0
    6.9460   -4.3670   21.5870 N   0  0  0  0  0  0  0  0  0  0  0  0
    6.5550   -5.4940   22.3830 C   0  0  0  0  0  0  0  0  0  0  0  0
    5.7280   -4.9160   23.5390 C   0  0  0  0  0  0  0  0  0  0  0  0
    6.5350   -3.8290   24.1780 C   0  0  0  0  0  0  0  0  0  0  0  0
    5.8970   -3.2710   25.3880 C   0  0  0  0  0  0  0  0  0  0  0  0
    4.6860   -3.4880   25.5320 O   0  0  0  0  0  0  0  0  0  0  0  0
    6.6540   -2.5230   26.2910 N   0  0  0  0  0  0  0  0  0  0  0  0
    6.1620   -1.4870   27.1220 C   0  0  2  0  0  0  0  0  0  0  0  0
    5.8000   -0.2530   26.6480 C   0  0  0  0  0  0  0  0  0  0  0  0
    5.9500    0.6990   27.6450 C   0  0  0  0  0  0  0  0  0  0  0  0
    5.6160    2.0450   27.6390 O   0  0  0  0  0  0  0  0  0  0  0  0
    6.5420    0.0410   28.7960 N   0  0  0  0  0  0  0  0  0  0  0  0
    6.1460    0.0940   30.0910 C   0  0  0  0  0  0  0  0  0  0  0  0
    7.1300    0.8150   30.9410 C   0  0  0  0  0  0  0  0  0  0  0  0
    7.1710    2.3360   30.7550 C   0  0  0  0  0  0  0  0  0  0  0  0
    6.8130   -1.2870   28.3590 C   0  0  0  0  0  0  0  0  0  0  0  0
    6.7790   -2.6840   23.2000 C   0  0  0  0  0  0  0  0  0  0  0  0
    7.6540   -3.2510   22.1590 C   0  0  0  0  0  0  0  0  0  0  0  0
  1  2  1  0
  2  3  2  0
  2  4  1  0
  4  5  1  0
  5  6  1  0
  6  7  1  0
  7  8  1  0
  8  9  2  0
  8 10  1  0
 11 10  1  6
 11 12  1  0
 12 13  1  0
 13 14  2  0
 13 15  1  0
 15 16  1  0
 16 17  1  0
 17 18  1  0
 11 19  1  0
 15 19  1  0
  7 20  1  0
  4 21  1  0
 20 21  1  0
M  END
