piperidine-amides-32189-covalent
     RDKit          3D

 28 30  0  0  0  0  0  0  0  0999 V2000
    7.0450   -3.3750   19.4280 C   0  0  0  0  0  0  0  0  0  0  0  0
    6.3540   -4.2600   20.4010 C   0  0  0  0  0  0  0  0  0  0  0  0
    5.3730   -4.9120   19.9990 O   0  0  0  0  0  0  0  0  0  0  0  0
    6.8490   -4.3800   21.7240 N   0  0  0  0  0  0  0  0  0  0  0  0
    6.6760   -5.6090   22.4800 C   0  0  0  0  0  0  0  0  0  0  0  0
    6.2860   -5.2790   23.9410 C   0  0  0  0  0  0  0  0  0  0  0  0
    6.1500   -3.8000   24.0580 C   0  0  0  0  0  0  0  0  0  0  0  0
    5.5670   -3.2210   25.3090 C   0  0  0  0  0  0  0  0  0  0  0  0
    4.8910   -2.2150   25.1080 O   0  0  0  0  0  0  0  0  0  0  0  0
    5.7030   -3.7350   26.6180 N   0  0  0  0  0  0  0  0  0  0  0  0
    6.4160   -3.0810   27.6240 C   0  0  2  0  0  0  0  0  0  0  0  0
    6.7210   -3.7380   28.7820 C   0  0  0  0  0  0  0  0  0  0  0  0
    6.3040   -5.0550   28.8470 C   0  0  0  0  0  0  0  0  0  0  0  0
    5.1210   -5.2980   28.2150 C   0  0  0  0  0  0  0  0  0  0  0  0
    4.5510   -4.3690   27.1840 C   0  0  1  0  0  0  0  0  0  0  0  0
    3.5580   -3.3070   27.7050 C   0  0  0  0  0  0  0  0  0  0  0  0
    4.3560   -2.3390   28.5860 C   0  0  2  0  0  0  0  0  0  0  0  0
    3.8160   -1.1690   29.0030 N   0  0  0  0  0  0  0  0  0  0  0  0
    4.2160   -0.8490   30.2560 C   0  0  0  0  0  0  0  0  0  0  0  0
    4.3260   -1.7590   31.2890 O   0  0  0  0  0  0  0  0  0  0  0  0
    4.5490    0.4660   30.5110 O   0  0  0  0  0  0  0  0  0  0  0  0
    5.1480    0.9180   31.7000 C   0  0  0  0  0  0  0  0  0  0  0  0
    5.0740    2.4330   31.7120 C   0  0  0  0  0  0  0  0  0  0  0  0
    6.5210    0.3800   32.0090 C   0  0  0  0  0  0  0  0  0  0  0  0
    4.3090    0.4940   32.9340 C   0  0  0  0  0  0  0  0  0  0  0  0
    5.5290   -1.9380   28.0260 C   0  0  0  0  0  0  0  0  0  0  0  0
    7.4520   -3.1230   23.7170 C   0  0  0  0  0  0  0  0  0  0  0  0
    7.7140   -3.3200   22.2740 C   0  0  0  0  0  0  0  0  0  0  0  0
  1  2  1  0
  2  3  2  0
  2  4  1  0
  4  5  1  0
  5  6  1  0
  6  7  1  0
  7  8  1  0
  8  9  2  0
  8 10  1  0
 10 11  1  0
 11 12  1  1
 12 13  1  0
 13 14  1  0
 10 15  1  0
 15 14  1  1
 15 16  1  0
 16 17  1  0
 17 18  1  6
 18 19  1  0
 19 20  2  0
 19 21  1  0
 22 21  1  0
 22 23  1  0
 22 24  1  0
 22 25  1  0
 11 26  1  0
 17 26  1  0
  7 27  1  0
  4 28  1  0
 27 28  1  0
M  END
