piperidine-amides-16149-covalent
     RDKit          3D

 19 20  0  0  0  0  0  0  0  0999 V2000
    7.0060   -3.3480   19.3680 C   0  0  0  0  0  0  0  0  0  0  0  0
    6.3590   -4.2150   20.3890 C   0  0  0  0  0  0  0  0  0  0  0  0
    5.4050   -4.8880   19.9950 O   0  0  0  0  0  0  0  0  0  0  0  0
    6.8410   -4.2840   21.7110 N   0  0  0  0  0  0  0  0  0  0  0  0
    7.6480   -3.2380   22.3190 C   0  0  0  0  0  0  0  0  0  0  0  0
    7.2930   -3.0210   23.7770 C   0  0  0  0  0  0  0  0  0  0  0  0
    6.0490   -3.8460   24.1130 C   0  0  0  0  0  0  0  0  0  0  0  0
    5.4770   -3.5260   25.4560 C   0  0  0  0  0  0  0  0  0  0  0  0
    4.2600   -3.6900   25.5810 O   0  0  0  0  0  0  0  0  0  0  0  0
    6.1750   -3.0130   26.5820 N   0  0  0  0  0  0  0  0  0  0  0  0
    6.2010   -3.7840   27.8180 C   0  0  0  0  0  0  0  0  0  0  0  0
    5.8220   -5.2340   27.5890 C   0  0  1  0  0  0  0  0  0  0  0  0
    6.2360   -6.2380   28.4180 C   0  0  0  0  0  0  0  0  0  0  0  0
    4.4430   -5.3000   27.6600 O   0  0  0  0  0  0  0  0  0  0  0  0
    5.8680   -1.6720   26.9090 C   0  0  0  0  0  0  0  0  0  0  0  0
    6.5360   -0.7040   26.5160 C   0  0  0  0  0  0  0  0  0  0  0  0
    6.9010   -0.7990   27.8370 C   0  0  0  0  0  0  0  0  0  0  0  0
    6.2790   -5.2950   23.8580 C   0  0  0  0  0  0  0  0  0  0  0  0
    6.6770   -5.5380   22.4330 C   0  0  0  0  0  0  0  0  0  0  0  0
  1  2  1  0
  2  3  2  0
  2  4  1  0
  4  5  1  0
  5  6  1  0
  6  7  1  0
  7  8  1  0
  8  9  2  0
  8 10  1  0
 10 11  1  0
 11 12  1  0
 12 13  1  1
 12 14  1  0
 10 15  1  0
 15 16  1  0
 15 17  1  0
 16 17  1  0
  7 18  1  0
  4 19  1  0
 18 19  1  0
M  END
