piperidine-amides-28923-covalent
     RDKit          3D

 25 27  0  0  0  0  0  0  0  0999 V2000
    7.1030   -3.2680   19.1980 C   0  0  0  0  0  0  0  0  0  0  0  0
    6.3630   -4.0220   20.2120 C   0  0  0  0  0  0  0  0  0  0  0  0
    5.2880   -4.5510   19.8840 O   0  0  0  0  0  0  0  0  0  0  0  0
    6.9000   -4.1810   21.5100 N   0  0  0  0  0  0  0  0  0  0  0  0
    6.5430   -5.3390   22.2770 C   0  0  0  0  0  0  0  0  0  0  0  0
    5.7740   -4.8960   23.4870 C   0  0  0  0  0  0  0  0  0  0  0  0
    6.5830   -3.7820   24.1160 C   0  0  0  0  0  0  0  0  0  0  0  0
    5.8090   -3.1710   25.2400 C   0  0  0  0  0  0  0  0  0  0  0  0
    5.0350   -2.2710   24.9360 O   0  0  0  0  0  0  0  0  0  0  0  0
    5.9820   -3.6590   26.5290 N   0  0  0  0  0  0  0  0  0  0  0  0
    6.2850   -2.7580   27.5910 C   0  0  0  0  0  0  0  0  0  0  0  0
    6.6620   -3.3410   28.8100 C   0  0  0  0  0  0  0  0  0  0  0  0
    5.9550   -4.4330   29.1780 C   0  0  0  0  0  0  0  0  0  0  0  0
    4.7170   -4.2450   29.7780 C   0  0  0  0  0  0  0  0  0  0  0  0
    4.4970   -2.9010   30.0490 O   0  0  0  0  0  0  0  0  0  0  0  0
    3.8010   -5.2740   30.0680 N   0  0  0  0  0  0  0  0  0  0  0  0
    3.1510   -5.3000   31.3820 C   0  0  0  0  0  0  0  0  0  0  0  0
    2.6550   -6.3310   32.0400 N   0  0  0  0  0  0  0  0  0  0  0  0
    2.1420   -5.9160   33.2180 N   0  0  0  0  0  0  0  0  0  0  0  0
    2.2480   -4.5610   33.4620 C   0  0  0  0  0  0  0  0  0  0  0  0
    3.0420   -3.7780   32.1120 S   0  0  0  0  0  0  0  0  0  0  0  0
    5.5580   -5.3500   28.0910 C   0  0  0  0  0  0  0  0  0  0  0  0
    5.0340   -4.6870   26.8650 C   0  0  0  0  0  0  0  0  0  0  0  0
    6.9820   -2.6800   23.2390 C   0  0  0  0  0  0  0  0  0  0  0  0
    7.6740   -3.1480   22.1570 C   0  0  0  0  0  0  0  0  0  0  0  0
  1  2  1  0
  2  3  2  0
  2  4  1  0
  4  5  1  0
  5  6  1  0
  6  7  1  0
  7  8  1  0
  8  9  2  0
  8 10  1  0
 10 11  1  0
 11 12  1  0
 12 13  1  0
 13 14  1  0
 14 15  2  0
 14 16  1  0
 16 17  1  0
 17 18  2  0
 18 19  1  0
 19 20  2  0
 17 21  1  0
 20 21  1  0
 13 22  1  0
 10 23  1  0
 22 23  1  0
  7 24  1  0
  4 25  1  0
 24 25  1  0
M  END
