piperidine-amides-14273-covalent
     RDKit          3D

 24 26  0  0  0  0  0  0  0  0999 V2000
    7.1020   -3.3320   19.3020 C   0  0  0  0  0  0  0  0  0  0  0  0
    6.4020   -4.1940   20.2890 C   0  0  0  0  0  0  0  0  0  0  0  0
    5.3520   -4.7670   19.9590 O   0  0  0  0  0  0  0  0  0  0  0  0
    6.9840   -4.3860   21.5560 N   0  0  0  0  0  0  0  0  0  0  0  0
    7.6860   -3.3170   22.2110 C   0  0  0  0  0  0  0  0  0  0  0  0
    6.7040   -2.7600   23.2370 C   0  0  0  0  0  0  0  0  0  0  0  0
    6.4670   -3.8280   24.2500 C   0  0  0  0  0  0  0  0  0  0  0  0
    5.7990   -3.2720   25.4390 C   0  0  0  0  0  0  0  0  0  0  0  0
    4.5620   -3.2270   25.4050 O   0  0  0  0  0  0  0  0  0  0  0  0
    6.5510   -2.8260   26.5200 N   0  0  0  0  0  0  0  0  0  0  0  0
    6.4540   -1.5730   27.1670 C   0  0  0  0  0  0  0  0  0  0  0  0
    6.9750   -1.5070   28.4450 C   0  0  0  0  0  0  0  0  0  0  0  0
    6.9920   -0.4210   29.2680 C   0  0  0  0  0  0  0  0  0  0  0  0
    6.4550    0.7050   28.8120 C   0  0  0  0  0  0  0  0  0  0  0  0
    6.4150    1.9460   29.6320 C   0  0  0  0  0  0  0  0  0  0  0  0
    5.4840    2.9450   29.4210 N   0  0  0  0  0  0  0  0  0  0  0  0
    5.8920    3.8390   30.4410 C   0  0  0  0  0  0  0  0  0  0  0  0
    5.1990    5.1780   30.6970 C   0  0  0  0  0  0  0  0  0  0  0  0
    6.9980    3.3200   31.1550 C   0  0  0  0  0  0  0  0  0  0  0  0
    7.3210    2.0970   30.6200 N   0  0  0  0  0  0  0  0  0  0  0  0
    5.9220    0.7240   27.5560 C   0  0  0  0  0  0  0  0  0  0  0  0
    5.8050   -0.3770   26.4780 C   0  0  0  0  0  0  0  0  0  0  0  0
    5.7650   -4.9500   23.6050 C   0  0  0  0  0  0  0  0  0  0  0  0
    6.5350   -5.4650   22.3770 C   0  0  0  0  0  0  0  0  0  0  0  0
  1  2  1  0
  2  3  2  0
  2  4  1  0
  4  5  1  0
  5  6  1  0
  6  7  1  0
  7  8  1  0
  8  9  2  0
  8 10  1  0
 10 11  1  0
 11 12  2  0
 12 13  1  0
 13 14  2  0
 14 15  1  0
 15 16  2  0
 16 17  1  0
 17 18  1  0
 17 19  2  0
 15 20  1  0
 19 20  1  0
 14 21  1  0
 11 22  1  0
 21 22  2  0
  7 23  1  0
  4 24  1  0
 23 24  1  0
M  END
