piperidine-amides-27467-covalent
     RDKit          3D

 26 28  0  0  0  0  0  0  0  0999 V2000
    7.0700   -3.3340   19.3010 C   0  0  0  0  0  0  0  0  0  0  0  0
    6.3970   -4.1600   20.3070 C   0  0  0  0  0  0  0  0  0  0  0  0
    5.3470   -4.7550   19.9530 O   0  0  0  0  0  0  0  0  0  0  0  0
    6.9510   -4.3000   21.5800 N   0  0  0  0  0  0  0  0  0  0  0  0
    6.6330   -5.4310   22.4140 C   0  0  0  0  0  0  0  0  0  0  0  0
    5.8750   -4.9210   23.6120 C   0  0  0  0  0  0  0  0  0  0  0  0
    6.5710   -3.7710   24.3050 C   0  0  0  0  0  0  0  0  0  0  0  0
    5.7150   -3.1980   25.3670 C   0  0  0  0  0  0  0  0  0  0  0  0
    4.5840   -2.7790   25.0330 O   0  0  0  0  0  0  0  0  0  0  0  0
    6.0960   -3.1060   26.7220 N   0  0  0  0  0  0  0  0  0  0  0  0
    5.9980   -4.2880   27.5510 C   0  0  0  0  0  0  0  0  0  0  0  0
    4.5840   -4.5010   28.0730 C   0  0  0  0  0  0  0  0  0  0  0  0
    3.8270   -5.6050   27.7400 C   0  0  0  0  0  0  0  0  0  0  0  0
    2.5560   -5.7620   28.2310 C   0  0  0  0  0  0  0  0  0  0  0  0
    1.9510   -4.8590   29.0730 C   0  0  0  0  0  0  0  0  0  0  0  0
    2.7040   -3.7600   29.4070 C   0  0  0  0  0  0  0  0  0  0  0  0
    3.9860   -3.5780   28.9240 C   0  0  0  0  0  0  0  0  0  0  0  0
    4.7340   -2.5160   29.2370 F   0  0  0  0  0  0  0  0  0  0  0  0
    6.3350   -1.8350   27.3150 C   0  0  0  0  0  0  0  0  0  0  0  0
    7.0330   -1.7740   28.6150 C   0  0  0  0  0  0  0  0  0  0  0  0
    7.3290   -0.5600   29.3170 C   0  0  0  0  0  0  0  0  0  0  0  0
    6.9270    0.5250   28.7020 N   0  0  0  0  0  0  0  0  0  0  0  0
    6.1990    0.7550   27.3980 C   0  0  0  0  0  0  0  0  0  0  0  0
    5.9670   -0.5520   26.8030 C   0  0  0  0  0  0  0  0  0  0  0  0
    6.8870   -2.6860   23.3030 C   0  0  0  0  0  0  0  0  0  0  0  0
    7.7410   -3.2580   22.1980 C   0  0  0  0  0  0  0  0  0  0  0  0
  1  2  1  0
  2  3  2  0
  2  4  1  0
  4  5  1  0
  5  6  1  0
  6  7  1  0
  7  8  1  0
  8  9  2  0
  8 10  1  0
 10 11  1  0
 11 12  1  0
 12 13  2  0
 13 14  1  0
 14 15  2  0
 15 16  1  0
 12 17  1  0
 16 17  2  0
 17 18  1  0
 10 19  1  0
 19 20  2  0
 20 21  1  0
 21 22  2  0
 22 23  1  0
 19 24  1  0
 23 24  2  0
  7 25  1  0
  4 26  1  0
 25 26  1  0
M  END
