piperidine-amides-31732-covalent
     RDKit          3D

 27 29  0  0  0  0  0  0  0  0999 V2000
    7.1940   -3.2730   19.3180 C   0  0  0  0  0  0  0  0  0  0  0  0
    6.4050   -4.0370   20.2600 C   0  0  0  0  0  0  0  0  0  0  0  0
    5.3030   -4.5400   19.8770 O   0  0  0  0  0  0  0  0  0  0  0  0
    6.8550   -4.2840   21.5660 N   0  0  0  0  0  0  0  0  0  0  0  0
    7.7310   -3.2680   22.1980 C   0  0  0  0  0  0  0  0  0  0  0  0
    6.7510   -2.7360   23.2990 C   0  0  0  0  0  0  0  0  0  0  0  0
    6.4400   -3.9690   24.1070 C   0  0  0  0  0  0  0  0  0  0  0  0
    5.7070   -3.6070   25.4650 C   0  0  0  0  0  0  0  0  0  0  0  0
    4.8480   -4.4260   25.7430 O   0  0  0  0  0  0  0  0  0  0  0  0
    6.2000   -2.5360   25.9090 N   0  0  0  0  0  0  0  0  0  0  0  0
    6.6350   -1.2660   25.8830 C   0  0  0  0  0  0  0  0  0  0  0  0
    6.0950   -0.1230   25.3450 C   0  0  0  0  0  0  0  0  0  0  0  0
    6.7910    0.4610   24.2810 C   0  0  0  0  0  0  0  0  0  0  0  0
    6.4120    1.7030   23.5310 C   0  0  0  0  0  0  0  0  0  0  0  0
    5.0730    2.3420   24.0700 C   0  0  0  0  0  0  0  0  0  0  0  0
    4.2840    3.8020   23.4640 Cl  0  0  0  0  0  0  0  0  0  0  0  0
    4.5400    1.5970   25.1350 C   0  0  0  0  0  0  0  0  0  0  0  0
    4.9980    0.4520   25.7400 C   0  0  0  0  0  0  0  0  0  0  0  0
    6.2620   -2.6350   27.3510 C   0  0  0  0  0  0  0  0  0  0  0  0
    6.4700   -1.3090   28.1950 C   0  0  0  0  0  0  0  0  0  0  0  0
    6.4290    0.0540   27.9250 C   0  0  0  0  0  0  0  0  0  0  0  0
    6.6760    0.8470   28.9900 N   0  0  0  0  0  0  0  0  0  0  0  0
    6.8940    0.0480   30.0140 N   0  0  0  0  0  0  0  0  0  0  0  0
    7.1760    0.5230   31.2480 C   0  0  0  0  0  0  0  0  0  0  0  0
    6.7930   -1.2250   29.6460 C   0  0  0  0  0  0  0  0  0  0  0  0
    5.7860   -5.1060   23.3940 C   0  0  0  0  0  0  0  0  0  0  0  0
    6.5240   -5.4810   22.2800 C   0  0  0  0  0  0  0  0  0  0  0  0
  1  2  1  0
  2  3  2  0
  2  4  1  0
  4  5  1  0
  5  6  1  0
  6  7  1  0
  7  8  1  0
  8  9  2  0
  8 10  1  0
 10 11  1  0
 11 12  1  0
 12 13  2  0
 13 14  1  0
 14 15  2  0
 15 16  1  0
 15 17  1  0
 12 18  1  0
 17 18  2  0
 10 19  1  0
 19 20  1  0
 20 21  1  0
 21 22  2  0
 22 23  1  0
 23 24  1  0
 20 25  2  0
 23 25  1  0
  7 26  1  0
  4 27  1  0
 26 27  1  0
M  END
