piperidine-amides-30885-covalent
     RDKit          3D

 27 29  0  0  0  0  0  0  0  0999 V2000
    7.0600   -3.3660   19.3500 C   0  0  0  0  0  0  0  0  0  0  0  0
    6.4210   -4.2180   20.3530 C   0  0  0  0  0  0  0  0  0  0  0  0
    5.4360   -4.9000   20.0050 O   0  0  0  0  0  0  0  0  0  0  0  0
    6.9300   -4.3080   21.6690 N   0  0  0  0  0  0  0  0  0  0  0  0
    7.7570   -3.2460   22.2280 C   0  0  0  0  0  0  0  0  0  0  0  0
    7.3120   -3.0570   23.6530 C   0  0  0  0  0  0  0  0  0  0  0  0
    5.9500   -3.6420   23.8390 C   0  0  0  0  0  0  0  0  0  0  0  0
    5.1410   -3.0310   24.9390 C   0  0  0  0  0  0  0  0  0  0  0  0
    4.3470   -2.1070   24.6480 O   0  0  0  0  0  0  0  0  0  0  0  0
    5.1440   -3.3610   26.3030 N   0  0  0  0  0  0  0  0  0  0  0  0
    4.0300   -4.0390   26.9610 C   0  0  0  0  0  0  0  0  0  0  0  0
    4.6760   -4.8720   27.9950 C   0  0  1  0  0  0  0  0  0  0  0  0
    4.2950   -6.1430   27.7740 N   0  0  0  0  0  0  0  0  0  0  0  0
    3.2520   -6.7150   28.5390 C   0  0  0  0  0  0  0  0  0  0  0  0
    3.2410   -6.7490   29.7830 O   0  0  0  0  0  0  0  0  0  0  0  0
    2.2240   -7.2400   27.9260 O   0  0  0  0  0  0  0  0  0  0  0  0
    1.2040   -7.9570   28.5850 C   0  0  0  0  0  0  0  0  0  0  0  0
    1.6940   -8.5820   29.8760 C   0  0  0  0  0  0  0  0  0  0  0  0
   -0.0910   -7.1520   28.7770 C   0  0  0  0  0  0  0  0  0  0  0  0
    0.8910   -9.3310   28.0140 C   0  0  0  0  0  0  0  0  0  0  0  0
    6.1320   -4.6340   27.8740 C   0  0  2  0  0  0  0  0  0  0  0  0
    6.7450   -4.3050   29.1390 C   0  0  0  0  0  0  0  0  0  0  0  0
    6.7480   -2.9780   29.3100 O   0  0  0  0  0  0  0  0  0  0  0  0
    6.4050   -2.3360   28.0970 C   0  0  0  0  0  0  0  0  0  0  0  0
    6.3480   -3.3980   26.9930 C   0  0  2  0  0  0  0  0  0  0  0  0
    6.0540   -5.1250   23.7600 C   0  0  0  0  0  0  0  0  0  0  0  0
    6.5930   -5.4930   22.4190 C   0  0  0  0  0  0  0  0  0  0  0  0
  1  2  1  0
  2  3  2  0
  2  4  1  0
  4  5  1  0
  5  6  1  0
  6  7  1  0
  7  8  1  0
  8  9  2  0
  8 10  1  0
 10 11  1  0
 11 12  1  0
 12 13  1  6
 13 14  1  0
 14 15  2  0
 14 16  1  0
 17 16  1  0
 17 18  1  0
 17 19  1  0
 17 20  1  0
 12 21  1  0
 21 22  1  1
 22 23  1  0
 23 24  1  0
 10 25  1  0
 21 25  1  0
 25 24  1  1
  7 26  1  0
  4 27  1  0
 26 27  1  0
M  END
