piperidine-amides-6941-covalent
     RDKit          3D

 22 23  0  0  0  0  0  0  0  0999 V2000
    7.0580   -3.2720   19.2960 C   0  0  0  0  0  0  0  0  0  0  0  0
    6.3410   -4.0850   20.2990 C   0  0  0  0  0  0  0  0  0  0  0  0
    5.3510   -4.7660   19.9540 O   0  0  0  0  0  0  0  0  0  0  0  0
    6.7650   -4.1380   21.6350 N   0  0  0  0  0  0  0  0  0  0  0  0
    7.6430   -3.1090   22.1520 C   0  0  0  0  0  0  0  0  0  0  0  0
    7.4470   -3.1000   23.6680 C   0  0  0  0  0  0  0  0  0  0  0  0
    6.0530   -3.6420   23.8820 C   0  0  0  0  0  0  0  0  0  0  0  0
    5.5470   -3.3770   25.2490 C   0  0  0  0  0  0  0  0  0  0  0  0
    4.3280   -3.1560   25.3930 O   0  0  0  0  0  0  0  0  0  0  0  0
    6.4350   -3.3680   26.3450 N   0  0  0  0  0  0  0  0  0  0  0  0
    6.1050   -3.9980   27.6080 C   0  0  0  0  0  0  0  0  0  0  0  0
    5.5150   -5.3970   27.4040 C   0  0  1  0  0  0  0  0  0  0  0  0
    6.4220   -6.1330   26.6230 O   0  0  0  0  0  0  0  0  0  0  0  0
    5.1580   -6.1110   28.5080 C   0  0  0  0  0  0  0  0  0  0  0  0
    4.1100   -7.0370   28.4350 C   0  0  0  0  0  0  0  0  0  0  0  0
    3.7000   -7.7890   29.5410 C   0  0  0  0  0  0  0  0  0  0  0  0
    4.3850   -7.5600   30.6820 C   0  0  0  0  0  0  0  0  0  0  0  0
    4.5870   -7.8800   32.1510 C   0  0  0  0  0  0  0  0  0  0  0  0
    5.4840   -6.6520   30.9260 C   0  0  0  0  0  0  0  0  0  0  0  0
    5.8360   -5.9070   29.6840 C   0  0  0  0  0  0  0  0  0  0  0  0
    5.9930   -5.1240   23.5840 C   0  0  0  0  0  0  0  0  0  0  0  0
    6.6680   -5.3810   22.3740 C   0  0  0  0  0  0  0  0  0  0  0  0
  1  2  1  0
  2  3  2  0
  2  4  1  0
  4  5  1  0
  5  6  1  0
  6  7  1  0
  7  8  1  0
  8  9  2  0
  8 10  1  0
 10 11  1  0
 11 12  1  0
 12 13  1  1
 12 14  1  0
 14 15  2  0
 15 16  1  0
 16 17  2  0
 17 18  1  0
 17 19  1  0
 14 20  1  0
 19 20  2  0
  7 21  1  0
  4 22  1  0
 21 22  1  0
M  END
