piperidine-amides-31310-covalent
     RDKit          3D

 27 28  0  0  0  0  0  0  0  0999 V2000
    7.0270   -3.3330   19.2730 C   0  0  0  0  0  0  0  0  0  0  0  0
    6.3230   -4.0470   20.3240 C   0  0  0  0  0  0  0  0  0  0  0  0
    5.3280   -4.7410   19.9560 O   0  0  0  0  0  0  0  0  0  0  0  0
    6.6940   -4.0550   21.6960 N   0  0  0  0  0  0  0  0  0  0  0  0
    7.5840   -2.9590   22.1870 C   0  0  0  0  0  0  0  0  0  0  0  0
    7.2090   -2.8630   23.7270 C   0  0  0  0  0  0  0  0  0  0  0  0
    5.8760   -3.5570   23.8310 C   0  0  0  0  0  0  0  0  0  0  0  0
    4.9290   -3.0770   25.0470 C   0  0  0  0  0  0  0  0  0  0  0  0
    3.7880   -3.4550   24.8520 O   0  0  0  0  0  0  0  0  0  0  0  0
    5.5730   -2.4210   25.9240 N   0  0  0  0  0  0  0  0  0  0  0  0
    6.0480   -1.4020   26.7020 C   0  0  0  0  0  0  0  0  0  0  0  0
    6.0340   -1.0920   28.0390 C   0  0  0  0  0  0  0  0  0  0  0  0
    7.2060   -1.0130   28.8420 C   0  0  0  0  0  0  0  0  0  0  0  0
    7.4050   -0.6970   30.2970 C   0  0  0  0  0  0  0  0  0  0  0  0
    6.0590   -0.4040   31.0230 C   0  0  0  0  0  0  0  0  0  0  0  0
    4.9610   -0.4980   30.1810 C   0  0  0  0  0  0  0  0  0  0  0  0
    3.5620   -0.3510   30.2460 C   0  0  0  0  0  0  0  0  0  0  0  0
    2.8780   -1.4820   29.8960 F   0  0  0  0  0  0  0  0  0  0  0  0
    3.1370    0.0310   31.4940 F   0  0  0  0  0  0  0  0  0  0  0  0
    3.2100    0.6670   29.3720 F   0  0  0  0  0  0  0  0  0  0  0  0
    4.7500   -0.8080   28.7560 C   0  0  0  0  0  0  0  0  0  0  0  0
    6.4200   -3.2630   26.6530 C   0  0  0  0  0  0  0  0  0  0  0  0
    5.7320   -4.2580   27.3410 C   0  0  0  0  0  0  0  0  0  0  0  0
    6.2280   -4.6070   28.5720 C   0  0  0  0  0  0  0  0  0  0  0  0
    5.6470   -5.5650   26.6130 C   0  0  0  0  0  0  0  0  0  0  0  0
    5.8930   -5.0330   23.6060 C   0  0  0  0  0  0  0  0  0  0  0  0
    6.6310   -5.2810   22.4450 C   0  0  0  0  0  0  0  0  0  0  0  0
  1  2  1  0
  2  3  2  0
  2  4  1  0
  4  5  1  0
  5  6  1  0
  6  7  1  0
  7  8  1  0
  8  9  2  0
  8 10  1  0
 10 11  1  0
 11 12  1  0
 12 13  2  0
 13 14  1  0
 14 15  2  0
 15 16  1  0
 16 17  1  0
 17 18  1  0
 17 19  1  0
 17 20  1  0
 12 21  1  0
 16 21  2  0
 10 22  1  0
 22 23  1  0
 23 24  1  0
 23 25  1  0
  7 26  1  0
  4 27  1  0
 26 27  1  0
M  END
