piperidine-amides-28816-covalent
     RDKit          3D

 27 29  0  0  0  0  0  0  0  0999 V2000
    7.1110   -3.2730   19.2360 C   0  0  0  0  0  0  0  0  0  0  0  0
    6.3730   -4.0430   20.2360 C   0  0  0  0  0  0  0  0  0  0  0  0
    5.3020   -4.5770   19.8950 O   0  0  0  0  0  0  0  0  0  0  0  0
    6.9060   -4.2120   21.5360 N   0  0  0  0  0  0  0  0  0  0  0  0
    7.6790   -3.1510   22.1200 C   0  0  0  0  0  0  0  0  0  0  0  0
    6.9240   -2.5740   23.2720 C   0  0  0  0  0  0  0  0  0  0  0  0
    6.5750   -3.7390   24.1620 C   0  0  0  0  0  0  0  0  0  0  0  0
    5.7230   -3.2830   25.3010 C   0  0  0  0  0  0  0  0  0  0  0  0
    4.5220   -3.1860   25.0500 O   0  0  0  0  0  0  0  0  0  0  0  0
    6.2860   -2.9960   26.5440 N   0  0  0  0  0  0  0  0  0  0  0  0
    6.5940   -1.6150   26.7940 C   0  0  0  0  0  0  0  0  0  0  0  0
    6.4280   -1.0700   28.0750 C   0  0  0  0  0  0  0  0  0  0  0  0
    7.3630   -1.2310   29.0860 C   0  0  0  0  0  0  0  0  0  0  0  0
    7.2850   -0.7120   30.3880 C   0  0  0  0  0  0  0  0  0  0  0  0
    6.0560    0.0940   30.6980 C   0  0  0  0  0  0  0  0  0  0  0  0
    5.0130    0.2810   29.5910 C   0  0  0  0  0  0  0  0  0  0  0  0
    5.2940   -0.3470   28.2990 C   0  0  0  0  0  0  0  0  0  0  0  0
    5.7400   -3.8310   27.6060 C   0  0  1  0  0  0  0  0  0  0  0  0
    6.7870   -4.2520   28.6550 C   0  0  0  0  0  0  0  0  0  0  0  0
    4.7900   -3.1360   28.3190 C   0  0  0  0  0  0  0  0  0  0  0  0
    3.5250   -2.9040   27.7770 C   0  0  0  0  0  0  0  0  0  0  0  0
    2.4360   -2.1550   28.5040 C   0  0  0  0  0  0  0  0  0  0  0  0
    2.6980   -1.6280   29.8690 C   0  0  0  0  0  0  0  0  0  0  0  0
    4.0490   -1.8660   30.4680 C   0  0  0  0  0  0  0  0  0  0  0  0
    5.0460   -2.6430   29.5990 C   0  0  0  0  0  0  0  0  0  0  0  0
    5.8750   -4.8960   23.5110 C   0  0  0  0  0  0  0  0  0  0  0  0
    6.5860   -5.3940   22.2800 C   0  0  0  0  0  0  0  0  0  0  0  0
  1  2  1  0
  2  3  2  0
  2  4  1  0
  4  5  1  0
  5  6  1  0
  6  7  1  0
  7  8  1  0
  8  9  2  0
  8 10  1  0
 10 11  1  0
 11 12  1  0
 12 13  2  0
 13 14  1  0
 14 15  2  0
 15 16  1  0
 12 17  1  0
 16 17  2  0
 10 18  1  0
 18 19  1  1
 18 20  1  0
 20 21  2  0
 21 22  1  0
 22 23  2  0
 23 24  1  0
 20 25  1  0
 24 25  2  0
  7 26  1  0
  4 27  1  0
 26 27  1  0
M  END
