piperidine-amides-21723-covalent
     RDKit          3D

 23 25  0  0  0  0  0  0  0  0999 V2000
    7.0520   -3.3520   19.3270 C   0  0  0  0  0  0  0  0  0  0  0  0
    6.4020   -4.2050   20.3290 C   0  0  0  0  0  0  0  0  0  0  0  0
    5.3500   -4.7900   19.9640 O   0  0  0  0  0  0  0  0  0  0  0  0
    6.9640   -4.3920   21.5970 N   0  0  0  0  0  0  0  0  0  0  0  0
    6.6850   -5.5590   22.3850 C   0  0  0  0  0  0  0  0  0  0  0  0
    5.9790   -5.1030   23.6310 C   0  0  0  0  0  0  0  0  0  0  0  0
    6.6780   -3.9560   24.3300 C   0  0  0  0  0  0  0  0  0  0  0  0
    5.8290   -3.4840   25.4480 C   0  0  0  0  0  0  0  0  0  0  0  0
    4.7050   -3.0210   25.1530 O   0  0  0  0  0  0  0  0  0  0  0  0
    6.1770   -3.5320   26.8170 N   0  0  0  0  0  0  0  0  0  0  0  0
    5.4290   -4.3590   27.7260 C   0  0  0  0  0  0  0  0  0  0  0  0
    6.5860   -5.0420   28.3810 C   0  0  0  0  0  0  0  0  0  0  0  0
    7.7390   -4.4820   27.9340 C   0  0  0  0  0  0  0  0  0  0  0  0
    7.4990   -3.2320   27.3550 C   0  0  2  0  0  0  0  0  0  0  0  0
    7.3570   -2.1730   28.2540 C   0  0  0  0  0  0  0  0  0  0  0  0
    8.2690   -1.7760   29.1470 N   0  0  0  0  0  0  0  0  0  0  0  0
    8.0930   -0.7710   30.0230 C   0  0  0  0  0  0  0  0  0  0  0  0
    6.9480   -0.0090   30.1050 C   0  0  0  0  0  0  0  0  0  0  0  0
    5.7870   -0.2780   29.1740 C   0  0  0  0  0  0  0  0  0  0  0  0
    6.0560   -1.4350   28.2170 C   0  0  0  0  0  0  0  0  0  0  0  0
    5.0090   -1.7040   27.3630 F   0  0  0  0  0  0  0  0  0  0  0  0
    6.9510   -2.7870   23.3660 C   0  0  0  0  0  0  0  0  0  0  0  0
    7.7750   -3.3580   22.2320 C   0  0  0  0  0  0  0  0  0  0  0  0
  1  2  1  0
  2  3  2  0
  2  4  1  0
  4  5  1  0
  5  6  1  0
  6  7  1  0
  7  8  1  0
  8  9  2  0
  8 10  1  0
 10 11  1  0
 11 12  1  0
 12 13  1  0
 10 14  1  0
 13 14  1  0
 14 15  1  1
 15 16  2  0
 16 17  1  0
 17 18  2  0
 18 19  1  0
 15 20  1  0
 19 20  2  0
 20 21  1  0
  7 22  1  0
  4 23  1  0
 22 23  1  0
M  END
