piperidine-amides-29457-covalent
     RDKit          3D

 26 28  0  0  0  0  0  0  0  0999 V2000
    7.1250   -3.3460   19.3050 C   0  0  0  0  0  0  0  0  0  0  0  0
    6.4570   -4.1940   20.2870 C   0  0  0  0  0  0  0  0  0  0  0  0
    5.3900   -4.7470   19.9640 O   0  0  0  0  0  0  0  0  0  0  0  0
    7.0700   -4.4170   21.5440 N   0  0  0  0  0  0  0  0  0  0  0  0
    6.5960   -5.5030   22.3360 C   0  0  0  0  0  0  0  0  0  0  0  0
    5.7650   -4.9230   23.4400 C   0  0  0  0  0  0  0  0  0  0  0  0
    6.6310   -3.9550   24.2240 C   0  0  0  0  0  0  0  0  0  0  0  0
    5.8060   -3.3740   25.3170 C   0  0  0  0  0  0  0  0  0  0  0  0
    5.0130   -2.4960   24.9950 O   0  0  0  0  0  0  0  0  0  0  0  0
    5.9450   -3.8580   26.5990 N   0  0  0  0  0  0  0  0  0  0  0  0
    6.1480   -3.0190   27.6980 C   0  0  0  0  0  0  0  0  0  0  0  0
    6.1320   -3.7240   28.9290 C   0  0  0  0  0  0  0  0  0  0  0  0
    4.7120   -4.2740   29.1720 N   0  0  0  0  0  0  0  0  0  0  0  0
    3.6400   -3.6130   29.8280 C   0  0  0  0  0  0  0  0  0  0  0  0
    4.1620   -5.0240   28.0980 C   0  0  0  0  0  0  0  0  0  0  0  0
    3.2780   -5.6590   28.9640 C   0  0  0  0  0  0  0  0  0  0  0  0
    4.4850   -6.0560   29.6350 C   0  0  0  0  0  0  0  0  0  0  0  0
    4.4700   -6.5990   31.0320 C   0  0  0  0  0  0  0  0  0  0  0  0
    5.7730   -6.8590   31.4390 F   0  0  0  0  0  0  0  0  0  0  0  0
    3.7840   -5.7860   31.8930 F   0  0  0  0  0  0  0  0  0  0  0  0
    3.7700   -7.8020   30.9260 F   0  0  0  0  0  0  0  0  0  0  0  0
    5.6910   -6.2650   28.4580 C   0  0  0  0  0  0  0  0  0  0  0  0
    5.6490   -5.1650   27.1480 C   0  0  0  0  0  0  0  0  0  0  0  0
    5.1070   -4.2290   27.6620 C   0  0  0  0  0  0  0  0  0  0  0  0
    7.0250   -2.8150   23.3360 C   0  0  0  0  0  0  0  0  0  0  0  0
    7.7560   -3.2930   22.1280 C   0  0  0  0  0  0  0  0  0  0  0  0
  1  2  1  0
  2  3  2  0
  2  4  1  0
  4  5  1  0
  5  6  1  0
  6  7  1  0
  7  8  1  0
  8  9  2  0
  8 10  1  0
 10 11  1  0
 11 12  1  0
 12 13  1  0
 13 14  1  0
 13 15  1  0
 15 16  2  0
 16 17  1  0
 17 18  1  0
 18 19  1  0
 18 20  1  0
 18 21  1  0
 17 22  2  0
 22 23  1  0
 10 24  1  0
 15 24  1  0
 23 24  2  0
  7 25  1  0
  4 26  1  0
 25 26  1  0
M  END
