piperidine-amides-30839-covalent
     RDKit          3D

 23 25  0  0  0  0  0  0  0  0999 V2000
    7.0160   -3.3640   19.3630 C   0  0  0  0  0  0  0  0  0  0  0  0
    6.3490   -4.2310   20.3380 C   0  0  0  0  0  0  0  0  0  0  0  0
    5.3560   -4.8810   19.9790 O   0  0  0  0  0  0  0  0  0  0  0  0
    6.8280   -4.3850   21.6500 N   0  0  0  0  0  0  0  0  0  0  0  0
    6.6300   -5.6070   22.4130 C   0  0  0  0  0  0  0  0  0  0  0  0
    5.7690   -5.2480   23.6050 C   0  0  0  0  0  0  0  0  0  0  0  0
    5.8040   -3.7760   23.8640 C   0  0  0  0  0  0  0  0  0  0  0  0
    5.2500   -3.3400   25.1790 C   0  0  0  0  0  0  0  0  0  0  0  0
    4.4700   -2.3510   25.2290 O   0  0  0  0  0  0  0  0  0  0  0  0
    5.5220   -3.9550   26.4200 N   0  0  0  0  0  0  0  0  0  0  0  0
    6.8630   -4.2670   26.7980 C   0  0  0  0  0  0  0  0  0  0  0  0
    6.8500   -5.4790   27.6510 C   0  0  1  0  0  0  0  0  0  0  0  0
    8.1470   -6.0110   28.0380 C   0  0  0  0  0  0  0  0  0  0  0  0
    6.2630   -5.4090   28.7710 O   0  0  0  0  0  0  0  0  0  0  0  0
    4.8950   -5.1000   28.7940 C   0  0  0  0  0  0  0  0  0  0  0  0
    4.1500   -5.6650   30.1260 C   0  0  0  0  0  0  0  0  0  0  0  0
    3.8000   -5.0120   29.0880 C   0  0  0  0  0  0  0  0  0  0  0  0
    2.0110   -4.9860   29.7600 Br  0  0  0  0  0  0  0  0  0  0  0  0
    5.2670   -5.3790   29.1700 C   0  0  0  0  0  0  0  0  0  0  0  0
    5.7170   -4.8860   28.0830 C   0  0  0  0  0  0  0  0  0  0  0  0
    4.6840   -4.3260   27.4730 C   0  0  0  0  0  0  0  0  0  0  0  0
    7.1750   -3.2180   23.6950 C   0  0  0  0  0  0  0  0  0  0  0  0
    7.6080   -3.3260   22.2620 C   0  0  0  0  0  0  0  0  0  0  0  0
  1  2  1  0
  2  3  2  0
  2  4  1  0
  4  5  1  0
  5  6  1  0
  6  7  1  0
  7  8  1  0
  8  9  2  0
  8 10  1  0
 10 11  1  0
 11 12  1  0
 12 13  1  1
 12 14  1  0
 14 15  1  0
 15 16  2  0
 16 17  1  0
 17 18  1  0
 17 19  2  0
 19 20  1  0
 10 21  1  0
 15 21  1  0
 20 21  2  0
  7 22  1  0
  4 23  1  0
 22 23  1  0
M  END
