piperidine-amides-15364-covalent
     RDKit          3D

 17 18  0  0  0  0  0  0  0  0999 V2000
    7.0980   -3.2690   19.2620 C   0  0  0  0  0  0  0  0  0  0  0  0
    6.3380   -4.0540   20.2480 C   0  0  0  0  0  0  0  0  0  0  0  0
    5.2890   -4.6460   19.9170 O   0  0  0  0  0  0  0  0  0  0  0  0
    6.8100   -4.1860   21.5570 N   0  0  0  0  0  0  0  0  0  0  0  0
    6.5200   -5.3750   22.3230 C   0  0  0  0  0  0  0  0  0  0  0  0
    5.6670   -4.9120   23.5050 C   0  0  0  0  0  0  0  0  0  0  0  0
    6.4880   -3.8490   24.2040 C   0  0  0  0  0  0  0  0  0  0  0  0
    5.7270   -3.3190   25.3600 C   0  0  0  0  0  0  0  0  0  0  0  0
    4.5180   -3.0730   25.1770 O   0  0  0  0  0  0  0  0  0  0  0  0
    6.3290   -3.1040   26.6340 N   0  0  0  0  0  0  0  0  0  0  0  0
    5.9020   -3.8890   27.7310 C   0  0  0  0  0  0  0  0  0  0  0  0
    5.5960   -2.5400   28.2580 C   0  0  1  0  0  0  0  0  0  0  0  0
    6.2370   -2.3860   29.5160 O   0  0  0  0  0  0  0  0  0  0  0  0
    6.1380   -1.7530   27.2350 C   0  0  2  0  0  0  0  0  0  0  0  0
    5.3500   -0.8720   26.5400 C   0  0  0  0  0  0  0  0  0  0  0  0
    6.8710   -2.7150   23.3060 C   0  0  0  0  0  0  0  0  0  0  0  0
    7.5750   -3.1420   22.2060 C   0  0  0  0  0  0  0  0  0  0  0  0
  1  2  1  0
  2  3  2  0
  2  4  1  0
  4  5  1  0
  5  6  1  0
  6  7  1  0
  7  8  1  0
  8  9  2  0
  8 10  1  0
 10 11  1  0
 11 12  1  0
 12 13  1  1
 10 14  1  0
 12 14  1  0
 14 15  1  6
  7 16  1  0
  4 17  1  0
 16 17  1  0
M  END
