piperidine-amides-24922-covalent
     RDKit          3D

 23 24  0  0  0  0  0  0  0  0999 V2000
    7.0640   -3.3520   19.3670 C   0  0  0  0  0  0  0  0  0  0  0  0
    6.3530   -4.1730   20.3570 C   0  0  0  0  0  0  0  0  0  0  0  0
    5.3730   -4.8580   19.9900 O   0  0  0  0  0  0  0  0  0  0  0  0
    6.7850   -4.2410   21.6940 N   0  0  0  0  0  0  0  0  0  0  0  0
    7.6750   -3.2040   22.2100 C   0  0  0  0  0  0  0  0  0  0  0  0
    7.4150   -3.0000   23.7150 C   0  0  0  0  0  0  0  0  0  0  0  0
    6.1080   -3.6980   23.9850 C   0  0  0  0  0  0  0  0  0  0  0  0
    5.5300   -3.3920   25.3220 C   0  0  0  0  0  0  0  0  0  0  0  0
    4.2830   -3.3980   25.3830 O   0  0  0  0  0  0  0  0  0  0  0  0
    6.2820   -3.0840   26.4910 N   0  0  0  0  0  0  0  0  0  0  0  0
    5.7590   -3.5710   27.7520 C   0  0  0  0  0  0  0  0  0  0  0  0
    6.3100   -4.9370   28.1510 C   0  0  0  0  0  0  0  0  0  0  0  0
    5.7540   -5.6420   29.1730 C   0  0  0  0  0  0  0  0  0  0  0  0
    6.1230   -5.8480   26.9660 C   0  0  0  0  0  0  0  0  0  0  0  0
    6.4550   -1.7950   27.1820 C   0  0  0  0  0  0  0  0  0  0  0  0
    7.0700   -1.9900   28.3690 C   0  0  0  0  0  0  0  0  0  0  0  0
    7.2530   -0.7300   29.0550 C   0  0  0  0  0  0  0  0  0  0  0  0
    6.9920    0.5140   28.8440 N   0  0  0  0  0  0  0  0  0  0  0  0
    6.3130    0.7680   27.5810 C   0  0  0  0  0  0  0  0  0  0  0  0
    5.8430    2.3980   27.0800 Cl  0  0  0  0  0  0  0  0  0  0  0  0
    6.0820   -0.4130   26.8120 N   0  0  0  0  0  0  0  0  0  0  0  0
    6.1690   -5.1540   23.7710 C   0  0  0  0  0  0  0  0  0  0  0  0
    6.6180   -5.4600   22.4180 C   0  0  0  0  0  0  0  0  0  0  0  0
  1  2  1  0
  2  3  2  0
  2  4  1  0
  4  5  1  0
  5  6  1  0
  6  7  1  0
  7  8  1  0
  8  9  2  0
  8 10  1  0
 10 11  1  0
 11 12  1  0
 12 13  1  0
 12 14  1  0
 10 15  1  0
 15 16  2  0
 16 17  1  0
 17 18  2  0
 18 19  1  0
 19 20  1  0
 15 21  1  0
 19 21  2  0
  7 22  1  0
  4 23  1  0
 22 23  1  0
M  END
