piperidine-amides-4791-covalent
     RDKit          3D

 24 26  0  0  0  0  0  0  0  0999 V2000
    7.0340   -3.3470   19.2960 C   0  0  0  0  0  0  0  0  0  0  0  0
    6.3830   -4.1780   20.3400 C   0  0  0  0  0  0  0  0  0  0  0  0
    5.3670   -4.8080   19.9710 O   0  0  0  0  0  0  0  0  0  0  0  0
    6.9020   -4.2940   21.6420 N   0  0  0  0  0  0  0  0  0  0  0  0
    7.6820   -3.2410   22.2170 C   0  0  0  0  0  0  0  0  0  0  0  0
    7.3020   -2.9560   23.5890 C   0  0  0  0  0  0  0  0  0  0  0  0
    6.0310   -3.6040   23.9610 C   0  0  0  0  0  0  0  0  0  0  0  0
    5.6140   -3.2730   25.3480 C   0  0  0  0  0  0  0  0  0  0  0  0
    4.4000   -3.3520   25.6350 O   0  0  0  0  0  0  0  0  0  0  0  0
    6.5420   -2.8600   26.3130 N   0  0  0  0  0  0  0  0  0  0  0  0
    6.4200   -1.5800   27.0490 C   0  0  0  0  0  0  0  0  0  0  0  0
    7.0170   -1.5820   28.4000 C   0  0  0  0  0  0  0  0  0  0  0  0
    6.9750   -0.4020   29.2350 C   0  0  0  0  0  0  0  0  0  0  0  0
    6.3520    0.7240   28.7270 C   0  0  0  0  0  0  0  0  0  0  0  0
    5.7720    0.7640   27.4590 C   0  0  0  0  0  0  0  0  0  0  0  0
    5.2070    1.8850   27.0990 O   0  0  0  0  0  0  0  0  0  0  0  0
    4.2800    2.6150   27.8250 C   0  0  0  0  0  0  0  0  0  0  0  0
    3.1040    1.9860   28.1730 C   0  0  0  0  0  0  0  0  0  0  0  0
    2.0470    2.8520   28.1340 C   0  0  0  0  0  0  0  0  0  0  0  0
    2.4480    3.9220   27.3530 C   0  0  0  0  0  0  0  0  0  0  0  0
    3.8470    3.7410   26.9360 C   0  0  0  0  0  0  0  0  0  0  0  0
    5.8410   -0.3970   26.6840 C   0  0  0  0  0  0  0  0  0  0  0  0
    6.0790   -5.1210   23.6890 C   0  0  0  0  0  0  0  0  0  0  0  0
    6.6840   -5.4760   22.4550 C   0  0  0  0  0  0  0  0  0  0  0  0
  1  2  1  0
  2  3  2  0
  2  4  1  0
  4  5  1  0
  5  6  1  0
  6  7  1  0
  7  8  1  0
  8  9  2  0
  8 10  1  0
 10 11  1  0
 11 12  2  0
 12 13  1  0
 13 14  2  0
 14 15  1  0
 15 16  1  0
 16 17  1  0
 17 18  1  0
 18 19  1  0
 19 20  1  0
 17 21  1  0
 20 21  1  0
 11 22  1  0
 15 22  2  0
  7 23  1  0
  4 24  1  0
 23 24  1  0
M  END
