piperidine-amides-6607-covalent
     RDKit          3D

 24 25  0  0  0  0  0  0  0  0999 V2000
    7.1220   -3.3250   19.3120 C   0  0  0  0  0  0  0  0  0  0  0  0
    6.4310   -4.1790   20.2840 C   0  0  0  0  0  0  0  0  0  0  0  0
    5.3820   -4.7820   19.9680 O   0  0  0  0  0  0  0  0  0  0  0  0
    6.9840   -4.3690   21.5560 N   0  0  0  0  0  0  0  0  0  0  0  0
    7.7960   -3.3270   22.1420 C   0  0  0  0  0  0  0  0  0  0  0  0
    6.9080   -2.6630   23.1740 C   0  0  0  0  0  0  0  0  0  0  0  0
    6.4470   -3.7880   24.0610 C   0  0  0  0  0  0  0  0  0  0  0  0
    5.6570   -3.2340   25.1580 C   0  0  0  0  0  0  0  0  0  0  0  0
    4.4450   -2.9860   24.9880 O   0  0  0  0  0  0  0  0  0  0  0  0
    6.3140   -3.0120   26.3660 N   0  0  0  0  0  0  0  0  0  0  0  0
    6.2990   -1.7610   27.0490 C   0  0  0  0  0  0  0  0  0  0  0  0
    6.3600   -0.3890   26.4290 C   0  0  0  0  0  0  0  0  0  0  0  0
    6.3490    0.7440   27.2210 C   0  0  0  0  0  0  0  0  0  0  0  0
    6.2890    0.6310   28.6010 C   0  0  0  0  0  0  0  0  0  0  0  0
    6.2900    1.7970   29.4140 N   0  0  0  0  0  0  0  0  0  0  0  0
    6.9090    1.8660   30.6460 C   0  0  0  0  0  0  0  0  0  0  0  0
    5.6600    2.9380   28.8350 C   0  0  0  0  0  0  0  0  0  0  0  0
    6.2230   -0.5720   29.2840 C   0  0  0  0  0  0  0  0  0  0  0  0
    6.2150   -1.8380   28.4880 C   0  0  0  0  0  0  0  0  0  0  0  0
    6.0980   -3.1700   29.1440 C   0  0  0  0  0  0  0  0  0  0  0  0
    5.0430   -3.5250   29.8630 N   0  0  0  0  0  0  0  0  0  0  0  0
    7.0470   -4.0320   28.9420 O   0  0  0  0  0  0  0  0  0  0  0  0
    5.6380   -4.8180   23.3110 C   0  0  0  0  0  0  0  0  0  0  0  0
    6.5120   -5.4340   22.4050 C   0  0  0  0  0  0  0  0  0  0  0  0
  1  2  1  0
  2  3  2  0
  2  4  1  0
  4  5  1  0
  5  6  1  0
  6  7  1  0
  7  8  1  0
  8  9  2  0
  8 10  1  0
 10 11  1  0
 11 12  2  0
 12 13  1  0
 13 14  2  0
 14 15  1  0
 15 16  1  0
 15 17  1  0
 14 18  1  0
 11 19  1  0
 18 19  2  0
 19 20  1  0
 20 21  1  0
 20 22  2  0
  7 23  1  0
  4 24  1  0
 23 24  1  0
M  END
