piperidine-amides-23566-covalent
     RDKit          3D

 24 26  0  0  0  0  0  0  0  0999 V2000
    7.0450   -3.3870   19.3520 C   0  0  0  0  0  0  0  0  0  0  0  0
    6.4190   -4.2470   20.3680 C   0  0  0  0  0  0  0  0  0  0  0  0
    5.4060   -4.8910   19.9970 O   0  0  0  0  0  0  0  0  0  0  0  0
    6.9700   -4.3700   21.6730 N   0  0  0  0  0  0  0  0  0  0  0  0
    6.6400   -5.5210   22.4570 C   0  0  0  0  0  0  0  0  0  0  0  0
    6.0890   -5.1620   23.7550 C   0  0  0  0  0  0  0  0  0  0  0  0
    6.1770   -3.7140   23.9450 C   0  0  0  0  0  0  0  0  0  0  0  0
    5.5810   -3.1910   25.2190 C   0  0  0  0  0  0  0  0  0  0  0  0
    4.9310   -2.1380   25.1640 O   0  0  0  0  0  0  0  0  0  0  0  0
    5.6630   -3.8100   26.4740 N   0  0  0  0  0  0  0  0  0  0  0  0
    6.4100   -3.3330   27.5370 C   0  0  0  0  0  0  0  0  0  0  0  0
    6.6880   -4.2320   28.6590 C   0  0  0  0  0  0  0  0  0  0  0  0
    5.4080   -4.9030   29.1520 C   0  0  0  0  0  0  0  0  0  0  0  0
    5.2170   -5.7580   30.2190 C   0  0  0  0  0  0  0  0  0  0  0  0
    3.9630   -5.1340   30.8100 C   0  0  0  0  0  0  0  0  0  0  0  0
    3.3660   -5.6910   31.9980 N   0  0  0  0  0  0  0  0  0  0  0  0
    3.9790   -6.8830   32.6660 C   0  0  0  0  0  0  0  0  0  0  0  0
    5.2500   -7.4210   31.9660 C   0  0  0  0  0  0  0  0  0  0  0  0
    5.8850   -8.4900   32.5070 F   0  0  0  0  0  0  0  0  0  0  0  0
    5.8490   -6.8320   30.7150 C   0  0  0  0  0  0  0  0  0  0  0  0
    4.3050   -4.5650   28.4040 C   0  0  0  0  0  0  0  0  0  0  0  0
    4.3800   -4.2800   26.9040 C   0  0  0  0  0  0  0  0  0  0  0  0
    7.5670   -3.2820   23.6450 C   0  0  0  0  0  0  0  0  0  0  0  0
    7.7290   -3.2550   22.2530 C   0  0  0  0  0  0  0  0  0  0  0  0
  1  2  1  0
  2  3  2  0
  2  4  1  0
  4  5  1  0
  5  6  1  0
  6  7  1  0
  7  8  1  0
  8  9  2  0
  8 10  1  0
 10 11  1  0
 11 12  1  0
 12 13  2  0
 13 14  1  0
 14 15  2  0
 15 16  1  0
 16 17  2  0
 17 18  1  0
 18 19  1  0
 14 20  1  0
 18 20  2  0
 13 21  1  0
 10 22  1  0
 21 22  1  0
  7 23  1  0
  4 24  1  0
 23 24  1  0
M  END
