piperidine-amides-10044-covalent
     RDKit          3D

 26 28  0  0  0  0  0  0  0  0999 V2000
    7.0240   -3.3410   19.3440 C   0  0  0  0  0  0  0  0  0  0  0  0
    6.3770   -4.1770   20.3650 C   0  0  0  0  0  0  0  0  0  0  0  0
    5.3790   -4.8440   19.9800 O   0  0  0  0  0  0  0  0  0  0  0  0
    6.8760   -4.2510   21.6750 N   0  0  0  0  0  0  0  0  0  0  0  0
    7.7520   -3.2210   22.2050 C   0  0  0  0  0  0  0  0  0  0  0  0
    7.4310   -3.0140   23.6560 C   0  0  0  0  0  0  0  0  0  0  0  0
    6.0540   -3.5140   23.9740 C   0  0  0  0  0  0  0  0  0  0  0  0
    5.6310   -3.1480   25.3480 C   0  0  0  0  0  0  0  0  0  0  0  0
    4.4060   -3.0510   25.5680 O   0  0  0  0  0  0  0  0  0  0  0  0
    6.5250   -2.9100   26.4080 N   0  0  0  0  0  0  0  0  0  0  0  0
    6.4880   -1.7080   27.2100 C   0  0  0  0  0  0  0  0  0  0  0  0
    5.7800   -0.5020   26.6350 C   0  0  0  0  0  0  0  0  0  0  0  0
    5.7180    0.6590   27.3570 C   0  0  0  0  0  0  0  0  0  0  0  0
    6.3040    0.7250   28.6090 C   0  0  0  0  0  0  0  0  0  0  0  0
    6.1380    1.9100   29.1410 O   0  0  0  0  0  0  0  0  0  0  0  0
    4.9580    2.0180   29.6840 C   0  0  0  0  0  0  0  0  0  0  0  0
    4.7710    2.2920   31.0240 C   0  0  0  0  0  0  0  0  0  0  0  0
    3.5790    2.8190   31.4540 C   0  0  0  0  0  0  0  0  0  0  0  0
    3.2870    3.1470   32.8910 C   0  0  0  0  0  0  0  0  0  0  0  0
    4.4250    2.8530   33.8690 C   0  0  0  0  0  0  0  0  0  0  0  0
    5.6210    2.3120   33.3490 N   0  0  0  0  0  0  0  0  0  0  0  0
    5.7720    2.0400   31.9260 C   0  0  0  0  0  0  0  0  0  0  0  0
    6.9650   -0.3690   29.1630 C   0  0  0  0  0  0  0  0  0  0  0  0
    7.0540   -1.5660   28.4750 C   0  0  0  0  0  0  0  0  0  0  0  0
    6.0410   -5.0280   23.7940 C   0  0  0  0  0  0  0  0  0  0  0  0
    6.7170   -5.4440   22.4900 C   0  0  0  0  0  0  0  0  0  0  0  0
  1  2  1  0
  2  3  2  0
  2  4  1  0
  4  5  1  0
  5  6  1  0
  6  7  1  0
  7  8  1  0
  8  9  2  0
  8 10  1  0
 10 11  1  0
 11 12  2  0
 12 13  1  0
 13 14  2  0
 14 15  1  0
 15 16  1  0
 16 17  1  0
 17 18  2  0
 18 19  1  0
 19 20  2  0
 20 21  1  0
 17 22  1  0
 21 22  2  0
 14 23  1  0
 11 24  1  0
 23 24  2  0
  7 25  1  0
  4 26  1  0
 25 26  1  0
M  END
