piperidine-amides-23990-covalent
     RDKit          3D

 23 26  0  0  0  0  0  0  0  0999 V2000
    7.0810   -3.3690   19.3850 C   0  0  0  0  0  0  0  0  0  0  0  0
    6.4330   -4.2390   20.3830 C   0  0  0  0  0  0  0  0  0  0  0  0
    5.4140   -4.8640   19.9950 O   0  0  0  0  0  0  0  0  0  0  0  0
    6.9750   -4.4020   21.6930 N   0  0  0  0  0  0  0  0  0  0  0  0
    6.4980   -5.4630   22.5040 C   0  0  0  0  0  0  0  0  0  0  0  0
    5.9420   -5.0550   23.8080 C   0  0  0  0  0  0  0  0  0  0  0  0
    6.3200   -3.7240   24.3730 C   0  0  0  0  0  0  0  0  0  0  0  0
    5.2340   -3.2230   25.3080 C   0  0  0  0  0  0  0  0  0  0  0  0
    4.1580   -2.8790   24.8030 O   0  0  0  0  0  0  0  0  0  0  0  0
    5.3510   -3.1270   26.7280 N   0  0  0  0  0  0  0  0  0  0  0  0
    4.3570   -2.8320   27.6770 C   0  0  0  0  0  0  0  0  0  0  0  0
    4.5470   -3.2220   29.0750 C   0  0  0  0  0  0  0  0  0  0  0  0
    5.2960   -4.5430   29.0760 C   0  0  0  0  0  0  0  0  0  0  0  0
    6.3310   -4.6040   28.1710 C   0  0  0  0  0  0  0  0  0  0  0  0
    6.9960   -6.2940   28.4270 S   0  0  0  0  0  0  0  0  0  0  0  0
    5.8220   -6.6850   29.6920 C   0  0  0  0  0  0  0  0  0  0  0  0
    5.5450   -7.7820   30.5070 N   0  0  0  0  0  0  0  0  0  0  0  0
    4.4090   -7.1150   31.1820 C   0  0  0  0  0  0  0  0  0  0  0  0
    4.1730   -5.8350   30.7380 N   0  0  0  0  0  0  0  0  0  0  0  0
    5.1030   -5.6460   29.8080 N   0  0  0  0  0  0  0  0  0  0  0  0
    6.5780   -3.3960   27.3140 C   0  0  0  0  0  0  0  0  0  0  0  0
    6.7080   -2.6790   23.3480 C   0  0  0  0  0  0  0  0  0  0  0  0
    7.6600   -3.3220   22.3560 C   0  0  0  0  0  0  0  0  0  0  0  0
  1  2  1  0
  2  3  2  0
  2  4  1  0
  4  5  1  0
  5  6  1  0
  6  7  1  0
  7  8  1  0
  8  9  2  0
  8 10  1  0
 10 11  1  0
 11 12  1  0
 12 13  1  0
 13 14  2  0
 14 15  1  0
 15 16  1  0
 16 17  2  0
 17 18  1  0
 18 19  2  0
 13 20  1  0
 16 20  1  0
 19 20  1  0
 10 21  1  0
 14 21  1  0
  7 22  1  0
  4 23  1  0
 22 23  1  0
M  END
