piperidine-amides-31562-covalent
     RDKit          3D

 26 27  0  0  0  0  0  0  0  0999 V2000
    7.1840   -3.2550   19.2930 C   0  0  0  0  0  0  0  0  0  0  0  0
    6.3890   -4.0040   20.2420 C   0  0  0  0  0  0  0  0  0  0  0  0
    5.2880   -4.5140   19.8630 O   0  0  0  0  0  0  0  0  0  0  0  0
    6.8100   -4.2240   21.5570 N   0  0  0  0  0  0  0  0  0  0  0  0
    7.7660   -3.2380   22.1350 C   0  0  0  0  0  0  0  0  0  0  0  0
    7.0230   -2.8590   23.4610 C   0  0  0  0  0  0  0  0  0  0  0  0
    5.8390   -3.7910   23.4850 C   0  0  0  0  0  0  0  0  0  0  0  0
    4.8070   -3.4610   24.6330 C   0  0  0  0  0  0  0  0  0  0  0  0
    3.7440   -4.0310   24.4810 O   0  0  0  0  0  0  0  0  0  0  0  0
    5.3700   -2.6770   25.4120 N   0  0  0  0  0  0  0  0  0  0  0  0
    5.6660   -1.5120   26.0380 C   0  0  0  0  0  0  0  0  0  0  0  0
    6.3360   -1.3070   27.1450 C   0  0  0  0  0  0  0  0  0  0  0  0
    6.9710   -2.4700   27.4060 C   0  0  0  0  0  0  0  0  0  0  0  0
    7.8340   -2.7930   28.4950 C   0  0  0  0  0  0  0  0  0  0  0  0
    8.4310   -4.4560   28.4530 Cl  0  0  0  0  0  0  0  0  0  0  0  0
    8.0160   -1.5380   29.4630 C   0  0  0  0  0  0  0  0  0  0  0  0
    7.2660   -0.4260   29.0250 C   0  0  0  0  0  0  0  0  0  0  0  0
    6.4600   -0.2960   27.9240 C   0  0  0  0  0  0  0  0  0  0  0  0
    5.7920    0.8650   27.6360 F   0  0  0  0  0  0  0  0  0  0  0  0
    6.3030   -3.4710   26.2200 C   0  0  0  0  0  0  0  0  0  0  0  0
    5.5940   -4.4690   27.2310 C   0  0  2  0  0  0  0  0  0  0  0  0
    6.0590   -4.5130   28.3960 O   0  0  0  0  0  0  0  0  0  0  0  0
    5.7350   -5.7980   26.9190 C   0  0  0  0  0  0  0  0  0  0  0  0
    4.7380   -6.6910   27.2090 O   0  0  0  0  0  0  0  0  0  0  0  0
    6.1760   -5.2670   23.4000 C   0  0  0  0  0  0  0  0  0  0  0  0
    6.6310   -5.5240   22.1540 C   0  0  0  0  0  0  0  0  0  0  0  0
  1  2  1  0
  2  3  2  0
  2  4  1  0
  4  5  1  0
  5  6  1  0
  6  7  1  0
  7  8  1  0
  8  9  2  0
  8 10  1  0
 10 11  1  0
 11 12  1  0
 12 13  2  0
 13 14  1  0
 14 15  1  0
 14 16  2  0
 16 17  1  0
 12 18  1  0
 17 18  2  0
 18 19  1  0
 10 20  1  0
 20 21  1  0
 21 22  1  1
 21 23  1  0
 23 24  1  0
  7 25  1  0
  4 26  1  0
 25 26  1  0
M  END
