piperidine-amides-30327-covalent
     RDKit          3D

 26 28  0  0  0  0  0  0  0  0999 V2000
    7.0720   -3.3320   19.3670 C   0  0  0  0  0  0  0  0  0  0  0  0
    6.3950   -4.1820   20.3410 C   0  0  0  0  0  0  0  0  0  0  0  0
    5.4090   -4.8350   19.9880 O   0  0  0  0  0  0  0  0  0  0  0  0
    6.8930   -4.2950   21.6920 N   0  0  0  0  0  0  0  0  0  0  0  0
    6.6290   -5.4920   22.4610 C   0  0  0  0  0  0  0  0  0  0  0  0
    6.2190   -5.1610   23.8760 C   0  0  0  0  0  0  0  0  0  0  0  0
    6.1270   -3.6480   24.0070 C   0  0  0  0  0  0  0  0  0  0  0  0
    5.5660   -3.2080   25.3220 C   0  0  0  0  0  0  0  0  0  0  0  0
    4.3350   -3.1090   25.4600 O   0  0  0  0  0  0  0  0  0  0  0  0
    6.3730   -2.8800   26.4510 N   0  0  0  0  0  0  0  0  0  0  0  0
    6.2460   -3.8380   27.5340 C   0  0  0  0  0  0  0  0  0  0  0  0
    4.8870   -3.6420   28.1520 C   0  0  0  0  0  0  0  0  0  0  0  0
    3.7650   -4.3220   27.6640 C   0  0  0  0  0  0  0  0  0  0  0  0
    2.4900   -4.1460   28.2380 C   0  0  0  0  0  0  0  0  0  0  0  0
    2.3490   -3.2890   29.2970 C   0  0  0  0  0  0  0  0  0  0  0  0
    3.5120   -2.5980   29.7850 C   0  0  0  0  0  0  0  0  0  0  0  0
    4.7390   -2.7800   29.2190 C   0  0  0  0  0  0  0  0  0  0  0  0
    6.4330   -1.4790   26.8720 C   0  0  2  0  0  0  0  0  0  0  0  0
    6.8450   -1.2250   28.1770 C   0  0  0  0  0  0  0  0  0  0  0  0
    6.7180   -0.0790   29.1140 C   0  0  0  0  0  0  0  0  0  0  0  0
    5.9040    0.6130   27.7550 S   0  0  0  0  0  0  0  0  0  0  0  0
    4.7190    1.3400   28.2980 O   0  0  0  0  0  0  0  0  0  0  0  0
    6.6920    1.6160   26.9940 O   0  0  0  0  0  0  0  0  0  0  0  0
    5.3370   -0.7120   26.7320 C   0  0  0  0  0  0  0  0  0  0  0  0
    7.4400   -3.0210   23.6800 C   0  0  0  0  0  0  0  0  0  0  0  0
    7.6800   -3.2180   22.2230 C   0  0  0  0  0  0  0  0  0  0  0  0
  1  2  1  0
  2  3  2  0
  2  4  1  0
  4  5  1  0
  5  6  1  0
  6  7  1  0
  7  8  1  0
  8  9  2  0
  8 10  1  0
 10 11  1  0
 11 12  1  0
 12 13  2  0
 13 14  1  0
 14 15  2  0
 15 16  1  0
 12 17  1  0
 16 17  2  0
 18 10  1  1
 18 19  1  0
 19 20  2  0
 21 20  1  0
 21 22  2  0
 21 23  2  0
 18 24  1  0
 21 24  1  0
  7 25  1  0
  4 26  1  0
 25 26  1  0
M  END
