piperidine-amides-5021-covalent
     RDKit          3D

 22 23  0  0  0  0  0  0  0  0999 V2000
    7.0620   -3.2660   19.1470 C   0  0  0  0  0  0  0  0  0  0  0  0
    6.2590   -4.0240   20.1380 C   0  0  0  0  0  0  0  0  0  0  0  0
    5.1330   -4.3880   19.7810 O   0  0  0  0  0  0  0  0  0  0  0  0
    6.7590   -4.3660   21.3920 N   0  0  0  0  0  0  0  0  0  0  0  0
    7.3060   -3.3470   22.1900 C   0  0  0  0  0  0  0  0  0  0  0  0
    6.3470   -2.8740   23.1700 C   0  0  0  0  0  0  0  0  0  0  0  0
    5.3710   -3.9130   23.5560 C   0  0  0  0  0  0  0  0  0  0  0  0
    4.9170   -3.7450   24.9490 C   0  0  0  0  0  0  0  0  0  0  0  0
    4.4830   -2.6370   25.3170 O   0  0  0  0  0  0  0  0  0  0  0  0
    4.9880   -4.8310   25.8410 N   0  0  0  0  0  0  0  0  0  0  0  0
    6.0130   -4.8060   26.8670 C   0  0  1  0  0  0  0  0  0  0  0  0
    6.6290   -6.1000   27.2460 C   0  0  0  0  0  0  0  0  0  0  0  0
    7.0020   -3.8600   26.4280 C   0  0  0  0  0  0  0  0  0  0  0  0
    7.6230   -3.8720   25.1800 C   0  0  0  0  0  0  0  0  0  0  0  0
    8.5580   -2.9430   24.7830 C   0  0  0  0  0  0  0  0  0  0  0  0
    9.5760   -2.6790   22.9440 I   0  0  0  0  0  0  0  0  0  0  0  0
    8.8700   -2.0570   25.6650 C   0  0  0  0  0  0  0  0  0  0  0  0
    8.2760   -2.0160   26.8900 C   0  0  0  0  0  0  0  0  0  0  0  0
    7.3550   -2.8780   27.2590 C   0  0  0  0  0  0  0  0  0  0  0  0
    6.4930   -2.7570   28.9420 Br  0  0  0  0  0  0  0  0  0  0  0  0
    5.8940   -5.3260   23.3890 C   0  0  0  0  0  0  0  0  0  0  0  0
    6.4290   -5.6150   22.0300 C   0  0  0  0  0  0  0  0  0  0  0  0
  1  2  1  0
  2  3  2  0
  2  4  1  0
  4  5  1  0
  5  6  1  0
  6  7  1  0
  7  8  1  0
  8  9  2  0
  8 10  1  0
 10 11  1  0
 11 12  1  6
 11 13  1  0
 13 14  2  0
 14 15  1  0
 15 16  1  0
 15 17  2  0
 17 18  1  0
 13 19  1  0
 18 19  2  0
 19 20  1  0
  7 21  1  0
  4 22  1  0
 21 22  1  0
M  END
