piperidine-amides-5189-covalent
     RDKit          3D

 20 20  0  0  0  0  0  0  0  0999 V2000
    7.1180   -3.2630   19.1250 C   0  0  0  0  0  0  0  0  0  0  0  0
    6.3480   -3.9670   20.1770 C   0  0  0  0  0  0  0  0  0  0  0  0
    5.2530   -4.4480   19.8370 O   0  0  0  0  0  0  0  0  0  0  0  0
    6.8620   -4.1290   21.4710 N   0  0  0  0  0  0  0  0  0  0  0  0
    7.5780   -3.0420   22.0540 C   0  0  0  0  0  0  0  0  0  0  0  0
    7.1370   -2.6920   23.4040 C   0  0  0  0  0  0  0  0  0  0  0  0
    6.5340   -3.8090   24.1620 C   0  0  0  0  0  0  0  0  0  0  0  0
    5.8450   -3.2780   25.3730 C   0  0  0  0  0  0  0  0  0  0  0  0
    4.7390   -2.7270   25.2150 O   0  0  0  0  0  0  0  0  0  0  0  0
    6.4010   -3.3890   26.6710 N   0  0  0  0  0  0  0  0  0  0  0  0
    5.8530   -4.2940   27.7170 C   0  0  2  0  0  0  0  0  0  0  0  0
    6.9030   -4.9370   28.5650 C   0  0  0  0  0  0  0  0  0  0  0  0
    6.1200   -6.1200   28.5380 N   0  0  0  0  0  0  0  0  0  0  0  0
    7.4330   -5.8650   29.2170 O   0  0  0  0  0  0  0  0  0  0  0  0
    4.9470   -5.2980   27.1220 C   0  0  0  0  0  0  0  0  0  0  0  0
    5.6370   -6.3120   26.5180 F   0  0  0  0  0  0  0  0  0  0  0  0
    4.1610   -4.7100   26.1340 F   0  0  0  0  0  0  0  0  0  0  0  0
    4.0740   -5.7650   28.0580 F   0  0  0  0  0  0  0  0  0  0  0  0
    5.6750   -4.6940   23.3550 C   0  0  0  0  0  0  0  0  0  0  0  0
    6.3120   -5.2030   22.2420 C   0  0  0  0  0  0  0  0  0  0  0  0
  1  2  1  0
  2  3  2  0
  2  4  1  0
  4  5  1  0
  5  6  1  0
  6  7  1  0
  7  8  1  0
  8  9  2  0
  8 10  1  0
 11 10  1  6
 11 12  1  0
 12 13  1  0
 12 14  2  0
 11 15  1  0
 15 16  1  0
 15 17  1  0
 15 18  1  0
  7 19  1  0
  4 20  1  0
 19 20  1  0
M  END
