piperidine-amides-2999-covalent
     RDKit          3D

 23 24  0  0  0  0  0  0  0  0999 V2000
    7.1050   -3.2750   19.1780 C   0  0  0  0  0  0  0  0  0  0  0  0
    6.3420   -4.0120   20.1840 C   0  0  0  0  0  0  0  0  0  0  0  0
    5.2810   -4.5510   19.8820 O   0  0  0  0  0  0  0  0  0  0  0  0
    6.8470   -4.1610   21.5150 N   0  0  0  0  0  0  0  0  0  0  0  0
    7.7160   -3.1540   22.0670 C   0  0  0  0  0  0  0  0  0  0  0  0
    7.3120   -2.7290   23.4510 C   0  0  0  0  0  0  0  0  0  0  0  0
    6.1910   -3.6050   23.9880 C   0  0  0  0  0  0  0  0  0  0  0  0
    6.1310   -3.3860   25.4470 C   0  0  0  0  0  0  0  0  0  0  0  0
    5.0810   -3.0500   26.0260 O   0  0  0  0  0  0  0  0  0  0  0  0
    7.3470   -3.5660   26.1590 N   0  0  0  0  0  0  0  0  0  0  0  0
    7.3500   -3.5510   27.5980 C   0  0  0  0  0  0  0  0  0  0  0  0
    7.3240   -4.9790   28.0840 C   0  0  0  0  0  0  0  0  0  0  0  0
    6.2780   -5.3500   28.9100 C   0  0  0  0  0  0  0  0  0  0  0  0
    6.1340   -6.6290   29.4630 C   0  0  0  0  0  0  0  0  0  0  0  0
    5.0680   -6.9330   30.2800 C   0  0  0  0  0  0  0  0  0  0  0  0
    4.0680   -5.9280   30.5860 C   0  0  0  0  0  0  0  0  0  0  0  0
    2.9610   -6.1090   31.3860 C   0  0  0  0  0  0  0  0  0  0  0  0
    1.7770   -6.3550   30.7980 F   0  0  0  0  0  0  0  0  0  0  0  0
    3.1990   -7.1680   32.2250 F   0  0  0  0  0  0  0  0  0  0  0  0
    4.2910   -4.7280   30.0070 C   0  0  0  0  0  0  0  0  0  0  0  0
    5.3310   -4.2950   29.1620 N   0  0  0  0  0  0  0  0  0  0  0  0
    6.2130   -5.0470   23.6290 C   0  0  0  0  0  0  0  0  0  0  0  0
    6.5170   -5.3310   22.2350 C   0  0  0  0  0  0  0  0  0  0  0  0
  1  2  1  0
  2  3  2  0
  2  4  1  0
  4  5  1  0
  5  6  1  0
  6  7  1  0
  7  8  1  0
  8  9  2  0
  8 10  1  0
 10 11  1  0
 11 12  1  0
 12 13  1  0
 13 14  2  0
 14 15  1  0
 15 16  2  0
 16 17  1  0
 17 18  1  0
 17 19  1  0
 16 20  1  0
 13 21  1  0
 20 21  2  0
  7 22  1  0
  4 23  1  0
 22 23  1  0
M  END
