piperidine-amides-31490-covalent
     RDKit          3D

 27 28  0  0  0  0  0  0  0  0999 V2000
    7.0180   -3.4060   19.3410 C   0  0  0  0  0  0  0  0  0  0  0  0
    6.3750   -4.1780   20.3850 C   0  0  0  0  0  0  0  0  0  0  0  0
    5.4170   -4.9300   20.0120 O   0  0  0  0  0  0  0  0  0  0  0  0
    6.7790   -4.1720   21.7470 N   0  0  0  0  0  0  0  0  0  0  0  0
    7.6970   -3.0540   22.1520 C   0  0  0  0  0  0  0  0  0  0  0  0
    7.6860   -3.1110   23.7280 C   0  0  0  0  0  0  0  0  0  0  0  0
    6.3160   -3.6180   24.0450 C   0  0  0  0  0  0  0  0  0  0  0  0
    5.5590   -2.9050   25.2640 C   0  0  0  0  0  0  0  0  0  0  0  0
    4.6380   -2.2550   24.7890 O   0  0  0  0  0  0  0  0  0  0  0  0
    6.0360   -3.1700   26.4300 N   0  0  0  0  0  0  0  0  0  0  0  0
    6.3090   -3.8400   27.5980 C   0  0  0  0  0  0  0  0  0  0  0  0
    6.3260   -5.1460   28.0380 C   0  0  1  0  0  0  0  0  0  0  0  0
    6.9960   -5.2430   29.2600 O   0  0  0  0  0  0  0  0  0  0  0  0
    5.0320   -5.6460   28.3530 C   0  0  0  0  0  0  0  0  0  0  0  0
    4.1290   -4.6640   28.8040 F   0  0  0  0  0  0  0  0  0  0  0  0
    5.1490   -6.5150   29.4880 F   0  0  0  0  0  0  0  0  0  0  0  0
    4.4480   -6.3290   27.3360 F   0  0  0  0  0  0  0  0  0  0  0  0
    6.2890   -1.8930   27.2120 C   0  0  0  0  0  0  0  0  0  0  0  0
    5.6630   -0.6590   26.4490 C   0  0  0  0  0  0  0  0  0  0  0  0
    5.8890    0.5240   27.2060 C   0  0  0  0  0  0  0  0  0  0  0  0
    6.5730    0.4580   28.4090 C   0  0  0  0  0  0  0  0  0  0  0  0
    6.4220    1.9690   28.5990 C   0  0  0  0  0  0  0  0  0  0  0  0
    6.0460    2.2570   30.0880 C   0  0  0  0  0  0  0  0  0  0  0  0
    7.1350   -0.6920   29.0630 C   0  0  0  0  0  0  0  0  0  0  0  0
    6.9750   -1.8730   28.4290 C   0  0  0  0  0  0  0  0  0  0  0  0
    6.1580   -5.1040   23.8030 C   0  0  0  0  0  0  0  0  0  0  0  0
    6.6810   -5.3820   22.5510 C   0  0  0  0  0  0  0  0  0  0  0  0
  1  2  1  0
  2  3  2  0
  2  4  1  0
  4  5  1  0
  5  6  1  0
  6  7  1  0
  7  8  1  0
  8  9  2  0
  8 10  1  0
 10 11  1  0
 11 12  1  0
 12 13  1  1
 12 14  1  0
 14 15  1  0
 14 16  1  0
 14 17  1  0
 10 18  1  0
 18 19  2  0
 19 20  1  0
 20 21  2  0
 21 22  1  0
 22 23  1  0
 21 24  1  0
 18 25  1  0
 24 25  2  0
  7 26  1  0
  4 27  1  0
 26 27  1  0
M  END
