piperidine-amides-7298-covalent
     RDKit          3D

 20 21  0  0  0  0  0  0  0  0999 V2000
    7.0260   -3.3600   19.3570 C   0  0  0  0  0  0  0  0  0  0  0  0
    6.2870   -4.1690   20.3330 C   0  0  0  0  0  0  0  0  0  0  0  0
    5.2410   -4.7200   19.9240 O   0  0  0  0  0  0  0  0  0  0  0  0
    6.7650   -4.3420   21.6300 N   0  0  0  0  0  0  0  0  0  0  0  0
    7.6470   -3.3750   22.2240 C   0  0  0  0  0  0  0  0  0  0  0  0
    7.1100   -3.0460   23.5710 C   0  0  0  0  0  0  0  0  0  0  0  0
    5.8720   -3.8140   23.9150 C   0  0  0  0  0  0  0  0  0  0  0  0
    5.4020   -3.5200   25.3020 C   0  0  0  0  0  0  0  0  0  0  0  0
    4.1680   -3.5410   25.4950 O   0  0  0  0  0  0  0  0  0  0  0  0
    6.2280   -3.1980   26.4060 N   0  0  0  0  0  0  0  0  0  0  0  0
    6.6330   -1.8270   26.6090 C   0  0  2  0  0  0  0  0  0  0  0  0
    7.2570   -1.5330   25.2570 C   0  0  0  0  0  0  0  0  0  0  0  0
    8.5420   -1.9630   25.0000 C   0  0  0  0  0  0  0  0  0  0  0  0
    9.1340   -1.5310   23.8240 C   0  0  0  0  0  0  0  0  0  0  0  0
    7.5250   -1.8440   27.8390 C   0  0  0  0  0  0  0  0  0  0  0  0
    6.9590   -1.0450   28.8120 C   0  0  0  0  0  0  0  0  0  0  0  0
    5.8710   -0.3870   28.2940 O   0  0  0  0  0  0  0  0  0  0  0  0
    5.7400   -0.8160   26.9550 C   0  0  0  0  0  0  0  0  0  0  0  0
    6.1140   -5.3160   23.7510 C   0  0  0  0  0  0  0  0  0  0  0  0
    6.5520   -5.5970   22.3080 C   0  0  0  0  0  0  0  0  0  0  0  0
  1  2  1  0
  2  3  2  0
  2  4  1  0
  4  5  1  0
  5  6  1  0
  6  7  1  0
  7  8  1  0
  8  9  2  0
  8 10  1  0
 11 10  1  0
 11 12  1  6
 12 13  1  0
 13 14  1  0
 11 15  1  0
 15 16  1  0
 16 17  1  0
 11 18  1  0
 17 18  1  0
  7 19  1  0
  4 20  1  0
 19 20  1  0
M  END
