piperidine-amides-24064-covalent
     RDKit          3D

 24 26  0  0  0  0  0  0  0  0999 V2000
    7.0310   -3.3450   19.3490 C   0  0  0  0  0  0  0  0  0  0  0  0
    6.3400   -4.1920   20.3350 C   0  0  0  0  0  0  0  0  0  0  0  0
    5.3250   -4.8140   19.9560 O   0  0  0  0  0  0  0  0  0  0  0  0
    6.8330   -4.3270   21.6510 N   0  0  0  0  0  0  0  0  0  0  0  0
    6.2780   -5.3750   22.4280 C   0  0  0  0  0  0  0  0  0  0  0  0
    5.3520   -4.9190   23.4730 C   0  0  0  0  0  0  0  0  0  0  0  0
    5.5050   -3.5020   23.9240 C   0  0  0  0  0  0  0  0  0  0  0  0
    4.9420   -3.2680   25.3330 C   0  0  0  0  0  0  0  0  0  0  0  0
    4.1650   -2.3360   25.5640 O   0  0  0  0  0  0  0  0  0  0  0  0
    5.3450   -4.1360   26.3520 N   0  0  0  0  0  0  0  0  0  0  0  0
    4.6670   -4.5420   27.5150 C   0  0  0  0  0  0  0  0  0  0  0  0
    5.3610   -4.4870   28.7710 C   0  0  0  0  0  0  0  0  0  0  0  0
    6.7390   -3.9700   28.4050 C   0  0  0  0  0  0  0  0  0  0  0  0
    7.1110   -4.6850   27.1800 N   0  0  0  0  0  0  0  0  0  0  0  0
    8.3740   -5.3310   27.0180 N   0  0  0  0  0  0  0  0  0  0  0  0
    8.5560   -5.9300   25.7790 C   0  0  0  0  0  0  0  0  0  0  0  0
    9.8370   -6.0160   26.4720 C   0  0  0  0  0  0  0  0  0  0  0  0
    9.7980   -6.0490   27.8470 O   0  0  0  0  0  0  0  0  0  0  0  0
   10.9950   -5.8560   25.7070 O   0  0  0  0  0  0  0  0  0  0  0  0
   11.7980   -4.8690   26.1520 C   0  0  0  0  0  0  0  0  0  0  0  0
    7.5950   -5.2590   26.3830 C   0  0  0  0  0  0  0  0  0  0  0  0
    6.3970   -4.8940   25.9320 C   0  0  0  0  0  0  0  0  0  0  0  0
    6.9520   -3.0940   23.7360 C   0  0  0  0  0  0  0  0  0  0  0  0
    7.3380   -3.1350   22.2530 C   0  0  0  0  0  0  0  0  0  0  0  0
  1  2  1  0
  2  3  2  0
  2  4  1  0
  4  5  1  0
  5  6  1  0
  6  7  1  0
  7  8  1  0
  8  9  2  0
  8 10  1  0
 10 11  1  0
 11 12  1  0
 12 13  1  0
 13 14  1  0
 14 15  1  0
 15 16  2  0
 16 17  1  0
 17 18  2  0
 17 19  1  0
 19 20  1  0
 16 21  1  0
 10 22  1  0
 14 22  1  0
 21 22  2  0
  7 23  1  0
  4 24  1  0
 23 24  1  0
M  END
