piperidine-amides-24358-covalent
     RDKit          3D

 24 26  0  0  0  0  0  0  0  0999 V2000
    7.0680   -3.3410   19.3820 C   0  0  0  0  0  0  0  0  0  0  0  0
    6.4140   -4.2350   20.3480 C   0  0  0  0  0  0  0  0  0  0  0  0
    5.4000   -4.8830   19.9960 O   0  0  0  0  0  0  0  0  0  0  0  0
    6.9470   -4.4160   21.6410 N   0  0  0  0  0  0  0  0  0  0  0  0
    6.5580   -5.5670   22.3930 C   0  0  0  0  0  0  0  0  0  0  0  0
    5.5830   -5.0340   23.4500 C   0  0  0  0  0  0  0  0  0  0  0  0
    6.2910   -3.9860   24.3060 C   0  0  0  0  0  0  0  0  0  0  0  0
    5.2480   -3.3220   25.1470 C   0  0  0  0  0  0  0  0  0  0  0  0
    4.3350   -2.7160   24.5670 O   0  0  0  0  0  0  0  0  0  0  0  0
    5.2820   -3.3670   26.5660 N   0  0  0  0  0  0  0  0  0  0  0  0
    4.1510   -2.9750   27.3700 C   0  0  0  0  0  0  0  0  0  0  0  0
    4.3380   -3.3370   28.8560 C   0  0  0  0  0  0  0  0  0  0  0  0
    5.5240   -3.8070   29.3000 C   0  0  0  0  0  0  0  0  0  0  0  0
    6.2570   -4.2240   28.2900 C   0  0  1  0  0  0  0  0  0  0  0  0
    5.7850   -5.4010   27.6870 C   0  0  0  0  0  0  0  0  0  0  0  0
    5.8270   -5.6590   26.3550 O   0  0  0  0  0  0  0  0  0  0  0  0
    5.3010   -6.1650   28.6490 N   0  0  0  0  0  0  0  0  0  0  0  0
    4.3860   -7.2150   28.5290 C   0  0  0  0  0  0  0  0  0  0  0  0
    3.7110   -7.5750   29.8670 C   0  0  0  0  0  0  0  0  0  0  0  0
    5.2380   -7.5920   30.1570 C   0  0  0  0  0  0  0  0  0  0  0  0
    6.0020   -6.3760   29.8270 C   0  0  0  0  0  0  0  0  0  0  0  0
    6.3660   -3.1970   27.3920 C   0  0  0  0  0  0  0  0  0  0  0  0
    6.9480   -2.9130   23.4610 C   0  0  0  0  0  0  0  0  0  0  0  0
    7.5680   -3.3230   22.3080 C   0  0  0  0  0  0  0  0  0  0  0  0
  1  2  1  0
  2  3  2  0
  2  4  1  0
  4  5  1  0
  5  6  1  0
  6  7  1  0
  7  8  1  0
  8  9  2  0
  8 10  1  0
 10 11  1  0
 11 12  1  0
 12 13  1  0
 13 14  1  0
 14 15  1  6
 15 16  2  0
 15 17  1  0
 17 18  1  0
 18 19  1  0
 19 20  1  0
 17 21  1  0
 20 21  1  0
 10 22  1  0
 14 22  1  0
  7 23  1  0
  4 24  1  0
 23 24  1  0
M  END
