piperidine-amides-19271-covalent
     RDKit          3D

 22 23  0  0  0  0  0  0  0  0999 V2000
    7.1250   -3.3400   19.4370 C   0  0  0  0  0  0  0  0  0  0  0  0
    6.3930   -4.1340   20.4030 C   0  0  0  0  0  0  0  0  0  0  0  0
    5.4180   -4.8390   19.9830 O   0  0  0  0  0  0  0  0  0  0  0  0
    6.7510   -4.1630   21.7720 N   0  0  0  0  0  0  0  0  0  0  0  0
    7.7350   -3.1190   22.2030 C   0  0  0  0  0  0  0  0  0  0  0  0
    7.6070   -3.1460   23.7720 C   0  0  0  0  0  0  0  0  0  0  0  0
    6.2150   -3.6450   23.9870 C   0  0  0  0  0  0  0  0  0  0  0  0
    5.4560   -3.0070   25.2400 C   0  0  0  0  0  0  0  0  0  0  0  0
    4.7480   -2.1000   24.8430 O   0  0  0  0  0  0  0  0  0  0  0  0
    5.7440   -3.5810   26.3440 N   0  0  0  0  0  0  0  0  0  0  0  0
    5.7570   -4.5330   27.3270 C   0  0  0  0  0  0  0  0  0  0  0  0
    6.3900   -4.7720   28.5240 C   0  0  0  0  0  0  0  0  0  0  0  0
    6.2410   -2.4090   27.0550 C   0  0  0  0  0  0  0  0  0  0  0  0
    5.3050   -1.6760   27.9230 C   0  0  0  0  0  0  0  0  0  0  0  0
    3.9370   -1.6550   27.3770 C   0  0  0  0  0  0  0  0  0  0  0  0
    3.1910   -0.9100   28.3580 C   0  0  0  0  0  0  0  0  0  0  0  0
    3.4070   -0.2220   29.6490 C   0  0  0  0  0  0  0  0  0  0  0  0
    4.9410   -0.4400   29.9240 C   0  0  0  0  0  0  0  0  0  0  0  0
    5.9710   -1.1880   29.0570 C   0  0  0  0  0  0  0  0  0  0  0  0
    7.3040   -1.3640   29.3200 C   0  0  0  0  0  0  0  0  0  0  0  0
    6.0430   -5.1300   23.7450 C   0  0  0  0  0  0  0  0  0  0  0  0
    6.6060   -5.3980   22.5280 C   0  0  0  0  0  0  0  0  0  0  0  0
  1  2  1  0
  2  3  2  0
  2  4  1  0
  4  5  1  0
  5  6  1  0
  6  7  1  0
  7  8  1  0
  8  9  2  0
  8 10  1  0
 10 11  1  0
 11 12  1  0
 10 13  1  0
 13 14  1  0
 14 15  2  0
 15 16  1  0
 16 17  2  0
 17 18  1  0
 14 19  1  0
 18 19  2  0
 19 20  1  0
  7 21  1  0
  4 22  1  0
 21 22  1  0
M  END
