piperidine-amides-1641-covalent
     RDKit          3D

 21 21  0  0  0  0  0  0  0  0999 V2000
    7.1330   -3.2820   19.2580 C   0  0  0  0  0  0  0  0  0  0  0  0
    6.3340   -4.0530   20.2450 C   0  0  0  0  0  0  0  0  0  0  0  0
    5.2620   -4.5560   19.8870 O   0  0  0  0  0  0  0  0  0  0  0  0
    6.8440   -4.2430   21.5410 N   0  0  0  0  0  0  0  0  0  0  0  0
    6.5980   -5.4370   22.3050 C   0  0  0  0  0  0  0  0  0  0  0  0
    5.7960   -5.0090   23.5410 C   0  0  0  0  0  0  0  0  0  0  0  0
    6.5430   -3.9070   24.2220 C   0  0  0  0  0  0  0  0  0  0  0  0
    5.8340   -3.4000   25.4130 C   0  0  0  0  0  0  0  0  0  0  0  0
    4.7300   -2.8850   25.2150 O   0  0  0  0  0  0  0  0  0  0  0  0
    6.4140   -3.5280   26.6770 N   0  0  0  0  0  0  0  0  0  0  0  0
    6.8270   -4.7320   27.3080 C   0  0  0  0  0  0  0  0  0  0  0  0
    5.9890   -5.7390   27.6790 C   0  0  0  0  0  0  0  0  0  0  0  0
    5.9930   -6.1760   29.0110 C   0  0  0  0  0  0  0  0  0  0  0  0
    4.8140   -6.5200   29.6280 C   0  0  0  0  0  0  0  0  0  0  0  0
    3.8690   -7.4570   28.9680 C   0  0  0  0  0  0  0  0  0  0  0  0
    2.6450   -6.8330   28.6470 N   0  0  0  0  0  0  0  0  0  0  0  0
    2.4360   -6.3240   27.3200 C   0  0  0  0  0  0  0  0  0  0  0  0
    1.7120   -6.5380   29.6780 C   0  0  0  0  0  0  0  0  0  0  0  0
    1.2970   -7.6730   30.3380 C   0  0  0  0  0  0  0  0  0  0  0  0
    6.8310   -2.7370   23.3430 C   0  0  0  0  0  0  0  0  0  0  0  0
    7.6380   -3.2050   22.1540 C   0  0  0  0  0  0  0  0  0  0  0  0
  1  2  1  0
  2  3  2  0
  2  4  1  0
  4  5  1  0
  5  6  1  0
  6  7  1  0
  7  8  1  0
  8  9  2  0
  8 10  1  0
 10 11  1  0
 11 12  1  0
 12 13  1  0
 13 14  1  0
 14 15  1  0
 15 16  1  0
 16 17  1  0
 16 18  1  0
 18 19  1  0
  7 20  1  0
  4 21  1  0
 20 21  1  0
M  END
