piperidine-amides-29556-covalent
     RDKit          3D

 27 30  0  0  0  0  0  0  0  0999 V2000
    7.0690   -3.3210   19.3270 C   0  0  0  0  0  0  0  0  0  0  0  0
    6.3610   -4.1500   20.3030 C   0  0  0  0  0  0  0  0  0  0  0  0
    5.3660   -4.7890   19.9640 O   0  0  0  0  0  0  0  0  0  0  0  0
    6.8520   -4.2580   21.6490 N   0  0  0  0  0  0  0  0  0  0  0  0
    7.7190   -3.2220   22.1820 C   0  0  0  0  0  0  0  0  0  0  0  0
    7.4760   -3.0150   23.6460 C   0  0  0  0  0  0  0  0  0  0  0  0
    6.1590   -3.6830   23.9610 C   0  0  0  0  0  0  0  0  0  0  0  0
    5.6240   -3.2560   25.2880 C   0  0  0  0  0  0  0  0  0  0  0  0
    4.7630   -2.3630   25.3770 O   0  0  0  0  0  0  0  0  0  0  0  0
    6.0800   -3.8700   26.4720 N   0  0  0  0  0  0  0  0  0  0  0  0
    6.0460   -5.3540   26.5270 C   0  0  0  0  0  0  0  0  0  0  0  0
    4.7640   -5.9790   27.0770 C   0  0  0  0  0  0  0  0  0  0  0  0
    4.5000   -6.0080   28.4560 C   0  0  1  0  0  0  0  0  0  0  0  0
    5.6050   -6.3900   29.2170 C   0  0  0  0  0  0  0  0  0  0  0  0
    6.4490   -5.2970   29.1150 C   0  0  0  0  0  0  0  0  0  0  0  0
    5.6880   -4.3480   28.3440 C   0  0  2  0  0  0  0  0  0  0  0  0
    5.9570   -3.2200   27.7240 C   0  0  0  0  0  0  0  0  0  0  0  0
    4.4820   -4.6500   28.7130 N   0  0  0  0  0  0  0  0  0  0  0  0
    3.4350   -4.0630   27.9230 C   0  0  0  0  0  0  0  0  0  0  0  0
    3.0080   -2.8700   28.5090 C   0  0  0  0  0  0  0  0  0  0  0  0
    3.8160   -2.1350   29.5380 C   0  0  0  0  0  0  0  0  0  0  0  0
    3.4880   -0.9350   30.1860 C   0  0  0  0  0  0  0  0  0  0  0  0
    2.3020   -0.2980   29.8980 C   0  0  0  0  0  0  0  0  0  0  0  0
    1.4030   -0.8980   28.9100 C   0  0  0  0  0  0  0  0  0  0  0  0
    1.7980   -2.1980   28.2310 C   0  0  0  0  0  0  0  0  0  0  0  0
    6.2470   -5.1600   23.7390 C   0  0  0  0  0  0  0  0  0  0  0  0
    6.6910   -5.5090   22.3580 C   0  0  0  0  0  0  0  0  0  0  0  0
  1  2  1  0
  2  3  2  0
  2  4  1  0
  4  5  1  0
  5  6  1  0
  6  7  1  0
  7  8  1  0
  8  9  2  0
  8 10  1  0
 10 11  1  0
 11 12  1  0
 13 12  1  6
 13 14  1  0
 14 15  1  0
 16 15  1  1
 10 17  1  0
 16 17  1  0
 13 18  1  0
 16 18  1  0
 18 19  1  0
 19 20  1  0
 20 21  2  0
 21 22  1  0
 22 23  2  0
 23 24  1  0
 20 25  1  0
 24 25  2  0
  7 26  1  0
  4 27  1  0
 26 27  1  0
M  END
