piperidine-amides-1667-covalent
     RDKit          3D

 20 21  0  0  0  0  0  0  0  0999 V2000
    7.1150   -3.2940   19.2750 C   0  0  0  0  0  0  0  0  0  0  0  0
    6.3250   -4.0750   20.2640 C   0  0  0  0  0  0  0  0  0  0  0  0
    5.2610   -4.5920   19.8980 O   0  0  0  0  0  0  0  0  0  0  0  0
    6.8280   -4.2590   21.5720 N   0  0  0  0  0  0  0  0  0  0  0  0
    6.5750   -5.4620   22.3200 C   0  0  0  0  0  0  0  0  0  0  0  0
    5.7600   -5.0410   23.5450 C   0  0  0  0  0  0  0  0  0  0  0  0
    6.4590   -3.8820   24.1830 C   0  0  0  0  0  0  0  0  0  0  0  0
    5.6860   -3.3080   25.3160 C   0  0  0  0  0  0  0  0  0  0  0  0
    4.7410   -2.5790   25.0000 O   0  0  0  0  0  0  0  0  0  0  0  0
    6.0110   -3.5820   26.6610 N   0  0  0  0  0  0  0  0  0  0  0  0
    5.9730   -4.8420   27.3280 C   0  0  0  0  0  0  0  0  0  0  0  0
    4.8750   -5.4640   27.8680 C   0  0  1  0  0  0  0  0  0  0  0  0
    4.3240   -6.1320   26.6950 O   0  0  0  0  0  0  0  0  0  0  0  0
    3.5590   -7.2600   26.9410 C   0  0  0  0  0  0  0  0  0  0  0  0
    5.2640   -6.5960   28.7980 C   0  0  0  0  0  0  0  0  0  0  0  0
    4.2020   -6.5930   29.8120 C   0  0  0  0  0  0  0  0  0  0  0  0
    3.3970   -5.5150   29.5460 O   0  0  0  0  0  0  0  0  0  0  0  0
    3.8190   -4.7250   28.4380 C   0  0  0  0  0  0  0  0  0  0  0  0
    6.8060   -2.7490   23.2530 C   0  0  0  0  0  0  0  0  0  0  0  0
    7.5760   -3.2120   22.2070 C   0  0  0  0  0  0  0  0  0  0  0  0
  1  2  1  0
  2  3  2  0
  2  4  1  0
  4  5  1  0
  5  6  1  0
  6  7  1  0
  7  8  1  0
  8  9  2  0
  8 10  1  0
 10 11  1  0
 12 11  1  6
 12 13  1  0
 13 14  1  0
 12 15  1  0
 15 16  1  0
 16 17  1  0
 12 18  1  0
 17 18  1  0
  7 19  1  0
  4 20  1  0
 19 20  1  0
M  END
