piperidine-amides-33520-covalent
     RDKit          3D

 25 27  0  0  0  0  0  0  0  0999 V2000
    7.0660   -3.4030   19.3970 C   0  0  0  0  0  0  0  0  0  0  0  0
    6.4070   -4.2530   20.4000 C   0  0  0  0  0  0  0  0  0  0  0  0
    5.4050   -4.8990   20.0020 O   0  0  0  0  0  0  0  0  0  0  0  0
    6.9240   -4.3720   21.7260 N   0  0  0  0  0  0  0  0  0  0  0  0
    6.6020   -5.5380   22.4930 C   0  0  0  0  0  0  0  0  0  0  0  0
    6.0300   -5.1820   23.7810 C   0  0  0  0  0  0  0  0  0  0  0  0
    6.0990   -3.7310   23.9590 C   0  0  0  0  0  0  0  0  0  0  0  0
    5.4650   -3.2080   25.2300 C   0  0  0  0  0  0  0  0  0  0  0  0
    4.7170   -2.2290   25.1270 O   0  0  0  0  0  0  0  0  0  0  0  0
    5.6380   -3.7510   26.5190 N   0  0  0  0  0  0  0  0  0  0  0  0
    6.3790   -3.2810   27.5420 C   0  0  0  0  0  0  0  0  0  0  0  0
    6.7350   -4.3520   28.4690 C   0  0  0  0  0  0  0  0  0  0  0  0
    5.5690   -4.5930   29.4250 C   0  0  0  0  0  0  0  0  0  0  0  0
    4.6410   -3.5860   29.6100 C   0  0  0  0  0  0  0  0  0  0  0  0
    5.6280   -2.4040   29.6830 C   0  0  0  0  0  0  0  0  0  0  0  0
    4.9700   -1.0450   29.9010 C   0  0  0  0  0  0  0  0  0  0  0  0
    3.4220   -1.0850   30.0110 C   0  0  0  0  0  0  0  0  0  0  0  0
    2.5600    0.5920   30.2850 Br  0  0  0  0  0  0  0  0  0  0  0  0
    2.5600   -2.3100   29.9210 C   0  0  0  0  0  0  0  0  0  0  0  0
    3.2970   -3.5800   29.7100 C   0  0  0  0  0  0  0  0  0  0  0  0
    2.5170   -4.6990   29.6320 F   0  0  0  0  0  0  0  0  0  0  0  0
    5.4490   -5.3640   28.1220 C   0  0  0  0  0  0  0  0  0  0  0  0
    4.6660   -4.5930   27.0960 C   0  0  0  0  0  0  0  0  0  0  0  0
    7.4730   -3.2120   23.6960 C   0  0  0  0  0  0  0  0  0  0  0  0
    7.6510   -3.2520   22.3110 C   0  0  0  0  0  0  0  0  0  0  0  0
  1  2  1  0
  2  3  2  0
  2  4  1  0
  4  5  1  0
  5  6  1  0
  6  7  1  0
  7  8  1  0
  8  9  2  0
  8 10  1  0
 10 11  1  0
 11 12  1  0
 12 13  1  0
 13 14  1  0
 14 15  2  0
 15 16  1  0
 16 17  2  0
 17 18  1  0
 17 19  1  0
 14 20  1  0
 19 20  2  0
 20 21  1  0
 13 22  1  0
 10 23  1  0
 22 23  1  0
  7 24  1  0
  4 25  1  0
 24 25  1  0
M  END
