piperidine-amides-14506-covalent
     RDKit          3D

 23 25  0  0  0  0  0  0  0  0999 V2000
    7.0580   -3.3430   19.3280 C   0  0  0  0  0  0  0  0  0  0  0  0
    6.4120   -4.1910   20.3290 C   0  0  0  0  0  0  0  0  0  0  0  0
    5.4010   -4.8310   19.9830 O   0  0  0  0  0  0  0  0  0  0  0  0
    6.9610   -4.3080   21.6380 N   0  0  0  0  0  0  0  0  0  0  0  0
    7.7370   -3.2250   22.1760 C   0  0  0  0  0  0  0  0  0  0  0  0
    6.9880   -2.6120   23.3090 C   0  0  0  0  0  0  0  0  0  0  0  0
    6.5860   -3.7540   24.2010 C   0  0  0  0  0  0  0  0  0  0  0  0
    5.7910   -3.2210   25.3610 C   0  0  0  0  0  0  0  0  0  0  0  0
    4.5850   -3.0690   25.1750 O   0  0  0  0  0  0  0  0  0  0  0  0
    6.4650   -2.9390   26.5470 N   0  0  0  0  0  0  0  0  0  0  0  0
    6.4370   -1.6720   27.2170 C   0  0  0  0  0  0  0  0  0  0  0  0
    5.8880   -0.5650   26.6640 C   0  0  0  0  0  0  0  0  0  0  0  0
    5.8560    0.6010   27.2820 C   0  0  0  0  0  0  0  0  0  0  0  0
    6.3510    0.8800   28.5290 C   0  0  0  0  0  0  0  0  0  0  0  0
    6.9610    0.7710   29.7980 N   0  0  0  0  0  0  0  0  0  0  0  0
    6.6910    1.7480   30.8490 C   0  0  0  0  0  0  0  0  0  0  0  0
    7.9200    2.0600   31.7040 C   0  0  0  0  0  0  0  0  0  0  0  0
    7.3330    1.3070   32.8220 C   0  0  0  0  0  0  0  0  0  0  0  0
    6.0890    1.0150   32.0020 C   0  0  0  0  0  0  0  0  0  0  0  0
    6.8470   -0.4320   28.8410 N   0  0  0  0  0  0  0  0  0  0  0  0
    7.0780   -1.7830   28.5520 C   0  0  0  0  0  0  0  0  0  0  0  0
    5.6840   -4.7170   23.4470 C   0  0  0  0  0  0  0  0  0  0  0  0
    6.5220   -5.3400   22.5390 C   0  0  0  0  0  0  0  0  0  0  0  0
  1  2  1  0
  2  3  2  0
  2  4  1  0
  4  5  1  0
  5  6  1  0
  6  7  1  0
  7  8  1  0
  8  9  2  0
  8 10  1  0
 10 11  1  0
 11 12  2  0
 12 13  1  0
 13 14  2  0
 14 15  1  0
 15 16  1  0
 16 17  1  0
 17 18  1  0
 16 19  1  0
 18 19  1  0
 14 20  1  0
 11 21  1  0
 20 21  2  0
  7 22  1  0
  4 23  1  0
 22 23  1  0
M  END
