piperidine-amides-31293-covalent
     RDKit          3D

 27 28  0  0  0  0  0  0  0  0999 V2000
    7.0910   -3.3620   19.2430 C   0  0  0  0  0  0  0  0  0  0  0  0
    6.4080   -4.0950   20.2840 C   0  0  0  0  0  0  0  0  0  0  0  0
    5.3350   -4.6930   19.9490 O   0  0  0  0  0  0  0  0  0  0  0  0
    6.9010   -4.2320   21.6000 N   0  0  0  0  0  0  0  0  0  0  0  0
    6.5290   -5.4510   22.3360 C   0  0  0  0  0  0  0  0  0  0  0  0
    5.5230   -4.8070   23.3540 C   0  0  0  0  0  0  0  0  0  0  0  0
    6.3180   -3.7650   24.1200 C   0  0  0  0  0  0  0  0  0  0  0  0
    5.4950   -3.3250   25.4090 C   0  0  0  0  0  0  0  0  0  0  0  0
    4.3430   -3.7240   25.3370 O   0  0  0  0  0  0  0  0  0  0  0  0
    6.2380   -2.6440   26.1840 N   0  0  0  0  0  0  0  0  0  0  0  0
    7.0150   -1.5930   26.5450 C   0  0  0  0  0  0  0  0  0  0  0  0
    6.1600   -3.2380   27.4730 C   0  0  0  0  0  0  0  0  0  0  0  0
    5.3370   -4.3650   27.7350 C   0  0  0  0  0  0  0  0  0  0  0  0
    5.0700   -5.3940   26.6870 C   0  0  0  0  0  0  0  0  0  0  0  0
    4.1280   -6.5980   27.0680 C   0  0  0  0  0  0  0  0  0  0  0  0
    3.5850   -6.6600   28.3800 C   0  0  0  0  0  0  0  0  0  0  0  0
    2.8310   -7.6170   28.6590 O   0  0  0  0  0  0  0  0  0  0  0  0
    1.4760   -7.6270   28.4250 C   0  0  0  0  0  0  0  0  0  0  0  0
    1.2100   -8.2950   27.2610 F   0  0  0  0  0  0  0  0  0  0  0  0
    0.8530   -8.2130   29.4990 F   0  0  0  0  0  0  0  0  0  0  0  0
    3.9010   -5.6210   29.3890 C   0  0  0  0  0  0  0  0  0  0  0  0
    3.3900   -5.6930   30.6620 O   0  0  0  0  0  0  0  0  0  0  0  0
    4.0730   -6.3080   31.7230 C   0  0  0  0  0  0  0  0  0  0  0  0
    5.2210   -6.8780   31.2160 C   0  0  0  0  0  0  0  0  0  0  0  0
    4.7460   -4.5380   29.0200 C   0  0  0  0  0  0  0  0  0  0  0  0
    6.8550   -2.6270   23.2570 C   0  0  0  0  0  0  0  0  0  0  0  0
    7.6480   -3.2030   22.2930 C   0  0  0  0  0  0  0  0  0  0  0  0
  1  2  1  0
  2  3  2  0
  2  4  1  0
  4  5  1  0
  5  6  1  0
  6  7  1  0
  7  8  1  0
  8  9  2  0
  8 10  1  0
 10 11  1  0
 10 12  1  0
 12 13  1  0
 13 14  2  0
 14 15  1  0
 15 16  2  0
 16 17  1  0
 17 18  1  0
 18 19  1  0
 18 20  1  0
 16 21  1  0
 21 22  1  0
 22 23  1  0
 23 24  1  0
 13 25  1  0
 21 25  2  0
  7 26  1  0
  4 27  1  0
 26 27  1  0
M  END
