piperidine-amides-23243-covalent
     RDKit          3D

 24 26  0  0  0  0  0  0  0  0999 V2000
    7.1220   -3.3960   19.4160 C   0  0  0  0  0  0  0  0  0  0  0  0
    6.3990   -4.2060   20.4040 C   0  0  0  0  0  0  0  0  0  0  0  0
    5.3870   -4.8260   19.9860 O   0  0  0  0  0  0  0  0  0  0  0  0
    6.8740   -4.3110   21.7430 N   0  0  0  0  0  0  0  0  0  0  0  0
    6.4460   -5.4190   22.5320 C   0  0  0  0  0  0  0  0  0  0  0  0
    5.6980   -4.9920   23.7050 C   0  0  0  0  0  0  0  0  0  0  0  0
    5.7080   -3.5230   23.8290 C   0  0  0  0  0  0  0  0  0  0  0  0
    4.8560   -2.9720   24.9720 C   0  0  0  0  0  0  0  0  0  0  0  0
    3.7840   -2.4290   24.6990 O   0  0  0  0  0  0  0  0  0  0  0  0
    5.2120   -3.0540   26.3200 N   0  0  0  0  0  0  0  0  0  0  0  0
    6.1840   -3.8780   26.6830 C   0  0  0  0  0  0  0  0  0  0  0  0
    5.9740   -4.9270   27.6790 C   0  0  1  0  0  0  0  0  0  0  0  0
    6.6850   -4.4290   28.8680 C   0  0  0  0  0  0  0  0  0  0  0  0
    6.6550   -2.9790   29.1050 N   0  0  0  0  0  0  0  0  0  0  0  0
    7.2480   -5.3930   29.6270 O   0  0  0  0  0  0  0  0  0  0  0  0
    4.7270   -5.2530   28.3010 C   0  0  0  0  0  0  0  0  0  0  0  0
    3.9440   -3.9590   28.3290 C   0  0  0  0  0  0  0  0  0  0  0  0
    2.9800   -4.0500   29.4630 C   0  0  0  0  0  0  0  0  0  0  0  0
    2.2100   -2.7070   29.4360 C   0  0  0  0  0  0  0  0  0  0  0  0
    2.3200   -1.4970   28.5150 C   0  0  0  0  0  0  0  0  0  0  0  0
    3.3730   -1.6180   27.4220 C   0  0  0  0  0  0  0  0  0  0  0  0
    4.2080   -2.8900   27.3290 C   0  0  0  0  0  0  0  0  0  0  0  0
    7.1230   -3.0470   23.7380 C   0  0  0  0  0  0  0  0  0  0  0  0
    7.5220   -3.1660   22.3900 C   0  0  0  0  0  0  0  0  0  0  0  0
  1  2  1  0
  2  3  2  0
  2  4  1  0
  4  5  1  0
  5  6  1  0
  6  7  1  0
  7  8  1  0
  8  9  2  0
  8 10  1  0
 10 11  1  0
 11 12  1  0
 12 13  1  1
 13 14  1  0
 13 15  2  0
 12 16  1  0
 16 17  1  0
 17 18  2  0
 18 19  1  0
 19 20  2  0
 20 21  1  0
 10 22  1  0
 17 22  1  0
 21 22  2  0
  7 23  1  0
  4 24  1  0
 23 24  1  0
M  END
