piperidine-amides-23973-covalent
     RDKit          3D

 24 26  0  0  0  0  0  0  0  0999 V2000
    7.0880   -3.3540   19.3660 C   0  0  0  0  0  0  0  0  0  0  0  0
    6.4400   -4.2160   20.3670 C   0  0  0  0  0  0  0  0  0  0  0  0
    5.4120   -4.8410   19.9890 O   0  0  0  0  0  0  0  0  0  0  0  0
    6.9920   -4.3740   21.6720 N   0  0  0  0  0  0  0  0  0  0  0  0
    6.6100   -5.5120   22.4370 C   0  0  0  0  0  0  0  0  0  0  0  0
    6.2520   -5.1720   23.8120 C   0  0  0  0  0  0  0  0  0  0  0  0
    6.2910   -3.7170   24.0710 C   0  0  0  0  0  0  0  0  0  0  0  0
    5.6030   -3.2930   25.3470 C   0  0  0  0  0  0  0  0  0  0  0  0
    4.4120   -2.9480   25.2380 O   0  0  0  0  0  0  0  0  0  0  0  0
    6.1370   -3.2530   26.6640 N   0  0  0  0  0  0  0  0  0  0  0  0
    5.3270   -3.3260   27.8530 C   0  0  0  0  0  0  0  0  0  0  0  0
    5.3950   -4.4780   28.7810 C   0  0  0  0  0  0  0  0  0  0  0  0
    6.6750   -5.2210   28.4170 C   0  0  0  0  0  0  0  0  0  0  0  0
    7.4880   -4.5760   27.6300 C   0  0  0  0  0  0  0  0  0  0  0  0
    8.5030   -5.6140   27.5480 C   0  0  0  0  0  0  0  0  0  0  0  0
    7.9810   -6.6800   28.3650 N   0  0  0  0  0  0  0  0  0  0  0  0
    6.7510   -6.4490   28.9700 N   0  0  0  0  0  0  0  0  0  0  0  0
    6.1140   -7.3390   29.7670 C   0  0  0  0  0  0  0  0  0  0  0  0
    7.5370   -3.2960   26.9550 C   0  0  2  0  0  0  0  0  0  0  0  0
    7.7080   -2.0400   27.7740 C   0  0  0  0  0  0  0  0  0  0  0  0
    8.4540   -1.8650   28.8890 N   0  0  0  0  0  0  0  0  0  0  0  0
    6.9630   -0.9200   27.3580 O   0  0  0  0  0  0  0  0  0  0  0  0
    7.6580   -3.1760   23.7650 C   0  0  0  0  0  0  0  0  0  0  0  0
    7.7670   -3.2820   22.2310 C   0  0  0  0  0  0  0  0  0  0  0  0
  1  2  1  0
  2  3  2  0
  2  4  1  0
  4  5  1  0
  5  6  1  0
  6  7  1  0
  7  8  1  0
  8  9  2  0
  8 10  1  0
 10 11  1  0
 11 12  1  0
 12 13  1  0
 13 14  2  0
 14 15  1  0
 15 16  2  0
 13 17  1  0
 16 17  1  0
 17 18  1  0
 10 19  1  0
 14 19  1  0
 19 20  1  1
 20 21  1  0
 20 22  2  0
  7 23  1  0
  4 24  1  0
 23 24  1  0
M  END
