piperidine-amides-5587-covalent
     RDKit          3D

 18 18  0  0  0  0  0  0  0  0999 V2000
    7.1330   -3.3010   19.2700 C   0  0  0  0  0  0  0  0  0  0  0  0
    6.3460   -4.0250   20.2670 C   0  0  0  0  0  0  0  0  0  0  0  0
    5.2990   -4.5870   19.9070 O   0  0  0  0  0  0  0  0  0  0  0  0
    6.7820   -4.1400   21.5990 N   0  0  0  0  0  0  0  0  0  0  0  0
    6.6230   -5.3760   22.3410 C   0  0  0  0  0  0  0  0  0  0  0  0
    5.9840   -5.0400   23.6740 C   0  0  0  0  0  0  0  0  0  0  0  0
    6.0410   -3.5730   23.9950 C   0  0  0  0  0  0  0  0  0  0  0  0
    5.6060   -3.2670   25.3830 C   0  0  0  0  0  0  0  0  0  0  0  0
    4.3840   -3.0390   25.6190 O   0  0  0  0  0  0  0  0  0  0  0  0
    6.4860   -3.1970   26.4860 N   0  0  0  0  0  0  0  0  0  0  0  0
    6.1810   -3.8810   27.7750 C   0  0  0  0  0  0  0  0  0  0  0  0
    5.6610   -5.2440   27.4910 C   0  0  1  0  0  0  0  0  0  0  0  0
    5.9830   -5.7910   26.4120 O   0  0  0  0  0  0  0  0  0  0  0  0
    6.0490   -6.2680   28.4770 C   0  0  0  0  0  0  0  0  0  0  0  0
    5.7200   -6.2710   29.7380 O   0  0  0  0  0  0  0  0  0  0  0  0
    5.6040   -7.4700   30.4680 C   0  0  0  0  0  0  0  0  0  0  0  0
    7.2880   -2.8830   23.5860 C   0  0  0  0  0  0  0  0  0  0  0  0
    7.6670   -3.1680   22.1910 C   0  0  0  0  0  0  0  0  0  0  0  0
  1  2  1  0
  2  3  2  0
  2  4  1  0
  4  5  1  0
  5  6  1  0
  6  7  1  0
  7  8  1  0
  8  9  2  0
  8 10  1  0
 10 11  1  0
 11 12  1  0
 12 13  1  6
 12 14  1  0
 14 15  1  0
 15 16  1  0
  7 17  1  0
  4 18  1  0
 17 18  1  0
M  END
