piperidine-amides-27203-covalent
     RDKit          3D

 21 22  0  0  0  0  0  0  0  0999 V2000
    7.0080   -3.3590   19.3500 C   0  0  0  0  0  0  0  0  0  0  0  0
    6.3480   -4.2260   20.3370 C   0  0  0  0  0  0  0  0  0  0  0  0
    5.3120   -4.8190   19.9590 O   0  0  0  0  0  0  0  0  0  0  0  0
    6.8830   -4.4120   21.6160 N   0  0  0  0  0  0  0  0  0  0  0  0
    6.5460   -5.5620   22.4310 C   0  0  0  0  0  0  0  0  0  0  0  0
    5.7880   -5.1200   23.6680 C   0  0  0  0  0  0  0  0  0  0  0  0
    5.8740   -3.6320   23.9030 C   0  0  0  0  0  0  0  0  0  0  0  0
    5.4940   -3.2850   25.2960 C   0  0  0  0  0  0  0  0  0  0  0  0
    4.2770   -3.0990   25.5170 O   0  0  0  0  0  0  0  0  0  0  0  0
    6.3840   -3.1420   26.3870 N   0  0  0  0  0  0  0  0  0  0  0  0
    6.6390   -4.3370   27.1650 C   0  0  0  0  0  0  0  0  0  0  0  0
    6.3750   -1.8280   27.0300 C   0  0  0  0  0  0  0  0  0  0  0  0
    6.8560   -1.7720   28.3420 C   0  0  0  0  0  0  0  0  0  0  0  0
    6.9270   -0.6300   29.1460 C   0  0  0  0  0  0  0  0  0  0  0  0
    6.5010    0.6080   28.6830 C   0  0  0  0  0  0  0  0  0  0  0  0
    6.5670    2.1850   29.7500 Br  0  0  0  0  0  0  0  0  0  0  0  0
    6.0260    0.6110   27.4040 C   0  0  0  0  0  0  0  0  0  0  0  0
    5.4950    1.3720   26.3870 C   0  0  0  0  0  0  0  0  0  0  0  0
    5.8780   -0.5100   26.3920 C   0  0  0  0  0  0  0  0  0  0  0  0
    7.2430   -3.1730   23.6410 C   0  0  0  0  0  0  0  0  0  0  0  0
    7.5680   -3.2600   22.1880 C   0  0  0  0  0  0  0  0  0  0  0  0
  1  2  1  0
  2  3  2  0
  2  4  1  0
  4  5  1  0
  5  6  1  0
  6  7  1  0
  7  8  1  0
  8  9  2  0
  8 10  1  0
 10 11  1  0
 10 12  1  0
 12 13  2  0
 13 14  1  0
 14 15  2  0
 15 16  1  0
 15 17  1  0
 17 18  1  0
 12 19  1  0
 17 19  2  0
  7 20  1  0
  4 21  1  0
 20 21  1  0
M  END
