piperidine-amides-8061-covalent
     RDKit          3D

 26 28  0  0  0  0  0  0  0  0999 V2000
    7.1870   -3.9440   19.6560 C   0  0  0  0  0  0  0  0  0  0  0  0
    5.9510   -3.8470   20.2900 C   0  0  0  0  0  0  0  0  0  0  0  0
    4.9620   -3.9340   19.5540 O   0  0  0  0  0  0  0  0  0  0  0  0
    5.9740   -3.7790   21.6770 N   0  0  0  0  0  0  0  0  0  0  0  0
    7.0830   -3.0260   22.1810 C   0  0  0  0  0  0  0  0  0  0  0  0
    6.7430   -2.5240   23.5420 C   0  0  0  0  0  0  0  0  0  0  0  0
    6.3620   -3.7140   24.3930 C   0  0  0  0  0  0  0  0  0  0  0  0
    5.7470   -3.2160   25.6520 C   0  0  0  0  0  0  0  0  0  0  0  0
    4.5230   -3.0990   25.6450 O   0  0  0  0  0  0  0  0  0  0  0  0
    6.5880   -2.9130   26.7090 N   0  0  0  0  0  0  0  0  0  0  0  0
    6.4340   -3.4540   28.0240 C   0  0  0  0  0  0  0  0  0  0  0  0
    6.1170   -4.8170   28.1160 C   0  0  0  0  0  0  0  0  0  0  0  0
    4.9320   -5.1310   28.7550 C   0  0  0  0  0  0  0  0  0  0  0  0
    4.0190   -4.2180   29.2260 C   0  0  0  0  0  0  0  0  0  0  0  0
    2.6590   -5.0230   29.9720 S   0  0  0  0  0  0  0  0  0  0  0  0
    3.2980   -6.6810   29.6600 C   0  0  0  0  0  0  0  0  0  0  0  0
    2.3990   -7.8410   30.1590 C   0  0  0  0  0  0  0  0  0  0  0  0
    2.3980   -8.1330   31.6150 C   0  0  0  0  0  0  0  0  0  0  0  0
    1.5210   -9.2530   32.1250 C   0  0  0  0  0  0  0  0  0  0  0  0
    0.7010   -9.9840   31.0250 C   0  0  0  0  0  0  0  0  0  0  0  0
   -0.1440  -11.0250   31.3400 F   0  0  0  0  0  0  0  0  0  0  0  0
    0.8340   -9.5720   29.7200 C   0  0  0  0  0  0  0  0  0  0  0  0
    1.6340   -8.5530   29.2580 C   0  0  0  0  0  0  0  0  0  0  0  0
    4.5130   -6.4990   29.0070 N   0  0  0  0  0  0  0  0  0  0  0  0
    5.3790   -4.6570   23.7840 C   0  0  0  0  0  0  0  0  0  0  0  0
    5.7120   -4.9970   22.3790 C   0  0  0  0  0  0  0  0  0  0  0  0
  1  2  1  0
  2  3  2  0
  2  4  1  0
  4  5  1  0
  5  6  1  0
  6  7  1  0
  7  8  1  0
  8  9  2  0
  8 10  1  0
 10 11  1  0
 11 12  1  0
 12 13  1  0
 13 14  2  0
 14 15  1  0
 15 16  1  0
 16 17  1  0
 17 18  2  0
 18 19  1  0
 19 20  2  0
 20 21  1  0
 20 22  1  0
 17 23  1  0
 22 23  2  0
 13 24  1  0
 16 24  2  0
  7 25  1  0
  4 26  1  0
 25 26  1  0
M  END
