piperidine-amides-32918-covalent
     RDKit          3D

 29 32  0  0  0  0  0  0  0  0999 V2000
    7.1290   -3.2730   19.2720 C   0  0  0  0  0  0  0  0  0  0  0  0
    6.3140   -4.0260   20.2600 C   0  0  0  0  0  0  0  0  0  0  0  0
    5.2480   -4.5340   19.8800 O   0  0  0  0  0  0  0  0  0  0  0  0
    6.7880   -4.2050   21.5810 N   0  0  0  0  0  0  0  0  0  0  0  0
    6.5690   -5.4550   22.2610 C   0  0  0  0  0  0  0  0  0  0  0  0
    6.1000   -5.1580   23.6920 C   0  0  0  0  0  0  0  0  0  0  0  0
    6.0020   -3.6780   23.8990 C   0  0  0  0  0  0  0  0  0  0  0  0
    5.7130   -3.3670   25.3230 C   0  0  0  0  0  0  0  0  0  0  0  0
    5.3140   -4.3250   25.9740 O   0  0  0  0  0  0  0  0  0  0  0  0
    5.8730   -2.0930   25.8890 N   0  0  0  0  0  0  0  0  0  0  0  0
    6.6070   -1.8170   27.0110 C   0  0  0  0  0  0  0  0  0  0  0  0
    5.5770   -1.1540   27.4810 C   0  0  0  0  0  0  0  0  0  0  0  0
    5.7120    0.1490   27.9550 C   0  0  0  0  0  0  0  0  0  0  0  0
    5.5030    0.1690   29.3120 C   0  0  0  0  0  0  0  0  0  0  0  0
    4.8590   -0.7270   30.0480 O   0  0  0  0  0  0  0  0  0  0  0  0
    4.8060   -1.9060   29.4630 C   0  0  0  0  0  0  0  0  0  0  0  0
    4.4390   -1.7610   27.9700 C   0  0  0  0  0  0  0  0  0  0  0  0
    4.6390   -1.3970   26.4490 C   0  0  2  0  0  0  0  0  0  0  0  0
    3.5150   -2.2340   26.5270 C   0  0  0  0  0  0  0  0  0  0  0  0
    3.3700   -3.5940   27.0110 C   0  0  0  0  0  0  0  0  0  0  0  0
    2.0250   -4.0590   26.8980 N   0  0  0  0  0  0  0  0  0  0  0  0
    1.4000   -2.9810   26.3530 N   0  0  0  0  0  0  0  0  0  0  0  0
   -0.0110   -3.1440   26.1050 C   0  0  0  0  0  0  0  0  0  0  0  0
   -0.0470   -4.2420   25.2860 C   0  0  0  0  0  0  0  0  0  0  0  0
   -1.1840   -3.2040   25.1570 C   0  0  0  0  0  0  0  0  0  0  0  0
   -0.2510   -5.5030   25.7980 C   0  0  0  0  0  0  0  0  0  0  0  0
    2.2310   -1.8890   26.1220 C   0  0  0  0  0  0  0  0  0  0  0  0
    7.2680   -2.9420   23.5220 C   0  0  0  0  0  0  0  0  0  0  0  0
    7.5510   -3.1530   22.1820 C   0  0  0  0  0  0  0  0  0  0  0  0
  1  2  1  0
  2  3  2  0
  2  4  1  0
  4  5  1  0
  5  6  1  0
  6  7  1  0
  7  8  1  0
  8  9  2  0
  8 10  1  0
 10 11  1  0
 12 11  1  0
 12 13  1  0
 13 14  1  0
 14 15  1  0
 15 16  1  0
 12 17  1  0
 16 17  1  0
 10 18  1  0
 12 18  1  0
 18 19  1  1
 19 20  1  0
 20 21  2  0
 21 22  1  0
 22 23  1  0
 23 24  1  0
 24 25  1  0
 24 26  1  0
 19 27  2  0
 22 27  1  0
  7 28  1  0
  4 29  1  0
 28 29  1  0
M  END
