piperidine-amides-33275-covalent
     RDKit          3D

 29 31  0  0  0  0  0  0  0  0999 V2000
    7.1510   -3.3500   19.3490 C   0  0  0  0  0  0  0  0  0  0  0  0
    6.4570   -4.1670   20.3410 C   0  0  0  0  0  0  0  0  0  0  0  0
    5.3910   -4.7230   19.9680 O   0  0  0  0  0  0  0  0  0  0  0  0
    7.0250   -4.3670   21.6320 N   0  0  0  0  0  0  0  0  0  0  0  0
    6.6810   -5.5590   22.3210 C   0  0  0  0  0  0  0  0  0  0  0  0
    6.2800   -5.2840   23.6910 C   0  0  0  0  0  0  0  0  0  0  0  0
    6.0380   -3.8510   23.9350 C   0  0  0  0  0  0  0  0  0  0  0  0
    5.1600   -3.6570   25.1330 C   0  0  0  0  0  0  0  0  0  0  0  0
    4.0810   -4.2550   25.1100 O   0  0  0  0  0  0  0  0  0  0  0  0
    5.3620   -2.8750   26.2740 N   0  0  0  0  0  0  0  0  0  0  0  0
    4.3010   -2.7140   27.1360 C   0  0  0  0  0  0  0  0  0  0  0  0
    4.0970   -3.8280   28.0140 C   0  0  0  0  0  0  0  0  0  0  0  0
    5.3410   -3.7770   28.8480 C   0  0  0  0  0  0  0  0  0  0  0  0
    5.3400   -2.6090   29.5350 C   0  0  0  0  0  0  0  0  0  0  0  0
    3.7990   -2.7670   29.6130 C   0  0  0  0  0  0  0  0  0  0  0  0
    3.7310   -4.0590   30.4350 C   0  0  0  0  0  0  0  0  0  0  0  0
    4.6960   -4.8810   29.5280 C   0  0  2  0  0  0  0  0  0  0  0  0
    5.5750   -5.8090   30.1390 N   0  0  0  0  0  0  0  0  0  0  0  0
    4.7820   -6.7430   30.8350 C   0  0  0  0  0  0  0  0  0  0  0  0
    4.9440   -7.0830   32.1940 O   0  0  0  0  0  0  0  0  0  0  0  0
    3.7920   -7.3610   30.1360 O   0  0  0  0  0  0  0  0  0  0  0  0
    2.5000   -7.6350   30.6490 C   0  0  0  0  0  0  0  0  0  0  0  0
    1.6100   -6.3840   30.7160 C   0  0  0  0  0  0  0  0  0  0  0  0
    2.6160   -8.3530   31.9680 C   0  0  0  0  0  0  0  0  0  0  0  0
    1.5720   -8.3820   29.8030 C   0  0  0  0  0  0  0  0  0  0  0  0
    6.4760   -4.0280   28.1160 C   0  0  0  0  0  0  0  0  0  0  0  0
    6.5760   -2.9720   26.9740 C   0  0  0  0  0  0  0  0  0  0  0  0
    7.2970   -3.0740   23.7520 C   0  0  0  0  0  0  0  0  0  0  0  0
    7.7130   -3.2800   22.2940 C   0  0  0  0  0  0  0  0  0  0  0  0
  1  2  1  0
  2  3  2  0
  2  4  1  0
  4  5  1  0
  5  6  1  0
  6  7  1  0
  7  8  1  0
  8  9  2  0
  8 10  1  0
 10 11  1  0
 11 12  1  0
 13 12  1  0
 13 14  1  0
 14 15  1  0
 15 16  1  0
 13 17  1  0
 16 17  1  0
 17 18  1  1
 18 19  1  0
 19 20  2  0
 19 21  1  0
 22 21  1  0
 22 23  1  0
 22 24  1  0
 22 25  1  0
 13 26  1  0
 10 27  1  0
 26 27  1  0
  7 28  1  0
  4 29  1  0
 28 29  1  0
M  END
