piperidine-amides-11118-covalent
     RDKit          3D

 20 21  0  0  0  0  0  0  0  0999 V2000
    7.0680   -3.3310   19.3300 C   0  0  0  0  0  0  0  0  0  0  0  0
    6.3640   -4.1310   20.3320 C   0  0  0  0  0  0  0  0  0  0  0  0
    5.3880   -4.8170   19.9800 O   0  0  0  0  0  0  0  0  0  0  0  0
    6.8030   -4.1750   21.6680 N   0  0  0  0  0  0  0  0  0  0  0  0
    7.7350   -3.1890   22.1830 C   0  0  0  0  0  0  0  0  0  0  0  0
    7.3750   -2.9730   23.6210 C   0  0  0  0  0  0  0  0  0  0  0  0
    6.0590   -3.6040   23.9430 C   0  0  0  0  0  0  0  0  0  0  0  0
    5.5890   -3.2910   25.3120 C   0  0  0  0  0  0  0  0  0  0  0  0
    4.3550   -3.3070   25.6060 O   0  0  0  0  0  0  0  0  0  0  0  0
    6.4760   -2.9510   26.3430 N   0  0  0  0  0  0  0  0  0  0  0  0
    6.4150   -1.6410   27.0260 C   0  0  0  0  0  0  0  0  0  0  0  0
    6.0090   -0.3990   26.3690 C   0  0  0  0  0  0  0  0  0  0  0  0
    5.9910    0.8440   27.1610 C   0  0  0  0  0  0  0  0  0  0  0  0
    6.3810    0.8780   28.6250 C   0  0  0  0  0  0  0  0  0  0  0  0
    6.3310    2.6930   29.6840 I   0  0  0  0  0  0  0  0  0  0  0  0
    6.8060   -0.4150   29.3160 C   0  0  0  0  0  0  0  0  0  0  0  0
    6.7830   -1.6010   28.4310 C   0  0  0  0  0  0  0  0  0  0  0  0
    7.1380   -2.8250   28.9590 F   0  0  0  0  0  0  0  0  0  0  0  0
    6.1540   -5.0940   23.6970 C   0  0  0  0  0  0  0  0  0  0  0  0
    6.6060   -5.4100   22.4020 C   0  0  0  0  0  0  0  0  0  0  0  0
  1  2  1  0
  2  3  2  0
  2  4  1  0
  4  5  1  0
  5  6  1  0
  6  7  1  0
  7  8  1  0
  8  9  2  0
  8 10  1  0
 10 11  1  0
 11 12  2  0
 12 13  1  0
 13 14  2  0
 14 15  1  0
 14 16  1  0
 11 17  1  0
 16 17  2  0
 17 18  1  0
  7 19  1  0
  4 20  1  0
 19 20  1  0
M  END
