piperidine-amides-33731-covalent
     RDKit          3D

 30 32  0  0  0  0  0  0  0  0999 V2000
    7.1050   -3.2910   19.2340 C   0  0  0  0  0  0  0  0  0  0  0  0
    6.3860   -4.0570   20.2660 C   0  0  0  0  0  0  0  0  0  0  0  0
    5.3030   -4.5790   19.9060 O   0  0  0  0  0  0  0  0  0  0  0  0
    6.9100   -4.2580   21.5730 N   0  0  0  0  0  0  0  0  0  0  0  0
    7.6050   -3.1790   22.2010 C   0  0  0  0  0  0  0  0  0  0  0  0
    7.2470   -2.9760   23.6040 C   0  0  0  0  0  0  0  0  0  0  0  0
    6.0240   -3.7000   24.0150 C   0  0  0  0  0  0  0  0  0  0  0  0
    5.5180   -3.3390   25.3840 C   0  0  0  0  0  0  0  0  0  0  0  0
    4.2870   -3.2420   25.5360 O   0  0  0  0  0  0  0  0  0  0  0  0
    6.3360   -3.0910   26.5050 N   0  0  0  0  0  0  0  0  0  0  0  0
    6.7310   -1.7930   26.9240 C   0  0  0  0  0  0  0  0  0  0  0  0
    6.1830   -4.0320   27.6170 C   0  0  0  0  0  0  0  0  0  0  0  0
    6.1200   -5.5500   27.3130 C   0  0  0  0  0  0  0  0  0  0  0  0
    4.9080   -5.9820   28.0060 N   0  0  0  0  0  0  0  0  0  0  0  0
    4.1660   -6.8040   27.0990 C   0  0  0  0  0  0  0  0  0  0  0  0
    5.0820   -6.4440   29.3300 C   0  0  0  0  0  0  0  0  0  0  0  0
    3.8110   -6.5430   30.1140 C   0  0  0  0  0  0  0  0  0  0  0  0
    3.9390   -7.6580   30.8470 N   0  0  0  0  0  0  0  0  0  0  0  0
    2.5730   -8.0850   31.2840 C   0  0  0  0  0  0  0  0  0  0  0  0
    1.3710   -7.9730   30.5810 O   0  0  0  0  0  0  0  0  0  0  0  0
    2.9370   -8.6240   32.6310 C   0  0  0  0  0  0  0  0  0  0  0  0
    1.9740   -9.4140   33.4900 C   0  0  0  0  0  0  0  0  0  0  0  0
    2.4640   -9.9210   34.8520 C   0  0  0  0  0  0  0  0  0  0  0  0
    3.8780   -9.5450   35.1400 C   0  0  0  0  0  0  0  0  0  0  0  0
    4.6770   -8.8050   34.2630 C   0  0  0  0  0  0  0  0  0  0  0  0
    4.1930   -8.3680   33.0460 C   0  0  0  0  0  0  0  0  0  0  0  0
    4.8670   -7.5790   31.9730 C   0  0  0  0  0  0  0  0  0  0  0  0
    6.0820   -6.9150   32.0510 O   0  0  0  0  0  0  0  0  0  0  0  0
    6.1800   -5.1680   23.7590 C   0  0  0  0  0  0  0  0  0  0  0  0
    6.5240   -5.4300   22.3020 C   0  0  0  0  0  0  0  0  0  0  0  0
  1  2  1  0
  2  3  2  0
  2  4  1  0
  4  5  1  0
  5  6  1  0
  6  7  1  0
  7  8  1  0
  8  9  2  0
  8 10  1  0
 10 11  1  0
 10 12  1  0
 12 13  1  0
 13 14  1  0
 14 15  1  0
 14 16  1  0
 16 17  1  0
 17 18  1  0
 18 19  1  0
 19 20  2  0
 19 21  1  0
 21 22  1  0
 22 23  2  0
 23 24  1  0
 24 25  2  0
 21 26  2  0
 25 26  1  0
 18 27  1  0
 26 27  1  0
 27 28  2  0
  7 29  1  0
  4 30  1  0
 29 30  1  0
M  END
