piperidine-amides-27921-covalent
     RDKit          3D

 26 29  0  0  0  0  0  0  0  0999 V2000
    7.0930   -3.3890   19.3160 C   0  0  0  0  0  0  0  0  0  0  0  0
    6.4170   -4.2030   20.3390 C   0  0  0  0  0  0  0  0  0  0  0  0
    5.3800   -4.8010   19.9770 O   0  0  0  0  0  0  0  0  0  0  0  0
    6.9680   -4.3310   21.6210 N   0  0  0  0  0  0  0  0  0  0  0  0
    6.6810   -5.4940   22.4020 C   0  0  0  0  0  0  0  0  0  0  0  0
    6.1250   -5.1520   23.7080 C   0  0  0  0  0  0  0  0  0  0  0  0
    6.1090   -3.6930   23.9140 C   0  0  0  0  0  0  0  0  0  0  0  0
    5.5500   -3.3010   25.2270 C   0  0  0  0  0  0  0  0  0  0  0  0
    4.7040   -2.3950   25.2330 O   0  0  0  0  0  0  0  0  0  0  0  0
    5.9040   -3.9220   26.4230 N   0  0  0  0  0  0  0  0  0  0  0  0
    5.1070   -5.0410   26.9040 C   0  0  0  0  0  0  0  0  0  0  0  0
    5.0580   -5.1310   28.3890 C   0  0  0  0  0  0  0  0  0  0  0  0
    5.8090   -4.2280   29.2360 C   0  0  0  0  0  0  0  0  0  0  0  0
    5.0770   -3.1640   29.7310 C   0  0  0  0  0  0  0  0  0  0  0  0
    3.7420   -3.4390   30.1600 N   0  0  0  0  0  0  0  0  0  0  0  0
    3.1200   -2.2000   30.6540 C   0  0  0  0  0  0  0  0  0  0  0  0
    4.0910   -1.2830   30.4970 C   0  0  0  0  0  0  0  0  0  0  0  0
    5.2150   -1.8320   29.9690 N   0  0  0  0  0  0  0  0  0  0  0  0
    6.4230   -1.0610   29.7000 C   0  0  0  0  0  0  0  0  0  0  0  0
    6.2220    0.0100   30.5610 C   0  0  0  0  0  0  0  0  0  0  0  0
    5.0300    0.7400   30.3020 C   0  0  0  0  0  0  0  0  0  0  0  0
    3.8120    0.1050   30.8970 C   0  0  0  0  0  0  0  0  0  0  0  0
    6.8860   -3.5830   28.7070 C   0  0  0  0  0  0  0  0  0  0  0  0
    6.4500   -3.0520   27.3850 C   0  0  0  0  0  0  0  0  0  0  0  0
    7.3620   -3.0060   23.5940 C   0  0  0  0  0  0  0  0  0  0  0  0
    7.8280   -3.2910   22.1880 C   0  0  0  0  0  0  0  0  0  0  0  0
  1  2  1  0
  2  3  2  0
  2  4  1  0
  4  5  1  0
  5  6  1  0
  6  7  1  0
  7  8  1  0
  8  9  2  0
  8 10  1  0
 10 11  1  0
 11 12  1  0
 12 13  1  0
 13 14  1  0
 14 15  2  0
 15 16  1  0
 16 17  2  0
 14 18  1  0
 17 18  1  0
 18 19  1  0
 19 20  1  0
 20 21  1  0
 17 22  1  0
 21 22  1  0
 13 23  1  0
 10 24  1  0
 23 24  1  0
  7 25  1  0
  4 26  1  0
 25 26  1  0
M  END
