piperidine-amides-6759-covalent
     RDKit          3D

 23 25  0  0  0  0  0  0  0  0999 V2000
    7.0660   -3.3130   19.3500 C   0  0  0  0  0  0  0  0  0  0  0  0
    6.3840   -4.1570   20.3490 C   0  0  0  0  0  0  0  0  0  0  0  0
    5.4250   -4.8830   19.9960 O   0  0  0  0  0  0  0  0  0  0  0  0
    6.8130   -4.1850   21.6900 N   0  0  0  0  0  0  0  0  0  0  0  0
    7.7440   -3.1720   22.1480 C   0  0  0  0  0  0  0  0  0  0  0  0
    7.7250   -3.2640   23.6670 C   0  0  0  0  0  0  0  0  0  0  0  0
    6.3030   -3.6380   23.9720 C   0  0  0  0  0  0  0  0  0  0  0  0
    5.9320   -3.3760   25.3770 C   0  0  0  0  0  0  0  0  0  0  0  0
    4.8990   -3.9310   25.8040 O   0  0  0  0  0  0  0  0  0  0  0  0
    6.6830   -2.4980   26.2070 N   0  0  0  0  0  0  0  0  0  0  0  0
    5.8800   -1.5850   26.9630 C   0  0  2  0  0  0  0  0  0  0  0  0
    5.5590   -0.3830   26.1200 C   0  0  0  0  0  0  0  0  0  0  0  0
    5.6710    0.7380   26.8800 C   0  0  0  0  0  0  0  0  0  0  0  0
    6.2700    0.3880   28.0620 C   0  0  0  0  0  0  0  0  0  0  0  0
    6.4630   -0.9460   28.2040 C   0  0  0  0  0  0  0  0  0  0  0  0
    7.0150   -1.5610   29.2110 C   0  0  0  0  0  0  0  0  0  0  0  0
    7.5440   -0.8840   30.4340 C   0  0  0  0  0  0  0  0  0  0  0  0
    7.2270    0.5870   30.0810 C   0  0  0  0  0  0  0  0  0  0  0  0
    7.6410    1.3810   31.1010 F   0  0  0  0  0  0  0  0  0  0  0  0
    6.5950    1.4000   28.9370 C   0  0  0  0  0  0  0  0  0  0  0  0
    5.7790    2.2210   27.4120 Br  0  0  0  0  0  0  0  0  0  0  0  0
    6.0170   -5.0900   23.6370 C   0  0  0  0  0  0  0  0  0  0  0  0
    6.7310   -5.4080   22.4590 C   0  0  0  0  0  0  0  0  0  0  0  0
  1  2  1  0
  2  3  2  0
  2  4  1  0
  4  5  1  0
  5  6  1  0
  6  7  1  0
  7  8  1  0
  8  9  2  0
  8 10  1  0
 11 10  1  6
 11 12  1  0
 12 13  1  0
 13 14  1  0
 11 15  1  0
 14 15  2  0
 15 16  1  0
 16 17  2  0
 17 18  1  0
 18 19  1  0
 14 20  1  0
 18 20  2  0
 20 21  1  0
  7 22  1  0
  4 23  1  0
 22 23  1  0
M  END
