piperidine-amides-25055-covalent
     RDKit          3D

 23 23  0  0  0  0  0  0  0  0999 V2000
    7.0620   -3.2670   19.2450 C   0  0  0  0  0  0  0  0  0  0  0  0
    6.3860   -4.0800   20.2890 C   0  0  0  0  0  0  0  0  0  0  0  0
    5.3890   -4.7170   19.9480 O   0  0  0  0  0  0  0  0  0  0  0  0
    6.9050   -4.1290   21.5890 N   0  0  0  0  0  0  0  0  0  0  0  0
    7.8350   -3.1450   22.1020 C   0  0  0  0  0  0  0  0  0  0  0  0
    7.5220   -2.8140   23.5390 C   0  0  0  0  0  0  0  0  0  0  0  0
    6.1520   -3.3840   23.8990 C   0  0  0  0  0  0  0  0  0  0  0  0
    5.7750   -2.8570   25.2370 C   0  0  0  0  0  0  0  0  0  0  0  0
    5.0020   -1.8970   25.3000 O   0  0  0  0  0  0  0  0  0  0  0  0
    6.2300   -3.4480   26.4250 N   0  0  0  0  0  0  0  0  0  0  0  0
    6.2440   -2.6130   27.6250 C   0  0  0  0  0  0  0  0  0  0  0  0
    6.7610   -1.2200   27.2960 C   0  0  0  0  0  0  0  0  0  0  0  0
    7.2020   -0.5620   28.4480 O   0  0  0  0  0  0  0  0  0  0  0  0
    7.5790   -1.1400   29.5880 C   0  0  0  0  0  0  0  0  0  0  0  0
    5.8110   -4.8020   26.5660 C   0  0  0  0  0  0  0  0  0  0  0  0
    5.8970   -5.4680   27.7490 C   0  0  2  0  0  0  0  0  0  0  0  0
    5.8200   -6.7600   27.2860 O   0  0  0  0  0  0  0  0  0  0  0  0
    4.8990   -5.2730   28.8740 C   0  0  0  0  0  0  0  0  0  0  0  0
    4.7040   -3.9570   29.2980 F   0  0  0  0  0  0  0  0  0  0  0  0
    3.6040   -5.7210   28.5720 F   0  0  0  0  0  0  0  0  0  0  0  0
    5.3150   -6.0420   29.9340 F   0  0  0  0  0  0  0  0  0  0  0  0
    6.1150   -4.8730   23.7490 C   0  0  0  0  0  0  0  0  0  0  0  0
    6.6290   -5.2920   22.4010 C   0  0  0  0  0  0  0  0  0  0  0  0
  1  2  1  0
  2  3  2  0
  2  4  1  0
  4  5  1  0
  5  6  1  0
  6  7  1  0
  7  8  1  0
  8  9  2  0
  8 10  1  0
 10 11  1  0
 11 12  1  0
 12 13  1  0
 13 14  1  0
 10 15  1  0
 15 16  1  0
 16 17  1  6
 16 18  1  0
 18 19  1  0
 18 20  1  0
 18 21  1  0
  7 22  1  0
  4 23  1  0
 22 23  1  0
M  END
