piperidine-amides-1067-covalent
     RDKit          3D

 24 26  0  0  0  0  0  0  0  0999 V2000
    6.9760   -3.2920   19.2930 C   0  0  0  0  0  0  0  0  0  0  0  0
    6.2510   -4.1410   20.2870 C   0  0  0  0  0  0  0  0  0  0  0  0
    5.2530   -4.7710   19.9320 O   0  0  0  0  0  0  0  0  0  0  0  0
    6.7190   -4.2360   21.6080 N   0  0  0  0  0  0  0  0  0  0  0  0
    6.6450   -5.4790   22.3400 C   0  0  0  0  0  0  0  0  0  0  0  0
    5.8140   -5.2230   23.6030 C   0  0  0  0  0  0  0  0  0  0  0  0
    5.9350   -3.7720   23.9080 C   0  0  0  0  0  0  0  0  0  0  0  0
    5.5640   -3.4170   25.3140 C   0  0  0  0  0  0  0  0  0  0  0  0
    4.9320   -2.3640   25.4500 O   0  0  0  0  0  0  0  0  0  0  0  0
    5.8980   -4.2400   26.4180 N   0  0  0  0  0  0  0  0  0  0  0  0
    7.1180   -4.2660   27.1490 C   0  0  0  0  0  0  0  0  0  0  0  0
    8.2790   -4.0050   26.5110 C   0  0  0  0  0  0  0  0  0  0  0  0
    9.4290   -4.8080   26.6400 C   0  0  0  0  0  0  0  0  0  0  0  0
   10.5390   -4.4540   25.9270 C   0  0  0  0  0  0  0  0  0  0  0  0
   10.3840   -3.2510   25.0960 C   0  0  0  0  0  0  0  0  0  0  0  0
   11.4190   -2.7920   24.2980 N   0  0  0  0  0  0  0  0  0  0  0  0
   12.7840   -2.7650   24.5670 C   0  0  0  0  0  0  0  0  0  0  0  0
   13.3060   -2.1860   23.3370 C   0  0  0  0  0  0  0  0  0  0  0  0
   12.3920   -1.8830   22.4250 N   0  0  0  0  0  0  0  0  0  0  0  0
   11.2090   -2.2670   23.0300 C   0  0  0  0  0  0  0  0  0  0  0  0
    9.3230   -2.4930   24.9800 N   0  0  0  0  0  0  0  0  0  0  0  0
    8.2790   -2.9020   25.7090 C   0  0  0  0  0  0  0  0  0  0  0  0
    7.2610   -3.1750   23.5490 C   0  0  0  0  0  0  0  0  0  0  0  0
    7.4360   -3.1350   22.1890 C   0  0  0  0  0  0  0  0  0  0  0  0
  1  2  1  0
  2  3  2  0
  2  4  1  0
  4  5  1  0
  5  6  1  0
  6  7  1  0
  7  8  1  0
  8  9  2  0
  8 10  1  0
 10 11  1  0
 11 12  1  0
 12 13  2  0
 13 14  1  0
 14 15  2  0
 15 16  1  0
 16 17  1  0
 17 18  2  0
 18 19  1  0
 16 20  1  0
 19 20  2  0
 15 21  1  0
 12 22  1  0
 21 22  2  0
  7 23  1  0
  4 24  1  0
 23 24  1  0
M  END
