piperidine-amides-35130-covalent
     RDKit          3D

 33 36  0  0  0  0  0  0  0  0999 V2000
    7.0380   -3.3160   19.3130 C   0  0  0  0  0  0  0  0  0  0  0  0
    6.3630   -4.1880   20.3140 C   0  0  0  0  0  0  0  0  0  0  0  0
    5.3400   -4.7560   19.9500 O   0  0  0  0  0  0  0  0  0  0  0  0
    6.8900   -4.3890   21.5930 N   0  0  0  0  0  0  0  0  0  0  0  0
    6.2610   -5.3280   22.4780 C   0  0  0  0  0  0  0  0  0  0  0  0
    5.2620   -4.5860   23.3390 C   0  0  0  0  0  0  0  0  0  0  0  0
    5.9610   -3.4250   24.0670 C   0  0  0  0  0  0  0  0  0  0  0  0
    4.9790   -2.7060   24.9410 C   0  0  0  0  0  0  0  0  0  0  0  0
    3.9570   -2.2330   24.4530 O   0  0  0  0  0  0  0  0  0  0  0  0
    5.2000   -2.5800   26.3300 N   0  0  0  0  0  0  0  0  0  0  0  0
    5.5980   -1.3100   26.9090 C   0  0  0  0  0  0  0  0  0  0  0  0
    6.4380   -1.4540   28.1810 C   0  0  0  0  0  0  0  0  0  0  0  0
    6.8810   -0.3590   28.8680 C   0  0  0  0  0  0  0  0  0  0  0  0
    7.6330   -0.5430   30.0160 F   0  0  0  0  0  0  0  0  0  0  0  0
    6.6090    0.9040   28.4700 C   0  0  0  0  0  0  0  0  0  0  0  0
    5.8690    1.0760   27.3370 C   0  0  0  0  0  0  0  0  0  0  0  0
    5.6280    2.3950   26.9830 F   0  0  0  0  0  0  0  0  0  0  0  0
    5.3150   -0.0370   26.4810 C   0  0  0  0  0  0  0  0  0  0  0  0
    5.9580   -3.5930   26.7740 C   0  0  0  0  0  0  0  0  0  0  0  0
    5.3740   -4.4200   27.8450 N   0  0  0  0  0  0  0  0  0  0  0  0
    6.2670   -5.4960   28.2710 C   0  0  0  0  0  0  0  0  0  0  0  0
    5.8990   -6.4710   29.3400 C   0  0  0  0  0  0  0  0  0  0  0  0
    4.6870   -6.9200   29.7600 N   0  0  0  0  0  0  0  0  0  0  0  0
    7.5230   -5.5900   27.6270 N   0  0  0  0  0  0  0  0  0  0  0  0
    7.9220   -4.6670   26.5740 C   0  0  0  0  0  0  0  0  0  0  0  0
    7.1980   -3.6040   26.0530 C   0  0  0  0  0  0  0  0  0  0  0  0
    7.9200   -3.0180   25.1050 N   0  0  0  0  0  0  0  0  0  0  0  0
    9.0760   -3.7180   25.0480 C   0  0  0  0  0  0  0  0  0  0  0  0
    9.0520   -4.7200   25.9730 N   0  0  0  0  0  0  0  0  0  0  0  0
    9.8950   -5.6890   26.4020 C   0  0  0  0  0  0  0  0  0  0  0  0
    9.8650   -5.3440   27.7360 C   0  0  0  0  0  0  0  0  0  0  0  0
    6.6530   -2.5430   23.0670 C   0  0  0  0  0  0  0  0  0  0  0  0
    7.6790   -3.3430   22.2560 C   0  0  0  0  0  0  0  0  0  0  0  0
  1  2  1  0
  2  3  2  0
  2  4  1  0
  4  5  1  0
  5  6  1  0
  6  7  1  0
  7  8  1  0
  8  9  2  0
  8 10  1  0
 10 11  1  0
 11 12  2  0
 12 13  1  0
 13 14  1  0
 13 15  2  0
 15 16  1  0
 16 17  1  0
 11 18  1  0
 16 18  2  0
 10 19  1  0
 19 20  2  0
 20 21  1  0
 21 22  1  0
 22 23  3  0
 21 24  2  0
 24 25  1  0
 19 26  1  0
 25 26  2  0
 26 27  1  0
 27 28  2  0
 25 29  1  0
 28 29  1  0
 29 30  1  0
 30 31  1  0
  7 32  1  0
  4 33  1  0
 32 33  1  0
M  END
