piperidine-amides-32247-covalent
     RDKit          3D

 29 31  0  0  0  0  0  0  0  0999 V2000
    7.0620   -3.3390   19.3610 C   0  0  0  0  0  0  0  0  0  0  0  0
    6.3690   -4.2020   20.3570 C   0  0  0  0  0  0  0  0  0  0  0  0
    5.3680   -4.8380   19.9810 O   0  0  0  0  0  0  0  0  0  0  0  0
    6.8740   -4.3340   21.6770 N   0  0  0  0  0  0  0  0  0  0  0  0
    6.5700   -5.5000   22.4810 C   0  0  0  0  0  0  0  0  0  0  0  0
    6.0500   -5.0440   23.8660 C   0  0  0  0  0  0  0  0  0  0  0  0
    5.9280   -3.5520   23.8790 C   0  0  0  0  0  0  0  0  0  0  0  0
    5.0610   -3.0070   24.9640 C   0  0  0  0  0  0  0  0  0  0  0  0
    4.0100   -2.4870   24.6070 O   0  0  0  0  0  0  0  0  0  0  0  0
    5.4160   -3.0830   26.3050 N   0  0  0  0  0  0  0  0  0  0  0  0
    5.9450   -4.3500   26.7660 C   0  0  0  0  0  0  0  0  0  0  0  0
    5.9040   -4.8800   28.0340 C   0  0  0  0  0  0  0  0  0  0  0  0
    6.7630   -5.9350   28.3640 C   0  0  0  0  0  0  0  0  0  0  0  0
    5.5780   -1.8890   27.1000 C   0  0  0  0  0  0  0  0  0  0  0  0
    5.7220   -1.8290   28.5920 C   0  0  0  0  0  0  0  0  0  0  0  0
    5.9300   -0.5370   29.3610 C   0  0  0  0  0  0  0  0  0  0  0  0
    5.9620    0.6880   28.4750 C   0  0  0  0  0  0  0  0  0  0  0  0
    6.1460    1.8740   29.1600 O   0  0  0  0  0  0  0  0  0  0  0  0
    5.5790    1.7480   30.4130 C   0  0  0  0  0  0  0  0  0  0  0  0
    4.9670    3.0650   30.6990 C   0  0  0  0  0  0  0  0  0  0  0  0
    3.7100    2.6500   31.4540 C   0  0  0  0  0  0  0  0  0  0  0  0
    2.6480    3.3730   32.0360 C   0  0  0  0  0  0  0  0  0  0  0  0
    3.1850    4.8100   31.6490 C   0  0  0  0  0  0  0  0  0  0  0  0
    4.4100    5.2960   30.9110 C   0  0  0  0  0  0  0  0  0  0  0  0
    5.3840    4.3050   30.3910 C   0  0  0  0  0  0  0  0  0  0  0  0
    5.8140    0.5860   27.1060 C   0  0  0  0  0  0  0  0  0  0  0  0
    5.6330   -0.6340   26.4310 C   0  0  0  0  0  0  0  0  0  0  0  0
    7.2310   -2.8760   23.6190 C   0  0  0  0  0  0  0  0  0  0  0  0
    7.6280   -3.2470   22.2240 C   0  0  0  0  0  0  0  0  0  0  0  0
  1  2  1  0
  2  3  2  0
  2  4  1  0
  4  5  1  0
  5  6  1  0
  6  7  1  0
  7  8  1  0
  8  9  2  0
  8 10  1  0
 10 11  1  0
 11 12  1  0
 12 13  1  0
 10 14  1  0
 14 15  2  0
 15 16  1  0
 16 17  2  0
 17 18  1  0
 18 19  1  0
 19 20  1  0
 20 21  2  0
 21 22  1  0
 22 23  2  0
 23 24  1  0
 20 25  1  0
 24 25  2  0
 17 26  1  0
 14 27  1  0
 26 27  2  0
  7 28  1  0
  4 29  1  0
 28 29  1  0
M  END
