piperidine-amides-25524-covalent
     RDKit          3D

 23 25  0  0  0  0  0  0  0  0999 V2000
    7.0520   -3.3550   19.3680 C   0  0  0  0  0  0  0  0  0  0  0  0
    6.4000   -4.2480   20.3610 C   0  0  0  0  0  0  0  0  0  0  0  0
    5.3910   -4.8430   19.9810 O   0  0  0  0  0  0  0  0  0  0  0  0
    6.9490   -4.4320   21.6400 N   0  0  0  0  0  0  0  0  0  0  0  0
    6.7180   -5.6560   22.3790 C   0  0  0  0  0  0  0  0  0  0  0  0
    6.2330   -5.3610   23.7800 C   0  0  0  0  0  0  0  0  0  0  0  0
    6.0560   -3.8580   23.9440 C   0  0  0  0  0  0  0  0  0  0  0  0
    5.4690   -3.5430   25.2700 C   0  0  0  0  0  0  0  0  0  0  0  0
    4.4080   -2.9090   25.2820 O   0  0  0  0  0  0  0  0  0  0  0  0
    6.0290   -3.9120   26.5090 N   0  0  0  0  0  0  0  0  0  0  0  0
    5.4900   -5.0740   27.1950 C   0  0  0  0  0  0  0  0  0  0  0  0
    4.4830   -4.6230   28.2530 C   0  0  0  0  0  0  0  0  0  0  0  0
    3.9550   -3.0170   28.4090 S   0  0  0  0  0  0  0  0  0  0  0  0
    3.7530   -2.5830   29.8240 O   0  0  0  0  0  0  0  0  0  0  0  0
    2.7250   -2.8540   27.5640 O   0  0  0  0  0  0  0  0  0  0  0  0
    5.2380   -2.2140   27.6170 N   0  0  0  0  0  0  0  0  0  0  0  0
    5.3850   -0.8840   28.1920 C   0  0  0  0  0  0  0  0  0  0  0  0
    6.6320   -0.8830   28.7120 C   0  0  0  0  0  0  0  0  0  0  0  0
    7.0240   -2.0780   29.2440 C   0  0  0  0  0  0  0  0  0  0  0  0
    6.7430   -3.4500   28.6920 C   0  0  0  0  0  0  0  0  0  0  0  0
    6.3800   -2.8720   27.3600 C   0  0  1  0  0  0  0  0  0  0  0  0
    7.2820   -3.1030   23.6420 C   0  0  0  0  0  0  0  0  0  0  0  0
    7.6720   -3.3290   22.2310 C   0  0  0  0  0  0  0  0  0  0  0  0
  1  2  1  0
  2  3  2  0
  2  4  1  0
  4  5  1  0
  5  6  1  0
  6  7  1  0
  7  8  1  0
  8  9  2  0
  8 10  1  0
 10 11  1  0
 11 12  1  0
 13 12  1  0
 13 14  2  0
 13 15  2  0
 13 16  1  0
 16 17  1  0
 17 18  1  0
 18 19  1  0
 19 20  1  0
 10 21  1  0
 16 21  1  0
 21 20  1  1
  7 22  1  0
  4 23  1  0
 22 23  1  0
M  END
