piperidine-amides-11295-covalent
     RDKit          3D

 17 17  0  0  0  0  0  0  0  0999 V2000
    7.1200   -3.2890   19.2310 C   0  0  0  0  0  0  0  0  0  0  0  0
    6.3830   -4.0280   20.2580 C   0  0  0  0  0  0  0  0  0  0  0  0
    5.3490   -4.6380   19.9280 O   0  0  0  0  0  0  0  0  0  0  0  0
    6.8490   -4.0940   21.5820 N   0  0  0  0  0  0  0  0  0  0  0  0
    7.7040   -3.0450   22.1220 C   0  0  0  0  0  0  0  0  0  0  0  0
    7.4060   -2.9410   23.5930 C   0  0  0  0  0  0  0  0  0  0  0  0
    6.0660   -3.5230   23.9010 C   0  0  0  0  0  0  0  0  0  0  0  0
    5.5890   -3.2670   25.2810 C   0  0  0  0  0  0  0  0  0  0  0  0
    4.5670   -2.5460   25.4650 O   0  0  0  0  0  0  0  0  0  0  0  0
    6.1990   -3.7850   26.4400 N   0  0  0  0  0  0  0  0  0  0  0  0
    5.5430   -4.8880   27.1770 C   0  0  1  0  0  0  0  0  0  0  0  0
    5.1930   -5.9140   26.2130 C   0  0  0  0  0  0  0  0  0  0  0  0
    6.4570   -5.6400   28.1300 C   0  0  0  0  0  0  0  0  0  0  0  0
    7.0050   -4.4630   28.8200 C   0  0  0  0  0  0  0  0  0  0  0  0
    5.7190   -6.5150   29.0890 C   0  0  0  0  0  0  0  0  0  0  0  0
    6.0970   -4.9820   23.5990 C   0  0  0  0  0  0  0  0  0  0  0  0
    6.5010   -5.2710   22.3260 C   0  0  0  0  0  0  0  0  0  0  0  0
  1  2  1  0
  2  3  2  0
  2  4  1  0
  4  5  1  0
  5  6  1  0
  6  7  1  0
  7  8  1  0
  8  9  2  0
  8 10  1  0
 10 11  1  0
 11 12  1  6
 11 13  1  0
 13 14  1  0
 13 15  1  0
  7 16  1  0
  4 17  1  0
 16 17  1  0
M  END
