piperidine-amides-7120-covalent
     RDKit          3D

 22 24  0  0  0  0  0  0  0  0999 V2000
    7.1640   -3.2730   19.1690 C   0  0  0  0  0  0  0  0  0  0  0  0
    6.3440   -3.9550   20.1960 C   0  0  0  0  0  0  0  0  0  0  0  0
    5.2960   -4.5610   19.8840 O   0  0  0  0  0  0  0  0  0  0  0  0
    6.7490   -3.9610   21.5330 N   0  0  0  0  0  0  0  0  0  0  0  0
    6.5420   -5.1650   22.3190 C   0  0  0  0  0  0  0  0  0  0  0  0
    5.7040   -4.7780   23.5470 C   0  0  0  0  0  0  0  0  0  0  0  0
    6.1410   -3.3840   23.9470 C   0  0  0  0  0  0  0  0  0  0  0  0
    5.9800   -3.1870   25.3950 C   0  0  0  0  0  0  0  0  0  0  0  0
    4.8230   -3.0620   25.8550 O   0  0  0  0  0  0  0  0  0  0  0  0
    7.1570   -3.1310   26.1920 N   0  0  0  0  0  0  0  0  0  0  0  0
    7.0870   -3.1480   27.6250 C   0  0  0  0  0  0  0  0  0  0  0  0
    6.7840   -4.5610   28.0600 C   0  0  0  0  0  0  0  0  0  0  0  0
    7.8810   -5.4960   27.9440 N   0  0  0  0  0  0  0  0  0  0  0  0
    7.4450   -6.6750   28.3590 N   0  0  0  0  0  0  0  0  0  0  0  0
    6.1400   -6.4870   28.7170 C   0  0  0  0  0  0  0  0  0  0  0  0
    5.2710   -7.4560   29.2120 C   0  0  0  0  0  0  0  0  0  0  0  0
    3.9530   -7.1310   29.5420 C   0  0  0  0  0  0  0  0  0  0  0  0
    3.5410   -5.8500   29.3690 C   0  0  0  0  0  0  0  0  0  0  0  0
    4.4960   -4.8350   28.8360 C   0  0  0  0  0  0  0  0  0  0  0  0
    5.7470   -5.2120   28.5370 N   0  0  0  0  0  0  0  0  0  0  0  0
    7.5230   -3.0680   23.5250 C   0  0  0  0  0  0  0  0  0  0  0  0
    7.5730   -2.8850   22.0560 C   0  0  0  0  0  0  0  0  0  0  0  0
  1  2  1  0
  2  3  2  0
  2  4  1  0
  4  5  1  0
  5  6  1  0
  6  7  1  0
  7  8  1  0
  8  9  2  0
  8 10  1  0
 10 11  1  0
 11 12  1  0
 12 13  2  0
 13 14  1  0
 14 15  2  0
 15 16  1  0
 16 17  2  0
 17 18  1  0
 18 19  2  0
 12 20  1  0
 15 20  1  0
 19 20  1  0
  7 21  1  0
  4 22  1  0
 21 22  1  0
M  END
