piperidine-amides-12475-covalent
     RDKit          3D

 24 25  0  0  0  0  0  0  0  0999 V2000
    7.1170   -3.2830   19.2880 C   0  0  0  0  0  0  0  0  0  0  0  0
    6.3620   -4.0790   20.2490 C   0  0  0  0  0  0  0  0  0  0  0  0
    5.3150   -4.6290   19.9120 O   0  0  0  0  0  0  0  0  0  0  0  0
    6.8560   -4.2720   21.5800 N   0  0  0  0  0  0  0  0  0  0  0  0
    6.5760   -5.5090   22.2610 C   0  0  0  0  0  0  0  0  0  0  0  0
    6.1550   -5.2500   23.6800 C   0  0  0  0  0  0  0  0  0  0  0  0
    5.9680   -3.7510   23.8660 C   0  0  0  0  0  0  0  0  0  0  0  0
    5.4340   -3.4390   25.2140 C   0  0  0  0  0  0  0  0  0  0  0  0
    4.2350   -3.1720   25.4010 O   0  0  0  0  0  0  0  0  0  0  0  0
    6.2890   -3.4480   26.3290 N   0  0  0  0  0  0  0  0  0  0  0  0
    6.5470   -2.2050   27.0080 C   0  0  0  0  0  0  0  0  0  0  0  0
    5.3410   -1.2960   26.8930 C   0  0  0  0  0  0  0  0  0  0  0  0
    4.7660   -1.0020   25.6330 C   0  0  0  0  0  0  0  0  0  0  0  0
    3.6390   -0.1600   25.4820 C   0  0  0  0  0  0  0  0  0  0  0  0
    3.0880    0.3930   26.5990 C   0  0  0  0  0  0  0  0  0  0  0  0
    3.7020    0.0730   27.8480 C   0  0  0  0  0  0  0  0  0  0  0  0
    4.7810   -0.7290   28.0380 C   0  0  0  0  0  0  0  0  0  0  0  0
    5.3180   -0.9940   29.1990 O   0  0  0  0  0  0  0  0  0  0  0  0
    5.8230   -0.4730   30.4290 C   0  0  0  0  0  0  0  0  0  0  0  0
    7.0910    0.0790   30.2390 C   0  0  0  0  0  0  0  0  0  0  0  0
    8.0290    0.3110   31.3430 C   0  0  0  0  0  0  0  0  0  0  0  0
    7.5850   -1.1450   29.4770 C   0  0  0  0  0  0  0  0  0  0  0  0
    7.2440   -3.0070   23.5920 C   0  0  0  0  0  0  0  0  0  0  0  0
    7.6360   -3.2340   22.1780 C   0  0  0  0  0  0  0  0  0  0  0  0
  1  2  1  0
  2  3  2  0
  2  4  1  0
  4  5  1  0
  5  6  1  0
  6  7  1  0
  7  8  1  0
  8  9  2  0
  8 10  1  0
 10 11  1  0
 11 12  1  0
 12 13  2  0
 13 14  1  0
 14 15  2  0
 15 16  1  0
 12 17  1  0
 16 17  2  0
 17 18  1  0
 18 19  1  0
 19 20  1  0
 20 21  1  0
 20 22  1  0
  7 23  1  0
  4 24  1  0
 23 24  1  0
M  END
