piperidine-amides-15115-covalent
     RDKit          3D

 19 20  0  0  0  0  0  0  0  0999 V2000
    7.0940   -3.2790   19.2370 C   0  0  0  0  0  0  0  0  0  0  0  0
    6.3740   -4.0600   20.2400 C   0  0  0  0  0  0  0  0  0  0  0  0
    5.3030   -4.5970   19.9050 O   0  0  0  0  0  0  0  0  0  0  0  0
    6.9300   -4.2360   21.5310 N   0  0  0  0  0  0  0  0  0  0  0  0
    7.6880   -3.1760   22.1430 C   0  0  0  0  0  0  0  0  0  0  0  0
    6.9170   -2.6240   23.2990 C   0  0  0  0  0  0  0  0  0  0  0  0
    6.5630   -3.8210   24.1410 C   0  0  0  0  0  0  0  0  0  0  0  0
    5.8010   -3.3820   25.3550 C   0  0  0  0  0  0  0  0  0  0  0  0
    4.5770   -3.3300   25.2510 O   0  0  0  0  0  0  0  0  0  0  0  0
    6.5360   -3.0540   26.4890 N   0  0  0  0  0  0  0  0  0  0  0  0
    6.1480   -3.3810   27.8270 C   0  0  0  0  0  0  0  0  0  0  0  0
    5.7720   -4.7110   28.0890 C   0  0  0  0  0  0  0  0  0  0  0  0
    6.6890   -5.9890   28.6940 S   0  0  0  0  0  0  0  0  0  0  0  0
    5.3400   -7.0170   28.6110 C   0  0  0  0  0  0  0  0  0  0  0  0
    4.2210   -6.3800   28.1330 C   0  0  0  0  0  0  0  0  0  0  0  0
    4.2550   -4.8970   27.7340 C   0  0  0  0  0  0  0  0  0  0  0  0
    2.9820   -3.8390   27.1080 Cl  0  0  0  0  0  0  0  0  0  0  0  0
    5.6940   -4.8330   23.4470 C   0  0  0  0  0  0  0  0  0  0  0  0
    6.4230   -5.3910   22.2850 C   0  0  0  0  0  0  0  0  0  0  0  0
  1  2  1  0
  2  3  2  0
  2  4  1  0
  4  5  1  0
  5  6  1  0
  6  7  1  0
  7  8  1  0
  8  9  2  0
  8 10  1  0
 10 11  1  0
 11 12  1  0
 12 13  1  0
 13 14  1  0
 14 15  2  0
 12 16  2  0
 15 16  1  0
 16 17  1  0
  7 18  1  0
  4 19  1  0
 18 19  1  0
M  END
