piperidine-amides-15234-covalent
     RDKit          3D

 20 21  0  0  0  0  0  0  0  0999 V2000
    7.1210   -3.2780   19.2850 C   0  0  0  0  0  0  0  0  0  0  0  0
    6.3240   -4.0340   20.2640 C   0  0  0  0  0  0  0  0  0  0  0  0
    5.2850   -4.6280   19.9090 O   0  0  0  0  0  0  0  0  0  0  0  0
    6.7460   -4.1330   21.5930 N   0  0  0  0  0  0  0  0  0  0  0  0
    7.6520   -3.1310   22.1270 C   0  0  0  0  0  0  0  0  0  0  0  0
    7.5060   -3.1250   23.6500 C   0  0  0  0  0  0  0  0  0  0  0  0
    6.1060   -3.6170   23.9230 C   0  0  0  0  0  0  0  0  0  0  0  0
    5.6490   -3.3070   25.2900 C   0  0  0  0  0  0  0  0  0  0  0  0
    4.4210   -3.3190   25.5090 O   0  0  0  0  0  0  0  0  0  0  0  0
    6.5830   -3.0080   26.3060 N   0  0  0  0  0  0  0  0  0  0  0  0
    6.2940   -3.3270   27.6790 C   0  0  2  0  0  0  0  0  0  0  0  0
    6.0380   -4.8210   27.7790 C   0  0  0  0  0  0  0  0  0  0  0  0
    6.6730   -5.5400   28.7530 C   0  0  0  0  0  0  0  0  0  0  0  0
    5.2300   -2.4990   28.2430 C   0  0  0  0  0  0  0  0  0  0  0  0
    4.4120   -1.5850   27.5350 N   0  0  0  0  0  0  0  0  0  0  0  0
    3.5350   -1.0080   28.4310 C   0  0  0  0  0  0  0  0  0  0  0  0
    3.8540   -1.5890   29.6420 C   0  0  0  0  0  0  0  0  0  0  0  0
    4.8540   -2.4680   29.5210 N   0  0  0  0  0  0  0  0  0  0  0  0
    6.1080   -5.1300   23.7230 C   0  0  0  0  0  0  0  0  0  0  0  0
    6.6340   -5.3730   22.3340 C   0  0  0  0  0  0  0  0  0  0  0  0
  1  2  1  0
  2  3  2  0
  2  4  1  0
  4  5  1  0
  5  6  1  0
  6  7  1  0
  7  8  1  0
  8  9  2  0
  8 10  1  0
 10 11  1  0
 11 12  1  6
 12 13  1  0
 11 14  1  0
 14 15  2  0
 15 16  1  0
 16 17  2  0
 14 18  1  0
 17 18  1  0
  7 19  1  0
  4 20  1  0
 19 20  1  0
M  END
