piperidine-amides-18891-covalent
     RDKit          3D

 21 21  0  0  0  0  0  0  0  0999 V2000
    7.0710   -3.3790   19.3180 C   0  0  0  0  0  0  0  0  0  0  0  0
    6.3340   -4.1110   20.3260 C   0  0  0  0  0  0  0  0  0  0  0  0
    5.2790   -4.6980   19.9380 O   0  0  0  0  0  0  0  0  0  0  0  0
    6.7470   -4.2530   21.6730 N   0  0  0  0  0  0  0  0  0  0  0  0
    7.6780   -3.1960   22.1830 C   0  0  0  0  0  0  0  0  0  0  0  0
    7.5850   -3.3360   23.7550 C   0  0  0  0  0  0  0  0  0  0  0  0
    6.2000   -3.8570   24.0040 C   0  0  0  0  0  0  0  0  0  0  0  0
    5.4650   -3.0430   25.1650 C   0  0  0  0  0  0  0  0  0  0  0  0
    4.8980   -2.0930   24.6540 O   0  0  0  0  0  0  0  0  0  0  0  0
    5.5960   -3.5300   26.3450 N   0  0  0  0  0  0  0  0  0  0  0  0
    5.3550   -3.6330   27.6830 C   0  0  0  0  0  0  0  0  0  0  0  0
    4.2610   -3.8610   28.4800 C   0  0  0  0  0  0  0  0  0  0  0  0
    3.9000   -2.8850   29.4190 O   0  0  0  0  0  0  0  0  0  0  0  0
    3.5510   -5.0140   28.3430 O   0  0  0  0  0  0  0  0  0  0  0  0
    3.2760   -5.7960   29.4990 C   0  0  0  0  0  0  0  0  0  0  0  0
    6.5880   -4.6550   26.4780 C   0  0  2  0  0  0  0  0  0  0  0  0
    5.8440   -5.9380   26.8020 C   0  0  0  0  0  0  0  0  0  0  0  0
    6.7930   -5.3040   27.8890 C   0  0  0  0  0  0  0  0  0  0  0  0
    6.1420   -6.4800   28.2870 C   0  0  0  0  0  0  0  0  0  0  0  0
    5.9890   -5.2430   23.7560 C   0  0  0  0  0  0  0  0  0  0  0  0
    6.6720   -5.4910   22.3700 C   0  0  0  0  0  0  0  0  0  0  0  0
  1  2  1  0
  2  3  2  0
  2  4  1  0
  4  5  1  0
  5  6  1  0
  6  7  1  0
  7  8  1  0
  8  9  2  0
  8 10  1  0
 10 11  1  0
 11 12  1  0
 12 13  2  0
 12 14  1  0
 14 15  1  0
 10 16  1  0
 16 17  1  6
 16 18  1  0
 18 19  1  0
  7 20  1  0
  4 21  1  0
 20 21  1  0
M  END
