piperidine-amides-19705-covalent
     RDKit          3D

 22 23  0  0  0  0  0  0  0  0999 V2000
    7.0530   -3.2920   19.2750 C   0  0  0  0  0  0  0  0  0  0  0  0
    6.3400   -4.0860   20.3130 C   0  0  0  0  0  0  0  0  0  0  0  0
    5.3360   -4.6940   19.9400 O   0  0  0  0  0  0  0  0  0  0  0  0
    6.8240   -4.1620   21.6330 N   0  0  0  0  0  0  0  0  0  0  0  0
    6.6830   -5.3840   22.3840 C   0  0  0  0  0  0  0  0  0  0  0  0
    6.0950   -5.0870   23.7360 C   0  0  0  0  0  0  0  0  0  0  0  0
    6.0960   -3.5760   23.9940 C   0  0  0  0  0  0  0  0  0  0  0  0
    5.6020   -3.3510   25.3770 C   0  0  0  0  0  0  0  0  0  0  0  0
    4.3910   -3.4730   25.5840 O   0  0  0  0  0  0  0  0  0  0  0  0
    6.4390   -2.9940   26.4620 N   0  0  0  0  0  0  0  0  0  0  0  0
    6.4570   -3.9100   27.5890 C   0  0  0  0  0  0  0  0  0  0  0  0
    6.6240   -1.6010   26.7060 C   0  0  0  0  0  0  0  0  0  0  0  0
    6.3870   -1.2770   28.0150 C   0  0  0  0  0  0  0  0  0  0  0  0
    7.3360   -1.1350   28.9890 C   0  0  0  0  0  0  0  0  0  0  0  0
    7.0720   -0.8040   30.2930 C   0  0  0  0  0  0  0  0  0  0  0  0
    5.7280   -0.5280   30.9420 C   0  0  0  0  0  0  0  0  0  0  0  0
    5.4530   -0.1900   32.2710 F   0  0  0  0  0  0  0  0  0  0  0  0
    4.7010   -0.6870   29.8760 C   0  0  0  0  0  0  0  0  0  0  0  0
    3.2720   -0.4650   30.2790 C   0  0  0  0  0  0  0  0  0  0  0  0
    4.9460   -1.0450   28.4440 C   0  0  0  0  0  0  0  0  0  0  0  0
    7.4020   -2.9300   23.6450 C   0  0  0  0  0  0  0  0  0  0  0  0
    7.6720   -3.1000   22.1570 C   0  0  0  0  0  0  0  0  0  0  0  0
  1  2  1  0
  2  3  2  0
  2  4  1  0
  4  5  1  0
  5  6  1  0
  6  7  1  0
  7  8  1  0
  8  9  2  0
  8 10  1  0
 10 11  1  0
 10 12  1  0
 12 13  1  0
 13 14  2  0
 14 15  1  0
 15 16  2  0
 16 17  1  0
 16 18  1  0
 18 19  1  0
 13 20  1  0
 18 20  2  0
  7 21  1  0
  4 22  1  0
 21 22  1  0
M  END
