piperidine-amides-17251-covalent
     RDKit          3D

 20 21  0  0  0  0  0  0  0  0999 V2000
    7.0850   -3.4030   19.4200 C   0  0  0  0  0  0  0  0  0  0  0  0
    6.4090   -4.2580   20.4070 C   0  0  0  0  0  0  0  0  0  0  0  0
    5.4010   -4.8920   20.0020 O   0  0  0  0  0  0  0  0  0  0  0  0
    6.9270   -4.3870   21.7290 N   0  0  0  0  0  0  0  0  0  0  0  0
    6.5860   -5.5310   22.5160 C   0  0  0  0  0  0  0  0  0  0  0  0
    6.0790   -5.1770   23.8430 C   0  0  0  0  0  0  0  0  0  0  0  0
    6.0360   -3.7170   24.0340 C   0  0  0  0  0  0  0  0  0  0  0  0
    5.3160   -3.2330   25.2750 C   0  0  0  0  0  0  0  0  0  0  0  0
    4.5370   -2.2820   25.1250 O   0  0  0  0  0  0  0  0  0  0  0  0
    5.4200   -3.7460   26.5850 N   0  0  0  0  0  0  0  0  0  0  0  0
    6.4440   -3.4710   27.4540 C   0  0  0  0  0  0  0  0  0  0  0  0
    6.8440   -4.5380   28.3600 C   0  0  0  0  0  0  0  0  0  0  0  0
    5.5900   -4.8060   29.1230 C   0  0  0  0  0  0  0  0  0  0  0  0
    5.4480   -3.6910   29.9050 O   0  0  0  0  0  0  0  0  0  0  0  0
    5.4780   -6.0320   29.7690 C   0  0  0  0  0  0  0  0  0  0  0  0
    4.2650   -5.5270   30.5640 C   0  0  0  0  0  0  0  0  0  0  0  0
    4.4390   -5.0420   28.2580 C   0  0  0  0  0  0  0  0  0  0  0  0
    4.2000   -3.8420   27.3260 C   0  0  0  0  0  0  0  0  0  0  0  0
    7.3600   -3.0520   23.7690 C   0  0  0  0  0  0  0  0  0  0  0  0
    7.7170   -3.3040   22.3090 C   0  0  0  0  0  0  0  0  0  0  0  0
  1  2  1  0
  2  3  2  0
  2  4  1  0
  4  5  1  0
  5  6  1  0
  6  7  1  0
  7  8  1  0
  8  9  2  0
  8 10  1  0
 10 11  1  0
 11 12  1  0
 12 13  1  0
 13 14  1  0
 13 15  1  0
 15 16  1  0
 13 17  1  0
 10 18  1  0
 17 18  1  0
  7 19  1  0
  4 20  1  0
 19 20  1  0
M  END
