piperidine-amides-31911-covalent
     RDKit          3D

 29 32  0  0  0  0  0  0  0  0999 V2000
    7.1260   -3.3660   19.4850 C   0  0  0  0  0  0  0  0  0  0  0  0
    6.4030   -4.1740   20.4370 C   0  0  0  0  0  0  0  0  0  0  0  0
    5.4440   -4.9000   20.0030 O   0  0  0  0  0  0  0  0  0  0  0  0
    6.7540   -4.2060   21.8110 N   0  0  0  0  0  0  0  0  0  0  0  0
    6.6310   -5.5380   22.4720 C   0  0  0  0  0  0  0  0  0  0  0  0
    6.1710   -5.2420   23.9740 C   0  0  0  0  0  0  0  0  0  0  0  0
    6.0970   -3.7440   24.1580 C   0  0  0  0  0  0  0  0  0  0  0  0
    5.0540   -3.2240   25.2820 C   0  0  0  0  0  0  0  0  0  0  0  0
    3.9980   -3.0420   24.7110 O   0  0  0  0  0  0  0  0  0  0  0  0
    5.4940   -3.1110   26.4900 N   0  0  0  0  0  0  0  0  0  0  0  0
    5.7070   -2.6310   27.7480 C   0  0  0  0  0  0  0  0  0  0  0  0
    5.5770   -3.1380   29.0180 C   0  0  0  0  0  0  0  0  0  0  0  0
    4.9480   -4.4460   28.8720 N   0  0  0  0  0  0  0  0  0  0  0  0
    4.1930   -5.0760   29.8070 C   0  0  0  0  0  0  0  0  0  0  0  0
    4.0490   -6.5280   29.6380 C   0  0  0  0  0  0  0  0  0  0  0  0
    4.5720   -7.5320   28.6100 C   0  0  0  0  0  0  0  0  0  0  0  0
    3.6930   -7.5640   27.5960 N   0  0  0  0  0  0  0  0  0  0  0  0
    3.2380   -7.3890   30.5970 C   0  0  0  0  0  0  0  0  0  0  0  0
    2.6150   -6.6770   31.6920 N   0  0  0  0  0  0  0  0  0  0  0  0
    2.7300   -5.3330   31.8690 C   0  0  0  0  0  0  0  0  0  0  0  0
    2.0380   -4.6650   33.0490 C   0  0  0  0  0  0  0  0  0  0  0  0
    2.1980   -3.1550   33.2010 C   0  0  0  0  0  0  0  0  0  0  0  0
    2.9360   -2.4880   32.2920 C   0  0  0  0  0  0  0  0  0  0  0  0
    3.5570   -3.1150   31.2270 C   0  0  0  0  0  0  0  0  0  0  0  0
    3.4640   -4.4910   31.0160 C   0  0  0  0  0  0  0  0  0  0  0  0
    5.6780   -5.2040   27.8870 C   0  0  0  0  0  0  0  0  0  0  0  0
    6.1010   -4.3010   26.9270 C   0  0  0  0  0  0  0  0  0  0  0  0
    7.3200   -2.9770   23.8410 C   0  0  0  0  0  0  0  0  0  0  0  0
    7.6690   -3.2510   22.4100 C   0  0  0  0  0  0  0  0  0  0  0  0
  1  2  1  0
  2  3  2  0
  2  4  1  0
  4  5  1  0
  5  6  1  0
  6  7  1  0
  7  8  1  0
  8  9  2  0
  8 10  1  0
 10 11  1  0
 11 12  1  0
 12 13  1  0
 13 14  1  0
 14 15  2  0
 15 16  1  0
 16 17  3  0
 15 18  1  0
 18 19  2  0
 19 20  1  0
 20 21  1  0
 21 22  2  0
 22 23  1  0
 23 24  2  0
 14 25  1  0
 20 25  2  0
 24 25  1  0
 13 26  1  0
 10 27  1  0
 26 27  1  0
  7 28  1  0
  4 29  1  0
 28 29  1  0
M  END
