piperidine-amides-4478-covalent
     RDKit          3D

 25 27  0  0  0  0  0  0  0  0999 V2000
    7.1050   -3.2970   19.1810 C   0  0  0  0  0  0  0  0  0  0  0  0
    6.3330   -4.0160   20.2150 C   0  0  0  0  0  0  0  0  0  0  0  0
    5.2430   -4.4960   19.8590 O   0  0  0  0  0  0  0  0  0  0  0  0
    6.8500   -4.2060   21.5020 N   0  0  0  0  0  0  0  0  0  0  0  0
    6.4530   -5.3390   22.2660 C   0  0  0  0  0  0  0  0  0  0  0  0
    5.9500   -5.0010   23.6040 C   0  0  0  0  0  0  0  0  0  0  0  0
    6.6070   -3.8410   24.2580 C   0  0  0  0  0  0  0  0  0  0  0  0
    5.8390   -3.3770   25.4500 C   0  0  0  0  0  0  0  0  0  0  0  0
    4.6120   -3.2040   25.3190 O   0  0  0  0  0  0  0  0  0  0  0  0
    6.4570   -3.1160   26.6970 N   0  0  0  0  0  0  0  0  0  0  0  0
    6.3510   -4.0010   27.8980 C   0  0  2  0  0  0  0  0  0  0  0  0
    6.0230   -5.4260   27.5710 C   0  0  0  0  0  0  0  0  0  0  0  0
    5.4410   -3.4420   28.9060 C   0  0  0  0  0  0  0  0  0  0  0  0
    4.6240   -4.1420   29.8280 N   0  0  0  0  0  0  0  0  0  0  0  0
    3.8290   -3.4380   30.7280 C   0  0  0  0  0  0  0  0  0  0  0  0
    3.0220   -4.0600   31.6550 C   0  0  0  0  0  0  0  0  0  0  0  0
    2.9360   -5.4300   31.6260 C   0  0  0  0  0  0  0  0  0  0  0  0
    2.1450   -6.1130   32.5320 C   0  0  0  0  0  0  0  0  0  0  0  0
    1.4230   -5.4640   33.5010 C   0  0  0  0  0  0  0  0  0  0  0  0
    1.4990   -4.0840   33.5470 C   0  0  0  0  0  0  0  0  0  0  0  0
    2.3300   -3.3530   32.5950 C   0  0  0  0  0  0  0  0  0  0  0  0
    3.9170   -2.0690   30.6170 C   0  0  0  0  0  0  0  0  0  0  0  0
    5.0570   -1.8340   29.3350 S   0  0  0  0  0  0  0  0  0  0  0  0
    6.8800   -2.7150   23.2560 C   0  0  0  0  0  0  0  0  0  0  0  0
    7.6380   -3.1980   22.1760 C   0  0  0  0  0  0  0  0  0  0  0  0
  1  2  1  0
  2  3  2  0
  2  4  1  0
  4  5  1  0
  5  6  1  0
  6  7  1  0
  7  8  1  0
  8  9  2  0
  8 10  1  0
 10 11  1  0
 11 12  1  6
 11 13  1  0
 13 14  2  0
 14 15  1  0
 15 16  1  0
 16 17  2  0
 17 18  1  0
 18 19  2  0
 19 20  1  0
 16 21  1  0
 20 21  2  0
 15 22  2  0
 13 23  1  0
 22 23  1  0
  7 24  1  0
  4 25  1  0
 24 25  1  0
M  END
