piperidine-amides-26886-covalent
     RDKit          3D

 24 25  0  0  0  0  0  0  0  0999 V2000
    7.1240   -3.2850   19.2270 C   0  0  0  0  0  0  0  0  0  0  0  0
    6.3390   -3.9990   20.2300 C   0  0  0  0  0  0  0  0  0  0  0  0
    5.2430   -4.4860   19.8550 O   0  0  0  0  0  0  0  0  0  0  0  0
    6.8410   -4.1650   21.5180 N   0  0  0  0  0  0  0  0  0  0  0  0
    7.6480   -3.1490   22.1530 C   0  0  0  0  0  0  0  0  0  0  0  0
    6.9450   -2.7000   23.4030 C   0  0  0  0  0  0  0  0  0  0  0  0
    6.5890   -3.8690   24.2820 C   0  0  0  0  0  0  0  0  0  0  0  0
    5.8140   -3.3970   25.4600 C   0  0  0  0  0  0  0  0  0  0  0  0
    4.5680   -3.4890   25.4010 O   0  0  0  0  0  0  0  0  0  0  0  0
    6.3930   -2.8480   26.6270 N   0  0  0  0  0  0  0  0  0  0  0  0
    6.7590   -1.4550   26.5880 C   0  0  0  0  0  0  0  0  0  0  0  0
    5.5330   -0.5580   26.6800 C   0  0  0  0  0  0  0  0  0  0  0  0
    5.6110    0.8130   26.5880 C   0  0  0  0  0  0  0  0  0  0  0  0
    4.4850    1.5790   26.6760 C   0  0  0  0  0  0  0  0  0  0  0  0
    3.2310    1.0560   26.8570 C   0  0  0  0  0  0  0  0  0  0  0  0
    3.1250   -0.3150   26.9510 C   0  0  0  0  0  0  0  0  0  0  0  0
    1.5600   -1.0740   27.1850 Cl  0  0  0  0  0  0  0  0  0  0  0  0
    4.2660   -1.1100   26.8640 C   0  0  0  0  0  0  0  0  0  0  0  0
    6.2220   -3.4710   27.8970 C   0  0  0  0  0  0  0  0  0  0  0  0
    5.7940   -4.9320   28.0550 C   0  0  0  0  0  0  0  0  0  0  0  0
    6.6240   -5.7690   29.0010 C   0  0  0  0  0  0  0  0  0  0  0  0
    5.7250   -5.8400   26.7740 C   0  0  0  0  0  0  0  0  0  0  0  0
    5.8210   -4.9320   23.5760 C   0  0  0  0  0  0  0  0  0  0  0  0
    6.4690   -5.3240   22.2670 C   0  0  0  0  0  0  0  0  0  0  0  0
  1  2  1  0
  2  3  2  0
  2  4  1  0
  4  5  1  0
  5  6  1  0
  6  7  1  0
  7  8  1  0
  8  9  2  0
  8 10  1  0
 10 11  1  0
 11 12  1  0
 12 13  2  0
 13 14  1  0
 14 15  2  0
 15 16  1  0
 16 17  1  0
 12 18  1  0
 16 18  2  0
 10 19  1  0
 19 20  1  0
 20 21  1  0
 20 22  1  0
  7 23  1  0
  4 24  1  0
 23 24  1  0
M  END
