piperidine-amides-28821-covalent
     RDKit          3D

 26 28  0  0  0  0  0  0  0  0999 V2000
    7.0720   -3.3340   19.3100 C   0  0  0  0  0  0  0  0  0  0  0  0
    6.3290   -4.1170   20.2930 C   0  0  0  0  0  0  0  0  0  0  0  0
    5.3000   -4.7070   19.9310 O   0  0  0  0  0  0  0  0  0  0  0  0
    6.8190   -4.2280   21.6120 N   0  0  0  0  0  0  0  0  0  0  0  0
    6.5310   -5.4210   22.3490 C   0  0  0  0  0  0  0  0  0  0  0  0
    6.0880   -5.0670   23.7450 C   0  0  0  0  0  0  0  0  0  0  0  0
    5.8970   -3.5580   23.8130 C   0  0  0  0  0  0  0  0  0  0  0  0
    5.1620   -3.1030   25.0580 C   0  0  0  0  0  0  0  0  0  0  0  0
    4.0270   -2.6860   24.8740 O   0  0  0  0  0  0  0  0  0  0  0  0
    5.7540   -3.1710   26.3120 N   0  0  0  0  0  0  0  0  0  0  0  0
    4.9550   -3.0030   27.4920 C   0  0  0  0  0  0  0  0  0  0  0  0
    4.7070   -4.1760   28.2280 C   0  0  0  0  0  0  0  0  0  0  0  0
    5.5680   -5.1990   27.9790 C   0  0  0  0  0  0  0  0  0  0  0  0
    6.7770   -4.8720   27.4480 C   0  0  1  0  0  0  0  0  0  0  0  0
    7.1840   -4.2260   28.6350 C   0  0  0  0  0  0  0  0  0  0  0  0
    6.4250   -3.2340   29.1970 O   0  0  0  0  0  0  0  0  0  0  0  0
    8.3380   -4.6480   29.0900 O   0  0  0  0  0  0  0  0  0  0  0  0
    9.3810   -4.0450   28.4730 C   0  0  0  0  0  0  0  0  0  0  0  0
    9.9030   -5.0600   27.5750 C   0  0  0  0  0  0  0  0  0  0  0  0
    7.6050   -5.9050   27.0140 C   0  0  0  0  0  0  0  0  0  0  0  0
    8.5550   -5.6640   25.7870 C   0  0  0  0  0  0  0  0  0  0  0  0
    8.9800   -4.3830   25.5760 C   0  0  0  0  0  0  0  0  0  0  0  0
    8.1080   -3.4550   26.0340 C   0  0  0  0  0  0  0  0  0  0  0  0
    6.8040   -4.1180   26.3390 C   0  0  2  0  0  0  0  0  0  0  0  0
    7.2520   -2.8750   23.5970 C   0  0  0  0  0  0  0  0  0  0  0  0
    7.6480   -3.2090   22.1820 C   0  0  0  0  0  0  0  0  0  0  0  0
  1  2  1  0
  2  3  2  0
  2  4  1  0
  4  5  1  0
  5  6  1  0
  6  7  1  0
  7  8  1  0
  8  9  2  0
  8 10  1  0
 10 11  1  0
 11 12  1  0
 12 13  1  0
 13 14  1  0
 14 15  1  1
 15 16  2  0
 15 17  1  0
 17 18  1  0
 18 19  1  0
 14 20  1  0
 20 21  1  0
 21 22  1  0
 22 23  1  0
 10 24  1  0
 14 24  1  0
 24 23  1  1
  7 25  1  0
  4 26  1  0
 25 26  1  0
M  END
