piperidine-amides-27850-covalent
     RDKit          3D

 26 28  0  0  0  0  0  0  0  0999 V2000
    7.0970   -3.3100   19.2420 C   0  0  0  0  0  0  0  0  0  0  0  0
    6.3870   -4.1240   20.2510 C   0  0  0  0  0  0  0  0  0  0  0  0
    5.3090   -4.6460   19.9100 O   0  0  0  0  0  0  0  0  0  0  0  0
    6.9580   -4.3310   21.5070 N   0  0  0  0  0  0  0  0  0  0  0  0
    6.5640   -5.4690   22.2660 C   0  0  0  0  0  0  0  0  0  0  0  0
    5.7950   -5.0950   23.4470 C   0  0  0  0  0  0  0  0  0  0  0  0
    5.6750   -3.6260   23.6190 C   0  0  0  0  0  0  0  0  0  0  0  0
    5.0410   -3.3050   24.9140 C   0  0  0  0  0  0  0  0  0  0  0  0
    3.8090   -3.1880   24.9410 O   0  0  0  0  0  0  0  0  0  0  0  0
    5.7400   -3.1250   26.0920 N   0  0  0  0  0  0  0  0  0  0  0  0
    5.1040   -2.3230   27.1800 C   0  0  0  0  0  0  0  0  0  0  0  0
    5.0030   -3.0370   28.4930 C   0  0  0  0  0  0  0  0  0  0  0  0
    5.3620   -4.4250   28.5500 C   0  0  0  0  0  0  0  0  0  0  0  0
    6.3130   -4.8240   27.6810 C   0  0  0  0  0  0  0  0  0  0  0  0
    7.0970   -5.8360   27.9800 C   0  0  0  0  0  0  0  0  0  0  0  0
    6.8310   -6.4250   29.1550 C   0  0  0  0  0  0  0  0  0  0  0  0
    6.5830   -5.5570   30.1960 O   0  0  0  0  0  0  0  0  0  0  0  0
    6.6220   -7.7740   29.3400 O   0  0  0  0  0  0  0  0  0  0  0  0
    5.2630   -7.8420   29.5800 C   0  0  0  0  0  0  0  0  0  0  0  0
    8.1100   -6.3180   27.2230 C   0  0  0  0  0  0  0  0  0  0  0  0
    8.4890   -5.8790   25.9920 C   0  0  0  0  0  0  0  0  0  0  0  0
    7.6950   -4.7870   25.5230 C   0  0  0  0  0  0  0  0  0  0  0  0
    8.0250   -4.2210   24.1800 C   0  0  0  0  0  0  0  0  0  0  0  0
    6.5840   -4.2300   26.3960 C   0  0  0  0  0  0  0  0  0  0  0  0
    6.8550   -2.7810   23.3300 C   0  0  0  0  0  0  0  0  0  0  0  0
    7.6940   -3.2620   22.1610 C   0  0  0  0  0  0  0  0  0  0  0  0
  1  2  1  0
  2  3  2  0
  2  4  1  0
  4  5  1  0
  5  6  1  0
  6  7  1  0
  7  8  1  0
  8  9  2  0
  8 10  1  0
 10 11  1  0
 11 12  1  0
 12 13  1  0
 13 14  1  0
 14 15  2  0
 15 16  1  0
 16 17  2  0
 16 18  1  0
 18 19  1  0
 15 20  1  0
 20 21  2  0
 21 22  1  0
 22 23  1  0
 10 24  1  0
 14 24  1  0
 22 24  2  0
  7 25  1  0
  4 26  1  0
 25 26  1  0
M  END
