piperidine-amides-29591-covalent
     RDKit          3D

 27 29  0  0  0  0  0  0  0  0999 V2000
    6.9620   -3.3240   19.2420 C   0  0  0  0  0  0  0  0  0  0  0  0
    6.1960   -4.0860   20.2390 C   0  0  0  0  0  0  0  0  0  0  0  0
    5.2100   -4.7170   19.9010 O   0  0  0  0  0  0  0  0  0  0  0  0
    6.5780   -4.1450   21.6080 N   0  0  0  0  0  0  0  0  0  0  0  0
    7.3090   -3.0480   22.1730 C   0  0  0  0  0  0  0  0  0  0  0  0
    6.6620   -2.5240   23.4200 C   0  0  0  0  0  0  0  0  0  0  0  0
    5.7690   -3.5940   24.0180 C   0  0  0  0  0  0  0  0  0  0  0  0
    5.5720   -3.3310   25.4750 C   0  0  0  0  0  0  0  0  0  0  0  0
    4.4360   -3.4200   25.9810 O   0  0  0  0  0  0  0  0  0  0  0  0
    6.6590   -2.9490   26.3150 N   0  0  0  0  0  0  0  0  0  0  0  0
    7.4540   -4.0170   26.8830 C   0  0  0  0  0  0  0  0  0  0  0  0
    8.4400   -4.4240   25.8320 C   0  0  0  0  0  0  0  0  0  0  0  0
    8.7800   -3.5350   24.8150 C   0  0  0  0  0  0  0  0  0  0  0  0
    8.7440   -3.7930   23.4440 C   0  0  0  0  0  0  0  0  0  0  0  0
    9.1040   -2.9090   22.4320 C   0  0  0  0  0  0  0  0  0  0  0  0
    9.5470   -1.6250   22.7040 N   0  0  0  0  0  0  0  0  0  0  0  0
    9.5930   -1.3090   24.0460 C   0  0  0  0  0  0  0  0  0  0  0  0
    9.2190   -2.2380   25.0140 C   0  0  0  0  0  0  0  0  0  0  0  0
    6.6010   -1.7280   27.0980 C   0  0  0  0  0  0  0  0  0  0  0  0
    7.1340   -1.5770   28.3610 C   0  0  0  0  0  0  0  0  0  0  0  0
    7.1570   -0.4330   29.2860 C   0  0  0  0  0  0  0  0  0  0  0  0
    6.4660    0.5060   28.5140 N   0  0  0  0  0  0  0  0  0  0  0  0
    5.8710    0.5920   27.2920 C   0  0  0  0  0  0  0  0  0  0  0  0
    5.2850    1.7140   26.8830 F   0  0  0  0  0  0  0  0  0  0  0  0
    5.9240   -0.5610   26.5270 C   0  0  0  0  0  0  0  0  0  0  0  0
    6.2790   -5.0130   23.8180 C   0  0  0  0  0  0  0  0  0  0  0  0
    6.4920   -5.3810   22.3420 C   0  0  0  0  0  0  0  0  0  0  0  0
  1  2  1  0
  2  3  2  0
  2  4  1  0
  4  5  1  0
  5  6  1  0
  6  7  1  0
  7  8  1  0
  8  9  2  0
  8 10  1  0
 10 11  1  0
 11 12  1  0
 12 13  1  0
 13 14  2  0
 14 15  1  0
 15 16  2  0
 16 17  1  0
 13 18  1  0
 17 18  2  0
 10 19  1  0
 19 20  2  0
 20 21  1  0
 21 22  2  0
 22 23  1  0
 23 24  1  0
 19 25  1  0
 23 25  2  0
  7 26  1  0
  4 27  1  0
 26 27  1  0
M  END
