piperidine-amides-32650-covalent
     RDKit          3D

 26 27  0  0  0  0  0  0  0  0999 V2000
    7.1510   -3.2680   19.2230 C   0  0  0  0  0  0  0  0  0  0  0  0
    6.3740   -4.0550   20.2180 C   0  0  0  0  0  0  0  0  0  0  0  0
    5.2870   -4.5550   19.8840 O   0  0  0  0  0  0  0  0  0  0  0  0
    6.9230   -4.2640   21.4980 N   0  0  0  0  0  0  0  0  0  0  0  0
    7.7340   -3.2660   22.1440 C   0  0  0  0  0  0  0  0  0  0  0  0
    6.8790   -2.6820   23.2600 C   0  0  0  0  0  0  0  0  0  0  0  0
    6.4840   -3.8060   24.1580 C   0  0  0  0  0  0  0  0  0  0  0  0
    5.6910   -3.3140   25.2980 C   0  0  0  0  0  0  0  0  0  0  0  0
    4.4870   -3.1340   25.0830 O   0  0  0  0  0  0  0  0  0  0  0  0
    6.2730   -3.0850   26.5420 N   0  0  0  0  0  0  0  0  0  0  0  0
    6.0550   -3.9400   27.6520 C   0  0  0  0  0  0  0  0  0  0  0  0
    5.6390   -5.2500   27.4950 C   0  0  0  0  0  0  0  0  0  0  0  0
    5.3480   -6.0280   28.6120 C   0  0  0  0  0  0  0  0  0  0  0  0
    4.8170   -7.2820   28.4510 C   0  0  0  0  0  0  0  0  0  0  0  0
    6.6360   -6.2240   29.2940 C   0  0  0  0  0  0  0  0  0  0  0  0
    6.4160   -1.7250   27.0670 C   0  0  0  0  0  0  0  0  0  0  0  0
    5.8560   -0.6650   26.1110 C   0  0  0  0  0  0  0  0  0  0  0  0
    4.6740   -0.1220   26.3530 C   0  0  0  0  0  0  0  0  0  0  0  0
    4.0320    0.8850   25.5510 C   0  0  0  0  0  0  0  0  0  0  0  0
    4.9010    1.2710   24.3460 C   0  0  0  0  0  0  0  0  0  0  0  0
    4.1550    2.5040   23.3430 Cl  0  0  0  0  0  0  0  0  0  0  0  0
    6.1670    0.8500   23.8710 C   0  0  0  0  0  0  0  0  0  0  0  0
    7.0480    1.3860   22.4570 Cl  0  0  0  0  0  0  0  0  0  0  0  0
    6.5040   -0.2140   24.9910 C   0  0  0  0  0  0  0  0  0  0  0  0
    5.7670   -4.9420   23.4950 C   0  0  0  0  0  0  0  0  0  0  0  0
    6.5520   -5.4150   22.2760 C   0  0  0  0  0  0  0  0  0  0  0  0
  1  2  1  0
  2  3  2  0
  2  4  1  0
  4  5  1  0
  5  6  1  0
  6  7  1  0
  7  8  1  0
  8  9  2  0
  8 10  1  0
 10 11  1  0
 11 12  1  0
 12 13  1  0
 13 14  1  0
 13 15  1  0
 10 16  1  0
 16 17  1  0
 17 18  2  0
 18 19  1  0
 19 20  2  0
 20 21  1  0
 20 22  1  0
 22 23  1  0
 17 24  1  0
 22 24  2  0
  7 25  1  0
  4 26  1  0
 25 26  1  0
M  END
