piperidine-amides-16141-covalent
     RDKit          3D

 19 20  0  0  0  0  0  0  0  0999 V2000
    7.1060   -3.3260   19.3540 C   0  0  0  0  0  0  0  0  0  0  0  0
    6.3780   -4.1470   20.3450 C   0  0  0  0  0  0  0  0  0  0  0  0
    5.3540   -4.7110   19.9530 O   0  0  0  0  0  0  0  0  0  0  0  0
    6.8920   -4.2950   21.6420 N   0  0  0  0  0  0  0  0  0  0  0  0
    7.6790   -3.2610   22.2970 C   0  0  0  0  0  0  0  0  0  0  0  0
    7.1780   -3.0210   23.7050 C   0  0  0  0  0  0  0  0  0  0  0  0
    5.9050   -3.8450   23.8860 C   0  0  0  0  0  0  0  0  0  0  0  0
    5.1710   -3.4880   25.1190 C   0  0  0  0  0  0  0  0  0  0  0  0
    3.9430   -3.6060   25.1000 O   0  0  0  0  0  0  0  0  0  0  0  0
    5.7290   -3.0090   26.3090 N   0  0  0  0  0  0  0  0  0  0  0  0
    5.7020   -4.0430   27.3560 C   0  0  0  0  0  0  0  0  0  0  0  0
    6.6470   -5.1920   27.0210 C   0  0  0  0  0  0  0  0  0  0  0  0
    5.9500   -6.3860   27.0450 O   0  0  0  0  0  0  0  0  0  0  0  0
    5.3830   -1.6340   26.4060 C   0  0  2  0  0  0  0  0  0  0  0  0
    6.2820   -0.8350   26.1780 C   0  0  0  0  0  0  0  0  0  0  0  0
    5.8160   -0.5520   27.4920 C   0  0  2  0  0  0  0  0  0  0  0  0
    5.8300   -1.2130   28.8630 C   0  0  0  0  0  0  0  0  0  0  0  0
    6.1660   -5.2990   23.7110 C   0  0  0  0  0  0  0  0  0  0  0  0
    6.6880   -5.5540   22.3300 C   0  0  0  0  0  0  0  0  0  0  0  0
  1  2  1  0
  2  3  2  0
  2  4  1  0
  4  5  1  0
  5  6  1  0
  6  7  1  0
  7  8  1  0
  8  9  2  0
  8 10  1  0
 10 11  1  0
 11 12  1  0
 12 13  1  0
 14 10  1  1
 14 15  1  0
 14 16  1  0
 15 16  1  0
 16 17  1  1
  7 18  1  0
  4 19  1  0
 18 19  1  0
M  END
