piperidine-amides-8800-covalent
     RDKit          3D

 22 23  0  0  0  0  0  0  0  0999 V2000
    7.1110   -3.2710   19.2400 C   0  0  0  0  0  0  0  0  0  0  0  0
    6.3740   -4.0490   20.2360 C   0  0  0  0  0  0  0  0  0  0  0  0
    5.2980   -4.5670   19.8910 O   0  0  0  0  0  0  0  0  0  0  0  0
    6.9080   -4.2410   21.5330 N   0  0  0  0  0  0  0  0  0  0  0  0
    7.6680   -3.1820   22.1440 C   0  0  0  0  0  0  0  0  0  0  0  0
    6.9130   -2.6330   23.3140 C   0  0  0  0  0  0  0  0  0  0  0  0
    6.6200   -3.8150   24.2000 C   0  0  0  0  0  0  0  0  0  0  0  0
    5.7880   -3.3810   25.3690 C   0  0  0  0  0  0  0  0  0  0  0  0
    4.5930   -3.1810   25.1530 O   0  0  0  0  0  0  0  0  0  0  0  0
    6.4220   -3.2260   26.5960 N   0  0  0  0  0  0  0  0  0  0  0  0
    6.0910   -3.9990   27.7570 C   0  0  0  0  0  0  0  0  0  0  0  0
    5.9810   -5.3940   27.5740 C   0  0  0  0  0  0  0  0  0  0  0  0
    4.8100   -6.0450   27.9050 C   0  0  0  0  0  0  0  0  0  0  0  0
    4.4890   -6.2970   29.2330 C   0  0  2  0  0  0  0  0  0  0  0  0
    3.5030   -7.2750   29.5570 N   0  0  0  0  0  0  0  0  0  0  0  0
    2.5520   -6.7020   30.4570 C   0  0  0  0  0  0  0  0  0  0  0  0
    1.4460   -7.3010   31.0030 O   0  0  0  0  0  0  0  0  0  0  0  0
    2.9790   -5.4820   30.6390 N   0  0  0  0  0  0  0  0  0  0  0  0
    4.1060   -5.1420   29.9630 C   0  0  0  0  0  0  0  0  0  0  0  0
    4.7100   -3.9810   29.9900 O   0  0  0  0  0  0  0  0  0  0  0  0
    5.8720   -4.9240   23.5470 C   0  0  0  0  0  0  0  0  0  0  0  0
    6.4350   -5.3790   22.2360 C   0  0  0  0  0  0  0  0  0  0  0  0
  1  2  1  0
  2  3  2  0
  2  4  1  0
  4  5  1  0
  5  6  1  0
  6  7  1  0
  7  8  1  0
  8  9  2  0
  8 10  1  0
 10 11  1  0
 11 12  1  0
 12 13  1  0
 14 13  1  6
 14 15  1  0
 15 16  1  0
 16 17  2  0
 16 18  1  0
 14 19  1  0
 18 19  1  0
 19 20  2  0
  7 21  1  0
  4 22  1  0
 21 22  1  0
M  END
