piperidine-amides-3170-covalent
     RDKit          3D

 22 23  0  0  0  0  0  0  0  0999 V2000
    7.0900   -3.2910   19.3100 C   0  0  0  0  0  0  0  0  0  0  0  0
    6.3620   -4.0860   20.2940 C   0  0  0  0  0  0  0  0  0  0  0  0
    5.3480   -4.7000   19.9490 O   0  0  0  0  0  0  0  0  0  0  0  0
    6.8500   -4.2010   21.6460 N   0  0  0  0  0  0  0  0  0  0  0  0
    6.5740   -5.3720   22.4230 C   0  0  0  0  0  0  0  0  0  0  0  0
    5.8620   -5.0020   23.6990 C   0  0  0  0  0  0  0  0  0  0  0  0
    6.3430   -3.6520   24.2540 C   0  0  0  0  0  0  0  0  0  0  0  0
    5.2490   -3.1690   25.1570 C   0  0  0  0  0  0  0  0  0  0  0  0
    4.0650   -3.4820   24.9590 O   0  0  0  0  0  0  0  0  0  0  0  0
    5.5150   -2.3350   26.2750 N   0  0  0  0  0  0  0  0  0  0  0  0
    6.4130   -2.8140   27.2740 C   0  0  0  0  0  0  0  0  0  0  0  0
    5.7020   -3.6660   28.2950 C   0  0  0  0  0  0  0  0  0  0  0  0
    6.0540   -4.9910   28.4830 C   0  0  0  0  0  0  0  0  0  0  0  0
    5.4230   -5.8160   29.4220 C   0  0  0  0  0  0  0  0  0  0  0  0
    5.8310   -7.1250   29.5550 C   0  0  0  0  0  0  0  0  0  0  0  0
    4.4100   -5.2750   30.1830 C   0  0  0  0  0  0  0  0  0  0  0  0
    3.8610   -6.1610   31.0660 F   0  0  0  0  0  0  0  0  0  0  0  0
    3.9560   -3.9810   30.1080 C   0  0  0  0  0  0  0  0  0  0  0  0
    2.9600   -3.3560   30.8250 C   0  0  0  0  0  0  0  0  0  0  0  0
    4.6910   -3.1650   29.0730 C   0  0  0  0  0  0  0  0  0  0  0  0
    6.7380   -2.6340   23.2870 C   0  0  0  0  0  0  0  0  0  0  0  0
    7.5730   -3.1490   22.3140 C   0  0  0  0  0  0  0  0  0  0  0  0
  1  2  1  0
  2  3  2  0
  2  4  1  0
  4  5  1  0
  5  6  1  0
  6  7  1  0
  7  8  1  0
  8  9  2  0
  8 10  1  0
 10 11  1  0
 11 12  1  0
 12 13  2  0
 13 14  1  0
 14 15  1  0
 14 16  2  0
 16 17  1  0
 16 18  1  0
 18 19  1  0
 12 20  1  0
 18 20  2  0
  7 21  1  0
  4 22  1  0
 21 22  1  0
M  END
