piperidine-amides-13960-covalent
     RDKit          3D

 26 28  0  0  0  0  0  0  0  0999 V2000
    7.0260   -3.3290   19.3300 C   0  0  0  0  0  0  0  0  0  0  0  0
    6.3380   -4.1830   20.3370 C   0  0  0  0  0  0  0  0  0  0  0  0
    5.3600   -4.8570   19.9780 O   0  0  0  0  0  0  0  0  0  0  0  0
    6.8280   -4.2390   21.6620 N   0  0  0  0  0  0  0  0  0  0  0  0
    7.6320   -3.1660   22.2150 C   0  0  0  0  0  0  0  0  0  0  0  0
    7.5040   -3.2210   23.7400 C   0  0  0  0  0  0  0  0  0  0  0  0
    6.1320   -3.7200   24.0430 C   0  0  0  0  0  0  0  0  0  0  0  0
    5.5650   -3.2090   25.3230 C   0  0  0  0  0  0  0  0  0  0  0  0
    4.3330   -3.1500   25.3670 O   0  0  0  0  0  0  0  0  0  0  0  0
    6.3750   -2.8290   26.4020 N   0  0  0  0  0  0  0  0  0  0  0  0
    6.2260   -1.6710   27.2330 C   0  0  0  0  0  0  0  0  0  0  0  0
    5.9380   -0.4560   26.5870 C   0  0  0  0  0  0  0  0  0  0  0  0
    5.5140    0.6590   27.3290 C   0  0  0  0  0  0  0  0  0  0  0  0
    5.3810    0.0720   28.6180 N   0  0  0  0  0  0  0  0  0  0  0  0
    4.8320    0.7320   29.6720 C   0  0  0  0  0  0  0  0  0  0  0  0
    4.4810    2.0050   29.5680 O   0  0  0  0  0  0  0  0  0  0  0  0
    4.6040    0.0650   30.9870 C   0  0  0  0  0  0  0  0  0  0  0  0
    3.6540   -1.1510   31.1020 C   0  0  0  0  0  0  0  0  0  0  0  0
    3.4270   -1.7730   32.2780 N   0  0  0  0  0  0  0  0  0  0  0  0
    4.0860   -1.2580   33.3240 C   0  0  0  0  0  0  0  0  0  0  0  0
    4.9390   -0.1870   33.2900 C   0  0  0  0  0  0  0  0  0  0  0  0
    5.1750    0.4410   32.1430 N   0  0  0  0  0  0  0  0  0  0  0  0
    5.9100   -1.1810   28.9110 C   0  0  0  0  0  0  0  0  0  0  0  0
    7.2600   -1.4010   28.2840 C   0  0  0  0  0  0  0  0  0  0  0  0
    6.1590   -5.1770   23.8660 C   0  0  0  0  0  0  0  0  0  0  0  0
    6.6470   -5.4510   22.4250 C   0  0  0  0  0  0  0  0  0  0  0  0
  1  2  1  0
  2  3  2  0
  2  4  1  0
  4  5  1  0
  5  6  1  0
  6  7  1  0
  7  8  1  0
  8  9  2  0
  8 10  1  0
 10 11  1  0
 11 12  1  0
 12 13  1  0
 13 14  1  0
 14 15  1  0
 15 16  2  0
 15 17  1  0
 17 18  2  0
 18 19  1  0
 19 20  2  0
 20 21  1  0
 17 22  1  0
 21 22  2  0
 14 23  1  0
 11 24  1  0
 23 24  1  0
  7 25  1  0
  4 26  1  0
 25 26  1  0
M  END
