piperidine-amides-18987-covalent
     RDKit          3D

 21 22  0  0  0  0  0  0  0  0999 V2000
    7.1930   -3.3800   19.4200 C   0  0  0  0  0  0  0  0  0  0  0  0
    6.4850   -4.2000   20.3670 C   0  0  0  0  0  0  0  0  0  0  0  0
    5.4280   -4.8060   19.9840 O   0  0  0  0  0  0  0  0  0  0  0  0
    6.9800   -4.3790   21.6730 N   0  0  0  0  0  0  0  0  0  0  0  0
    6.6430   -5.5980   22.4290 C   0  0  0  0  0  0  0  0  0  0  0  0
    5.7180   -4.9630   23.5340 C   0  0  0  0  0  0  0  0  0  0  0  0
    6.5080   -3.8500   24.2070 C   0  0  0  0  0  0  0  0  0  0  0  0
    5.6960   -3.2600   25.4300 C   0  0  0  0  0  0  0  0  0  0  0  0
    4.8940   -2.4140   25.0630 O   0  0  0  0  0  0  0  0  0  0  0  0
    6.0920   -3.8400   26.4710 N   0  0  0  0  0  0  0  0  0  0  0  0
    6.8290   -4.5480   27.3280 C   0  0  0  0  0  0  0  0  0  0  0  0
    6.4840   -5.5250   28.1200 C   0  0  1  0  0  0  0  0  0  0  0  0
    7.2480   -5.6700   29.2140 F   0  0  0  0  0  0  0  0  0  0  0  0
    5.2700   -4.9730   28.4800 C   0  0  0  0  0  0  0  0  0  0  0  0
    4.9680   -3.8780   27.4970 C   0  0  1  0  0  0  0  0  0  0  0  0
    5.1110   -2.7410   28.5320 C   0  0  0  0  0  0  0  0  0  0  0  0
    6.1510   -2.7150   29.4820 O   0  0  0  0  0  0  0  0  0  0  0  0
    4.3140   -1.7680   28.6060 O   0  0  0  0  0  0  0  0  0  0  0  0
    4.6780   -0.7970   29.5200 C   0  0  0  0  0  0  0  0  0  0  0  0
    6.8980   -2.7220   23.2800 C   0  0  0  0  0  0  0  0  0  0  0  0
    7.8330   -3.3720   22.2860 C   0  0  0  0  0  0  0  0  0  0  0  0
  1  2  1  0
  2  3  2  0
  2  4  1  0
  4  5  1  0
  5  6  1  0
  6  7  1  0
  7  8  1  0
  8  9  2  0
  8 10  1  0
 10 11  1  0
 11 12  1  0
 12 13  1  1
 12 14  1  0
 10 15  1  0
 14 15  1  0
 15 16  1  1
 16 17  2  0
 16 18  1  0
 18 19  1  0
  7 20  1  0
  4 21  1  0
 20 21  1  0
M  END
