piperidine-amides-23550-covalent
     RDKit          3D

 24 26  0  0  0  0  0  0  0  0999 V2000
    7.0610   -3.3640   19.3830 C   0  0  0  0  0  0  0  0  0  0  0  0
    6.4390   -4.2440   20.3850 C   0  0  0  0  0  0  0  0  0  0  0  0
    5.4230   -4.8820   20.0010 O   0  0  0  0  0  0  0  0  0  0  0  0
    6.9930   -4.4000   21.6910 N   0  0  0  0  0  0  0  0  0  0  0  0
    6.6360   -5.5400   22.4720 C   0  0  0  0  0  0  0  0  0  0  0  0
    6.2000   -5.1840   23.8180 C   0  0  0  0  0  0  0  0  0  0  0  0
    6.1500   -3.7250   24.0180 C   0  0  0  0  0  0  0  0  0  0  0  0
    5.4340   -3.2580   25.2670 C   0  0  0  0  0  0  0  0  0  0  0  0
    4.2310   -2.9870   25.1270 O   0  0  0  0  0  0  0  0  0  0  0  0
    5.9480   -3.0980   26.5780 N   0  0  0  0  0  0  0  0  0  0  0  0
    5.2040   -2.4580   27.5950 C   0  0  0  0  0  0  0  0  0  0  0  0
    4.4490   -3.3330   28.5360 C   0  0  2  0  0  0  0  0  0  0  0  0
    4.1040   -2.4220   29.7440 C   0  0  0  0  0  0  0  0  0  0  0  0
    2.6930   -2.2500   30.0950 N   0  0  0  0  0  0  0  0  0  0  0  0
    5.1070   -1.7950   30.4450 O   0  0  0  0  0  0  0  0  0  0  0  0
    4.9860   -4.5950   28.9090 O   0  0  0  0  0  0  0  0  0  0  0  0
    6.1110   -4.9700   28.3200 C   0  0  0  0  0  0  0  0  0  0  0  0
    6.8950   -6.1420   28.8340 C   0  0  0  0  0  0  0  0  0  0  0  0
    5.6140   -5.9150   29.6200 C   0  0  0  0  0  0  0  0  0  0  0  0
    4.7920   -4.7150   29.0800 C   0  0  0  0  0  0  0  0  0  0  0  0
    5.1170   -3.7970   27.9200 C   0  0  0  0  0  0  0  0  0  0  0  0
    6.3930   -4.1830   27.2920 C   0  0  0  0  0  0  0  0  0  0  0  0
    7.5200   -3.1050   23.7430 C   0  0  0  0  0  0  0  0  0  0  0  0
    7.7170   -3.2270   22.2630 C   0  0  0  0  0  0  0  0  0  0  0  0
  1  2  1  0
  2  3  2  0
  2  4  1  0
  4  5  1  0
  5  6  1  0
  6  7  1  0
  7  8  1  0
  8  9  2  0
  8 10  1  0
 10 11  1  0
 11 12  1  0
 12 13  1  1
 13 14  1  0
 13 15  2  0
 12 16  1  0
 16 17  1  0
 17 18  2  0
 18 19  1  0
 19 20  2  0
 20 21  1  0
 10 22  1  0
 17 22  1  0
 21 22  2  0
  7 23  1  0
  4 24  1  0
 23 24  1  0
M  END
