piperidine-amides-24656-covalent
     RDKit          3D

 23 25  0  0  0  0  0  0  0  0999 V2000
    7.0210   -3.3740   19.4580 C   0  0  0  0  0  0  0  0  0  0  0  0
    6.3470   -4.2550   20.4270 C   0  0  0  0  0  0  0  0  0  0  0  0
    5.4240   -4.9970   20.0180 O   0  0  0  0  0  0  0  0  0  0  0  0
    6.7370   -4.3070   21.7890 N   0  0  0  0  0  0  0  0  0  0  0  0
    6.5080   -5.5270   22.5480 C   0  0  0  0  0  0  0  0  0  0  0  0
    5.9300   -5.1670   23.9450 C   0  0  0  0  0  0  0  0  0  0  0  0
    5.8160   -3.6560   24.0030 C   0  0  0  0  0  0  0  0  0  0  0  0
    5.1610   -3.1140   25.2580 C   0  0  0  0  0  0  0  0  0  0  0  0
    4.6110   -2.0100   25.1490 O   0  0  0  0  0  0  0  0  0  0  0  0
    5.1310   -3.7810   26.5230 N   0  0  0  0  0  0  0  0  0  0  0  0
    6.3250   -4.2770   26.9030 C   0  0  0  0  0  0  0  0  0  0  0  0
    6.2780   -4.4110   28.3680 C   0  0  0  0  0  0  0  0  0  0  0  0
    5.0240   -4.1440   28.7770 C   0  0  2  0  0  0  0  0  0  0  0  0
    4.2390   -5.1140   29.0340 O   0  0  0  0  0  0  0  0  0  0  0  0
    3.5410   -5.1060   30.2030 C   0  0  0  0  0  0  0  0  0  0  0  0
    4.1420   -5.8430   31.2230 C   0  0  0  0  0  0  0  0  0  0  0  0
    3.9860   -5.5720   32.5250 C   0  0  0  0  0  0  0  0  0  0  0  0
    4.6310   -6.3500   33.4330 N   0  0  0  0  0  0  0  0  0  0  0  0
    5.3400   -7.3280   32.7480 C   0  0  0  0  0  0  0  0  0  0  0  0
    5.1700   -7.1950   30.9590 S   0  0  0  0  0  0  0  0  0  0  0  0
    4.5800   -3.2530   27.7880 C   0  0  0  0  0  0  0  0  0  0  0  0
    7.0950   -2.9780   23.7220 C   0  0  0  0  0  0  0  0  0  0  0  0
    7.5640   -3.2840   22.3650 C   0  0  0  0  0  0  0  0  0  0  0  0
  1  2  1  0
  2  3  2  0
  2  4  1  0
  4  5  1  0
  5  6  1  0
  6  7  1  0
  7  8  1  0
  8  9  2  0
  8 10  1  0
 10 11  1  0
 11 12  1  0
 12 13  1  0
 13 14  1  6
 14 15  1  0
 15 16  1  0
 16 17  2  0
 17 18  1  0
 18 19  2  0
 16 20  1  0
 19 20  1  0
 10 21  1  0
 13 21  1  0
  7 22  1  0
  4 23  1  0
 22 23  1  0
M  END
