piperidine-amides-31730-covalent
     RDKit          3D

 27 30  0  0  0  0  0  0  0  0999 V2000
    7.1350   -3.3890   19.4920 C   0  0  0  0  0  0  0  0  0  0  0  0
    6.4060   -4.2250   20.4130 C   0  0  0  0  0  0  0  0  0  0  0  0
    5.3840   -4.8510   19.9830 O   0  0  0  0  0  0  0  0  0  0  0  0
    6.8210   -4.4040   21.7500 N   0  0  0  0  0  0  0  0  0  0  0  0
    7.7610   -3.4100   22.3290 C   0  0  0  0  0  0  0  0  0  0  0  0
    6.8300   -2.7480   23.4100 C   0  0  0  0  0  0  0  0  0  0  0  0
    5.9980   -3.8800   23.9640 C   0  0  0  0  0  0  0  0  0  0  0  0
    5.3250   -3.4960   25.3590 C   0  0  0  0  0  0  0  0  0  0  0  0
    4.3280   -2.8250   25.1590 O   0  0  0  0  0  0  0  0  0  0  0  0
    6.0040   -3.9790   26.3230 N   0  0  0  0  0  0  0  0  0  0  0  0
    6.9570   -4.5740   27.0070 C   0  0  0  0  0  0  0  0  0  0  0  0
    7.1070   -5.5730   27.8770 C   0  0  0  0  0  0  0  0  0  0  0  0
    6.3550   -5.1240   28.9520 C   0  0  0  0  0  0  0  0  0  0  0  0
    5.0030   -4.7120   28.4970 C   0  0  0  0  0  0  0  0  0  0  0  0
    5.4940   -3.5110   27.6190 C   0  0  2  0  0  0  0  0  0  0  0  0
    4.1620   -3.0940   27.4910 C   0  0  0  0  0  0  0  0  0  0  0  0
    3.6750   -1.7630   27.4350 N   0  0  0  0  0  0  0  0  0  0  0  0
    2.2400   -1.8000   27.2910 C   0  0  0  0  0  0  0  0  0  0  0  0
    1.2380   -0.6570   27.1810 C   0  0  0  0  0  0  0  0  0  0  0  0
   -0.2330   -1.1710   27.0360 C   0  0  0  0  0  0  0  0  0  0  0  0
   -1.6050   -0.0940   26.8870 Cl  0  0  0  0  0  0  0  0  0  0  0  0
   -0.3890   -2.5420   27.0310 C   0  0  0  0  0  0  0  0  0  0  0  0
    0.6270   -3.4680   27.1420 C   0  0  0  0  0  0  0  0  0  0  0  0
    1.9240   -3.0950   27.2690 C   0  0  0  0  0  0  0  0  0  0  0  0
    3.0740   -3.9010   27.3900 N   0  0  0  0  0  0  0  0  0  0  0  0
    6.5130   -5.2710   23.8240 C   0  0  0  0  0  0  0  0  0  0  0  0
    6.5930   -5.6190   22.4750 C   0  0  0  0  0  0  0  0  0  0  0  0
  1  2  1  0
  2  3  2  0
  2  4  1  0
  4  5  1  0
  5  6  1  0
  6  7  1  0
  7  8  1  0
  8  9  2  0
  8 10  1  0
 10 11  1  0
 11 12  1  0
 12 13  1  0
 13 14  1  0
 10 15  1  0
 14 15  1  0
 15 16  1  6
 16 17  2  0
 17 18  1  0
 18 19  2  0
 19 20  1  0
 20 21  1  0
 20 22  2  0
 22 23  1  0
 18 24  1  0
 23 24  2  0
 16 25  1  0
 24 25  1  0
  7 26  1  0
  4 27  1  0
 26 27  1  0
M  END
