piperidine-amides-35025-covalent
     RDKit          3D

 28 31  0  0  0  0  0  0  0  0999 V2000
    6.9460   -3.3700   19.4250 C   0  0  0  0  0  0  0  0  0  0  0  0
    6.2870   -4.2990   20.3850 C   0  0  0  0  0  0  0  0  0  0  0  0
    5.3180   -4.9220   19.9740 O   0  0  0  0  0  0  0  0  0  0  0  0
    6.7720   -4.4760   21.6800 N   0  0  0  0  0  0  0  0  0  0  0  0
    6.4640   -5.6500   22.4540 C   0  0  0  0  0  0  0  0  0  0  0  0
    5.5890   -5.2770   23.6300 C   0  0  0  0  0  0  0  0  0  0  0  0
    6.0940   -3.9970   24.3130 C   0  0  0  0  0  0  0  0  0  0  0  0
    5.0400   -3.5040   25.2840 C   0  0  0  0  0  0  0  0  0  0  0  0
    3.8540   -3.6350   24.9750 O   0  0  0  0  0  0  0  0  0  0  0  0
    5.3380   -2.8840   26.5400 N   0  0  0  0  0  0  0  0  0  0  0  0
    4.4950   -2.9060   27.7320 C   0  0  0  0  0  0  0  0  0  0  0  0
    4.9030   -4.0190   28.6810 C   0  0  0  0  0  0  0  0  0  0  0  0
    6.1160   -4.5950   28.5860 C   0  0  0  0  0  0  0  0  0  0  0  0
    6.8520   -5.7220   28.9850 N   0  0  0  0  0  0  0  0  0  0  0  0
    8.2140   -5.6700   28.4360 C   0  0  0  0  0  0  0  0  0  0  0  0
    8.2920   -4.5350   27.7390 N   0  0  0  0  0  0  0  0  0  0  0  0
    7.0750   -3.8260   27.7740 C   0  0  0  0  0  0  0  0  0  0  0  0
    6.5360   -2.5250   27.1860 C   0  0  1  0  0  0  0  0  0  0  0  0
    7.3880   -2.5250   26.0380 C   0  0  0  0  0  0  0  0  0  0  0  0
    7.9850   -3.8010   26.3320 C   0  0  0  0  0  0  0  0  0  0  0  0
    8.9430   -4.2700   25.3810 C   0  0  0  0  0  0  0  0  0  0  0  0
    9.5640   -5.9310   26.0350 Br  0  0  0  0  0  0  0  0  0  0  0  0
    9.2160   -3.4000   24.1820 C   0  0  0  0  0  0  0  0  0  0  0  0
    8.5430   -2.0700   23.9690 C   0  0  0  0  0  0  0  0  0  0  0  0
    7.5800   -1.6610   24.9910 C   0  0  0  0  0  0  0  0  0  0  0  0
    6.9600   -0.4730   24.7940 F   0  0  0  0  0  0  0  0  0  0  0  0
    6.3490   -2.9360   23.2300 C   0  0  0  0  0  0  0  0  0  0  0  0
    7.3720   -3.3840   22.4070 C   0  0  0  0  0  0  0  0  0  0  0  0
  1  2  1  0
  2  3  2  0
  2  4  1  0
  4  5  1  0
  5  6  1  0
  6  7  1  0
  7  8  1  0
  8  9  2  0
  8 10  1  0
 10 11  1  0
 11 12  1  0
 12 13  1  0
 13 14  1  0
 14 15  2  0
 15 16  1  0
 13 17  2  0
 16 17  1  0
 10 18  1  0
 17 18  1  0
 18 19  1  6
 19 20  2  0
 20 21  1  0
 21 22  1  0
 21 23  2  0
 23 24  1  0
 19 25  1  0
 24 25  2  0
 25 26  1  0
  7 27  1  0
  4 28  1  0
 27 28  1  0
M  END
