piperidine-amides-13534-covalent
     RDKit          3D

 30 33  0  0  0  0  0  0  0  0999 V2000
    7.1430   -3.2710   19.2030 C   0  0  0  0  0  0  0  0  0  0  0  0
    6.3830   -4.0510   20.2170 C   0  0  0  0  0  0  0  0  0  0  0  0
    5.2980   -4.5590   19.8920 O   0  0  0  0  0  0  0  0  0  0  0  0
    6.9430   -4.2470   21.4970 N   0  0  0  0  0  0  0  0  0  0  0  0
    6.5920   -5.3670   22.3260 C   0  0  0  0  0  0  0  0  0  0  0  0
    5.7380   -4.8020   23.4640 C   0  0  0  0  0  0  0  0  0  0  0  0
    6.5370   -3.7530   24.1790 C   0  0  0  0  0  0  0  0  0  0  0  0
    5.8420   -3.2020   25.3570 C   0  0  0  0  0  0  0  0  0  0  0  0
    4.6720   -2.8490   25.1720 O   0  0  0  0  0  0  0  0  0  0  0  0
    6.4800   -3.1010   26.5970 N   0  0  0  0  0  0  0  0  0  0  0  0
    5.8870   -3.4520   27.8310 C   0  0  1  0  0  0  0  0  0  0  0  0
    5.8870   -2.4920   28.8370 C   0  0  0  0  0  0  0  0  0  0  0  0
    7.0290   -1.7710   29.1960 C   0  0  0  0  0  0  0  0  0  0  0  0
    7.0050   -0.8320   30.1950 C   0  0  0  0  0  0  0  0  0  0  0  0
    5.7420   -0.5640   30.9210 C   0  0  0  0  0  0  0  0  0  0  0  0
    5.7960    0.3520   31.8810 O   0  0  0  0  0  0  0  0  0  0  0  0
    6.6960    0.5540   32.8730 C   0  0  0  0  0  0  0  0  0  0  0  0
    4.6480   -1.2700   30.5520 C   0  0  0  0  0  0  0  0  0  0  0  0
    4.7380   -2.2020   29.5360 C   0  0  0  0  0  0  0  0  0  0  0  0
    4.5360   -4.0020   27.5910 C   0  0  1  0  0  0  0  0  0  0  0  0
    5.2220   -4.6400   28.6000 C   0  0  0  0  0  0  0  0  0  0  0  0
    3.8030   -4.5500   28.8690 C   0  0  2  0  0  0  0  0  0  0  0  0
    4.4890   -5.6350   29.7270 C   0  0  0  0  0  0  0  0  0  0  0  0
    4.1640   -5.6820   31.1900 C   0  0  0  0  0  0  0  0  0  0  0  0
    4.7840   -6.7050   32.0960 C   0  0  0  0  0  0  0  0  0  0  0  0
    5.7180   -7.6550   31.4800 C   0  0  0  0  0  0  0  0  0  0  0  0
    5.9800   -7.5670   30.1090 C   0  0  0  0  0  0  0  0  0  0  0  0
    5.4000   -6.6130   29.2830 C   0  0  0  0  0  0  0  0  0  0  0  0
    6.8610   -2.6150   23.2070 C   0  0  0  0  0  0  0  0  0  0  0  0
    7.7350   -3.1800   22.1120 C   0  0  0  0  0  0  0  0  0  0  0  0
  1  2  1  0
  2  3  2  0
  2  4  1  0
  4  5  1  0
  5  6  1  0
  6  7  1  0
  7  8  1  0
  8  9  2  0
  8 10  1  0
 11 10  1  6
 11 12  1  0
 12 13  2  0
 13 14  1  0
 14 15  2  0
 15 16  1  0
 16 17  1  0
 15 18  1  0
 12 19  1  0
 18 19  2  0
 11 20  1  0
 20 21  1  6
 20 22  1  0
 21 22  1  0
 22 23  1  6
 23 24  2  0
 24 25  1  0
 25 26  2  0
 26 27  1  0
 23 28  1  0
 27 28  2  0
  7 29  1  0
  4 30  1  0
 29 30  1  0
M  END
