piperidine-amides-18964-covalent
     RDKit          3D

 21 21  0  0  0  0  0  0  0  0999 V2000
    7.2000   -3.2760   19.3110 C   0  0  0  0  0  0  0  0  0  0  0  0
    6.4550   -4.0470   20.2770 C   0  0  0  0  0  0  0  0  0  0  0  0
    5.3550   -4.5780   19.9090 O   0  0  0  0  0  0  0  0  0  0  0  0
    6.9420   -4.2690   21.5810 N   0  0  0  0  0  0  0  0  0  0  0  0
    6.4380   -5.4260   22.3400 C   0  0  0  0  0  0  0  0  0  0  0  0
    5.4110   -4.6560   23.2400 C   0  0  0  0  0  0  0  0  0  0  0  0
    6.2650   -3.7830   24.1270 C   0  0  0  0  0  0  0  0  0  0  0  0
    5.4120   -3.3350   25.3950 C   0  0  0  0  0  0  0  0  0  0  0  0
    4.2400   -3.6240   25.2380 O   0  0  0  0  0  0  0  0  0  0  0  0
    6.1530   -2.7680   26.2510 N   0  0  0  0  0  0  0  0  0  0  0  0
    6.8930   -1.7490   26.7700 C   0  0  0  0  0  0  0  0  0  0  0  0
    6.1090   -3.5970   27.4050 C   0  0  0  0  0  0  0  0  0  0  0  0
    5.9870   -5.0200   27.2850 C   0  0  0  0  0  0  0  0  0  0  0  0
    6.3100   -5.6120   28.5150 O   0  0  0  0  0  0  0  0  0  0  0  0
    5.6270   -5.7160   26.1990 N   0  0  0  0  0  0  0  0  0  0  0  0
    4.5490   -6.5510   26.4670 C   0  0  0  0  0  0  0  0  0  0  0  0
    4.0120   -7.0240   25.0940 C   0  0  0  0  0  0  0  0  0  0  0  0
    3.5650   -8.1980   24.9460 O   0  0  0  0  0  0  0  0  0  0  0  0
    2.5720   -8.5780   25.8240 C   0  0  0  0  0  0  0  0  0  0  0  0
    6.9060   -2.6320   23.3740 C   0  0  0  0  0  0  0  0  0  0  0  0
    7.7500   -3.2520   22.2570 C   0  0  0  0  0  0  0  0  0  0  0  0
  1  2  1  0
  2  3  2  0
  2  4  1  0
  4  5  1  0
  5  6  1  0
  6  7  1  0
  7  8  1  0
  8  9  2  0
  8 10  1  0
 10 11  1  0
 10 12  1  0
 12 13  1  0
 13 14  2  0
 13 15  1  0
 15 16  1  0
 16 17  1  0
 17 18  1  0
 18 19  1  0
  7 20  1  0
  4 21  1  0
 20 21  1  0
M  END
