piperidine-amides-13463-covalent
     RDKit          3D

 23 25  0  0  0  0  0  0  0  0999 V2000
    7.1640   -3.2690   19.2070 C   0  0  0  0  0  0  0  0  0  0  0  0
    6.3520   -3.9720   20.2300 C   0  0  0  0  0  0  0  0  0  0  0  0
    5.2980   -4.5370   19.8890 O   0  0  0  0  0  0  0  0  0  0  0  0
    6.8420   -4.0190   21.5510 N   0  0  0  0  0  0  0  0  0  0  0  0
    7.6990   -2.9830   22.0800 C   0  0  0  0  0  0  0  0  0  0  0  0
    7.4510   -2.9240   23.5890 C   0  0  0  0  0  0  0  0  0  0  0  0
    6.0990   -3.5130   23.8010 C   0  0  0  0  0  0  0  0  0  0  0  0
    5.5720   -3.3560   25.1780 C   0  0  0  0  0  0  0  0  0  0  0  0
    4.5020   -2.7480   25.2910 O   0  0  0  0  0  0  0  0  0  0  0  0
    6.2750   -3.8740   26.2670 N   0  0  0  0  0  0  0  0  0  0  0  0
    5.9370   -4.9540   27.1430 C   0  0  0  0  0  0  0  0  0  0  0  0
    4.9410   -5.9210   27.0170 C   0  0  0  0  0  0  0  0  0  0  0  0
    4.3420   -6.5320   28.0890 C   0  0  0  0  0  0  0  0  0  0  0  0
    4.6450   -6.2720   29.3940 C   0  0  0  0  0  0  0  0  0  0  0  0
    4.3530   -7.3150   30.3750 C   0  0  0  0  0  0  0  0  0  0  0  0
    5.8280   -7.3940   30.7730 C   0  0  0  0  0  0  0  0  0  0  0  0
    5.9920   -6.3420   29.6480 C   0  0  0  0  0  0  0  0  0  0  0  0
    3.4230   -7.4200   27.6960 C   0  0  0  0  0  0  0  0  0  0  0  0
    3.3690   -7.4410   26.3570 N   0  0  0  0  0  0  0  0  0  0  0  0
    4.2920   -6.5370   25.9490 N   0  0  0  0  0  0  0  0  0  0  0  0
    4.4030   -6.4110   24.5210 C   0  0  0  0  0  0  0  0  0  0  0  0
    5.9660   -4.9480   23.4060 C   0  0  0  0  0  0  0  0  0  0  0  0
    6.7440   -5.2180   22.3190 C   0  0  0  0  0  0  0  0  0  0  0  0
  1  2  1  0
  2  3  2  0
  2  4  1  0
  4  5  1  0
  5  6  1  0
  6  7  1  0
  7  8  1  0
  8  9  2  0
  8 10  1  0
 10 11  1  0
 11 12  1  0
 12 13  2  0
 13 14  1  0
 14 15  1  0
 15 16  1  0
 14 17  1  0
 16 17  1  0
 13 18  1  0
 18 19  2  0
 12 20  1  0
 19 20  1  0
 20 21  1  0
  7 22  1  0
  4 23  1  0
 22 23  1  0
M  END
