piperidine-amides-6746-covalent
     RDKit          3D

 23 25  0  0  0  0  0  0  0  0999 V2000
    7.0690   -3.3190   19.3160 C   0  0  0  0  0  0  0  0  0  0  0  0
    6.3940   -4.1700   20.3100 C   0  0  0  0  0  0  0  0  0  0  0  0
    5.3940   -4.8470   19.9820 O   0  0  0  0  0  0  0  0  0  0  0  0
    6.8930   -4.2550   21.6160 N   0  0  0  0  0  0  0  0  0  0  0  0
    7.7250   -3.1740   22.1060 C   0  0  0  0  0  0  0  0  0  0  0  0
    7.5170   -3.1060   23.6070 C   0  0  0  0  0  0  0  0  0  0  0  0
    6.1110   -3.5980   23.8220 C   0  0  0  0  0  0  0  0  0  0  0  0
    5.6920   -3.2260   25.1720 C   0  0  0  0  0  0  0  0  0  0  0  0
    4.5140   -3.4350   25.5320 O   0  0  0  0  0  0  0  0  0  0  0  0
    6.6570   -2.6330   26.0020 N   0  0  0  0  0  0  0  0  0  0  0  0
    6.3160   -1.5510   26.8680 C   0  0  0  0  0  0  0  0  0  0  0  0
    6.4980   -0.1950   26.3030 C   0  0  0  0  0  0  0  0  0  0  0  0
    6.2220    0.8860   27.0640 C   0  0  0  0  0  0  0  0  0  0  0  0
    5.7710    0.6760   28.3310 C   0  0  0  0  0  0  0  0  0  0  0  0
    5.5590   -0.5900   28.9020 C   0  0  0  0  0  0  0  0  0  0  0  0
    5.0760   -0.6360   30.1510 C   0  0  0  0  0  0  0  0  0  0  0  0
    4.8200    0.4920   30.8550 N   0  0  0  0  0  0  0  0  0  0  0  0
    4.7510   -1.8820   30.9090 C   0  0  0  0  0  0  0  0  0  0  0  0
    5.1390   -2.9720   29.8930 C   0  0  0  0  0  0  0  0  0  0  0  0
    5.7000   -3.0930   28.4940 C   0  0  0  0  0  0  0  0  0  0  0  0
    5.8470   -1.6940   28.1310 C   0  0  0  0  0  0  0  0  0  0  0  0
    6.0980   -5.0860   23.6480 C   0  0  0  0  0  0  0  0  0  0  0  0
    6.5750   -5.4090   22.4080 C   0  0  0  0  0  0  0  0  0  0  0  0
  1  2  1  0
  2  3  2  0
  2  4  1  0
  4  5  1  0
  5  6  1  0
  6  7  1  0
  7  8  1  0
  8  9  2  0
  8 10  1  0
 10 11  1  0
 11 12  2  0
 12 13  1  0
 13 14  2  0
 14 15  1  0
 15 16  1  0
 16 17  1  0
 16 18  2  0
 18 19  1  0
 19 20  2  0
 11 21  1  0
 15 21  2  0
 20 21  1  0
  7 22  1  0
  4 23  1  0
 22 23  1  0
M  END
