piperidine-amides-10697-covalent
     RDKit          3D

 22 23  0  0  0  0  0  0  0  0999 V2000
    7.0570   -3.2870   19.2820 C   0  0  0  0  0  0  0  0  0  0  0  0
    6.3410   -4.0670   20.3020 C   0  0  0  0  0  0  0  0  0  0  0  0
    5.2890   -4.6340   19.9120 O   0  0  0  0  0  0  0  0  0  0  0  0
    6.8250   -4.2070   21.6130 N   0  0  0  0  0  0  0  0  0  0  0  0
    6.6000   -5.4200   22.3620 C   0  0  0  0  0  0  0  0  0  0  0  0
    6.1990   -5.0640   23.7720 C   0  0  0  0  0  0  0  0  0  0  0  0
    6.0860   -3.5750   23.9770 C   0  0  0  0  0  0  0  0  0  0  0  0
    5.7220   -3.1950   25.3740 C   0  0  0  0  0  0  0  0  0  0  0  0
    5.1080   -2.1220   25.5330 O   0  0  0  0  0  0  0  0  0  0  0  0
    5.9880   -3.9780   26.5230 N   0  0  0  0  0  0  0  0  0  0  0  0
    5.6540   -5.3780   26.4780 C   0  0  0  0  0  0  0  0  0  0  0  0
    5.4130   -6.1200   27.7970 C   0  0  0  0  0  0  0  0  0  0  0  0
    6.3290   -6.1930   28.8660 C   0  0  0  0  0  0  0  0  0  0  0  0
    5.7530   -7.1430   30.2380 S   0  0  0  0  0  0  0  0  0  0  0  0
    4.2890   -7.4200   29.3470 C   0  0  0  0  0  0  0  0  0  0  0  0
    4.2120   -6.8420   28.0890 C   0  0  0  0  0  0  0  0  0  0  0  0
    3.0950   -6.9810   27.2760 C   0  0  0  0  0  0  0  0  0  0  0  0
    2.6400   -5.6880   26.9870 F   0  0  0  0  0  0  0  0  0  0  0  0
    2.0890   -7.6250   27.9640 F   0  0  0  0  0  0  0  0  0  0  0  0
    3.4360   -7.6310   26.0900 F   0  0  0  0  0  0  0  0  0  0  0  0
    7.3830   -2.8670   23.6140 C   0  0  0  0  0  0  0  0  0  0  0  0
    7.6570   -3.1150   22.1490 C   0  0  0  0  0  0  0  0  0  0  0  0
  1  2  1  0
  2  3  2  0
  2  4  1  0
  4  5  1  0
  5  6  1  0
  6  7  1  0
  7  8  1  0
  8  9  2  0
  8 10  1  0
 10 11  1  0
 11 12  1  0
 12 13  2  0
 13 14  1  0
 14 15  1  0
 12 16  1  0
 15 16  2  0
 16 17  1  0
 17 18  1  0
 17 19  1  0
 17 20  1  0
  7 21  1  0
  4 22  1  0
 21 22  1  0
M  END
