piperidine-amides-11168-covalent
     RDKit          3D

 20 21  0  0  0  0  0  0  0  0999 V2000
    7.1570   -3.2880   19.2020 C   0  0  0  0  0  0  0  0  0  0  0  0
    6.3520   -3.9870   20.1990 C   0  0  0  0  0  0  0  0  0  0  0  0
    5.2750   -4.5060   19.8690 O   0  0  0  0  0  0  0  0  0  0  0  0
    6.8200   -4.1240   21.5110 N   0  0  0  0  0  0  0  0  0  0  0  0
    7.7170   -3.1820   22.1290 C   0  0  0  0  0  0  0  0  0  0  0  0
    6.9590   -2.6390   23.3010 C   0  0  0  0  0  0  0  0  0  0  0  0
    6.5190   -3.7450   24.2050 C   0  0  0  0  0  0  0  0  0  0  0  0
    5.7610   -3.2260   25.3640 C   0  0  0  0  0  0  0  0  0  0  0  0
    4.4950   -3.2110   25.3430 O   0  0  0  0  0  0  0  0  0  0  0  0
    6.3880   -2.7250   26.5260 N   0  0  0  0  0  0  0  0  0  0  0  0
    5.9530   -3.1950   27.8590 C   0  0  0  0  0  0  0  0  0  0  0  0
    6.1920   -4.6410   27.9010 C   0  0  0  0  0  0  0  0  0  0  0  0
    5.5210   -5.5350   28.8390 C   0  0  0  0  0  0  0  0  0  0  0  0
    6.3380   -6.6010   29.4390 C   0  0  0  0  0  0  0  0  0  0  0  0
    5.5580   -7.4560   30.3950 C   0  0  0  0  0  0  0  0  0  0  0  0
    4.1320   -7.0270   30.4990 C   0  0  0  0  0  0  0  0  0  0  0  0
    3.2910   -7.7180   31.3300 C   0  0  0  0  0  0  0  0  0  0  0  0
    3.9000   -5.6570   29.4590 S   0  0  0  0  0  0  0  0  0  0  0  0
    5.6880   -4.7880   23.4920 C   0  0  0  0  0  0  0  0  0  0  0  0
    6.4580   -5.2860   22.2900 C   0  0  0  0  0  0  0  0  0  0  0  0
  1  2  1  0
  2  3  2  0
  2  4  1  0
  4  5  1  0
  5  6  1  0
  6  7  1  0
  7  8  1  0
  8  9  2  0
  8 10  1  0
 10 11  1  0
 11 12  1  0
 12 13  1  0
 13 14  2  0
 14 15  1  0
 15 16  2  0
 16 17  1  0
 13 18  1  0
 16 18  1  0
  7 19  1  0
  4 20  1  0
 19 20  1  0
M  END
