piperidine-amides-1024-covalent
     RDKit          3D

 24 26  0  0  0  0  0  0  0  0999 V2000
    7.1130   -3.2690   19.2240 C   0  0  0  0  0  0  0  0  0  0  0  0
    6.3580   -4.0600   20.2360 C   0  0  0  0  0  0  0  0  0  0  0  0
    5.2960   -4.6060   19.9030 O   0  0  0  0  0  0  0  0  0  0  0  0
    6.8930   -4.2130   21.5360 N   0  0  0  0  0  0  0  0  0  0  0  0
    7.6650   -3.1730   22.1650 C   0  0  0  0  0  0  0  0  0  0  0  0
    6.8030   -2.6130   23.2970 C   0  0  0  0  0  0  0  0  0  0  0  0
    6.5060   -3.7490   24.2150 C   0  0  0  0  0  0  0  0  0  0  0  0
    5.8030   -3.3000   25.4420 C   0  0  0  0  0  0  0  0  0  0  0  0
    4.6020   -3.0360   25.3060 O   0  0  0  0  0  0  0  0  0  0  0  0
    6.4730   -3.1930   26.6670 N   0  0  0  0  0  0  0  0  0  0  0  0
    6.0670   -3.7550   27.9100 C   0  0  1  0  0  0  0  0  0  0  0  0
    6.7060   -4.7580   28.6070 C   0  0  0  0  0  0  0  0  0  0  0  0
    5.9340   -2.6300   28.9340 C   0  0  0  0  0  0  0  0  0  0  0  0
    6.9010   -1.6510   29.0390 C   0  0  0  0  0  0  0  0  0  0  0  0
    6.8500   -0.5290   30.0050 C   0  0  0  0  0  0  0  0  0  0  0  0
    5.6880   -0.3720   30.9780 C   0  0  0  0  0  0  0  0  0  0  0  0
    4.7480   -1.5120   30.7180 C   0  0  0  0  0  0  0  0  0  0  0  0
    4.8590   -2.5350   29.7930 C   0  0  0  0  0  0  0  0  0  0  0  0
    3.6080   -1.4060   31.6310 C   0  0  0  0  0  0  0  0  0  0  0  0
    3.9300   -0.0530   32.2770 C   0  0  0  0  0  0  0  0  0  0  0  0
    4.8360   -0.0580   33.3240 C   0  0  0  0  0  0  0  0  0  0  0  0
    5.3830    0.6350   32.0310 C   0  0  0  0  0  0  0  0  0  0  0  0
    5.7800   -4.8890   23.5750 C   0  0  0  0  0  0  0  0  0  0  0  0
    6.5500   -5.3600   22.3390 C   0  0  0  0  0  0  0  0  0  0  0  0
  1  2  1  0
  2  3  2  0
  2  4  1  0
  4  5  1  0
  5  6  1  0
  6  7  1  0
  7  8  1  0
  8  9  2  0
  8 10  1  0
 10 11  1  0
 11 12  1  1
 11 13  1  0
 13 14  2  0
 14 15  1  0
 15 16  2  0
 16 17  1  0
 13 18  1  0
 17 18  2  0
 17 19  1  0
 19 20  1  0
 20 21  1  0
 16 22  1  0
 21 22  1  0
  7 23  1  0
  4 24  1  0
 23 24  1  0
M  END
