piperidine-amides-31595-covalent
     RDKit          3D

 28 30  0  0  0  0  0  0  0  0999 V2000
    7.0400   -3.3330   19.4810 C   0  0  0  0  0  0  0  0  0  0  0  0
    6.3860   -4.2000   20.4430 C   0  0  0  0  0  0  0  0  0  0  0  0
    5.4650   -4.9680   20.0080 O   0  0  0  0  0  0  0  0  0  0  0  0
    6.7370   -4.2360   21.8170 N   0  0  0  0  0  0  0  0  0  0  0  0
    6.5520   -5.5430   22.5000 C   0  0  0  0  0  0  0  0  0  0  0  0
    5.9390   -5.1500   23.9200 C   0  0  0  0  0  0  0  0  0  0  0  0
    6.0410   -3.6460   24.0650 C   0  0  0  0  0  0  0  0  0  0  0  0
    5.1080   -2.8740   25.1650 C   0  0  0  0  0  0  0  0  0  0  0  0
    4.5330   -1.9990   24.5550 O   0  0  0  0  0  0  0  0  0  0  0  0
    5.1160   -3.2850   26.4010 N   0  0  0  0  0  0  0  0  0  0  0  0
    4.7280   -3.4860   27.6910 C   0  0  0  0  0  0  0  0  0  0  0  0
    5.3200   -3.7990   28.8990 C   0  0  0  0  0  0  0  0  0  0  0  0
    6.2730   -4.8610   28.8750 C   0  0  0  0  0  0  0  0  0  0  0  0
    6.0940   -5.8480   28.0110 N   0  0  0  0  0  0  0  0  0  0  0  0
    5.0760   -6.7400   28.3520 C   0  0  0  0  0  0  0  0  0  0  0  0
    4.6150   -6.6020   29.8100 C   0  0  0  0  0  0  0  0  0  0  0  0
    5.5180   -7.4390   30.4530 C   0  0  0  0  0  0  0  0  0  0  0  0
    5.6840   -7.8090   31.8240 C   0  0  0  0  0  0  0  0  0  0  0  0
    4.5100   -6.9750   32.4300 C   0  0  0  0  0  0  0  0  0  0  0  0
    4.4480   -7.1450   33.6630 O   0  0  0  0  0  0  0  0  0  0  0  0
    4.6490   -8.4970   33.9240 C   0  0  0  0  0  0  0  0  0  0  0  0
    3.5590   -6.0830   31.7040 C   0  0  0  0  0  0  0  0  0  0  0  0
    3.6280   -5.9070   30.3850 C   0  0  0  0  0  0  0  0  0  0  0  0
    5.8700   -5.2520   26.7630 C   0  0  0  0  0  0  0  0  0  0  0  0
    5.2650   -5.8150   25.8040 O   0  0  0  0  0  0  0  0  0  0  0  0
    6.2940   -3.9460   26.5760 C   0  0  0  0  0  0  0  0  0  0  0  0
    7.3490   -3.0090   23.7480 C   0  0  0  0  0  0  0  0  0  0  0  0
    7.7290   -3.3040   22.3250 C   0  0  0  0  0  0  0  0  0  0  0  0
  1  2  1  0
  2  3  2  0
  2  4  1  0
  4  5  1  0
  5  6  1  0
  6  7  1  0
  7  8  1  0
  8  9  2  0
  8 10  1  0
 10 11  1  0
 11 12  1  0
 12 13  1  0
 13 14  1  0
 14 15  1  0
 15 16  1  0
 16 17  2  0
 17 18  1  0
 18 19  2  0
 19 20  1  0
 20 21  1  0
 19 22  1  0
 16 23  1  0
 22 23  2  0
 14 24  1  0
 24 25  2  0
 10 26  1  0
 24 26  1  0
  7 27  1  0
  4 28  1  0
 27 28  1  0
M  END
