piperidine-amides-35688-covalent
     RDKit          3D

 44 48  0  0  0  0  0  0  0  0999 V2000
    7.0380   -3.3420   19.3480 C   0  0  0  0  0  0  0  0  0  0  0  0
    6.3800   -4.1950   20.3700 C   0  0  0  0  0  0  0  0  0  0  0  0
    5.4100   -4.8560   19.9900 O   0  0  0  0  0  0  0  0  0  0  0  0
    6.8820   -4.2600   21.6790 N   0  0  0  0  0  0  0  0  0  0  0  0
    7.7510   -3.2380   22.2350 C   0  0  0  0  0  0  0  0  0  0  0  0
    7.4320   -3.0140   23.6850 C   0  0  0  0  0  0  0  0  0  0  0  0
    6.0790   -3.6630   23.9450 C   0  0  0  0  0  0  0  0  0  0  0  0
    5.4720   -3.2640   25.2320 C   0  0  0  0  0  0  0  0  0  0  0  0
    4.2570   -3.0270   25.2200 O   0  0  0  0  0  0  0  0  0  0  0  0
    6.1370   -3.1320   26.4660 N   0  0  0  0  0  0  0  0  0  0  0  0
    6.2180   -1.7750   26.9420 C   0  0  0  0  0  0  0  0  0  0  0  0
    6.9830   -1.4630   28.2040 C   0  0  0  0  0  0  0  0  0  0  0  0
    7.1210   -0.2290   28.7650 C   0  0  0  0  0  0  0  0  0  0  0  0
    7.7240    0.1800   29.7780 O   0  0  0  0  0  0  0  0  0  0  0  0
    7.1050   -0.1960   30.9550 C   0  0  0  0  0  0  0  0  0  0  0  0
    6.4680    0.9960   28.1160 C   0  0  0  0  0  0  0  0  0  0  0  0
    6.5250    2.2940   28.5610 O   0  0  0  0  0  0  0  0  0  0  0  0
    7.1930    3.3000   27.8320 C   0  0  0  0  0  0  0  0  0  0  0  0
    5.7160    0.7940   26.9070 C   0  0  0  0  0  0  0  0  0  0  0  0
    5.1510    1.9060   26.3530 O   0  0  0  0  0  0  0  0  0  0  0  0
    4.6630    1.9160   25.0240 C   0  0  0  0  0  0  0  0  0  0  0  0
    5.5960   -0.5780   26.3280 C   0  0  0  0  0  0  0  0  0  0  0  0
    5.4990   -3.6920   27.6660 C   0  0  0  0  0  0  0  0  0  0  0  0
    5.0630   -2.7890   28.8080 C   0  0  0  0  0  0  0  0  0  0  0  0
    4.4200   -3.3840   29.9800 C   0  0  0  0  0  0  0  0  0  0  0  0
    4.2080   -4.8570   30.0210 C   0  0  0  0  0  0  0  0  0  0  0  0
    3.6080   -5.5440   31.0750 C   0  0  0  0  0  0  0  0  0  0  0  0
    3.3080   -7.0070   31.2930 C   0  0  0  0  0  0  0  0  0  0  0  0
    2.5610   -7.7650   32.6350 S   0  0  0  0  0  0  0  0  0  0  0  0
    2.1740   -6.6110   33.5920 O   0  0  0  0  0  0  0  0  0  0  0  0
    1.2440   -8.3800   32.1650 O   0  0  0  0  0  0  0  0  0  0  0  0
    3.5810   -8.8560   33.5250 N   0  0  0  0  0  0  0  0  0  0  0  0
    2.9460   -9.5340   34.6210 C   0  0  0  0  0  0  0  0  0  0  0  0
    3.3030   -8.7110   35.8650 C   0  0  0  0  0  0  0  0  0  0  0  0
    4.6240   -8.7600   36.2070 C   0  0  0  0  0  0  0  0  0  0  0  0
    5.5830   -8.4790   35.0520 C   0  0  0  0  0  0  0  0  0  0  0  0
    4.9870   -8.4690   33.6930 C   0  0  2  0  0  0  0  0  0  0  0  0
    5.5060   -7.2420   32.9490 C   0  0  0  0  0  0  0  0  0  0  0  0
    3.7010   -7.7690   30.2590 C   0  0  0  0  0  0  0  0  0  0  0  0
    4.3710   -7.2030   29.0370 C   0  0  0  0  0  0  0  0  0  0  0  0
    4.6920   -5.7360   28.7840 C   0  0  0  0  0  0  0  0  0  0  0  0
    5.2850   -5.1610   27.7190 N   0  0  0  0  0  0  0  0  0  0  0  0
    6.1980   -5.1760   23.8190 C   0  0  0  0  0  0  0  0  0  0  0  0
    6.7270   -5.5020   22.4390 C   0  0  0  0  0  0  0  0  0  0  0  0
  1  2  1  0
  2  3  2  0
  2  4  1  0
  4  5  1  0
  5  6  1  0
  6  7  1  0
  7  8  1  0
  8  9  2  0
  8 10  1  0
 10 11  1  0
 11 12  2  0
 12 13  1  0
 13 14  1  0
 14 15  1  0
 13 16  2  0
 16 17  1  0
 17 18  1  0
 16 19  1  0
 19 20  1  0
 20 21  1  0
 11 22  1  0
 19 22  2  0
 10 23  1  0
 23 24  2  0
 24 25  1  0
 25 26  2  0
 26 27  1  0
 27 28  2  0
 29 28  1  0
 29 30  2  0
 29 31  2  0
 29 32  1  0
 32 33  1  0
 33 34  1  0
 34 35  1  0
 35 36  1  0
 32 37  1  0
 36 37  1  0
 37 38  1  1
 28 39  1  0
 39 40  2  0
 26 41  1  0
 40 41  1  0
 23 42  1  0
 41 42  2  0
  7 43  1  0
  4 44  1  0
 43 44  1  0
M  END
