piperidine-amides-31157-covalent
     RDKit          3D

 28 31  0  0  0  0  0  0  0  0999 V2000
    7.0250   -3.3720   19.4040 C   0  0  0  0  0  0  0  0  0  0  0  0
    6.3810   -4.2500   20.3890 C   0  0  0  0  0  0  0  0  0  0  0  0
    5.4100   -4.9280   20.0050 O   0  0  0  0  0  0  0  0  0  0  0  0
    6.8450   -4.3900   21.7190 N   0  0  0  0  0  0  0  0  0  0  0  0
    6.5960   -5.6000   22.4880 C   0  0  0  0  0  0  0  0  0  0  0  0
    6.1410   -5.1930   23.8830 C   0  0  0  0  0  0  0  0  0  0  0  0
    6.0640   -3.7000   24.0490 C   0  0  0  0  0  0  0  0  0  0  0  0
    5.3890   -3.1530   25.2760 C   0  0  0  0  0  0  0  0  0  0  0  0
    4.7550   -2.0720   25.1610 O   0  0  0  0  0  0  0  0  0  0  0  0
    5.3340   -3.6990   26.5910 N   0  0  0  0  0  0  0  0  0  0  0  0
    4.0250   -3.8320   27.2730 C   0  0  0  0  0  0  0  0  0  0  0  0
    4.1660   -4.0880   28.7420 C   0  0  0  0  0  0  0  0  0  0  0  0
    5.1680   -4.9360   28.9400 N   0  0  0  0  0  0  0  0  0  0  0  0
    5.2310   -5.9050   29.9740 C   0  0  0  0  0  0  0  0  0  0  0  0
    4.1940   -5.6810   31.0150 C   0  0  0  0  0  0  0  0  0  0  0  0
    4.1660   -6.6450   32.1610 C   0  0  0  0  0  0  0  0  0  0  0  0
    5.1640   -7.7460   32.1750 C   0  0  0  0  0  0  0  0  0  0  0  0
    5.0230   -8.5250   33.2510 N   0  0  0  0  0  0  0  0  0  0  0  0
    5.9200   -9.5380   33.7630 C   0  0  0  0  0  0  0  0  0  0  0  0
    5.4090  -10.1140   34.8880 C   0  0  0  0  0  0  0  0  0  0  0  0
    4.0890   -9.4890   35.1990 C   0  0  0  0  0  0  0  0  0  0  0  0
    3.9840   -8.5360   34.1160 N   0  0  0  0  0  0  0  0  0  0  0  0
    6.0680   -7.8540   31.1540 N   0  0  0  0  0  0  0  0  0  0  0  0
    6.0720   -6.9630   30.1260 N   0  0  0  0  0  0  0  0  0  0  0  0
    6.4310   -4.6270   28.3430 C   0  0  0  0  0  0  0  0  0  0  0  0
    6.4410   -3.4340   27.4190 C   0  0  0  0  0  0  0  0  0  0  0  0
    7.3980   -3.1190   23.7210 C   0  0  0  0  0  0  0  0  0  0  0  0
    7.6140   -3.3010   22.2700 C   0  0  0  0  0  0  0  0  0  0  0  0
  1  2  1  0
  2  3  2  0
  2  4  1  0
  4  5  1  0
  5  6  1  0
  6  7  1  0
  7  8  1  0
  8  9  2  0
  8 10  1  0
 10 11  1  0
 11 12  1  0
 12 13  1  0
 13 14  1  0
 14 15  2  0
 15 16  1  0
 16 17  2  0
 17 18  1  0
 18 19  1  0
 19 20  2  0
 20 21  1  0
 18 22  1  0
 21 22  2  0
 17 23  1  0
 14 24  1  0
 23 24  2  0
 13 25  1  0
 10 26  1  0
 25 26  1  0
  7 27  1  0
  4 28  1  0
 27 28  1  0
M  END
