piperidine-amides-13167-covalent
     RDKit          3D

 19 20  0  0  0  0  0  0  0  0999 V2000
    7.0670   -3.2900   19.2380 C   0  0  0  0  0  0  0  0  0  0  0  0
    6.3420   -4.0530   20.2840 C   0  0  0  0  0  0  0  0  0  0  0  0
    5.2880   -4.6020   19.9110 O   0  0  0  0  0  0  0  0  0  0  0  0
    6.8410   -4.1880   21.6020 N   0  0  0  0  0  0  0  0  0  0  0  0
    7.6230   -3.1450   22.1870 C   0  0  0  0  0  0  0  0  0  0  0  0
    7.2790   -2.9180   23.5810 C   0  0  0  0  0  0  0  0  0  0  0  0
    6.0800   -3.6820   23.9700 C   0  0  0  0  0  0  0  0  0  0  0  0
    5.6540   -3.3620   25.3590 C   0  0  0  0  0  0  0  0  0  0  0  0
    4.4380   -3.4300   25.6080 O   0  0  0  0  0  0  0  0  0  0  0  0
    6.5600   -2.9810   26.3720 N   0  0  0  0  0  0  0  0  0  0  0  0
    6.3480   -3.2410   27.8200 C   0  0  2  0  0  0  0  0  0  0  0  0
    6.4720   -4.6900   28.1770 C   0  0  0  0  0  0  0  0  0  0  0  0
    5.0630   -2.6660   28.2920 C   0  0  0  0  0  0  0  0  0  0  0  0
    4.0580   -1.9710   27.5040 N   0  0  0  0  0  0  0  0  0  0  0  0
    3.0000   -1.5790   28.2900 C   0  0  0  0  0  0  0  0  0  0  0  0
    3.2700   -1.9780   29.5460 C   0  0  0  0  0  0  0  0  0  0  0  0
    4.5440   -2.6550   29.5740 N   0  0  0  0  0  0  0  0  0  0  0  0
    6.1480   -5.1440   23.6470 C   0  0  0  0  0  0  0  0  0  0  0  0
    6.5570   -5.3760   22.3510 C   0  0  0  0  0  0  0  0  0  0  0  0
  1  2  1  0
  2  3  2  0
  2  4  1  0
  4  5  1  0
  5  6  1  0
  6  7  1  0
  7  8  1  0
  8  9  2  0
  8 10  1  0
 10 11  1  0
 11 12  1  6
 11 13  1  0
 13 14  2  0
 14 15  1  0
 15 16  2  0
 13 17  1  0
 16 17  1  0
  7 18  1  0
  4 19  1  0
 18 19  1  0
M  END
