piperidine-amides-34297-covalent
     RDKit          3D

 30 33  0  0  0  0  0  0  0  0999 V2000
    7.1000   -3.3480   19.3180 C   0  0  0  0  0  0  0  0  0  0  0  0
    6.3740   -4.1610   20.2950 C   0  0  0  0  0  0  0  0  0  0  0  0
    5.3280   -4.7590   19.9600 O   0  0  0  0  0  0  0  0  0  0  0  0
    6.8820   -4.3300   21.5850 N   0  0  0  0  0  0  0  0  0  0  0  0
    6.6380   -5.5770   22.2590 C   0  0  0  0  0  0  0  0  0  0  0  0
    5.7460   -5.2290   23.4450 C   0  0  0  0  0  0  0  0  0  0  0  0
    6.4270   -4.0860   24.1660 C   0  0  0  0  0  0  0  0  0  0  0  0
    5.5120   -3.6030   25.2230 C   0  0  0  0  0  0  0  0  0  0  0  0
    4.7030   -2.6880   24.9720 O   0  0  0  0  0  0  0  0  0  0  0  0
    5.6030   -4.2140   26.4850 N   0  0  0  0  0  0  0  0  0  0  0  0
    6.8920   -4.3840   26.9180 C   0  0  0  0  0  0  0  0  0  0  0  0
    6.9530   -5.4550   27.9610 C   0  0  0  0  0  0  0  0  0  0  0  0
    6.1840   -5.2290   29.0480 C   0  0  0  0  0  0  0  0  0  0  0  0
    5.0450   -4.4750   28.8640 C   0  0  0  0  0  0  0  0  0  0  0  0
    4.1320   -4.1840   29.9130 C   0  0  0  0  0  0  0  0  0  0  0  0
    2.9480   -3.4320   29.8360 C   0  0  0  0  0  0  0  0  0  0  0  0
    2.1000   -3.1800   30.8620 N   0  0  0  0  0  0  0  0  0  0  0  0
    2.4020   -3.9930   31.8930 C   0  0  0  0  0  0  0  0  0  0  0  0
    2.5200   -3.6840   33.0810 O   0  0  0  0  0  0  0  0  0  0  0  0
    2.6040   -5.4350   31.4690 C   0  0  0  0  0  0  0  0  0  0  0  0
    3.5360   -6.3800   32.5960 S   0  0  0  0  0  0  0  0  0  0  0  0
    3.3260   -7.6400   31.5400 C   0  0  0  0  0  0  0  0  0  0  0  0
    2.5820   -7.4220   30.3470 C   0  0  0  0  0  0  0  0  0  0  0  0
    2.0930   -6.0970   30.2070 C   0  0  0  0  0  0  0  0  0  0  0  0
    1.3510   -5.6300   29.1560 C   0  0  0  0  0  0  0  0  0  0  0  0
    2.5230   -2.8310   28.5480 C   0  0  0  0  0  0  0  0  0  0  0  0
    3.4160   -3.0840   27.3950 C   0  0  0  0  0  0  0  0  0  0  0  0
    4.6750   -3.9020   27.5320 C   0  0  0  0  0  0  0  0  0  0  0  0
    6.8180   -2.9120   23.3170 C   0  0  0  0  0  0  0  0  0  0  0  0
    7.6170   -3.3110   22.2930 C   0  0  0  0  0  0  0  0  0  0  0  0
  1  2  1  0
  2  3  2  0
  2  4  1  0
  4  5  1  0
  5  6  1  0
  6  7  1  0
  7  8  1  0
  8  9  2  0
  8 10  1  0
 10 11  1  0
 11 12  1  0
 12 13  1  0
 13 14  1  0
 14 15  2  0
 15 16  1  0
 16 17  1  0
 17 18  1  0
 18 19  2  0
 18 20  1  0
 20 21  1  0
 21 22  1  0
 22 23  2  0
 20 24  2  0
 23 24  1  0
 24 25  1  0
 16 26  2  0
 26 27  1  0
 10 28  1  0
 14 28  1  0
 27 28  2  0
  7 29  1  0
  4 30  1  0
 29 30  1  0
M  END
