piperidine-amides-25085-covalent
     RDKit          3D

 25 27  0  0  0  0  0  0  0  0999 V2000
    7.1100   -3.2520   19.2560 C   0  0  0  0  0  0  0  0  0  0  0  0
    6.3550   -4.0320   20.2710 C   0  0  0  0  0  0  0  0  0  0  0  0
    5.3190   -4.5820   19.8990 O   0  0  0  0  0  0  0  0  0  0  0  0
    6.8440   -4.1550   21.5760 N   0  0  0  0  0  0  0  0  0  0  0  0
    6.6200   -5.3440   22.3510 C   0  0  0  0  0  0  0  0  0  0  0  0
    5.9650   -4.9860   23.6630 C   0  0  0  0  0  0  0  0  0  0  0  0
    6.1690   -3.5000   23.9840 C   0  0  0  0  0  0  0  0  0  0  0  0
    5.8430   -3.2630   25.4070 C   0  0  0  0  0  0  0  0  0  0  0  0
    4.6790   -3.4530   25.7860 O   0  0  0  0  0  0  0  0  0  0  0  0
    6.8120   -2.7910   26.3260 N   0  0  0  0  0  0  0  0  0  0  0  0
    6.7090   -1.4190   26.7340 C   0  0  0  0  0  0  0  0  0  0  0  0
    7.7170   -3.6570   27.0110 C   0  0  0  0  0  0  0  0  0  0  0  0
    7.1190   -4.7640   27.5220 C   0  0  0  0  0  0  0  0  0  0  0  0
    6.2210   -4.7080   28.4990 C   0  0  0  0  0  0  0  0  0  0  0  0
    5.7620   -5.9290   28.8510 C   0  0  0  0  0  0  0  0  0  0  0  0
    4.7410   -6.2650   29.9160 C   0  0  0  0  0  0  0  0  0  0  0  0
    5.4110   -7.2440   30.8420 C   0  0  0  0  0  0  0  0  0  0  0  0
    4.6160   -7.7570   32.0280 C   0  0  0  0  0  0  0  0  0  0  0  0
    3.2210   -7.2350   32.1610 C   0  0  0  0  0  0  0  0  0  0  0  0
    2.6220   -6.2690   31.2070 C   0  0  0  0  0  0  0  0  0  0  0  0
    3.3440   -5.7110   30.0080 C   0  0  0  0  0  0  0  0  0  0  0  0
    6.4340   -6.7240   28.0310 N   0  0  0  0  0  0  0  0  0  0  0  0
    7.2530   -6.0490   27.2250 N   0  0  0  0  0  0  0  0  0  0  0  0
    7.5830   -3.0950   23.6530 C   0  0  0  0  0  0  0  0  0  0  0  0
    7.6970   -3.1280   22.1550 C   0  0  0  0  0  0  0  0  0  0  0  0
  1  2  1  0
  2  3  2  0
  2  4  1  0
  4  5  1  0
  5  6  1  0
  6  7  1  0
  7  8  1  0
  8  9  2  0
  8 10  1  0
 10 11  1  0
 10 12  1  0
 12 13  1  0
 13 14  1  0
 14 15  2  0
 15 16  1  0
 16 17  2  0
 17 18  1  0
 18 19  2  0
 19 20  1  0
 16 21  1  0
 20 21  2  0
 15 22  1  0
 13 23  2  0
 22 23  1  0
  7 24  1  0
  4 25  1  0
 24 25  1  0
M  END
