piperidine-amides-35392-covalent
     RDKit          3D

 34 37  0  0  0  0  0  0  0  0999 V2000
    7.0210   -3.3610   19.3990 C   0  0  0  0  0  0  0  0  0  0  0  0
    6.3910   -4.2740   20.3880 C   0  0  0  0  0  0  0  0  0  0  0  0
    5.4100   -4.9110   19.9970 O   0  0  0  0  0  0  0  0  0  0  0  0
    6.9200   -4.4290   21.6830 N   0  0  0  0  0  0  0  0  0  0  0  0
    6.5250   -5.5190   22.5180 C   0  0  0  0  0  0  0  0  0  0  0  0
    5.6490   -4.9800   23.6240 C   0  0  0  0  0  0  0  0  0  0  0  0
    6.2900   -3.7750   24.3540 C   0  0  0  0  0  0  0  0  0  0  0  0
    5.2610   -3.2240   25.3070 C   0  0  0  0  0  0  0  0  0  0  0  0
    4.3000   -2.6380   24.8170 O   0  0  0  0  0  0  0  0  0  0  0  0
    5.3400   -3.3400   26.7350 N   0  0  0  0  0  0  0  0  0  0  0  0
    6.5790   -3.3740   27.2650 C   0  0  0  0  0  0  0  0  0  0  0  0
    6.4910   -4.5870   28.1830 C   0  0  0  0  0  0  0  0  0  0  0  0
    5.3230   -4.8880   28.8210 C   0  0  1  0  0  0  0  0  0  0  0  0
    4.2470   -3.9630   28.5950 C   0  0  1  0  0  0  0  0  0  0  0  0
    4.5470   -2.8890   27.7820 C   0  0  0  0  0  0  0  0  0  0  0  0
    3.0350   -4.6260   28.1310 N   0  0  0  0  0  0  0  0  0  0  0  0
    3.4890   -5.9690   27.9980 C   0  0  0  0  0  0  0  0  0  0  0  0
    2.8080   -6.9580   27.3310 O   0  0  0  0  0  0  0  0  0  0  0  0
    4.6940   -6.0980   28.6350 N   0  0  0  0  0  0  0  0  0  0  0  0
    4.6940   -7.2010   29.5790 C   0  0  0  0  0  0  0  0  0  0  0  0
    3.2910   -7.6150   29.9710 C   0  0  0  0  0  0  0  0  0  0  0  0
    3.1790   -7.2090   31.4010 C   0  0  0  0  0  0  0  0  0  0  0  0
    4.0990   -8.0150   32.1040 N   0  0  0  0  0  0  0  0  0  0  0  0
    3.4030   -8.5590   33.2860 C   0  0  0  0  0  0  0  0  0  0  0  0
    3.8200   -8.2990   34.4370 O   0  0  0  0  0  0  0  0  0  0  0  0
    2.2690   -9.3670   33.1760 O   0  0  0  0  0  0  0  0  0  0  0  0
    1.7200  -10.0800   34.2650 C   0  0  0  0  0  0  0  0  0  0  0  0
    2.7810  -10.7010   35.1120 C   0  0  0  0  0  0  0  0  0  0  0  0
    0.8430   -9.1920   34.8830 C   0  0  0  0  0  0  0  0  0  0  0  0
    0.8610  -11.2010   33.7370 C   0  0  0  0  0  0  0  0  0  0  0  0
    5.3540   -7.2810   32.0580 C   0  0  0  0  0  0  0  0  0  0  0  0
    5.6650   -7.0090   30.5720 C   0  0  0  0  0  0  0  0  0  0  0  0
    6.7510   -2.7530   23.3110 C   0  0  0  0  0  0  0  0  0  0  0  0
    7.5710   -3.3540   22.3990 C   0  0  0  0  0  0  0  0  0  0  0  0
  1  2  1  0
  2  3  2  0
  2  4  1  0
  4  5  1  0
  5  6  1  0
  6  7  1  0
  7  8  1  0
  8  9  2  0
  8 10  1  0
 10 11  1  0
 11 12  1  0
 13 12  1  6
 13 14  1  0
 10 15  1  0
 14 15  1  6
 14 16  1  0
 16 17  1  0
 17 18  2  0
 13 19  1  0
 17 19  1  0
 19 20  1  0
 20 21  1  0
 21 22  1  0
 22 23  1  0
 23 24  1  0
 24 25  2  0
 24 26  1  0
 27 26  1  0
 27 28  1  0
 27 29  1  0
 27 30  1  0
 23 31  1  0
 20 32  1  0
 31 32  1  0
  7 33  1  0
  4 34  1  0
 33 34  1  0
M  END
