piperidine-amides-2963-covalent
     RDKit          3D

 23 25  0  0  0  0  0  0  0  0999 V2000
    7.1170   -3.3550   19.3220 C   0  0  0  0  0  0  0  0  0  0  0  0
    6.3970   -4.1710   20.2880 C   0  0  0  0  0  0  0  0  0  0  0  0
    5.3600   -4.7510   19.9630 O   0  0  0  0  0  0  0  0  0  0  0  0
    6.9450   -4.3410   21.6020 N   0  0  0  0  0  0  0  0  0  0  0  0
    7.6990   -3.2700   22.1980 C   0  0  0  0  0  0  0  0  0  0  0  0
    6.9220   -2.6860   23.3310 C   0  0  0  0  0  0  0  0  0  0  0  0
    6.5320   -3.8140   24.2610 C   0  0  0  0  0  0  0  0  0  0  0  0
    5.7550   -3.2580   25.3940 C   0  0  0  0  0  0  0  0  0  0  0  0
    4.5490   -2.9580   25.2940 O   0  0  0  0  0  0  0  0  0  0  0  0
    6.4160   -3.0660   26.6250 N   0  0  0  0  0  0  0  0  0  0  0  0
    6.4080   -1.7630   27.2440 C   0  0  0  0  0  0  0  0  0  0  0  0
    7.0120   -1.5260   28.6140 C   0  0  0  0  0  0  0  0  0  0  0  0
    7.0040   -0.2800   29.2250 C   0  0  0  0  0  0  0  0  0  0  0  0
    6.4120    0.7820   28.5320 C   0  0  0  0  0  0  0  0  0  0  0  0
    5.8610    0.6480   27.3170 C   0  0  0  0  0  0  0  0  0  0  0  0
    5.7870   -0.5680   26.5490 C   0  0  0  0  0  0  0  0  0  0  0  0
    5.3290    1.7750   26.7830 C   0  0  0  0  0  0  0  0  0  0  0  0
    5.5740    2.7210   27.7850 C   0  0  0  0  0  0  0  0  0  0  0  0
    6.2500    2.1010   28.8640 C   0  0  0  0  0  0  0  0  0  0  0  0
    7.3320    2.8450   29.5190 C   0  0  0  0  0  0  0  0  0  0  0  0
    5.0170    2.3330   29.7350 C   0  0  0  0  0  0  0  0  0  0  0  0
    5.7010   -4.8680   23.5650 C   0  0  0  0  0  0  0  0  0  0  0  0
    6.4580   -5.4060   22.3970 C   0  0  0  0  0  0  0  0  0  0  0  0
  1  2  1  0
  2  3  2  0
  2  4  1  0
  4  5  1  0
  5  6  1  0
  6  7  1  0
  7  8  1  0
  8  9  2  0
  8 10  1  0
 10 11  1  0
 11 12  2  0
 12 13  1  0
 13 14  2  0
 14 15  1  0
 11 16  1  0
 15 16  2  0
 15 17  1  0
 17 18  1  0
 14 19  1  0
 18 19  1  0
 19 20  1  0
 19 21  1  0
  7 22  1  0
  4 23  1  0
 22 23  1  0
M  END
