piperidine-amides-29362-covalent
     RDKit          3D

 27 30  0  0  0  0  0  0  0  0999 V2000
    7.0020   -3.3380   19.3170 C   0  0  0  0  0  0  0  0  0  0  0  0
    6.3100   -4.1840   20.2940 C   0  0  0  0  0  0  0  0  0  0  0  0
    5.2870   -4.7830   19.9400 O   0  0  0  0  0  0  0  0  0  0  0  0
    6.8180   -4.3480   21.5980 N   0  0  0  0  0  0  0  0  0  0  0  0
    7.5300   -3.2520   22.1790 C   0  0  0  0  0  0  0  0  0  0  0  0
    7.3780   -3.3240   23.6540 C   0  0  0  0  0  0  0  0  0  0  0  0
    6.0340   -3.8940   23.9530 C   0  0  0  0  0  0  0  0  0  0  0  0
    5.5860   -3.5010   25.3380 C   0  0  0  0  0  0  0  0  0  0  0  0
    4.5510   -2.8460   25.3810 O   0  0  0  0  0  0  0  0  0  0  0  0
    6.3260   -3.8740   26.4640 N   0  0  0  0  0  0  0  0  0  0  0  0
    7.0340   -5.0920   26.5350 C   0  0  0  0  0  0  0  0  0  0  0  0
    7.1230   -5.3690   27.8940 C   0  0  0  0  0  0  0  0  0  0  0  0
    6.4560   -4.3640   28.5630 C   0  0  0  0  0  0  0  0  0  0  0  0
    5.8410   -3.3960   27.7620 C   0  0  2  0  0  0  0  0  0  0  0  0
    4.3760   -3.5870   28.0170 C   0  0  0  0  0  0  0  0  0  0  0  0
    3.9660   -3.8580   29.2840 N   0  0  0  0  0  0  0  0  0  0  0  0
    3.7250   -2.9640   30.3060 C   0  0  0  0  0  0  0  0  0  0  0  0
    3.8710   -1.4930   30.2330 C   0  0  0  0  0  0  0  0  0  0  0  0
    3.3260   -3.6250   31.4290 N   0  0  0  0  0  0  0  0  0  0  0  0
    3.3370   -4.9960   31.0430 C   0  0  0  0  0  0  0  0  0  0  0  0
    2.9780   -6.1990   31.9130 C   0  0  0  0  0  0  0  0  0  0  0  0
    3.0570   -7.4700   31.3390 C   0  0  0  0  0  0  0  0  0  0  0  0
    3.4490   -7.6860   29.9990 C   0  0  0  0  0  0  0  0  0  0  0  0
    3.7970   -6.4550   29.1670 C   0  0  0  0  0  0  0  0  0  0  0  0
    3.7050   -5.1180   29.8080 C   0  0  0  0  0  0  0  0  0  0  0  0
    6.1630   -5.3860   23.7380 C   0  0  0  0  0  0  0  0  0  0  0  0
    6.5720   -5.6110   22.2710 C   0  0  0  0  0  0  0  0  0  0  0  0
  1  2  1  0
  2  3  2  0
  2  4  1  0
  4  5  1  0
  5  6  1  0
  6  7  1  0
  7  8  1  0
  8  9  2  0
  8 10  1  0
 10 11  1  0
 11 12  1  0
 12 13  1  0
 10 14  1  0
 13 14  1  0
 14 15  1  6
 15 16  1  0
 16 17  1  0
 17 18  1  0
 17 19  2  0
 19 20  1  0
 20 21  1  0
 21 22  2  0
 22 23  1  0
 23 24  2  0
 16 25  1  0
 20 25  2  0
 24 25  1  0
  7 26  1  0
  4 27  1  0
 26 27  1  0
M  END
