piperidine-amides-29975-covalent
     RDKit          3D

 27 29  0  0  0  0  0  0  0  0999 V2000
    7.0220   -3.3550   19.4260 C   0  0  0  0  0  0  0  0  0  0  0  0
    6.3460   -4.2330   20.3800 C   0  0  0  0  0  0  0  0  0  0  0  0
    5.3930   -4.9140   19.9980 O   0  0  0  0  0  0  0  0  0  0  0  0
    6.8030   -4.3460   21.7460 N   0  0  0  0  0  0  0  0  0  0  0  0
    7.6490   -3.3120   22.3160 C   0  0  0  0  0  0  0  0  0  0  0  0
    7.3780   -3.1070   23.7890 C   0  0  0  0  0  0  0  0  0  0  0  0
    6.0820   -3.8330   24.0970 C   0  0  0  0  0  0  0  0  0  0  0  0
    5.4780   -3.5190   25.4460 C   0  0  0  0  0  0  0  0  0  0  0  0
    4.3740   -2.9480   25.4850 O   0  0  0  0  0  0  0  0  0  0  0  0
    6.0740   -3.8220   26.7140 N   0  0  0  0  0  0  0  0  0  0  0  0
    6.0270   -2.7470   27.6850 C   0  0  0  0  0  0  0  0  0  0  0  0
    5.6020   -3.2830   29.0350 C   0  0  0  0  0  0  0  0  0  0  0  0
    5.2590   -4.5500   29.2770 N   0  0  0  0  0  0  0  0  0  0  0  0
    4.1260   -4.6100   30.0110 C   0  0  0  0  0  0  0  0  0  0  0  0
    3.4200   -3.6320   30.3590 O   0  0  0  0  0  0  0  0  0  0  0  0
    3.5580   -5.7890   30.5090 C   0  0  0  0  0  0  0  0  0  0  0  0
    3.2530   -6.8570   29.6650 C   0  0  0  0  0  0  0  0  0  0  0  0
    2.6640   -8.0740   30.1970 C   0  0  0  0  0  0  0  0  0  0  0  0
    2.4110   -8.1740   31.5240 C   0  0  0  0  0  0  0  0  0  0  0  0
    2.7050   -7.1360   32.3580 C   0  0  0  0  0  0  0  0  0  0  0  0
    3.2700   -5.9590   31.8630 C   0  0  0  0  0  0  0  0  0  0  0  0
    3.5160   -4.9860   32.8180 O   0  0  0  0  0  0  0  0  0  0  0  0
    3.9140   -5.2390   34.1300 C   0  0  0  0  0  0  0  0  0  0  0  0
    5.1310   -5.3280   28.1190 C   0  0  0  0  0  0  0  0  0  0  0  0
    6.2090   -5.1320   27.3420 C   0  0  0  0  0  0  0  0  0  0  0  0
    6.2490   -5.3120   23.8920 C   0  0  0  0  0  0  0  0  0  0  0  0
    6.6820   -5.6090   22.4450 C   0  0  0  0  0  0  0  0  0  0  0  0
  1  2  1  0
  2  3  2  0
  2  4  1  0
  4  5  1  0
  5  6  1  0
  6  7  1  0
  7  8  1  0
  8  9  2  0
  8 10  1  0
 10 11  1  0
 11 12  1  0
 12 13  1  0
 13 14  1  0
 14 15  2  0
 14 16  1  0
 16 17  2  0
 17 18  1  0
 18 19  2  0
 19 20  1  0
 16 21  1  0
 20 21  2  0
 21 22  1  0
 22 23  1  0
 13 24  1  0
 10 25  1  0
 24 25  1  0
  7 26  1  0
  4 27  1  0
 26 27  1  0
M  END
