piperidine-amides-3851-covalent
     RDKit          3D

 24 26  0  0  0  0  0  0  0  0999 V2000
    7.1330   -3.3290   19.2890 C   0  0  0  0  0  0  0  0  0  0  0  0
    6.4010   -4.1200   20.2860 C   0  0  0  0  0  0  0  0  0  0  0  0
    5.3150   -4.6330   19.9200 O   0  0  0  0  0  0  0  0  0  0  0  0
    6.9400   -4.3480   21.5770 N   0  0  0  0  0  0  0  0  0  0  0  0
    7.5800   -3.2630   22.2370 C   0  0  0  0  0  0  0  0  0  0  0  0
    7.1890   -3.0370   23.6260 C   0  0  0  0  0  0  0  0  0  0  0  0
    6.4230   -4.1130   24.3030 C   0  0  0  0  0  0  0  0  0  0  0  0
    5.6650   -3.5740   25.4780 C   0  0  0  0  0  0  0  0  0  0  0  0
    4.4180   -3.6220   25.4630 O   0  0  0  0  0  0  0  0  0  0  0  0
    6.2990   -2.9850   26.5910 N   0  0  0  0  0  0  0  0  0  0  0  0
    6.2440   -1.6020   26.8930 C   0  0  0  0  0  0  0  0  0  0  0  0
    6.0410   -0.3020   26.4430 C   0  0  0  0  0  0  0  0  0  0  0  0
    6.0550    0.6560   27.8220 C   0  0  0  0  0  0  0  0  0  0  0  0
    6.2560    0.3960   29.1950 C   0  0  0  0  0  0  0  0  0  0  0  0
    6.2650    0.9340   30.6300 C   0  0  0  0  0  0  0  0  0  0  0  0
    5.7950    1.7520   29.2170 N   0  0  0  0  0  0  0  0  0  0  0  0
    5.4920    2.3010   28.0830 N   0  0  0  0  0  0  0  0  0  0  0  0
    4.9990    3.5570   28.0020 C   0  0  0  0  0  0  0  0  0  0  0  0
    5.7230    1.5650   26.9040 C   0  0  0  0  0  0  0  0  0  0  0  0
    6.2740    0.2830   26.8240 N   0  0  0  0  0  0  0  0  0  0  0  0
    6.5290   -0.8220   27.9410 C   0  0  0  0  0  0  0  0  0  0  0  0
    7.2220   -1.7260   28.9500 C   0  0  0  0  0  0  0  0  0  0  0  0
    5.4610   -4.8390   23.3570 C   0  0  0  0  0  0  0  0  0  0  0  0
    6.3410   -5.4470   22.3310 C   0  0  0  0  0  0  0  0  0  0  0  0
  1  2  1  0
  2  3  2  0
  2  4  1  0
  4  5  1  0
  5  6  1  0
  6  7  1  0
  7  8  1  0
  8  9  2  0
  8 10  1  0
 10 11  1  0
 11 12  2  0
 12 13  1  0
 13 14  1  0
 14 15  1  0
 14 16  2  0
 16 17  1  0
 17 18  1  0
 13 19  2  0
 17 19  1  0
 19 20  1  0
 11 21  1  0
 20 21  2  0
 21 22  1  0
  7 23  1  0
  4 24  1  0
 23 24  1  0
M  END
