piperidine-amides-12361-covalent
     RDKit          3D

 24 26  0  0  0  0  0  0  0  0999 V2000
    7.0560   -3.3330   19.3480 C   0  0  0  0  0  0  0  0  0  0  0  0
    6.3680   -4.1780   20.3250 C   0  0  0  0  0  0  0  0  0  0  0  0
    5.3890   -4.8370   19.9800 O   0  0  0  0  0  0  0  0  0  0  0  0
    6.8600   -4.2720   21.6770 N   0  0  0  0  0  0  0  0  0  0  0  0
    7.7310   -3.2410   22.1890 C   0  0  0  0  0  0  0  0  0  0  0  0
    7.3900   -2.9310   23.6140 C   0  0  0  0  0  0  0  0  0  0  0  0
    6.0590   -3.5890   23.9030 C   0  0  0  0  0  0  0  0  0  0  0  0
    5.6240   -3.1810   25.2670 C   0  0  0  0  0  0  0  0  0  0  0  0
    4.4310   -3.1560   25.6240 O   0  0  0  0  0  0  0  0  0  0  0  0
    6.6390   -2.8160   26.1710 N   0  0  0  0  0  0  0  0  0  0  0  0
    6.5380   -1.6240   26.9850 C   0  0  0  0  0  0  0  0  0  0  0  0
    7.0280   -1.5540   28.4040 C   0  0  0  0  0  0  0  0  0  0  0  0
    6.9220   -0.3920   29.1480 C   0  0  0  0  0  0  0  0  0  0  0  0
    6.3410    0.7700   28.5940 C   0  0  0  0  0  0  0  0  0  0  0  0
    5.8470    0.8440   27.3030 C   0  0  0  0  0  0  0  0  0  0  0  0
    5.9370   -0.3420   26.4820 C   0  0  0  0  0  0  0  0  0  0  0  0
    5.4520   -0.2630   25.2070 F   0  0  0  0  0  0  0  0  0  0  0  0
    6.2170    1.9710   29.3290 N   0  0  0  0  0  0  0  0  0  0  0  0
    6.2050    1.5820   30.7160 C   0  0  0  0  0  0  0  0  0  0  0  0
    5.3610    1.9730   31.6360 O   0  0  0  0  0  0  0  0  0  0  0  0
    7.1610    0.7110   31.1830 C   0  0  0  0  0  0  0  0  0  0  0  0
    7.3990   -0.4320   30.4250 C   0  0  0  0  0  0  0  0  0  0  0  0
    6.0230   -5.0290   23.6920 C   0  0  0  0  0  0  0  0  0  0  0  0
    6.6130   -5.4360   22.4980 C   0  0  0  0  0  0  0  0  0  0  0  0
  1  2  1  0
  2  3  2  0
  2  4  1  0
  4  5  1  0
  5  6  1  0
  6  7  1  0
  7  8  1  0
  8  9  2  0
  8 10  1  0
 10 11  1  0
 11 12  2  0
 12 13  1  0
 13 14  2  0
 14 15  1  0
 11 16  1  0
 15 16  2  0
 16 17  1  0
 14 18  1  0
 18 19  1  0
 19 20  2  0
 19 21  1  0
 13 22  1  0
 21 22  1  0
  7 23  1  0
  4 24  1  0
 23 24  1  0
M  END
