piperidine-amides-26185-covalent
     RDKit          3D

 25 26  0  0  0  0  0  0  0  0999 V2000
    7.1270   -3.3060   19.2440 C   0  0  0  0  0  0  0  0  0  0  0  0
    6.3330   -4.0340   20.2320 C   0  0  0  0  0  0  0  0  0  0  0  0
    5.2670   -4.5710   19.8870 O   0  0  0  0  0  0  0  0  0  0  0  0
    6.7950   -4.1750   21.5460 N   0  0  0  0  0  0  0  0  0  0  0  0
    7.6820   -3.1840   22.1240 C   0  0  0  0  0  0  0  0  0  0  0  0
    7.2310   -2.9320   23.5420 C   0  0  0  0  0  0  0  0  0  0  0  0
    5.9060   -3.5700   23.8230 C   0  0  0  0  0  0  0  0  0  0  0  0
    5.3870   -3.3410   25.2020 C   0  0  0  0  0  0  0  0  0  0  0  0
    4.1410   -3.1990   25.3750 O   0  0  0  0  0  0  0  0  0  0  0  0
    6.1820   -3.2620   26.3600 N   0  0  0  0  0  0  0  0  0  0  0  0
    6.1670   -1.9890   27.1430 C   0  0  0  0  0  0  0  0  0  0  0  0
    6.2220   -2.2850   28.5950 C   0  0  0  0  0  0  0  0  0  0  0  0
    6.4890   -1.1250   29.4690 C   0  0  0  0  0  0  0  0  0  0  0  0
    5.3360   -0.7970   30.3840 C   0  0  0  0  0  0  0  0  0  0  0  0
    5.7480   -0.1830   31.7300 C   0  0  0  0  0  0  0  0  0  0  0  0
    4.6060    0.1470   32.6560 C   0  0  0  0  0  0  0  0  0  0  0  0
    3.3200   -0.1080   32.2610 C   0  0  0  0  0  0  0  0  0  0  0  0
    2.9580   -0.6580   31.0540 C   0  0  0  0  0  0  0  0  0  0  0  0
    4.0240   -1.0170   30.0730 C   0  0  0  0  0  0  0  0  0  0  0  0
    6.6320   -4.4900   27.0260 C   0  0  0  0  0  0  0  0  0  0  0  0
    8.0580   -4.2570   27.3660 C   0  0  0  0  0  0  0  0  0  0  0  0
    8.2190   -2.8960   27.2790 O   0  0  0  0  0  0  0  0  0  0  0  0
    8.4460   -2.6070   25.9190 C   0  0  0  0  0  0  0  0  0  0  0  0
    5.8380   -5.0070   23.5070 C   0  0  0  0  0  0  0  0  0  0  0  0
    6.4700   -5.3210   22.3300 C   0  0  0  0  0  0  0  0  0  0  0  0
  1  2  1  0
  2  3  2  0
  2  4  1  0
  4  5  1  0
  5  6  1  0
  6  7  1  0
  7  8  1  0
  8  9  2  0
  8 10  1  0
 10 11  1  0
 11 12  1  0
 12 13  1  0
 13 14  1  0
 14 15  2  0
 15 16  1  0
 16 17  2  0
 17 18  1  0
 14 19  1  0
 18 19  2  0
 10 20  1  0
 20 21  1  0
 21 22  1  0
 22 23  1  0
  7 24  1  0
  4 25  1  0
 24 25  1  0
M  END
