piperidine-amides-11157-covalent
     RDKit          3D

 20 20  0  0  0  0  0  0  0  0999 V2000
    7.1750   -3.2990   19.2130 C   0  0  0  0  0  0  0  0  0  0  0  0
    6.3930   -4.0190   20.2130 C   0  0  0  0  0  0  0  0  0  0  0  0
    5.3140   -4.5420   19.8930 O   0  0  0  0  0  0  0  0  0  0  0  0
    6.8960   -4.1680   21.5100 N   0  0  0  0  0  0  0  0  0  0  0  0
    7.7820   -3.1930   22.0910 C   0  0  0  0  0  0  0  0  0  0  0  0
    6.9520   -2.5700   23.1600 C   0  0  0  0  0  0  0  0  0  0  0  0
    6.5370   -3.6170   24.1340 C   0  0  0  0  0  0  0  0  0  0  0  0
    5.8510   -3.0340   25.3040 C   0  0  0  0  0  0  0  0  0  0  0  0
    4.5920   -3.1140   25.4360 O   0  0  0  0  0  0  0  0  0  0  0  0
    6.5800   -2.3520   26.3040 N   0  0  0  0  0  0  0  0  0  0  0  0
    6.1410   -2.3380   27.7080 C   0  0  0  0  0  0  0  0  0  0  0  0
    6.5080   -3.6100   28.3490 C   0  0  0  0  0  0  0  0  0  0  0  0
    5.4840   -4.3500   29.0930 C   0  0  0  0  0  0  0  0  0  0  0  0
    4.8440   -5.4090   28.2590 C   0  0  0  0  0  0  0  0  0  0  0  0
    5.8440   -6.5000   27.9710 C   0  0  0  0  0  0  0  0  0  0  0  0
    7.1310   -5.8700   27.5490 C   0  0  0  0  0  0  0  0  0  0  0  0
    7.2280   -5.5420   26.2220 C   0  0  0  0  0  0  0  0  0  0  0  0
    8.3840   -5.8250   25.4780 C   0  0  0  0  0  0  0  0  0  0  0  0
    5.6560   -4.7020   23.4870 C   0  0  0  0  0  0  0  0  0  0  0  0
    6.4480   -5.2870   22.3080 C   0  0  0  0  0  0  0  0  0  0  0  0
  1  2  1  0
  2  3  2  0
  2  4  1  0
  4  5  1  0
  5  6  1  0
  6  7  1  0
  7  8  1  0
  8  9  2  0
  8 10  1  0
 10 11  1  0
 11 12  1  0
 12 13  1  0
 13 14  1  0
 14 15  1  0
 15 16  1  0
 16 17  1  0
 17 18  1  0
  7 19  1  0
  4 20  1  0
 19 20  1  0
M  END
