piperidine-amides-29345-covalent
     RDKit          3D

 26 28  0  0  0  0  0  0  0  0999 V2000
    7.0270   -3.3380   19.3780 C   0  0  0  0  0  0  0  0  0  0  0  0
    6.3870   -4.1910   20.3800 C   0  0  0  0  0  0  0  0  0  0  0  0
    5.4280   -4.8940   19.9990 O   0  0  0  0  0  0  0  0  0  0  0  0
    6.8700   -4.2410   21.7260 N   0  0  0  0  0  0  0  0  0  0  0  0
    6.6500   -5.4490   22.4830 C   0  0  0  0  0  0  0  0  0  0  0  0
    6.1560   -5.1470   23.8840 C   0  0  0  0  0  0  0  0  0  0  0  0
    6.0960   -3.6420   24.0380 C   0  0  0  0  0  0  0  0  0  0  0  0
    5.5170   -3.1910   25.3630 C   0  0  0  0  0  0  0  0  0  0  0  0
    4.3520   -2.8190   25.2870 O   0  0  0  0  0  0  0  0  0  0  0  0
    6.2320   -3.2020   26.5720 N   0  0  0  0  0  0  0  0  0  0  0  0
    6.1630   -4.3910   27.3580 C   0  0  0  0  0  0  0  0  0  0  0  0
    6.1400   -2.0230   27.3850 C   0  0  0  0  0  0  0  0  0  0  0  0
    4.9750   -1.1730   27.4820 N   0  0  0  0  0  0  0  0  0  0  0  0
    4.9180   -0.0450   28.2980 C   0  0  0  0  0  0  0  0  0  0  0  0
    3.8260    0.7950   28.4330 C   0  0  0  0  0  0  0  0  0  0  0  0
    2.5380    0.1190   28.1300 C   0  0  0  0  0  0  0  0  0  0  0  0
    1.2810    0.9810   28.2600 C   0  0  0  0  0  0  0  0  0  0  0  0
    1.4540    2.3910   28.6710 C   0  0  0  0  0  0  0  0  0  0  0  0
    0.1500    3.1280   28.7660 C   0  0  0  0  0  0  0  0  0  0  0  0
   -0.7410    3.0220   27.7730 N   0  0  0  0  0  0  0  0  0  0  0  0
    2.7120    2.9080   28.9260 C   0  0  0  0  0  0  0  0  0  0  0  0
    3.8740    2.1490   28.8150 C   0  0  0  0  0  0  0  0  0  0  0  0
    6.1170    0.1230   28.9720 C   0  0  0  0  0  0  0  0  0  0  0  0
    7.1430   -1.1890   28.4710 S   0  0  0  0  0  0  0  0  0  0  0  0
    7.3910   -2.9960   23.7180 C   0  0  0  0  0  0  0  0  0  0  0  0
    7.7170   -3.1950   22.2660 C   0  0  0  0  0  0  0  0  0  0  0  0
  1  2  1  0
  2  3  2  0
  2  4  1  0
  4  5  1  0
  5  6  1  0
  6  7  1  0
  7  8  1  0
  8  9  2  0
  8 10  1  0
 10 11  1  0
 10 12  1  0
 12 13  2  0
 13 14  1  0
 14 15  1  0
 15 16  2  0
 16 17  1  0
 17 18  2  0
 18 19  1  0
 19 20  3  0
 18 21  1  0
 15 22  1  0
 21 22  2  0
 14 23  2  0
 12 24  1  0
 23 24  1  0
  7 25  1  0
  4 26  1  0
 25 26  1  0
M  END
