piperidine-amides-35309-covalent
     RDKit          3D

 32 34  0  0  0  0  0  0  0  0999 V2000
    7.0820   -3.3410   19.2910 C   0  0  0  0  0  0  0  0  0  0  0  0
    6.4180   -4.1790   20.3170 C   0  0  0  0  0  0  0  0  0  0  0  0
    5.4060   -4.7910   19.9770 O   0  0  0  0  0  0  0  0  0  0  0  0
    6.9890   -4.2760   21.5880 N   0  0  0  0  0  0  0  0  0  0  0  0
    7.7220   -3.1790   22.1470 C   0  0  0  0  0  0  0  0  0  0  0  0
    6.8840   -2.6030   23.2400 C   0  0  0  0  0  0  0  0  0  0  0  0
    6.6570   -3.6620   24.3120 C   0  0  0  0  0  0  0  0  0  0  0  0
    5.7410   -3.0640   25.3100 C   0  0  0  0  0  0  0  0  0  0  0  0
    4.6790   -2.5880   24.8980 O   0  0  0  0  0  0  0  0  0  0  0  0
    6.0030   -3.0300   26.7000 N   0  0  0  0  0  0  0  0  0  0  0  0
    5.2530   -4.0380   27.4300 C   0  0  0  0  0  0  0  0  0  0  0  0
    3.9160   -4.0830   27.3150 N   0  0  0  0  0  0  0  0  0  0  0  0
    3.1300   -4.9670   27.9430 C   0  0  0  0  0  0  0  0  0  0  0  0
    3.6950   -5.8990   28.7630 N   0  0  0  0  0  0  0  0  0  0  0  0
    5.0480   -5.9090   28.9260 C   0  0  0  0  0  0  0  0  0  0  0  0
    5.8020   -7.0840   29.9720 Cl  0  0  0  0  0  0  0  0  0  0  0  0
    5.7440   -4.9630   28.2370 N   0  0  0  0  0  0  0  0  0  0  0  0
    5.9420   -1.7650   27.3770 C   0  0  1  0  0  0  0  0  0  0  0  0
    6.9730   -1.4330   28.1940 C   0  0  0  0  0  0  0  0  0  0  0  0
    6.6530   -0.5050   29.3530 C   0  0  0  0  0  0  0  0  0  0  0  0
    6.3720    0.7400   28.5320 C   0  0  0  0  0  0  0  0  0  0  0  0
    5.5380    0.5530   27.3800 N   0  0  0  0  0  0  0  0  0  0  0  0
    4.9280    1.7050   26.8510 C   0  0  0  0  0  0  0  0  0  0  0  0
    4.0570    1.6220   25.7780 O   0  0  0  0  0  0  0  0  0  0  0  0
    5.1730    2.9650   27.3890 O   0  0  0  0  0  0  0  0  0  0  0  0
    6.1740    3.8520   26.9720 C   0  0  0  0  0  0  0  0  0  0  0  0
    7.2150    3.9530   28.0440 C   0  0  0  0  0  0  0  0  0  0  0  0
    5.8340    5.2170   26.4530 C   0  0  0  0  0  0  0  0  0  0  0  0
    7.2360    3.1850   26.1200 C   0  0  0  0  0  0  0  0  0  0  0  0
    5.7210   -0.5980   26.5250 C   0  0  0  0  0  0  0  0  0  0  0  0
    5.9900   -4.8910   23.7060 C   0  0  0  0  0  0  0  0  0  0  0  0
    6.6080   -5.3760   22.4120 C   0  0  0  0  0  0  0  0  0  0  0  0
  1  2  1  0
  2  3  2  0
  2  4  1  0
  4  5  1  0
  5  6  1  0
  6  7  1  0
  7  8  1  0
  8  9  2  0
  8 10  1  0
 10 11  1  0
 11 12  2  0
 12 13  1  0
 13 14  2  0
 14 15  1  0
 15 16  1  0
 11 17  1  0
 15 17  2  0
 18 10  1  6
 18 19  1  0
 19 20  1  0
 20 21  1  0
 21 22  1  0
 22 23  1  0
 23 24  2  0
 23 25  1  0
 26 25  1  0
 26 27  1  0
 26 28  1  0
 26 29  1  0
 18 30  1  0
 22 30  1  0
  7 31  1  0
  4 32  1  0
 31 32  1  0
M  END
