piperidine-amides-27727-covalent
     RDKit          3D

 26 28  0  0  0  0  0  0  0  0999 V2000
    7.0680   -3.3370   19.2430 C   0  0  0  0  0  0  0  0  0  0  0  0
    6.3880   -4.1530   20.2730 C   0  0  0  0  0  0  0  0  0  0  0  0
    5.3240   -4.7020   19.9350 O   0  0  0  0  0  0  0  0  0  0  0  0
    6.9560   -4.3420   21.5410 N   0  0  0  0  0  0  0  0  0  0  0  0
    6.6750   -5.5370   22.2590 C   0  0  0  0  0  0  0  0  0  0  0  0
    6.0630   -5.2710   23.5540 C   0  0  0  0  0  0  0  0  0  0  0  0
    5.9820   -3.8340   23.8690 C   0  0  0  0  0  0  0  0  0  0  0  0
    5.6230   -3.6640   25.2840 C   0  0  0  0  0  0  0  0  0  0  0  0
    4.4310   -3.4540   25.5730 O   0  0  0  0  0  0  0  0  0  0  0  0
    6.6120   -3.7230   26.2640 N   0  0  0  0  0  0  0  0  0  0  0  0
    7.3600   -2.5620   26.6560 C   0  0  0  0  0  0  0  0  0  0  0  0
    7.2890   -2.6030   28.1140 C   0  0  1  0  0  0  0  0  0  0  0  0
    8.4480   -2.1240   28.8170 C   0  0  0  0  0  0  0  0  0  0  0  0
    7.1760   -1.4320   28.9890 C   0  0  0  0  0  0  0  0  0  0  0  0
    6.2580   -0.4740   28.6300 C   0  0  0  0  0  0  0  0  0  0  0  0
    6.9360   -3.7870   28.8000 N   0  0  0  0  0  0  0  0  0  0  0  0
    5.6100   -4.1380   28.9080 C   0  0  0  0  0  0  0  0  0  0  0  0
    5.4170   -2.8880   29.5630 O   0  0  0  0  0  0  0  0  0  0  0  0
    6.2520   -5.1730   28.2620 C   0  0  0  0  0  0  0  0  0  0  0  0
    6.3470   -6.1120   28.8320 C   0  0  0  0  0  0  0  0  0  0  0  0
    5.5830   -5.2030   29.7760 C   0  0  0  0  0  0  0  0  0  0  0  0
    6.1130   -6.2930   29.5290 C   0  0  0  0  0  0  0  0  0  0  0  0
    6.0020   -4.8210   28.5300 C   0  0  0  0  0  0  0  0  0  0  0  0
    6.6440   -4.8680   27.1170 C   0  0  0  0  0  0  0  0  0  0  0  0
    7.1460   -3.0070   23.5160 C   0  0  0  0  0  0  0  0  0  0  0  0
    7.7680   -3.3150   22.1760 C   0  0  0  0  0  0  0  0  0  0  0  0
  1  2  1  0
  2  3  2  0
  2  4  1  0
  4  5  1  0
  5  6  1  0
  6  7  1  0
  7  8  1  0
  8  9  2  0
  8 10  1  0
 10 11  1  0
 11 12  1  0
 12 13  1  1
 12 14  1  0
 14 15  1  0
 12 16  1  0
 16 17  1  0
 17 18  2  0
 17 19  1  0
 19 20  1  0
 20 21  2  0
 21 22  1  0
 22 23  2  0
 10 24  1  0
 19 24  2  0
 23 24  1  0
  7 25  1  0
  4 26  1  0
 25 26  1  0
M  END
