piperidine-amides-35395-covalent
     RDKit          3D

 30 32  0  0  0  0  0  0  0  0999 V2000
    7.0120   -3.4040   19.4350 C   0  0  0  0  0  0  0  0  0  0  0  0
    6.3590   -4.2950   20.4260 C   0  0  0  0  0  0  0  0  0  0  0  0
    5.4070   -4.9520   20.0080 O   0  0  0  0  0  0  0  0  0  0  0  0
    6.8490   -4.3920   21.7450 N   0  0  0  0  0  0  0  0  0  0  0  0
    6.6140   -5.5800   22.5380 C   0  0  0  0  0  0  0  0  0  0  0  0
    5.9540   -5.1740   23.8350 C   0  0  0  0  0  0  0  0  0  0  0  0
    5.8180   -3.6560   23.8170 C   0  0  0  0  0  0  0  0  0  0  0  0
    4.9820   -3.1370   24.9530 C   0  0  0  0  0  0  0  0  0  0  0  0
    4.1980   -2.2230   24.7110 O   0  0  0  0  0  0  0  0  0  0  0  0
    5.0280   -3.5970   26.2810 N   0  0  0  0  0  0  0  0  0  0  0  0
    4.0180   -3.1000   27.2060 C   0  0  0  0  0  0  0  0  0  0  0  0
    4.3570   -3.4050   28.6630 C   0  0  0  0  0  0  0  0  0  0  0  0
    4.5400   -4.6620   29.1300 C   0  0  0  0  0  0  0  0  0  0  0  0
    5.1760   -5.6220   28.3860 N   0  0  0  0  0  0  0  0  0  0  0  0
    5.5090   -6.9080   28.9530 C   0  0  0  0  0  0  0  0  0  0  0  0
    4.7820   -7.2390   30.0660 C   0  0  0  0  0  0  0  0  0  0  0  0
    5.0800   -7.2090   31.5430 C   0  0  0  0  0  0  0  0  0  0  0  0
    3.9100   -7.6950   32.3500 C   0  0  0  0  0  0  0  0  0  0  0  0
    2.6120   -8.1490   31.7230 C   0  0  0  0  0  0  0  0  0  0  0  0
    1.1430   -8.7650   32.8090 Br  0  0  0  0  0  0  0  0  0  0  0  0
    2.5160   -8.1000   30.2310 C   0  0  0  0  0  0  0  0  0  0  0  0
    3.5770   -7.6470   29.2840 C   0  0  0  0  0  0  0  0  0  0  0  0
    6.3350   -5.0970   27.8030 C   0  0  0  0  0  0  0  0  0  0  0  0
    6.1430   -3.7730   27.0340 C   0  0  2  0  0  0  0  0  0  0  0  0
    6.3950   -2.3990   27.6440 C   0  0  0  0  0  0  0  0  0  0  0  0
    6.8070   -2.4220   28.9240 C   0  0  0  0  0  0  0  0  0  0  0  0
    5.9690   -1.6750   29.9350 C   0  0  0  0  0  0  0  0  0  0  0  0
    6.7040   -3.9010   29.0570 C   0  0  0  0  0  0  0  0  0  0  0  0
    7.2270   -3.1040   23.6790 C   0  0  0  0  0  0  0  0  0  0  0  0
    7.6110   -3.3250   22.3790 C   0  0  0  0  0  0  0  0  0  0  0  0
  1  2  1  0
  2  3  2  0
  2  4  1  0
  4  5  1  0
  5  6  1  0
  6  7  1  0
  7  8  1  0
  8  9  2  0
  8 10  1  0
 10 11  1  0
 11 12  1  0
 12 13  1  0
 13 14  1  0
 14 15  1  0
 15 16  1  0
 16 17  2  0
 17 18  1  0
 18 19  2  0
 19 20  1  0
 19 21  1  0
 16 22  1  0
 21 22  2  0
 14 23  1  0
 10 24  1  0
 23 24  1  0
 24 25  1  1
 25 26  1  0
 26 27  1  0
 26 28  1  0
  7 29  1  0
  4 30  1  0
 29 30  1  0
M  END
