piperidine-amides-12988-covalent
     RDKit          3D

 21 22  0  0  0  0  0  0  0  0999 V2000
    7.0710   -3.2830   19.2150 C   0  0  0  0  0  0  0  0  0  0  0  0
    6.3430   -4.0340   20.2680 C   0  0  0  0  0  0  0  0  0  0  0  0
    5.2950   -4.6000   19.9060 O   0  0  0  0  0  0  0  0  0  0  0  0
    6.8330   -4.1380   21.5860 N   0  0  0  0  0  0  0  0  0  0  0  0
    7.6860   -3.1290   22.1150 C   0  0  0  0  0  0  0  0  0  0  0  0
    7.5520   -3.0190   23.5550 C   0  0  0  0  0  0  0  0  0  0  0  0
    6.2390   -3.4780   24.0440 C   0  0  0  0  0  0  0  0  0  0  0  0
    6.1210   -3.2910   25.5120 C   0  0  0  0  0  0  0  0  0  0  0  0
    5.0010   -2.9560   25.9550 O   0  0  0  0  0  0  0  0  0  0  0  0
    7.2240   -3.4780   26.3850 N   0  0  0  0  0  0  0  0  0  0  0  0
    7.2500   -4.5540   27.4130 C   0  0  2  0  0  0  0  0  0  0  0  0
    8.5500   -5.2970   27.4410 C   0  0  0  0  0  0  0  0  0  0  0  0
    6.1300   -5.4910   27.1840 C   0  0  0  0  0  0  0  0  0  0  0  0
    5.5100   -6.1530   28.2190 C   0  0  0  0  0  0  0  0  0  0  0  0
    6.2310   -6.6500   29.2700 C   0  0  0  0  0  0  0  0  0  0  0  0
    5.6410   -7.3090   30.3000 C   0  0  0  0  0  0  0  0  0  0  0  0
    4.2950   -7.5150   30.3550 C   0  0  0  0  0  0  0  0  0  0  0  0
    3.5490   -7.0430   29.3460 N   0  0  0  0  0  0  0  0  0  0  0  0
    4.1250   -6.3070   28.1720 C   0  0  0  0  0  0  0  0  0  0  0  0
    5.8950   -4.8960   23.6150 C   0  0  0  0  0  0  0  0  0  0  0  0
    6.6660   -5.3220   22.4070 C   0  0  0  0  0  0  0  0  0  0  0  0
  1  2  1  0
  2  3  2  0
  2  4  1  0
  4  5  1  0
  5  6  1  0
  6  7  1  0
  7  8  1  0
  8  9  2  0
  8 10  1  0
 10 11  1  0
 11 12  1  6
 11 13  1  0
 13 14  1  0
 14 15  2  0
 15 16  1  0
 16 17  2  0
 17 18  1  0
 14 19  1  0
 18 19  2  0
  7 20  1  0
  4 21  1  0
 20 21  1  0
M  END
