piperidine-amides-881-covalent
     RDKit          3D

 24 26  0  0  0  0  0  0  0  0999 V2000
    7.1190   -3.3640   19.2070 C   0  0  0  0  0  0  0  0  0  0  0  0
    6.4310   -4.0860   20.2480 C   0  0  0  0  0  0  0  0  0  0  0  0
    5.3340   -4.6430   19.9370 O   0  0  0  0  0  0  0  0  0  0  0  0
    6.9600   -4.2580   21.5490 N   0  0  0  0  0  0  0  0  0  0  0  0
    6.5020   -5.4190   22.3290 C   0  0  0  0  0  0  0  0  0  0  0  0
    5.5720   -4.6690   23.3560 C   0  0  0  0  0  0  0  0  0  0  0  0
    6.4440   -3.6150   24.0160 C   0  0  0  0  0  0  0  0  0  0  0  0
    5.7280   -2.9980   25.2850 C   0  0  0  0  0  0  0  0  0  0  0  0
    5.2900   -1.8840   25.0490 O   0  0  0  0  0  0  0  0  0  0  0  0
    5.7770   -3.8310   26.2220 N   0  0  0  0  0  0  0  0  0  0  0  0
    5.7150   -4.6980   27.2550 C   0  0  0  0  0  0  0  0  0  0  0  0
    4.8250   -5.3540   28.0420 C   0  0  2  0  0  0  0  0  0  0  0  0
    5.2910   -5.5430   29.3560 C   0  0  0  0  0  0  0  0  0  0  0  0
    5.9850   -6.8210   29.5650 C   0  0  0  0  0  0  0  0  0  0  0  0
    4.8730   -7.5050   28.7660 C   0  0  0  0  0  0  0  0  0  0  0  0
    4.7280   -6.7290   27.5440 N   0  0  0  0  0  0  0  0  0  0  0  0
    3.4500   -6.8570   26.9190 C   0  0  0  0  0  0  0  0  0  0  0  0
    2.3260   -6.5500   27.7620 C   0  0  0  0  0  0  0  0  0  0  0  0
    1.2370   -6.8260   26.6930 C   0  0  0  0  0  0  0  0  0  0  0  0
    1.4170   -7.2830   25.2220 C   0  0  0  0  0  0  0  0  0  0  0  0
    2.6470   -7.4830   24.7530 C   0  0  0  0  0  0  0  0  0  0  0  0
    3.6730   -7.2690   25.6020 C   0  0  0  0  0  0  0  0  0  0  0  0
    6.9980   -2.5580   23.0830 C   0  0  0  0  0  0  0  0  0  0  0  0
    7.7680   -3.2520   22.1990 C   0  0  0  0  0  0  0  0  0  0  0  0
  1  2  1  0
  2  3  2  0
  2  4  1  0
  4  5  1  0
  5  6  1  0
  6  7  1  0
  7  8  1  0
  8  9  2  0
  8 10  1  0
 10 11  1  0
 12 11  1  6
 12 13  1  0
 13 14  1  0
 14 15  1  0
 12 16  1  0
 15 16  1  0
 16 17  1  0
 17 18  2  0
 18 19  1  0
 19 20  2  0
 20 21  1  0
 17 22  1  0
 21 22  2  0
  7 23  1  0
  4 24  1  0
 23 24  1  0
M  END
