piperidine-amides-31893-covalent
     RDKit          3D

 24 27  0  0  0  0  0  0  0  0999 V2000
    7.0590   -3.4100   19.5270 C   0  0  0  0  0  0  0  0  0  0  0  0
    6.3970   -4.3320   20.4240 C   0  0  0  0  0  0  0  0  0  0  0  0
    5.3810   -4.9610   19.9950 O   0  0  0  0  0  0  0  0  0  0  0  0
    6.8540   -4.5870   21.7340 N   0  0  0  0  0  0  0  0  0  0  0  0
    6.0440   -5.5750   22.4950 C   0  0  0  0  0  0  0  0  0  0  0  0
    6.3970   -5.2630   24.0140 C   0  0  0  0  0  0  0  0  0  0  0  0
    6.0130   -3.8220   24.2840 C   0  0  0  0  0  0  0  0  0  0  0  0
    6.3890   -3.2370   25.7220 C   0  0  0  0  0  0  0  0  0  0  0  0
    7.3590   -2.5730   25.5340 O   0  0  0  0  0  0  0  0  0  0  0  0
    5.6000   -3.4990   26.7080 N   0  0  0  0  0  0  0  0  0  0  0  0
    4.5790   -3.3170   27.6480 C   0  0  0  0  0  0  0  0  0  0  0  0
    4.1780   -3.8660   28.8770 C   0  0  0  0  0  0  0  0  0  0  0  0
    3.1340   -3.3240   29.6360 C   0  0  0  0  0  0  0  0  0  0  0  0
    2.6330   -3.8660   30.9710 C   0  0  0  0  0  0  0  0  0  0  0  0
    1.2030   -3.0400   31.9150 Br  0  0  0  0  0  0  0  0  0  0  0  0
    3.4350   -5.1730   31.4580 C   0  0  0  0  0  0  0  0  0  0  0  0
    4.4380   -5.5390   30.5480 C   0  0  0  0  0  0  0  0  0  0  0  0
    4.6820   -4.8700   29.4140 C   0  0  0  0  0  0  0  0  0  0  0  0
    5.7760   -5.7890   29.0540 C   0  0  2  0  0  0  0  0  0  0  0  0
    6.8500   -5.1120   28.2870 C   0  0  0  0  0  0  0  0  0  0  0  0
    5.8010   -4.3500   27.8820 C   0  0  2  0  0  0  0  0  0  0  0  0
    4.8360   -5.3620   27.9900 C   0  0  0  0  0  0  0  0  0  0  0  0
    6.5190   -2.8930   23.1860 C   0  0  0  0  0  0  0  0  0  0  0  0
    7.4930   -3.5310   22.4710 C   0  0  0  0  0  0  0  0  0  0  0  0
  1  2  1  0
  2  3  2  0
  2  4  1  0
  4  5  1  0
  5  6  1  0
  6  7  1  0
  7  8  1  0
  8  9  2  0
  8 10  1  0
 10 11  1  0
 11 12  1  0
 12 13  1  0
 13 14  2  0
 14 15  1  0
 14 16  1  0
 16 17  2  0
 12 18  2  0
 17 18  1  0
 18 19  1  0
 19 20  1  6
 10 21  1  0
 21 20  1  6
 19 22  1  0
 21 22  1  0
  7 23  1  0
  4 24  1  0
 23 24  1  0
M  END
