piperidine-amides-30124-covalent
     RDKit          3D

 27 30  0  0  0  0  0  0  0  0999 V2000
    7.0710   -3.3470   19.3510 C   0  0  0  0  0  0  0  0  0  0  0  0
    6.4060   -4.2250   20.3060 C   0  0  0  0  0  0  0  0  0  0  0  0
    5.3800   -4.8230   19.9770 O   0  0  0  0  0  0  0  0  0  0  0  0
    6.9790   -4.4480   21.6060 N   0  0  0  0  0  0  0  0  0  0  0  0
    7.7070   -3.4100   22.2890 C   0  0  0  0  0  0  0  0  0  0  0  0
    6.8880   -2.8420   23.4090 C   0  0  0  0  0  0  0  0  0  0  0  0
    6.2970   -3.9680   24.2560 C   0  0  0  0  0  0  0  0  0  0  0  0
    5.1690   -3.4120   25.0630 C   0  0  0  0  0  0  0  0  0  0  0  0
    4.0830   -3.1150   24.5460 O   0  0  0  0  0  0  0  0  0  0  0  0
    5.3050   -3.1970   26.4480 N   0  0  0  0  0  0  0  0  0  0  0  0
    6.5620   -2.8140   26.8920 C   0  0  0  0  0  0  0  0  0  0  0  0
    6.4990   -3.4550   28.2530 C   0  0  1  0  0  0  0  0  0  0  0  0
    6.2930   -2.4530   29.1830 C   0  0  0  0  0  0  0  0  0  0  0  0
    7.2160   -1.4790   29.5330 C   0  0  0  0  0  0  0  0  0  0  0  0
    6.7670   -0.5590   30.4970 N   0  0  0  0  0  0  0  0  0  0  0  0
    5.5280   -0.9910   30.7370 N   0  0  0  0  0  0  0  0  0  0  0  0
    4.7430   -0.3790   31.6130 C   0  0  0  0  0  0  0  0  0  0  0  0
    5.0840   -2.1300   30.0180 C   0  0  0  0  0  0  0  0  0  0  0  0
    5.6320   -4.5290   28.2770 C   0  0  0  0  0  0  0  0  0  0  0  0
    5.9310   -5.7480   27.7190 C   0  0  0  0  0  0  0  0  0  0  0  0
    5.0430   -6.7850   27.9880 C   0  0  0  0  0  0  0  0  0  0  0  0
    3.9910   -6.3560   28.7560 O   0  0  0  0  0  0  0  0  0  0  0  0
    4.3500   -5.6290   29.8890 C   0  0  0  0  0  0  0  0  0  0  0  0
    5.3170   -4.6810   29.5890 C   0  0  0  0  0  0  0  0  0  0  0  0
    4.6420   -3.8890   27.5400 C   0  0  0  0  0  0  0  0  0  0  0  0
    5.6970   -5.0950   23.4360 C   0  0  0  0  0  0  0  0  0  0  0  0
    6.6570   -5.6120   22.3670 C   0  0  0  0  0  0  0  0  0  0  0  0
  1  2  1  0
  2  3  2  0
  2  4  1  0
  4  5  1  0
  5  6  1  0
  6  7  1  0
  7  8  1  0
  8  9  2  0
  8 10  1  0
 10 11  1  0
 11 12  1  0
 12 13  1  1
 13 14  1  0
 14 15  2  0
 15 16  1  0
 16 17  1  0
 13 18  2  0
 16 18  1  0
 12 19  1  0
 19 20  1  0
 20 21  1  0
 21 22  1  0
 22 23  1  0
 19 24  1  0
 23 24  1  0
 10 25  1  0
 19 25  1  0
  7 26  1  0
  4 27  1  0
 26 27  1  0
M  END
