piperidine-amides-1620-covalent
     RDKit          3D

 20 21  0  0  0  0  0  0  0  0999 V2000
    7.0730   -3.3120   19.3220 C   0  0  0  0  0  0  0  0  0  0  0  0
    6.3660   -4.1540   20.3230 C   0  0  0  0  0  0  0  0  0  0  0  0
    5.3630   -4.7980   19.9700 O   0  0  0  0  0  0  0  0  0  0  0  0
    6.8820   -4.2350   21.6340 N   0  0  0  0  0  0  0  0  0  0  0  0
    7.6940   -3.1650   22.2000 C   0  0  0  0  0  0  0  0  0  0  0  0
    7.6230   -3.1960   23.7350 C   0  0  0  0  0  0  0  0  0  0  0  0
    6.2550   -3.6470   24.1100 C   0  0  0  0  0  0  0  0  0  0  0  0
    5.8200   -3.3480   25.4910 C   0  0  0  0  0  0  0  0  0  0  0  0
    4.8110   -3.9560   25.8590 O   0  0  0  0  0  0  0  0  0  0  0  0
    6.4700   -2.4180   26.3160 N   0  0  0  0  0  0  0  0  0  0  0  0
    5.7650   -1.3860   26.9910 C   0  0  2  0  0  0  0  0  0  0  0  0
    5.8450    0.0280   26.8330 C   0  0  0  0  0  0  0  0  0  0  0  0
    5.9400    0.4030   28.6060 S   0  0  0  0  0  0  0  0  0  0  0  0
    4.7060    0.9700   29.2900 O   0  0  0  0  0  0  0  0  0  0  0  0
    7.2310    0.9740   29.0990 O   0  0  0  0  0  0  0  0  0  0  0  0
    5.9920   -1.3140   28.5180 C   0  0  0  0  0  0  0  0  0  0  0  0
    5.0870   -1.9280   29.3440 C   0  0  0  0  0  0  0  0  0  0  0  0
    7.2910   -1.8370   28.9480 C   0  0  0  0  0  0  0  0  0  0  0  0
    6.1350   -5.1070   23.7960 C   0  0  0  0  0  0  0  0  0  0  0  0
    6.6870   -5.4130   22.4160 C   0  0  0  0  0  0  0  0  0  0  0  0
  1  2  1  0
  2  3  2  0
  2  4  1  0
  4  5  1  0
  5  6  1  0
  6  7  1  0
  7  8  1  0
  8  9  2  0
  8 10  1  0
 11 10  1  6
 11 12  1  0
 13 12  1  0
 13 14  2  0
 13 15  2  0
 11 16  1  0
 13 16  1  0
 16 17  1  0
 16 18  1  0
  7 19  1  0
  4 20  1  0
 19 20  1  0
M  END
