piperidine-amides-19905-covalent
     RDKit          3D

 22 24  0  0  0  0  0  0  0  0999 V2000
    7.0430   -3.3570   19.3980 C   0  0  0  0  0  0  0  0  0  0  0  0
    6.4040   -4.2550   20.4000 C   0  0  0  0  0  0  0  0  0  0  0  0
    5.4350   -4.9080   20.0020 O   0  0  0  0  0  0  0  0  0  0  0  0
    6.9240   -4.3600   21.7030 N   0  0  0  0  0  0  0  0  0  0  0  0
    6.6980   -5.5470   22.5180 C   0  0  0  0  0  0  0  0  0  0  0  0
    6.0480   -5.1720   23.8310 C   0  0  0  0  0  0  0  0  0  0  0  0
    6.0270   -3.6540   23.9200 C   0  0  0  0  0  0  0  0  0  0  0  0
    5.3710   -3.1500   25.1530 C   0  0  0  0  0  0  0  0  0  0  0  0
    4.7060   -2.1190   25.0520 O   0  0  0  0  0  0  0  0  0  0  0  0
    5.4240   -3.7490   26.4260 N   0  0  0  0  0  0  0  0  0  0  0  0
    6.3530   -3.2010   27.3260 C   0  0  0  0  0  0  0  0  0  0  0  0
    6.1350   -4.2200   28.3790 C   0  0  1  0  0  0  0  0  0  0  0  0
    6.8590   -5.1420   28.9740 C   0  0  0  0  0  0  0  0  0  0  0  0
    6.4940   -6.2580   28.3260 C   0  0  0  0  0  0  0  0  0  0  0  0
    5.4210   -5.9960   27.4900 C   0  0  0  0  0  0  0  0  0  0  0  0
    4.1240   -5.2830   27.9290 C   0  0  2  0  0  0  0  0  0  0  0  0
    4.1760   -4.0030   27.0720 C   0  0  0  0  0  0  0  0  0  0  0  0
    4.0160   -4.0460   28.8080 C   0  0  0  0  0  0  0  0  0  0  0  0
    2.8610   -3.3980   29.2130 O   0  0  0  0  0  0  0  0  0  0  0  0
    5.1280   -3.6200   29.1980 N   0  0  0  0  0  0  0  0  0  0  0  0
    7.3100   -3.0110   23.6050 C   0  0  0  0  0  0  0  0  0  0  0  0
    7.7540   -3.2860   22.2190 C   0  0  0  0  0  0  0  0  0  0  0  0
  1  2  1  0
  2  3  2  0
  2  4  1  0
  4  5  1  0
  5  6  1  0
  6  7  1  0
  7  8  1  0
  8  9  2  0
  8 10  1  0
 10 11  1  0
 12 11  1  1
 12 13  1  0
 13 14  1  0
 14 15  1  0
 16 15  1  1
 10 17  1  0
 16 17  1  0
 16 18  1  0
 18 19  2  0
 12 20  1  0
 18 20  1  0
  7 21  1  0
  4 22  1  0
 21 22  1  0
M  END
