piperidine-amides-23656-covalent
     RDKit          3D

 22 23  0  0  0  0  0  0  0  0999 V2000
    7.0430   -3.4040   19.4360 C   0  0  0  0  0  0  0  0  0  0  0  0
    6.3860   -4.2450   20.4460 C   0  0  0  0  0  0  0  0  0  0  0  0
    5.4320   -4.9480   20.0210 O   0  0  0  0  0  0  0  0  0  0  0  0
    6.8410   -4.2940   21.8080 N   0  0  0  0  0  0  0  0  0  0  0  0
    6.5510   -5.4490   22.5960 C   0  0  0  0  0  0  0  0  0  0  0  0
    6.0380   -5.1270   23.9330 C   0  0  0  0  0  0  0  0  0  0  0  0
    5.8830   -3.6720   24.1460 C   0  0  0  0  0  0  0  0  0  0  0  0
    5.0360   -3.2030   25.3430 C   0  0  0  0  0  0  0  0  0  0  0  0
    3.8970   -2.8160   25.0550 O   0  0  0  0  0  0  0  0  0  0  0  0
    5.3460   -3.1500   26.7440 N   0  0  0  0  0  0  0  0  0  0  0  0
    6.5320   -3.3150   27.3190 C   0  0  0  0  0  0  0  0  0  0  0  0
    6.6310   -4.4940   28.2030 C   0  0  0  0  0  0  0  0  0  0  0  0
    5.2660   -4.8380   28.7830 C   0  0  0  0  0  0  0  0  0  0  0  0
    5.4610   -6.3660   29.5160 S   0  0  0  0  0  0  0  0  0  0  0  0
    4.5680   -7.2990   28.7500 O   0  0  0  0  0  0  0  0  0  0  0  0
    6.8600   -6.7980   29.3270 O   0  0  0  0  0  0  0  0  0  0  0  0
    5.0510   -6.5170   31.0000 N   0  0  0  0  0  0  0  0  0  0  0  0
    3.9950   -7.4420   31.2740 C   0  0  0  0  0  0  0  0  0  0  0  0
    4.3060   -5.0340   27.5920 C   0  0  0  0  0  0  0  0  0  0  0  0
    4.4750   -3.5700   27.7970 C   0  0  0  0  0  0  0  0  0  0  0  0
    7.2270   -2.9830   23.8900 C   0  0  0  0  0  0  0  0  0  0  0  0
    7.6210   -3.2260   22.4330 C   0  0  0  0  0  0  0  0  0  0  0  0
  1  2  1  0
  2  3  2  0
  2  4  1  0
  4  5  1  0
  5  6  1  0
  6  7  1  0
  7  8  1  0
  8  9  2  0
  8 10  1  0
 10 11  1  0
 11 12  1  0
 12 13  1  0
 13 14  1  0
 14 15  2  0
 14 16  2  0
 14 17  1  0
 17 18  1  0
 13 19  1  0
 10 20  1  0
 19 20  1  0
  7 21  1  0
  4 22  1  0
 21 22  1  0
M  END
