piperidine-amides-8134-covalent
     RDKit          3D

 26 27  0  0  0  0  0  0  0  0999 V2000
    7.0580   -3.3320   19.3130 C   0  0  0  0  0  0  0  0  0  0  0  0
    6.3990   -4.1690   20.3100 C   0  0  0  0  0  0  0  0  0  0  0  0
    5.3640   -4.7700   19.9670 O   0  0  0  0  0  0  0  0  0  0  0  0
    6.9650   -4.3340   21.6030 N   0  0  0  0  0  0  0  0  0  0  0  0
    7.6800   -3.2300   22.1890 C   0  0  0  0  0  0  0  0  0  0  0  0
    6.8480   -2.6350   23.2790 C   0  0  0  0  0  0  0  0  0  0  0  0
    6.5710   -3.7420   24.2600 C   0  0  0  0  0  0  0  0  0  0  0  0
    5.7870   -3.1970   25.4140 C   0  0  0  0  0  0  0  0  0  0  0  0
    4.6030   -2.9440   25.1990 O   0  0  0  0  0  0  0  0  0  0  0  0
    6.4360   -3.0260   26.6310 N   0  0  0  0  0  0  0  0  0  0  0  0
    6.4790   -1.7790   27.3330 C   0  0  0  0  0  0  0  0  0  0  0  0
    5.9390   -0.6180   26.7600 C   0  0  0  0  0  0  0  0  0  0  0  0
    5.9500    0.6040   27.3970 C   0  0  0  0  0  0  0  0  0  0  0  0
    6.4940    0.8140   28.6620 C   0  0  0  0  0  0  0  0  0  0  0  0
    7.0710   -0.4380   29.2590 C   0  0  0  0  0  0  0  0  0  0  0  0
    7.6480   -0.3950   30.5030 N   0  0  0  0  0  0  0  0  0  0  0  0
    7.1520    0.5370   31.3260 C   0  0  0  0  0  0  0  0  0  0  0  0
    7.1470    1.7390   30.9650 O   0  0  0  0  0  0  0  0  0  0  0  0
    6.7210    0.0350   32.4570 O   0  0  0  0  0  0  0  0  0  0  0  0
    5.3720    0.2960   32.6460 C   0  0  0  0  0  0  0  0  0  0  0  0
    4.9860    1.2700   33.7220 C   0  0  0  0  0  0  0  0  0  0  0  0
    4.2600    0.4300   34.8040 C   0  0  0  0  0  0  0  0  0  0  0  0
    4.0320    2.1820   33.3270 C   0  0  0  0  0  0  0  0  0  0  0  0
    7.0270   -1.6240   28.5730 C   0  0  0  0  0  0  0  0  0  0  0  0
    5.8250   -4.8970   23.6570 C   0  0  0  0  0  0  0  0  0  0  0  0
    6.5580   -5.4200   22.4540 C   0  0  0  0  0  0  0  0  0  0  0  0
  1  2  1  0
  2  3  2  0
  2  4  1  0
  4  5  1  0
  5  6  1  0
  6  7  1  0
  7  8  1  0
  8  9  2  0
  8 10  1  0
 10 11  1  0
 11 12  2  0
 12 13  1  0
 13 14  2  0
 14 15  1  0
 15 16  1  0
 16 17  1  0
 17 18  2  0
 17 19  1  0
 19 20  1  0
 20 21  1  0
 21 22  1  0
 21 23  1  0
 11 24  1  0
 15 24  2  0
  7 25  1  0
  4 26  1  0
 25 26  1  0
M  END
