piperidine-amides-27379-covalent
     RDKit          3D

 25 26  0  0  0  0  0  0  0  0999 V2000
    7.0750   -3.3640   19.3580 C   0  0  0  0  0  0  0  0  0  0  0  0
    6.3590   -4.1810   20.3370 C   0  0  0  0  0  0  0  0  0  0  0  0
    5.2950   -4.7170   19.9410 O   0  0  0  0  0  0  0  0  0  0  0  0
    6.8860   -4.3800   21.6140 N   0  0  0  0  0  0  0  0  0  0  0  0
    6.5700   -5.5630   22.3710 C   0  0  0  0  0  0  0  0  0  0  0  0
    5.7600   -5.1250   23.5590 C   0  0  0  0  0  0  0  0  0  0  0  0
    6.3780   -3.9490   24.2800 C   0  0  0  0  0  0  0  0  0  0  0  0
    5.4060   -3.3810   25.2610 C   0  0  0  0  0  0  0  0  0  0  0  0
    4.5560   -2.5850   24.8240 O   0  0  0  0  0  0  0  0  0  0  0  0
    5.3690   -3.6740   26.6530 N   0  0  0  0  0  0  0  0  0  0  0  0
    6.4740   -3.3350   27.4360 C   0  0  0  0  0  0  0  0  0  0  0  0
    6.6930   -4.5050   28.3760 C   0  0  0  0  0  0  0  0  0  0  0  0
    5.6540   -4.9240   29.0690 C   0  0  0  0  0  0  0  0  0  0  0  0
    4.4780   -4.2510   28.8420 C   0  0  2  0  0  0  0  0  0  0  0  0
    3.9370   -3.6870   29.9870 C   0  0  0  0  0  0  0  0  0  0  0  0
    3.6260   -4.5840   30.9840 O   0  0  0  0  0  0  0  0  0  0  0  0
    3.1310   -4.1400   32.2290 C   0  0  0  0  0  0  0  0  0  0  0  0
    3.3560   -5.2140   28.4670 C   0  0  0  0  0  0  0  0  0  0  0  0
    2.2820   -4.9950   29.2590 O   0  0  0  0  0  0  0  0  0  0  0  0
    3.3790   -6.0870   27.5720 O   0  0  0  0  0  0  0  0  0  0  0  0
    4.0000   -7.3470   27.7210 C   0  0  0  0  0  0  0  0  0  0  0  0
    4.2460   -7.7180   29.1870 C   0  0  0  0  0  0  0  0  0  0  0  0
    4.5840   -3.2940   27.8190 C   0  0  0  0  0  0  0  0  0  0  0  0
    6.7970   -2.8530   23.3310 C   0  0  0  0  0  0  0  0  0  0  0  0
    7.6180   -3.3450   22.3410 C   0  0  0  0  0  0  0  0  0  0  0  0
  1  2  1  0
  2  3  2  0
  2  4  1  0
  4  5  1  0
  5  6  1  0
  6  7  1  0
  7  8  1  0
  8  9  2  0
  8 10  1  0
 10 11  1  0
 11 12  1  0
 12 13  1  0
 13 14  1  0
 14 15  1  1
 15 16  1  0
 16 17  1  0
 14 18  1  0
 18 19  2  0
 18 20  1  0
 20 21  1  0
 21 22  1  0
 10 23  1  0
 14 23  1  0
  7 24  1  0
  4 25  1  0
 24 25  1  0
M  END
