piperidine-amides-24551-covalent
     RDKit          3D

 24 25  0  0  0  0  0  0  0  0999 V2000
    7.0320   -3.3440   19.4220 C   0  0  0  0  0  0  0  0  0  0  0  0
    6.3900   -4.2590   20.3810 C   0  0  0  0  0  0  0  0  0  0  0  0
    5.4070   -4.9340   20.0060 O   0  0  0  0  0  0  0  0  0  0  0  0
    6.8850   -4.4210   21.6950 N   0  0  0  0  0  0  0  0  0  0  0  0
    6.4240   -5.5450   22.4560 C   0  0  0  0  0  0  0  0  0  0  0  0
    5.4460   -4.9470   23.4790 C   0  0  0  0  0  0  0  0  0  0  0  0
    6.2250   -3.9930   24.3740 C   0  0  0  0  0  0  0  0  0  0  0  0
    5.2650   -3.2880   25.2920 C   0  0  0  0  0  0  0  0  0  0  0  0
    4.4160   -2.5660   24.7480 O   0  0  0  0  0  0  0  0  0  0  0  0
    5.2720   -3.4160   26.7240 N   0  0  0  0  0  0  0  0  0  0  0  0
    6.4720   -3.4330   27.4000 C   0  0  0  0  0  0  0  0  0  0  0  0
    6.3630   -4.7940   28.0350 C   0  0  0  0  0  0  0  0  0  0  0  0
    5.2620   -5.1470   28.6570 C   0  0  0  0  0  0  0  0  0  0  0  0
    5.1080   -6.4070   29.1770 C   0  0  0  0  0  0  0  0  0  0  0  0
    4.9120   -7.3240   28.1620 C   0  0  0  0  0  0  0  0  0  0  0  0
    6.1790   -6.8180   29.9080 C   0  0  0  0  0  0  0  0  0  0  0  0
    4.0760   -6.4600   30.1120 C   0  0  0  0  0  0  0  0  0  0  0  0
    4.5300   -6.2130   31.2280 O   0  0  0  0  0  0  0  0  0  0  0  0
    2.7710   -6.7530   29.8610 O   0  0  0  0  0  0  0  0  0  0  0  0
    2.6150   -8.0940   29.6180 C   0  0  0  0  0  0  0  0  0  0  0  0
    4.2690   -4.2270   28.7310 C   0  0  0  0  0  0  0  0  0  0  0  0
    4.2930   -3.1070   27.7420 C   0  0  0  0  0  0  0  0  0  0  0  0
    6.9530   -2.9500   23.5420 C   0  0  0  0  0  0  0  0  0  0  0  0
    7.5410   -3.3420   22.3550 C   0  0  0  0  0  0  0  0  0  0  0  0
  1  2  1  0
  2  3  2  0
  2  4  1  0
  4  5  1  0
  5  6  1  0
  6  7  1  0
  7  8  1  0
  8  9  2  0
  8 10  1  0
 10 11  1  0
 11 12  1  0
 12 13  2  0
 13 14  1  0
 14 15  1  0
 14 16  1  0
 14 17  1  0
 17 18  2  0
 17 19  1  0
 19 20  1  0
 13 21  1  0
 10 22  1  0
 21 22  1  0
  7 23  1  0
  4 24  1  0
 23 24  1  0
M  END
