piperidine-amides-5366-covalent
     RDKit          3D

 21 22  0  0  0  0  0  0  0  0999 V2000
    7.0780   -3.2780   19.2630 C   0  0  0  0  0  0  0  0  0  0  0  0
    6.3320   -4.0440   20.2700 C   0  0  0  0  0  0  0  0  0  0  0  0
    5.3020   -4.6380   19.9180 O   0  0  0  0  0  0  0  0  0  0  0  0
    6.7690   -4.1650   21.6070 N   0  0  0  0  0  0  0  0  0  0  0  0
    6.6810   -5.4190   22.3250 C   0  0  0  0  0  0  0  0  0  0  0  0
    6.0870   -5.1000   23.6740 C   0  0  0  0  0  0  0  0  0  0  0  0
    6.0470   -3.6240   23.9270 C   0  0  0  0  0  0  0  0  0  0  0  0
    5.6120   -3.2800   25.3060 C   0  0  0  0  0  0  0  0  0  0  0  0
    4.3950   -3.0250   25.5380 O   0  0  0  0  0  0  0  0  0  0  0  0
    6.5000   -3.2070   26.4030 N   0  0  0  0  0  0  0  0  0  0  0  0
    6.1420   -3.7370   27.7430 C   0  0  0  0  0  0  0  0  0  0  0  0
    5.9510   -5.2140   27.6900 C   0  0  0  0  0  0  0  0  0  0  0  0
    4.9000   -5.5550   28.4610 N   0  0  0  0  0  0  0  0  0  0  0  0
    4.4050   -4.7770   29.5340 C   0  0  0  0  0  0  0  0  0  0  0  0
    4.1160   -5.6940   30.6910 C   0  0  0  0  0  0  0  0  0  0  0  0
    3.1230   -6.7660   30.3050 C   0  0  0  0  0  0  0  0  0  0  0  0
    2.9660   -7.7060   31.3480 O   0  0  0  0  0  0  0  0  0  0  0  0
    3.7150   -7.4890   29.1550 C   0  0  0  0  0  0  0  0  0  0  0  0
    4.3020   -6.7330   28.1680 C   0  0  0  0  0  0  0  0  0  0  0  0
    7.3760   -2.9860   23.6250 C   0  0  0  0  0  0  0  0  0  0  0  0
    7.6700   -3.1540   22.1490 C   0  0  0  0  0  0  0  0  0  0  0  0
  1  2  1  0
  2  3  2  0
  2  4  1  0
  4  5  1  0
  5  6  1  0
  6  7  1  0
  7  8  1  0
  8  9  2  0
  8 10  1  0
 10 11  1  0
 11 12  1  0
 12 13  1  0
 13 14  1  0
 14 15  1  0
 15 16  1  0
 16 17  1  0
 16 18  1  0
 13 19  1  0
 18 19  1  0
  7 20  1  0
  4 21  1  0
 20 21  1  0
M  END
