piperidine-amides-10711-covalent
     RDKit          3D

 22 23  0  0  0  0  0  0  0  0999 V2000
    7.1010   -3.2760   19.2030 C   0  0  0  0  0  0  0  0  0  0  0  0
    6.3330   -4.0310   20.2010 C   0  0  0  0  0  0  0  0  0  0  0  0
    5.2570   -4.5520   19.8730 O   0  0  0  0  0  0  0  0  0  0  0  0
    6.8100   -4.2320   21.5010 N   0  0  0  0  0  0  0  0  0  0  0  0
    6.5080   -5.4130   22.2710 C   0  0  0  0  0  0  0  0  0  0  0  0
    5.7530   -4.9170   23.4790 C   0  0  0  0  0  0  0  0  0  0  0  0
    6.5220   -3.8480   24.2050 C   0  0  0  0  0  0  0  0  0  0  0  0
    5.8090   -3.3440   25.4090 C   0  0  0  0  0  0  0  0  0  0  0  0
    4.5570   -3.1620   25.3680 O   0  0  0  0  0  0  0  0  0  0  0  0
    6.4680   -3.0320   26.6230 N   0  0  0  0  0  0  0  0  0  0  0  0
    6.1220   -3.6760   27.9230 C   0  0  0  0  0  0  0  0  0  0  0  0
    5.3120   -4.9030   27.7090 C   0  0  2  0  0  0  0  0  0  0  0  0
    3.8610   -4.6320   27.6130 C   0  0  0  0  0  0  0  0  0  0  0  0
    2.9790   -5.2990   28.5870 N   0  0  0  0  0  0  0  0  0  0  0  0
    3.3190   -4.6130   29.8730 C   0  0  0  0  0  0  0  0  0  0  0  0
    3.3620   -6.7020   28.7760 C   0  0  0  0  0  0  0  0  0  0  0  0
    4.7830   -6.9900   28.4550 C   0  0  0  0  0  0  0  0  0  0  0  0
    5.6430   -5.9340   28.5560 C   0  0  0  0  0  0  0  0  0  0  0  0
    6.9600   -6.2620   28.5680 F   0  0  0  0  0  0  0  0  0  0  0  0
    5.4840   -5.4810   29.8390 F   0  0  0  0  0  0  0  0  0  0  0  0
    6.8580   -2.6850   23.3090 C   0  0  0  0  0  0  0  0  0  0  0  0
    7.6330   -3.2140   22.1320 C   0  0  0  0  0  0  0  0  0  0  0  0
  1  2  1  0
  2  3  2  0
  2  4  1  0
  4  5  1  0
  5  6  1  0
  6  7  1  0
  7  8  1  0
  8  9  2  0
  8 10  1  0
 10 11  1  0
 12 11  1  1
 12 13  1  0
 13 14  1  0
 14 15  1  0
 14 16  1  0
 16 17  1  0
 12 18  1  0
 17 18  1  0
 18 19  1  0
 18 20  1  0
  7 21  1  0
  4 22  1  0
 21 22  1  0
M  END
