piperidine-amides-11511-covalent
     RDKit          3D

 22 24  0  0  0  0  0  0  0  0999 V2000
    7.1420   -3.2590   19.1800 C   0  0  0  0  0  0  0  0  0  0  0  0
    6.3810   -3.9880   20.1920 C   0  0  0  0  0  0  0  0  0  0  0  0
    5.2980   -4.5030   19.8730 O   0  0  0  0  0  0  0  0  0  0  0  0
    6.8740   -4.1850   21.4940 N   0  0  0  0  0  0  0  0  0  0  0  0
    6.6670   -5.4050   22.2170 C   0  0  0  0  0  0  0  0  0  0  0  0
    6.0080   -4.9930   23.5070 C   0  0  0  0  0  0  0  0  0  0  0  0
    6.6970   -3.8450   24.2030 C   0  0  0  0  0  0  0  0  0  0  0  0
    5.9060   -3.3150   25.3460 C   0  0  0  0  0  0  0  0  0  0  0  0
    4.7050   -2.9460   25.1820 O   0  0  0  0  0  0  0  0  0  0  0  0
    6.4350   -3.1830   26.6420 N   0  0  0  0  0  0  0  0  0  0  0  0
    5.6340   -3.4800   27.8470 C   0  0  0  0  0  0  0  0  0  0  0  0
    5.6570   -4.9270   28.2120 C   0  0  0  0  0  0  0  0  0  0  0  0
    6.6140   -5.2700   29.0970 N   0  0  0  0  0  0  0  0  0  0  0  0
    6.4500   -6.5190   29.2670 N   0  0  0  0  0  0  0  0  0  0  0  0
    5.3600   -7.0350   28.4890 C   0  0  0  0  0  0  0  0  0  0  0  0
    4.6650   -5.9820   27.6470 C   0  0  0  0  0  0  0  0  0  0  0  0
    3.4990   -5.9990   26.6830 C   0  0  0  0  0  0  0  0  0  0  0  0
    4.0590   -6.0030   25.3580 C   0  0  0  0  0  0  0  0  0  0  0  0
    3.3680   -7.1300   25.2300 C   0  0  0  0  0  0  0  0  0  0  0  0
    2.7790   -7.2120   26.5350 C   0  0  0  0  0  0  0  0  0  0  0  0
    6.9930   -2.6430   23.2980 C   0  0  0  0  0  0  0  0  0  0  0  0
    7.7270   -3.1740   22.0750 C   0  0  0  0  0  0  0  0  0  0  0  0
  1  2  1  0
  2  3  2  0
  2  4  1  0
  4  5  1  0
  5  6  1  0
  6  7  1  0
  7  8  1  0
  8  9  2  0
  8 10  1  0
 10 11  1  0
 11 12  1  0
 12 13  1  0
 13 14  1  0
 14 15  2  0
 12 16  2  0
 15 16  1  0
 16 17  1  0
 17 18  1  0
 18 19  1  0
 17 20  1  0
 19 20  1  0
  7 21  1  0
  4 22  1  0
 21 22  1  0
M  END
