piperidine-amides-30514-covalent
     RDKit          3D

 27 29  0  0  0  0  0  0  0  0999 V2000
    7.0400   -3.3510   19.3320 C   0  0  0  0  0  0  0  0  0  0  0  0
    6.3700   -4.1940   20.3240 C   0  0  0  0  0  0  0  0  0  0  0  0
    5.3730   -4.8520   19.9800 O   0  0  0  0  0  0  0  0  0  0  0  0
    6.8500   -4.3170   21.6400 N   0  0  0  0  0  0  0  0  0  0  0  0
    7.6740   -3.2940   22.2570 C   0  0  0  0  0  0  0  0  0  0  0  0
    6.8760   -2.7580   23.4170 C   0  0  0  0  0  0  0  0  0  0  0  0
    6.4310   -3.8650   24.3220 C   0  0  0  0  0  0  0  0  0  0  0  0
    5.4740   -3.3880   25.3790 C   0  0  0  0  0  0  0  0  0  0  0  0
    4.6510   -2.4790   25.0870 O   0  0  0  0  0  0  0  0  0  0  0  0
    5.3790   -3.8770   26.7240 N   0  0  0  0  0  0  0  0  0  0  0  0
    4.0910   -4.0010   27.3870 C   0  0  0  0  0  0  0  0  0  0  0  0
    4.3570   -4.0430   28.8540 C   0  0  0  0  0  0  0  0  0  0  0  0
    5.4270   -4.8250   29.0880 N   0  0  0  0  0  0  0  0  0  0  0  0
    5.3770   -6.2200   29.3850 C   0  0  0  0  0  0  0  0  0  0  0  0
    4.4250   -6.4710   30.5360 C   0  0  0  0  0  0  0  0  0  0  0  0
    4.0780   -5.2320   31.0120 O   0  0  0  0  0  0  0  0  0  0  0  0
    3.9830   -7.7360   31.0130 N   0  0  0  0  0  0  0  0  0  0  0  0
    2.7570   -7.8410   31.5330 C   0  0  0  0  0  0  0  0  0  0  0  0
    1.9880   -6.7540   32.1930 C   0  0  0  0  0  0  0  0  0  0  0  0
    0.9370   -7.2800   32.9120 C   0  0  0  0  0  0  0  0  0  0  0  0
    0.1650   -8.2430   32.2500 C   0  0  0  0  0  0  0  0  0  0  0  0
    0.5650   -8.6890   30.8620 C   0  0  0  0  0  0  0  0  0  0  0  0
    1.8870   -8.1340   30.3280 C   0  0  0  0  0  0  0  0  0  0  0  0
    6.5730   -4.5310   28.3070 C   0  0  0  0  0  0  0  0  0  0  0  0
    6.3940   -3.5350   27.6280 C   0  0  0  0  0  0  0  0  0  0  0  0
    5.8650   -5.0530   23.6380 C   0  0  0  0  0  0  0  0  0  0  0  0
    6.5010   -5.4260   22.4670 C   0  0  0  0  0  0  0  0  0  0  0  0
  1  2  1  0
  2  3  2  0
  2  4  1  0
  4  5  1  0
  5  6  1  0
  6  7  1  0
  7  8  1  0
  8  9  2  0
  8 10  1  0
 10 11  1  0
 11 12  1  0
 12 13  1  0
 13 14  1  0
 14 15  1  0
 15 16  2  0
 15 17  1  0
 17 18  1  0
 18 19  1  0
 19 20  1  0
 20 21  1  0
 21 22  1  0
 18 23  1  0
 22 23  1  0
 13 24  1  0
 10 25  1  0
 24 25  1  0
  7 26  1  0
  4 27  1  0
 26 27  1  0
M  END
