piperidine-amides-8166-covalent
     RDKit          3D

 25 27  0  0  0  0  0  0  0  0999 V2000
    7.0290   -3.3320   19.3520 C   0  0  0  0  0  0  0  0  0  0  0  0
    6.3770   -4.1710   20.3600 C   0  0  0  0  0  0  0  0  0  0  0  0
    5.4110   -4.8660   19.9910 O   0  0  0  0  0  0  0  0  0  0  0  0
    6.8610   -4.2140   21.7010 N   0  0  0  0  0  0  0  0  0  0  0  0
    6.6470   -5.4250   22.4530 C   0  0  0  0  0  0  0  0  0  0  0  0
    6.1050   -5.1200   23.8300 C   0  0  0  0  0  0  0  0  0  0  0  0
    6.0840   -3.6160   23.9940 C   0  0  0  0  0  0  0  0  0  0  0  0
    5.5590   -3.2000   25.3460 C   0  0  0  0  0  0  0  0  0  0  0  0
    4.3370   -3.2310   25.4570 O   0  0  0  0  0  0  0  0  0  0  0  0
    6.4310   -2.8110   26.3650 N   0  0  0  0  0  0  0  0  0  0  0  0
    6.6680   -1.4410   26.7250 C   0  0  1  0  0  0  0  0  0  0  0  0
    5.9460   -0.4590   26.0560 C   0  0  0  0  0  0  0  0  0  0  0  0
    5.6970    0.5490   26.9180 C   0  0  0  0  0  0  0  0  0  0  0  0
    6.1350    0.2970   28.1950 C   0  0  0  0  0  0  0  0  0  0  0  0
    6.2980   -1.2030   28.1660 C   0  0  2  0  0  0  0  0  0  0  0  0
    7.1560   -1.6520   29.3350 C   0  0  0  0  0  0  0  0  0  0  0  0
    7.0180   -0.8110   30.5460 C   0  0  0  0  0  0  0  0  0  0  0  0
    8.0410   -0.1230   31.3070 C   0  0  0  0  0  0  0  0  0  0  0  0
    7.2730    0.5560   32.4420 C   0  0  0  0  0  0  0  0  0  0  0  0
    7.8640    1.3210   33.4190 C   0  0  0  0  0  0  0  0  0  0  0  0
    5.9490    0.2450   32.2700 N   0  0  0  0  0  0  0  0  0  0  0  0
    5.7300   -0.5490   31.1810 N   0  0  0  0  0  0  0  0  0  0  0  0
    4.5200   -0.9740   30.8270 C   0  0  0  0  0  0  0  0  0  0  0  0
    7.4090   -3.0120   23.7090 C   0  0  0  0  0  0  0  0  0  0  0  0
    7.6910   -3.1570   22.2410 C   0  0  0  0  0  0  0  0  0  0  0  0
  1  2  1  0
  2  3  2  0
  2  4  1  0
  4  5  1  0
  5  6  1  0
  6  7  1  0
  7  8  1  0
  8  9  2  0
  8 10  1  0
 11 10  1  6
 11 12  1  0
 12 13  1  0
 13 14  1  0
 11 15  1  0
 14 15  1  0
 15 16  1  1
 16 17  1  0
 17 18  2  0
 18 19  1  0
 19 20  1  0
 19 21  2  0
 17 22  1  0
 21 22  1  0
 22 23  1  0
  7 24  1  0
  4 25  1  0
 24 25  1  0
M  END
