piperidine-amides-27964-covalent
     RDKit          3D

 26 28  0  0  0  0  0  0  0  0999 V2000
    7.0610   -3.3500   19.3550 C   0  0  0  0  0  0  0  0  0  0  0  0
    6.4190   -4.2160   20.3690 C   0  0  0  0  0  0  0  0  0  0  0  0
    5.4120   -4.8550   19.9900 O   0  0  0  0  0  0  0  0  0  0  0  0
    6.9550   -4.3340   21.6680 N   0  0  0  0  0  0  0  0  0  0  0  0
    6.6800   -5.4960   22.4550 C   0  0  0  0  0  0  0  0  0  0  0  0
    6.1430   -5.1690   23.7770 C   0  0  0  0  0  0  0  0  0  0  0  0
    6.1260   -3.7140   24.0220 C   0  0  0  0  0  0  0  0  0  0  0  0
    5.5910   -3.3440   25.3640 C   0  0  0  0  0  0  0  0  0  0  0  0
    4.5400   -2.6800   25.3780 O   0  0  0  0  0  0  0  0  0  0  0  0
    6.1780   -3.6990   26.5930 N   0  0  0  0  0  0  0  0  0  0  0  0
    6.2280   -2.7670   27.6860 C   0  0  0  0  0  0  0  0  0  0  0  0
    6.2140   -3.7700   28.7450 C   0  0  0  0  0  0  0  0  0  0  0  0
    5.5060   -5.0040   28.4140 C   0  0  2  0  0  0  0  0  0  0  0  0
    5.8040   -6.1350   29.1200 C   0  0  0  0  0  0  0  0  0  0  0  0
    4.5990   -6.2940   29.8260 N   0  0  0  0  0  0  0  0  0  0  0  0
    3.9880   -5.1830   30.5330 C   0  0  0  0  0  0  0  0  0  0  0  0
    4.3270   -7.5880   30.0480 C   0  0  0  0  0  0  0  0  0  0  0  0
    4.2900   -7.7770   31.3960 C   0  0  0  0  0  0  0  0  0  0  0  0
    5.3950   -7.5950   32.1660 C   0  0  0  0  0  0  0  0  0  0  0  0
    5.4080   -7.7770   33.5400 C   0  0  0  0  0  0  0  0  0  0  0  0
    4.1430   -8.1920   34.1760 C   0  0  0  0  0  0  0  0  0  0  0  0
    3.0720   -8.3650   33.4060 N   0  0  0  0  0  0  0  0  0  0  0  0
    3.1270   -8.1670   32.0550 C   0  0  0  0  0  0  0  0  0  0  0  0
    5.8210   -5.0390   27.0240 C   0  0  0  0  0  0  0  0  0  0  0  0
    7.3580   -3.0080   23.6570 C   0  0  0  0  0  0  0  0  0  0  0  0
    7.8100   -3.2890   22.2400 C   0  0  0  0  0  0  0  0  0  0  0  0
  1  2  1  0
  2  3  2  0
  2  4  1  0
  4  5  1  0
  5  6  1  0
  6  7  1  0
  7  8  1  0
  8  9  2  0
  8 10  1  0
 10 11  1  0
 11 12  1  0
 12 13  1  0
 13 14  1  1
 14 15  1  0
 15 16  1  0
 15 17  1  0
 17 18  1  0
 18 19  2  0
 19 20  1  0
 20 21  2  0
 21 22  1  0
 18 23  1  0
 22 23  2  0
 10 24  1  0
 13 24  1  0
  7 25  1  0
  4 26  1  0
 25 26  1  0
M  END
