piperidine-amides-14759-covalent
     RDKit          3D

 22 24  0  0  0  0  0  0  0  0999 V2000
    7.1250   -3.2830   19.2130 C   0  0  0  0  0  0  0  0  0  0  0  0
    6.3310   -3.9910   20.2130 C   0  0  0  0  0  0  0  0  0  0  0  0
    5.2530   -4.4960   19.8590 O   0  0  0  0  0  0  0  0  0  0  0  0
    6.8140   -4.1400   21.5350 N   0  0  0  0  0  0  0  0  0  0  0  0
    6.5000   -5.3490   22.2380 C   0  0  0  0  0  0  0  0  0  0  0  0
    6.3080   -5.0580   23.7060 C   0  0  0  0  0  0  0  0  0  0  0  0
    6.1930   -3.5550   23.8800 C   0  0  0  0  0  0  0  0  0  0  0  0
    5.8610   -3.2120   25.2950 C   0  0  0  0  0  0  0  0  0  0  0  0
    4.6680   -3.0250   25.5360 O   0  0  0  0  0  0  0  0  0  0  0  0
    6.9010   -3.1340   26.2190 N   0  0  0  0  0  0  0  0  0  0  0  0
    6.7050   -3.6220   27.5380 C   0  0  2  0  0  0  0  0  0  0  0  0
    6.6110   -2.6430   28.5360 C   0  0  0  0  0  0  0  0  0  0  0  0
    5.4100   -2.3950   29.1820 C   0  0  0  0  0  0  0  0  0  0  0  0
    5.1720   -1.4500   30.1930 C   0  0  0  0  0  0  0  0  0  0  0  0
    6.3640   -0.6290   30.6040 C   0  0  0  0  0  0  0  0  0  0  0  0
    7.6990   -0.8930   29.9000 C   0  0  0  0  0  0  0  0  0  0  0  0
    7.7260   -1.9270   28.8670 C   0  0  0  0  0  0  0  0  0  0  0  0
    7.9470   -4.4320   27.8660 C   0  0  0  0  0  0  0  0  0  0  0  0
    8.4810   -5.2800   26.9180 C   0  0  0  0  0  0  0  0  0  0  0  0
    7.7180   -5.8900   27.9570 C   0  0  0  0  0  0  0  0  0  0  0  0
    7.5170   -2.9650   23.5290 C   0  0  0  0  0  0  0  0  0  0  0  0
    7.6800   -3.1010   22.0490 C   0  0  0  0  0  0  0  0  0  0  0  0
  1  2  1  0
  2  3  2  0
  2  4  1  0
  4  5  1  0
  5  6  1  0
  6  7  1  0
  7  8  1  0
  8  9  2  0
  8 10  1  0
 11 10  1  6
 11 12  1  0
 12 13  2  0
 13 14  1  0
 14 15  2  0
 15 16  1  0
 12 17  1  0
 16 17  2  0
 11 18  1  0
 18 19  1  0
 18 20  1  0
 19 20  1  0
  7 21  1  0
  4 22  1  0
 21 22  1  0
M  END
