piperidine-amides-7247-covalent
     RDKit          3D

 20 23  0  0  0  0  0  0  0  0999 V2000
    7.0550   -3.3360   19.3260 C   0  0  0  0  0  0  0  0  0  0  0  0
    6.3880   -4.1530   20.3460 C   0  0  0  0  0  0  0  0  0  0  0  0
    5.3750   -4.8020   19.9710 O   0  0  0  0  0  0  0  0  0  0  0  0
    6.9040   -4.2160   21.6430 N   0  0  0  0  0  0  0  0  0  0  0  0
    7.7820   -3.1900   22.1750 C   0  0  0  0  0  0  0  0  0  0  0  0
    7.5130   -3.0370   23.6380 C   0  0  0  0  0  0  0  0  0  0  0  0
    6.1700   -3.6030   23.9870 C   0  0  0  0  0  0  0  0  0  0  0  0
    5.8280   -3.2840   25.3870 C   0  0  0  0  0  0  0  0  0  0  0  0
    4.7200   -3.6750   25.8120 O   0  0  0  0  0  0  0  0  0  0  0  0
    6.6570   -2.5460   26.2580 N   0  0  0  0  0  0  0  0  0  0  0  0
    6.0390   -1.6280   27.1780 C   0  0  1  0  0  0  0  0  0  0  0  0
    6.8300   -1.1010   28.1350 C   0  0  2  0  0  0  0  0  0  0  0  0
    6.3310   -0.5600   29.2310 C   0  0  1  0  0  0  0  0  0  0  0  0
    6.9340    0.5610   29.7760 C   0  0  0  0  0  0  0  0  0  0  0  0
    6.6460    1.5700   28.8750 C   0  0  0  0  0  0  0  0  0  0  0  0
    5.7050    1.0350   28.0400 C   0  0  2  0  0  0  0  0  0  0  0  0
    5.1780   -0.1140   28.5920 C   0  0  0  0  0  0  0  0  0  0  0  0
    6.0920   -0.1570   27.0470 C   0  0  2  0  0  0  0  0  0  0  0  0
    6.1340   -5.0800   23.7740 C   0  0  0  0  0  0  0  0  0  0  0  0
    6.6180   -5.4450   22.3900 C   0  0  0  0  0  0  0  0  0  0  0  0
  1  2  1  0
  2  3  2  0
  2  4  1  0
  4  5  1  0
  5  6  1  0
  6  7  1  0
  7  8  1  0
  8  9  2  0
  8 10  1  0
 11 10  1  6
 11 12  1  0
 12 13  1  1
 13 14  1  6
 14 15  1  0
 16 15  1  1
 13 17  1  0
 16 17  1  0
 11 18  1  0
 12 18  1  0
 18 16  1  1
  7 19  1  0
  4 20  1  0
 19 20  1  0
M  END
