piperidine-amides-9123-covalent
     RDKit          3D

 21 22  0  0  0  0  0  0  0  0999 V2000
    7.1410   -3.2610   19.1600 C   0  0  0  0  0  0  0  0  0  0  0  0
    6.3430   -3.9710   20.1650 C   0  0  0  0  0  0  0  0  0  0  0  0
    5.2470   -4.4550   19.8400 O   0  0  0  0  0  0  0  0  0  0  0  0
    6.8030   -4.1810   21.4710 N   0  0  0  0  0  0  0  0  0  0  0  0
    6.4750   -5.3840   22.2050 C   0  0  0  0  0  0  0  0  0  0  0  0
    5.8700   -4.9190   23.5040 C   0  0  0  0  0  0  0  0  0  0  0  0
    6.7620   -3.9160   24.1600 C   0  0  0  0  0  0  0  0  0  0  0  0
    6.3130   -3.4450   25.4690 C   0  0  0  0  0  0  0  0  0  0  0  0
    5.0700   -3.3010   25.7360 O   0  0  0  0  0  0  0  0  0  0  0  0
    7.2800   -3.1280   26.4440 N   0  0  0  0  0  0  0  0  0  0  0  0
    7.2660   -3.7390   27.7840 C   0  0  2  0  0  0  0  0  0  0  0  0
    6.6130   -5.0750   27.7360 C   0  0  0  0  0  0  0  0  0  0  0  0
    5.4880   -5.2190   28.2900 O   0  0  0  0  0  0  0  0  0  0  0  0
    6.4730   -2.7780   28.6900 C   0  0  0  0  0  0  0  0  0  0  0  0
    7.4360   -1.6950   29.1220 C   0  0  0  0  0  0  0  0  0  0  0  0
    6.8680   -0.6020   30.0380 C   0  0  0  0  0  0  0  0  0  0  0  0
    5.4160   -0.7510   30.3900 C   0  0  0  0  0  0  0  0  0  0  0  0
    4.6980   -1.8060   29.9000 C   0  0  0  0  0  0  0  0  0  0  0  0
    5.1690   -2.8080   29.0750 C   0  0  0  0  0  0  0  0  0  0  0  0
    6.9640   -2.6700   23.3080 C   0  0  0  0  0  0  0  0  0  0  0  0
    7.6620   -3.1660   22.0560 C   0  0  0  0  0  0  0  0  0  0  0  0
  1  2  1  0
  2  3  2  0
  2  4  1  0
  4  5  1  0
  5  6  1  0
  6  7  1  0
  7  8  1  0
  8  9  2  0
  8 10  1  0
 10 11  1  0
 11 12  1  6
 12 13  1  0
 11 14  1  0
 14 15  2  0
 15 16  1  0
 16 17  2  0
 17 18  1  0
 14 19  1  0
 18 19  2  0
  7 20  1  0
  4 21  1  0
 20 21  1  0
M  END
