piperidine-amides-12630-covalent
     RDKit          3D

 23 24  0  0  0  0  0  0  0  0999 V2000
    7.0850   -3.2780   19.1650 C   0  0  0  0  0  0  0  0  0  0  0  0
    6.3330   -4.0140   20.2100 C   0  0  0  0  0  0  0  0  0  0  0  0
    5.2440   -4.5060   19.8600 O   0  0  0  0  0  0  0  0  0  0  0  0
    6.8490   -4.1920   21.5020 N   0  0  0  0  0  0  0  0  0  0  0  0
    7.5840   -3.1490   22.1240 C   0  0  0  0  0  0  0  0  0  0  0  0
    7.2660   -2.9040   23.5320 C   0  0  0  0  0  0  0  0  0  0  0  0
    6.6180   -4.0130   24.2840 C   0  0  0  0  0  0  0  0  0  0  0  0
    5.7380   -3.4670   25.3380 C   0  0  0  0  0  0  0  0  0  0  0  0
    4.8760   -2.6250   25.0190 O   0  0  0  0  0  0  0  0  0  0  0  0
    5.8570   -3.8830   26.6700 N   0  0  0  0  0  0  0  0  0  0  0  0
    5.9860   -5.3040   27.0590 C   0  0  1  0  0  0  0  0  0  0  0  0
    7.3460   -5.6230   27.6030 C   0  0  0  0  0  0  0  0  0  0  0  0
    6.6630   -6.5230   28.4530 N   0  0  0  0  0  0  0  0  0  0  0  0
    8.1780   -6.1970   28.3460 O   0  0  0  0  0  0  0  0  0  0  0  0
    4.8710   -5.6450   27.9910 C   0  0  0  0  0  0  0  0  0  0  0  0
    4.4910   -6.9680   28.1640 C   0  0  0  0  0  0  0  0  0  0  0  0
    3.4670   -7.3560   29.0080 C   0  0  0  0  0  0  0  0  0  0  0  0
    2.8010   -6.4000   29.6980 C   0  0  0  0  0  0  0  0  0  0  0  0
    3.1400   -5.0940   29.5580 C   0  0  0  0  0  0  0  0  0  0  0  0
    2.1440   -3.7980   30.5680 Br  0  0  0  0  0  0  0  0  0  0  0  0
    4.1560   -4.7110   28.7230 C   0  0  0  0  0  0  0  0  0  0  0  0
    5.8140   -4.9380   23.4000 C   0  0  0  0  0  0  0  0  0  0  0  0
    6.6340   -5.3950   22.2650 C   0  0  0  0  0  0  0  0  0  0  0  0
  1  2  1  0
  2  3  2  0
  2  4  1  0
  4  5  1  0
  5  6  1  0
  6  7  1  0
  7  8  1  0
  8  9  2  0
  8 10  1  0
 11 10  1  1
 11 12  1  0
 12 13  1  0
 12 14  2  0
 11 15  1  0
 15 16  2  0
 16 17  1  0
 17 18  2  0
 18 19  1  0
 19 20  1  0
 15 21  1  0
 19 21  2  0
  7 22  1  0
  4 23  1  0
 22 23  1  0
M  END
