piperidine-amides-29596-covalent
     RDKit          3D

 27 29  0  0  0  0  0  0  0  0999 V2000
    7.0980   -3.2960   19.2270 C   0  0  0  0  0  0  0  0  0  0  0  0
    6.3480   -4.0460   20.2290 C   0  0  0  0  0  0  0  0  0  0  0  0
    5.3000   -4.6050   19.9100 O   0  0  0  0  0  0  0  0  0  0  0  0
    6.8550   -4.1910   21.5660 N   0  0  0  0  0  0  0  0  0  0  0  0
    6.4290   -5.2830   22.3910 C   0  0  0  0  0  0  0  0  0  0  0  0
    5.5990   -4.7600   23.5340 C   0  0  0  0  0  0  0  0  0  0  0  0
    6.3930   -3.6870   24.2790 C   0  0  0  0  0  0  0  0  0  0  0  0
    5.5090   -3.0090   25.2820 C   0  0  0  0  0  0  0  0  0  0  0  0
    4.2760   -3.1830   25.2760 O   0  0  0  0  0  0  0  0  0  0  0  0
    6.0640   -2.1300   26.2650 N   0  0  0  0  0  0  0  0  0  0  0  0
    6.3970   -0.7940   25.8790 C   0  0  0  0  0  0  0  0  0  0  0  0
    6.5900   -2.6840   27.4720 C   0  0  2  0  0  0  0  0  0  0  0  0
    7.4010   -3.7160   27.2290 C   0  0  0  0  0  0  0  0  0  0  0  0
    7.4900   -4.7920   28.1340 C   0  0  0  0  0  0  0  0  0  0  0  0
    8.3160   -5.8250   27.8440 C   0  0  0  0  0  0  0  0  0  0  0  0
    9.0640   -5.7870   26.6360 C   0  0  0  0  0  0  0  0  0  0  0  0
    9.8370   -6.8410   26.4390 F   0  0  0  0  0  0  0  0  0  0  0  0
    8.9840   -4.7680   25.7820 C   0  0  0  0  0  0  0  0  0  0  0  0
    8.1640   -3.7380   26.0690 C   0  0  0  0  0  0  0  0  0  0  0  0
    5.4630   -2.8630   28.2570 C   0  0  0  0  0  0  0  0  0  0  0  0
    4.7150   -4.0480   28.0790 C   0  0  0  0  0  0  0  0  0  0  0  0
    3.8770   -4.7490   28.2880 N   0  0  0  0  0  0  0  0  0  0  0  0
    3.2800   -3.9290   29.2950 C   0  0  0  0  0  0  0  0  0  0  0  0
    3.8430   -2.6520   29.6800 C   0  0  0  0  0  0  0  0  0  0  0  0
    4.9860   -2.0410   29.1750 N   0  0  0  0  0  0  0  0  0  0  0  0
    6.9070   -2.6160   23.3400 C   0  0  0  0  0  0  0  0  0  0  0  0
    7.7010   -3.1940   22.1660 C   0  0  0  0  0  0  0  0  0  0  0  0
  1  2  1  0
  2  3  2  0
  2  4  1  0
  4  5  1  0
  5  6  1  0
  6  7  1  0
  7  8  1  0
  8  9  2  0
  8 10  1  0
 10 11  1  0
 12 10  1  6
 12 13  1  0
 13 14  2  0
 14 15  1  0
 15 16  2  0
 16 17  1  0
 16 18  1  0
 13 19  1  0
 18 19  2  0
 12 20  1  0
 20 21  2  0
 21 22  1  0
 22 23  2  0
 23 24  1  0
 20 25  1  0
 24 25  2  0
  7 26  1  0
  4 27  1  0
 26 27  1  0
M  END
