piperidine-amides-24411-covalent
     RDKit          3D

 23 25  0  0  0  0  0  0  0  0999 V2000
    7.0380   -3.3380   19.3760 C   0  0  0  0  0  0  0  0  0  0  0  0
    6.3680   -4.2030   20.3600 C   0  0  0  0  0  0  0  0  0  0  0  0
    5.3930   -4.9000   19.9960 O   0  0  0  0  0  0  0  0  0  0  0  0
    6.8250   -4.3010   21.6890 N   0  0  0  0  0  0  0  0  0  0  0  0
    6.7710   -5.6060   22.3190 C   0  0  0  0  0  0  0  0  0  0  0  0
    6.2210   -5.4060   23.7270 C   0  0  0  0  0  0  0  0  0  0  0  0
    6.1580   -3.9210   23.9000 C   0  0  0  0  0  0  0  0  0  0  0  0
    5.5520   -3.5640   25.2030 C   0  0  0  0  0  0  0  0  0  0  0  0
    4.3390   -3.2710   25.1830 O   0  0  0  0  0  0  0  0  0  0  0  0
    6.2630   -3.5340   26.4250 N   0  0  0  0  0  0  0  0  0  0  0  0
    6.3110   -4.7200   27.3330 C   0  0  0  0  0  0  0  0  0  0  0  0
    5.0880   -5.0580   28.1860 C   0  0  0  0  0  0  0  0  0  0  0  0
    4.8980   -4.0830   29.2690 N   0  0  0  0  0  0  0  0  0  0  0  0
    3.6030   -3.9120   29.9360 C   0  0  0  0  0  0  0  0  0  0  0  0
    5.5580   -2.9320   28.8910 C   0  0  0  0  0  0  0  0  0  0  0  0
    5.7270   -1.8630   29.6130 C   0  0  0  0  0  0  0  0  0  0  0  0
    6.0070   -2.3530   28.3870 C   0  0  0  0  0  0  0  0  0  0  0  0
    6.7360   -0.7690   28.1520 Cl  0  0  0  0  0  0  0  0  0  0  0  0
    5.1940   -3.6100   29.1960 C   0  0  0  0  0  0  0  0  0  0  0  0
    5.5890   -3.8800   27.8440 C   0  0  0  0  0  0  0  0  0  0  0  0
    6.1500   -2.7480   27.5940 C   0  0  0  0  0  0  0  0  0  0  0  0
    7.5210   -3.3290   23.6640 C   0  0  0  0  0  0  0  0  0  0  0  0
    7.6630   -3.2410   22.2620 C   0  0  0  0  0  0  0  0  0  0  0  0
  1  2  1  0
  2  3  2  0
  2  4  1  0
  4  5  1  0
  5  6  1  0
  6  7  1  0
  7  8  1  0
  8  9  2  0
  8 10  1  0
 10 11  1  0
 11 12  1  0
 12 13  1  0
 13 14  1  0
 13 15  1  0
 15 16  2  0
 16 17  1  0
 17 18  1  0
 17 19  2  0
 19 20  1  0
 10 21  1  0
 15 21  1  0
 20 21  2  0
  7 22  1  0
  4 23  1  0
 22 23  1  0
M  END
