piperidine-amides-25248-covalent
     RDKit          3D

 25 28  0  0  0  0  0  0  0  0999 V2000
    7.0580   -3.3000   19.2830 C   0  0  0  0  0  0  0  0  0  0  0  0
    6.3700   -4.1220   20.3170 C   0  0  0  0  0  0  0  0  0  0  0  0
    5.3560   -4.7170   19.9510 O   0  0  0  0  0  0  0  0  0  0  0  0
    6.8850   -4.2400   21.6220 N   0  0  0  0  0  0  0  0  0  0  0  0
    6.7230   -5.4640   22.3690 C   0  0  0  0  0  0  0  0  0  0  0  0
    6.0370   -5.1380   23.6580 C   0  0  0  0  0  0  0  0  0  0  0  0
    5.9550   -3.6220   23.7520 C   0  0  0  0  0  0  0  0  0  0  0  0
    5.3750   -3.2410   25.0550 C   0  0  0  0  0  0  0  0  0  0  0  0
    4.1440   -3.2640   25.1670 O   0  0  0  0  0  0  0  0  0  0  0  0
    6.1240   -2.8650   26.1760 N   0  0  0  0  0  0  0  0  0  0  0  0
    5.6110   -3.4220   27.4190 C   0  0  0  0  0  0  0  0  0  0  0  0
    5.9590   -2.0990   27.8370 C   0  0  0  0  0  0  0  0  0  0  0  0
    5.2240   -1.1740   28.5090 C   0  0  0  0  0  0  0  0  0  0  0  0
    5.8540   -1.3470   29.7610 N   0  0  0  0  0  0  0  0  0  0  0  0
    6.7370   -0.3420   30.3080 C   0  0  0  0  0  0  0  0  0  0  0  0
    6.0120    0.8120   30.3450 C   0  0  0  0  0  0  0  0  0  0  0  0
    5.9910    2.0650   29.4980 C   0  0  0  0  0  0  0  0  0  0  0  0
    4.9920    3.0970   29.9440 C   0  0  0  0  0  0  0  0  0  0  0  0
    4.1110    2.8440   31.1500 C   0  0  0  0  0  0  0  0  0  0  0  0
    4.2880    1.5370   31.8520 C   0  0  0  0  0  0  0  0  0  0  0  0
    5.2170    0.4190   31.5450 C   0  0  0  0  0  0  0  0  0  0  0  0
    6.6750   -2.3360   29.1560 C   0  0  0  0  0  0  0  0  0  0  0  0
    6.4860   -1.5130   26.7520 C   0  0  0  0  0  0  0  0  0  0  0  0
    7.3240   -3.0040   23.5320 C   0  0  0  0  0  0  0  0  0  0  0  0
    7.7200   -3.1860   22.2170 C   0  0  0  0  0  0  0  0  0  0  0  0
  1  2  1  0
  2  3  2  0
  2  4  1  0
  4  5  1  0
  5  6  1  0
  6  7  1  0
  7  8  1  0
  8  9  2  0
  8 10  1  0
 10 11  1  0
 12 11  1  0
 12 13  1  0
 13 14  1  0
 14 15  1  0
 15 16  1  0
 16 17  2  0
 17 18  1  0
 18 19  2  0
 19 20  1  0
 16 21  1  0
 20 21  2  0
 12 22  1  0
 14 22  1  0
 10 23  1  0
 12 23  1  0
  7 24  1  0
  4 25  1  0
 24 25  1  0
M  END
