piperidine-amides-30262-covalent
     RDKit          3D

 26 29  0  0  0  0  0  0  0  0999 V2000
    7.0660   -3.3450   19.3900 C   0  0  0  0  0  0  0  0  0  0  0  0
    6.3870   -4.2180   20.3360 C   0  0  0  0  0  0  0  0  0  0  0  0
    5.3800   -4.8340   19.9810 O   0  0  0  0  0  0  0  0  0  0  0  0
    6.9160   -4.4120   21.6600 N   0  0  0  0  0  0  0  0  0  0  0  0
    6.4660   -5.5160   22.4520 C   0  0  0  0  0  0  0  0  0  0  0  0
    5.5950   -5.0150   23.5760 C   0  0  0  0  0  0  0  0  0  0  0  0
    6.3810   -3.9640   24.3530 C   0  0  0  0  0  0  0  0  0  0  0  0
    5.5330   -3.3330   25.4220 C   0  0  0  0  0  0  0  0  0  0  0  0
    4.8640   -2.3200   25.1630 O   0  0  0  0  0  0  0  0  0  0  0  0
    5.4260   -3.8440   26.7540 N   0  0  0  0  0  0  0  0  0  0  0  0
    4.1330   -3.7680   27.3600 C   0  0  0  0  0  0  0  0  0  0  0  0
    4.2540   -4.5400   28.6540 C   0  0  0  0  0  0  0  0  0  0  0  0
    5.2130   -5.4520   28.8030 N   0  0  0  0  0  0  0  0  0  0  0  0
    5.2330   -5.9700   30.0470 C   0  0  0  0  0  0  0  0  0  0  0  0
    4.4100   -6.9900   30.5360 C   0  0  2  0  0  0  0  0  0  0  0  0
    3.1960   -7.0010   30.4940 C   0  0  0  0  0  0  0  0  0  0  0  0
    3.8490   -6.8810   31.8640 C   0  0  1  0  0  0  0  0  0  0  0  0
    4.0770   -7.8560   32.8070 C   0  0  0  0  0  0  0  0  0  0  0  0
    5.1880   -8.4060   33.3090 C   0  0  0  0  0  0  0  0  0  0  0  0
    4.9010   -9.3530   34.2490 C   0  0  0  0  0  0  0  0  0  0  0  0
    3.4590   -9.5730   34.5160 C   0  0  0  0  0  0  0  0  0  0  0  0
    2.6380   -8.4560   33.4440 S   0  0  0  0  0  0  0  0  0  0  0  0
    6.4630   -4.9900   28.3630 C   0  0  0  0  0  0  0  0  0  0  0  0
    6.3450   -3.6900   27.8380 C   0  0  0  0  0  0  0  0  0  0  0  0
    6.8450   -2.8410   23.4550 C   0  0  0  0  0  0  0  0  0  0  0  0
    7.7030   -3.3950   22.3110 C   0  0  0  0  0  0  0  0  0  0  0  0
  1  2  1  0
  2  3  2  0
  2  4  1  0
  4  5  1  0
  5  6  1  0
  6  7  1  0
  7  8  1  0
  8  9  2  0
  8 10  1  0
 10 11  1  0
 11 12  1  0
 12 13  1  0
 13 14  1  0
 15 14  1  6
 15 16  1  0
 15 17  1  0
 16 17  1  0
 17 18  1  1
 18 19  2  0
 19 20  1  0
 20 21  2  0
 18 22  1  0
 21 22  1  0
 13 23  1  0
 10 24  1  0
 23 24  1  0
  7 25  1  0
  4 26  1  0
 25 26  1  0
M  END
