piperidine-amides-25329-covalent
     RDKit          3D

 24 24  0  0  0  0  0  0  0  0999 V2000
    7.0960   -3.2770   19.2010 C   0  0  0  0  0  0  0  0  0  0  0  0
    6.3630   -4.0570   20.2320 C   0  0  0  0  0  0  0  0  0  0  0  0
    5.3000   -4.5710   19.8920 O   0  0  0  0  0  0  0  0  0  0  0  0
    6.9040   -4.2240   21.5040 N   0  0  0  0  0  0  0  0  0  0  0  0
    7.7030   -3.1950   22.1180 C   0  0  0  0  0  0  0  0  0  0  0  0
    7.2590   -3.0660   23.5340 C   0  0  0  0  0  0  0  0  0  0  0  0
    5.8160   -3.5240   23.6390 C   0  0  0  0  0  0  0  0  0  0  0  0
    5.3100   -3.0580   24.9380 C   0  0  0  0  0  0  0  0  0  0  0  0
    4.1530   -2.6480   25.0340 O   0  0  0  0  0  0  0  0  0  0  0  0
    6.1340   -3.1190   26.0550 N   0  0  0  0  0  0  0  0  0  0  0  0
    6.5370   -1.8810   26.7130 C   0  0  0  0  0  0  0  0  0  0  0  0
    5.5170   -0.8030   26.3930 C   0  0  0  0  0  0  0  0  0  0  0  0
    4.4750   -0.7940   27.3020 O   0  0  0  0  0  0  0  0  0  0  0  0
    3.2540   -0.3060   27.0810 C   0  0  0  0  0  0  0  0  0  0  0  0
    2.5560   -1.0490   26.1890 C   0  0  0  0  0  0  0  0  0  0  0  0
    6.5970   -4.3290   26.5820 C   0  0  0  0  0  0  0  0  0  0  0  0
    6.8110   -4.4040   28.0620 C   0  0  1  0  0  0  0  0  0  0  0  0
    6.4010   -5.8330   27.8720 C   0  0  0  0  0  0  0  0  0  0  0  0
    7.4230   -5.5760   28.7320 C   0  0  0  0  0  0  0  0  0  0  0  0
    6.7460   -6.2400   29.7600 O   0  0  0  0  0  0  0  0  0  0  0  0
    8.6880   -5.9960   28.3410 O   0  0  0  0  0  0  0  0  0  0  0  0
    9.0590   -6.2700   27.0150 C   0  0  0  0  0  0  0  0  0  0  0  0
    5.6780   -5.0100   23.4390 C   0  0  0  0  0  0  0  0  0  0  0  0
    6.5660   -5.4020   22.2690 C   0  0  0  0  0  0  0  0  0  0  0  0
  1  2  1  0
  2  3  2  0
  2  4  1  0
  4  5  1  0
  5  6  1  0
  6  7  1  0
  7  8  1  0
  8  9  2  0
  8 10  1  0
 10 11  1  0
 11 12  1  0
 12 13  1  0
 13 14  1  0
 14 15  1  0
 10 16  1  0
 16 17  1  0
 17 18  1  1
 17 19  1  0
 19 20  2  0
 19 21  1  0
 21 22  1  0
  7 23  1  0
  4 24  1  0
 23 24  1  0
M  END
