piperidine-amides-1370-covalent
     RDKit          3D

 22 23  0  0  0  0  0  0  0  0999 V2000
    7.1580   -3.3130   19.3100 C   0  0  0  0  0  0  0  0  0  0  0  0
    6.3080   -4.0410   20.2870 C   0  0  0  0  0  0  0  0  0  0  0  0
    5.2660   -4.5940   19.8970 O   0  0  0  0  0  0  0  0  0  0  0  0
    6.7250   -4.1260   21.6300 N   0  0  0  0  0  0  0  0  0  0  0  0
    6.5830   -5.3610   22.3800 C   0  0  0  0  0  0  0  0  0  0  0  0
    5.9190   -5.0550   23.7280 C   0  0  0  0  0  0  0  0  0  0  0  0
    6.0260   -3.5850   23.9380 C   0  0  0  0  0  0  0  0  0  0  0  0
    5.5830   -3.1250   25.2790 C   0  0  0  0  0  0  0  0  0  0  0  0
    4.4140   -2.7350   25.3420 O   0  0  0  0  0  0  0  0  0  0  0  0
    6.4420   -3.1410   26.3830 N   0  0  0  0  0  0  0  0  0  0  0  0
    6.2220   -3.7820   27.6380 C   0  0  0  0  0  0  0  0  0  0  0  0
    5.0230   -3.7720   28.3170 C   0  0  0  0  0  0  0  0  0  0  0  0
    4.1740   -4.8720   28.4640 N   0  0  0  0  0  0  0  0  0  0  0  0
    3.1240   -4.3580   29.2130 C   0  0  0  0  0  0  0  0  0  0  0  0
    2.0520   -5.1380   29.5810 C   0  0  0  0  0  0  0  0  0  0  0  0
    0.8730   -4.5080   29.2920 F   0  0  0  0  0  0  0  0  0  0  0  0
    2.1020   -5.4670   30.9150 F   0  0  0  0  0  0  0  0  0  0  0  0
    2.1610   -6.3290   28.8600 F   0  0  0  0  0  0  0  0  0  0  0  0
    3.3620   -3.0120   29.4860 N   0  0  0  0  0  0  0  0  0  0  0  0
    4.5210   -2.5980   28.9550 O   0  0  0  0  0  0  0  0  0  0  0  0
    7.4200   -3.0720   23.6930 C   0  0  0  0  0  0  0  0  0  0  0  0
    7.5270   -3.0310   22.1660 C   0  0  0  0  0  0  0  0  0  0  0  0
  1  2  1  0
  2  3  2  0
  2  4  1  0
  4  5  1  0
  5  6  1  0
  6  7  1  0
  7  8  1  0
  8  9  2  0
  8 10  1  0
 10 11  1  0
 11 12  1  0
 12 13  2  0
 13 14  1  0
 14 15  1  0
 15 16  1  0
 15 17  1  0
 15 18  1  0
 14 19  2  0
 12 20  1  0
 19 20  1  0
  7 21  1  0
  4 22  1  0
 21 22  1  0
M  END
