piperidine-amides-6583-covalent
     RDKit          3D

 24 26  0  0  0  0  0  0  0  0999 V2000
    7.1080   -3.3460   19.3740 C   0  0  0  0  0  0  0  0  0  0  0  0
    6.4000   -4.1800   20.3520 C   0  0  0  0  0  0  0  0  0  0  0  0
    5.3980   -4.8430   19.9940 O   0  0  0  0  0  0  0  0  0  0  0  0
    6.8800   -4.2690   21.6720 N   0  0  0  0  0  0  0  0  0  0  0  0
    7.7010   -3.2160   22.2170 C   0  0  0  0  0  0  0  0  0  0  0  0
    6.8690   -2.5930   23.3390 C   0  0  0  0  0  0  0  0  0  0  0  0
    6.6380   -3.6720   24.3740 C   0  0  0  0  0  0  0  0  0  0  0  0
    5.8710   -3.0970   25.5140 C   0  0  0  0  0  0  0  0  0  0  0  0
    4.6470   -2.9020   25.3260 O   0  0  0  0  0  0  0  0  0  0  0  0
    6.4850   -2.7860   26.7730 N   0  0  0  0  0  0  0  0  0  0  0  0
    6.7820   -1.4170   27.2020 C   0  0  1  0  0  0  0  0  0  0  0  0
    5.9460   -0.4450   26.3990 C   0  0  0  0  0  0  0  0  0  0  0  0
    5.0530    0.1210   27.2320 C   0  0  0  0  0  0  0  0  0  0  0  0
    5.1300   -0.5640   28.4140 C   0  0  0  0  0  0  0  0  0  0  0  0
    6.3380   -1.1960   28.6520 C   0  0  2  0  0  0  0  0  0  0  0  0
    7.1400   -0.4710   29.5190 C   0  0  0  0  0  0  0  0  0  0  0  0
    8.5240   -1.0630   29.9650 C   0  0  0  0  0  0  0  0  0  0  0  0
    9.0130    0.0720   30.9020 C   0  0  0  0  0  0  0  0  0  0  0  0
    8.2660    1.2900   31.1820 C   0  0  0  0  0  0  0  0  0  0  0  0
    9.3780    1.6990   32.0500 C   0  0  0  0  0  0  0  0  0  0  0  0
    7.0790    1.6520   30.7150 C   0  0  0  0  0  0  0  0  0  0  0  0
    6.5430    0.7620   29.8920 C   0  0  0  0  0  0  0  0  0  0  0  0
    5.8490   -4.8520   23.7930 C   0  0  0  0  0  0  0  0  0  0  0  0
    6.4940   -5.3640   22.5180 C   0  0  0  0  0  0  0  0  0  0  0  0
  1  2  1  0
  2  3  2  0
  2  4  1  0
  4  5  1  0
  5  6  1  0
  6  7  1  0
  7  8  1  0
  8  9  2  0
  8 10  1  0
 11 10  1  6
 11 12  1  0
 12 13  1  0
 13 14  1  0
 11 15  1  0
 14 15  1  0
 15 16  1  1
 16 17  2  0
 17 18  1  0
 18 19  2  0
 19 20  1  0
 19 21  1  0
 16 22  1  0
 21 22  2  0
  7 23  1  0
  4 24  1  0
 23 24  1  0
M  END
