piperidine-amides-31472-covalent
     RDKit          3D

 25 26  0  0  0  0  0  0  0  0999 V2000
    7.0980   -3.3350   19.4570 C   0  0  0  0  0  0  0  0  0  0  0  0
    6.4140   -4.1680   20.4250 C   0  0  0  0  0  0  0  0  0  0  0  0
    5.4580   -4.9010   20.0030 O   0  0  0  0  0  0  0  0  0  0  0  0
    6.7920   -4.2110   21.7920 N   0  0  0  0  0  0  0  0  0  0  0  0
    6.7440   -5.5510   22.4400 C   0  0  0  0  0  0  0  0  0  0  0  0
    6.1860   -5.2190   23.8850 C   0  0  0  0  0  0  0  0  0  0  0  0
    6.2880   -3.7220   24.0230 C   0  0  0  0  0  0  0  0  0  0  0  0
    5.4340   -3.0510   25.2060 C   0  0  0  0  0  0  0  0  0  0  0  0
    4.4330   -2.5880   24.6840 O   0  0  0  0  0  0  0  0  0  0  0  0
    5.9120   -3.1460   26.4060 N   0  0  0  0  0  0  0  0  0  0  0  0
    6.1360   -3.6740   27.6520 C   0  0  0  0  0  0  0  0  0  0  0  0
    6.2640   -4.8870   28.2930 C   0  0  0  0  0  0  0  0  0  0  0  0
    5.7980   -5.9760   27.4390 N   0  0  0  0  0  0  0  0  0  0  0  0
    4.9430   -5.8290   26.4230 C   0  0  0  0  0  0  0  0  0  0  0  0
    5.3230   -6.9530   28.2890 C   0  0  0  0  0  0  0  0  0  0  0  0
    6.1130   -1.8090   27.0160 C   0  0  0  0  0  0  0  0  0  0  0  0
    6.8300   -1.8070   28.2420 C   0  0  0  0  0  0  0  0  0  0  0  0
    7.2590   -0.8280   29.2010 C   0  0  0  0  0  0  0  0  0  0  0  0
    6.6930    0.4510   28.5340 C   0  0  0  0  0  0  0  0  0  0  0  0
    5.9060    0.5640   27.2050 C   0  0  0  0  0  0  0  0  0  0  0  0
    5.3460    2.1090   26.6050 Cl  0  0  0  0  0  0  0  0  0  0  0  0
    5.6590   -0.5640   26.5180 C   0  0  0  0  0  0  0  0  0  0  0  0
    4.7670   -0.4070   25.0260 Cl  0  0  0  0  0  0  0  0  0  0  0  0
    7.6300   -3.1270   23.6650 C   0  0  0  0  0  0  0  0  0  0  0  0
    7.7030   -3.1940   22.3080 C   0  0  0  0  0  0  0  0  0  0  0  0
  1  2  1  0
  2  3  2  0
  2  4  1  0
  4  5  1  0
  5  6  1  0
  6  7  1  0
  7  8  1  0
  8  9  2  0
  8 10  1  0
 10 11  1  0
 11 12  1  0
 12 13  1  0
 13 14  1  0
 13 15  1  0
 10 16  1  0
 16 17  2  0
 17 18  1  0
 18 19  2  0
 19 20  1  0
 20 21  1  0
 16 22  1  0
 20 22  2  0
 22 23  1  0
  7 24  1  0
  4 25  1  0
 24 25  1  0
M  END
