piperidine-amides-14230-covalent
     RDKit          3D

 24 25  0  0  0  0  0  0  0  0999 V2000
    7.1290   -3.2540   19.1580 C   0  0  0  0  0  0  0  0  0  0  0  0
    6.3250   -3.9880   20.1760 C   0  0  0  0  0  0  0  0  0  0  0  0
    5.2430   -4.5000   19.8550 O   0  0  0  0  0  0  0  0  0  0  0  0
    6.8420   -4.1300   21.4690 N   0  0  0  0  0  0  0  0  0  0  0  0
    7.7570   -3.1500   22.0210 C   0  0  0  0  0  0  0  0  0  0  0  0
    7.1060   -2.6210   23.2800 C   0  0  0  0  0  0  0  0  0  0  0  0
    6.7200   -3.8370   24.0320 C   0  0  0  0  0  0  0  0  0  0  0  0
    6.1720   -3.4920   25.3400 C   0  0  0  0  0  0  0  0  0  0  0  0
    4.9400   -3.3940   25.4550 O   0  0  0  0  0  0  0  0  0  0  0  0
    7.0990   -3.2860   26.3580 N   0  0  0  0  0  0  0  0  0  0  0  0
    6.9790   -3.6990   27.6890 C   0  0  1  0  0  0  0  0  0  0  0  0
    7.9070   -4.5190   28.2870 C   0  0  0  0  0  0  0  0  0  0  0  0
    9.0560   -5.3930   28.1780 O   0  0  0  0  0  0  0  0  0  0  0  0
    8.2740   -4.5710   26.9420 O   0  0  0  0  0  0  0  0  0  0  0  0
    8.9410   -5.7200   26.3920 C   0  0  0  0  0  0  0  0  0  0  0  0
    6.7490   -2.6910   28.6530 C   0  0  0  0  0  0  0  0  0  0  0  0
    5.4090   -2.6630   29.2960 C   0  0  0  0  0  0  0  0  0  0  0  0
    4.9970   -1.6170   30.3630 C   0  0  0  0  0  0  0  0  0  0  0  0
    6.1180   -0.6100   30.6920 C   0  0  0  0  0  0  0  0  0  0  0  0
    6.0420    0.4100   31.5830 O   0  0  0  0  0  0  0  0  0  0  0  0
    7.3200   -0.7350   30.0320 C   0  0  0  0  0  0  0  0  0  0  0  0
    7.6610   -1.7490   29.0220 C   0  0  0  0  0  0  0  0  0  0  0  0
    5.8090   -4.7760   23.3090 C   0  0  0  0  0  0  0  0  0  0  0  0
    6.5220   -5.2930   22.2570 C   0  0  0  0  0  0  0  0  0  0  0  0
  1  2  1  0
  2  3  2  0
  2  4  1  0
  4  5  1  0
  5  6  1  0
  6  7  1  0
  7  8  1  0
  8  9  2  0
  8 10  1  0
 11 10  1  6
 11 12  1  0
 12 13  2  0
 12 14  1  0
 14 15  1  0
 11 16  1  0
 16 17  2  0
 17 18  1  0
 18 19  2  0
 19 20  1  0
 19 21  1  0
 16 22  1  0
 21 22  2  0
  7 23  1  0
  4 24  1  0
 23 24  1  0
M  END
