piperidine-amides-29659-covalent
     RDKit          3D

 22 23  0  0  0  0  0  0  0  0999 V2000
    7.0780   -3.3130   19.3000 C   0  0  0  0  0  0  0  0  0  0  0  0
    6.3650   -4.1030   20.2970 C   0  0  0  0  0  0  0  0  0  0  0  0
    5.3500   -4.7120   19.9560 O   0  0  0  0  0  0  0  0  0  0  0  0
    6.8570   -4.2290   21.6490 N   0  0  0  0  0  0  0  0  0  0  0  0
    6.5570   -5.4330   22.3960 C   0  0  0  0  0  0  0  0  0  0  0  0
    6.1060   -5.1430   23.8160 C   0  0  0  0  0  0  0  0  0  0  0  0
    6.0910   -3.6410   24.0600 C   0  0  0  0  0  0  0  0  0  0  0  0
    5.5590   -3.3280   25.4290 C   0  0  0  0  0  0  0  0  0  0  0  0
    4.3350   -3.3760   25.6470 O   0  0  0  0  0  0  0  0  0  0  0  0
    6.4010   -2.9670   26.5140 N   0  0  0  0  0  0  0  0  0  0  0  0
    6.2790   -3.7930   27.7010 C   0  0  0  0  0  0  0  0  0  0  0  0
    6.6120   -1.5500   26.6820 C   0  0  0  0  0  0  0  0  0  0  0  0
    6.3930   -0.9910   27.9310 C   0  0  0  0  0  0  0  0  0  0  0  0
    7.2650   -1.2910   29.0200 C   0  0  0  0  0  0  0  0  0  0  0  0
    7.0830   -0.7510   30.2890 C   0  0  0  0  0  0  0  0  0  0  0  0
    5.9680    0.1380   30.4850 C   0  0  0  0  0  0  0  0  0  0  0  0
    5.5940    0.9530   32.1660 Br  0  0  0  0  0  0  0  0  0  0  0  0
    5.1560    0.4100   29.4470 C   0  0  0  0  0  0  0  0  0  0  0  0
    5.3410   -0.1220   28.2040 C   0  0  0  0  0  0  0  0  0  0  0  0
    4.4390    0.2470   27.2570 F   0  0  0  0  0  0  0  0  0  0  0  0
    7.3100   -2.9240   23.6350 C   0  0  0  0  0  0  0  0  0  0  0  0
    7.6290   -3.1770   22.2320 C   0  0  0  0  0  0  0  0  0  0  0  0
  1  2  1  0
  2  3  2  0
  2  4  1  0
  4  5  1  0
  5  6  1  0
  6  7  1  0
  7  8  1  0
  8  9  2  0
  8 10  1  0
 10 11  1  0
 10 12  1  0
 12 13  1  0
 13 14  2  0
 14 15  1  0
 15 16  2  0
 16 17  1  0
 16 18  1  0
 13 19  1  0
 18 19  2  0
 19 20  1  0
  7 21  1  0
  4 22  1  0
 21 22  1  0
M  END
