piperidine-amides-30412-covalent
     RDKit          3D

 26 28  0  0  0  0  0  0  0  0999 V2000
    7.0520   -3.3280   19.3450 C   0  0  0  0  0  0  0  0  0  0  0  0
    6.3570   -4.1590   20.3330 C   0  0  0  0  0  0  0  0  0  0  0  0
    5.3500   -4.7880   19.9680 O   0  0  0  0  0  0  0  0  0  0  0  0
    6.8150   -4.3140   21.6630 N   0  0  0  0  0  0  0  0  0  0  0  0
    6.5290   -5.5150   22.4250 C   0  0  0  0  0  0  0  0  0  0  0  0
    6.0860   -5.0940   23.8170 C   0  0  0  0  0  0  0  0  0  0  0  0
    5.9260   -3.6050   23.9630 C   0  0  0  0  0  0  0  0  0  0  0  0
    5.2590   -3.1380   25.2190 C   0  0  0  0  0  0  0  0  0  0  0  0
    4.4950   -2.1380   25.1620 O   0  0  0  0  0  0  0  0  0  0  0  0
    5.3840   -3.7120   26.5100 N   0  0  0  0  0  0  0  0  0  0  0  0
    4.1740   -4.0940   27.2630 C   0  0  0  0  0  0  0  0  0  0  0  0
    4.4190   -3.9980   28.7290 C   0  0  0  0  0  0  0  0  0  0  0  0
    5.7320   -4.4290   29.1980 C   0  0  0  0  0  0  0  0  0  0  0  0
    5.6300   -5.7420   29.9200 C   0  0  0  0  0  0  0  0  0  0  0  0
    6.5970   -6.6330   29.5370 O   0  0  0  0  0  0  0  0  0  0  0  0
    4.6630   -6.0820   30.9150 N   0  0  0  0  0  0  0  0  0  0  0  0
    4.8710   -7.4960   31.2000 C   0  0  0  0  0  0  0  0  0  0  0  0
    4.9650   -7.6360   32.6770 C   0  0  0  0  0  0  0  0  0  0  0  0
    5.6410   -8.5310   33.3890 C   0  0  0  0  0  0  0  0  0  0  0  0
    5.4730   -8.3290   34.7310 C   0  0  0  0  0  0  0  0  0  0  0  0
    4.5660   -7.1460   35.0870 C   0  0  0  0  0  0  0  0  0  0  0  0
    4.0650   -6.4710   33.5490 S   0  0  0  0  0  0  0  0  0  0  0  0
    6.7060   -4.3500   28.2880 C   0  0  0  0  0  0  0  0  0  0  0  0
    6.4630   -3.2460   27.2890 C   0  0  0  0  0  0  0  0  0  0  0  0
    7.2340   -2.9570   23.6460 C   0  0  0  0  0  0  0  0  0  0  0  0
    7.5660   -3.2290   22.2310 C   0  0  0  0  0  0  0  0  0  0  0  0
  1  2  1  0
  2  3  2  0
  2  4  1  0
  4  5  1  0
  5  6  1  0
  6  7  1  0
  7  8  1  0
  8  9  2  0
  8 10  1  0
 10 11  1  0
 11 12  1  0
 12 13  1  0
 13 14  1  0
 14 15  2  0
 14 16  1  0
 16 17  1  0
 17 18  1  0
 18 19  2  0
 19 20  1  0
 20 21  2  0
 18 22  1  0
 21 22  1  0
 13 23  1  0
 10 24  1  0
 23 24  1  0
  7 25  1  0
  4 26  1  0
 25 26  1  0
M  END
