piperidine-amides-31579-covalent
     RDKit          3D

 28 30  0  0  0  0  0  0  0  0999 V2000
    7.1360   -3.2310   19.2940 C   0  0  0  0  0  0  0  0  0  0  0  0
    6.3380   -3.9330   20.2760 C   0  0  0  0  0  0  0  0  0  0  0  0
    5.3200   -4.5890   19.8920 O   0  0  0  0  0  0  0  0  0  0  0  0
    6.6660   -3.9400   21.6420 N   0  0  0  0  0  0  0  0  0  0  0  0
    6.4560   -5.2030   22.3620 C   0  0  0  0  0  0  0  0  0  0  0  0
    5.4570   -4.7210   23.4890 C   0  0  0  0  0  0  0  0  0  0  0  0
    5.8380   -3.2880   23.8740 C   0  0  0  0  0  0  0  0  0  0  0  0
    5.1630   -2.8810   25.2850 C   0  0  0  0  0  0  0  0  0  0  0  0
    4.0270   -3.3240   25.3260 O   0  0  0  0  0  0  0  0  0  0  0  0
    5.9660   -2.1920   26.0140 N   0  0  0  0  0  0  0  0  0  0  0  0
    6.8240   -1.2130   26.3790 C   0  0  0  0  0  0  0  0  0  0  0  0
    6.0860   -2.8960   27.2210 C   0  0  1  0  0  0  0  0  0  0  0  0
    5.0350   -3.7270   27.6800 C   0  0  0  0  0  0  0  0  0  0  0  0
    4.9620   -5.2080   27.6400 C   0  0  0  0  0  0  0  0  0  0  0  0
    3.6190   -5.7320   28.2590 C   0  0  0  0  0  0  0  0  0  0  0  0
    2.7370   -4.7170   28.7340 C   0  0  0  0  0  0  0  0  0  0  0  0
    2.8820   -3.3250   28.7340 N   0  0  0  0  0  0  0  0  0  0  0  0
    4.0610   -2.7490   28.1990 C   0  0  0  0  0  0  0  0  0  0  0  0
    7.0390   -3.9480   26.8830 C   0  0  0  0  0  0  0  0  0  0  0  0
    7.9190   -4.3100   28.0420 C   0  0  0  0  0  0  0  0  0  0  0  0
    8.8280   -5.2590   27.7930 C   0  0  0  0  0  0  0  0  0  0  0  0
    8.9090   -5.8270   26.5420 C   0  0  0  0  0  0  0  0  0  0  0  0
    9.8280   -6.7450   26.3460 F   0  0  0  0  0  0  0  0  0  0  0  0
    8.0520   -5.4430   25.5210 C   0  0  0  0  0  0  0  0  0  0  0  0
    8.1540   -6.0350   24.3000 F   0  0  0  0  0  0  0  0  0  0  0  0
    7.1200   -4.5040   25.6980 C   0  0  0  0  0  0  0  0  0  0  0  0
    7.2300   -2.7860   23.6420 C   0  0  0  0  0  0  0  0  0  0  0  0
    7.5470   -2.9330   22.1800 C   0  0  0  0  0  0  0  0  0  0  0  0
  1  2  1  0
  2  3  2  0
  2  4  1  0
  4  5  1  0
  5  6  1  0
  6  7  1  0
  7  8  1  0
  8  9  2  0
  8 10  1  0
 10 11  1  0
 12 10  1  6
 12 13  1  0
 13 14  2  0
 14 15  1  0
 15 16  2  0
 16 17  1  0
 13 18  1  0
 17 18  2  0
 12 19  1  0
 19 20  2  0
 20 21  1  0
 21 22  2  0
 22 23  1  0
 22 24  1  0
 24 25  1  0
 19 26  1  0
 24 26  2  0
  7 27  1  0
  4 28  1  0
 27 28  1  0
M  END
