piperidine-amides-12158-covalent
     RDKit          3D

 25 27  0  0  0  0  0  0  0  0999 V2000
    7.0900   -3.3570   19.2800 C   0  0  0  0  0  0  0  0  0  0  0  0
    6.3360   -4.1230   20.2590 C   0  0  0  0  0  0  0  0  0  0  0  0
    5.2910   -4.6800   19.9330 O   0  0  0  0  0  0  0  0  0  0  0  0
    6.8550   -4.2830   21.5860 N   0  0  0  0  0  0  0  0  0  0  0  0
    6.4350   -5.3880   22.4050 C   0  0  0  0  0  0  0  0  0  0  0  0
    5.7030   -4.8730   23.6170 C   0  0  0  0  0  0  0  0  0  0  0  0
    6.5690   -3.8040   24.2620 C   0  0  0  0  0  0  0  0  0  0  0  0
    5.8810   -3.1930   25.4310 C   0  0  0  0  0  0  0  0  0  0  0  0
    4.6510   -3.2780   25.6200 O   0  0  0  0  0  0  0  0  0  0  0  0
    6.6980   -2.4790   26.3370 N   0  0  0  0  0  0  0  0  0  0  0  0
    6.1120   -1.6010   27.3250 C   0  0  2  0  0  0  0  0  0  0  0  0
    5.7640   -0.3450   26.5890 C   0  0  0  0  0  0  0  0  0  0  0  0
    5.7550    0.8220   27.3210 C   0  0  0  0  0  0  0  0  0  0  0  0
    5.9090    0.7960   28.7130 C   0  0  0  0  0  0  0  0  0  0  0  0
    6.6880   -0.2360   29.2810 N   0  0  0  0  0  0  0  0  0  0  0  0
    7.4850    0.0390   30.4090 C   0  0  0  0  0  0  0  0  0  0  0  0
    6.8930    0.0180   31.7390 C   0  0  0  0  0  0  0  0  0  0  0  0
    7.5650    0.1140   32.9520 C   0  0  0  0  0  0  0  0  0  0  0  0
    7.0050    0.0890   34.2050 C   0  0  0  0  0  0  0  0  0  0  0  0
    5.6390   -0.0420   34.3000 C   0  0  0  0  0  0  0  0  0  0  0  0
    4.8710   -0.1460   33.0590 C   0  0  0  0  0  0  0  0  0  0  0  0
    5.5120   -0.1130   31.8250 C   0  0  0  0  0  0  0  0  0  0  0  0
    6.9600   -1.3700   28.4260 C   0  0  0  0  0  0  0  0  0  0  0  0
    6.8910   -2.6860   23.3150 C   0  0  0  0  0  0  0  0  0  0  0  0
    7.7010   -3.2740   22.1680 C   0  0  0  0  0  0  0  0  0  0  0  0
  1  2  1  0
  2  3  2  0
  2  4  1  0
  4  5  1  0
  5  6  1  0
  6  7  1  0
  7  8  1  0
  8  9  2  0
  8 10  1  0
 11 10  1  6
 11 12  1  0
 12 13  1  0
 13 14  1  0
 14 15  1  0
 15 16  1  0
 16 17  1  0
 17 18  2  0
 18 19  1  0
 19 20  2  0
 20 21  1  0
 17 22  1  0
 21 22  2  0
 11 23  1  0
 15 23  1  0
  7 24  1  0
  4 25  1  0
 24 25  1  0
M  END
