piperidine-amides-31850-covalent
     RDKit          3D

 28 31  0  0  0  0  0  0  0  0999 V2000
    7.0550   -3.3900   19.5010 C   0  0  0  0  0  0  0  0  0  0  0  0
    6.3850   -4.2840   20.4230 C   0  0  0  0  0  0  0  0  0  0  0  0
    5.3980   -4.9590   19.9960 O   0  0  0  0  0  0  0  0  0  0  0  0
    6.8160   -4.4490   21.7560 N   0  0  0  0  0  0  0  0  0  0  0  0
    6.3920   -5.6450   22.5130 C   0  0  0  0  0  0  0  0  0  0  0  0
    5.3440   -5.0120   23.5250 C   0  0  0  0  0  0  0  0  0  0  0  0
    6.0200   -3.8590   24.2620 C   0  0  0  0  0  0  0  0  0  0  0  0
    4.9510   -3.0840   25.2070 C   0  0  0  0  0  0  0  0  0  0  0  0
    4.3480   -2.2770   24.5300 O   0  0  0  0  0  0  0  0  0  0  0  0
    4.9400   -3.4720   26.4450 N   0  0  0  0  0  0  0  0  0  0  0  0
    4.6830   -4.2240   27.5330 C   0  0  0  0  0  0  0  0  0  0  0  0
    4.8670   -4.1330   28.8640 C   0  0  0  0  0  0  0  0  0  0  0  0
    6.1440   -3.6500   29.0960 C   0  0  0  0  0  0  0  0  0  0  0  0
    6.8070   -3.1290   27.9220 C   0  0  0  0  0  0  0  0  0  0  0  0
    5.5400   -2.4400   27.2870 C   0  0  1  0  0  0  0  0  0  0  0  0
    6.4890   -2.0090   26.4900 C   0  0  0  0  0  0  0  0  0  0  0  0
    7.0040   -0.9190   25.7640 N   0  0  0  0  0  0  0  0  0  0  0  0
    8.1370   -1.5050   25.1670 N   0  0  0  0  0  0  0  0  0  0  0  0
    8.0930   -2.8900   25.6640 C   0  0  0  0  0  0  0  0  0  0  0  0
    8.4850   -4.2730   25.8500 C   0  0  0  0  0  0  0  0  0  0  0  0
    8.4240   -4.4960   27.3860 C   0  0  0  0  0  0  0  0  0  0  0  0
    8.8080   -5.7090   27.7160 C   0  0  0  0  0  0  0  0  0  0  0  0
    9.8970   -5.9080   27.2180 O   0  0  0  0  0  0  0  0  0  0  0  0
   10.0530   -5.8050   25.8400 C   0  0  0  0  0  0  0  0  0  0  0  0
    9.5340   -4.6940   25.2690 C   0  0  0  0  0  0  0  0  0  0  0  0
    7.1320   -3.0460   26.3900 O   0  0  0  0  0  0  0  0  0  0  0  0
    6.7930   -2.8800   23.4040 C   0  0  0  0  0  0  0  0  0  0  0  0
    7.6010   -3.4780   22.4390 C   0  0  0  0  0  0  0  0  0  0  0  0
  1  2  1  0
  2  3  2  0
  2  4  1  0
  4  5  1  0
  5  6  1  0
  6  7  1  0
  7  8  1  0
  8  9  2  0
  8 10  1  0
 10 11  1  0
 11 12  1  0
 12 13  1  0
 13 14  1  0
 10 15  1  0
 14 15  1  0
 15 16  1  6
 16 17  2  0
 17 18  1  0
 18 19  2  0
 19 20  1  0
 20 21  1  0
 21 22  1  0
 22 23  1  0
 23 24  1  0
 20 25  1  0
 24 25  1  0
 16 26  1  0
 19 26  1  0
  7 27  1  0
  4 28  1  0
 27 28  1  0
M  END
