piperidine-amides-3354-covalent
     RDKit          3D

 21 22  0  0  0  0  0  0  0  0999 V2000
    7.0470   -3.3210   19.3480 C   0  0  0  0  0  0  0  0  0  0  0  0
    6.3560   -4.1650   20.3200 C   0  0  0  0  0  0  0  0  0  0  0  0
    5.3660   -4.8070   19.9740 O   0  0  0  0  0  0  0  0  0  0  0  0
    6.8560   -4.2930   21.6690 N   0  0  0  0  0  0  0  0  0  0  0  0
    6.5900   -5.4980   22.4050 C   0  0  0  0  0  0  0  0  0  0  0  0
    6.1300   -5.1600   23.7970 C   0  0  0  0  0  0  0  0  0  0  0  0
    6.0670   -3.6460   23.9280 C   0  0  0  0  0  0  0  0  0  0  0  0
    5.6310   -3.2380   25.2980 C   0  0  0  0  0  0  0  0  0  0  0  0
    4.4280   -3.2320   25.6400 O   0  0  0  0  0  0  0  0  0  0  0  0
    6.6180   -2.8470   26.2280 N   0  0  0  0  0  0  0  0  0  0  0  0
    6.4750   -1.6120   26.9710 C   0  0  0  0  0  0  0  0  0  0  0  0
    7.0090   -1.6620   28.3640 C   0  0  0  0  0  0  0  0  0  0  0  0
    6.9300   -0.5420   29.1610 C   0  0  0  0  0  0  0  0  0  0  0  0
    6.3420    0.6380   28.6460 C   0  0  0  0  0  0  0  0  0  0  0  0
    6.2290    2.0740   29.6520 Cl  0  0  0  0  0  0  0  0  0  0  0  0
    5.8410    0.6960   27.3480 C   0  0  0  0  0  0  0  0  0  0  0  0
    5.0930    1.9830   26.5060 S   0  0  0  0  0  0  0  0  0  0  0  0
    3.4770    1.6730   26.9100 C   0  0  0  0  0  0  0  0  0  0  0  0
    5.9230   -0.4190   26.5580 C   0  0  0  0  0  0  0  0  0  0  0  0
    7.4480   -3.1040   23.6090 C   0  0  0  0  0  0  0  0  0  0  0  0
    7.5870   -3.1510   22.2220 C   0  0  0  0  0  0  0  0  0  0  0  0
  1  2  1  0
  2  3  2  0
  2  4  1  0
  4  5  1  0
  5  6  1  0
  6  7  1  0
  7  8  1  0
  8  9  2  0
  8 10  1  0
 10 11  1  0
 11 12  2  0
 12 13  1  0
 13 14  2  0
 14 15  1  0
 14 16  1  0
 16 17  1  0
 17 18  1  0
 11 19  1  0
 16 19  2  0
  7 20  1  0
  4 21  1  0
 20 21  1  0
M  END
