piperidine-amides-32355-covalent
     RDKit          3D

 29 31  0  0  0  0  0  0  0  0999 V2000
    7.1010   -3.3100   19.2930 C   0  0  0  0  0  0  0  0  0  0  0  0
    6.3840   -4.1550   20.2850 C   0  0  0  0  0  0  0  0  0  0  0  0
    5.3240   -4.7070   19.9440 O   0  0  0  0  0  0  0  0  0  0  0  0
    6.9470   -4.3600   21.5650 N   0  0  0  0  0  0  0  0  0  0  0  0
    6.6310   -5.5060   22.3630 C   0  0  0  0  0  0  0  0  0  0  0  0
    5.8060   -4.9940   23.5480 C   0  0  0  0  0  0  0  0  0  0  0  0
    6.5350   -3.8580   24.2190 C   0  0  0  0  0  0  0  0  0  0  0  0
    5.7730   -3.3690   25.3930 C   0  0  0  0  0  0  0  0  0  0  0  0
    4.5470   -3.3080   25.2420 O   0  0  0  0  0  0  0  0  0  0  0  0
    6.3960   -2.9970   26.5940 N   0  0  0  0  0  0  0  0  0  0  0  0
    6.4540   -3.8680   27.7330 C   0  0  0  0  0  0  0  0  0  0  0  0
    6.9510   -5.1580   27.7480 C   0  0  0  0  0  0  0  0  0  0  0  0
    6.1650   -6.1840   28.2860 C   0  0  0  0  0  0  0  0  0  0  0  0
    5.2350   -5.8410   29.2560 O   0  0  0  0  0  0  0  0  0  0  0  0
    6.5440   -1.6480   26.9750 C   0  0  2  0  0  0  0  0  0  0  0  0
    6.1920   -1.1880   28.3430 C   0  0  0  0  0  0  0  0  0  0  0  0
    4.7930   -0.9080   28.8750 C   0  0  0  0  0  0  0  0  0  0  0  0
    4.7750   -0.4460   30.3080 C   0  0  0  0  0  0  0  0  0  0  0  0
    5.8860   -0.2820   31.0890 C   0  0  0  0  0  0  0  0  0  0  0  0
    7.3180   -0.5060   30.7360 C   0  0  0  0  0  0  0  0  0  0  0  0
    7.3460   -0.9790   29.2750 C   0  0  0  0  0  0  0  0  0  0  0  0
    6.0040   -0.6120   26.0420 C   0  0  0  0  0  0  0  0  0  0  0  0
    5.8720    0.8210   26.5960 C   0  0  0  0  0  0  0  0  0  0  0  0
    5.3540    1.9710   25.7990 C   0  0  0  0  0  0  0  0  0  0  0  0
    4.9390    1.7120   24.3680 C   0  0  0  0  0  0  0  0  0  0  0  0
    5.0960    0.3030   23.9010 C   0  0  0  0  0  0  0  0  0  0  0  0
    5.5710   -0.7060   24.6710 N   0  0  0  0  0  0  0  0  0  0  0  0
    6.8470   -2.7320   23.2400 C   0  0  0  0  0  0  0  0  0  0  0  0
    7.6100   -3.2650   22.2480 C   0  0  0  0  0  0  0  0  0  0  0  0
  1  2  1  0
  2  3  2  0
  2  4  1  0
  4  5  1  0
  5  6  1  0
  6  7  1  0
  7  8  1  0
  8  9  2  0
  8 10  1  0
 10 11  1  0
 11 12  1  0
 12 13  1  0
 13 14  1  0
 15 10  1  6
 15 16  1  0
 16 17  2  0
 17 18  1  0
 18 19  2  0
 19 20  1  0
 16 21  1  0
 20 21  2  0
 15 22  1  0
 22 23  2  0
 23 24  1  0
 24 25  2  0
 25 26  1  0
 22 27  1  0
 26 27  2  0
  7 28  1  0
  4 29  1  0
 28 29  1  0
M  END
