piperidine-amides-3345-covalent
     RDKit          3D

 22 24  0  0  0  0  0  0  0  0999 V2000
    7.0630   -3.3600   19.3030 C   0  0  0  0  0  0  0  0  0  0  0  0
    6.3880   -4.1730   20.3080 C   0  0  0  0  0  0  0  0  0  0  0  0
    5.3860   -4.8150   19.9850 O   0  0  0  0  0  0  0  0  0  0  0  0
    6.9200   -4.2720   21.6450 N   0  0  0  0  0  0  0  0  0  0  0  0
    7.7050   -3.1940   22.1820 C   0  0  0  0  0  0  0  0  0  0  0  0
    6.9240   -2.4880   23.2500 C   0  0  0  0  0  0  0  0  0  0  0  0
    6.5020   -3.5130   24.2910 C   0  0  0  0  0  0  0  0  0  0  0  0
    5.6220   -2.8560   25.3340 C   0  0  0  0  0  0  0  0  0  0  0  0
    4.4720   -3.3090   25.5680 O   0  0  0  0  0  0  0  0  0  0  0  0
    6.0720   -1.6700   26.0820 N   0  0  0  0  0  0  0  0  0  0  0  0
    6.7070   -1.8830   27.3670 C   0  0  0  0  0  0  0  0  0  0  0  0
    6.3330   -2.7310   26.3680 C   0  0  0  0  0  0  0  0  0  0  0  0
    5.8100   -1.8820   25.5220 N   0  0  0  0  0  0  0  0  0  0  0  0
    5.9910   -0.6820   26.2230 N   0  0  0  0  0  0  0  0  0  0  0  0
    5.5160    0.5650   25.6010 C   0  0  0  0  0  0  0  0  0  0  0  0
    5.8630    1.6250   26.5080 C   0  0  0  0  0  0  0  0  0  0  0  0
    6.3400    2.7330   25.8450 C   0  0  0  0  0  0  0  0  0  0  0  0
    6.5750    2.2690   24.5240 C   0  0  0  0  0  0  0  0  0  0  0  0
    6.1760    0.9730   24.4380 C   0  0  0  0  0  0  0  0  0  0  0  0
    6.6570   -0.5800   27.6160 C   0  0  0  0  0  0  0  0  0  0  0  0
    5.9080   -4.7970   23.7790 C   0  0  0  0  0  0  0  0  0  0  0  0
    6.4600   -5.3000   22.5060 C   0  0  0  0  0  0  0  0  0  0  0  0
  1  2  1  0
  2  3  2  0
  2  4  1  0
  4  5  1  0
  5  6  1  0
  6  7  1  0
  7  8  1  0
  8  9  2  0
  8 10  1  0
 10 11  1  0
 11 12  1  0
 12 13  2  0
 13 14  1  0
 14 15  1  0
 15 16  1  0
 16 17  1  0
 17 18  1  0
 15 19  1  0
 18 19  1  0
 11 20  2  0
 14 20  1  0
  7 21  1  0
  4 22  1  0
 21 22  1  0
M  END
