piperidine-amides-8405-covalent
     RDKit          3D

 24 25  0  0  0  0  0  0  0  0999 V2000
    7.0630   -3.3210   19.3320 C   0  0  0  0  0  0  0  0  0  0  0  0
    6.3480   -4.1050   20.3400 C   0  0  0  0  0  0  0  0  0  0  0  0
    5.3640   -4.7650   19.9620 O   0  0  0  0  0  0  0  0  0  0  0  0
    6.7860   -4.1450   21.6970 N   0  0  0  0  0  0  0  0  0  0  0  0
    7.6920   -3.1280   22.1920 C   0  0  0  0  0  0  0  0  0  0  0  0
    7.4270   -2.8700   23.6460 C   0  0  0  0  0  0  0  0  0  0  0  0
    6.0910   -3.5140   23.8910 C   0  0  0  0  0  0  0  0  0  0  0  0
    5.5360   -3.2020   25.2570 C   0  0  0  0  0  0  0  0  0  0  0  0
    4.3130   -3.2600   25.3420 O   0  0  0  0  0  0  0  0  0  0  0  0
    6.3720   -2.8740   26.3240 N   0  0  0  0  0  0  0  0  0  0  0  0
    5.9910   -3.1390   27.6820 C   0  0  0  0  0  0  0  0  0  0  0  0
    6.2380   -4.4580   28.0470 C   0  0  0  0  0  0  0  0  0  0  0  0
    5.3890   -5.3330   28.6330 C   0  0  0  0  0  0  0  0  0  0  0  0
    5.9220   -6.6050   28.7270 C   0  0  0  0  0  0  0  0  0  0  0  0
    5.1070   -7.6780   29.3210 C   0  0  0  0  0  0  0  0  0  0  0  0
    3.7000   -7.4350   29.8420 C   0  0  0  0  0  0  0  0  0  0  0  0
    3.1820   -8.4720   30.2960 O   0  0  0  0  0  0  0  0  0  0  0  0
    3.1560   -6.0660   29.7410 C   0  0  0  0  0  0  0  0  0  0  0  0
    1.8740   -5.5720   30.1530 N   0  0  0  0  0  0  0  0  0  0  0  0
    1.1060   -4.8570   29.2660 O   0  0  0  0  0  0  0  0  0  0  0  0
    1.2850   -5.9960   31.2990 O   0  0  0  0  0  0  0  0  0  0  0  0
    4.1040   -5.0710   29.1060 C   0  0  0  0  0  0  0  0  0  0  0  0
    6.0390   -4.9660   23.6750 C   0  0  0  0  0  0  0  0  0  0  0  0
    6.6510   -5.3520   22.4940 C   0  0  0  0  0  0  0  0  0  0  0  0
  1  2  1  0
  2  3  2  0
  2  4  1  0
  4  5  1  0
  5  6  1  0
  6  7  1  0
  7  8  1  0
  8  9  2  0
  8 10  1  0
 10 11  1  0
 11 12  1  0
 12 13  1  0
 13 14  2  0
 14 15  1  0
 15 16  2  0
 16 17  1  0
 16 18  1  0
 18 19  1  0
 19 20  2  0
 19 21  1  0
 13 22  1  0
 18 22  2  0
  7 23  1  0
  4 24  1  0
 23 24  1  0
M  CHG  2  19   1  21  -1
M  END
