piperidine-amides-2155-covalent
     RDKit          3D

 24 26  0  0  0  0  0  0  0  0999 V2000
    7.0080   -3.3430   19.4000 C   0  0  0  0  0  0  0  0  0  0  0  0
    6.3610   -4.2260   20.4080 C   0  0  0  0  0  0  0  0  0  0  0  0
    5.4250   -4.9170   20.0010 O   0  0  0  0  0  0  0  0  0  0  0  0
    6.8290   -4.2820   21.7390 N   0  0  0  0  0  0  0  0  0  0  0  0
    7.7100   -3.2720   22.3010 C   0  0  0  0  0  0  0  0  0  0  0  0
    7.3190   -2.9380   23.7220 C   0  0  0  0  0  0  0  0  0  0  0  0
    6.0320   -3.6810   24.0650 C   0  0  0  0  0  0  0  0  0  0  0  0
    5.4820   -3.2890   25.4060 C   0  0  0  0  0  0  0  0  0  0  0  0
    4.2520   -3.3320   25.5350 O   0  0  0  0  0  0  0  0  0  0  0  0
    6.2490   -2.8740   26.5300 N   0  0  0  0  0  0  0  0  0  0  0  0
    6.2350   -1.4540   26.9130 C   0  0  2  0  0  0  0  0  0  0  0  0
    6.7610   -0.9140   25.6070 C   0  0  0  0  0  0  0  0  0  0  0  0
    6.6180    0.4570   25.4800 O   0  0  0  0  0  0  0  0  0  0  0  0
    7.2530   -1.2220   28.1080 C   0  0  0  0  0  0  0  0  0  0  0  0
    6.8290   -0.2160   28.9590 O   0  0  0  0  0  0  0  0  0  0  0  0
    5.8080   -0.2120   28.1430 C   0  0  0  0  0  0  0  0  0  0  0  0
    5.7770   -1.4900   28.1530 C   0  0  0  0  0  0  0  0  0  0  0  0
    6.8610   -1.0820   29.1590 C   0  0  0  0  0  0  0  0  0  0  0  0
    6.9360    0.4840   29.2410 C   0  0  0  0  0  0  0  0  0  0  0  0
    6.0170    1.4050   28.3840 C   0  0  0  0  0  0  0  0  0  0  0  0
    5.1030    0.6300   27.5220 C   0  0  0  0  0  0  0  0  0  0  0  0
    4.8440   -0.8310   27.2300 C   0  0  0  0  0  0  0  0  0  0  0  0
    6.0770   -5.1400   23.8200 C   0  0  0  0  0  0  0  0  0  0  0  0
    6.6710   -5.5090   22.4980 C   0  0  0  0  0  0  0  0  0  0  0  0
  1  2  1  0
  2  3  2  0
  2  4  1  0
  4  5  1  0
  5  6  1  0
  6  7  1  0
  7  8  1  0
  8  9  2  0
  8 10  1  0
 11 10  1  0
 11 12  1  6
 12 13  1  0
 11 14  1  0
 14 15  1  0
 15 16  1  0
 16 17  2  0
 17 18  1  0
 18 19  2  0
 19 20  1  0
 16 21  1  0
 20 21  2  0
 11 22  1  0
 21 22  1  0
  7 23  1  0
  4 24  1  0
 23 24  1  0
M  END
