piperidine-amides-19-covalent
     RDKit          3D

 19 20  0  0  0  0  0  0  0  0999 V2000
    7.1620   -3.3090   19.3680 C   0  0  0  0  0  0  0  0  0  0  0  0
    6.4370   -4.1150   20.3270 C   0  0  0  0  0  0  0  0  0  0  0  0
    5.3760   -4.7070   19.9450 O   0  0  0  0  0  0  0  0  0  0  0  0
    6.8920   -4.2930   21.6480 N   0  0  0  0  0  0  0  0  0  0  0  0
    7.8290   -3.2920   22.2080 C   0  0  0  0  0  0  0  0  0  0  0  0
    6.8750   -2.6100   23.2410 C   0  0  0  0  0  0  0  0  0  0  0  0
    6.4310   -3.7300   24.1460 C   0  0  0  0  0  0  0  0  0  0  0  0
    5.6240   -3.1100   25.3680 C   0  0  0  0  0  0  0  0  0  0  0  0
    4.9590   -2.1590   24.9860 O   0  0  0  0  0  0  0  0  0  0  0  0
    5.8430   -3.7560   26.4430 N   0  0  0  0  0  0  0  0  0  0  0  0
    5.9580   -4.3940   27.6450 C   0  0  0  0  0  0  0  0  0  0  0  0
    5.9740   -5.6230   28.2500 C   0  0  2  0  0  0  0  0  0  0  0  0
    4.9070   -6.4890   27.8900 C   0  0  0  0  0  0  0  0  0  0  0  0
    4.0100   -6.9110   29.0000 C   0  0  2  0  0  0  0  0  0  0  0  0
    2.9130   -6.0510   29.0620 O   0  0  0  0  0  0  0  0  0  0  0  0
    5.1140   -6.6630   30.0370 C   0  0  0  0  0  0  0  0  0  0  0  0
    5.6960   -5.3940   29.6600 N   0  0  0  0  0  0  0  0  0  0  0  0
    5.7560   -4.9390   23.5080 C   0  0  0  0  0  0  0  0  0  0  0  0
    6.5190   -5.4360   22.4400 C   0  0  0  0  0  0  0  0  0  0  0  0
  1  2  1  0
  2  3  2  0
  2  4  1  0
  4  5  1  0
  5  6  1  0
  6  7  1  0
  7  8  1  0
  8  9  2  0
  8 10  1  0
 10 11  1  0
 12 11  1  6
 12 13  1  0
 13 14  1  0
 14 15  1  1
 14 16  1  0
 12 17  1  0
 16 17  1  0
  7 18  1  0
  4 19  1  0
 18 19  1  0
M  END
