piperidine-amides-32940-covalent
     RDKit          3D

 28 30  0  0  0  0  0  0  0  0999 V2000
    7.0620   -3.3230   19.3380 C   0  0  0  0  0  0  0  0  0  0  0  0
    6.3780   -4.1830   20.3420 C   0  0  0  0  0  0  0  0  0  0  0  0
    5.3920   -4.8510   19.9850 O   0  0  0  0  0  0  0  0  0  0  0  0
    6.8930   -4.2490   21.6580 N   0  0  0  0  0  0  0  0  0  0  0  0
    7.7340   -3.1810   22.1780 C   0  0  0  0  0  0  0  0  0  0  0  0
    7.5700   -3.1210   23.6950 C   0  0  0  0  0  0  0  0  0  0  0  0
    6.1970   -3.6170   23.9630 C   0  0  0  0  0  0  0  0  0  0  0  0
    5.5840   -3.1020   25.2070 C   0  0  0  0  0  0  0  0  0  0  0  0
    4.5430   -2.4580   25.0490 O   0  0  0  0  0  0  0  0  0  0  0  0
    6.1270   -3.3360   26.4770 N   0  0  0  0  0  0  0  0  0  0  0  0
    5.8060   -4.5420   27.1810 C   0  0  0  0  0  0  0  0  0  0  0  0
    6.3370   -4.9770   28.3760 C   0  0  0  0  0  0  0  0  0  0  0  0
    7.1660   -3.8980   28.8450 O   0  0  0  0  0  0  0  0  0  0  0  0
    6.5440   -2.3400   27.4210 C   0  0  0  0  0  0  0  0  0  0  0  0
    6.2770   -1.4500   28.3800 C   0  0  0  0  0  0  0  0  0  0  0  0
    7.0630   -0.5430   29.1880 C   0  0  0  0  0  0  0  0  0  0  0  0
    7.2440    0.6890   30.4360 Cl  0  0  0  0  0  0  0  0  0  0  0  0
    5.6710   -0.5120   29.4500 N   0  0  0  0  0  0  0  0  0  0  0  0
    4.7620   -1.3960   28.6870 C   0  0  0  0  0  0  0  0  0  0  0  0
    3.2750   -1.2850   29.0520 C   0  0  0  0  0  0  0  0  0  0  0  0
    2.9030   -1.6180   30.3100 C   0  0  0  0  0  0  0  0  0  0  0  0
    1.5050   -1.5410   30.7390 C   0  0  0  0  0  0  0  0  0  0  0  0
    0.5950   -1.0570   29.6100 C   0  0  0  0  0  0  0  0  0  0  0  0
    0.7720   -0.6720   28.2800 C   0  0  0  0  0  0  0  0  0  0  0  0
    2.3150   -0.8680   28.1680 C   0  0  0  0  0  0  0  0  0  0  0  0
    5.2330   -2.2610   27.7190 N   0  0  0  0  0  0  0  0  0  0  0  0
    6.0730   -5.0950   23.7980 C   0  0  0  0  0  0  0  0  0  0  0  0
    6.7070   -5.4530   22.4540 C   0  0  0  0  0  0  0  0  0  0  0  0
  1  2  1  0
  2  3  2  0
  2  4  1  0
  4  5  1  0
  5  6  1  0
  6  7  1  0
  7  8  1  0
  8  9  2  0
  8 10  1  0
 10 11  1  0
 11 12  1  0
 12 13  1  0
 10 14  1  0
 14 15  2  0
 15 16  1  0
 16 17  1  0
 16 18  2  0
 18 19  1  0
 19 20  1  0
 20 21  2  0
 21 22  1  0
 22 23  2  0
 23 24  1  0
 20 25  1  0
 24 25  2  0
 14 26  1  0
 19 26  2  0
  7 27  1  0
  4 28  1  0
 27 28  1  0
M  END
