piperidine-amides-19724-covalent
     RDKit          3D

 22 23  0  0  0  0  0  0  0  0999 V2000
    6.9960   -3.3410   19.3150 C   0  0  0  0  0  0  0  0  0  0  0  0
    6.3270   -4.1990   20.3300 C   0  0  0  0  0  0  0  0  0  0  0  0
    5.3330   -4.8190   19.9620 O   0  0  0  0  0  0  0  0  0  0  0  0
    6.8380   -4.3200   21.6230 N   0  0  0  0  0  0  0  0  0  0  0  0
    7.6190   -3.2690   22.2230 C   0  0  0  0  0  0  0  0  0  0  0  0
    7.3120   -3.2280   23.6830 C   0  0  0  0  0  0  0  0  0  0  0  0
    5.9210   -3.7680   23.9220 C   0  0  0  0  0  0  0  0  0  0  0  0
    5.4840   -3.3800   25.2850 C   0  0  0  0  0  0  0  0  0  0  0  0
    4.2870   -3.1160   25.4620 O   0  0  0  0  0  0  0  0  0  0  0  0
    6.3640   -3.2820   26.3830 N   0  0  0  0  0  0  0  0  0  0  0  0
    6.3800   -1.9590   27.0370 C   0  0  0  0  0  0  0  0  0  0  0  0
    6.9530   -1.8790   28.4340 C   0  0  0  0  0  0  0  0  0  0  0  0
    7.0290   -0.7230   29.1720 C   0  0  0  0  0  0  0  0  0  0  0  0
    6.5610    0.4370   28.6250 C   0  0  0  0  0  0  0  0  0  0  0  0
    6.6280    1.6160   29.3650 F   0  0  0  0  0  0  0  0  0  0  0  0
    6.0270    0.4660   27.3650 C   0  0  0  0  0  0  0  0  0  0  0  0
    5.9210   -0.7740   26.5080 C   0  0  0  0  0  0  0  0  0  0  0  0
    6.8090   -4.5140   27.0030 C   0  0  0  0  0  0  0  0  0  0  0  0
    7.2190   -4.8070   28.4210 C   0  0  0  0  0  0  0  0  0  0  0  0
    5.7250   -5.5500   27.0110 C   0  0  0  0  0  0  0  0  0  0  0  0
    5.8570   -5.2380   23.6340 C   0  0  0  0  0  0  0  0  0  0  0  0
    6.6230   -5.5530   22.3540 C   0  0  0  0  0  0  0  0  0  0  0  0
  1  2  1  0
  2  3  2  0
  2  4  1  0
  4  5  1  0
  5  6  1  0
  6  7  1  0
  7  8  1  0
  8  9  2  0
  8 10  1  0
 10 11  1  0
 11 12  2  0
 12 13  1  0
 13 14  2  0
 14 15  1  0
 14 16  1  0
 11 17  1  0
 16 17  2  0
 10 18  1  0
 18 19  1  0
 18 20  1  0
  7 21  1  0
  4 22  1  0
 21 22  1  0
M  END
