piperidine-amides-14335-covalent
     RDKit          3D

 26 28  0  0  0  0  0  0  0  0999 V2000
    7.0620   -3.3320   19.3300 C   0  0  0  0  0  0  0  0  0  0  0  0
    6.3960   -4.1730   20.3220 C   0  0  0  0  0  0  0  0  0  0  0  0
    5.3820   -4.8050   19.9710 O   0  0  0  0  0  0  0  0  0  0  0  0
    6.9270   -4.2970   21.6330 N   0  0  0  0  0  0  0  0  0  0  0  0
    7.7320   -3.2130   22.1490 C   0  0  0  0  0  0  0  0  0  0  0  0
    7.4910   -3.0460   23.6180 C   0  0  0  0  0  0  0  0  0  0  0  0
    6.0970   -3.5500   23.8640 C   0  0  0  0  0  0  0  0  0  0  0  0
    5.6010   -3.1050   25.2000 C   0  0  0  0  0  0  0  0  0  0  0  0
    4.3860   -2.9750   25.3190 O   0  0  0  0  0  0  0  0  0  0  0  0
    6.5430   -2.8730   26.1840 N   0  0  0  0  0  0  0  0  0  0  0  0
    6.7340   -1.6180   26.8330 C   0  0  1  0  0  0  0  0  0  0  0  0
    5.7760   -0.5990   26.7220 C   0  0  0  0  0  0  0  0  0  0  0  0
    5.7900    0.4390   27.6810 C   0  0  0  0  0  0  0  0  0  0  0  0
    5.8030    1.0170   28.9280 O   0  0  0  0  0  0  0  0  0  0  0  0
    5.7840   -0.7140   28.5800 N   0  0  0  0  0  0  0  0  0  0  0  0
    4.6550   -0.7910   29.4210 C   0  0  0  0  0  0  0  0  0  0  0  0
    6.5530   -1.8850   28.2260 C   0  0  1  0  0  0  0  0  0  0  0  0
    5.7960   -3.2090   28.5500 C   0  0  0  0  0  0  0  0  0  0  0  0
    6.6380   -4.4040   28.8550 C   0  0  0  0  0  0  0  0  0  0  0  0
    5.8390   -5.6550   29.1430 C   0  0  0  0  0  0  0  0  0  0  0  0
    4.2920   -5.6020   29.1060 C   0  0  0  0  0  0  0  0  0  0  0  0
    3.2830   -7.0100   29.4330 Cl  0  0  0  0  0  0  0  0  0  0  0  0
    3.7110   -4.4000   28.8050 C   0  0  0  0  0  0  0  0  0  0  0  0
    4.4100   -3.2550   28.5370 C   0  0  0  0  0  0  0  0  0  0  0  0
    6.0290   -5.0350   23.7450 C   0  0  0  0  0  0  0  0  0  0  0  0
    6.6520   -5.4530   22.4420 C   0  0  0  0  0  0  0  0  0  0  0  0
  1  2  1  0
  2  3  2  0
  2  4  1  0
  4  5  1  0
  5  6  1  0
  6  7  1  0
  7  8  1  0
  8  9  2  0
  8 10  1  0
 11 10  1  6
 11 12  1  0
 12 13  1  0
 13 14  2  0
 13 15  1  0
 15 16  1  0
 11 17  1  0
 15 17  1  0
 17 18  1  6
 18 19  2  0
 19 20  1  0
 20 21  2  0
 21 22  1  0
 21 23  1  0
 18 24  1  0
 23 24  2  0
  7 25  1  0
  4 26  1  0
 25 26  1  0
M  END
