piperidine-amides-35641-covalent
     RDKit          3D

 40 44  0  0  0  0  0  0  0  0999 V2000
    7.0710   -3.3330   19.3510 C   0  0  0  0  0  0  0  0  0  0  0  0
    6.3750   -4.2300   20.3100 C   0  0  0  0  0  0  0  0  0  0  0  0
    5.3220   -4.7350   19.9390 O   0  0  0  0  0  0  0  0  0  0  0  0
    6.9330   -4.5190   21.5550 N   0  0  0  0  0  0  0  0  0  0  0  0
    7.6500   -3.5190   22.2810 C   0  0  0  0  0  0  0  0  0  0  0  0
    6.6210   -2.6400   22.9090 C   0  0  0  0  0  0  0  0  0  0  0  0
    5.4980   -3.4940   23.5140 C   0  0  0  0  0  0  0  0  0  0  0  0
    5.0610   -2.7360   24.7070 C   0  0  0  0  0  0  0  0  0  0  0  0
    3.8700   -2.6360   25.0250 O   0  0  0  0  0  0  0  0  0  0  0  0
    6.0820   -2.1690   25.4560 N   0  0  0  0  0  0  0  0  0  0  0  0
    5.9950   -1.1440   26.5060 C   0  0  0  0  0  0  0  0  0  0  0  0
    6.9860   -1.3420   27.6210 C   0  0  0  0  0  0  0  0  0  0  0  0
    7.0280   -0.4790   28.6510 C   0  0  0  0  0  0  0  0  0  0  0  0
    6.1400    0.5480   28.5980 C   0  0  0  0  0  0  0  0  0  0  0  0
    5.2020    0.7810   27.5880 C   0  0  0  0  0  0  0  0  0  0  0  0
    5.1570   -0.0810   26.5660 N   0  0  0  0  0  0  0  0  0  0  0  0
    7.0260   -2.8190   26.1870 C   0  0  1  0  0  0  0  0  0  0  0  0
    6.2660   -4.0270   26.6870 C   0  0  0  0  0  0  0  0  0  0  0  0
    5.5220   -3.3980   27.8300 C   0  0  0  0  0  0  0  0  0  0  0  0
    4.6540   -4.3100   28.5770 C   0  0  0  0  0  0  0  0  0  0  0  0
    4.5350   -5.7370   28.2120 C   0  0  0  0  0  0  0  0  0  0  0  0
    3.6530   -6.7460   28.9310 C   0  0  0  0  0  0  0  0  0  0  0  0
    4.2410   -7.8400   29.4990 F   0  0  0  0  0  0  0  0  0  0  0  0
    2.9880   -6.1470   29.9590 F   0  0  0  0  0  0  0  0  0  0  0  0
    2.7330   -7.2950   28.0410 F   0  0  0  0  0  0  0  0  0  0  0  0
    5.3290   -6.3160   27.0290 C   0  0  0  0  0  0  0  0  0  0  0  0
    6.2290   -5.3350   26.2700 C   0  0  0  0  0  0  0  0  0  0  0  0
    8.2680   -2.8260   25.5260 C   0  0  0  0  0  0  0  0  0  0  0  0
    9.3290   -3.8660   25.4690 C   0  0  0  0  0  0  0  0  0  0  0  0
   10.6580   -3.7340   24.7960 C   0  0  0  0  0  0  0  0  0  0  0  0
   11.0380   -2.5030   24.0630 C   0  0  0  0  0  0  0  0  0  0  0  0
   12.2010   -2.2240   23.4100 C   0  0  0  0  0  0  0  0  0  0  0  0
   12.4600   -0.9100   22.6950 C   0  0  0  0  0  0  0  0  0  0  0  0
   11.4030    0.1270   22.6970 C   0  0  0  0  0  0  0  0  0  0  0  0
   10.2700   -0.1820   23.3420 N   0  0  0  0  0  0  0  0  0  0  0  0
   10.0430   -1.4450   24.0290 C   0  0  0  0  0  0  0  0  0  0  0  0
    8.7410   -1.7270   24.7730 C   0  0  0  0  0  0  0  0  0  0  0  0
    7.9240   -0.6300   24.6400 O   0  0  0  0  0  0  0  0  0  0  0  0
    5.9590   -4.9130   23.7070 C   0  0  0  0  0  0  0  0  0  0  0  0
    6.3110   -5.5340   22.3460 C   0  0  0  0  0  0  0  0  0  0  0  0
  1  2  1  0
  2  3  2  0
  2  4  1  0
  4  5  1  0
  5  6  1  0
  6  7  1  0
  7  8  1  0
  8  9  2  0
  8 10  1  0
 10 11  1  0
 11 12  2  0
 12 13  1  0
 13 14  2  0
 14 15  1  0
 11 16  1  0
 15 16  2  0
 17 10  1  6
 17 18  1  0
 18 19  2  0
 19 20  1  0
 20 21  2  0
 21 22  1  0
 22 23  1  0
 22 24  1  0
 22 25  1  0
 21 26  1  0
 18 27  1  0
 26 27  2  0
 17 28  1  0
 28 29  2  0
 29 30  1  0
 30 31  2  0
 31 32  1  0
 32 33  2  0
 33 34  1  0
 34 35  2  0
 31 36  1  0
 35 36  1  0
 28 37  1  0
 36 37  2  0
 37 38  1  0
  7 39  1  0
  4 40  1  0
 39 40  1  0
M  END
