piperidine-amides-30380-covalent
     RDKit          3D

 27 29  0  0  0  0  0  0  0  0999 V2000
    7.0280   -3.3760   19.3330 C   0  0  0  0  0  0  0  0  0  0  0  0
    6.3680   -4.2370   20.3170 C   0  0  0  0  0  0  0  0  0  0  0  0
    5.3610   -4.8750   19.9810 O   0  0  0  0  0  0  0  0  0  0  0  0
    6.8900   -4.3820   21.6110 N   0  0  0  0  0  0  0  0  0  0  0  0
    7.6380   -3.3290   22.2340 C   0  0  0  0  0  0  0  0  0  0  0  0
    6.6350   -2.6980   23.1480 C   0  0  0  0  0  0  0  0  0  0  0  0
    5.8090   -3.7340   23.8570 C   0  0  0  0  0  0  0  0  0  0  0  0
    5.3820   -3.2930   25.2400 C   0  0  0  0  0  0  0  0  0  0  0  0
    4.4930   -2.3950   25.2990 O   0  0  0  0  0  0  0  0  0  0  0  0
    5.8020   -3.7360   26.5330 N   0  0  0  0  0  0  0  0  0  0  0  0
    4.8180   -3.5660   27.6320 C   0  0  0  0  0  0  0  0  0  0  0  0
    5.2040   -4.4210   28.7770 C   0  0  0  0  0  0  0  0  0  0  0  0
    6.6350   -4.4470   29.0610 C   0  0  0  0  0  0  0  0  0  0  0  0
    7.4110   -4.8140   27.8570 C   0  0  1  0  0  0  0  0  0  0  0  0
    6.5410   -5.8330   27.1410 C   0  0  0  0  0  0  0  0  0  0  0  0
    6.1760   -6.9360   27.9410 O   0  0  0  0  0  0  0  0  0  0  0  0
    6.1070   -5.7300   25.9460 O   0  0  0  0  0  0  0  0  0  0  0  0
    4.8120   -6.2020   25.7020 C   0  0  0  0  0  0  0  0  0  0  0  0
    7.1570   -3.6420   26.9280 C   0  0  1  0  0  0  0  0  0  0  0  0
    7.9250   -3.3210   25.8380 C   0  0  0  0  0  0  0  0  0  0  0  0
    7.8670   -2.1080   25.2070 N   0  0  0  0  0  0  0  0  0  0  0  0
    8.7090   -2.1760   24.2210 N   0  0  0  0  0  0  0  0  0  0  0  0
    9.2880   -3.4170   24.2300 C   0  0  0  0  0  0  0  0  0  0  0  0
    8.8140   -4.1940   25.2830 N   0  0  0  0  0  0  0  0  0  0  0  0
    9.0920   -5.4650   25.7090 C   0  0  0  0  0  0  0  0  0  0  0  0
    6.4580   -5.1190   23.6320 C   0  0  0  0  0  0  0  0  0  0  0  0
    6.2890   -5.4130   22.4600 C   0  0  0  0  0  0  0  0  0  0  0  0
  1  2  1  0
  2  3  2  0
  2  4  1  0
  4  5  1  0
  5  6  1  0
  6  7  1  0
  7  8  1  0
  8  9  2  0
  8 10  1  0
 10 11  1  0
 11 12  1  0
 12 13  1  0
 13 14  1  0
 14 15  1  6
 15 16  2  0
 15 17  1  0
 17 18  1  0
 10 19  1  0
 14 19  1  0
 19 20  1  6
 20 21  2  0
 21 22  1  0
 22 23  2  0
 20 24  1  0
 23 24  1  0
 24 25  1  0
  7 26  1  0
  4 27  1  0
 26 27  1  0
M  END
