piperidine-amides-24562-covalent
     RDKit          3D

 23 25  0  0  0  0  0  0  0  0999 V2000
    7.0710   -3.3340   19.3480 C   0  0  0  0  0  0  0  0  0  0  0  0
    6.3980   -4.2040   20.3210 C   0  0  0  0  0  0  0  0  0  0  0  0
    5.3730   -4.8320   19.9810 O   0  0  0  0  0  0  0  0  0  0  0  0
    6.9180   -4.3900   21.6120 N   0  0  0  0  0  0  0  0  0  0  0  0
    6.5190   -5.5530   22.3560 C   0  0  0  0  0  0  0  0  0  0  0  0
    5.5600   -5.0280   23.4260 C   0  0  0  0  0  0  0  0  0  0  0  0
    6.3640   -4.0590   24.2680 C   0  0  0  0  0  0  0  0  0  0  0  0
    5.4620   -3.4270   25.2680 C   0  0  0  0  0  0  0  0  0  0  0  0
    4.7220   -2.5120   24.8690 O   0  0  0  0  0  0  0  0  0  0  0  0
    5.4170   -3.8360   26.6320 N   0  0  0  0  0  0  0  0  0  0  0  0
    6.3950   -3.3950   27.5170 C   0  0  0  0  0  0  0  0  0  0  0  0
    6.6670   -4.5900   28.4100 C   0  0  0  0  0  0  0  0  0  0  0  0
    5.4440   -4.7340   29.1390 N   0  0  0  0  0  0  0  0  0  0  0  0
    5.2120   -5.7910   30.1000 C   0  0  0  0  0  0  0  0  0  0  0  0
    6.1050   -6.7680   30.3670 N   0  0  0  0  0  0  0  0  0  0  0  0
    5.6080   -7.5770   31.2990 C   0  0  0  0  0  0  0  0  0  0  0  0
    4.3590   -7.3490   31.8250 C   0  0  0  0  0  0  0  0  0  0  0  0
    3.8070   -8.1640   32.7850 C   0  0  0  0  0  0  0  0  0  0  0  0
    3.7250   -5.9190   31.0470 S   0  0  0  0  0  0  0  0  0  0  0  0
    4.4810   -3.8440   28.9290 C   0  0  0  0  0  0  0  0  0  0  0  0
    4.2090   -3.8450   27.4270 C   0  0  0  0  0  0  0  0  0  0  0  0
    7.0160   -2.9600   23.5170 C   0  0  0  0  0  0  0  0  0  0  0  0
    7.6690   -3.3730   22.2730 C   0  0  0  0  0  0  0  0  0  0  0  0
  1  2  1  0
  2  3  2  0
  2  4  1  0
  4  5  1  0
  5  6  1  0
  6  7  1  0
  7  8  1  0
  8  9  2  0
  8 10  1  0
 10 11  1  0
 11 12  1  0
 12 13  1  0
 13 14  1  0
 14 15  2  0
 15 16  1  0
 16 17  2  0
 17 18  1  0
 14 19  1  0
 17 19  1  0
 13 20  1  0
 10 21  1  0
 20 21  1  0
  7 22  1  0
  4 23  1  0
 22 23  1  0
M  END
