piperidine-amides-11136-covalent
     RDKit          3D

 20 21  0  0  0  0  0  0  0  0999 V2000
    7.1220   -3.2580   19.2110 C   0  0  0  0  0  0  0  0  0  0  0  0
    6.3410   -3.9980   20.2060 C   0  0  0  0  0  0  0  0  0  0  0  0
    5.2650   -4.5110   19.8660 O   0  0  0  0  0  0  0  0  0  0  0  0
    6.8030   -4.1890   21.5130 N   0  0  0  0  0  0  0  0  0  0  0  0
    7.6600   -3.2450   22.2040 C   0  0  0  0  0  0  0  0  0  0  0  0
    6.8490   -2.7010   23.3520 C   0  0  0  0  0  0  0  0  0  0  0  0
    6.2290   -3.7930   24.1820 C   0  0  0  0  0  0  0  0  0  0  0  0
    5.3980   -3.2540   25.2900 C   0  0  0  0  0  0  0  0  0  0  0  0
    4.1510   -3.0920   25.1370 O   0  0  0  0  0  0  0  0  0  0  0  0
    5.9350   -2.8990   26.5520 N   0  0  0  0  0  0  0  0  0  0  0  0
    5.6420   -3.7150   27.7560 C   0  0  0  0  0  0  0  0  0  0  0  0
    6.5920   -4.8370   27.8130 C   0  0  0  0  0  0  0  0  0  0  0  0
    7.9800   -4.5320   27.5530 C   0  0  0  0  0  0  0  0  0  0  0  0
    8.0420   -3.7950   26.2310 C   0  0  0  0  0  0  0  0  0  0  0  0
    8.4940   -4.6750   25.0850 C   0  0  0  0  0  0  0  0  0  0  0  0
    8.3600   -6.0000   25.4870 O   0  0  0  0  0  0  0  0  0  0  0  0
    9.2540   -6.1510   26.5030 C   0  0  0  0  0  0  0  0  0  0  0  0
    8.7620   -5.6660   27.6670 C   0  0  0  0  0  0  0  0  0  0  0  0
    5.4180   -4.7450   23.3350 C   0  0  0  0  0  0  0  0  0  0  0  0
    6.3270   -5.3220   22.2740 C   0  0  0  0  0  0  0  0  0  0  0  0
  1  2  1  0
  2  3  2  0
  2  4  1  0
  4  5  1  0
  5  6  1  0
  6  7  1  0
  7  8  1  0
  8  9  2  0
  8 10  1  0
 10 11  1  0
 11 12  1  0
 12 13  1  0
 13 14  1  0
 14 15  1  0
 15 16  1  0
 16 17  1  0
 13 18  1  0
 17 18  1  0
  7 19  1  0
  4 20  1  0
 19 20  1  0
M  END
