piperidine-amides-19762-covalent
     RDKit          3D

 21 23  0  0  0  0  0  0  0  0999 V2000
    7.0320   -3.3570   19.3940 C   0  0  0  0  0  0  0  0  0  0  0  0
    6.3860   -4.2400   20.3980 C   0  0  0  0  0  0  0  0  0  0  0  0
    5.4180   -4.8920   19.9990 O   0  0  0  0  0  0  0  0  0  0  0  0
    6.8870   -4.3570   21.7100 N   0  0  0  0  0  0  0  0  0  0  0  0
    6.5960   -5.4970   22.5290 C   0  0  0  0  0  0  0  0  0  0  0  0
    5.7960   -5.0640   23.7350 C   0  0  0  0  0  0  0  0  0  0  0  0
    6.3830   -3.7970   24.3900 C   0  0  0  0  0  0  0  0  0  0  0  0
    5.3320   -3.2470   25.3030 C   0  0  0  0  0  0  0  0  0  0  0  0
    4.4600   -2.5400   24.7970 O   0  0  0  0  0  0  0  0  0  0  0  0
    5.2450   -3.4830   26.7110 N   0  0  0  0  0  0  0  0  0  0  0  0
    4.0450   -3.1030   27.4230 C   0  0  0  0  0  0  0  0  0  0  0  0
    4.0380   -3.8260   28.7680 C   0  0  0  0  0  0  0  0  0  0  0  0
    4.8700   -4.8590   28.9890 C   0  0  0  0  0  0  0  0  0  0  0  0
    4.6390   -5.9830   29.7360 C   0  0  0  0  0  0  0  0  0  0  0  0
    5.6660   -6.8850   29.7750 C   0  0  0  0  0  0  0  0  0  0  0  0
    6.9010   -6.2350   28.8310 S   0  0  0  0  0  0  0  0  0  0  0  0
    6.1450   -4.7260   28.3280 C   0  0  0  0  0  0  0  0  0  0  0  0
    6.3620   -3.4710   27.5060 C   0  0  2  0  0  0  0  0  0  0  0  0
    6.6540   -2.4930   28.6110 C   0  0  0  0  0  0  0  0  0  0  0  0
    6.9010   -2.7570   23.4650 C   0  0  0  0  0  0  0  0  0  0  0  0
    7.6650   -3.3000   22.3040 C   0  0  0  0  0  0  0  0  0  0  0  0
  1  2  1  0
  2  3  2  0
  2  4  1  0
  4  5  1  0
  5  6  1  0
  6  7  1  0
  7  8  1  0
  8  9  2  0
  8 10  1  0
 10 11  1  0
 11 12  1  0
 12 13  1  0
 13 14  1  0
 14 15  2  0
 15 16  1  0
 13 17  2  0
 16 17  1  0
 10 18  1  0
 17 18  1  0
 18 19  1  1
  7 20  1  0
  4 21  1  0
 20 21  1  0
M  END
