piperidine-amides-21485-covalent
     RDKit          3D

 23 25  0  0  0  0  0  0  0  0999 V2000
    7.0340   -5.2470   19.9940 C   0  0  0  0  0  0  0  0  0  0  0  0
    6.0000   -4.4610   20.5120 C   0  0  0  0  0  0  0  0  0  0  0  0
    5.1110   -4.1140   19.7070 O   0  0  0  0  0  0  0  0  0  0  0  0
    6.1210   -4.2140   21.8410 N   0  0  0  0  0  0  0  0  0  0  0  0
    6.1690   -5.4050   22.6250 C   0  0  0  0  0  0  0  0  0  0  0  0
    5.7430   -5.0130   23.9880 C   0  0  0  0  0  0  0  0  0  0  0  0
    6.4970   -3.8240   24.5320 C   0  0  0  0  0  0  0  0  0  0  0  0
    5.7340   -3.3520   25.7010 C   0  0  0  0  0  0  0  0  0  0  0  0
    4.5560   -2.9450   25.5380 O   0  0  0  0  0  0  0  0  0  0  0  0
    6.2320   -3.3780   27.0130 N   0  0  0  0  0  0  0  0  0  0  0  0
    7.6720   -3.4690   27.2310 C   0  0  0  0  0  0  0  0  0  0  0  0
    8.2000   -4.7210   28.0140 C   0  0  2  0  0  0  0  0  0  0  0  0
    8.8610   -5.7450   27.3800 C   0  0  0  0  0  0  0  0  0  0  0  0
    9.3060   -5.5650   26.0420 O   0  0  0  0  0  0  0  0  0  0  0  0
    7.3630   -5.5430   28.8280 O   0  0  0  0  0  0  0  0  0  0  0  0
    5.9870   -5.2740   28.8710 C   0  0  0  0  0  0  0  0  0  0  0  0
    5.2150   -6.0630   29.7790 C   0  0  0  0  0  0  0  0  0  0  0  0
    5.0360   -5.1590   28.9660 C   0  0  0  0  0  0  0  0  0  0  0  0
    6.4820   -5.6900   29.1660 C   0  0  0  0  0  0  0  0  0  0  0  0
    6.7340   -4.7110   28.1860 C   0  0  0  0  0  0  0  0  0  0  0  0
    5.5490   -4.1780   27.9300 C   0  0  0  0  0  0  0  0  0  0  0  0
    6.7050   -2.6630   23.5320 C   0  0  0  0  0  0  0  0  0  0  0  0
    7.1660   -3.2800   22.2330 C   0  0  0  0  0  0  0  0  0  0  0  0
  1  2  1  0
  2  3  2  0
  2  4  1  0
  4  5  1  0
  5  6  1  0
  6  7  1  0
  7  8  1  0
  8  9  2  0
  8 10  1  0
 10 11  1  0
 11 12  1  0
 12 13  1  6
 13 14  1  0
 12 15  1  0
 15 16  1  0
 16 17  2  0
 17 18  1  0
 18 19  2  0
 19 20  1  0
 10 21  1  0
 16 21  1  0
 20 21  2  0
  7 22  1  0
  4 23  1  0
 22 23  1  0
M  END
