piperidine-amides-8717-covalent
     RDKit          3D

 23 24  0  0  0  0  0  0  0  0999 V2000
    7.0740   -3.3030   19.2770 C   0  0  0  0  0  0  0  0  0  0  0  0
    6.3850   -4.1140   20.2810 C   0  0  0  0  0  0  0  0  0  0  0  0
    5.3480   -4.7090   19.9430 O   0  0  0  0  0  0  0  0  0  0  0  0
    6.9230   -4.2440   21.5900 N   0  0  0  0  0  0  0  0  0  0  0  0
    7.6480   -3.1490   22.1700 C   0  0  0  0  0  0  0  0  0  0  0  0
    6.8740   -2.6580   23.3470 C   0  0  0  0  0  0  0  0  0  0  0  0
    6.6790   -3.8630   24.2330 C   0  0  0  0  0  0  0  0  0  0  0  0
    5.8970   -3.4730   25.4490 C   0  0  0  0  0  0  0  0  0  0  0  0
    4.8250   -2.9040   25.2460 O   0  0  0  0  0  0  0  0  0  0  0  0
    6.4320   -3.7740   26.7020 N   0  0  0  0  0  0  0  0  0  0  0  0
    6.7480   -5.1150   27.0790 C   0  0  0  0  0  0  0  0  0  0  0  0
    5.8510   -5.7180   27.9720 C   0  0  0  0  0  0  0  0  0  0  0  0
    4.4770   -5.5220   27.8780 C   0  0  0  0  0  0  0  0  0  0  0  0
    3.5200   -6.0930   28.7330 C   0  0  0  0  0  0  0  0  0  0  0  0
    4.0610   -6.9760   29.8140 C   0  0  0  0  0  0  0  0  0  0  0  0
    3.1580   -7.5600   30.6730 O   0  0  0  0  0  0  0  0  0  0  0  0
    3.6640   -7.4980   31.9730 C   0  0  0  0  0  0  0  0  0  0  0  0
    2.6250   -7.3510   33.0240 C   0  0  0  0  0  0  0  0  0  0  0  0
    2.9570   -7.4740   34.4110 N   0  0  0  0  0  0  0  0  0  0  0  0
    5.4960   -7.2050   29.9460 C   0  0  0  0  0  0  0  0  0  0  0  0
    6.4230   -6.5140   28.9420 C   0  0  0  0  0  0  0  0  0  0  0  0
    5.8460   -4.8820   23.4790 C   0  0  0  0  0  0  0  0  0  0  0  0
    6.5940   -5.3720   22.4240 C   0  0  0  0  0  0  0  0  0  0  0  0
  1  2  1  0
  2  3  2  0
  2  4  1  0
  4  5  1  0
  5  6  1  0
  6  7  1  0
  7  8  1  0
  8  9  2  0
  8 10  1  0
 10 11  1  0
 11 12  1  0
 12 13  2  0
 13 14  1  0
 14 15  2  0
 15 16  1  0
 16 17  1  0
 17 18  1  0
 18 19  3  0
 15 20  1  0
 12 21  1  0
 20 21  2  0
  7 22  1  0
  4 23  1  0
 22 23  1  0
M  END
