piperidine-amides-4755-covalent
     RDKit          3D

 24 25  0  0  0  0  0  0  0  0999 V2000
    7.0310   -3.3540   19.3200 C   0  0  0  0  0  0  0  0  0  0  0  0
    6.3760   -4.1930   20.3490 C   0  0  0  0  0  0  0  0  0  0  0  0
    5.3680   -4.8290   19.9740 O   0  0  0  0  0  0  0  0  0  0  0  0
    6.8910   -4.2980   21.6540 N   0  0  0  0  0  0  0  0  0  0  0  0
    7.6670   -3.2450   22.2290 C   0  0  0  0  0  0  0  0  0  0  0  0
    7.2580   -2.9320   23.5890 C   0  0  0  0  0  0  0  0  0  0  0  0
    5.9990   -3.6060   23.9570 C   0  0  0  0  0  0  0  0  0  0  0  0
    5.5790   -3.2530   25.3360 C   0  0  0  0  0  0  0  0  0  0  0  0
    4.3600   -3.2530   25.5870 O   0  0  0  0  0  0  0  0  0  0  0  0
    6.5030   -2.9210   26.3400 N   0  0  0  0  0  0  0  0  0  0  0  0
    6.4460   -1.6650   27.1170 C   0  0  0  0  0  0  0  0  0  0  0  0
    7.0280   -1.5210   28.4830 C   0  0  0  0  0  0  0  0  0  0  0  0
    6.9800   -0.2900   29.2620 C   0  0  0  0  0  0  0  0  0  0  0  0
    6.3630    0.8230   28.7280 C   0  0  0  0  0  0  0  0  0  0  0  0
    6.2650    1.9210   29.3010 O   0  0  0  0  0  0  0  0  0  0  0  0
    5.0370    2.2070   29.6300 C   0  0  0  0  0  0  0  0  0  0  0  0
    4.7370    2.4460   30.9360 C   0  0  0  0  0  0  0  0  0  0  0  0
    3.5480    3.0900   31.0870 C   0  0  0  0  0  0  0  0  0  0  0  0
    4.8020    1.3200   31.7390 C   0  0  0  0  0  0  0  0  0  0  0  0
    5.7890    3.2480   31.3990 O   0  0  0  0  0  0  0  0  0  0  0  0
    5.7960    0.7850   27.4720 C   0  0  0  0  0  0  0  0  0  0  0  0
    5.7810   -0.3980   26.5880 C   0  0  0  0  0  0  0  0  0  0  0  0
    6.0070   -5.0920   23.7720 C   0  0  0  0  0  0  0  0  0  0  0  0
    6.6570   -5.4770   22.4610 C   0  0  0  0  0  0  0  0  0  0  0  0
  1  2  1  0
  2  3  2  0
  2  4  1  0
  4  5  1  0
  5  6  1  0
  6  7  1  0
  7  8  1  0
  8  9  2  0
  8 10  1  0
 10 11  1  0
 11 12  2  0
 12 13  1  0
 13 14  2  0
 14 15  1  0
 15 16  1  0
 16 17  1  0
 17 18  1  0
 17 19  1  0
 17 20  1  0
 14 21  1  0
 11 22  1  0
 21 22  2  0
  7 23  1  0
  4 24  1  0
 23 24  1  0
M  END
