piperidine-amides-26968-covalent
     RDKit          3D

 25 27  0  0  0  0  0  0  0  0999 V2000
    7.0320   -3.3950   19.4330 C   0  0  0  0  0  0  0  0  0  0  0  0
    6.3530   -4.2430   20.4200 C   0  0  0  0  0  0  0  0  0  0  0  0
    5.3780   -4.9130   19.9950 O   0  0  0  0  0  0  0  0  0  0  0  0
    6.8150   -4.3140   21.7470 N   0  0  0  0  0  0  0  0  0  0  0  0
    6.6980   -5.5340   22.5300 C   0  0  0  0  0  0  0  0  0  0  0  0
    6.1110   -5.1790   23.8750 C   0  0  0  0  0  0  0  0  0  0  0  0
    6.1120   -3.6920   24.0590 C   0  0  0  0  0  0  0  0  0  0  0  0
    5.5270   -3.2110   25.3530 C   0  0  0  0  0  0  0  0  0  0  0  0
    4.9790   -2.0950   25.3160 O   0  0  0  0  0  0  0  0  0  0  0  0
    5.4860   -3.8760   26.6040 N   0  0  0  0  0  0  0  0  0  0  0  0
    4.2230   -4.1100   27.2470 C   0  0  0  0  0  0  0  0  0  0  0  0
    4.3730   -4.2620   28.7760 C   0  0  0  0  0  0  0  0  0  0  0  0
    5.4830   -5.1780   29.0650 N   0  0  0  0  0  0  0  0  0  0  0  0
    5.2340   -6.4800   29.0520 C   0  0  0  0  0  0  0  0  0  0  0  0
    5.5030   -7.2290   30.1790 C   0  0  0  0  0  0  0  0  0  0  0  0
    4.4780   -7.5720   30.9930 N   0  0  0  0  0  0  0  0  0  0  0  0
    4.8190   -7.3590   32.3410 C   0  0  0  0  0  0  0  0  0  0  0  0
    3.6610   -6.9340   32.9750 C   0  0  0  0  0  0  0  0  0  0  0  0
    2.5990   -6.8430   32.1460 N   0  0  0  0  0  0  0  0  0  0  0  0
    3.0810   -7.2510   30.9270 C   0  0  0  0  0  0  0  0  0  0  0  0
    2.4300   -7.4030   29.6960 O   0  0  0  0  0  0  0  0  0  0  0  0
    6.6220   -4.8070   28.5050 C   0  0  0  0  0  0  0  0  0  0  0  0
    6.3470   -3.5770   27.6470 C   0  0  0  0  0  0  0  0  0  0  0  0
    7.5030   -3.1270   23.7650 C   0  0  0  0  0  0  0  0  0  0  0  0
    7.6770   -3.2410   22.2560 C   0  0  0  0  0  0  0  0  0  0  0  0
  1  2  1  0
  2  3  2  0
  2  4  1  0
  4  5  1  0
  5  6  1  0
  6  7  1  0
  7  8  1  0
  8  9  2  0
  8 10  1  0
 10 11  1  0
 11 12  1  0
 12 13  1  0
 13 14  1  0
 14 15  1  0
 15 16  1  0
 16 17  1  0
 17 18  1  0
 18 19  1  0
 16 20  1  0
 19 20  1  0
 20 21  2  0
 13 22  1  0
 10 23  1  0
 22 23  1  0
  7 24  1  0
  4 25  1  0
 24 25  1  0
M  END
