piperidine-amides-25825-covalent
     RDKit          3D

 25 26  0  0  0  0  0  0  0  0999 V2000
    7.0810   -3.2700   19.2780 C   0  0  0  0  0  0  0  0  0  0  0  0
    6.3550   -4.0770   20.2970 C   0  0  0  0  0  0  0  0  0  0  0  0
    5.3210   -4.6270   19.9180 O   0  0  0  0  0  0  0  0  0  0  0  0
    6.8560   -4.2350   21.5980 N   0  0  0  0  0  0  0  0  0  0  0  0
    6.5920   -5.4570   22.3170 C   0  0  0  0  0  0  0  0  0  0  0  0
    6.2430   -5.1510   23.7520 C   0  0  0  0  0  0  0  0  0  0  0  0
    6.0200   -3.6480   23.9370 C   0  0  0  0  0  0  0  0  0  0  0  0
    5.5130   -3.3850   25.3120 C   0  0  0  0  0  0  0  0  0  0  0  0
    4.2910   -3.4030   25.4910 O   0  0  0  0  0  0  0  0  0  0  0  0
    6.3450   -3.1030   26.4180 N   0  0  0  0  0  0  0  0  0  0  0  0
    6.6640   -1.7060   26.6320 C   0  0  0  0  0  0  0  0  0  0  0  0
    6.3370   -1.2950   28.0640 C   0  0  0  0  0  0  0  0  0  0  0  0
    5.0410   -1.0300   28.4800 C   0  0  0  0  0  0  0  0  0  0  0  0
    4.7020   -0.6460   29.7570 C   0  0  0  0  0  0  0  0  0  0  0  0
    5.6300   -0.4870   30.7530 C   0  0  0  0  0  0  0  0  0  0  0  0
    5.4340   -0.0670   32.1970 C   0  0  0  0  0  0  0  0  0  0  0  0
    5.1800    1.3390   31.7520 C   0  0  0  0  0  0  0  0  0  0  0  0
    7.0350   -0.7510   30.4050 C   0  0  0  0  0  0  0  0  0  0  0  0
    7.4190   -1.1640   29.0470 C   0  0  0  0  0  0  0  0  0  0  0  0
    6.1930   -3.7000   27.7590 C   0  0  0  0  0  0  0  0  0  0  0  0
    5.7470   -5.1620   27.8330 C   0  0  0  0  0  0  0  0  0  0  0  0
    6.5440   -6.0200   28.7410 C   0  0  0  0  0  0  0  0  0  0  0  0
    5.4550   -5.7540   26.6110 C   0  0  0  0  0  0  0  0  0  0  0  0
    7.3200   -2.9640   23.6350 C   0  0  0  0  0  0  0  0  0  0  0  0
    7.6480   -3.1680   22.1730 C   0  0  0  0  0  0  0  0  0  0  0  0
  1  2  1  0
  2  3  2  0
  2  4  1  0
  4  5  1  0
  5  6  1  0
  6  7  1  0
  7  8  1  0
  8  9  2  0
  8 10  1  0
 10 11  1  0
 11 12  1  0
 12 13  2  0
 13 14  1  0
 14 15  2  0
 15 16  1  0
 16 17  1  0
 15 18  1  0
 12 19  1  0
 18 19  2  0
 10 20  1  0
 20 21  1  0
 21 22  1  0
 21 23  1  0
  7 24  1  0
  4 25  1  0
 24 25  1  0
M  END
