piperidine-amides-29148-covalent
     RDKit          3D

 25 26  0  0  0  0  0  0  0  0999 V2000
    7.0730   -3.3130   19.2960 C   0  0  0  0  0  0  0  0  0  0  0  0
    6.3260   -4.1530   20.2400 C   0  0  0  0  0  0  0  0  0  0  0  0
    5.2250   -4.5920   19.8850 O   0  0  0  0  0  0  0  0  0  0  0  0
    6.8670   -4.5040   21.4970 N   0  0  0  0  0  0  0  0  0  0  0  0
    6.3090   -5.6270   22.2160 C   0  0  0  0  0  0  0  0  0  0  0  0
    5.6920   -5.2040   23.5420 C   0  0  0  0  0  0  0  0  0  0  0  0
    6.1030   -3.7750   23.8350 C   0  0  0  0  0  0  0  0  0  0  0  0
    5.8310   -3.3600   25.2350 C   0  0  0  0  0  0  0  0  0  0  0  0
    4.8060   -3.8030   25.7400 O   0  0  0  0  0  0  0  0  0  0  0  0
    6.7260   -2.4900   25.8590 N   0  0  0  0  0  0  0  0  0  0  0  0
    6.5220   -2.3250   27.2760 C   0  0  0  0  0  0  0  0  0  0  0  0
    6.5850   -3.4820   28.0940 C   0  0  0  0  0  0  0  0  0  0  0  0
    6.4920   -4.2390   29.0780 O   0  0  0  0  0  0  0  0  0  0  0  0
    6.0560   -2.6480   29.0660 O   0  0  0  0  0  0  0  0  0  0  0  0
    4.7550   -2.2880   29.3360 C   0  0  0  0  0  0  0  0  0  0  0  0
    7.1310   -1.3670   24.9750 C   0  0  0  0  0  0  0  0  0  0  0  0
    8.3720   -1.5080   24.0550 C   0  0  0  0  0  0  0  0  0  0  0  0
    9.8210   -1.4470   24.6040 C   0  0  0  0  0  0  0  0  0  0  0  0
   11.0560   -1.5930   23.8150 C   0  0  0  0  0  0  0  0  0  0  0  0
   10.8960   -1.8080   22.3610 C   0  0  0  0  0  0  0  0  0  0  0  0
   12.3120   -2.0020   21.3410 Cl  0  0  0  0  0  0  0  0  0  0  0  0
    9.4300   -1.8390   21.8530 C   0  0  0  0  0  0  0  0  0  0  0  0
    8.2630   -1.7070   22.5700 C   0  0  0  0  0  0  0  0  0  0  0  0
    7.5490   -3.7430   23.5910 C   0  0  0  0  0  0  0  0  0  0  0  0
    7.6700   -3.5160   22.1410 C   0  0  0  0  0  0  0  0  0  0  0  0
  1  2  1  0
  2  3  2  0
  2  4  1  0
  4  5  1  0
  5  6  1  0
  6  7  1  0
  7  8  1  0
  8  9  2  0
  8 10  1  0
 10 11  1  0
 11 12  1  0
 12 13  2  0
 12 14  1  0
 14 15  1  0
 10 16  1  0
 16 17  1  0
 17 18  2  0
 18 19  1  0
 19 20  2  0
 20 21  1  0
 20 22  1  0
 17 23  1  0
 22 23  2  0
  7 24  1  0
  4 25  1  0
 24 25  1  0
M  END
