piperidine-amides-19225-covalent
     RDKit          3D

 22 23  0  0  0  0  0  0  0  0999 V2000
    7.1260   -3.3160   19.4180 C   0  0  0  0  0  0  0  0  0  0  0  0
    6.4180   -4.1230   20.3910 C   0  0  0  0  0  0  0  0  0  0  0  0
    5.4290   -4.8180   19.9830 O   0  0  0  0  0  0  0  0  0  0  0  0
    6.8060   -4.1860   21.7570 N   0  0  0  0  0  0  0  0  0  0  0  0
    6.7080   -5.5300   22.3930 C   0  0  0  0  0  0  0  0  0  0  0  0
    6.1100   -5.1980   23.8180 C   0  0  0  0  0  0  0  0  0  0  0  0
    6.3020   -3.7150   23.9810 C   0  0  0  0  0  0  0  0  0  0  0  0
    5.4360   -3.0410   25.1360 C   0  0  0  0  0  0  0  0  0  0  0  0
    4.5040   -2.4720   24.5950 O   0  0  0  0  0  0  0  0  0  0  0  0
    5.8580   -3.2240   26.3320 N   0  0  0  0  0  0  0  0  0  0  0  0
    6.3430   -3.8220   27.4600 C   0  0  0  0  0  0  0  0  0  0  0  0
    5.2670   -2.1090   26.9530 C   0  0  0  0  0  0  0  0  0  0  0  0
    5.9350   -1.2850   27.8860 C   0  0  0  0  0  0  0  0  0  0  0  0
    6.1420    0.1790   27.9900 C   0  0  0  0  0  0  0  0  0  0  0  0
    6.8700    0.5970   29.1150 N   0  0  0  0  0  0  0  0  0  0  0  0
    7.2260   -0.4340   29.8540 N   0  0  0  0  0  0  0  0  0  0  0  0
    7.9070   -0.2310   30.9330 C   0  0  0  0  0  0  0  0  0  0  0  0
    8.1780    1.1200   31.1550 C   0  0  0  0  0  0  0  0  0  0  0  0
    8.8930    1.4710   32.3090 C   0  0  0  0  0  0  0  0  0  0  0  0
    6.6870   -1.5630   29.1550 C   0  0  0  0  0  0  0  0  0  0  0  0
    7.6810   -3.2910   23.6440 C   0  0  0  0  0  0  0  0  0  0  0  0
    7.7150   -3.1750   22.2740 C   0  0  0  0  0  0  0  0  0  0  0  0
  1  2  1  0
  2  3  2  0
  2  4  1  0
  4  5  1  0
  5  6  1  0
  6  7  1  0
  7  8  1  0
  8  9  2  0
  8 10  1  0
 10 11  1  0
 10 12  1  0
 12 13  1  0
 13 14  1  0
 14 15  2  0
 15 16  1  0
 16 17  1  0
 17 18  1  0
 18 19  3  0
 13 20  2  0
 16 20  1  0
  7 21  1  0
  4 22  1  0
 21 22  1  0
M  END
