piperidine-amides-11254-covalent
     RDKit          3D

 19 20  0  0  0  0  0  0  0  0999 V2000
    7.0590   -3.3410   19.2840 C   0  0  0  0  0  0  0  0  0  0  0  0
    6.3800   -4.1450   20.2990 C   0  0  0  0  0  0  0  0  0  0  0  0
    5.3820   -4.8100   19.9750 O   0  0  0  0  0  0  0  0  0  0  0  0
    6.8710   -4.2150   21.6130 N   0  0  0  0  0  0  0  0  0  0  0  0
    7.7080   -3.1710   22.1550 C   0  0  0  0  0  0  0  0  0  0  0  0
    6.9850   -2.6910   23.3760 C   0  0  0  0  0  0  0  0  0  0  0  0
    6.5850   -3.8330   24.2570 C   0  0  0  0  0  0  0  0  0  0  0  0
    5.8540   -3.3730   25.4700 C   0  0  0  0  0  0  0  0  0  0  0  0
    4.6020   -3.2020   25.4200 O   0  0  0  0  0  0  0  0  0  0  0  0
    6.4930   -3.1100   26.7110 N   0  0  0  0  0  0  0  0  0  0  0  0
    6.1240   -1.9370   27.5440 C   0  0  0  0  0  0  0  0  0  0  0  0
    6.0680   -0.3290   27.1360 C   0  0  0  0  0  0  0  0  0  0  0  0
    5.7130    0.0210   28.2000 N   0  0  0  0  0  0  0  0  0  0  0  0
    5.3200    0.9740   29.1690 C   0  0  0  0  0  0  0  0  0  0  0  0
    5.8670   -1.1610   28.1230 N   0  0  0  0  0  0  0  0  0  0  0  0
    6.3250   -1.1810   26.5880 C   0  0  0  0  0  0  0  0  0  0  0  0
    6.2090    0.3290   26.3740 C   0  0  0  0  0  0  0  0  0  0  0  0
    5.7490   -4.8250   23.5070 C   0  0  0  0  0  0  0  0  0  0  0  0
    6.4270   -5.3080   22.4150 C   0  0  0  0  0  0  0  0  0  0  0  0
  1  2  1  0
  2  3  2  0
  2  4  1  0
  4  5  1  0
  5  6  1  0
  6  7  1  0
  7  8  1  0
  8  9  2  0
  8 10  1  0
 10 11  1  0
 11 12  2  0
 12 13  1  0
 13 14  1  0
 13 15  1  0
 11 16  1  0
 15 16  2  0
 16 17  1  0
  7 18  1  0
  4 19  1  0
 18 19  1  0
M  END
