piperidine-amides-34160-covalent
     RDKit          3D

 26 28  0  0  0  0  0  0  0  0999 V2000
    7.0050   -3.3620   19.4160 C   0  0  0  0  0  0  0  0  0  0  0  0
    6.3600   -4.2520   20.3970 C   0  0  0  0  0  0  0  0  0  0  0  0
    5.4140   -4.9790   20.0140 O   0  0  0  0  0  0  0  0  0  0  0  0
    6.8030   -4.3340   21.7370 N   0  0  0  0  0  0  0  0  0  0  0  0
    6.5310   -5.5320   22.5160 C   0  0  0  0  0  0  0  0  0  0  0  0
    5.9680   -5.1280   23.9050 C   0  0  0  0  0  0  0  0  0  0  0  0
    5.7730   -3.6220   23.8730 C   0  0  0  0  0  0  0  0  0  0  0  0
    5.0150   -2.9910   25.0160 C   0  0  0  0  0  0  0  0  0  0  0  0
    4.2520   -2.0720   24.6960 O   0  0  0  0  0  0  0  0  0  0  0  0
    5.1070   -3.3440   26.3900 N   0  0  0  0  0  0  0  0  0  0  0  0
    6.3220   -3.9490   26.7160 C   0  0  0  0  0  0  0  0  0  0  0  0
    6.1580   -5.0320   27.7680 C   0  0  0  0  0  0  0  0  0  0  0  0
    6.6610   -6.2570   28.1360 C   0  0  0  0  0  0  0  0  0  0  0  0
    6.1580   -6.9630   29.2670 C   0  0  0  0  0  0  0  0  0  0  0  0
    5.1160   -6.5040   30.1130 C   0  0  0  0  0  0  0  0  0  0  0  0
    4.5090   -7.5080   31.6110 Br  0  0  0  0  0  0  0  0  0  0  0  0
    4.5760   -5.3150   29.8130 C   0  0  0  0  0  0  0  0  0  0  0  0
    5.1460   -4.6470   28.6550 C   0  0  0  0  0  0  0  0  0  0  0  0
    4.3080   -3.4750   28.7560 C   0  0  0  0  0  0  0  0  0  0  0  0
    4.9910   -2.6500   27.6860 C   0  0  2  0  0  0  0  0  0  0  0  0
    3.6600   -2.1580   28.0920 C   0  0  0  0  0  0  0  0  0  0  0  0
    2.6470   -2.3950   27.3760 O   0  0  0  0  0  0  0  0  0  0  0  0
    3.4220   -1.4070   29.2390 O   0  0  0  0  0  0  0  0  0  0  0  0
    2.5140   -1.8680   30.2010 C   0  0  0  0  0  0  0  0  0  0  0  0
    7.1450   -2.9800   23.7160 C   0  0  0  0  0  0  0  0  0  0  0  0
    7.6340   -3.2940   22.3250 C   0  0  0  0  0  0  0  0  0  0  0  0
  1  2  1  0
  2  3  2  0
  2  4  1  0
  4  5  1  0
  5  6  1  0
  6  7  1  0
  7  8  1  0
  8  9  2  0
  8 10  1  0
 10 11  1  0
 11 12  1  0
 12 13  2  0
 13 14  1  0
 14 15  2  0
 15 16  1  0
 15 17  1  0
 12 18  1  0
 17 18  2  0
 18 19  1  0
 10 20  1  0
 19 20  1  0
 20 21  1  6
 21 22  2  0
 21 23  1  0
 23 24  1  0
  7 25  1  0
  4 26  1  0
 25 26  1  0
M  END
