piperidine-amides-26848-covalent
     RDKit          3D

 25 27  0  0  0  0  0  0  0  0999 V2000
    7.0710   -3.3360   19.2910 C   0  0  0  0  0  0  0  0  0  0  0  0
    6.3940   -4.1590   20.2940 C   0  0  0  0  0  0  0  0  0  0  0  0
    5.3260   -4.7210   19.9410 O   0  0  0  0  0  0  0  0  0  0  0  0
    6.9580   -4.3410   21.5550 N   0  0  0  0  0  0  0  0  0  0  0  0
    6.6940   -5.5250   22.3240 C   0  0  0  0  0  0  0  0  0  0  0  0
    5.9340   -5.1090   23.5490 C   0  0  0  0  0  0  0  0  0  0  0  0
    6.6550   -4.0580   24.3620 C   0  0  0  0  0  0  0  0  0  0  0  0
    5.7440   -3.5250   25.3890 C   0  0  0  0  0  0  0  0  0  0  0  0
    4.6630   -3.0230   25.0070 O   0  0  0  0  0  0  0  0  0  0  0  0
    6.0080   -3.5530   26.7630 N   0  0  0  0  0  0  0  0  0  0  0  0
    4.9840   -3.9680   27.6740 C   0  0  0  0  0  0  0  0  0  0  0  0
    5.6830   -4.7720   28.7450 C   0  0  0  0  0  0  0  0  0  0  0  0
    6.9900   -5.1160   28.5750 C   0  0  0  0  0  0  0  0  0  0  0  0
    7.8720   -4.2170   28.0030 C   0  0  0  0  0  0  0  0  0  0  0  0
    7.3020   -3.1830   27.2480 C   0  0  2  0  0  0  0  0  0  0  0  0
    7.1650   -1.9000   27.8010 C   0  0  1  0  0  0  0  0  0  0  0  0
    6.3480   -1.8020   28.9110 C   0  0  0  0  0  0  0  0  0  0  0  0
    6.0440   -0.4030   29.3830 C   0  0  1  0  0  0  0  0  0  0  0  0
    5.4360   -0.7820   30.7300 C   0  0  0  0  0  0  0  0  0  0  0  0
    7.1530    0.4010   29.3600 C   0  0  0  0  0  0  0  0  0  0  0  0
    8.3270    0.0560   28.4680 C   0  0  0  0  0  0  0  0  0  0  0  0
    8.3590   -1.2290   27.9470 C   0  0  2  0  0  0  0  0  0  0  0  0
    9.0660   -1.1900   26.7580 O   0  0  0  0  0  0  0  0  0  0  0  0
    7.0470   -2.8900   23.4710 C   0  0  0  0  0  0  0  0  0  0  0  0
    7.7460   -3.3090   22.1990 C   0  0  0  0  0  0  0  0  0  0  0  0
  1  2  1  0
  2  3  2  0
  2  4  1  0
  4  5  1  0
  5  6  1  0
  6  7  1  0
  7  8  1  0
  8  9  2  0
  8 10  1  0
 10 11  1  0
 11 12  1  0
 12 13  1  0
 13 14  1  0
 10 15  1  0
 15 14  1  1
 15 16  1  0
 16 17  1  1
 17 18  1  0
 18 19  1  1
 18 20  1  0
 20 21  1  0
 16 22  1  0
 21 22  1  0
 22 23  1  6
  7 24  1  0
  4 25  1  0
 24 25  1  0
M  END
