piperidine-amides-7036-covalent
     RDKit          3D

 22 24  0  0  0  0  0  0  0  0999 V2000
    7.0920   -3.3160   19.3320 C   0  0  0  0  0  0  0  0  0  0  0  0
    6.4080   -4.1750   20.3090 C   0  0  0  0  0  0  0  0  0  0  0  0
    5.3850   -4.8140   19.9750 O   0  0  0  0  0  0  0  0  0  0  0  0
    6.9290   -4.3300   21.6050 N   0  0  0  0  0  0  0  0  0  0  0  0
    7.7280   -3.2830   22.2020 C   0  0  0  0  0  0  0  0  0  0  0  0
    6.8590   -2.6460   23.2850 C   0  0  0  0  0  0  0  0  0  0  0  0
    6.5050   -3.7650   24.2360 C   0  0  0  0  0  0  0  0  0  0  0  0
    5.5670   -3.2130   25.2510 C   0  0  0  0  0  0  0  0  0  0  0  0
    4.4320   -2.8750   24.8530 O   0  0  0  0  0  0  0  0  0  0  0  0
    5.9450   -3.0780   26.6300 N   0  0  0  0  0  0  0  0  0  0  0  0
    6.4580   -1.8200   27.1240 C   0  0  0  0  0  0  0  0  0  0  0  0
    6.4620   -0.9190   26.0910 C   0  0  0  0  0  0  0  0  0  0  0  0
    6.0430   -2.3810   26.2880 N   0  0  0  0  0  0  0  0  0  0  0  0
    6.2480   -2.8620   27.6500 N   0  0  0  0  0  0  0  0  0  0  0  0
    5.8810   -4.1670   27.9580 C   0  0  2  0  0  0  0  0  0  0  0  0
    5.7260   -5.2220   27.0750 C   0  0  0  0  0  0  0  0  0  0  0  0
    4.8140   -3.9480   28.7810 C   0  0  0  0  0  0  0  0  0  0  0  0
    3.7150   -3.5510   28.3110 C   0  0  0  0  0  0  0  0  0  0  0  0
    4.3340   -2.4490   29.1600 C   0  0  0  0  0  0  0  0  0  0  0  0
    6.8310   -1.7870   28.4660 C   0  0  0  0  0  0  0  0  0  0  0  0
    5.8570   -4.9410   23.6060 C   0  0  0  0  0  0  0  0  0  0  0  0
    6.5460   -5.4300   22.4100 C   0  0  0  0  0  0  0  0  0  0  0  0
  1  2  1  0
  2  3  2  0
  2  4  1  0
  4  5  1  0
  5  6  1  0
  6  7  1  0
  7  8  1  0
  8  9  2  0
  8 10  1  0
 10 11  1  0
 11 12  1  0
 12 13  2  0
 13 14  1  0
 14 15  1  0
 15 16  1  6
 15 17  1  0
 17 18  1  0
 17 19  1  0
 18 19  1  0
 11 20  2  0
 14 20  1  0
  7 21  1  0
  4 22  1  0
 21 22  1  0
M  END
