piperidine-amides-9320-covalent
     RDKit          3D

 19 20  0  0  0  0  0  0  0  0999 V2000
    7.0870   -3.2970   19.2240 C   0  0  0  0  0  0  0  0  0  0  0  0
    6.2660   -4.0020   20.2100 C   0  0  0  0  0  0  0  0  0  0  0  0
    5.2140   -4.5480   19.8610 O   0  0  0  0  0  0  0  0  0  0  0  0
    6.6730   -4.1050   21.5390 N   0  0  0  0  0  0  0  0  0  0  0  0
    7.5810   -3.1420   22.0990 C   0  0  0  0  0  0  0  0  0  0  0  0
    7.2750   -3.1170   23.5550 C   0  0  0  0  0  0  0  0  0  0  0  0
    5.9370   -3.6740   23.8920 C   0  0  0  0  0  0  0  0  0  0  0  0
    5.6280   -3.4860   25.3300 C   0  0  0  0  0  0  0  0  0  0  0  0
    4.4400   -3.2610   25.7040 O   0  0  0  0  0  0  0  0  0  0  0  0
    6.6280   -3.5220   26.3300 N   0  0  0  0  0  0  0  0  0  0  0  0
    6.5470   -4.4280   27.5070 C   0  0  2  0  0  0  0  0  0  0  0  0
    7.4090   -5.6200   27.2830 C   0  0  0  0  0  0  0  0  0  0  0  0
    5.1070   -4.9180   27.7150 C   0  0  2  0  0  0  0  0  0  0  0  0
    5.2120   -5.8480   28.8860 C   0  0  0  0  0  0  0  0  0  0  0  0
    4.6220   -7.1930   28.4720 C   0  0  0  0  0  0  0  0  0  0  0  0
    4.2930   -7.1500   27.0790 O   0  0  0  0  0  0  0  0  0  0  0  0
    4.5940   -5.8850   26.6400 C   0  0  0  0  0  0  0  0  0  0  0  0
    5.8990   -5.1300   23.4840 C   0  0  0  0  0  0  0  0  0  0  0  0
    6.4780   -5.3670   22.2250 C   0  0  0  0  0  0  0  0  0  0  0  0
  1  2  1  0
  2  3  2  0
  2  4  1  0
  4  5  1  0
  5  6  1  0
  6  7  1  0
  7  8  1  0
  8  9  2  0
  8 10  1  0
 10 11  1  0
 11 12  1  6
 11 13  1  0
 13 14  1  1
 14 15  1  0
 15 16  1  0
 13 17  1  0
 16 17  1  0
  7 18  1  0
  4 19  1  0
 18 19  1  0
M  END
