piperidine-amides-12334-covalent
     RDKit          3D

 24 25  0  0  0  0  0  0  0  0999 V2000
    7.0250   -3.3490   19.3390 C   0  0  0  0  0  0  0  0  0  0  0  0
    6.3400   -4.1670   20.3380 C   0  0  0  0  0  0  0  0  0  0  0  0
    5.3840   -4.8590   19.9890 O   0  0  0  0  0  0  0  0  0  0  0  0
    6.7960   -4.2110   21.7060 N   0  0  0  0  0  0  0  0  0  0  0  0
    7.7080   -3.2010   22.1930 C   0  0  0  0  0  0  0  0  0  0  0  0
    7.4760   -2.9900   23.6530 C   0  0  0  0  0  0  0  0  0  0  0  0
    6.1120   -3.5810   23.9320 C   0  0  0  0  0  0  0  0  0  0  0  0
    5.6180   -3.1870   25.2830 C   0  0  0  0  0  0  0  0  0  0  0  0
    4.4040   -3.1610   25.5590 O   0  0  0  0  0  0  0  0  0  0  0  0
    6.5560   -2.8420   26.2820 N   0  0  0  0  0  0  0  0  0  0  0  0
    6.4510   -1.5830   26.9920 C   0  0  0  0  0  0  0  0  0  0  0  0
    7.0040   -1.6310   28.3770 C   0  0  0  0  0  0  0  0  0  0  0  0
    6.9690   -0.5110   29.1630 C   0  0  0  0  0  0  0  0  0  0  0  0
    6.4090    0.6680   28.6440 C   0  0  0  0  0  0  0  0  0  0  0  0
    5.8820    0.7480   27.3550 C   0  0  0  0  0  0  0  0  0  0  0  0
    5.3190    2.0130   26.9020 C   0  0  0  0  0  0  0  0  0  0  0  0
    3.9480    2.1250   26.8190 C   0  0  0  0  0  0  0  0  0  0  0  0
    3.2530    2.3690   27.9020 O   0  0  0  0  0  0  0  0  0  0  0  0
    2.7350    1.8730   29.1330 C   0  0  0  0  0  0  0  0  0  0  0  0
    3.1150    0.5780   29.4890 C   0  0  0  0  0  0  0  0  0  0  0  0
    1.9740    2.4600   29.9450 O   0  0  0  0  0  0  0  0  0  0  0  0
    5.9060   -0.3780   26.5330 C   0  0  0  0  0  0  0  0  0  0  0  0
    6.0590   -5.0860   23.7170 C   0  0  0  0  0  0  0  0  0  0  0  0
    6.6390   -5.4180   22.4830 C   0  0  0  0  0  0  0  0  0  0  0  0
  1  2  1  0
  2  3  2  0
  2  4  1  0
  4  5  1  0
  5  6  1  0
  6  7  1  0
  7  8  1  0
  8  9  2  0
  8 10  1  0
 10 11  1  0
 11 12  2  0
 12 13  1  0
 13 14  2  0
 14 15  1  0
 15 16  1  0
 16 17  1  0
 17 18  1  0
 18 19  1  0
 19 20  1  0
 19 21  2  0
 11 22  1  0
 15 22  2  0
  7 23  1  0
  4 24  1  0
 23 24  1  0
M  END
