piperidine-amides-35652-covalent
     RDKit          3D

 39 41  0  0  0  0  0  0  0  0999 V2000
    7.0550   -3.3810   19.4070 C   0  0  0  0  0  0  0  0  0  0  0  0
    6.3650   -4.2480   20.3890 C   0  0  0  0  0  0  0  0  0  0  0  0
    5.3640   -4.8420   19.9830 O   0  0  0  0  0  0  0  0  0  0  0  0
    6.8700   -4.4210   21.6930 N   0  0  0  0  0  0  0  0  0  0  0  0
    6.5710   -5.5860   22.4650 C   0  0  0  0  0  0  0  0  0  0  0  0
    5.7630   -5.1850   23.6740 C   0  0  0  0  0  0  0  0  0  0  0  0
    6.2900   -3.8760   24.2920 C   0  0  0  0  0  0  0  0  0  0  0  0
    5.2730   -3.4000   25.2820 C   0  0  0  0  0  0  0  0  0  0  0  0
    4.3260   -2.7480   24.8460 O   0  0  0  0  0  0  0  0  0  0  0  0
    5.3460   -3.6430   26.6880 N   0  0  0  0  0  0  0  0  0  0  0  0
    6.5310   -3.2250   27.2860 C   0  0  0  0  0  0  0  0  0  0  0  0
    6.7990   -4.3030   28.3190 C   0  0  0  0  0  0  0  0  0  0  0  0
    5.8430   -4.5560   29.1940 C   0  0  0  0  0  0  0  0  0  0  0  0
    4.6470   -4.6700   28.5910 C   0  0  0  0  0  0  0  0  0  0  0  0
    4.3220   -3.6820   27.6770 C   0  0  2  0  0  0  0  0  0  0  0  0
    2.9300   -3.6030   27.0720 C   0  0  0  0  0  0  0  0  0  0  0  0
    2.0540   -3.3520   28.0690 N   0  0  0  0  0  0  0  0  0  0  0  0
    0.9880   -4.1820   28.0120 C   0  0  0  0  0  0  0  0  0  0  0  0
    1.0250   -5.3780   27.3580 O   0  0  0  0  0  0  0  0  0  0  0  0
   -0.3990   -4.0310   28.5840 C   0  0  0  0  0  0  0  0  0  0  0  0
   -1.5840   -3.7540   27.6810 C   0  0  0  0  0  0  0  0  0  0  0  0
   -3.0190   -3.5810   28.1040 C   0  0  0  0  0  0  0  0  0  0  0  0
   -4.0080   -3.3520   27.3720 O   0  0  0  0  0  0  0  0  0  0  0  0
   -5.3130   -3.6180   27.9240 C   0  0  0  0  0  0  0  0  0  0  0  0
   -6.2850   -3.6680   26.7930 C   0  0  0  0  0  0  0  0  0  0  0  0
   -7.5160   -3.5540   27.3380 F   0  0  0  0  0  0  0  0  0  0  0  0
   -6.0520   -2.6620   25.8720 F   0  0  0  0  0  0  0  0  0  0  0  0
   -6.1990   -4.9080   26.2020 F   0  0  0  0  0  0  0  0  0  0  0  0
   -3.2770   -3.7020   29.5930 C   0  0  0  0  0  0  0  0  0  0  0  0
   -2.2720   -3.9480   30.4650 C   0  0  0  0  0  0  0  0  0  0  0  0
   -0.8380   -4.1220   30.0580 C   0  0  0  0  0  0  0  0  0  0  0  0
    0.0770   -4.3680   31.0490 O   0  0  0  0  0  0  0  0  0  0  0  0
   -0.0630   -4.1820   32.4340 C   0  0  0  0  0  0  0  0  0  0  0  0
    0.8880   -4.8680   33.4080 C   0  0  0  0  0  0  0  0  0  0  0  0
    1.5420   -5.9590   32.9980 F   0  0  0  0  0  0  0  0  0  0  0  0
    0.1790   -5.1130   34.6000 F   0  0  0  0  0  0  0  0  0  0  0  0
    1.8600   -3.9080   33.7490 F   0  0  0  0  0  0  0  0  0  0  0  0
    6.6780   -2.7600   23.3440 C   0  0  0  0  0  0  0  0  0  0  0  0
    7.6380   -3.3530   22.3020 C   0  0  0  0  0  0  0  0  0  0  0  0
  1  2  1  0
  2  3  2  0
  2  4  1  0
  4  5  1  0
  5  6  1  0
  6  7  1  0
  7  8  1  0
  8  9  2  0
  8 10  1  0
 10 11  1  0
 11 12  1  0
 12 13  1  0
 13 14  1  0
 10 15  1  0
 14 15  1  0
 15 16  1  6
 16 17  1  0
 17 18  1  0
 18 19  2  0
 18 20  1  0
 20 21  2  0
 21 22  1  0
 22 23  1  0
 23 24  1  0
 24 25  1  0
 25 26  1  0
 25 27  1  0
 25 28  1  0
 22 29  2  0
 29 30  1  0
 20 31  1  0
 30 31  2  0
 31 32  1  0
 32 33  1  0
 33 34  1  0
 34 35  1  0
 34 36  1  0
 34 37  1  0
  7 38  1  0
  4 39  1  0
 38 39  1  0
M  END
