piperidine-amides-10081-covalent
     RDKit          3D

 25 26  0  0  0  0  0  0  0  0999 V2000
    7.1770   -3.2840   19.2150 C   0  0  0  0  0  0  0  0  0  0  0  0
    6.3850   -4.0020   20.2080 C   0  0  0  0  0  0  0  0  0  0  0  0
    5.2680   -4.4470   19.8450 O   0  0  0  0  0  0  0  0  0  0  0  0
    6.9090   -4.2250   21.4770 N   0  0  0  0  0  0  0  0  0  0  0  0
    6.5370   -5.3840   22.2380 C   0  0  0  0  0  0  0  0  0  0  0  0
    5.7250   -4.8970   23.3990 C   0  0  0  0  0  0  0  0  0  0  0  0
    6.3750   -3.7130   24.0810 C   0  0  0  0  0  0  0  0  0  0  0  0
    5.3780   -3.0580   24.9440 C   0  0  0  0  0  0  0  0  0  0  0  0
    4.3330   -2.6200   24.4220 O   0  0  0  0  0  0  0  0  0  0  0  0
    5.5430   -2.9120   26.3190 N   0  0  0  0  0  0  0  0  0  0  0  0
    5.7430   -4.0610   27.1460 C   0  0  2  0  0  0  0  0  0  0  0  0
    4.5450   -4.9700   27.1630 C   0  0  0  0  0  0  0  0  0  0  0  0
    6.0710   -3.6070   28.5030 C   0  0  0  0  0  0  0  0  0  0  0  0
    5.5880   -2.4030   28.9750 C   0  0  0  0  0  0  0  0  0  0  0  0
    4.6850   -1.8890   28.1750 O   0  0  0  0  0  0  0  0  0  0  0  0
    5.9670   -1.7630   30.1320 O   0  0  0  0  0  0  0  0  0  0  0  0
    7.1440   -0.9880   30.1770 C   0  0  0  0  0  0  0  0  0  0  0  0
    6.8360   -4.8060   26.9510 C   0  0  0  0  0  0  0  0  0  0  0  0
    7.4520   -5.3040   28.0240 C   0  0  0  0  0  0  0  0  0  0  0  0
    8.6530   -6.0990   27.9280 C   0  0  0  0  0  0  0  0  0  0  0  0
    9.1250   -6.3210   26.5090 C   0  0  0  0  0  0  0  0  0  0  0  0
    8.4630   -5.8040   25.3980 N   0  0  0  0  0  0  0  0  0  0  0  0
    7.2810   -5.0250   25.6780 C   0  0  0  0  0  0  0  0  0  0  0  0
    6.8640   -2.6710   23.1160 C   0  0  0  0  0  0  0  0  0  0  0  0
    7.7000   -3.2160   22.1800 C   0  0  0  0  0  0  0  0  0  0  0  0
  1  2  1  0
  2  3  2  0
  2  4  1  0
  4  5  1  0
  5  6  1  0
  6  7  1  0
  7  8  1  0
  8  9  2  0
  8 10  1  0
 11 10  1  0
 11 12  1  1
 11 13  1  0
 13 14  1  0
 14 15  2  0
 14 16  1  0
 16 17  1  0
 11 18  1  0
 18 19  2  0
 19 20  1  0
 20 21  2  0
 21 22  1  0
 18 23  1  0
 22 23  2  0
  7 24  1  0
  4 25  1  0
 24 25  1  0
M  END
