piperidine-amides-476-covalent
     RDKit          3D

 27 29  0  0  0  0  0  0  0  0999 V2000
    7.1620   -3.2800   19.3550 C   0  0  0  0  0  0  0  0  0  0  0  0
    6.4160   -4.0650   20.3180 C   0  0  0  0  0  0  0  0  0  0  0  0
    5.3610   -4.6580   19.9280 O   0  0  0  0  0  0  0  0  0  0  0  0
    6.8400   -4.2300   21.6540 N   0  0  0  0  0  0  0  0  0  0  0  0
    7.7860   -3.1880   22.1890 C   0  0  0  0  0  0  0  0  0  0  0  0
    7.3010   -2.8880   23.6710 C   0  0  0  0  0  0  0  0  0  0  0  0
    6.0670   -3.7090   23.8680 C   0  0  0  0  0  0  0  0  0  0  0  0
    5.0960   -3.1830   25.0040 C   0  0  0  0  0  0  0  0  0  0  0  0
    3.9650   -3.0840   24.5650 O   0  0  0  0  0  0  0  0  0  0  0  0
    5.7150   -3.0000   26.0860 N   0  0  0  0  0  0  0  0  0  0  0  0
    6.2310   -2.7740   27.3060 C   0  0  0  0  0  0  0  0  0  0  0  0
    5.9020   -2.3780   28.5570 C   0  0  0  0  0  0  0  0  0  0  0  0
    5.4090   -3.5140   29.2620 C   0  0  0  0  0  0  0  0  0  0  0  0
    6.0850   -4.8330   29.1930 C   0  0  0  0  0  0  0  0  0  0  0  0
    5.4140   -5.9600   29.9950 C   0  0  0  0  0  0  0  0  0  0  0  0
    4.2480   -5.6910   30.7200 C   0  0  0  0  0  0  0  0  0  0  0  0
    3.5840   -7.2340   31.6440 Br  0  0  0  0  0  0  0  0  0  0  0  0
    3.4580   -4.5570   30.9270 C   0  0  0  0  0  0  0  0  0  0  0  0
    4.1610   -3.4710   30.1130 C   0  0  0  0  0  0  0  0  0  0  0  0
    4.4880   -1.8480   28.5320 C   0  0  0  0  0  0  0  0  0  0  0  0
    4.4450   -0.4900   28.3480 C   0  0  0  0  0  0  0  0  0  0  0  0
    4.5410    0.3450   29.4290 C   0  0  0  0  0  0  0  0  0  0  0  0
    5.7100    0.3840   30.1190 C   0  0  0  0  0  0  0  0  0  0  0  0
    6.3090   -0.8310   30.3550 C   0  0  0  0  0  0  0  0  0  0  0  0
    6.7380   -1.4770   29.1930 C   0  0  0  0  0  0  0  0  0  0  0  0
    6.2090   -5.1720   23.7300 C   0  0  0  0  0  0  0  0  0  0  0  0
    6.7230   -5.4730   22.3690 C   0  0  0  0  0  0  0  0  0  0  0  0
  1  2  1  0
  2  3  2  0
  2  4  1  0
  4  5  1  0
  5  6  1  0
  6  7  1  0
  7  8  1  0
  8  9  2  0
  8 10  1  0
 10 11  1  0
 12 11  1  0
 12 13  1  0
 13 14  2  0
 14 15  1  0
 15 16  2  0
 16 17  1  0
 16 18  1  0
 13 19  1  0
 18 19  2  0
 12 20  1  0
 20 21  1  0
 21 22  1  0
 22 23  1  0
 23 24  1  0
 12 25  1  0
 24 25  1  0
  7 26  1  0
  4 27  1  0
 26 27  1  0
M  END
