piperidine-amides-7095-covalent
     RDKit          3D

 22 23  0  0  0  0  0  0  0  0999 V2000
    7.0610   -3.3220   19.3440 C   0  0  0  0  0  0  0  0  0  0  0  0
    6.3840   -4.1800   20.3280 C   0  0  0  0  0  0  0  0  0  0  0  0
    5.4000   -4.8750   19.9870 O   0  0  0  0  0  0  0  0  0  0  0  0
    6.8660   -4.2530   21.6410 N   0  0  0  0  0  0  0  0  0  0  0  0
    7.7040   -3.1700   22.1370 C   0  0  0  0  0  0  0  0  0  0  0  0
    7.4480   -2.9880   23.6340 C   0  0  0  0  0  0  0  0  0  0  0  0
    6.0700   -3.5400   23.8890 C   0  0  0  0  0  0  0  0  0  0  0  0
    5.6590   -3.1800   25.2500 C   0  0  0  0  0  0  0  0  0  0  0  0
    4.4630   -3.3300   25.5830 O   0  0  0  0  0  0  0  0  0  0  0  0
    6.6370   -2.6720   26.1290 N   0  0  0  0  0  0  0  0  0  0  0  0
    6.4480   -1.4310   26.8220 C   0  0  0  0  0  0  0  0  0  0  0  0
    5.7680   -0.1870   26.2630 C   0  0  0  0  0  0  0  0  0  0  0  0
    5.6280    0.9960   27.0190 C   0  0  0  0  0  0  0  0  0  0  0  0
    4.9960    2.0580   26.4160 C   0  0  0  0  0  0  0  0  0  0  0  0
    3.8190    2.5180   27.0670 N   0  0  0  0  0  0  0  0  0  0  0  0
    5.4790    2.6310   25.2490 O   0  0  0  0  0  0  0  0  0  0  0  0
    6.1140    1.0730   28.3210 C   0  0  0  0  0  0  0  0  0  0  0  0
    6.7390    0.0240   28.9180 C   0  0  0  0  0  0  0  0  0  0  0  0
    6.8960   -1.2140   28.1560 C   0  0  0  0  0  0  0  0  0  0  0  0
    7.5660   -1.7520   29.3500 C   0  0  0  0  0  0  0  0  0  0  0  0
    5.9860   -4.9980   23.7050 C   0  0  0  0  0  0  0  0  0  0  0  0
    6.6010   -5.4010   22.4470 C   0  0  0  0  0  0  0  0  0  0  0  0
  1  2  1  0
  2  3  2  0
  2  4  1  0
  4  5  1  0
  5  6  1  0
  6  7  1  0
  7  8  1  0
  8  9  2  0
  8 10  1  0
 10 11  1  0
 11 12  2  0
 12 13  1  0
 13 14  1  0
 14 15  1  0
 14 16  2  0
 13 17  2  0
 17 18  1  0
 11 19  1  0
 18 19  2  0
 19 20  1  0
  7 21  1  0
  4 22  1  0
 21 22  1  0
M  END
