piperidine-amides-23967-covalent
     RDKit          3D

 24 25  0  0  0  0  0  0  0  0999 V2000
    7.0910   -3.3220   19.3300 C   0  0  0  0  0  0  0  0  0  0  0  0
    6.3920   -4.1250   20.3490 C   0  0  0  0  0  0  0  0  0  0  0  0
    5.3780   -4.7620   19.9660 O   0  0  0  0  0  0  0  0  0  0  0  0
    6.8680   -4.2160   21.6860 N   0  0  0  0  0  0  0  0  0  0  0  0
    7.6650   -3.1560   22.2220 C   0  0  0  0  0  0  0  0  0  0  0  0
    7.3950   -2.8750   23.6210 C   0  0  0  0  0  0  0  0  0  0  0  0
    6.2020   -3.5820   24.1110 C   0  0  0  0  0  0  0  0  0  0  0  0
    5.7690   -3.2010   25.5060 C   0  0  0  0  0  0  0  0  0  0  0  0
    4.5460   -3.2200   25.7490 O   0  0  0  0  0  0  0  0  0  0  0  0
    6.6510   -2.8070   26.5540 N   0  0  0  0  0  0  0  0  0  0  0  0
    7.2750   -3.6950   27.4710 C   0  0  0  0  0  0  0  0  0  0  0  0
    7.3870   -5.1220   27.2040 C   0  0  0  0  0  0  0  0  0  0  0  0
    6.6850   -5.9240   27.8930 O   0  0  0  0  0  0  0  0  0  0  0  0
    8.2170   -5.6480   26.2410 O   0  0  0  0  0  0  0  0  0  0  0  0
    9.5360   -6.0200   26.5690 C   0  0  0  0  0  0  0  0  0  0  0  0
    6.4670   -1.4600   27.0680 C   0  0  0  0  0  0  0  0  0  0  0  0
    5.7650   -0.5500   26.1090 C   0  0  0  0  0  0  0  0  0  0  0  0
    5.6330    0.7690   26.7600 C   0  0  0  0  0  0  0  0  0  0  0  0
    6.2420    0.7990   28.1780 C   0  0  0  0  0  0  0  0  0  0  0  0
    6.9670   -0.0770   29.2020 C   0  0  0  0  0  0  0  0  0  0  0  0
    7.6350   -1.2210   29.9040 C   0  0  0  0  0  0  0  0  0  0  0  0
    6.9590   -1.2390   28.3520 N   0  0  0  0  0  0  0  0  0  0  0  0
    6.3710   -5.1030   23.9380 C   0  0  0  0  0  0  0  0  0  0  0  0
    6.4470   -5.3980   22.4670 C   0  0  0  0  0  0  0  0  0  0  0  0
  1  2  1  0
  2  3  2  0
  2  4  1  0
  4  5  1  0
  5  6  1  0
  6  7  1  0
  7  8  1  0
  8  9  2  0
  8 10  1  0
 10 11  1  0
 11 12  1  0
 12 13  2  0
 12 14  1  0
 14 15  1  0
 10 16  1  0
 16 17  2  0
 17 18  1  0
 18 19  2  0
 19 20  1  0
 20 21  1  0
 16 22  1  0
 20 22  2  0
  7 23  1  0
  4 24  1  0
 23 24  1  0
M  END
