piperidine-amides-25297-covalent
     RDKit          3D

 24 25  0  0  0  0  0  0  0  0999 V2000
    7.0530   -3.3950   19.4220 C   0  0  0  0  0  0  0  0  0  0  0  0
    6.3780   -4.2660   20.4130 C   0  0  0  0  0  0  0  0  0  0  0  0
    5.4010   -4.8980   20.0020 O   0  0  0  0  0  0  0  0  0  0  0  0
    6.8750   -4.3870   21.7250 N   0  0  0  0  0  0  0  0  0  0  0  0
    6.6630   -5.5930   22.5020 C   0  0  0  0  0  0  0  0  0  0  0  0
    6.0180   -5.2590   23.8310 C   0  0  0  0  0  0  0  0  0  0  0  0
    5.9340   -3.7470   23.9560 C   0  0  0  0  0  0  0  0  0  0  0  0
    5.2290   -3.3220   25.2030 C   0  0  0  0  0  0  0  0  0  0  0  0
    4.3770   -2.4390   25.0960 O   0  0  0  0  0  0  0  0  0  0  0  0
    5.4560   -3.8450   26.4940 N   0  0  0  0  0  0  0  0  0  0  0  0
    6.4940   -3.2510   27.1930 C   0  0  0  0  0  0  0  0  0  0  0  0
    6.6510   -4.2310   28.3320 C   0  0  2  0  0  0  0  0  0  0  0  0
    6.6190   -5.5140   27.8200 O   0  0  0  0  0  0  0  0  0  0  0  0
    5.7090   -4.2360   29.2610 C   0  0  1  0  0  0  0  0  0  0  0  0
    5.5930   -3.0160   29.8650 O   0  0  0  0  0  0  0  0  0  0  0  0
    4.6100   -4.7980   28.7090 C   0  0  1  0  0  0  0  0  0  0  0  0
    3.4240   -4.6180   29.3770 C   0  0  0  0  0  0  0  0  0  0  0  0
    2.6540   -3.4950   29.0630 O   0  0  0  0  0  0  0  0  0  0  0  0
    2.9390   -5.4770   30.3430 O   0  0  0  0  0  0  0  0  0  0  0  0
    1.5750   -5.8290   30.4440 C   0  0  0  0  0  0  0  0  0  0  0  0
    1.2370   -6.3210   31.8140 C   0  0  0  0  0  0  0  0  0  0  0  0
    4.3640   -3.9450   27.4300 C   0  0  0  0  0  0  0  0  0  0  0  0
    7.1940   -3.0390   23.6690 C   0  0  0  0  0  0  0  0  0  0  0  0
    7.6770   -3.3190   22.2880 C   0  0  0  0  0  0  0  0  0  0  0  0
  1  2  1  0
  2  3  2  0
  2  4  1  0
  4  5  1  0
  5  6  1  0
  6  7  1  0
  7  8  1  0
  8  9  2  0
  8 10  1  0
 10 11  1  0
 11 12  1  0
 12 13  1  6
 12 14  1  0
 14 15  1  6
 14 16  1  0
 16 17  1  1
 17 18  2  0
 17 19  1  0
 19 20  1  0
 20 21  1  0
 10 22  1  0
 16 22  1  0
  7 23  1  0
  4 24  1  0
 23 24  1  0
M  END
