piperidine-amides-884-covalent
     RDKit          3D

 24 26  0  0  0  0  0  0  0  0999 V2000
    7.1470   -3.3240   19.3810 C   0  0  0  0  0  0  0  0  0  0  0  0
    6.4390   -4.1380   20.3400 C   0  0  0  0  0  0  0  0  0  0  0  0
    5.4030   -4.7750   19.9670 O   0  0  0  0  0  0  0  0  0  0  0  0
    6.9030   -4.2690   21.6610 N   0  0  0  0  0  0  0  0  0  0  0  0
    7.7460   -3.1980   22.2270 C   0  0  0  0  0  0  0  0  0  0  0  0
    6.7420   -2.6460   23.2970 C   0  0  0  0  0  0  0  0  0  0  0  0
    6.5090   -3.8110   24.2240 C   0  0  0  0  0  0  0  0  0  0  0  0
    5.5350   -3.4400   25.4240 C   0  0  0  0  0  0  0  0  0  0  0  0
    4.4740   -4.0470   25.2950 O   0  0  0  0  0  0  0  0  0  0  0  0
    6.0440   -2.6010   26.2360 N   0  0  0  0  0  0  0  0  0  0  0  0
    6.3480   -1.6670   27.1760 C   0  0  0  0  0  0  0  0  0  0  0  0
    6.9710   -1.6560   28.4020 C   0  0  0  0  0  0  0  0  0  0  0  0
    7.1220   -0.5090   29.1840 C   0  0  0  0  0  0  0  0  0  0  0  0
    6.6280    0.7940   28.7650 C   0  0  0  0  0  0  0  0  0  0  0  0
    6.9750    1.7700   29.8680 C   0  0  0  0  0  0  0  0  0  0  0  0
    6.4130    2.9000   29.2350 C   0  0  0  0  0  0  0  0  0  0  0  0
    5.7610    2.9480   27.9670 C   0  0  0  0  0  0  0  0  0  0  0  0
    5.3460    4.2120   27.6790 O   0  0  0  0  0  0  0  0  0  0  0  0
    4.0240    4.3580   27.3330 C   0  0  0  0  0  0  0  0  0  0  0  0
    5.5370    1.9330   27.0920 N   0  0  0  0  0  0  0  0  0  0  0  0
    5.9860    0.7290   27.4660 C   0  0  0  0  0  0  0  0  0  0  0  0
    5.7780   -0.3340   26.6050 C   0  0  0  0  0  0  0  0  0  0  0  0
    6.0170   -5.1040   23.5740 C   0  0  0  0  0  0  0  0  0  0  0  0
    6.6520   -5.4510   22.4280 C   0  0  0  0  0  0  0  0  0  0  0  0
  1  2  1  0
  2  3  2  0
  2  4  1  0
  4  5  1  0
  5  6  1  0
  6  7  1  0
  7  8  1  0
  8  9  2  0
  8 10  1  0
 10 11  1  0
 11 12  2  0
 12 13  1  0
 13 14  2  0
 14 15  1  0
 15 16  2  0
 16 17  1  0
 17 18  1  0
 18 19  1  0
 17 20  2  0
 14 21  1  0
 20 21  1  0
 11 22  1  0
 21 22  2  0
  7 23  1  0
  4 24  1  0
 23 24  1  0
M  END
