piperidine-amides-15-covalent
     RDKit          3D

 21 21  0  0  0  0  0  0  0  0999 V2000
    7.0880   -3.3080   19.2290 C   0  0  0  0  0  0  0  0  0  0  0  0
    6.3340   -3.9990   20.2600 C   0  0  0  0  0  0  0  0  0  0  0  0
    5.2570   -4.5640   19.8930 O   0  0  0  0  0  0  0  0  0  0  0  0
    6.7230   -4.1460   21.6150 N   0  0  0  0  0  0  0  0  0  0  0  0
    7.8300   -3.2760   22.1160 C   0  0  0  0  0  0  0  0  0  0  0  0
    7.1810   -2.5750   23.3630 C   0  0  0  0  0  0  0  0  0  0  0  0
    6.2620   -3.5980   23.9710 C   0  0  0  0  0  0  0  0  0  0  0  0
    5.6740   -2.9750   25.3140 C   0  0  0  0  0  0  0  0  0  0  0  0
    5.1510   -1.8990   25.0830 O   0  0  0  0  0  0  0  0  0  0  0  0
    5.8720   -3.7570   26.2990 N   0  0  0  0  0  0  0  0  0  0  0  0
    5.9470   -4.5870   27.3710 C   0  0  2  0  0  0  0  0  0  0  0  0
    6.5620   -4.6540   28.5880 C   0  0  0  0  0  0  0  0  0  0  0  0
    6.8630   -5.9910   28.9510 C   0  0  0  0  0  0  0  0  0  0  0  0
    5.8410   -6.7970   29.6560 C   0  0  0  0  0  0  0  0  0  0  0  0
    5.8480   -6.0140   26.9210 C   0  0  0  0  0  0  0  0  0  0  0  0
    4.5430   -6.4920   26.6750 C   0  0  0  0  0  0  0  0  0  0  0  0
    3.5700   -6.1230   27.3690 O   0  0  0  0  0  0  0  0  0  0  0  0
    4.2840   -7.4020   25.6240 O   0  0  0  0  0  0  0  0  0  0  0  0
    3.9880   -7.0800   24.3140 C   0  0  0  0  0  0  0  0  0  0  0  0
    6.6350   -4.9770   23.8470 C   0  0  0  0  0  0  0  0  0  0  0  0
    6.4680   -5.3290   22.3350 C   0  0  0  0  0  0  0  0  0  0  0  0
  1  2  1  0
  2  3  2  0
  2  4  1  0
  4  5  1  0
  5  6  1  0
  6  7  1  0
  7  8  1  0
  8  9  2  0
  8 10  1  0
 10 11  1  0
 11 12  1  6
 12 13  1  0
 13 14  3  0
 11 15  1  0
 15 16  1  0
 16 17  2  0
 16 18  1  0
 18 19  1  0
  7 20  1  0
  4 21  1  0
 20 21  1  0
M  END
