piperidine-amides-14423-covalent
     RDKit          3D

 24 26  0  0  0  0  0  0  0  0999 V2000
    7.0370   -3.3600   19.3850 C   0  0  0  0  0  0  0  0  0  0  0  0
    6.3540   -4.1850   20.3790 C   0  0  0  0  0  0  0  0  0  0  0  0
    5.4000   -4.8860   19.9890 O   0  0  0  0  0  0  0  0  0  0  0  0
    6.7900   -4.2090   21.7330 N   0  0  0  0  0  0  0  0  0  0  0  0
    7.6830   -3.1790   22.2030 C   0  0  0  0  0  0  0  0  0  0  0  0
    7.4720   -3.0010   23.6700 C   0  0  0  0  0  0  0  0  0  0  0  0
    6.0830   -3.5330   23.9000 C   0  0  0  0  0  0  0  0  0  0  0  0
    5.5500   -3.1880   25.2630 C   0  0  0  0  0  0  0  0  0  0  0  0
    4.3260   -3.1160   25.3450 O   0  0  0  0  0  0  0  0  0  0  0  0
    6.4230   -2.9770   26.3290 N   0  0  0  0  0  0  0  0  0  0  0  0
    6.6840   -1.7010   26.9310 C   0  0  0  0  0  0  0  0  0  0  0  0
    6.6410   -1.7310   28.3350 C   0  0  0  0  0  0  0  0  0  0  0  0
    6.6810   -0.5290   28.9950 C   0  0  0  0  0  0  0  0  0  0  0  0
    5.5090    0.2810   28.8830 N   0  0  0  0  0  0  0  0  0  0  0  0
    5.4890    1.3340   29.8210 C   0  0  2  0  0  0  0  0  0  0  0  0
    5.5300    0.8590   31.2160 C   0  0  0  0  0  0  0  0  0  0  0  0
    4.4080    1.6150   31.9340 C   0  0  0  0  0  0  0  0  0  0  0  0
    3.8660    2.3530   31.0430 O   0  0  0  0  0  0  0  0  0  0  0  0
    4.4390    2.2540   29.7760 C   0  0  0  0  0  0  0  0  0  0  0  0
    3.9440    3.0040   28.7300 O   0  0  0  0  0  0  0  0  0  0  0  0
    5.3760    0.4820   27.4560 C   0  0  0  0  0  0  0  0  0  0  0  0
    5.7400   -0.6550   26.4710 C   0  0  0  0  0  0  0  0  0  0  0  0
    6.0920   -5.0480   23.7600 C   0  0  0  0  0  0  0  0  0  0  0  0
    6.6330   -5.4040   22.5310 C   0  0  0  0  0  0  0  0  0  0  0  0
  1  2  1  0
  2  3  2  0
  2  4  1  0
  4  5  1  0
  5  6  1  0
  6  7  1  0
  7  8  1  0
  8  9  2  0
  8 10  1  0
 10 11  1  0
 11 12  1  0
 12 13  1  0
 13 14  1  0
 15 14  1  6
 15 16  1  0
 16 17  1  0
 17 18  1  0
 15 19  1  0
 18 19  1  0
 19 20  2  0
 14 21  1  0
 11 22  1  0
 21 22  1  0
  7 23  1  0
  4 24  1  0
 23 24  1  0
M  END
