piperidine-amides-32888-covalent
     RDKit          3D

 28 29  0  0  0  0  0  0  0  0999 V2000
    7.0470   -3.1860   19.0780 C   0  0  0  0  0  0  0  0  0  0  0  0
    6.0960   -3.7900   20.0560 C   0  0  0  0  0  0  0  0  0  0  0  0
    5.0460   -4.3080   19.6940 O   0  0  0  0  0  0  0  0  0  0  0  0
    6.4090   -3.7940   21.4000 N   0  0  0  0  0  0  0  0  0  0  0  0
    7.1160   -2.6940   22.0130 C   0  0  0  0  0  0  0  0  0  0  0  0
    6.3010   -2.1960   23.2110 C   0  0  0  0  0  0  0  0  0  0  0  0
    6.0870   -3.3720   24.0970 C   0  0  0  0  0  0  0  0  0  0  0  0
    5.4350   -3.0390   25.3760 C   0  0  0  0  0  0  0  0  0  0  0  0
    4.1980   -3.0230   25.3810 O   0  0  0  0  0  0  0  0  0  0  0  0
    6.2170   -2.7590   26.5070 N   0  0  0  0  0  0  0  0  0  0  0  0
    7.0550   -1.6150   26.6150 C   0  0  0  0  0  0  0  0  0  0  0  0
    5.9880   -3.4860   27.7070 C   0  0  0  0  0  0  0  0  0  0  0  0
    6.9200   -4.4440   28.0780 C   0  0  1  0  0  0  0  0  0  0  0  0
    6.5890   -5.7260   27.6730 O   0  0  0  0  0  0  0  0  0  0  0  0
    8.1740   -4.0700   27.7460 C   0  0  0  0  0  0  0  0  0  0  0  0
    8.7430   -4.3810   26.5370 O   0  0  0  0  0  0  0  0  0  0  0  0
    8.8530   -3.6220   25.3090 C   0  0  0  0  0  0  0  0  0  0  0  0
    9.4770   -2.2290   25.1790 C   0  0  0  0  0  0  0  0  0  0  0  0
    9.5240   -1.6230   23.7960 C   0  0  0  0  0  0  0  0  0  0  0  0
    9.0170   -2.3230   22.7490 C   0  0  0  0  0  0  0  0  0  0  0  0
    8.3780   -3.6600   22.7150 C   0  0  0  0  0  0  0  0  0  0  0  0
    8.3320   -4.2750   24.1120 C   0  0  0  0  0  0  0  0  0  0  0  0
    7.8370   -5.4780   24.4820 C   0  0  0  0  0  0  0  0  0  0  0  0
    8.6130   -6.0950   25.3890 F   0  0  0  0  0  0  0  0  0  0  0  0
    6.6670   -5.4580   25.1290 F   0  0  0  0  0  0  0  0  0  0  0  0
    7.7300   -6.3320   23.3960 F   0  0  0  0  0  0  0  0  0  0  0  0
    5.3220   -4.4770   23.4350 C   0  0  0  0  0  0  0  0  0  0  0  0
    6.0480   -4.9500   22.2000 C   0  0  0  0  0  0  0  0  0  0  0  0
  1  2  1  0
  2  3  2  0
  2  4  1  0
  4  5  1  0
  5  6  1  0
  6  7  1  0
  7  8  1  0
  8  9  2  0
  8 10  1  0
 10 11  1  0
 10 12  1  0
 12 13  1  0
 13 14  1  6
 13 15  1  0
 15 16  1  0
 16 17  1  0
 17 18  2  0
 18 19  1  0
 19 20  2  0
 20 21  1  0
 17 22  1  0
 21 22  2  0
 22 23  1  0
 23 24  1  0
 23 25  1  0
 23 26  1  0
  7 27  1  0
  4 28  1  0
 27 28  1  0
M  END
