piperidine-amides-10-covalent
     RDKit          3D

 20 22  0  0  0  0  0  0  0  0999 V2000
    7.0660   -3.3870   19.3210 C   0  0  0  0  0  0  0  0  0  0  0  0
    6.4060   -4.1640   20.3420 C   0  0  0  0  0  0  0  0  0  0  0  0
    5.3720   -4.8080   19.9840 O   0  0  0  0  0  0  0  0  0  0  0  0
    6.8820   -4.2900   21.6720 N   0  0  0  0  0  0  0  0  0  0  0  0
    7.6620   -3.1810   22.2610 C   0  0  0  0  0  0  0  0  0  0  0  0
    6.6460   -2.6890   23.3610 C   0  0  0  0  0  0  0  0  0  0  0  0
    6.3010   -3.8980   24.2060 C   0  0  0  0  0  0  0  0  0  0  0  0
    5.4400   -3.4310   25.4730 C   0  0  0  0  0  0  0  0  0  0  0  0
    4.3540   -4.0020   25.4340 O   0  0  0  0  0  0  0  0  0  0  0  0
    6.0280   -2.5820   26.2280 N   0  0  0  0  0  0  0  0  0  0  0  0
    6.4750   -1.6650   27.1430 C   0  0  2  0  0  0  0  0  0  0  0  0
    6.7620   -1.6610   28.4590 C   0  0  0  0  0  0  0  0  0  0  0  0
    6.8260   -0.3510   28.8360 C   0  0  0  0  0  0  0  0  0  0  0  0
    5.5700    0.3390   28.5870 C   0  0  1  0  0  0  0  0  0  0  0  0
    5.8580    0.8550   27.2230 C   0  0  0  0  0  0  0  0  0  0  0  0
    5.4890   -0.4450   27.1210 C   0  0  1  0  0  0  0  0  0  0  0  0
    4.2350   -0.6880   26.5450 C   0  0  0  0  0  0  0  0  0  0  0  0
    3.3690    0.2070   27.0990 O   0  0  0  0  0  0  0  0  0  0  0  0
    5.7870   -5.0860   23.5570 C   0  0  0  0  0  0  0  0  0  0  0  0
    6.8020   -5.4540   22.4400 C   0  0  0  0  0  0  0  0  0  0  0  0
  1  2  1  0
  2  3  2  0
  2  4  1  0
  4  5  1  0
  5  6  1  0
  6  7  1  0
  7  8  1  0
  8  9  2  0
  8 10  1  0
 11 10  1  1
 11 12  1  0
 12 13  1  0
 14 13  1  1
 14 15  1  0
 11 16  1  0
 14 16  1  0
 15 16  1  0
 16 17  1  6
 17 18  1  0
  7 19  1  0
  4 20  1  0
 19 20  1  0
M  END
