piperidine-amides-28083-covalent
     RDKit          3D

 26 27  0  0  0  0  0  0  0  0999 V2000
    7.1420   -3.3000   19.2720 C   0  0  0  0  0  0  0  0  0  0  0  0
    6.3940   -4.0620   20.2950 C   0  0  0  0  0  0  0  0  0  0  0  0
    5.3260   -4.5900   19.9120 O   0  0  0  0  0  0  0  0  0  0  0  0
    6.8970   -4.2220   21.5990 N   0  0  0  0  0  0  0  0  0  0  0  0
    7.6940   -3.1890   22.1970 C   0  0  0  0  0  0  0  0  0  0  0  0
    7.2720   -2.8600   23.5540 C   0  0  0  0  0  0  0  0  0  0  0  0
    6.0420   -3.5750   23.9330 C   0  0  0  0  0  0  0  0  0  0  0  0
    5.5410   -3.1880   25.2770 C   0  0  0  0  0  0  0  0  0  0  0  0
    4.3090   -3.0910   25.4090 O   0  0  0  0  0  0  0  0  0  0  0  0
    6.3660   -2.9320   26.3860 N   0  0  0  0  0  0  0  0  0  0  0  0
    6.8720   -1.5600   26.6190 C   0  0  0  0  0  0  0  0  0  0  0  0
    6.0630   -3.7130   27.5200 C   0  0  0  0  0  0  0  0  0  0  0  0
    5.6330   -5.0910   27.3100 C   0  0  0  0  0  0  0  0  0  0  0  0
    5.3020   -5.4770   26.1400 O   0  0  0  0  0  0  0  0  0  0  0  0
    5.6450   -5.8440   28.5190 N   0  0  0  0  0  0  0  0  0  0  0  0
    6.8090   -6.1470   29.2040 C   0  0  0  0  0  0  0  0  0  0  0  0
    4.4540   -6.5380   28.9540 C   0  0  1  0  0  0  0  0  0  0  0  0
    4.2680   -7.5030   28.0280 C   0  0  0  0  0  0  0  0  0  0  0  0
    4.4830   -6.7570   30.4360 C   0  0  0  0  0  0  0  0  0  0  0  0
    3.4160   -6.1590   30.9860 C   0  0  0  0  0  0  0  0  0  0  0  0
    3.1550   -6.1770   32.3420 C   0  0  0  0  0  0  0  0  0  0  0  0
    4.0600   -6.8770   33.2930 C   0  0  0  0  0  0  0  0  0  0  0  0
    5.2840   -7.5660   32.6840 C   0  0  0  0  0  0  0  0  0  0  0  0
    5.4190   -7.4470   31.1790 C   0  0  0  0  0  0  0  0  0  0  0  0
    6.0600   -5.0330   23.7170 C   0  0  0  0  0  0  0  0  0  0  0  0
    6.6520   -5.4250   22.3770 C   0  0  0  0  0  0  0  0  0  0  0  0
  1  2  1  0
  2  3  2  0
  2  4  1  0
  4  5  1  0
  5  6  1  0
  6  7  1  0
  7  8  1  0
  8  9  2  0
  8 10  1  0
 10 11  1  0
 10 12  1  0
 12 13  1  0
 13 14  2  0
 13 15  1  0
 15 16  1  0
 15 17  1  0
 17 18  1  6
 17 19  1  0
 19 20  2  0
 20 21  1  0
 21 22  2  0
 22 23  1  0
 19 24  1  0
 23 24  2  0
  7 25  1  0
  4 26  1  0
 25 26  1  0
M  END
