piperidine-amides-14537-covalent
     RDKit          3D

 23 25  0  0  0  0  0  0  0  0999 V2000
    7.1070   -3.3630   19.3390 C   0  0  0  0  0  0  0  0  0  0  0  0
    6.4080   -4.1870   20.3120 C   0  0  0  0  0  0  0  0  0  0  0  0
    5.3530   -4.7390   19.9610 O   0  0  0  0  0  0  0  0  0  0  0  0
    6.9800   -4.3920   21.5940 N   0  0  0  0  0  0  0  0  0  0  0  0
    7.6350   -3.2870   22.2250 C   0  0  0  0  0  0  0  0  0  0  0  0
    6.7230   -2.7520   23.2820 C   0  0  0  0  0  0  0  0  0  0  0  0
    6.4770   -3.8770   24.2630 C   0  0  0  0  0  0  0  0  0  0  0  0
    5.6460   -3.3560   25.3960 C   0  0  0  0  0  0  0  0  0  0  0  0
    4.4380   -3.2730   25.1840 O   0  0  0  0  0  0  0  0  0  0  0  0
    6.2660   -2.9990   26.5860 N   0  0  0  0  0  0  0  0  0  0  0  0
    6.7970   -1.6880   26.7770 C   0  0  2  0  0  0  0  0  0  0  0  0
    6.5730   -1.0470   27.8350 C   0  0  0  0  0  0  0  0  0  0  0  0
    5.6890   -0.5990   26.8200 C   0  0  2  0  0  0  0  0  0  0  0  0
    4.3110   -0.7670   26.8310 C   0  0  0  0  0  0  0  0  0  0  0  0
    6.0060    0.8470   26.3260 C   0  0  0  0  0  0  0  0  0  0  0  0
    6.2950    1.0960   24.8140 C   0  0  0  0  0  0  0  0  0  0  0  0
    6.6090    2.4500   24.2840 C   0  0  0  0  0  0  0  0  0  0  0  0
    6.6240    3.5350   25.3110 C   0  0  0  0  0  0  0  0  0  0  0  0
    6.3290    3.2170   26.7830 C   0  0  0  0  0  0  0  0  0  0  0  0
    6.0330    1.9950   27.3250 C   0  0  0  0  0  0  0  0  0  0  0  0
    5.7360    1.8870   29.0460 Cl  0  0  0  0  0  0  0  0  0  0  0  0
    5.6940   -4.9500   23.5530 C   0  0  0  0  0  0  0  0  0  0  0  0
    6.4430   -5.4790   22.3590 C   0  0  0  0  0  0  0  0  0  0  0  0
  1  2  1  0
  2  3  2  0
  2  4  1  0
  4  5  1  0
  5  6  1  0
  6  7  1  0
  7  8  1  0
  8  9  2  0
  8 10  1  0
 11 10  1  1
 11 12  1  0
 11 13  1  0
 12 13  1  0
 13 14  1  1
 13 15  1  0
 15 16  2  0
 16 17  1  0
 17 18  2  0
 18 19  1  0
 15 20  1  0
 19 20  2  0
 20 21  1  0
  7 22  1  0
  4 23  1  0
 22 23  1  0
M  END
