piperidine-amides-6297-covalent
     RDKit          3D

 26 27  0  0  0  0  0  0  0  0999 V2000
    7.0650   -3.3540   19.3590 C   0  0  0  0  0  0  0  0  0  0  0  0
    6.3580   -4.1780   20.3490 C   0  0  0  0  0  0  0  0  0  0  0  0
    5.3800   -4.8750   19.9940 O   0  0  0  0  0  0  0  0  0  0  0  0
    6.8000   -4.2170   21.6810 N   0  0  0  0  0  0  0  0  0  0  0  0
    7.6400   -3.1290   22.1530 C   0  0  0  0  0  0  0  0  0  0  0  0
    7.4430   -3.0150   23.6660 C   0  0  0  0  0  0  0  0  0  0  0  0
    6.0410   -3.4940   23.9210 C   0  0  0  0  0  0  0  0  0  0  0  0
    5.6180   -3.1290   25.2900 C   0  0  0  0  0  0  0  0  0  0  0  0
    4.4010   -3.1110   25.5570 O   0  0  0  0  0  0  0  0  0  0  0  0
    6.6060   -2.8170   26.2460 N   0  0  0  0  0  0  0  0  0  0  0  0
    6.5180   -1.6720   27.1210 C   0  0  0  0  0  0  0  0  0  0  0  0
    5.8550   -0.4340   26.5670 C   0  0  0  0  0  0  0  0  0  0  0  0
    5.7280    0.7100   27.3300 C   0  0  0  0  0  0  0  0  0  0  0  0
    6.2090    0.7510   28.6330 C   0  0  0  0  0  0  0  0  0  0  0  0
    6.0110    1.9810   29.3270 N   0  0  0  0  0  0  0  0  0  0  0  0
    7.0090    3.2870   29.0210 S   0  0  0  0  0  0  0  0  0  0  0  0
    8.3300    3.0700   29.7090 O   0  0  0  0  0  0  0  0  0  0  0  0
    6.3400    4.5200   29.5620 O   0  0  0  0  0  0  0  0  0  0  0  0
    7.3660    3.5780   27.3190 C   0  0  0  0  0  0  0  0  0  0  0  0
    8.5760    4.1260   26.9530 C   0  0  0  0  0  0  0  0  0  0  0  0
    8.5250    5.4550   26.2240 C   0  0  0  0  0  0  0  0  0  0  0  0
    9.1760    4.3120   25.4710 C   0  0  0  0  0  0  0  0  0  0  0  0
    6.8140   -0.3800   29.1310 C   0  0  0  0  0  0  0  0  0  0  0  0
    6.9920   -1.6260   28.4050 C   0  0  0  0  0  0  0  0  0  0  0  0
    6.0100   -4.9820   23.7290 C   0  0  0  0  0  0  0  0  0  0  0  0
    6.4810   -5.3500   22.4930 C   0  0  0  0  0  0  0  0  0  0  0  0
  1  2  1  0
  2  3  2  0
  2  4  1  0
  4  5  1  0
  5  6  1  0
  6  7  1  0
  7  8  1  0
  8  9  2  0
  8 10  1  0
 10 11  1  0
 11 12  2  0
 12 13  1  0
 13 14  2  0
 14 15  1  0
 16 15  1  0
 16 17  2  0
 16 18  2  0
 16 19  1  0
 19 20  1  0
 20 21  1  0
 21 22  1  0
 14 23  1  0
 11 24  1  0
 23 24  2  0
  7 25  1  0
  4 26  1  0
 25 26  1  0
M  END
