piperidine-amides-4411-covalent
     RDKit          3D

 25 26  0  0  0  0  0  0  0  0999 V2000
    7.0940   -3.3490   19.2840 C   0  0  0  0  0  0  0  0  0  0  0  0
    6.4120   -4.1750   20.2890 C   0  0  0  0  0  0  0  0  0  0  0  0
    5.3250   -4.6910   19.9410 O   0  0  0  0  0  0  0  0  0  0  0  0
    6.9960   -4.4380   21.5570 N   0  0  0  0  0  0  0  0  0  0  0  0
    6.4350   -5.4720   22.3420 C   0  0  0  0  0  0  0  0  0  0  0  0
    5.8960   -5.0100   23.6190 C   0  0  0  0  0  0  0  0  0  0  0  0
    6.5470   -3.8140   24.2020 C   0  0  0  0  0  0  0  0  0  0  0  0
    5.7760   -3.2800   25.3680 C   0  0  0  0  0  0  0  0  0  0  0  0
    4.5440   -3.1250   25.2710 O   0  0  0  0  0  0  0  0  0  0  0  0
    6.4110   -2.9590   26.5810 N   0  0  0  0  0  0  0  0  0  0  0  0
    6.4330   -1.7390   27.2950 C   0  0  0  0  0  0  0  0  0  0  0  0
    7.0770   -1.5360   28.5990 C   0  0  0  0  0  0  0  0  0  0  0  0
    7.0290   -0.1460   29.2910 C   0  0  0  0  0  0  0  0  0  0  0  0
    6.3790    0.9240   28.6940 C   0  0  0  0  0  0  0  0  0  0  0  0
    6.4610    2.4230   29.7140 S   0  0  0  0  0  0  0  0  0  0  0  0
    7.8680    2.5500   30.2210 O   0  0  0  0  0  0  0  0  0  0  0  0
    6.0950    3.6360   28.9350 O   0  0  0  0  0  0  0  0  0  0  0  0
    5.2820    2.2540   31.0820 C   0  0  0  0  0  0  0  0  0  0  0  0
    5.2890    0.9280   31.7690 C   0  0  0  0  0  0  0  0  0  0  0  0
    4.2980    0.7630   32.5470 O   0  0  0  0  0  0  0  0  0  0  0  0
    5.7320    0.7330   27.3810 C   0  0  0  0  0  0  0  0  0  0  0  0
    5.7450   -0.5790   26.6650 C   0  0  0  0  0  0  0  0  0  0  0  0
    5.0510   -0.7020   25.3120 C   0  0  0  0  0  0  0  0  0  0  0  0
    6.7610   -2.7040   23.1740 C   0  0  0  0  0  0  0  0  0  0  0  0
    7.6900   -3.3060   22.1940 C   0  0  0  0  0  0  0  0  0  0  0  0
  1  2  1  0
  2  3  2  0
  2  4  1  0
  4  5  1  0
  5  6  1  0
  6  7  1  0
  7  8  1  0
  8  9  2  0
  8 10  1  0
 10 11  1  0
 11 12  2  0
 12 13  1  0
 13 14  2  0
 14 15  1  0
 15 16  2  0
 15 17  2  0
 15 18  1  0
 18 19  1  0
 19 20  1  0
 14 21  1  0
 11 22  1  0
 21 22  2  0
 22 23  1  0
  7 24  1  0
  4 25  1  0
 24 25  1  0
M  END
