piperidine-amides-8099-covalent
     RDKit          3D

 26 27  0  0  0  0  0  0  0  0999 V2000
    7.1380   -3.2940   19.2720 C   0  0  0  0  0  0  0  0  0  0  0  0
    6.4210   -4.1180   20.2430 C   0  0  0  0  0  0  0  0  0  0  0  0
    5.3190   -4.5880   19.9040 O   0  0  0  0  0  0  0  0  0  0  0  0
    6.9950   -4.4290   21.5020 N   0  0  0  0  0  0  0  0  0  0  0  0
    7.7490   -3.4090   22.1700 C   0  0  0  0  0  0  0  0  0  0  0  0
    6.8430   -2.7150   23.1230 C   0  0  0  0  0  0  0  0  0  0  0  0
    6.3050   -3.7580   24.0800 C   0  0  0  0  0  0  0  0  0  0  0  0
    5.5150   -3.0460   25.1240 C   0  0  0  0  0  0  0  0  0  0  0  0
    4.4810   -3.5790   25.5190 O   0  0  0  0  0  0  0  0  0  0  0  0
    6.0240   -1.8170   25.5370 N   0  0  0  0  0  0  0  0  0  0  0  0
    5.6920   -1.2120   26.7740 C   0  0  0  0  0  0  0  0  0  0  0  0
    6.3330   -1.7490   27.8670 C   0  0  2  0  0  0  0  0  0  0  0  0
    7.0500   -2.8360   27.5970 C   0  0  0  0  0  0  0  0  0  0  0  0
    7.0890   -3.8920   28.4900 C   0  0  0  0  0  0  0  0  0  0  0  0
    7.9080   -5.0750   28.1220 C   0  0  0  0  0  0  0  0  0  0  0  0
    8.6530   -5.0670   26.7920 C   0  0  0  0  0  0  0  0  0  0  0  0
    9.6220   -6.3770   26.3180 Cl  0  0  0  0  0  0  0  0  0  0  0  0
    8.5460   -3.9240   25.9220 C   0  0  0  0  0  0  0  0  0  0  0  0
    7.7220   -2.8250   26.3970 C   0  0  0  0  0  0  0  0  0  0  0  0
    5.2000   -1.8730   28.8060 N   0  0  0  0  0  0  0  0  0  0  0  0
    4.5080   -3.0770   29.1580 C   0  0  0  0  0  0  0  0  0  0  0  0
    5.8710   -1.1180   29.8440 C   0  0  0  0  0  0  0  0  0  0  0  0
    7.0470   -0.5270   29.4270 C   0  0  0  0  0  0  0  0  0  0  0  0
    7.8840   -0.2210   30.6400 C   0  0  0  0  0  0  0  0  0  0  0  0
    5.4630   -4.7850   23.3030 C   0  0  0  0  0  0  0  0  0  0  0  0
    6.4060   -5.4370   22.3120 C   0  0  0  0  0  0  0  0  0  0  0  0
  1  2  1  0
  2  3  2  0
  2  4  1  0
  4  5  1  0
  5  6  1  0
  6  7  1  0
  7  8  1  0
  8  9  2  0
  8 10  1  0
 10 11  1  0
 12 11  1  6
 12 13  1  0
 13 14  2  0
 14 15  1  0
 15 16  2  0
 16 17  1  0
 16 18  1  0
 13 19  1  0
 18 19  2  0
 12 20  1  0
 20 21  1  0
 20 22  1  0
 22 23  1  0
 23 24  1  0
  7 25  1  0
  4 26  1  0
 25 26  1  0
M  END
