piperidine-amides-14023-covalent
     RDKit          3D

 25 26  0  0  0  0  0  0  0  0999 V2000
    7.0280   -3.2430   19.1670 C   0  0  0  0  0  0  0  0  0  0  0  0
    6.2050   -3.9650   20.1820 C   0  0  0  0  0  0  0  0  0  0  0  0
    5.1840   -4.5750   19.8510 O   0  0  0  0  0  0  0  0  0  0  0  0
    6.6300   -3.9600   21.5070 N   0  0  0  0  0  0  0  0  0  0  0  0
    6.6360   -5.1400   22.3010 C   0  0  0  0  0  0  0  0  0  0  0  0
    5.8130   -4.8390   23.5580 C   0  0  0  0  0  0  0  0  0  0  0  0
    5.8470   -3.3880   24.0290 C   0  0  0  0  0  0  0  0  0  0  0  0
    5.8710   -3.3320   25.5190 C   0  0  0  0  0  0  0  0  0  0  0  0
    4.7770   -3.1100   26.0590 O   0  0  0  0  0  0  0  0  0  0  0  0
    7.0930   -3.5110   26.2300 N   0  0  0  0  0  0  0  0  0  0  0  0
    7.8190   -4.7360   26.4060 C   0  0  1  0  0  0  0  0  0  0  0  0
    9.2220   -4.8410   26.2890 C   0  0  0  0  0  0  0  0  0  0  0  0
   10.0940   -4.0070   25.4990 C   0  0  0  0  0  0  0  0  0  0  0  0
   11.4270   -3.9830   25.8010 C   0  0  0  0  0  0  0  0  0  0  0  0
   12.4250   -3.1460   25.0750 C   0  0  0  0  0  0  0  0  0  0  0  0
   12.0250   -2.2550   23.9210 C   0  0  0  0  0  0  0  0  0  0  0  0
   10.5310   -2.4200   23.7140 C   0  0  0  0  0  0  0  0  0  0  0  0
    9.6790   -3.2260   24.4480 C   0  0  0  0  0  0  0  0  0  0  0  0
    7.8810   -3.2170   23.9270 Br  0  0  0  0  0  0  0  0  0  0  0  0
    7.4080   -5.4820   27.6070 C   0  0  0  0  0  0  0  0  0  0  0  0
    7.0160   -5.9250   28.7080 O   0  0  0  0  0  0  0  0  0  0  0  0
    7.0910   -4.2610   28.2270 O   0  0  0  0  0  0  0  0  0  0  0  0
    5.9230   -4.1310   29.0320 C   0  0  0  0  0  0  0  0  0  0  0  0
    6.8450   -2.4630   23.4080 C   0  0  0  0  0  0  0  0  0  0  0  0
    7.3300   -2.8350   21.9900 C   0  0  0  0  0  0  0  0  0  0  0  0
  1  2  1  0
  2  3  2  0
  2  4  1  0
  4  5  1  0
  5  6  1  0
  6  7  1  0
  7  8  1  0
  8  9  2  0
  8 10  1  0
 10 11  1  0
 11 12  1  1
 12 13  1  0
 13 14  2  0
 14 15  1  0
 15 16  2  0
 16 17  1  0
 13 18  1  0
 17 18  2  0
 18 19  1  0
 11 20  1  0
 20 21  2  0
 20 22  1  0
 22 23  1  0
  7 24  1  0
  4 25  1  0
 24 25  1  0
M  END
