piperidine-amides-23316-covalent
     RDKit          3D

 24 26  0  0  0  0  0  0  0  0999 V2000
    7.0040   -3.4270   19.4600 C   0  0  0  0  0  0  0  0  0  0  0  0
    6.3350   -4.3030   20.4380 C   0  0  0  0  0  0  0  0  0  0  0  0
    5.3600   -4.9530   20.0000 O   0  0  0  0  0  0  0  0  0  0  0  0
    6.7860   -4.4580   21.7830 N   0  0  0  0  0  0  0  0  0  0  0  0
    6.2860   -5.5400   22.5570 C   0  0  0  0  0  0  0  0  0  0  0  0
    5.7330   -5.1670   23.8740 C   0  0  0  0  0  0  0  0  0  0  0  0
    6.3300   -3.9800   24.5420 C   0  0  0  0  0  0  0  0  0  0  0  0
    5.4230   -3.4010   25.6510 C   0  0  0  0  0  0  0  0  0  0  0  0
    4.4770   -2.7050   25.2450 O   0  0  0  0  0  0  0  0  0  0  0  0
    5.5160   -3.5640   27.1070 N   0  0  0  0  0  0  0  0  0  0  0  0
    4.4680   -3.9100   27.9640 C   0  0  0  0  0  0  0  0  0  0  0  0
    4.7860   -4.7940   29.0810 C   0  0  0  0  0  0  0  0  0  0  0  0
    3.8450   -5.2930   29.7750 O   0  0  0  0  0  0  0  0  0  0  0  0
    6.0930   -5.1040   29.4040 O   0  0  0  0  0  0  0  0  0  0  0  0
    7.0620   -4.7020   28.4500 C   0  0  0  0  0  0  0  0  0  0  0  0
    6.7590   -3.5130   27.8070 C   0  0  1  0  0  0  0  0  0  0  0  0
    7.7140   -3.8350   26.8100 C   0  0  0  0  0  0  0  0  0  0  0  0
    7.6260   -2.5740   26.0270 C   0  0  0  0  0  0  0  0  0  0  0  0
    8.5710   -2.8520   24.8970 C   0  0  0  0  0  0  0  0  0  0  0  0
    9.3770   -4.0790   24.6520 C   0  0  0  0  0  0  0  0  0  0  0  0
    9.3250   -5.2500   25.6140 C   0  0  0  0  0  0  0  0  0  0  0  0
    8.4370   -5.1170   26.7540 C   0  0  0  0  0  0  0  0  0  0  0  0
    6.6120   -2.9480   23.4640 C   0  0  0  0  0  0  0  0  0  0  0  0
    7.5170   -3.4340   22.4980 C   0  0  0  0  0  0  0  0  0  0  0  0
  1  2  1  0
  2  3  2  0
  2  4  1  0
  4  5  1  0
  5  6  1  0
  6  7  1  0
  7  8  1  0
  8  9  2  0
  8 10  1  0
 10 11  1  0
 11 12  1  0
 12 13  2  0
 12 14  1  0
 14 15  1  0
 10 16  1  0
 15 16  1  0
 16 17  1  6
 17 18  2  0
 18 19  1  0
 19 20  2  0
 20 21  1  0
 17 22  1  0
 21 22  2  0
  7 23  1  0
  4 24  1  0
 23 24  1  0
M  END
