piperidine-amides-2007-covalent
     RDKit          3D

 24 25  0  0  0  0  0  0  0  0999 V2000
    7.2130   -3.9680   19.6370 C   0  0  0  0  0  0  0  0  0  0  0  0
    6.0180   -3.9610   20.3790 C   0  0  0  0  0  0  0  0  0  0  0  0
    5.0130   -4.0990   19.6970 O   0  0  0  0  0  0  0  0  0  0  0  0
    6.1640   -3.9250   21.7460 N   0  0  0  0  0  0  0  0  0  0  0  0
    6.0700   -5.2010   22.4280 C   0  0  0  0  0  0  0  0  0  0  0  0
    5.6810   -4.9820   23.8520 C   0  0  0  0  0  0  0  0  0  0  0  0
    5.9030   -3.5100   24.1600 C   0  0  0  0  0  0  0  0  0  0  0  0
    5.7040   -3.3360   25.5930 C   0  0  0  0  0  0  0  0  0  0  0  0
    4.6970   -2.7230   25.9620 O   0  0  0  0  0  0  0  0  0  0  0  0
    6.6190   -3.8640   26.5280 N   0  0  0  0  0  0  0  0  0  0  0  0
    7.3290   -2.9670   27.4090 C   0  0  0  0  0  0  0  0  0  0  0  0
    6.3120   -2.1410   28.1920 C   0  0  1  0  0  0  0  0  0  0  0  0
    6.3350   -0.7780   28.0530 C   0  0  0  0  0  0  0  0  0  0  0  0
    5.9180   -0.1920   29.1720 C   0  0  0  0  0  0  0  0  0  0  0  0
    5.5450   -1.1890   30.0090 C   0  0  0  0  0  0  0  0  0  0  0  0
    5.5600   -2.6650   29.5920 C   0  0  0  0  0  0  0  0  0  0  0  0
    4.8720   -2.5330   28.2520 C   0  0  1  0  0  0  0  0  0  0  0  0
    3.7960   -1.5230   28.5980 C   0  0  0  0  0  0  0  0  0  0  0  0
    3.7570   -0.4370   27.7420 O   0  0  0  0  0  0  0  0  0  0  0  0
    2.9940   -1.7990   29.7080 O   0  0  0  0  0  0  0  0  0  0  0  0
    2.4070   -3.0380   30.0050 C   0  0  0  0  0  0  0  0  0  0  0  0
    3.0080   -3.6680   31.2210 C   0  0  0  0  0  0  0  0  0  0  0  0
    7.1500   -2.9220   23.6390 C   0  0  0  0  0  0  0  0  0  0  0  0
    7.3040   -3.1360   22.1900 C   0  0  0  0  0  0  0  0  0  0  0  0
  1  2  1  0
  2  3  2  0
  2  4  1  0
  4  5  1  0
  5  6  1  0
  6  7  1  0
  7  8  1  0
  8  9  2  0
  8 10  1  0
 10 11  1  0
 12 11  1  6
 12 13  1  0
 13 14  1  0
 14 15  1  0
 15 16  1  0
 12 17  1  0
 16 17  1  0
 17 18  1  1
 18 19  2  0
 18 20  1  0
 20 21  1  0
 21 22  1  0
  7 23  1  0
  4 24  1  0
 23 24  1  0
M  END
