piperidine-amides-773-covalent
     RDKit          3D

 25 26  0  0  0  0  0  0  0  0999 V2000
    7.0950   -3.2760   19.3480 C   0  0  0  0  0  0  0  0  0  0  0  0
    6.3290   -4.0390   20.3160 C   0  0  0  0  0  0  0  0  0  0  0  0
    5.3150   -4.6910   19.9180 O   0  0  0  0  0  0  0  0  0  0  0  0
    6.6810   -4.1140   21.6730 N   0  0  0  0  0  0  0  0  0  0  0  0
    6.5740   -5.4520   22.3010 C   0  0  0  0  0  0  0  0  0  0  0  0
    6.1520   -5.0760   23.7780 C   0  0  0  0  0  0  0  0  0  0  0  0
    5.9610   -3.5780   23.7810 C   0  0  0  0  0  0  0  0  0  0  0  0
    5.1240   -3.0230   25.0280 C   0  0  0  0  0  0  0  0  0  0  0  0
    4.3080   -2.2000   24.6610 O   0  0  0  0  0  0  0  0  0  0  0  0
    5.5180   -3.5810   26.0940 N   0  0  0  0  0  0  0  0  0  0  0  0
    5.9770   -4.1620   27.2240 C   0  0  1  0  0  0  0  0  0  0  0  0
    6.9600   -3.9200   28.0860 C   0  0  0  0  0  0  0  0  0  0  0  0
    7.9530   -4.4540   27.3490 C   0  0  0  0  0  0  0  0  0  0  0  0
    8.2400   -3.6560   26.1170 C   0  0  0  0  0  0  0  0  0  0  0  0
    9.3640   -4.2670   25.2460 C   0  0  0  0  0  0  0  0  0  0  0  0
    9.8530   -5.4330   25.8250 C   0  0  0  0  0  0  0  0  0  0  0  0
    9.4460   -6.0050   26.9530 C   0  0  0  0  0  0  0  0  0  0  0  0
    8.5400   -5.5440   27.6930 N   0  0  0  0  0  0  0  0  0  0  0  0
    4.8940   -4.5440   28.1260 C   0  0  0  0  0  0  0  0  0  0  0  0
    4.0440   -3.6530   28.3690 O   0  0  0  0  0  0  0  0  0  0  0  0
    4.8200   -5.8000   28.6930 O   0  0  0  0  0  0  0  0  0  0  0  0
    5.9300   -6.6170   28.9510 C   0  0  0  0  0  0  0  0  0  0  0  0
    5.5030   -7.7210   29.6430 C   0  0  0  0  0  0  0  0  0  0  0  0
    7.2080   -2.7690   23.4530 C   0  0  0  0  0  0  0  0  0  0  0  0
    7.6070   -3.1440   22.2130 C   0  0  0  0  0  0  0  0  0  0  0  0
  1  2  1  0
  2  3  2  0
  2  4  1  0
  4  5  1  0
  5  6  1  0
  6  7  1  0
  7  8  1  0
  8  9  2  0
  8 10  1  0
 10 11  1  0
 11 12  1  1
 12 13  1  0
 13 14  2  0
 14 15  1  0
 15 16  2  0
 16 17  1  0
 13 18  1  0
 17 18  2  0
 11 19  1  0
 19 20  2  0
 19 21  1  0
 21 22  1  0
 22 23  1  0
  7 24  1  0
  4 25  1  0
 24 25  1  0
M  END
