piperidine-amides-21457-covalent
     RDKit          3D

 23 26  0  0  0  0  0  0  0  0999 V2000
    7.0460   -3.3530   19.3740 C   0  0  0  0  0  0  0  0  0  0  0  0
    6.4090   -4.2080   20.3820 C   0  0  0  0  0  0  0  0  0  0  0  0
    5.3960   -4.8500   19.9890 O   0  0  0  0  0  0  0  0  0  0  0  0
    6.9300   -4.3380   21.6850 N   0  0  0  0  0  0  0  0  0  0  0  0
    6.7360   -5.5400   22.4650 C   0  0  0  0  0  0  0  0  0  0  0  0
    6.2070   -5.1710   23.8340 C   0  0  0  0  0  0  0  0  0  0  0  0
    6.1970   -3.6780   24.0590 C   0  0  0  0  0  0  0  0  0  0  0  0
    5.7300   -3.2890   25.4350 C   0  0  0  0  0  0  0  0  0  0  0  0
    4.6410   -2.6760   25.4660 O   0  0  0  0  0  0  0  0  0  0  0  0
    6.3430   -3.5250   26.6990 N   0  0  0  0  0  0  0  0  0  0  0  0
    6.3310   -2.4540   27.6850 C   0  0  0  0  0  0  0  0  0  0  0  0
    5.9560   -3.3750   28.7850 C   0  0  0  0  0  0  0  0  0  0  0  0
    6.5780   -4.5380   28.7290 C   0  0  0  0  0  0  0  0  0  0  0  0
    5.9720   -4.7110   27.5060 C   0  0  0  0  0  0  0  0  0  0  0  0
    5.1690   -5.7130   26.9760 C   0  0  0  0  0  0  0  0  0  0  0  0
    4.2130   -6.3200   27.6180 N   0  0  0  0  0  0  0  0  0  0  0  0
    3.6810   -7.1660   26.7430 C   0  0  0  0  0  0  0  0  0  0  0  0
    2.6260   -7.9900   27.0430 C   0  0  0  0  0  0  0  0  0  0  0  0
    4.2140   -7.1270   25.6810 N   0  0  0  0  0  0  0  0  0  0  0  0
    5.1980   -6.2180   25.7200 O   0  0  0  0  0  0  0  0  0  0  0  0
    4.7680   -4.0280   28.0910 C   0  0  0  0  0  0  0  0  0  0  0  0
    7.5080   -3.0790   23.6950 C   0  0  0  0  0  0  0  0  0  0  0  0
    7.7330   -3.2170   22.2070 C   0  0  0  0  0  0  0  0  0  0  0  0
  1  2  1  0
  2  3  2  0
  2  4  1  0
  4  5  1  0
  5  6  1  0
  6  7  1  0
  7  8  1  0
  8  9  2  0
  8 10  1  0
 10 11  1  0
 11 12  1  0
 12 13  1  0
 10 14  1  0
 13 14  1  0
 14 15  1  0
 15 16  2  0
 16 17  1  0
 17 18  1  0
 17 19  2  0
 15 20  1  0
 19 20  1  0
 12 21  1  0
 14 21  1  0
  7 22  1  0
  4 23  1  0
 22 23  1  0
M  END
