piperidine-amides-4878-covalent
     RDKit          3D

 23 24  0  0  0  0  0  0  0  0999 V2000
    7.1330   -3.2630   19.1960 C   0  0  0  0  0  0  0  0  0  0  0  0
    6.3780   -4.0310   20.2080 C   0  0  0  0  0  0  0  0  0  0  0  0
    5.2790   -4.5040   19.8600 O   0  0  0  0  0  0  0  0  0  0  0  0
    6.9140   -4.2610   21.4750 N   0  0  0  0  0  0  0  0  0  0  0  0
    6.4920   -5.3970   22.2160 C   0  0  0  0  0  0  0  0  0  0  0  0
    5.9680   -5.0790   23.5420 C   0  0  0  0  0  0  0  0  0  0  0  0
    6.5700   -3.8900   24.1950 C   0  0  0  0  0  0  0  0  0  0  0  0
    5.7260   -3.4420   25.3180 C   0  0  0  0  0  0  0  0  0  0  0  0
    4.5940   -2.9840   25.0760 O   0  0  0  0  0  0  0  0  0  0  0  0
    6.2030   -3.5200   26.6290 N   0  0  0  0  0  0  0  0  0  0  0  0
    5.8180   -4.5620   27.6120 C   0  0  0  0  0  0  0  0  0  0  0  0
    4.3960   -4.4580   27.9110 C   0  0  0  0  0  0  0  0  0  0  0  0
    6.0360   -5.9610   27.1860 C   0  0  0  0  0  0  0  0  0  0  0  0
    6.6100   -4.1940   28.7390 C   0  0  0  0  0  0  0  0  0  0  0  0
    6.8380   -2.8550   28.9830 C   0  0  0  0  0  0  0  0  0  0  0  0
    5.9240   -1.9270   28.6120 C   0  0  0  0  0  0  0  0  0  0  0  0
    4.6820   -1.9530   29.1920 C   0  0  0  0  0  0  0  0  0  0  0  0
    3.6740   -1.0700   28.9050 C   0  0  0  0  0  0  0  0  0  0  0  0
    3.9250   -0.0780   27.9600 C   0  0  0  0  0  0  0  0  0  0  0  0
    5.2210    0.0470   27.2730 C   0  0  0  0  0  0  0  0  0  0  0  0
    6.2430   -0.9800   27.6740 C   0  0  0  0  0  0  0  0  0  0  0  0
    6.8480   -2.7650   23.1980 C   0  0  0  0  0  0  0  0  0  0  0  0
    7.6710   -3.2430   22.1740 C   0  0  0  0  0  0  0  0  0  0  0  0
  1  2  1  0
  2  3  2  0
  2  4  1  0
  4  5  1  0
  5  6  1  0
  6  7  1  0
  7  8  1  0
  8  9  2  0
  8 10  1  0
 10 11  1  0
 11 12  1  0
 11 13  1  0
 11 14  1  0
 14 15  3  0
 15 16  1  0
 16 17  2  0
 17 18  1  0
 18 19  2  0
 19 20  1  0
 16 21  1  0
 20 21  2  0
  7 22  1  0
  4 23  1  0
 22 23  1  0
M  END
