piperidine-amides-24924-covalent
     RDKit          3D

 23 24  0  0  0  0  0  0  0  0999 V2000
    7.0710   -3.3220   19.3390 C   0  0  0  0  0  0  0  0  0  0  0  0
    6.3510   -4.1670   20.3030 C   0  0  0  0  0  0  0  0  0  0  0  0
    5.3280   -4.7980   19.9590 O   0  0  0  0  0  0  0  0  0  0  0  0
    6.8320   -4.3110   21.6100 N   0  0  0  0  0  0  0  0  0  0  0  0
    7.6660   -3.2520   22.1590 C   0  0  0  0  0  0  0  0  0  0  0  0
    7.5120   -3.2550   23.6790 C   0  0  0  0  0  0  0  0  0  0  0  0
    6.1280   -3.7810   23.9300 C   0  0  0  0  0  0  0  0  0  0  0  0
    5.7590   -3.5530   25.3340 C   0  0  0  0  0  0  0  0  0  0  0  0
    4.6830   -4.0250   25.7570 O   0  0  0  0  0  0  0  0  0  0  0  0
    6.6090   -2.7740   26.1460 N   0  0  0  0  0  0  0  0  0  0  0  0
    7.8350   -3.2170   26.7650 C   0  0  0  0  0  0  0  0  0  0  0  0
    7.9080   -4.7380   26.9190 C   0  0  0  0  0  0  0  0  0  0  0  0
    8.3360   -5.2800   28.1000 C   0  0  0  0  0  0  0  0  0  0  0  0
    8.8990   -5.2270   25.8700 C   0  0  0  0  0  0  0  0  0  0  0  0
    6.4440   -1.6510   27.0520 C   0  0  0  0  0  0  0  0  0  0  0  0
    6.1780   -0.3140   27.4010 C   0  0  0  0  0  0  0  0  0  0  0  0
    5.8610    0.9270   26.9310 N   0  0  0  0  0  0  0  0  0  0  0  0
    5.7280    1.0380   25.6340 C   0  0  0  0  0  0  0  0  0  0  0  0
    5.9440   -0.2090   24.8780 C   0  0  0  0  0  0  0  0  0  0  0  0
    5.8070   -0.2200   23.1170 Cl  0  0  0  0  0  0  0  0  0  0  0  0
    6.2460   -1.2980   25.6430 N   0  0  0  0  0  0  0  0  0  0  0  0
    5.9720   -5.2090   23.6150 C   0  0  0  0  0  0  0  0  0  0  0  0
    6.5860   -5.5230   22.3290 C   0  0  0  0  0  0  0  0  0  0  0  0
  1  2  1  0
  2  3  2  0
  2  4  1  0
  4  5  1  0
  5  6  1  0
  6  7  1  0
  7  8  1  0
  8  9  2  0
  8 10  1  0
 10 11  1  0
 11 12  1  0
 12 13  1  0
 12 14  1  0
 10 15  1  0
 15 16  2  0
 16 17  1  0
 17 18  2  0
 18 19  1  0
 19 20  1  0
 15 21  1  0
 19 21  2  0
  7 22  1  0
  4 23  1  0
 22 23  1  0
M  END
