piperidine-amides-9201-covalent
     RDKit          3D

 20 20  0  0  0  0  0  0  0  0999 V2000
    7.1290   -3.2760   19.2060 C   0  0  0  0  0  0  0  0  0  0  0  0
    6.3650   -4.0140   20.2150 C   0  0  0  0  0  0  0  0  0  0  0  0
    5.2980   -4.5590   19.8930 O   0  0  0  0  0  0  0  0  0  0  0  0
    6.8480   -4.1550   21.5220 N   0  0  0  0  0  0  0  0  0  0  0  0
    7.7420   -3.1860   22.1130 C   0  0  0  0  0  0  0  0  0  0  0  0
    7.0160   -2.6660   23.3110 C   0  0  0  0  0  0  0  0  0  0  0  0
    6.5770   -3.7860   24.1970 C   0  0  0  0  0  0  0  0  0  0  0  0
    5.9000   -3.2870   25.4130 C   0  0  0  0  0  0  0  0  0  0  0  0
    4.6480   -3.4190   25.5650 O   0  0  0  0  0  0  0  0  0  0  0  0
    6.6200   -2.6240   26.4320 N   0  0  0  0  0  0  0  0  0  0  0  0
    6.3500   -2.8420   27.8720 C   0  0  0  0  0  0  0  0  0  0  0  0
    6.0580   -4.2650   28.1260 C   0  0  0  0  0  0  0  0  0  0  0  0
    4.5510   -4.8240   28.6980 S   0  0  0  0  0  0  0  0  0  0  0  0
    4.0120   -4.1420   29.8940 O   0  0  0  0  0  0  0  0  0  0  0  0
    4.8380   -6.5680   28.8270 C   0  0  0  0  0  0  0  0  0  0  0  0
    6.2960   -6.7260   29.1610 C   0  0  0  0  0  0  0  0  0  0  0  0
    3.9730   -7.3770   29.7380 C   0  0  0  0  0  0  0  0  0  0  0  0
    4.5880   -7.0710   27.3890 C   0  0  0  0  0  0  0  0  0  0  0  0
    5.7110   -4.7540   23.4160 C   0  0  0  0  0  0  0  0  0  0  0  0
    6.3990   -5.2750   22.3120 C   0  0  0  0  0  0  0  0  0  0  0  0
  1  2  1  0
  2  3  2  0
  2  4  1  0
  4  5  1  0
  5  6  1  0
  6  7  1  0
  7  8  1  0
  8  9  2  0
  8 10  1  0
 10 11  1  0
 11 12  1  0
 13 12  1  1
 13 14  2  0
 13 15  1  0
 15 16  1  0
 15 17  1  0
 15 18  1  0
  7 19  1  0
  4 20  1  0
 19 20  1  0
M  END
