piperidine-amides-30358-covalent
     RDKit          3D

 26 28  0  0  0  0  0  0  0  0999 V2000
    7.0300   -3.3260   19.3370 C   0  0  0  0  0  0  0  0  0  0  0  0
    6.3180   -4.1710   20.2930 C   0  0  0  0  0  0  0  0  0  0  0  0
    5.3190   -4.7920   19.9510 O   0  0  0  0  0  0  0  0  0  0  0  0
    6.7990   -4.3190   21.6310 N   0  0  0  0  0  0  0  0  0  0  0  0
    7.5860   -3.2730   22.2200 C   0  0  0  0  0  0  0  0  0  0  0  0
    7.3000   -3.2550   23.6780 C   0  0  0  0  0  0  0  0  0  0  0  0
    5.9440   -3.8680   23.8750 C   0  0  0  0  0  0  0  0  0  0  0  0
    5.4350   -3.6170   25.2550 C   0  0  0  0  0  0  0  0  0  0  0  0
    4.2180   -3.6510   25.5090 O   0  0  0  0  0  0  0  0  0  0  0  0
    6.3290   -3.3070   26.3090 N   0  0  0  0  0  0  0  0  0  0  0  0
    6.7760   -4.3700   27.2100 C   0  0  0  0  0  0  0  0  0  0  0  0
    5.6510   -5.2880   27.5760 C   0  0  0  0  0  0  0  0  0  0  0  0
    5.7370   -6.4760   26.8710 O   0  0  0  0  0  0  0  0  0  0  0  0
    6.2700   -1.9510   26.8200 C   0  0  0  0  0  0  0  0  0  0  0  0
    5.6480   -0.8530   26.0380 N   0  0  0  0  0  0  0  0  0  0  0  0
    5.5820    0.5110   26.5690 C   0  0  0  0  0  0  0  0  0  0  0  0
    4.8520    1.8610   25.6800 Cl  0  0  0  0  0  0  0  0  0  0  0  0
    6.1240    0.6390   27.7920 N   0  0  0  0  0  0  0  0  0  0  0  0
    6.5370   -0.5450   28.0790 C   0  0  0  0  0  0  0  0  0  0  0  0
    5.9200   -0.2350   26.9210 C   0  0  0  0  0  0  0  0  0  0  0  0
    5.9430    0.9350   27.5660 C   0  0  0  0  0  0  0  0  0  0  0  0
    6.6160    0.6380   28.8450 C   0  0  0  0  0  0  0  0  0  0  0  0
    7.0990   -0.7590   29.1610 C   0  0  0  0  0  0  0  0  0  0  0  0
    6.8240   -1.7540   28.0880 C   0  0  0  0  0  0  0  0  0  0  0  0
    5.9040   -5.3420   23.5210 C   0  0  0  0  0  0  0  0  0  0  0  0
    6.6280   -5.5580   22.3420 C   0  0  0  0  0  0  0  0  0  0  0  0
  1  2  1  0
  2  3  2  0
  2  4  1  0
  4  5  1  0
  5  6  1  0
  6  7  1  0
  7  8  1  0
  8  9  2  0
  8 10  1  0
 10 11  1  0
 11 12  1  0
 12 13  1  0
 10 14  1  0
 14 15  2  0
 15 16  1  0
 16 17  1  0
 16 18  2  0
 18 19  1  0
 19 20  1  0
 20 21  2  0
 21 22  1  0
 22 23  2  0
 14 24  1  0
 19 24  2  0
 23 24  1  0
  7 25  1  0
  4 26  1  0
 25 26  1  0
M  END
