piperidine-amides-2599-covalent
     RDKit          3D

 25 28  0  0  0  0  0  0  0  0999 V2000
    7.0040   -3.3730   19.3660 C   0  0  0  0  0  0  0  0  0  0  0  0
    6.3430   -4.2930   20.3310 C   0  0  0  0  0  0  0  0  0  0  0  0
    5.3120   -4.8360   19.9590 O   0  0  0  0  0  0  0  0  0  0  0  0
    6.9020   -4.5640   21.5810 N   0  0  0  0  0  0  0  0  0  0  0  0
    6.4270   -5.6790   22.3540 C   0  0  0  0  0  0  0  0  0  0  0  0
    5.6450   -5.1780   23.5490 C   0  0  0  0  0  0  0  0  0  0  0  0
    6.4420   -4.1130   24.3130 C   0  0  0  0  0  0  0  0  0  0  0  0
    5.6070   -3.5310   25.3800 C   0  0  0  0  0  0  0  0  0  0  0  0
    4.5520   -4.0720   25.7390 O   0  0  0  0  0  0  0  0  0  0  0  0
    6.0280   -2.3260   25.9530 N   0  0  0  0  0  0  0  0  0  0  0  0
    5.7350   -1.9970   27.3200 C   0  0  2  0  0  0  0  0  0  0  0  0
    5.4460   -0.5370   27.4320 C   0  0  1  0  0  0  0  0  0  0  0  0
    6.0840    0.1010   28.4440 C   0  0  0  0  0  0  0  0  0  0  0  0
    6.8980   -0.8300   28.9790 C   0  0  0  0  0  0  0  0  0  0  0  0
    6.8880   -1.9950   28.2370 C   0  0  2  0  0  0  0  0  0  0  0  0
    7.9690   -2.3890   27.2380 C   0  0  0  0  0  0  0  0  0  0  0  0
    7.6850   -1.6650   25.9030 C   0  0  0  0  0  0  0  0  0  0  0  0
    8.7650   -2.3350   25.0290 C   0  0  0  0  0  0  0  0  0  0  0  0
    8.8610   -1.8830   23.5950 C   0  0  0  0  0  0  0  0  0  0  0  0
    7.9370   -0.8470   23.0880 C   0  0  0  0  0  0  0  0  0  0  0  0
    6.9120   -0.2530   24.0080 C   0  0  0  0  0  0  0  0  0  0  0  0
    6.7680   -0.6480   25.4370 C   0  0  0  0  0  0  0  0  0  0  0  0
    5.7170    0.0520   26.2600 C   0  0  0  0  0  0  0  0  0  0  0  0
    6.7440   -3.0020   23.3550 C   0  0  0  0  0  0  0  0  0  0  0  0
    7.5820   -3.4960   22.2240 C   0  0  0  0  0  0  0  0  0  0  0  0
  1  2  1  0
  2  3  2  0
  2  4  1  0
  4  5  1  0
  5  6  1  0
  6  7  1  0
  7  8  1  0
  8  9  2  0
  8 10  1  0
 11 10  1  6
 11 12  1  0
 12 13  1  1
 13 14  1  0
 11 15  1  0
 15 14  1  6
 15 16  1  0
 16 17  1  0
 17 18  1  0
 18 19  2  0
 19 20  1  0
 20 21  2  0
 17 22  2  0
 21 22  1  0
 12 23  1  0
 22 23  1  0
  7 24  1  0
  4 25  1  0
 24 25  1  0
M  END
