piperidine-amides-33416-covalent
     RDKit          3D

 29 32  0  0  0  0  0  0  0  0999 V2000
    7.0760   -3.3660   19.3100 C   0  0  0  0  0  0  0  0  0  0  0  0
    6.4470   -4.2040   20.3430 C   0  0  0  0  0  0  0  0  0  0  0  0
    5.4120   -4.8250   19.9920 O   0  0  0  0  0  0  0  0  0  0  0  0
    7.0210   -4.3440   21.6390 N   0  0  0  0  0  0  0  0  0  0  0  0
    6.5790   -5.4320   22.4500 C   0  0  0  0  0  0  0  0  0  0  0  0
    6.1150   -5.0070   23.7690 C   0  0  0  0  0  0  0  0  0  0  0  0
    6.1140   -3.5380   23.9330 C   0  0  0  0  0  0  0  0  0  0  0  0
    5.3970   -3.0490   25.1540 C   0  0  0  0  0  0  0  0  0  0  0  0
    4.2330   -2.6470   24.9950 O   0  0  0  0  0  0  0  0  0  0  0  0
    5.8960   -3.0150   26.4680 N   0  0  0  0  0  0  0  0  0  0  0  0
    6.1520   -1.8080   27.1620 C   0  0  0  0  0  0  0  0  0  0  0  0
    6.8510   -1.6160   28.4290 C   0  0  0  0  0  0  0  0  0  0  0  0
    7.1120   -0.3120   29.2190 C   0  0  0  0  0  0  0  0  0  0  0  0
    6.6340    0.8860   28.6910 C   0  0  0  0  0  0  0  0  0  0  0  0
    5.8970    0.7720   27.3610 C   0  0  0  0  0  0  0  0  0  0  0  0
    5.4190    1.9670   26.8320 O   0  0  0  0  0  0  0  0  0  0  0  0
    4.1100    1.7730   26.3940 C   0  0  0  0  0  0  0  0  0  0  0  0
    5.6280   -0.5020   26.5590 C   0  0  0  0  0  0  0  0  0  0  0  0
    5.3590   -3.8360   27.4910 C   0  0  0  0  0  0  0  0  0  0  0  0
    6.1970   -4.8510   27.8450 N   0  0  0  0  0  0  0  0  0  0  0  0
    5.6700   -5.5960   28.8070 C   0  0  0  0  0  0  0  0  0  0  0  0
    6.4470   -6.7780   29.3480 C   0  0  0  0  0  0  0  0  0  0  0  0
    5.7280   -7.4990   30.4170 C   0  0  0  0  0  0  0  0  0  0  0  0
    4.4720   -7.2090   30.9340 C   0  0  0  0  0  0  0  0  0  0  0  0
    3.8030   -6.1250   30.4050 C   0  0  0  0  0  0  0  0  0  0  0  0
    4.3960   -5.2710   29.3080 C   0  0  0  0  0  0  0  0  0  0  0  0
    3.8780   -3.8670   28.4200 S   0  0  0  0  0  0  0  0  0  0  0  0
    7.4720   -2.9910   23.6670 C   0  0  0  0  0  0  0  0  0  0  0  0
    7.7610   -3.2320   22.1980 C   0  0  0  0  0  0  0  0  0  0  0  0
  1  2  1  0
  2  3  2  0
  2  4  1  0
  4  5  1  0
  5  6  1  0
  6  7  1  0
  7  8  1  0
  8  9  2  0
  8 10  1  0
 10 11  1  0
 11 12  2  0
 12 13  1  0
 13 14  2  0
 14 15  1  0
 15 16  1  0
 16 17  1  0
 11 18  1  0
 15 18  2  0
 10 19  1  0
 19 20  2  0
 20 21  1  0
 21 22  2  0
 22 23  1  0
 23 24  2  0
 24 25  1  0
 21 26  1  0
 25 26  2  0
 19 27  1  0
 26 27  1  0
  7 28  1  0
  4 29  1  0
 28 29  1  0
M  END
