piperidine-amides-13135-covalent
     RDKit          3D

 20 21  0  0  0  0  0  0  0  0999 V2000
    7.1320   -3.2470   19.2200 C   0  0  0  0  0  0  0  0  0  0  0  0
    6.3930   -4.0050   20.2540 C   0  0  0  0  0  0  0  0  0  0  0  0
    5.3270   -4.5380   19.8870 O   0  0  0  0  0  0  0  0  0  0  0  0
    6.8830   -4.1610   21.5610 N   0  0  0  0  0  0  0  0  0  0  0  0
    7.6830   -3.1360   22.1610 C   0  0  0  0  0  0  0  0  0  0  0  0
    7.3170   -2.8070   23.5480 C   0  0  0  0  0  0  0  0  0  0  0  0
    5.8940   -3.0640   23.8740 C   0  0  0  0  0  0  0  0  0  0  0  0
    5.5870   -3.0210   25.3490 C   0  0  0  0  0  0  0  0  0  0  0  0
    4.3780   -3.0310   25.6570 O   0  0  0  0  0  0  0  0  0  0  0  0
    6.5630   -2.9660   26.3860 N   0  0  0  0  0  0  0  0  0  0  0  0
    6.2280   -3.2780   27.8180 C   0  0  0  0  0  0  0  0  0  0  0  0
    6.5120   -4.7000   28.1620 C   0  0  0  0  0  0  0  0  0  0  0  0
    7.4900   -5.2240   27.2780 C   0  0  0  0  0  0  0  0  0  0  0  0
    9.0320   -5.5340   27.7600 S   0  0  0  0  0  0  0  0  0  0  0  0
    9.4790   -6.0240   26.1230 C   0  0  0  0  0  0  0  0  0  0  0  0
    8.3670   -5.9480   25.2290 N   0  0  0  0  0  0  0  0  0  0  0  0
    7.1710   -5.4940   25.8660 C   0  0  0  0  0  0  0  0  0  0  0  0
    5.9980   -5.3560   25.2170 C   0  0  0  0  0  0  0  0  0  0  0  0
    5.2690   -4.2570   23.1810 C   0  0  0  0  0  0  0  0  0  0  0  0
    6.2060   -4.9920   22.5000 C   0  0  0  0  0  0  0  0  0  0  0  0
  1  2  1  0
  2  3  2  0
  2  4  1  0
  4  5  1  0
  5  6  1  0
  6  7  1  0
  7  8  1  0
  8  9  2  0
  8 10  1  0
 10 11  1  0
 11 12  1  0
 12 13  1  0
 13 14  1  0
 14 15  1  0
 15 16  2  0
 13 17  2  0
 16 17  1  0
 17 18  1  0
  7 19  1  0
  4 20  1  0
 19 20  1  0
M  END
