piperidine-amides-12269-covalent
     RDKit          3D

 24 25  0  0  0  0  0  0  0  0999 V2000
    7.1310   -3.2780   19.2490 C   0  0  0  0  0  0  0  0  0  0  0  0
    6.3220   -4.0190   20.2080 C   0  0  0  0  0  0  0  0  0  0  0  0
    5.2510   -4.5120   19.8630 O   0  0  0  0  0  0  0  0  0  0  0  0
    6.7990   -4.2310   21.5400 N   0  0  0  0  0  0  0  0  0  0  0  0
    7.6360   -3.2480   22.1720 C   0  0  0  0  0  0  0  0  0  0  0  0
    6.9120   -2.6930   23.3550 C   0  0  0  0  0  0  0  0  0  0  0  0
    5.7730   -3.6580   23.6690 C   0  0  0  0  0  0  0  0  0  0  0  0
    5.2000   -3.3710   25.0130 C   0  0  0  0  0  0  0  0  0  0  0  0
    4.0050   -3.0730   25.1920 O   0  0  0  0  0  0  0  0  0  0  0  0
    6.0600   -3.4290   26.1220 N   0  0  0  0  0  0  0  0  0  0  0  0
    5.6220   -4.0700   27.3410 C   0  0  2  0  0  0  0  0  0  0  0  0
    6.6560   -3.6310   28.3050 C   0  0  0  0  0  0  0  0  0  0  0  0
    7.9080   -3.7470   27.8400 C   0  0  0  0  0  0  0  0  0  0  0  0
    7.9940   -3.2330   26.5070 C   0  0  0  0  0  0  0  0  0  0  0  0
    8.5290   -4.0010   25.4770 C   0  0  0  0  0  0  0  0  0  0  0  0
    8.9760   -5.3230   25.8290 C   0  0  0  0  0  0  0  0  0  0  0  0
    8.9030   -5.8190   27.0810 C   0  0  0  0  0  0  0  0  0  0  0  0
    8.4650   -4.9930   28.0700 C   0  0  0  0  0  0  0  0  0  0  0  0
    5.2950   -5.3820   27.4420 C   0  0  0  0  0  0  0  0  0  0  0  0
    5.0350   -6.1900   26.3710 O   0  0  0  0  0  0  0  0  0  0  0  0
    5.1980   -5.9230   28.7160 O   0  0  0  0  0  0  0  0  0  0  0  0
    5.5480   -7.2260   29.0620 C   0  0  0  0  0  0  0  0  0  0  0  0
    6.1460   -5.1290   23.5500 C   0  0  0  0  0  0  0  0  0  0  0  0
    6.4770   -5.4460   22.2330 C   0  0  0  0  0  0  0  0  0  0  0  0
  1  2  1  0
  2  3  2  0
  2  4  1  0
  4  5  1  0
  5  6  1  0
  6  7  1  0
  7  8  1  0
  8  9  2  0
  8 10  1  0
 10 11  1  0
 11 12  1  1
 12 13  1  0
 13 14  1  0
 14 15  1  0
 15 16  1  0
 16 17  1  0
 13 18  1  0
 17 18  1  0
 11 19  1  0
 19 20  2  0
 19 21  1  0
 21 22  1  0
  7 23  1  0
  4 24  1  0
 23 24  1  0
M  END
