piperidine-amides-2728-covalent
     RDKit          3D

 25 27  0  0  0  0  0  0  0  0999 V2000
    7.1410   -3.3110   19.2130 C   0  0  0  0  0  0  0  0  0  0  0  0
    6.3520   -4.0330   20.1960 C   0  0  0  0  0  0  0  0  0  0  0  0
    5.2730   -4.5300   19.8820 O   0  0  0  0  0  0  0  0  0  0  0  0
    6.8770   -4.2190   21.5120 N   0  0  0  0  0  0  0  0  0  0  0  0
    7.6580   -3.1790   22.1170 C   0  0  0  0  0  0  0  0  0  0  0  0
    6.9140   -2.6130   23.2840 C   0  0  0  0  0  0  0  0  0  0  0  0
    6.5590   -3.7650   24.2080 C   0  0  0  0  0  0  0  0  0  0  0  0
    5.7990   -3.2520   25.3710 C   0  0  0  0  0  0  0  0  0  0  0  0
    4.5720   -3.0400   25.3190 O   0  0  0  0  0  0  0  0  0  0  0  0
    6.4970   -3.0060   26.5730 N   0  0  0  0  0  0  0  0  0  0  0  0
    6.2380   -1.8000   27.3160 C   0  0  0  0  0  0  0  0  0  0  0  0
    5.1870   -2.1730   28.3330 C   0  0  0  0  0  0  0  0  0  0  0  0
    4.4490   -3.3360   28.1770 C   0  0  0  0  0  0  0  0  0  0  0  0
    3.4740   -3.6970   29.1090 C   0  0  0  0  0  0  0  0  0  0  0  0
    3.2230   -2.9060   30.2030 C   0  0  0  0  0  0  0  0  0  0  0  0
    3.9640   -1.7070   30.3930 N   0  0  0  0  0  0  0  0  0  0  0  0
    4.9630   -1.3340   29.4380 C   0  0  0  0  0  0  0  0  0  0  0  0
    5.5940   -0.1750   29.7350 N   0  0  0  0  0  0  0  0  0  0  0  0
    6.5380   -0.2870   30.6960 C   0  0  0  0  0  0  0  0  0  0  0  0
    7.2350    0.8220   31.1140 C   0  0  0  0  0  0  0  0  0  0  0  0
    6.9260    2.0320   30.5140 C   0  0  0  0  0  0  0  0  0  0  0  0
    5.9610    1.9650   29.4100 C   0  0  0  0  0  0  0  0  0  0  0  0
    5.8400    0.7380   28.7660 C   0  0  0  0  0  0  0  0  0  0  0  0
    5.7200   -4.8050   23.5100 C   0  0  0  0  0  0  0  0  0  0  0  0
    6.3890   -5.3010   22.2740 C   0  0  0  0  0  0  0  0  0  0  0  0
  1  2  1  0
  2  3  2  0
  2  4  1  0
  4  5  1  0
  5  6  1  0
  6  7  1  0
  7  8  1  0
  8  9  2  0
  8 10  1  0
 10 11  1  0
 11 12  1  0
 12 13  2  0
 13 14  1  0
 14 15  2  0
 15 16  1  0
 12 17  1  0
 16 17  2  0
 17 18  1  0
 18 19  1  0
 19 20  1  0
 20 21  1  0
 21 22  1  0
 18 23  1  0
 22 23  1  0
  7 24  1  0
  4 25  1  0
 24 25  1  0
M  END
