piperidine-amides-29607-covalent
     RDKit          3D

 27 30  0  0  0  0  0  0  0  0999 V2000
    7.0240   -3.3590   19.4050 C   0  0  0  0  0  0  0  0  0  0  0  0
    6.3600   -4.2150   20.3840 C   0  0  0  0  0  0  0  0  0  0  0  0
    5.4110   -4.9070   20.0060 O   0  0  0  0  0  0  0  0  0  0  0  0
    6.8170   -4.3060   21.7600 N   0  0  0  0  0  0  0  0  0  0  0  0
    7.6160   -3.2580   22.3740 C   0  0  0  0  0  0  0  0  0  0  0  0
    7.1400   -2.9510   23.7840 C   0  0  0  0  0  0  0  0  0  0  0  0
    5.8160   -3.6840   23.9390 C   0  0  0  0  0  0  0  0  0  0  0  0
    4.9480   -3.3710   25.1490 C   0  0  0  0  0  0  0  0  0  0  0  0
    3.7450   -3.6540   25.0980 O   0  0  0  0  0  0  0  0  0  0  0  0
    5.3660   -2.7720   26.3750 N   0  0  0  0  0  0  0  0  0  0  0  0
    6.5830   -3.1880   26.8390 C   0  0  0  0  0  0  0  0  0  0  0  0
    6.2640   -4.4290   27.6740 C   0  0  0  0  0  0  0  0  0  0  0  0
    5.1030   -4.4520   28.3280 N   0  0  0  0  0  0  0  0  0  0  0  0
    5.0970   -5.2830   29.3810 C   0  0  0  0  0  0  0  0  0  0  0  0
    4.0640   -5.0900   30.2150 N   0  0  0  0  0  0  0  0  0  0  0  0
    4.1710   -6.0060   31.2580 C   0  0  0  0  0  0  0  0  0  0  0  0
    3.4110   -6.2660   32.3860 C   0  0  0  0  0  0  0  0  0  0  0  0
    3.8630   -7.3430   33.2690 C   0  0  0  0  0  0  0  0  0  0  0  0
    5.0040   -8.0520   32.9580 C   0  0  0  0  0  0  0  0  0  0  0  0
    5.7190   -7.7540   31.8260 C   0  0  0  0  0  0  0  0  0  0  0  0
    5.2680   -6.7330   31.0210 C   0  0  0  0  0  0  0  0  0  0  0  0
    5.8290   -6.2550   29.8370 O   0  0  0  0  0  0  0  0  0  0  0  0
    4.9520   -3.1940   28.7460 C   0  0  1  0  0  0  0  0  0  0  0  0
    5.9330   -2.4030   29.3250 C   0  0  0  0  0  0  0  0  0  0  0  0
    4.5170   -2.4630   27.5130 C   0  0  0  0  0  0  0  0  0  0  0  0
    6.0370   -5.1760   23.8530 C   0  0  0  0  0  0  0  0  0  0  0  0
    6.6540   -5.5430   22.4900 C   0  0  0  0  0  0  0  0  0  0  0  0
  1  2  1  0
  2  3  2  0
  2  4  1  0
  4  5  1  0
  5  6  1  0
  6  7  1  0
  7  8  1  0
  8  9  2  0
  8 10  1  0
 10 11  1  0
 11 12  1  0
 12 13  1  0
 13 14  1  0
 14 15  2  0
 15 16  1  0
 16 17  2  0
 17 18  1  0
 18 19  2  0
 19 20  1  0
 16 21  1  0
 20 21  2  0
 14 22  1  0
 21 22  1  0
 13 23  1  0
 23 24  1  6
 10 25  1  0
 23 25  1  0
  7 26  1  0
  4 27  1  0
 26 27  1  0
M  END
