piperidine-amides-24086-covalent
     RDKit          3D

 24 26  0  0  0  0  0  0  0  0999 V2000
    7.0850   -3.3640   19.3130 C   0  0  0  0  0  0  0  0  0  0  0  0
    6.4260   -4.1960   20.3290 C   0  0  0  0  0  0  0  0  0  0  0  0
    5.3800   -4.7990   19.9770 O   0  0  0  0  0  0  0  0  0  0  0  0
    6.9980   -4.3500   21.6160 N   0  0  0  0  0  0  0  0  0  0  0  0
    6.6930   -5.5220   22.3700 C   0  0  0  0  0  0  0  0  0  0  0  0
    6.1400   -5.1870   23.6610 C   0  0  0  0  0  0  0  0  0  0  0  0
    6.2080   -3.7410   23.8810 C   0  0  0  0  0  0  0  0  0  0  0  0
    5.6060   -3.2980   25.1730 C   0  0  0  0  0  0  0  0  0  0  0  0
    4.5680   -2.6190   25.1340 O   0  0  0  0  0  0  0  0  0  0  0  0
    6.1170   -3.6060   26.4360 N   0  0  0  0  0  0  0  0  0  0  0  0
    6.2160   -2.6190   27.4430 C   0  0  0  0  0  0  0  0  0  0  0  0
    6.2560   -3.0120   28.8500 C   0  0  0  0  0  0  0  0  0  0  0  0
    6.7170   -4.4670   28.9260 C   0  0  0  0  0  0  0  0  0  0  0  0
    5.9470   -5.2900   28.2810 C   0  0  0  0  0  0  0  0  0  0  0  0
    5.6080   -6.4600   29.1470 C   0  0  0  0  0  0  0  0  0  0  0  0
    4.7040   -7.2350   28.2710 C   0  0  0  0  0  0  0  0  0  0  0  0
    4.3680   -8.2880   29.1110 O   0  0  0  0  0  0  0  0  0  0  0  0
    3.2120   -8.1580   29.8250 C   0  0  0  0  0  0  0  0  0  0  0  0
    4.2180   -7.0480   26.9170 C   0  0  0  0  0  0  0  0  0  0  0  0
    3.3600   -7.8880   26.2430 F   0  0  0  0  0  0  0  0  0  0  0  0
    4.6830   -5.7940   26.1650 C   0  0  0  0  0  0  0  0  0  0  0  0
    5.6040   -4.8480   26.9150 C   0  0  0  0  0  0  0  0  0  0  0  0
    7.5940   -3.2630   23.6150 C   0  0  0  0  0  0  0  0  0  0  0  0
    7.7550   -3.2540   22.2270 C   0  0  0  0  0  0  0  0  0  0  0  0
  1  2  1  0
  2  3  2  0
  2  4  1  0
  4  5  1  0
  5  6  1  0
  6  7  1  0
  7  8  1  0
  8  9  2  0
  8 10  1  0
 10 11  1  0
 11 12  1  0
 12 13  1  0
 13 14  1  0
 14 15  2  0
 15 16  1  0
 16 17  1  0
 17 18  1  0
 16 19  2  0
 19 20  1  0
 19 21  1  0
 10 22  1  0
 14 22  1  0
 21 22  2  0
  7 23  1  0
  4 24  1  0
 23 24  1  0
M  END
