piperidine-amides-4024-covalent
     RDKit          3D

 28 29  0  0  0  0  0  0  0  0999 V2000
    7.1380   -3.2990   19.1840 C   0  0  0  0  0  0  0  0  0  0  0  0
    6.3440   -3.9920   20.2090 C   0  0  0  0  0  0  0  0  0  0  0  0
    5.2510   -4.4860   19.8560 O   0  0  0  0  0  0  0  0  0  0  0  0
    6.8320   -4.1410   21.5240 N   0  0  0  0  0  0  0  0  0  0  0  0
    7.6940   -3.1440   22.0340 C   0  0  0  0  0  0  0  0  0  0  0  0
    7.3700   -2.8470   23.3980 C   0  0  0  0  0  0  0  0  0  0  0  0
    6.0990   -3.4600   23.8050 C   0  0  0  0  0  0  0  0  0  0  0  0
    5.9250   -3.2500   25.2610 C   0  0  0  0  0  0  0  0  0  0  0  0
    4.7820   -3.0690   25.7310 O   0  0  0  0  0  0  0  0  0  0  0  0
    7.0630   -3.2400   26.0860 N   0  0  0  0  0  0  0  0  0  0  0  0
    7.6560   -2.1450   26.7340 C   0  0  0  0  0  0  0  0  0  0  0  0
    7.4390   -1.9330   28.1490 C   0  0  0  0  0  0  0  0  0  0  0  0
    6.5890   -3.1300   28.5080 C   0  0  0  0  0  0  0  0  0  0  0  0
    5.2740   -3.0360   28.9790 C   0  0  0  0  0  0  0  0  0  0  0  0
    4.6660   -4.4420   29.2470 C   0  0  0  0  0  0  0  0  0  0  0  0
    3.3600   -4.5480   29.7240 O   0  0  0  0  0  0  0  0  0  0  0  0
    2.7360   -3.3040   29.6420 C   0  0  0  0  0  0  0  0  0  0  0  0
    5.5280   -5.7020   28.9830 C   0  0  0  0  0  0  0  0  0  0  0  0
    5.0750   -6.8400   29.1980 O   0  0  0  0  0  0  0  0  0  0  0  0
    4.3570   -7.0950   30.4220 C   0  0  0  0  0  0  0  0  0  0  0  0
    3.2680   -7.9250   30.2880 F   0  0  0  0  0  0  0  0  0  0  0  0
    5.2610   -7.6000   31.3620 F   0  0  0  0  0  0  0  0  0  0  0  0
    6.9280   -5.5630   28.4640 C   0  0  0  0  0  0  0  0  0  0  0  0
    7.7970   -6.5650   28.1680 O   0  0  0  0  0  0  0  0  0  0  0  0
    8.9140   -6.1390   27.3460 C   0  0  0  0  0  0  0  0  0  0  0  0
    7.3710   -4.2000   28.2600 C   0  0  0  0  0  0  0  0  0  0  0  0
    5.9130   -4.9150   23.4540 C   0  0  0  0  0  0  0  0  0  0  0  0
    6.5740   -5.3240   22.2960 C   0  0  0  0  0  0  0  0  0  0  0  0
  1  2  1  0
  2  3  2  0
  2  4  1  0
  4  5  1  0
  5  6  1  0
  6  7  1  0
  7  8  1  0
  8  9  2  0
  8 10  1  0
 10 11  1  0
 11 12  1  0
 12 13  1  0
 13 14  2  0
 14 15  1  0
 15 16  1  0
 16 17  1  0
 15 18  2  0
 18 19  1  0
 19 20  1  0
 20 21  1  0
 20 22  1  0
 18 23  1  0
 23 24  1  0
 24 25  1  0
 13 26  1  0
 23 26  2  0
  7 27  1  0
  4 28  1  0
 27 28  1  0
M  END
