piperidine-amides-12843-covalent
     RDKit          3D

 21 21  0  0  0  0  0  0  0  0999 V2000
    7.0790   -3.3160   19.2300 C   0  0  0  0  0  0  0  0  0  0  0  0
    6.3850   -4.1080   20.2710 C   0  0  0  0  0  0  0  0  0  0  0  0
    5.3200   -4.6530   19.9260 O   0  0  0  0  0  0  0  0  0  0  0  0
    6.9330   -4.2840   21.5560 N   0  0  0  0  0  0  0  0  0  0  0  0
    6.5740   -5.4340   22.3140 C   0  0  0  0  0  0  0  0  0  0  0  0
    5.9750   -5.0870   23.5990 C   0  0  0  0  0  0  0  0  0  0  0  0
    5.9890   -3.6320   23.8470 C   0  0  0  0  0  0  0  0  0  0  0  0
    5.5050   -3.3150   25.2070 C   0  0  0  0  0  0  0  0  0  0  0  0
    4.3750   -2.7990   25.3140 O   0  0  0  0  0  0  0  0  0  0  0  0
    6.2760   -3.5790   26.3380 N   0  0  0  0  0  0  0  0  0  0  0  0
    5.7190   -4.2000   27.5580 C   0  0  0  0  0  0  0  0  0  0  0  0
    4.2340   -4.0840   27.5310 C   0  0  0  0  0  0  0  0  0  0  0  0
    6.0620   -5.6440   27.6920 C   0  0  0  0  0  0  0  0  0  0  0  0
    6.2920   -3.4230   28.6100 C   0  0  0  0  0  0  0  0  0  0  0  0
    5.3760   -2.8210   29.4970 N   0  0  0  0  0  0  0  0  0  0  0  0
    5.8560   -1.2030   29.6970 S   0  0  0  0  0  0  0  0  0  0  0  0
    7.5980   -1.1510   29.3310 C   0  0  0  0  0  0  0  0  0  0  0  0
    5.6190   -0.8170   31.1080 O   0  0  0  0  0  0  0  0  0  0  0  0
    5.1430   -0.3380   28.7260 O   0  0  0  0  0  0  0  0  0  0  0  0
    7.2680   -2.9700   23.4570 C   0  0  0  0  0  0  0  0  0  0  0  0
    7.6660   -3.2200   22.1770 C   0  0  0  0  0  0  0  0  0  0  0  0
  1  2  1  0
  2  3  2  0
  2  4  1  0
  4  5  1  0
  5  6  1  0
  6  7  1  0
  7  8  1  0
  8  9  2  0
  8 10  1  0
 11 10  1  0
 11 12  1  0
 11 13  1  0
 11 14  1  0
 14 15  1  0
 16 15  1  0
 16 17  1  0
 16 18  2  0
 16 19  2  0
  7 20  1  0
  4 21  1  0
 20 21  1  0
M  END
