piperidine-amides-7141-covalent
     RDKit          3D

 21 22  0  0  0  0  0  0  0  0999 V2000
    7.0860   -3.3180   19.3000 C   0  0  0  0  0  0  0  0  0  0  0  0
    6.4060   -4.1740   20.2800 C   0  0  0  0  0  0  0  0  0  0  0  0
    5.3740   -4.8070   19.9690 O   0  0  0  0  0  0  0  0  0  0  0  0
    6.9480   -4.3240   21.5590 N   0  0  0  0  0  0  0  0  0  0  0  0
    6.5500   -5.4360   22.3840 C   0  0  0  0  0  0  0  0  0  0  0  0
    5.6460   -4.8440   23.4730 C   0  0  0  0  0  0  0  0  0  0  0  0
    6.5100   -3.8810   24.2680 C   0  0  0  0  0  0  0  0  0  0  0  0
    5.7720   -3.3110   25.4130 C   0  0  0  0  0  0  0  0  0  0  0  0
    4.5240   -3.2410   25.3390 O   0  0  0  0  0  0  0  0  0  0  0  0
    6.4850   -2.8690   26.5580 N   0  0  0  0  0  0  0  0  0  0  0  0
    6.4440   -1.4990   27.0040 C   0  0  0  0  0  0  0  0  0  0  0  0
    5.8720   -0.3600   26.2140 C   0  0  0  0  0  0  0  0  0  0  0  0
    5.3570   -0.7130   24.9450 O   0  0  0  0  0  0  0  0  0  0  0  0
    5.8330    0.9300   26.6600 C   0  0  0  0  0  0  0  0  0  0  0  0
    6.4260    1.2700   27.8760 C   0  0  0  0  0  0  0  0  0  0  0  0
    6.4120    2.5740   28.3640 C   0  0  0  0  0  0  0  0  0  0  0  0
    7.0590    0.3000   28.6350 O   0  0  0  0  0  0  0  0  0  0  0  0
    6.9730   -1.0900   28.3260 C   0  0  0  0  0  0  0  0  0  0  0  0
    7.3730   -1.9980   29.2920 O   0  0  0  0  0  0  0  0  0  0  0  0
    6.9080   -2.7320   23.3490 C   0  0  0  0  0  0  0  0  0  0  0  0
    7.7080   -3.2770   22.2080 C   0  0  0  0  0  0  0  0  0  0  0  0
  1  2  1  0
  2  3  2  0
  2  4  1  0
  4  5  1  0
  5  6  1  0
  6  7  1  0
  7  8  1  0
  8  9  2  0
  8 10  1  0
 10 11  1  0
 11 12  2  0
 12 13  1  0
 12 14  1  0
 14 15  2  0
 15 16  1  0
 15 17  1  0
 11 18  1  0
 17 18  1  0
 18 19  2  0
  7 20  1  0
  4 21  1  0
 20 21  1  0
M  END
