piperidine-amides-35337-covalent
     RDKit          3D

 34 37  0  0  0  0  0  0  0  0999 V2000
    7.0270   -3.3600   19.3660 C   0  0  0  0  0  0  0  0  0  0  0  0
    6.3800   -4.2430   20.3760 C   0  0  0  0  0  0  0  0  0  0  0  0
    5.3960   -4.8750   19.9900 O   0  0  0  0  0  0  0  0  0  0  0  0
    6.8940   -4.3790   21.6770 N   0  0  0  0  0  0  0  0  0  0  0  0
    6.6130   -5.5400   22.4780 C   0  0  0  0  0  0  0  0  0  0  0  0
    5.9150   -5.1210   23.7480 C   0  0  0  0  0  0  0  0  0  0  0  0
    6.5770   -3.8670   24.3470 C   0  0  0  0  0  0  0  0  0  0  0  0
    5.7470   -3.3880   25.4970 C   0  0  0  0  0  0  0  0  0  0  0  0
    5.0390   -2.3880   25.3270 O   0  0  0  0  0  0  0  0  0  0  0  0
    5.6980   -4.0320   26.7670 N   0  0  0  0  0  0  0  0  0  0  0  0
    6.4230   -3.5840   27.8920 C   0  0  0  0  0  0  0  0  0  0  0  0
    6.6360   -4.8830   28.6620 C   0  0  0  0  0  0  0  0  0  0  0  0
    5.3940   -5.0230   29.4330 N   0  0  0  0  0  0  0  0  0  0  0  0
    5.0950   -6.4340   29.7880 C   0  0  2  0  0  0  0  0  0  0  0  0
    4.5320   -6.2510   31.0290 C   0  0  0  0  0  0  0  0  0  0  0  0
    5.0870   -6.9450   32.0440 C   0  0  0  0  0  0  0  0  0  0  0  0
    5.6410   -8.2810   31.7680 C   0  0  0  0  0  0  0  0  0  0  0  0
    6.3300   -8.4520   30.5390 N   0  0  0  0  0  0  0  0  0  0  0  0
    7.2330   -9.6430   30.1930 C   0  0  0  0  0  0  0  0  0  0  0  0
    7.9040   -9.6920   29.1110 O   0  0  0  0  0  0  0  0  0  0  0  0
    7.4820  -10.8180   30.8810 O   0  0  0  0  0  0  0  0  0  0  0  0
    8.5750  -11.6680   30.3510 C   0  0  0  0  0  0  0  0  0  0  0  0
    9.0520  -12.5020   31.5390 C   0  0  0  0  0  0  0  0  0  0  0  0
    8.0050  -12.9590   32.5060 C   0  0  0  0  0  0  0  0  0  0  0  0
    8.3500  -13.7810   33.7240 C   0  0  0  0  0  0  0  0  0  0  0  0
    9.7780  -14.1090   33.9180 C   0  0  0  0  0  0  0  0  0  0  0  0
   10.7380  -13.5920   32.8810 C   0  0  0  0  0  0  0  0  0  0  0  0
   10.3650  -12.8400   31.7710 C   0  0  0  0  0  0  0  0  0  0  0  0
    6.0340   -7.4350   29.5050 C   0  0  0  0  0  0  0  0  0  0  0  0
    4.4210   -4.2130   28.7650 C   0  0  0  0  0  0  0  0  0  0  0  0
    3.5950   -3.3190   29.4350 O   0  0  0  0  0  0  0  0  0  0  0  0
    4.4240   -4.4760   27.2460 C   0  0  0  0  0  0  0  0  0  0  0  0
    6.8470   -2.7330   23.3920 C   0  0  0  0  0  0  0  0  0  0  0  0
    7.6800   -3.2980   22.2400 C   0  0  0  0  0  0  0  0  0  0  0  0
  1  2  1  0
  2  3  2  0
  2  4  1  0
  4  5  1  0
  5  6  1  0
  6  7  1  0
  7  8  1  0
  8  9  2  0
  8 10  1  0
 10 11  1  0
 11 12  1  0
 12 13  1  0
 14 13  1  1
 14 15  1  0
 15 16  1  0
 16 17  1  0
 17 18  1  0
 18 19  1  0
 19 20  2  0
 19 21  1  0
 21 22  1  0
 22 23  1  0
 23 24  2  0
 24 25  1  0
 25 26  2  0
 26 27  1  0
 23 28  1  0
 27 28  2  0
 14 29  1  0
 18 29  1  0
 13 30  1  0
 30 31  2  0
 10 32  1  0
 30 32  1  0
  7 33  1  0
  4 34  1  0
 33 34  1  0
M  END
