piperidine-amides-23886-covalent
     RDKit          3D

 24 25  0  0  0  0  0  0  0  0999 V2000
    7.1040   -3.2780   19.1960 C   0  0  0  0  0  0  0  0  0  0  0  0
    6.3550   -4.0260   20.2230 C   0  0  0  0  0  0  0  0  0  0  0  0
    5.2610   -4.5200   19.8680 O   0  0  0  0  0  0  0  0  0  0  0  0
    6.8620   -4.2460   21.5250 N   0  0  0  0  0  0  0  0  0  0  0  0
    7.5920   -3.1890   22.1480 C   0  0  0  0  0  0  0  0  0  0  0  0
    7.3370   -2.9970   23.5690 C   0  0  0  0  0  0  0  0  0  0  0  0
    6.4610   -4.0070   24.2040 C   0  0  0  0  0  0  0  0  0  0  0  0
    5.7330   -3.4120   25.3750 C   0  0  0  0  0  0  0  0  0  0  0  0
    4.4880   -3.4280   25.3910 O   0  0  0  0  0  0  0  0  0  0  0  0
    6.4240   -2.8200   26.4510 N   0  0  0  0  0  0  0  0  0  0  0  0
    6.8750   -1.4850   26.4940 C   0  0  0  0  0  0  0  0  0  0  0  0
    6.1680   -3.3810   27.7650 C   0  0  0  0  0  0  0  0  0  0  0  0
    5.8160   -2.3860   28.8860 C   0  0  0  0  0  0  0  0  0  0  0  0
    4.4670   -2.2530   29.3130 C   0  0  0  0  0  0  0  0  0  0  0  0
    4.3700   -1.2010   30.4430 C   0  0  0  0  0  0  0  0  0  0  0  0
    2.9490   -1.0830   30.8720 C   0  0  0  0  0  0  0  0  0  0  0  0
    5.5540   -0.4260   31.0100 C   0  0  0  0  0  0  0  0  0  0  0  0
    5.3270    0.4980   32.0340 O   0  0  0  0  0  0  0  0  0  0  0  0
    5.1270    1.8810   31.7540 C   0  0  0  0  0  0  0  0  0  0  0  0
    6.8780   -0.7060   30.4330 C   0  0  0  0  0  0  0  0  0  0  0  0
    8.0490    0.0820   31.0220 C   0  0  0  0  0  0  0  0  0  0  0  0
    6.9510   -1.7160   29.3500 C   0  0  0  0  0  0  0  0  0  0  0  0
    5.5230   -4.6910   23.2680 C   0  0  0  0  0  0  0  0  0  0  0  0
    6.3210   -5.3030   22.3230 C   0  0  0  0  0  0  0  0  0  0  0  0
  1  2  1  0
  2  3  2  0
  2  4  1  0
  4  5  1  0
  5  6  1  0
  6  7  1  0
  7  8  1  0
  8  9  2  0
  8 10  1  0
 10 11  1  0
 10 12  1  0
 12 13  1  0
 13 14  2  0
 14 15  1  0
 15 16  1  0
 15 17  2  0
 17 18  1  0
 18 19  1  0
 17 20  1  0
 20 21  1  0
 13 22  1  0
 20 22  2  0
  7 23  1  0
  4 24  1  0
 23 24  1  0
M  END
