piperidine-amides-5361-covalent
     RDKit          3D

 21 22  0  0  0  0  0  0  0  0999 V2000
    7.1330   -3.2700   19.2010 C   0  0  0  0  0  0  0  0  0  0  0  0
    6.3690   -4.0240   20.1990 C   0  0  0  0  0  0  0  0  0  0  0  0
    5.2820   -4.5280   19.8750 O   0  0  0  0  0  0  0  0  0  0  0  0
    6.8620   -4.2410   21.4890 N   0  0  0  0  0  0  0  0  0  0  0  0
    6.5300   -5.4180   22.2560 C   0  0  0  0  0  0  0  0  0  0  0  0
    5.7790   -4.9080   23.4560 C   0  0  0  0  0  0  0  0  0  0  0  0
    6.5210   -3.7990   24.1490 C   0  0  0  0  0  0  0  0  0  0  0  0
    5.8080   -3.2620   25.3270 C   0  0  0  0  0  0  0  0  0  0  0  0
    4.5810   -2.9550   25.2430 O   0  0  0  0  0  0  0  0  0  0  0  0
    6.4330   -3.0700   26.5720 N   0  0  0  0  0  0  0  0  0  0  0  0
    6.1500   -3.9930   27.6940 C   0  0  0  0  0  0  0  0  0  0  0  0
    5.6200   -5.2640   27.1340 C   0  0  0  0  0  0  0  0  0  0  0  0
    5.3440   -6.1050   28.1340 N   0  0  0  0  0  0  0  0  0  0  0  0
    6.2550   -6.3390   29.1810 C   0  0  0  0  0  0  0  0  0  0  0  0
    7.4080   -5.9050   29.2190 O   0  0  0  0  0  0  0  0  0  0  0  0
    5.5820   -7.1920   30.2130 C   0  0  0  0  0  0  0  0  0  0  0  0
    4.2170   -7.4710   29.6460 C   0  0  0  0  0  0  0  0  0  0  0  0
    4.0050   -6.5070   28.5420 C   0  0  0  0  0  0  0  0  0  0  0  0
    2.9490   -6.0830   28.0170 O   0  0  0  0  0  0  0  0  0  0  0  0
    6.8350   -2.6970   23.1670 C   0  0  0  0  0  0  0  0  0  0  0  0
    7.6130   -3.1800   22.1200 C   0  0  0  0  0  0  0  0  0  0  0  0
  1  2  1  0
  2  3  2  0
  2  4  1  0
  4  5  1  0
  5  6  1  0
  6  7  1  0
  7  8  1  0
  8  9  2  0
  8 10  1  0
 10 11  1  0
 11 12  1  0
 12 13  1  0
 13 14  1  0
 14 15  2  0
 14 16  1  0
 16 17  1  0
 13 18  1  0
 17 18  1  0
 18 19  2  0
  7 20  1  0
  4 21  1  0
 20 21  1  0
M  END
