piperidine-amides-9055-covalent
     RDKit          3D

 21 22  0  0  0  0  0  0  0  0999 V2000
    7.1120   -3.2620   19.2050 C   0  0  0  0  0  0  0  0  0  0  0  0
    6.3460   -3.9810   20.2290 C   0  0  0  0  0  0  0  0  0  0  0  0
    5.3110   -4.5860   19.9000 O   0  0  0  0  0  0  0  0  0  0  0  0
    6.7860   -4.0350   21.5620 N   0  0  0  0  0  0  0  0  0  0  0  0
    7.7440   -3.0790   22.0830 C   0  0  0  0  0  0  0  0  0  0  0  0
    7.5440   -3.0620   23.5640 C   0  0  0  0  0  0  0  0  0  0  0  0
    6.1550   -3.4860   23.9130 C   0  0  0  0  0  0  0  0  0  0  0  0
    5.8530   -3.2200   25.3310 C   0  0  0  0  0  0  0  0  0  0  0  0
    4.6600   -3.2830   25.7540 O   0  0  0  0  0  0  0  0  0  0  0  0
    6.8680   -2.8730   26.2550 N   0  0  0  0  0  0  0  0  0  0  0  0
    6.9000   -3.4850   27.5960 C   0  0  0  0  0  0  0  0  0  0  0  0
    6.7210   -2.3900   28.5760 C   0  0  0  0  0  0  0  0  0  0  0  0
    7.6520   -1.2820   28.7000 C   0  0  0  0  0  0  0  0  0  0  0  0
    7.5150   -0.1570   29.6600 N   0  0  0  0  0  0  0  0  0  0  0  0
    6.2850   -0.2250   30.5640 C   0  0  0  0  0  0  0  0  0  0  0  0
    6.0390    1.1880   31.8320 Br  0  0  0  0  0  0  0  0  0  0  0  0
    5.2460   -1.3410   30.5210 C   0  0  0  0  0  0  0  0  0  0  0  0
    5.5850   -2.3270   29.5090 C   0  0  0  0  0  0  0  0  0  0  0  0
    5.1470   -3.5000   28.9620 C   0  0  0  0  0  0  0  0  0  0  0  0
    5.9130   -4.9430   23.5850 C   0  0  0  0  0  0  0  0  0  0  0  0
    6.6380   -5.2830   22.2960 C   0  0  0  0  0  0  0  0  0  0  0  0
  1  2  1  0
  2  3  2  0
  2  4  1  0
  4  5  1  0
  5  6  1  0
  6  7  1  0
  7  8  1  0
  8  9  2  0
  8 10  1  0
 10 11  1  0
 11 12  1  0
 12 13  2  0
 13 14  1  0
 14 15  2  0
 15 16  1  0
 15 17  1  0
 12 18  1  0
 17 18  2  0
 18 19  1  0
  7 20  1  0
  4 21  1  0
 20 21  1  0
M  END
