piperidine-amides-1040-covalent
     RDKit          3D

 24 26  0  0  0  0  0  0  0  0999 V2000
    7.0430   -3.2630   19.2360 C   0  0  0  0  0  0  0  0  0  0  0  0
    6.2580   -4.0510   20.2340 C   0  0  0  0  0  0  0  0  0  0  0  0
    5.2150   -4.6090   19.8800 O   0  0  0  0  0  0  0  0  0  0  0  0
    6.7210   -4.1820   21.5540 N   0  0  0  0  0  0  0  0  0  0  0  0
    7.5150   -3.1450   22.1560 C   0  0  0  0  0  0  0  0  0  0  0  0
    7.3620   -3.2960   23.6610 C   0  0  0  0  0  0  0  0  0  0  0  0
    6.0240   -3.8500   23.9600 C   0  0  0  0  0  0  0  0  0  0  0  0
    5.5670   -3.4670   25.3210 C   0  0  0  0  0  0  0  0  0  0  0  0
    4.3830   -3.1320   25.4170 O   0  0  0  0  0  0  0  0  0  0  0  0
    6.4520   -3.4770   26.4110 N   0  0  0  0  0  0  0  0  0  0  0  0
    6.6520   -4.4860   27.4100 C   0  0  2  0  0  0  0  0  0  0  0  0
    7.4460   -5.5960   27.2340 C   0  0  0  0  0  0  0  0  0  0  0  0
    5.3130   -5.0680   27.8780 C   0  0  0  0  0  0  0  0  0  0  0  0
    3.9280   -4.7200   27.6120 N   0  0  0  0  0  0  0  0  0  0  0  0
    3.0440   -5.4980   28.2300 C   0  0  0  0  0  0  0  0  0  0  0  0
    1.5580   -5.5610   28.2870 C   0  0  0  0  0  0  0  0  0  0  0  0
    0.8410   -6.6450   29.1460 C   0  0  0  0  0  0  0  0  0  0  0  0
    1.8590   -7.5650   29.8660 C   0  0  0  0  0  0  0  0  0  0  0  0
    3.2220   -7.4200   29.7460 C   0  0  0  0  0  0  0  0  0  0  0  0
    3.7930   -6.3660   28.9120 C   0  0  0  0  0  0  0  0  0  0  0  0
    5.1160   -6.1360   28.7270 N   0  0  0  0  0  0  0  0  0  0  0  0
    6.1370   -6.9250   29.3510 C   0  0  0  0  0  0  0  0  0  0  0  0
    6.1060   -5.2870   23.6790 C   0  0  0  0  0  0  0  0  0  0  0  0
    6.5920   -5.4580   22.2180 C   0  0  0  0  0  0  0  0  0  0  0  0
  1  2  1  0
  2  3  2  0
  2  4  1  0
  4  5  1  0
  5  6  1  0
  6  7  1  0
  7  8  1  0
  8  9  2  0
  8 10  1  0
 10 11  1  0
 11 12  1  6
 11 13  1  0
 13 14  2  0
 14 15  1  0
 15 16  2  0
 16 17  1  0
 17 18  2  0
 18 19  1  0
 15 20  1  0
 19 20  2  0
 13 21  1  0
 20 21  1  0
 21 22  1  0
  7 23  1  0
  4 24  1  0
 23 24  1  0
M  END
