piperidine-amides-33255-covalent
     RDKit          3D

 29 32  0  0  0  0  0  0  0  0999 V2000
    7.0690   -3.3480   19.3630 C   0  0  0  0  0  0  0  0  0  0  0  0
    6.4330   -4.1980   20.3810 C   0  0  0  0  0  0  0  0  0  0  0  0
    5.4300   -4.8590   19.9980 O   0  0  0  0  0  0  0  0  0  0  0  0
    6.9630   -4.2960   21.7080 N   0  0  0  0  0  0  0  0  0  0  0  0
    6.6160   -5.4270   22.5050 C   0  0  0  0  0  0  0  0  0  0  0  0
    6.1190   -5.0620   23.8300 C   0  0  0  0  0  0  0  0  0  0  0  0
    6.0770   -3.6070   24.0390 C   0  0  0  0  0  0  0  0  0  0  0  0
    5.4650   -3.1730   25.3520 C   0  0  0  0  0  0  0  0  0  0  0  0
    4.2450   -2.9320   25.3350 O   0  0  0  0  0  0  0  0  0  0  0  0
    6.1210   -3.0130   26.5980 N   0  0  0  0  0  0  0  0  0  0  0  0
    6.2990   -1.7580   27.2330 C   0  0  0  0  0  0  0  0  0  0  0  0
    6.9380   -1.6000   28.5670 C   0  0  0  0  0  0  0  0  0  0  0  0
    7.0900   -0.2030   29.2730 C   0  0  0  0  0  0  0  0  0  0  0  0
    6.5380    0.7280   28.4170 C   0  0  0  0  0  0  0  0  0  0  0  0
    6.6150    2.1460   28.9860 C   0  0  0  0  0  0  0  0  0  0  0  0
    5.1740    2.0080   29.3500 C   0  0  0  0  0  0  0  0  0  0  0  0
    5.8970    0.7360   27.1100 C   0  0  0  0  0  0  0  0  0  0  0  0
    5.7740   -0.5900   26.4870 C   0  0  0  0  0  0  0  0  0  0  0  0
    5.7250   -3.8580   27.6770 C   0  0  0  0  0  0  0  0  0  0  0  0
    6.2220   -5.0520   28.0940 N   0  0  0  0  0  0  0  0  0  0  0  0
    5.6390   -5.6310   29.2100 C   0  0  0  0  0  0  0  0  0  0  0  0
    6.0180   -6.9170   29.8530 C   0  0  0  0  0  0  0  0  0  0  0  0
    5.3240   -7.3610   31.0070 C   0  0  0  0  0  0  0  0  0  0  0  0
    4.2760   -6.6130   31.5470 C   0  0  0  0  0  0  0  0  0  0  0  0
    3.9160   -5.3210   30.8650 C   0  0  0  0  0  0  0  0  0  0  0  0
    4.6550   -4.9890   29.7700 C   0  0  0  0  0  0  0  0  0  0  0  0
    4.4280   -3.5790   28.8640 S   0  0  0  0  0  0  0  0  0  0  0  0
    7.4550   -3.0690   23.7610 C   0  0  0  0  0  0  0  0  0  0  0  0
    7.7290   -3.1860   22.2640 C   0  0  0  0  0  0  0  0  0  0  0  0
  1  2  1  0
  2  3  2  0
  2  4  1  0
  4  5  1  0
  5  6  1  0
  6  7  1  0
  7  8  1  0
  8  9  2  0
  8 10  1  0
 10 11  1  0
 11 12  2  0
 12 13  1  0
 13 14  2  0
 14 15  1  0
 15 16  1  0
 14 17  1  0
 11 18  1  0
 17 18  2  0
 10 19  1  0
 19 20  2  0
 20 21  1  0
 21 22  2  0
 22 23  1  0
 23 24  2  0
 24 25  1  0
 21 26  1  0
 25 26  2  0
 19 27  1  0
 26 27  1  0
  7 28  1  0
  4 29  1  0
 28 29  1  0
M  END
