piperidine-amides-7012-covalent
     RDKit          3D

 22 23  0  0  0  0  0  0  0  0999 V2000
    7.1050   -3.3130   19.2900 C   0  0  0  0  0  0  0  0  0  0  0  0
    6.3630   -4.0990   20.2860 C   0  0  0  0  0  0  0  0  0  0  0  0
    5.3240   -4.7040   19.9440 O   0  0  0  0  0  0  0  0  0  0  0  0
    6.8350   -4.2220   21.6020 N   0  0  0  0  0  0  0  0  0  0  0  0
    6.6060   -5.4680   22.3150 C   0  0  0  0  0  0  0  0  0  0  0  0
    6.1150   -5.1550   23.7460 C   0  0  0  0  0  0  0  0  0  0  0  0
    5.9940   -3.6570   23.8760 C   0  0  0  0  0  0  0  0  0  0  0  0
    5.5170   -3.2890   25.2200 C   0  0  0  0  0  0  0  0  0  0  0  0
    4.3630   -2.8290   25.3180 O   0  0  0  0  0  0  0  0  0  0  0  0
    6.3420   -3.4560   26.3510 N   0  0  0  0  0  0  0  0  0  0  0  0
    5.8400   -4.1170   27.5260 C   0  0  0  0  0  0  0  0  0  0  0  0
    5.9580   -5.6210   27.3340 C   0  0  0  0  0  0  0  0  0  0  0  0
    6.6870   -3.6930   28.6500 C   0  0  0  0  0  0  0  0  0  0  0  0
    4.4800   -3.7120   27.8760 C   0  0  0  0  0  0  0  0  0  0  0  0
    4.1050   -2.7550   28.8440 N   0  0  0  0  0  0  0  0  0  0  0  0
    2.7740   -2.5420   29.0100 C   0  0  0  0  0  0  0  0  0  0  0  0
    2.3290   -1.6310   29.9340 C   0  0  0  0  0  0  0  0  0  0  0  0
    1.7930   -3.3330   28.1550 C   0  0  0  0  0  0  0  0  0  0  0  0
    0.2860   -3.2200   28.2130 C   0  0  0  0  0  0  0  0  0  0  0  0
    2.9360   -4.3130   27.1910 S   0  0  0  0  0  0  0  0  0  0  0  0
    7.2340   -2.9380   23.5630 C   0  0  0  0  0  0  0  0  0  0  0  0
    7.6420   -3.2070   22.1990 C   0  0  0  0  0  0  0  0  0  0  0  0
  1  2  1  0
  2  3  2  0
  2  4  1  0
  4  5  1  0
  5  6  1  0
  6  7  1  0
  7  8  1  0
  8  9  2  0
  8 10  1  0
 11 10  1  0
 11 12  1  0
 11 13  1  0
 11 14  1  0
 14 15  2  0
 15 16  1  0
 16 17  1  0
 16 18  2  0
 18 19  1  0
 14 20  1  0
 18 20  1  0
  7 21  1  0
  4 22  1  0
 21 22  1  0
M  END
