piperidine-amides-14464-covalent
     RDKit          3D

 23 24  0  0  0  0  0  0  0  0999 V2000
    7.0600   -3.2340   19.2090 C   0  0  0  0  0  0  0  0  0  0  0  0
    6.3140   -4.0030   20.2130 C   0  0  0  0  0  0  0  0  0  0  0  0
    5.2530   -4.5480   19.8720 O   0  0  0  0  0  0  0  0  0  0  0  0
    6.8050   -4.1550   21.5260 N   0  0  0  0  0  0  0  0  0  0  0  0
    7.6740   -3.1490   22.0690 C   0  0  0  0  0  0  0  0  0  0  0  0
    7.4030   -2.8600   23.5280 C   0  0  0  0  0  0  0  0  0  0  0  0
    6.2100   -3.6470   24.0450 C   0  0  0  0  0  0  0  0  0  0  0  0
    6.0710   -3.4110   25.5140 C   0  0  0  0  0  0  0  0  0  0  0  0
    4.9280   -3.2090   25.9260 O   0  0  0  0  0  0  0  0  0  0  0  0
    7.2380   -3.4280   26.2920 N   0  0  0  0  0  0  0  0  0  0  0  0
    7.8630   -4.6400   26.7230 C   0  0  0  0  0  0  0  0  0  0  0  0
    9.2770   -4.6440   26.7200 C   0  0  0  0  0  0  0  0  0  0  0  0
   10.0150   -4.3910   25.5640 C   0  0  0  0  0  0  0  0  0  0  0  0
   10.7670   -3.1540   25.5050 N   0  0  0  0  0  0  0  0  0  0  0  0
   10.3040   -2.2430   24.5380 C   0  0  0  0  0  0  0  0  0  0  0  0
   11.3080   -1.2000   24.1810 C   0  0  0  0  0  0  0  0  0  0  0  0
   12.7160   -1.7890   24.0100 C   0  0  0  0  0  0  0  0  0  0  0  0
   13.4030   -1.1120   23.2080 O   0  0  0  0  0  0  0  0  0  0  0  0
   13.1240   -2.8830   24.6400 N   0  0  0  0  0  0  0  0  0  0  0  0
   12.1820   -3.4570   25.5580 C   0  0  0  0  0  0  0  0  0  0  0  0
   12.7250   -4.3000   26.4900 O   0  0  0  0  0  0  0  0  0  0  0  0
    6.2860   -5.0830   23.6750 C   0  0  0  0  0  0  0  0  0  0  0  0
    6.5600   -5.3920   22.2030 C   0  0  0  0  0  0  0  0  0  0  0  0
  1  2  1  0
  2  3  2  0
  2  4  1  0
  4  5  1  0
  5  6  1  0
  6  7  1  0
  7  8  1  0
  8  9  2  0
  8 10  1  0
 10 11  1  0
 11 12  1  0
 12 13  1  0
 13 14  1  0
 14 15  1  0
 15 16  1  0
 16 17  1  0
 17 18  2  0
 17 19  1  0
 14 20  1  0
 19 20  1  0
 20 21  2  0
  7 22  1  0
  4 23  1  0
 22 23  1  0
M  END
