piperidine-amides-23718-covalent
     RDKit          3D

 24 26  0  0  0  0  0  0  0  0999 V2000
    7.1430   -3.2850   19.2680 C   0  0  0  0  0  0  0  0  0  0  0  0
    6.3550   -4.0160   20.2740 C   0  0  0  0  0  0  0  0  0  0  0  0
    5.2760   -4.5240   19.8810 O   0  0  0  0  0  0  0  0  0  0  0  0
    6.8170   -4.1930   21.6030 N   0  0  0  0  0  0  0  0  0  0  0  0
    7.6590   -3.1970   22.1860 C   0  0  0  0  0  0  0  0  0  0  0  0
    7.2700   -2.9040   23.5420 C   0  0  0  0  0  0  0  0  0  0  0  0
    6.0790   -3.6810   23.9070 C   0  0  0  0  0  0  0  0  0  0  0  0
    5.5300   -3.3230   25.2510 C   0  0  0  0  0  0  0  0  0  0  0  0
    4.2970   -3.2800   25.4020 O   0  0  0  0  0  0  0  0  0  0  0  0
    6.3420   -3.0240   26.3570 N   0  0  0  0  0  0  0  0  0  0  0  0
    6.7700   -1.7230   26.7150 C   0  0  0  0  0  0  0  0  0  0  0  0
    6.1330   -3.9020   27.4900 C   0  0  0  0  0  0  0  0  0  0  0  0
    5.7450   -5.3780   27.2380 C   0  0  0  0  0  0  0  0  0  0  0  0
    5.4770   -6.0440   28.4000 C   0  0  0  0  0  0  0  0  0  0  0  0
    4.1690   -6.7790   28.0110 C   0  0  0  0  0  0  0  0  0  0  0  0
    3.5590   -7.6350   29.1420 C   0  0  0  0  0  0  0  0  0  0  0  0
    4.3940   -7.5750   30.4450 C   0  0  0  0  0  0  0  0  0  0  0  0
    5.6110   -6.8540   30.6890 C   0  0  0  0  0  0  0  0  0  0  0  0
    6.1280   -6.0650   29.5570 C   0  0  0  0  0  0  0  0  0  0  0  0
    6.1140   -6.9960   31.9370 O   0  0  0  0  0  0  0  0  0  0  0  0
    5.1100   -7.8510   32.4900 C   0  0  0  0  0  0  0  0  0  0  0  0
    4.1890   -8.1420   31.5800 O   0  0  0  0  0  0  0  0  0  0  0  0
    6.3410   -5.1440   23.7230 C   0  0  0  0  0  0  0  0  0  0  0  0
    6.5200   -5.4060   22.3510 C   0  0  0  0  0  0  0  0  0  0  0  0
  1  2  1  0
  2  3  2  0
  2  4  1  0
  4  5  1  0
  5  6  1  0
  6  7  1  0
  7  8  1  0
  8  9  2  0
  8 10  1  0
 10 11  1  0
 10 12  1  0
 12 13  1  0
 13 14  1  0
 14 15  2  0
 15 16  1  0
 16 17  2  0
 17 18  1  0
 14 19  1  0
 18 19  2  0
 18 20  1  0
 20 21  1  0
 17 22  1  0
 21 22  1  0
  7 23  1  0
  4 24  1  0
 23 24  1  0
M  END
