piperidine-amides-23286-covalent
     RDKit          3D

 24 26  0  0  0  0  0  0  0  0999 V2000
    7.1290   -3.3310   19.3430 C   0  0  0  0  0  0  0  0  0  0  0  0
    6.3930   -4.1270   20.3320 C   0  0  0  0  0  0  0  0  0  0  0  0
    5.3270   -4.6620   19.9370 O   0  0  0  0  0  0  0  0  0  0  0  0
    6.8970   -4.3280   21.6430 N   0  0  0  0  0  0  0  0  0  0  0  0
    6.4010   -5.4150   22.3990 C   0  0  0  0  0  0  0  0  0  0  0  0
    5.9880   -5.0400   23.7480 C   0  0  0  0  0  0  0  0  0  0  0  0
    6.5990   -3.7960   24.2740 C   0  0  0  0  0  0  0  0  0  0  0  0
    5.7220   -3.1780   25.3230 C   0  0  0  0  0  0  0  0  0  0  0  0
    4.5880   -2.7800   25.0030 O   0  0  0  0  0  0  0  0  0  0  0  0
    6.1470   -3.0450   26.6550 N   0  0  0  0  0  0  0  0  0  0  0  0
    6.5310   -4.1660   27.4570 C   0  0  0  0  0  0  0  0  0  0  0  0
    5.6300   -5.2750   27.7680 C   0  0  0  0  0  0  0  0  0  0  0  0
    4.3660   -5.1720   26.9160 C   0  0  0  0  0  0  0  0  0  0  0  0
    3.3200   -6.0410   26.9390 C   0  0  0  0  0  0  0  0  0  0  0  0
    3.4630   -7.2010   27.9110 C   0  0  0  0  0  0  0  0  0  0  0  0
    4.7630   -7.1340   28.6580 C   0  0  0  0  0  0  0  0  0  0  0  0
    5.8210   -6.2830   28.6590 N   0  0  0  0  0  0  0  0  0  0  0  0
    6.5980   -1.7180   27.0740 C   0  0  0  0  0  0  0  0  0  0  0  0
    5.6160   -0.7050   26.5550 C   0  0  0  0  0  0  0  0  0  0  0  0
    5.7290    0.3570   27.6000 C   0  0  0  0  0  0  0  0  0  0  0  0
    6.4020   -0.2370   28.8410 C   0  0  0  0  0  0  0  0  0  0  0  0
    6.8660   -1.6430   28.5640 C   0  0  0  0  0  0  0  0  0  0  0  0
    6.9050   -2.7730   23.2260 C   0  0  0  0  0  0  0  0  0  0  0  0
    7.7330   -3.3450   22.2860 C   0  0  0  0  0  0  0  0  0  0  0  0
  1  2  1  0
  2  3  2  0
  2  4  1  0
  4  5  1  0
  5  6  1  0
  6  7  1  0
  7  8  1  0
  8  9  2  0
  8 10  1  0
 10 11  1  0
 11 12  1  0
 12 13  2  0
 13 14  1  0
 14 15  2  0
 15 16  1  0
 12 17  1  0
 16 17  2  0
 10 18  1  0
 18 19  1  0
 19 20  1  0
 20 21  1  0
 18 22  1  0
 21 22  1  0
  7 23  1  0
  4 24  1  0
 23 24  1  0
M  END
