piperidine-amides-2237-covalent
     RDKit          3D

 28 30  0  0  0  0  0  0  0  0999 V2000
    7.0650   -3.3010   19.2810 C   0  0  0  0  0  0  0  0  0  0  0  0
    6.3630   -4.1070   20.3150 C   0  0  0  0  0  0  0  0  0  0  0  0
    5.3550   -4.7100   19.9500 O   0  0  0  0  0  0  0  0  0  0  0  0
    6.8740   -4.1950   21.6210 N   0  0  0  0  0  0  0  0  0  0  0  0
    7.6950   -3.1420   22.1760 C   0  0  0  0  0  0  0  0  0  0  0  0
    7.4090   -2.9930   23.6450 C   0  0  0  0  0  0  0  0  0  0  0  0
    6.0310   -3.5850   23.9460 C   0  0  0  0  0  0  0  0  0  0  0  0
    5.6000   -3.2020   25.3130 C   0  0  0  0  0  0  0  0  0  0  0  0
    4.5410   -2.5750   25.4400 O   0  0  0  0  0  0  0  0  0  0  0  0
    6.3400   -3.5190   26.4710 N   0  0  0  0  0  0  0  0  0  0  0  0
    5.6250   -4.0280   27.6220 C   0  0  2  0  0  0  0  0  0  0  0  0
    6.5390   -4.8010   28.5480 C   0  0  0  0  0  0  0  0  0  0  0  0
    4.5380   -4.9740   27.2230 C   0  0  0  0  0  0  0  0  0  0  0  0
    3.5360   -4.5300   27.9960 C   0  0  0  0  0  0  0  0  0  0  0  0
    2.3240   -5.1510   27.9280 C   0  0  0  0  0  0  0  0  0  0  0  0
    1.9660   -6.3400   27.0380 C   0  0  0  0  0  0  0  0  0  0  0  0
    0.7060   -6.8860   27.0510 O   0  0  0  0  0  0  0  0  0  0  0  0
    0.4200   -7.8130   28.0580 C   0  0  0  0  0  0  0  0  0  0  0  0
    1.0400   -9.1690   27.8220 C   0  0  0  0  0  0  0  0  0  0  0  0
    0.7440  -10.1730   28.9010 C   0  0  0  0  0  0  0  0  0  0  0  0
   -0.0910   -9.8510   30.0950 C   0  0  0  0  0  0  0  0  0  0  0  0
   -0.6530   -8.5950   30.2890 N   0  0  0  0  0  0  0  0  0  0  0  0
   -0.3890   -7.6400   29.2930 C   0  0  0  0  0  0  0  0  0  0  0  0
    3.1810   -6.7950   26.1740 C   0  0  0  0  0  0  0  0  0  0  0  0
    3.1150   -7.8280   25.3040 F   0  0  0  0  0  0  0  0  0  0  0  0
    4.4680   -6.0230   26.3450 C   0  0  0  0  0  0  0  0  0  0  0  0
    6.1200   -5.0780   23.7660 C   0  0  0  0  0  0  0  0  0  0  0  0
    6.5870   -5.3930   22.3640 C   0  0  0  0  0  0  0  0  0  0  0  0
  1  2  1  0
  2  3  2  0
  2  4  1  0
  4  5  1  0
  5  6  1  0
  6  7  1  0
  7  8  1  0
  8  9  2  0
  8 10  1  0
 10 11  1  0
 11 12  1  1
 11 13  1  0
 13 14  2  0
 14 15  1  0
 15 16  2  0
 16 17  1  0
 17 18  1  0
 18 19  2  0
 19 20  1  0
 20 21  2  0
 21 22  1  0
 18 23  1  0
 22 23  2  0
 16 24  1  0
 24 25  1  0
 13 26  1  0
 24 26  2  0
  7 27  1  0
  4 28  1  0
 27 28  1  0
M  END
