piperidine-amides-29845-covalent
     RDKit          3D

 27 30  0  0  0  0  0  0  0  0999 V2000
    7.0660   -3.3790   19.3180 C   0  0  0  0  0  0  0  0  0  0  0  0
    6.3460   -4.1850   20.2900 C   0  0  0  0  0  0  0  0  0  0  0  0
    5.3210   -4.7720   19.9580 O   0  0  0  0  0  0  0  0  0  0  0  0
    6.8660   -4.3440   21.6180 N   0  0  0  0  0  0  0  0  0  0  0  0
    7.6610   -3.3030   22.2120 C   0  0  0  0  0  0  0  0  0  0  0  0
    6.9940   -2.7780   23.4450 C   0  0  0  0  0  0  0  0  0  0  0  0
    6.5560   -3.9470   24.3160 C   0  0  0  0  0  0  0  0  0  0  0  0
    5.6770   -3.4300   25.3980 C   0  0  0  0  0  0  0  0  0  0  0  0
    4.4330   -3.3920   25.2980 O   0  0  0  0  0  0  0  0  0  0  0  0
    6.2780   -2.9510   26.5860 N   0  0  0  0  0  0  0  0  0  0  0  0
    7.1840   -3.8460   27.2790 C   0  0  0  0  0  0  0  0  0  0  0  0
    8.5150   -3.7360   26.5880 C   0  0  0  0  0  0  0  0  0  0  0  0
    9.3340   -4.8550   26.4700 C   0  0  0  0  0  0  0  0  0  0  0  0
   10.5710   -4.7810   25.8270 C   0  0  0  0  0  0  0  0  0  0  0  0
   11.0010   -3.5970   25.3050 C   0  0  0  0  0  0  0  0  0  0  0  0
   10.1470   -2.4920   25.4430 C   0  0  0  0  0  0  0  0  0  0  0  0
    8.9350   -2.5220   26.0600 C   0  0  0  0  0  0  0  0  0  0  0  0
   10.7420   -1.5260   24.8880 O   0  0  0  0  0  0  0  0  0  0  0  0
   11.9650   -2.0440   24.3470 C   0  0  0  0  0  0  0  0  0  0  0  0
   12.1610   -3.2660   24.6370 O   0  0  0  0  0  0  0  0  0  0  0  0
    6.5190   -1.5460   26.7600 C   0  0  0  0  0  0  0  0  0  0  0  0
    5.3800   -0.6420   26.6250 C   0  0  0  0  0  0  0  0  0  0  0  0
    5.3260    0.2840   27.6560 C   0  0  0  0  0  0  0  0  0  0  0  0
    6.3060   -0.1210   28.5670 C   0  0  0  0  0  0  0  0  0  0  0  0
    7.0730   -1.2450   27.9560 C   0  0  0  0  0  0  0  0  0  0  0  0
    5.7620   -5.0140   23.6160 C   0  0  0  0  0  0  0  0  0  0  0  0
    6.5250   -5.4880   22.3990 C   0  0  0  0  0  0  0  0  0  0  0  0
  1  2  1  0
  2  3  2  0
  2  4  1  0
  4  5  1  0
  5  6  1  0
  6  7  1  0
  7  8  1  0
  8  9  2  0
  8 10  1  0
 10 11  1  0
 11 12  1  0
 12 13  2  0
 13 14  1  0
 14 15  2  0
 15 16  1  0
 12 17  1  0
 16 17  2  0
 16 18  1  0
 18 19  1  0
 15 20  1  0
 19 20  1  0
 10 21  1  0
 21 22  1  0
 22 23  1  0
 23 24  1  0
 21 25  1  0
 24 25  1  0
  7 26  1  0
  4 27  1  0
 26 27  1  0
M  END
