piperidine-amides-27597-covalent
     RDKit          3D

 25 26  0  0  0  0  0  0  0  0999 V2000
    7.0820   -3.3680   19.3790 C   0  0  0  0  0  0  0  0  0  0  0  0
    6.4420   -4.2530   20.3560 C   0  0  0  0  0  0  0  0  0  0  0  0
    5.3800   -4.8190   19.9780 O   0  0  0  0  0  0  0  0  0  0  0  0
    7.0280   -4.4980   21.6060 N   0  0  0  0  0  0  0  0  0  0  0  0
    6.6380   -5.6060   22.4250 C   0  0  0  0  0  0  0  0  0  0  0  0
    5.7280   -5.0760   23.5000 C   0  0  0  0  0  0  0  0  0  0  0  0
    6.2290   -3.8060   24.1680 C   0  0  0  0  0  0  0  0  0  0  0  0
    5.1350   -3.2340   24.9980 C   0  0  0  0  0  0  0  0  0  0  0  0
    4.1170   -2.8100   24.4260 O   0  0  0  0  0  0  0  0  0  0  0  0
    5.2080   -3.1490   26.3880 N   0  0  0  0  0  0  0  0  0  0  0  0
    6.4340   -3.5320   26.8430 C   0  0  0  0  0  0  0  0  0  0  0  0
    6.4910   -3.4010   28.3220 C   0  0  1  0  0  0  0  0  0  0  0  0
    6.0670   -2.2020   28.8390 C   0  0  0  0  0  0  0  0  0  0  0  0
    5.1900   -1.3510   28.1170 O   0  0  0  0  0  0  0  0  0  0  0  0
    6.5440   -1.9130   30.0710 O   0  0  0  0  0  0  0  0  0  0  0  0
    7.5670   -0.9580   30.2280 C   0  0  0  0  0  0  0  0  0  0  0  0
    5.6780   -4.2750   28.9090 C   0  0  0  0  0  0  0  0  0  0  0  0
    4.6960   -4.7860   28.1260 C   0  0  0  0  0  0  0  0  0  0  0  0
    5.0400   -5.9160   27.3980 O   0  0  0  0  0  0  0  0  0  0  0  0
    4.5420   -7.1990   27.7780 C   0  0  0  0  0  0  0  0  0  0  0  0
    3.7210   -5.0970   29.0560 O   0  0  0  0  0  0  0  0  0  0  0  0
    3.0270   -3.9900   29.6060 C   0  0  0  0  0  0  0  0  0  0  0  0
    4.1880   -3.6690   27.2390 C   0  0  0  0  0  0  0  0  0  0  0  0
    6.7630   -2.7560   23.1790 C   0  0  0  0  0  0  0  0  0  0  0  0
    7.7700   -3.4480   22.2880 C   0  0  0  0  0  0  0  0  0  0  0  0
  1  2  1  0
  2  3  2  0
  2  4  1  0
  4  5  1  0
  5  6  1  0
  6  7  1  0
  7  8  1  0
  8  9  2  0
  8 10  1  0
 10 11  1  0
 11 12  1  0
 12 13  1  6
 13 14  2  0
 13 15  1  0
 15 16  1  0
 12 17  1  0
 17 18  1  0
 18 19  1  0
 19 20  1  0
 18 21  1  0
 21 22  1  0
 10 23  1  0
 18 23  1  0
  7 24  1  0
  4 25  1  0
 24 25  1  0
M  END
