piperidine-amides-6741-covalent
     RDKit          3D

 23 25  0  0  0  0  0  0  0  0999 V2000
    7.0950   -3.2850   19.2830 C   0  0  0  0  0  0  0  0  0  0  0  0
    6.3970   -4.1140   20.2810 C   0  0  0  0  0  0  0  0  0  0  0  0
    5.3650   -4.7450   19.9560 O   0  0  0  0  0  0  0  0  0  0  0  0
    6.9050   -4.2410   21.5840 N   0  0  0  0  0  0  0  0  0  0  0  0
    7.6670   -3.1710   22.1800 C   0  0  0  0  0  0  0  0  0  0  0  0
    6.8210   -2.6210   23.3330 C   0  0  0  0  0  0  0  0  0  0  0  0
    6.4140   -3.8070   24.1850 C   0  0  0  0  0  0  0  0  0  0  0  0
    5.5100   -3.3990   25.2850 C   0  0  0  0  0  0  0  0  0  0  0  0
    4.4710   -4.0610   25.4540 O   0  0  0  0  0  0  0  0  0  0  0  0
    5.7900   -2.2820   26.1100 N   0  0  0  0  0  0  0  0  0  0  0  0
    6.5790   -2.4210   27.2890 C   0  0  0  0  0  0  0  0  0  0  0  0
    5.8850   -1.8420   28.5050 C   0  0  0  0  0  0  0  0  0  0  0  0
    6.1560   -0.8050   29.3190 C   0  0  0  0  0  0  0  0  0  0  0  0
    5.2220   -0.6980   30.2810 C   0  0  0  0  0  0  0  0  0  0  0  0
    5.2510    0.2910   31.2660 C   0  0  0  0  0  0  0  0  0  0  0  0
    6.4440    0.9120   31.5500 C   0  0  0  0  0  0  0  0  0  0  0  0
    6.5520    1.7770   32.7980 C   0  0  0  0  0  0  0  0  0  0  0  0
    6.3910    0.2860   33.0290 C   0  0  0  0  0  0  0  0  0  0  0  0
    5.0450   -0.1490   32.5440 C   0  0  0  0  0  0  0  0  0  0  0  0
    4.2810   -1.7050   30.1110 O   0  0  0  0  0  0  0  0  0  0  0  0
    4.6450   -2.4220   29.0420 N   0  0  0  0  0  0  0  0  0  0  0  0
    5.6760   -4.8480   23.3650 C   0  0  0  0  0  0  0  0  0  0  0  0
    6.5600   -5.3650   22.4110 C   0  0  0  0  0  0  0  0  0  0  0  0
  1  2  1  0
  2  3  2  0
  2  4  1  0
  4  5  1  0
  5  6  1  0
  6  7  1  0
  7  8  1  0
  8  9  2  0
  8 10  1  0
 10 11  1  0
 11 12  1  0
 12 13  1  0
 13 14  2  0
 14 15  1  0
 15 16  1  0
 16 17  1  0
 17 18  1  0
 15 19  1  0
 18 19  1  0
 14 20  1  0
 12 21  2  0
 20 21  1  0
  7 22  1  0
  4 23  1  0
 22 23  1  0
M  END
