piperidine-amides-15419-covalent
     RDKit          3D

 18 19  0  0  0  0  0  0  0  0999 V2000
    7.0640   -3.3180   19.3460 C   0  0  0  0  0  0  0  0  0  0  0  0
    6.3830   -4.1760   20.3260 C   0  0  0  0  0  0  0  0  0  0  0  0
    5.3830   -4.8470   19.9840 O   0  0  0  0  0  0  0  0  0  0  0  0
    6.8730   -4.2840   21.6370 N   0  0  0  0  0  0  0  0  0  0  0  0
    6.6210   -5.4710   22.4160 C   0  0  0  0  0  0  0  0  0  0  0  0
    5.8620   -5.0090   23.6650 C   0  0  0  0  0  0  0  0  0  0  0  0
    6.6630   -3.8740   24.2780 C   0  0  0  0  0  0  0  0  0  0  0  0
    5.8930   -3.2890   25.3930 C   0  0  0  0  0  0  0  0  0  0  0  0
    4.7050   -2.9600   25.1830 O   0  0  0  0  0  0  0  0  0  0  0  0
    6.5030   -3.1210   26.6570 N   0  0  0  0  0  0  0  0  0  0  0  0
    6.7360   -4.2820   27.4800 C   0  0  0  0  0  0  0  0  0  0  0  0
    6.4670   -1.8160   27.3030 C   0  0  0  0  0  0  0  0  0  0  0  0
    6.0480   -0.7520   26.5980 C   0  0  0  0  0  0  0  0  0  0  0  0
    5.9900    0.5220   27.1710 C   0  0  0  0  0  0  0  0  0  0  0  0
    6.4930   -0.0440   28.4330 N   0  0  0  0  0  0  0  0  0  0  0  0
    6.7500   -1.3430   28.4830 N   0  0  0  0  0  0  0  0  0  0  0  0
    6.9690   -2.7620   23.3160 C   0  0  0  0  0  0  0  0  0  0  0  0
    7.6890   -3.2590   22.2610 C   0  0  0  0  0  0  0  0  0  0  0  0
  1  2  1  0
  2  3  2  0
  2  4  1  0
  4  5  1  0
  5  6  1  0
  6  7  1  0
  7  8  1  0
  8  9  2  0
  8 10  1  0
 10 11  1  0
 10 12  1  0
 12 13  2  0
 13 14  1  0
 14 15  2  0
 12 16  1  0
 15 16  1  0
  7 17  1  0
  4 18  1  0
 17 18  1  0
M  END
