piperidine-amides-15182-covalent
     RDKit          3D

 20 22  0  0  0  0  0  0  0  0999 V2000
    7.1250   -3.3190   19.3040 C   0  0  0  0  0  0  0  0  0  0  0  0
    6.4340   -4.1820   20.2700 C   0  0  0  0  0  0  0  0  0  0  0  0
    5.3680   -4.7590   19.9610 O   0  0  0  0  0  0  0  0  0  0  0  0
    7.0040   -4.4190   21.5230 N   0  0  0  0  0  0  0  0  0  0  0  0
    7.7770   -3.3810   22.1700 C   0  0  0  0  0  0  0  0  0  0  0  0
    6.8180   -2.7090   23.1350 C   0  0  0  0  0  0  0  0  0  0  0  0
    6.5070   -3.7650   24.1570 C   0  0  0  0  0  0  0  0  0  0  0  0
    5.6490   -3.1990   25.1970 C   0  0  0  0  0  0  0  0  0  0  0  0
    4.4270   -3.0720   24.9720 O   0  0  0  0  0  0  0  0  0  0  0  0
    6.2290   -2.8210   26.4120 N   0  0  0  0  0  0  0  0  0  0  0  0
    6.2870   -1.4330   26.7860 C   0  0  0  0  0  0  0  0  0  0  0  0
    6.1970   -0.3260   25.8390 C   0  0  0  0  0  0  0  0  0  0  0  0
    6.3170    0.7690   26.7410 N   0  0  0  0  0  0  0  0  0  0  0  0
    6.4540    0.3210   28.0100 N   0  0  0  0  0  0  0  0  0  0  0  0
    6.4430   -1.0760   28.1960 C   0  0  0  0  0  0  0  0  0  0  0  0
    6.4080   -2.4300   28.1700 C   0  0  0  0  0  0  0  0  0  0  0  0
    6.3260   -3.0600   29.1860 C   0  0  0  0  0  0  0  0  0  0  0  0
    5.1110   -3.0450   28.4640 C   0  0  0  0  0  0  0  0  0  0  0  0
    5.7610   -4.9230   23.4870 C   0  0  0  0  0  0  0  0  0  0  0  0
    6.5730   -5.5060   22.3630 C   0  0  0  0  0  0  0  0  0  0  0  0
  1  2  1  0
  2  3  2  0
  2  4  1  0
  4  5  1  0
  5  6  1  0
  6  7  1  0
  7  8  1  0
  8  9  2  0
  8 10  1  0
 10 11  1  0
 11 12  2  0
 12 13  1  0
 13 14  1  0
 11 15  1  0
 14 15  2  0
 15 16  1  0
 16 17  1  0
 16 18  1  0
 17 18  1  0
  7 19  1  0
  4 20  1  0
 19 20  1  0
M  END
