piperidine-amides-30894-covalent
     RDKit          3D

 27 28  0  0  0  0  0  0  0  0999 V2000
    7.0610   -3.3060   19.3510 C   0  0  0  0  0  0  0  0  0  0  0  0
    6.3480   -4.1170   20.3440 C   0  0  0  0  0  0  0  0  0  0  0  0
    5.3470   -4.7540   19.9610 O   0  0  0  0  0  0  0  0  0  0  0  0
    6.7700   -4.2480   21.6890 N   0  0  0  0  0  0  0  0  0  0  0  0
    6.5950   -5.4980   22.3960 C   0  0  0  0  0  0  0  0  0  0  0  0
    6.2560   -5.1820   23.8390 C   0  0  0  0  0  0  0  0  0  0  0  0
    6.0890   -3.7130   24.1090 C   0  0  0  0  0  0  0  0  0  0  0  0
    5.5260   -3.4090   25.4670 C   0  0  0  0  0  0  0  0  0  0  0  0
    4.2690   -3.3760   25.5870 O   0  0  0  0  0  0  0  0  0  0  0  0
    6.2570   -3.1290   26.6660 N   0  0  0  0  0  0  0  0  0  0  0  0
    6.6910   -1.7380   26.9420 C   0  0  0  0  0  0  0  0  0  0  0  0
    6.3100   -4.0940   27.8150 C   0  0  0  0  0  0  0  0  0  0  0  0
    5.1400   -4.1640   28.7110 C   0  0  0  0  0  0  0  0  0  0  0  0
    5.1410   -5.3800   29.6160 C   0  0  0  0  0  0  0  0  0  0  0  0
    4.0250   -5.5100   30.5050 N   0  0  0  0  0  0  0  0  0  0  0  0
    4.4540   -6.1600   31.7600 C   0  0  0  0  0  0  0  0  0  0  0  0
    3.4710   -5.9900   32.7640 O   0  0  0  0  0  0  0  0  0  0  0  0
    5.5550   -6.8160   31.9920 O   0  0  0  0  0  0  0  0  0  0  0  0
    5.5240   -7.6530   33.1150 C   0  0  0  0  0  0  0  0  0  0  0  0
    5.9020   -8.9260   33.4640 C   0  0  0  0  0  0  0  0  0  0  0  0
    4.3750   -8.5870   33.4450 C   0  0  0  0  0  0  0  0  0  0  0  0
    6.0420   -7.0830   34.4320 C   0  0  0  0  0  0  0  0  0  0  0  0
    3.3770   -4.2140   30.6640 C   0  0  0  0  0  0  0  0  0  0  0  0
    3.6090   -2.9490   29.8600 C   0  0  0  0  0  0  0  0  0  0  0  0
    4.1160   -3.2480   28.7790 O   0  0  0  0  0  0  0  0  0  0  0  0
    7.3410   -3.0120   23.7040 C   0  0  0  0  0  0  0  0  0  0  0  0
    7.5600   -3.1680   22.2400 C   0  0  0  0  0  0  0  0  0  0  0  0
  1  2  1  0
  2  3  2  0
  2  4  1  0
  4  5  1  0
  5  6  1  0
  6  7  1  0
  7  8  1  0
  8  9  2  0
  8 10  1  0
 10 11  1  0
 10 12  1  0
 12 13  1  0
 13 14  2  0
 14 15  1  0
 15 16  1  0
 16 17  2  0
 16 18  1  0
 19 18  1  0
 19 20  1  0
 19 21  1  0
 19 22  1  0
 15 23  1  0
 23 24  1  0
 13 25  1  0
 24 25  1  0
  7 26  1  0
  4 27  1  0
 26 27  1  0
M  END
