piperidine-amides-25507-covalent
     RDKit          3D

 24 26  0  0  0  0  0  0  0  0999 V2000
    7.0710   -3.3570   19.3070 C   0  0  0  0  0  0  0  0  0  0  0  0
    6.3570   -4.1790   20.3200 C   0  0  0  0  0  0  0  0  0  0  0  0
    5.3310   -4.7470   19.9530 O   0  0  0  0  0  0  0  0  0  0  0  0
    6.8890   -4.3250   21.6010 N   0  0  0  0  0  0  0  0  0  0  0  0
    6.6530   -5.4960   22.4170 C   0  0  0  0  0  0  0  0  0  0  0  0
    5.9520   -5.1070   23.6960 C   0  0  0  0  0  0  0  0  0  0  0  0
    6.6430   -3.8860   24.3150 C   0  0  0  0  0  0  0  0  0  0  0  0
    5.8330   -3.4530   25.4630 C   0  0  0  0  0  0  0  0  0  0  0  0
    4.6190   -3.2350   25.3080 O   0  0  0  0  0  0  0  0  0  0  0  0
    6.4190   -3.2760   26.7300 N   0  0  0  0  0  0  0  0  0  0  0  0
    6.6640   -4.4630   27.5280 C   0  0  0  0  0  0  0  0  0  0  0  0
    6.3960   -1.9640   27.3080 C   0  0  0  0  0  0  0  0  0  0  0  0
    5.8680   -0.7860   26.5730 N   0  0  0  0  0  0  0  0  0  0  0  0
    5.9960    0.3600   27.4630 C   0  0  0  0  0  0  0  0  0  0  0  0
    5.5400    1.4940   26.8770 C   0  0  0  0  0  0  0  0  0  0  0  0
    6.0460    2.6790   27.2730 C   0  0  0  0  0  0  0  0  0  0  0  0
    5.7610    4.1040   26.8310 C   0  0  0  0  0  0  0  0  0  0  0  0
    4.6960    4.1020   25.7340 C   0  0  0  0  0  0  0  0  0  0  0  0
    4.1140    2.7690   25.2780 C   0  0  0  0  0  0  0  0  0  0  0  0
    4.5940    1.5160   25.9030 C   0  0  0  0  0  0  0  0  0  0  0  0
    6.5190    0.2340   28.7170 C   0  0  0  0  0  0  0  0  0  0  0  0
    6.9120   -1.4400   28.8630 S   0  0  0  0  0  0  0  0  0  0  0  0
    6.8990   -2.7870   23.3600 C   0  0  0  0  0  0  0  0  0  0  0  0
    7.6680   -3.2550   22.1930 C   0  0  0  0  0  0  0  0  0  0  0  0
  1  2  1  0
  2  3  2  0
  2  4  1  0
  4  5  1  0
  5  6  1  0
  6  7  1  0
  7  8  1  0
  8  9  2  0
  8 10  1  0
 10 11  1  0
 10 12  1  0
 12 13  2  0
 13 14  1  0
 14 15  1  0
 15 16  2  0
 16 17  1  0
 17 18  2  0
 18 19  1  0
 15 20  1  0
 19 20  2  0
 14 21  2  0
 12 22  1  0
 21 22  1  0
  7 23  1  0
  4 24  1  0
 23 24  1  0
M  END
