piperidine-amides-25212-covalent
     RDKit          3D

 25 27  0  0  0  0  0  0  0  0999 V2000
    7.0040   -3.3660   19.4480 C   0  0  0  0  0  0  0  0  0  0  0  0
    6.3740   -4.2830   20.4420 C   0  0  0  0  0  0  0  0  0  0  0  0
    5.4430   -4.9720   20.0130 O   0  0  0  0  0  0  0  0  0  0  0  0
    6.8460   -4.3620   21.7720 N   0  0  0  0  0  0  0  0  0  0  0  0
    6.6500   -5.5450   22.5980 C   0  0  0  0  0  0  0  0  0  0  0  0
    5.9960   -5.1820   23.9200 C   0  0  0  0  0  0  0  0  0  0  0  0
    5.9790   -3.6610   24.0420 C   0  0  0  0  0  0  0  0  0  0  0  0
    5.2580   -3.1430   25.2590 C   0  0  0  0  0  0  0  0  0  0  0  0
    4.5220   -2.1740   25.0740 O   0  0  0  0  0  0  0  0  0  0  0  0
    5.3150   -3.6330   26.5980 N   0  0  0  0  0  0  0  0  0  0  0  0
    4.2730   -3.1980   27.5210 C   0  0  0  0  0  0  0  0  0  0  0  0
    4.5560   -3.5200   29.0150 C   0  0  0  0  0  0  0  0  0  0  0  0
    5.4530   -4.6610   29.2130 N   0  0  0  0  0  0  0  0  0  0  0  0
    4.6240   -5.8780   29.3140 C   0  0  0  0  0  0  0  0  0  0  0  0
    4.6290   -6.5560   30.5030 C   0  0  0  0  0  0  0  0  0  0  0  0
    3.8720   -7.6690   30.6720 N   0  0  0  0  0  0  0  0  0  0  0  0
    3.0190   -8.2010   29.6280 C   0  0  0  0  0  0  0  0  0  0  0  0
    2.8530   -7.6470   28.2420 C   0  0  0  0  0  0  0  0  0  0  0  0
    3.7430   -6.4720   28.2620 C   0  0  0  0  0  0  0  0  0  0  0  0
    4.0440   -5.4750   27.1940 C   0  0  0  0  0  0  0  0  0  0  0  0
    3.4320   -5.5660   25.9240 N   0  0  0  0  0  0  0  0  0  0  0  0
    6.5170   -4.7100   28.2700 C   0  0  0  0  0  0  0  0  0  0  0  0
    6.4470   -3.4910   27.4080 C   0  0  0  0  0  0  0  0  0  0  0  0
    7.2600   -3.0000   23.7010 C   0  0  0  0  0  0  0  0  0  0  0  0
    7.7110   -3.3190   22.3170 C   0  0  0  0  0  0  0  0  0  0  0  0
  1  2  1  0
  2  3  2  0
  2  4  1  0
  4  5  1  0
  5  6  1  0
  6  7  1  0
  7  8  1  0
  8  9  2  0
  8 10  1  0
 10 11  1  0
 11 12  1  0
 12 13  1  0
 13 14  1  0
 14 15  2  0
 15 16  1  0
 16 17  2  0
 17 18  1  0
 14 19  1  0
 18 19  2  0
 19 20  1  0
 20 21  3  0
 13 22  1  0
 10 23  1  0
 22 23  1  0
  7 24  1  0
  4 25  1  0
 24 25  1  0
M  END
