piperidine-amides-1436-covalent
     RDKit          3D

 22 23  0  0  0  0  0  0  0  0999 V2000
    7.0730   -3.2870   19.2890 C   0  0  0  0  0  0  0  0  0  0  0  0
    6.3290   -4.0910   20.3000 C   0  0  0  0  0  0  0  0  0  0  0  0
    5.3070   -4.7010   19.9350 O   0  0  0  0  0  0  0  0  0  0  0  0
    6.8120   -4.1900   21.6280 N   0  0  0  0  0  0  0  0  0  0  0  0
    6.6940   -5.4320   22.3630 C   0  0  0  0  0  0  0  0  0  0  0  0
    6.0280   -5.1230   23.7090 C   0  0  0  0  0  0  0  0  0  0  0  0
    6.0940   -3.6470   23.8910 C   0  0  0  0  0  0  0  0  0  0  0  0
    5.6450   -3.1930   25.2290 C   0  0  0  0  0  0  0  0  0  0  0  0
    4.4680   -2.8240   25.2990 O   0  0  0  0  0  0  0  0  0  0  0  0
    6.5070   -3.1880   26.3240 N   0  0  0  0  0  0  0  0  0  0  0  0
    6.1870   -3.5430   27.6650 C   0  0  0  0  0  0  0  0  0  0  0  0
    5.6810   -4.7610   28.0570 C   0  0  0  0  0  0  0  0  0  0  0  0
    6.4960   -5.6900   28.7580 C   0  0  0  0  0  0  0  0  0  0  0  0
    6.0510   -6.9320   29.1890 C   0  0  0  0  0  0  0  0  0  0  0  0
    4.6580   -7.3430   28.9230 C   0  0  0  0  0  0  0  0  0  0  0  0
    3.7870   -6.3600   28.1820 C   0  0  0  0  0  0  0  0  0  0  0  0
    2.3330   -6.7300   27.8870 C   0  0  0  0  0  0  0  0  0  0  0  0
    1.5460   -5.9490   28.7190 O   0  0  0  0  0  0  0  0  0  0  0  0
    2.2320   -5.7530   29.9060 C   0  0  0  0  0  0  0  0  0  0  0  0
    4.3770   -5.0470   27.7620 C   0  0  0  0  0  0  0  0  0  0  0  0
    7.4200   -3.0460   23.5500 C   0  0  0  0  0  0  0  0  0  0  0  0
    7.6410   -3.1470   22.1990 C   0  0  0  0  0  0  0  0  0  0  0  0
  1  2  1  0
  2  3  2  0
  2  4  1  0
  4  5  1  0
  5  6  1  0
  6  7  1  0
  7  8  1  0
  8  9  2  0
  8 10  1  0
 10 11  1  0
 11 12  1  0
 12 13  2  0
 13 14  1  0
 14 15  2  0
 15 16  1  0
 16 17  1  0
 17 18  1  0
 18 19  1  0
 12 20  1  0
 16 20  2  0
  7 21  1  0
  4 22  1  0
 21 22  1  0
M  END
