piperidine-amides-21772-covalent
     RDKit          3D

 23 24  0  0  0  0  0  0  0  0999 V2000
    7.0940   -3.3100   19.3110 C   0  0  0  0  0  0  0  0  0  0  0  0
    6.3510   -4.0560   20.3320 C   0  0  0  0  0  0  0  0  0  0  0  0
    5.3210   -4.6600   19.9310 O   0  0  0  0  0  0  0  0  0  0  0  0
    6.8110   -4.1120   21.6580 N   0  0  0  0  0  0  0  0  0  0  0  0
    7.7830   -3.1570   22.1600 C   0  0  0  0  0  0  0  0  0  0  0  0
    7.5480   -3.0070   23.6270 C   0  0  0  0  0  0  0  0  0  0  0  0
    6.2000   -3.5700   23.9490 C   0  0  0  0  0  0  0  0  0  0  0  0
    5.6290   -3.0260   25.2130 C   0  0  0  0  0  0  0  0  0  0  0  0
    4.6500   -2.2670   25.0600 O   0  0  0  0  0  0  0  0  0  0  0  0
    6.0140   -3.2720   26.5600 N   0  0  0  0  0  0  0  0  0  0  0  0
    5.9030   -4.6540   26.9770 C   0  0  0  0  0  0  0  0  0  0  0  0
    6.3990   -4.9320   28.3940 C   0  0  0  0  0  0  0  0  0  0  0  0
    5.6430   -5.5610   29.1750 O   0  0  0  0  0  0  0  0  0  0  0  0
    6.0920   -6.8440   29.3890 C   0  0  0  0  0  0  0  0  0  0  0  0
    5.3140   -2.4200   27.5020 C   0  0  0  0  0  0  0  0  0  0  0  0
    6.0110   -1.5730   28.3560 C   0  0  0  0  0  0  0  0  0  0  0  0
    5.4460   -0.3460   28.6390 C   0  0  0  0  0  0  0  0  0  0  0  0
    6.0120    0.5670   29.4700 C   0  0  0  0  0  0  0  0  0  0  0  0
    7.3170    0.2820   30.1410 C   0  0  0  0  0  0  0  0  0  0  0  0
    7.8330   -1.1040   29.7370 C   0  0  0  0  0  0  0  0  0  0  0  0
    7.1770   -2.0050   28.8590 N   0  0  0  0  0  0  0  0  0  0  0  0
    6.1920   -5.1000   23.8270 C   0  0  0  0  0  0  0  0  0  0  0  0
    6.6610   -5.3740   22.3940 C   0  0  0  0  0  0  0  0  0  0  0  0
  1  2  1  0
  2  3  2  0
  2  4  1  0
  4  5  1  0
  5  6  1  0
  6  7  1  0
  7  8  1  0
  8  9  2  0
  8 10  1  0
 10 11  1  0
 11 12  1  0
 12 13  1  0
 13 14  1  0
 10 15  1  0
 15 16  1  0
 16 17  2  0
 17 18  1  0
 18 19  2  0
 19 20  1  0
 16 21  1  0
 20 21  2  0
  7 22  1  0
  4 23  1  0
 22 23  1  0
M  END
