piperidine-amides-8990-covalent
     RDKit          3D

 21 21  0  0  0  0  0  0  0  0999 V2000
    7.1410   -3.2970   19.2430 C   0  0  0  0  0  0  0  0  0  0  0  0
    6.3380   -4.0230   20.2220 C   0  0  0  0  0  0  0  0  0  0  0  0
    5.2540   -4.5140   19.8690 O   0  0  0  0  0  0  0  0  0  0  0  0
    6.7890   -4.2420   21.5280 N   0  0  0  0  0  0  0  0  0  0  0  0
    6.4350   -5.4340   22.2530 C   0  0  0  0  0  0  0  0  0  0  0  0
    5.6860   -4.9290   23.4570 C   0  0  0  0  0  0  0  0  0  0  0  0
    6.4460   -3.8400   24.1610 C   0  0  0  0  0  0  0  0  0  0  0  0
    5.7370   -3.3130   25.3610 C   0  0  0  0  0  0  0  0  0  0  0  0
    4.5900   -2.7950   25.2280 O   0  0  0  0  0  0  0  0  0  0  0  0
    6.2610   -3.3460   26.6800 N   0  0  0  0  0  0  0  0  0  0  0  0
    6.3810   -4.6260   27.4300 C   0  0  0  0  0  0  0  0  0  0  0  0
    5.1890   -4.8630   28.2410 C   0  0  0  0  0  0  0  0  0  0  0  0
    4.1270   -5.7810   27.7720 C   0  0  2  0  0  0  0  0  0  0  0  0
    4.6880   -6.7500   26.7660 C   0  0  0  0  0  0  0  0  0  0  0  0
    3.3360   -5.0840   27.1100 O   0  0  0  0  0  0  0  0  0  0  0  0
    3.3330   -6.5760   28.7590 C   0  0  0  0  0  0  0  0  0  0  0  0
    4.2660   -7.4230   29.4450 F   0  0  0  0  0  0  0  0  0  0  0  0
    2.3190   -7.2710   28.2150 F   0  0  0  0  0  0  0  0  0  0  0  0
    2.8590   -5.7930   29.8210 F   0  0  0  0  0  0  0  0  0  0  0  0
    6.7400   -2.7190   23.2230 C   0  0  0  0  0  0  0  0  0  0  0  0
    7.4770   -3.1530   22.1580 C   0  0  0  0  0  0  0  0  0  0  0  0
  1  2  1  0
  2  3  2  0
  2  4  1  0
  4  5  1  0
  5  6  1  0
  6  7  1  0
  7  8  1  0
  8  9  2  0
  8 10  1  0
 10 11  1  0
 11 12  1  0
 12 13  1  0
 13 14  1  6
 13 15  1  0
 13 16  1  0
 16 17  1  0
 16 18  1  0
 16 19  1  0
  7 20  1  0
  4 21  1  0
 20 21  1  0
M  END
