piperidine-amides-558-covalent
     RDKit          3D

 26 28  0  0  0  0  0  0  0  0999 V2000
    7.0520   -3.3710   19.2910 C   0  0  0  0  0  0  0  0  0  0  0  0
    6.3730   -4.1250   20.3200 C   0  0  0  0  0  0  0  0  0  0  0  0
    5.3430   -4.7740   19.9690 O   0  0  0  0  0  0  0  0  0  0  0  0
    6.8280   -4.2250   21.6560 N   0  0  0  0  0  0  0  0  0  0  0  0
    7.5670   -3.0950   22.2720 C   0  0  0  0  0  0  0  0  0  0  0  0
    6.5720   -2.6950   23.4360 C   0  0  0  0  0  0  0  0  0  0  0  0
    6.3380   -3.9800   24.1960 C   0  0  0  0  0  0  0  0  0  0  0  0
    5.4750   -3.8150   25.5370 C   0  0  0  0  0  0  0  0  0  0  0  0
    4.8100   -4.8170   25.6930 O   0  0  0  0  0  0  0  0  0  0  0  0
    5.6340   -2.7060   26.1330 N   0  0  0  0  0  0  0  0  0  0  0  0
    5.6290   -1.5220   26.8100 C   0  0  2  0  0  0  0  0  0  0  0  0
    5.7420   -0.1790   26.4990 C   0  0  0  0  0  0  0  0  0  0  0  0
    5.6780    0.7880   27.5440 C   0  0  0  0  0  0  0  0  0  0  0  0
    6.0560    0.3440   28.8900 C   0  0  1  0  0  0  0  0  0  0  0  0
    4.8580    0.3100   29.6070 O   0  0  0  0  0  0  0  0  0  0  0  0
    4.8700    1.3110   30.5660 C   0  0  0  0  0  0  0  0  0  0  0  0
    5.0970    2.5950   30.0250 C   0  0  0  0  0  0  0  0  0  0  0  0
    5.1970    3.9320   30.5870 C   0  0  0  0  0  0  0  0  0  0  0  0
    4.9670    3.5890   32.1050 C   0  0  0  0  0  0  0  0  0  0  0  0
    5.0010    4.6540   32.9270 F   0  0  0  0  0  0  0  0  0  0  0  0
    4.7170    2.1820   32.7160 C   0  0  0  0  0  0  0  0  0  0  0  0
    4.6850    1.1440   31.9160 C   0  0  0  0  0  0  0  0  0  0  0  0
    6.8500   -0.7540   28.9030 C   0  0  0  0  0  0  0  0  0  0  0  0
    6.8100   -1.5510   27.8090 C   0  0  0  0  0  0  0  0  0  0  0  0
    5.8180   -5.1560   23.4240 C   0  0  0  0  0  0  0  0  0  0  0  0
    6.7050   -5.4390   22.3970 C   0  0  0  0  0  0  0  0  0  0  0  0
  1  2  1  0
  2  3  2  0
  2  4  1  0
  4  5  1  0
  5  6  1  0
  6  7  1  0
  7  8  1  0
  8  9  2  0
  8 10  1  0
 11 10  1  6
 11 12  1  0
 12 13  1  0
 13 14  1  0
 14 15  1  1
 15 16  1  0
 16 17  2  0
 17 18  1  0
 18 19  2  0
 19 20  1  0
 19 21  1  0
 16 22  1  0
 21 22  2  0
 14 23  1  0
 11 24  1  0
 23 24  1  0
  7 25  1  0
  4 26  1  0
 25 26  1  0
M  END
