piperidine-amides-30427-covalent
     RDKit          3D

 26 28  0  0  0  0  0  0  0  0999 V2000
    7.0160   -3.3660   19.4050 C   0  0  0  0  0  0  0  0  0  0  0  0
    6.3700   -4.2460   20.3890 C   0  0  0  0  0  0  0  0  0  0  0  0
    5.4030   -4.9270   20.0060 O   0  0  0  0  0  0  0  0  0  0  0  0
    6.8280   -4.3790   21.7270 N   0  0  0  0  0  0  0  0  0  0  0  0
    6.6100   -5.6060   22.4840 C   0  0  0  0  0  0  0  0  0  0  0  0
    6.1880   -5.2290   23.9010 C   0  0  0  0  0  0  0  0  0  0  0  0
    6.1310   -3.7450   24.1260 C   0  0  0  0  0  0  0  0  0  0  0  0
    5.5710   -3.2460   25.4340 C   0  0  0  0  0  0  0  0  0  0  0  0
    5.0280   -2.1110   25.4380 O   0  0  0  0  0  0  0  0  0  0  0  0
    5.5280   -3.9060   26.7010 N   0  0  0  0  0  0  0  0  0  0  0  0
    6.3950   -3.4770   27.7820 C   0  0  0  0  0  0  0  0  0  0  0  0
    6.7520   -4.7140   28.5390 C   0  0  0  0  0  0  0  0  0  0  0  0
    5.6700   -4.9770   29.2400 N   0  0  0  0  0  0  0  0  0  0  0  0
    5.3390   -6.2780   29.6890 C   0  0  0  0  0  0  0  0  0  0  0  0
    4.3090   -6.8450   28.7420 C   0  0  0  0  0  0  0  0  0  0  0  0
    4.7150   -6.8060   27.2650 C   0  0  0  0  0  0  0  0  0  0  0  0
    3.6810   -7.3670   26.3370 C   0  0  0  0  0  0  0  0  0  0  0  0
    2.5030   -7.8530   26.8340 C   0  0  0  0  0  0  0  0  0  0  0  0
    2.1070   -7.9040   28.1650 C   0  0  0  0  0  0  0  0  0  0  0  0
    0.5400   -8.5720   28.6400 Cl  0  0  0  0  0  0  0  0  0  0  0  0
    3.1060   -7.3540   29.1420 C   0  0  0  0  0  0  0  0  0  0  0  0
    4.4510   -4.4470   28.7120 C   0  0  0  0  0  0  0  0  0  0  0  0
    3.4340   -4.1620   29.4240 O   0  0  0  0  0  0  0  0  0  0  0  0
    4.2080   -4.1280   27.2450 C   0  0  0  0  0  0  0  0  0  0  0  0
    7.4450   -3.1570   23.7210 C   0  0  0  0  0  0  0  0  0  0  0  0
    7.6220   -3.3050   22.2600 C   0  0  0  0  0  0  0  0  0  0  0  0
  1  2  1  0
  2  3  2  0
  2  4  1  0
  4  5  1  0
  5  6  1  0
  6  7  1  0
  7  8  1  0
  8  9  2  0
  8 10  1  0
 10 11  1  0
 11 12  1  0
 12 13  1  0
 13 14  1  0
 14 15  1  0
 15 16  2  0
 16 17  1  0
 17 18  2  0
 18 19  1  0
 19 20  1  0
 15 21  1  0
 19 21  2  0
 13 22  1  0
 22 23  2  0
 10 24  1  0
 22 24  1  0
  7 25  1  0
  4 26  1  0
 25 26  1  0
M  END
