piperidine-amides-25328-covalent
     RDKit          3D

 24 24  0  0  0  0  0  0  0  0999 V2000
    7.0750   -3.2710   19.2760 C   0  0  0  0  0  0  0  0  0  0  0  0
    6.3580   -4.0790   20.2990 C   0  0  0  0  0  0  0  0  0  0  0  0
    5.3370   -4.6560   19.9260 O   0  0  0  0  0  0  0  0  0  0  0  0
    6.8570   -4.1980   21.6050 N   0  0  0  0  0  0  0  0  0  0  0  0
    6.6750   -5.4220   22.3440 C   0  0  0  0  0  0  0  0  0  0  0  0
    6.1050   -5.1120   23.7040 C   0  0  0  0  0  0  0  0  0  0  0  0
    6.1270   -3.6040   23.9480 C   0  0  0  0  0  0  0  0  0  0  0  0
    5.5880   -3.3450   25.3090 C   0  0  0  0  0  0  0  0  0  0  0  0
    4.3610   -3.4000   25.4680 O   0  0  0  0  0  0  0  0  0  0  0  0
    6.4010   -3.0230   26.4130 N   0  0  0  0  0  0  0  0  0  0  0  0
    6.7260   -1.6220   26.5520 C   0  0  0  0  0  0  0  0  0  0  0  0
    6.8090   -1.2840   28.0300 C   0  0  0  0  0  0  0  0  0  0  0  0
    5.8890   -0.3120   28.3730 O   0  0  0  0  0  0  0  0  0  0  0  0
    4.5630   -0.4230   28.3010 C   0  0  0  0  0  0  0  0  0  0  0  0
    6.2160   -3.6780   27.6620 C   0  0  0  0  0  0  0  0  0  0  0  0
    6.0460   -5.0300   27.6580 C   0  0  0  0  0  0  0  0  0  0  0  0
    5.8530   -5.5980   26.4250 O   0  0  0  0  0  0  0  0  0  0  0  0
    6.0690   -5.6970   28.8740 O   0  0  0  0  0  0  0  0  0  0  0  0
    5.0870   -6.5930   29.2990 C   0  0  0  0  0  0  0  0  0  0  0  0
    5.0990   -6.9360   30.7550 C   0  0  0  0  0  0  0  0  0  0  0  0
    5.7460   -7.8510   29.7370 C   0  0  0  0  0  0  0  0  0  0  0  0
    3.8550   -6.9430   28.5330 C   0  0  0  0  0  0  0  0  0  0  0  0
    7.4660   -2.9960   23.6530 C   0  0  0  0  0  0  0  0  0  0  0  0
    7.6960   -3.1470   22.1570 C   0  0  0  0  0  0  0  0  0  0  0  0
  1  2  1  0
  2  3  2  0
  2  4  1  0
  4  5  1  0
  5  6  1  0
  6  7  1  0
  7  8  1  0
  8  9  2  0
  8 10  1  0
 10 11  1  0
 11 12  1  0
 12 13  1  0
 13 14  1  0
 10 15  1  0
 15 16  1  0
 16 17  2  0
 16 18  1  0
 19 18  1  0
 19 20  1  0
 19 21  1  0
 19 22  1  0
  7 23  1  0
  4 24  1  0
 23 24  1  0
M  END
