piperidine-amides-1648-covalent
     RDKit          3D

 21 22  0  0  0  0  0  0  0  0999 V2000
    7.1160   -3.3360   19.3070 C   0  0  0  0  0  0  0  0  0  0  0  0
    6.3480   -4.1410   20.2920 C   0  0  0  0  0  0  0  0  0  0  0  0
    5.2920   -4.6860   19.9310 O   0  0  0  0  0  0  0  0  0  0  0  0
    6.8670   -4.3080   21.5930 N   0  0  0  0  0  0  0  0  0  0  0  0
    6.5690   -5.4770   22.3770 C   0  0  0  0  0  0  0  0  0  0  0  0
    5.7500   -4.9870   23.5750 C   0  0  0  0  0  0  0  0  0  0  0  0
    6.5030   -3.8490   24.1820 C   0  0  0  0  0  0  0  0  0  0  0  0
    5.7890   -3.2410   25.3260 C   0  0  0  0  0  0  0  0  0  0  0  0
    4.5830   -3.0150   25.1630 O   0  0  0  0  0  0  0  0  0  0  0  0
    6.4660   -2.9620   26.5150 N   0  0  0  0  0  0  0  0  0  0  0  0
    6.4670   -1.7310   27.2210 C   0  0  0  0  0  0  0  0  0  0  0  0
    6.9960   -1.6030   28.4860 C   0  0  0  0  0  0  0  0  0  0  0  0
    7.0020   -0.4040   29.2030 C   0  0  0  0  0  0  0  0  0  0  0  0
    6.4670    0.7420   28.6700 C   0  0  0  0  0  0  0  0  0  0  0  0
    5.8780    0.6930   27.3120 C   0  0  0  0  0  0  0  0  0  0  0  0
    5.2610    1.9260   26.6420 C   0  0  0  0  0  0  0  0  0  0  0  0
    6.3270    2.2620   25.5980 C   0  0  0  0  0  0  0  0  0  0  0  0
    3.9340    1.8050   26.2000 C   0  0  0  0  0  0  0  0  0  0  0  0
    5.8950   -0.5100   26.6430 C   0  0  0  0  0  0  0  0  0  0  0  0
    6.8830   -2.7530   23.2420 C   0  0  0  0  0  0  0  0  0  0  0  0
    7.6330   -3.2730   22.2290 C   0  0  0  0  0  0  0  0  0  0  0  0
  1  2  1  0
  2  3  2  0
  2  4  1  0
  4  5  1  0
  5  6  1  0
  6  7  1  0
  7  8  1  0
  8  9  2  0
  8 10  1  0
 10 11  1  0
 11 12  2  0
 12 13  1  0
 13 14  2  0
 14 15  1  0
 15 16  1  0
 16 17  1  0
 16 18  1  0
 11 19  1  0
 15 19  2  0
  7 20  1  0
  4 21  1  0
 20 21  1  0
M  END
