piperidine-amides-14271-covalent
     RDKit          3D

 24 26  0  0  0  0  0  0  0  0999 V2000
    7.0820   -3.3390   19.3230 C   0  0  0  0  0  0  0  0  0  0  0  0
    6.4060   -4.2140   20.3140 C   0  0  0  0  0  0  0  0  0  0  0  0
    5.3730   -4.8190   19.9750 O   0  0  0  0  0  0  0  0  0  0  0  0
    6.9870   -4.3800   21.5890 N   0  0  0  0  0  0  0  0  0  0  0  0
    7.6880   -3.2990   22.2290 C   0  0  0  0  0  0  0  0  0  0  0  0
    6.7080   -2.7400   23.2580 C   0  0  0  0  0  0  0  0  0  0  0  0
    6.4020   -3.8250   24.2410 C   0  0  0  0  0  0  0  0  0  0  0  0
    5.6860   -3.2830   25.4190 C   0  0  0  0  0  0  0  0  0  0  0  0
    4.4590   -3.2050   25.3060 O   0  0  0  0  0  0  0  0  0  0  0  0
    6.3690   -2.8950   26.5750 N   0  0  0  0  0  0  0  0  0  0  0  0
    6.6160   -1.5700   27.0380 C   0  0  2  0  0  0  0  0  0  0  0  0
    7.1400   -1.4090   28.2890 C   0  0  0  0  0  0  0  0  0  0  0  0
    6.4980   -0.5120   29.1190 C   0  0  0  0  0  0  0  0  0  0  0  0
    5.3330   -0.1080   28.3560 N   0  0  0  0  0  0  0  0  0  0  0  0
    4.1200    0.2600   28.8360 C   0  0  0  0  0  0  0  0  0  0  0  0
    3.4790    1.5830   28.6910 C   0  0  0  0  0  0  0  0  0  0  0  0
    2.1060    1.8990   29.2730 C   0  0  0  0  0  0  0  0  0  0  0  0
    1.4590    0.7240   30.0170 C   0  0  0  0  0  0  0  0  0  0  0  0
    2.1220   -0.4960   30.1150 C   0  0  0  0  0  0  0  0  0  0  0  0
    3.4660   -0.7390   29.5210 C   0  0  0  0  0  0  0  0  0  0  0  0
    5.6210   -0.4690   27.0010 C   0  0  0  0  0  0  0  0  0  0  0  0
    5.0920    0.0910   25.8400 O   0  0  0  0  0  0  0  0  0  0  0  0
    5.6890   -4.9140   23.5450 C   0  0  0  0  0  0  0  0  0  0  0  0
    6.5840   -5.4700   22.4220 C   0  0  0  0  0  0  0  0  0  0  0  0
  1  2  1  0
  2  3  2  0
  2  4  1  0
  4  5  1  0
  5  6  1  0
  6  7  1  0
  7  8  1  0
  8  9  2  0
  8 10  1  0
 11 10  1  1
 11 12  1  0
 12 13  1  0
 13 14  1  0
 14 15  1  0
 15 16  2  0
 16 17  1  0
 17 18  2  0
 18 19  1  0
 15 20  1  0
 19 20  2  0
 11 21  1  0
 14 21  1  0
 21 22  2  0
  7 23  1  0
  4 24  1  0
 23 24  1  0
M  END
