piperidine-amides-32501-covalent
     RDKit          3D

 29 31  0  0  0  0  0  0  0  0999 V2000
    7.0870   -3.3040   19.2640 C   0  0  0  0  0  0  0  0  0  0  0  0
    6.3520   -4.1260   20.2680 C   0  0  0  0  0  0  0  0  0  0  0  0
    5.3010   -4.6900   19.9300 O   0  0  0  0  0  0  0  0  0  0  0  0
    6.8920   -4.2940   21.5610 N   0  0  0  0  0  0  0  0  0  0  0  0
    6.5650   -5.4580   22.3400 C   0  0  0  0  0  0  0  0  0  0  0  0
    5.8450   -4.9420   23.5860 C   0  0  0  0  0  0  0  0  0  0  0  0
    6.7710   -3.9840   24.2670 C   0  0  0  0  0  0  0  0  0  0  0  0
    6.1410   -3.2680   25.3850 C   0  0  0  0  0  0  0  0  0  0  0  0
    4.9480   -2.9490   25.2500 O   0  0  0  0  0  0  0  0  0  0  0  0
    6.9040   -2.9950   26.5230 N   0  0  0  0  0  0  0  0  0  0  0  0
    7.3370   -4.0170   27.4020 C   0  0  0  0  0  0  0  0  0  0  0  0
    6.4170   -4.6680   28.1740 C   0  0  0  0  0  0  0  0  0  0  0  0
    5.1670   -4.1060   28.4500 C   0  0  0  0  0  0  0  0  0  0  0  0
    4.2500   -4.7650   29.2160 C   0  0  0  0  0  0  0  0  0  0  0  0
    4.5870   -6.0980   29.7670 C   0  0  0  0  0  0  0  0  0  0  0  0
    3.6090   -6.8980   30.6320 C   0  0  0  0  0  0  0  0  0  0  0  0
    3.6300   -8.2930   30.3420 N   0  0  0  0  0  0  0  0  0  0  0  0
    2.8340   -6.2020   31.5540 O   0  0  0  0  0  0  0  0  0  0  0  0
    5.8140   -6.6180   29.4820 C   0  0  0  0  0  0  0  0  0  0  0  0
    6.7050   -5.9050   28.6990 C   0  0  0  0  0  0  0  0  0  0  0  0
    6.7660   -1.7650   27.3090 C   0  0  0  0  0  0  0  0  0  0  0  0
    5.9860   -0.6060   26.6500 C   0  0  0  0  0  0  0  0  0  0  0  0
    5.6290    0.7020   27.0540 C   0  0  0  0  0  0  0  0  0  0  0  0
    6.2800    0.6850   28.4690 C   0  0  0  0  0  0  0  0  0  0  0  0
    7.0490   -0.3610   29.2070 C   0  0  0  0  0  0  0  0  0  0  0  0
    7.4560    0.0220   30.4490 F   0  0  0  0  0  0  0  0  0  0  0  0
    7.2990   -1.6710   28.5530 C   0  0  0  0  0  0  0  0  0  0  0  0
    7.2500   -2.8430   23.3970 C   0  0  0  0  0  0  0  0  0  0  0  0
    7.6110   -3.1970   22.1180 C   0  0  0  0  0  0  0  0  0  0  0  0
  1  2  1  0
  2  3  2  0
  2  4  1  0
  4  5  1  0
  5  6  1  0
  6  7  1  0
  7  8  1  0
  8  9  2  0
  8 10  1  0
 10 11  1  0
 11 12  1  0
 12 13  2  0
 13 14  1  0
 14 15  2  0
 15 16  1  0
 16 17  1  0
 16 18  2  0
 15 19  1  0
 12 20  1  0
 19 20  2  0
 10 21  1  0
 21 22  2  0
 22 23  1  0
 23 24  2  0
 24 25  1  0
 25 26  1  0
 21 27  1  0
 25 27  2  0
  7 28  1  0
  4 29  1  0
 28 29  1  0
M  END
