piperidine-amides-6953-covalent
     RDKit          3D

 23 24  0  0  0  0  0  0  0  0999 V2000
    7.1510   -3.2900   19.2610 C   0  0  0  0  0  0  0  0  0  0  0  0
    6.3640   -4.0430   20.2480 C   0  0  0  0  0  0  0  0  0  0  0  0
    5.3050   -4.6170   19.9120 O   0  0  0  0  0  0  0  0  0  0  0  0
    6.8310   -4.1630   21.5590 N   0  0  0  0  0  0  0  0  0  0  0  0
    7.7390   -3.1690   22.0820 C   0  0  0  0  0  0  0  0  0  0  0  0
    7.0750   -2.6150   23.3290 C   0  0  0  0  0  0  0  0  0  0  0  0
    6.7470   -3.8110   24.1920 C   0  0  0  0  0  0  0  0  0  0  0  0
    6.1310   -3.3240   25.4340 C   0  0  0  0  0  0  0  0  0  0  0  0
    5.0340   -2.7280   25.3600 O   0  0  0  0  0  0  0  0  0  0  0  0
    6.8020   -3.5330   26.6590 N   0  0  0  0  0  0  0  0  0  0  0  0
    6.6240   -4.7710   27.3620 C   0  0  0  0  0  0  0  0  0  0  0  0
    5.1250   -5.0460   27.4590 C   0  0  0  0  0  0  0  0  0  0  0  0
    4.1050   -4.8190   26.5530 C   0  0  0  0  0  0  0  0  0  0  0  0
    2.7950   -5.1420   26.8340 C   0  0  0  0  0  0  0  0  0  0  0  0
    2.4400   -5.7160   28.0450 C   0  0  0  0  0  0  0  0  0  0  0  0
    3.2730   -6.0290   29.0720 C   0  0  0  0  0  0  0  0  0  0  0  0
    2.9280   -6.5930   30.2480 O   0  0  0  0  0  0  0  0  0  0  0  0
    3.1650   -7.8500   30.7080 C   0  0  0  0  0  0  0  0  0  0  0  0
    4.6860   -5.7000   28.8230 C   0  0  0  0  0  0  0  0  0  0  0  0
    5.5300   -5.9630   29.7270 O   0  0  0  0  0  0  0  0  0  0  0  0
    6.1900   -7.1990   29.6070 C   0  0  0  0  0  0  0  0  0  0  0  0
    5.8030   -4.7630   23.4840 C   0  0  0  0  0  0  0  0  0  0  0  0
    6.4930   -5.2930   22.3830 C   0  0  0  0  0  0  0  0  0  0  0  0
  1  2  1  0
  2  3  2  0
  2  4  1  0
  4  5  1  0
  5  6  1  0
  6  7  1  0
  7  8  1  0
  8  9  2  0
  8 10  1  0
 10 11  1  0
 11 12  1  0
 12 13  2  0
 13 14  1  0
 14 15  2  0
 15 16  1  0
 16 17  1  0
 17 18  1  0
 12 19  1  0
 16 19  2  0
 19 20  1  0
 20 21  1  0
  7 22  1  0
  4 23  1  0
 22 23  1  0
M  END
