piperidine-amides-13306-covalent
     RDKit          3D

 26 28  0  0  0  0  0  0  0  0999 V2000
    7.0720   -3.3300   19.3200 C   0  0  0  0  0  0  0  0  0  0  0  0
    6.3920   -4.1650   20.3330 C   0  0  0  0  0  0  0  0  0  0  0  0
    5.3690   -4.7740   19.9630 O   0  0  0  0  0  0  0  0  0  0  0  0
    6.9210   -4.2940   21.6270 N   0  0  0  0  0  0  0  0  0  0  0  0
    7.7100   -3.2460   22.1940 C   0  0  0  0  0  0  0  0  0  0  0  0
    7.3710   -2.9420   23.5780 C   0  0  0  0  0  0  0  0  0  0  0  0
    6.1250   -3.5990   24.0170 C   0  0  0  0  0  0  0  0  0  0  0  0
    5.8010   -3.2330   25.4160 C   0  0  0  0  0  0  0  0  0  0  0  0
    4.7190   -3.6390   25.8770 O   0  0  0  0  0  0  0  0  0  0  0  0
    6.6580   -2.4380   26.2040 N   0  0  0  0  0  0  0  0  0  0  0  0
    6.1250   -1.6140   27.3140 C   0  0  1  0  0  0  0  0  0  0  0  0
    7.0000   -1.3690   28.4710 C   0  0  0  0  0  0  0  0  0  0  0  0
    6.5840   -0.1490   29.1410 C   0  0  0  0  0  0  0  0  0  0  0  0
    5.6260    0.4460   28.1980 N   0  0  0  0  0  0  0  0  0  0  0  0
    4.6130    1.3730   28.5680 C   0  0  1  0  0  0  0  0  0  0  0  0
    4.4790    1.6100   29.9230 C   0  0  0  0  0  0  0  0  0  0  0  0
    3.9430    2.8200   30.1940 C   0  0  0  0  0  0  0  0  0  0  0  0
    3.6960    3.0550   31.5600 O   0  0  0  0  0  0  0  0  0  0  0  0
    3.6630    3.7410   29.1630 N   0  0  0  0  0  0  0  0  0  0  0  0
    3.7750    5.1850   29.3880 C   0  0  0  0  0  0  0  0  0  0  0  0
    4.0270    3.4370   27.9050 C   0  0  0  0  0  0  0  0  0  0  0  0
    3.5590    4.1260   26.8120 O   0  0  0  0  0  0  0  0  0  0  0  0
    4.8990    2.3980   27.7450 N   0  0  0  0  0  0  0  0  0  0  0  0
    5.5540   -0.3030   26.9680 C   0  0  0  0  0  0  0  0  0  0  0  0
    6.0570   -5.0600   23.7750 C   0  0  0  0  0  0  0  0  0  0  0  0
    6.6860   -5.4700   22.4590 C   0  0  0  0  0  0  0  0  0  0  0  0
  1  2  1  0
  2  3  2  0
  2  4  1  0
  4  5  1  0
  5  6  1  0
  6  7  1  0
  7  8  1  0
  8  9  2  0
  8 10  1  0
 11 10  1  6
 11 12  1  0
 12 13  1  0
 13 14  1  0
 15 14  1  1
 15 16  1  0
 16 17  1  0
 17 18  2  0
 17 19  1  0
 19 20  1  0
 19 21  1  0
 21 22  2  0
 15 23  1  0
 21 23  1  0
 11 24  1  0
 14 24  1  0
  7 25  1  0
  4 26  1  0
 25 26  1  0
M  END
