piperidine-amides-5602-covalent
     RDKit          3D

 23 24  0  0  0  0  0  0  0  0999 V2000
    7.0880   -3.2760   19.2180 C   0  0  0  0  0  0  0  0  0  0  0  0
    6.3460   -4.0370   20.2260 C   0  0  0  0  0  0  0  0  0  0  0  0
    5.2870   -4.5940   19.8980 O   0  0  0  0  0  0  0  0  0  0  0  0
    6.8210   -4.1970   21.5360 N   0  0  0  0  0  0  0  0  0  0  0  0
    7.6760   -3.2300   22.1900 C   0  0  0  0  0  0  0  0  0  0  0  0
    6.9060   -2.7170   23.3800 C   0  0  0  0  0  0  0  0  0  0  0  0
    6.3090   -3.8230   24.1960 C   0  0  0  0  0  0  0  0  0  0  0  0
    5.5000   -3.3330   25.3470 C   0  0  0  0  0  0  0  0  0  0  0  0
    4.3130   -2.9470   25.1460 O   0  0  0  0  0  0  0  0  0  0  0  0
    5.9750   -3.2530   26.6850 N   0  0  0  0  0  0  0  0  0  0  0  0
    6.3790   -4.4780   27.4210 C   0  0  0  0  0  0  0  0  0  0  0  0
    5.3740   -4.8570   28.4360 C   0  0  0  0  0  0  0  0  0  0  0  0
    4.2400   -4.0990   28.4690 N   0  0  0  0  0  0  0  0  0  0  0  0
    3.5490   -4.6370   29.4370 N   0  0  0  0  0  0  0  0  0  0  0  0
    4.2240   -5.7610   30.0560 C   0  0  0  0  0  0  0  0  0  0  0  0
    3.5250   -6.4690   31.1990 C   0  0  0  0  0  0  0  0  0  0  0  0
    4.5740   -6.6930   32.2930 C   0  0  0  0  0  0  0  0  0  0  0  0
    4.1450   -6.4500   33.6200 O   0  0  0  0  0  0  0  0  0  0  0  0
    5.7850   -7.0910   32.0320 O   0  0  0  0  0  0  0  0  0  0  0  0
    6.0380   -7.6500   30.7780 C   0  0  0  0  0  0  0  0  0  0  0  0
    5.3650   -5.8440   29.3750 N   0  0  0  0  0  0  0  0  0  0  0  0
    5.5030   -4.7480   23.3030 C   0  0  0  0  0  0  0  0  0  0  0  0
    6.3120   -5.3000   22.3020 C   0  0  0  0  0  0  0  0  0  0  0  0
  1  2  1  0
  2  3  2  0
  2  4  1  0
  4  5  1  0
  5  6  1  0
  6  7  1  0
  7  8  1  0
  8  9  2  0
  8 10  1  0
 10 11  1  0
 11 12  1  0
 12 13  2  0
 13 14  1  0
 14 15  1  0
 15 16  1  0
 16 17  1  0
 17 18  2  0
 17 19  1  0
 19 20  1  0
 12 21  1  0
 15 21  2  0
  7 22  1  0
  4 23  1  0
 22 23  1  0
M  END
