piperidine-amides-11401-covalent
     RDKit          3D

 22 23  0  0  0  0  0  0  0  0999 V2000
    7.0520   -3.3350   19.3040 C   0  0  0  0  0  0  0  0  0  0  0  0
    6.3760   -4.1440   20.3240 C   0  0  0  0  0  0  0  0  0  0  0  0
    5.4020   -4.8410   19.9870 O   0  0  0  0  0  0  0  0  0  0  0  0
    6.8370   -4.1740   21.6540 N   0  0  0  0  0  0  0  0  0  0  0  0
    7.7490   -3.1540   22.1490 C   0  0  0  0  0  0  0  0  0  0  0  0
    7.5550   -3.1070   23.6290 C   0  0  0  0  0  0  0  0  0  0  0  0
    6.1800   -3.5790   23.9680 C   0  0  0  0  0  0  0  0  0  0  0  0
    5.7610   -3.2320   25.3440 C   0  0  0  0  0  0  0  0  0  0  0  0
    4.5980   -3.5320   25.7490 O   0  0  0  0  0  0  0  0  0  0  0  0
    6.6050   -2.5550   26.2470 N   0  0  0  0  0  0  0  0  0  0  0  0
    6.0290   -1.6720   27.2840 C   0  0  1  0  0  0  0  0  0  0  0  0
    7.0730   -1.2740   28.2280 C   0  0  0  0  0  0  0  0  0  0  0  0
    6.5570   -0.0470   28.7200 C   0  0  2  0  0  0  0  0  0  0  0  0
    6.3900    0.0420   30.2090 C   0  0  0  0  0  0  0  0  0  0  0  0
    6.3720    1.4390   30.7960 C   0  0  0  0  0  0  0  0  0  0  0  0
    5.2400   -0.8510   30.6840 C   0  0  0  0  0  0  0  0  0  0  0  0
    7.6820   -0.2850   30.9400 C   0  0  0  0  0  0  0  0  0  0  0  0
    5.2700    0.0380   28.0540 N   0  0  0  0  0  0  0  0  0  0  0  0
    5.4450   -0.4070   26.6460 C   0  0  0  0  0  0  0  0  0  0  0  0
    4.8650    0.8650   26.5690 O   0  0  0  0  0  0  0  0  0  0  0  0
    5.9950   -5.0830   23.7400 C   0  0  0  0  0  0  0  0  0  0  0  0
    6.6750   -5.4120   22.3990 C   0  0  0  0  0  0  0  0  0  0  0  0
  1  2  1  0
  2  3  2  0
  2  4  1  0
  4  5  1  0
  5  6  1  0
  6  7  1  0
  7  8  1  0
  8  9  2  0
  8 10  1  0
 11 10  1  6
 11 12  1  0
 12 13  1  0
 13 14  1  1
 14 15  1  0
 14 16  1  0
 14 17  1  0
 13 18  1  0
 11 19  1  0
 18 19  1  0
 19 20  2  0
  7 21  1  0
  4 22  1  0
 21 22  1  0
M  END
