piperidine-amides-26862-covalent
     RDKit          3D

 24 26  0  0  0  0  0  0  0  0999 V2000
    7.0010   -3.3740   19.3950 C   0  0  0  0  0  0  0  0  0  0  0  0
    6.3540   -4.2520   20.3780 C   0  0  0  0  0  0  0  0  0  0  0  0
    5.3460   -4.8860   19.9790 O   0  0  0  0  0  0  0  0  0  0  0  0
    6.8720   -4.3970   21.6700 N   0  0  0  0  0  0  0  0  0  0  0  0
    6.6690   -5.6310   22.4050 C   0  0  0  0  0  0  0  0  0  0  0  0
    5.8730   -5.3120   23.6450 C   0  0  0  0  0  0  0  0  0  0  0  0
    5.8120   -3.8300   23.8280 C   0  0  0  0  0  0  0  0  0  0  0  0
    5.2680   -3.4140   25.1560 C   0  0  0  0  0  0  0  0  0  0  0  0
    4.5440   -2.4030   25.1730 O   0  0  0  0  0  0  0  0  0  0  0  0
    5.4830   -4.0530   26.3960 N   0  0  0  0  0  0  0  0  0  0  0  0
    6.8360   -4.1640   26.8310 C   0  0  0  0  0  0  0  0  0  0  0  0
    6.8310   -4.9950   28.0650 C   0  0  0  0  0  0  0  0  0  0  0  0
    5.5990   -4.8790   28.5030 C   0  0  2  0  0  0  0  0  0  0  0  0
    4.7840   -6.0420   28.4030 O   0  0  0  0  0  0  0  0  0  0  0  0
    4.0320   -6.5740   29.3870 C   0  0  0  0  0  0  0  0  0  0  0  0
    3.2040   -7.6380   29.0690 C   0  0  0  0  0  0  0  0  0  0  0  0
    2.3940   -8.2560   30.0000 C   0  0  0  0  0  0  0  0  0  0  0  0
    2.3390   -7.8730   31.3190 C   0  0  0  0  0  0  0  0  0  0  0  0
    1.3030   -8.6830   32.4760 Cl  0  0  0  0  0  0  0  0  0  0  0  0
    3.1930   -6.7230   31.7920 C   0  0  0  0  0  0  0  0  0  0  0  0
    4.0500   -6.1080   30.6860 C   0  0  0  0  0  0  0  0  0  0  0  0
    4.9380   -3.8980   27.7840 C   0  0  0  0  0  0  0  0  0  0  0  0
    7.1790   -3.2580   23.6360 C   0  0  0  0  0  0  0  0  0  0  0  0
    7.6340   -3.3320   22.3360 C   0  0  0  0  0  0  0  0  0  0  0  0
  1  2  1  0
  2  3  2  0
  2  4  1  0
  4  5  1  0
  5  6  1  0
  6  7  1  0
  7  8  1  0
  8  9  2  0
  8 10  1  0
 10 11  1  0
 11 12  1  0
 12 13  1  0
 13 14  1  6
 14 15  1  0
 15 16  2  0
 16 17  1  0
 17 18  2  0
 18 19  1  0
 18 20  1  0
 15 21  1  0
 20 21  2  0
 10 22  1  0
 13 22  1  0
  7 23  1  0
  4 24  1  0
 23 24  1  0
M  END
