piperidine-amides-3980-covalent
     RDKit          3D

 30 32  0  0  0  0  0  0  0  0999 V2000
    6.9760   -3.3040   19.2860 C   0  0  0  0  0  0  0  0  0  0  0  0
    6.2480   -4.1430   20.2480 C   0  0  0  0  0  0  0  0  0  0  0  0
    5.1630   -4.6120   19.8660 O   0  0  0  0  0  0  0  0  0  0  0  0
    6.7620   -4.4640   21.5220 N   0  0  0  0  0  0  0  0  0  0  0  0
    7.3020   -3.4060   22.2870 C   0  0  0  0  0  0  0  0  0  0  0  0
    6.5720   -3.1520   23.5160 C   0  0  0  0  0  0  0  0  0  0  0  0
    6.1870   -4.3550   24.2860 C   0  0  0  0  0  0  0  0  0  0  0  0
    5.3590   -4.0350   25.5050 C   0  0  0  0  0  0  0  0  0  0  0  0
    4.2820   -3.4170   25.3790 O   0  0  0  0  0  0  0  0  0  0  0  0
    5.7970   -4.4130   26.7980 N   0  0  0  0  0  0  0  0  0  0  0  0
    7.0690   -4.0950   27.2850 C   0  0  1  0  0  0  0  0  0  0  0  0
    8.1030   -5.1160   27.3900 C   0  0  0  0  0  0  0  0  0  0  0  0
    7.4410   -3.1120   26.2280 C   0  0  0  0  0  0  0  0  0  0  0  0
    6.4980   -2.0920   26.0380 C   0  0  0  0  0  0  0  0  0  0  0  0
    6.7820   -1.0410   24.9340 C   0  0  0  0  0  0  0  0  0  0  0  0
    8.0730   -1.2620   24.2060 C   0  0  0  0  0  0  0  0  0  0  0  0
    8.3510   -0.3570   23.2530 N   0  0  0  0  0  0  0  0  0  0  0  0
    9.1190   -0.5490   22.1870 C   0  0  0  0  0  0  0  0  0  0  0  0
    8.5560   -0.1430   20.9890 O   0  0  0  0  0  0  0  0  0  0  0  0
   10.4570   -1.1650   22.4920 C   0  0  0  0  0  0  0  0  0  0  0  0
   10.7620   -1.0670   23.9480 C   0  0  0  0  0  0  0  0  0  0  0  0
   12.0360   -1.6370   24.4910 C   0  0  0  0  0  0  0  0  0  0  0  0
   12.8760   -2.2600   23.4850 C   0  0  0  0  0  0  0  0  0  0  0  0
   13.9810   -2.7720   24.0690 F   0  0  0  0  0  0  0  0  0  0  0  0
   12.5640   -2.3120   22.1380 C   0  0  0  0  0  0  0  0  0  0  0  0
   11.3870   -1.7810   21.6610 C   0  0  0  0  0  0  0  0  0  0  0  0
    8.9090   -2.3420   24.5320 C   0  0  0  0  0  0  0  0  0  0  0  0
    8.5990   -3.2290   25.5070 C   0  0  0  0  0  0  0  0  0  0  0  0
    5.4230   -5.2550   23.3430 C   0  0  0  0  0  0  0  0  0  0  0  0
    6.3030   -5.6670   22.1780 C   0  0  0  0  0  0  0  0  0  0  0  0
  1  2  1  0
  2  3  2  0
  2  4  1  0
  4  5  1  0
  5  6  1  0
  6  7  1  0
  7  8  1  0
  8  9  2  0
  8 10  1  0
 10 11  1  0
 11 12  1  6
 11 13  1  0
 13 14  2  0
 14 15  1  0
 15 16  2  0
 16 17  1  0
 17 18  1  0
 18 19  2  0
 18 20  1  0
 20 21  2  0
 21 22  1  0
 22 23  2  0
 23 24  1  0
 23 25  1  0
 20 26  1  0
 25 26  2  0
 16 27  1  0
 13 28  1  0
 27 28  2  0
  7 29  1  0
  4 30  1  0
 29 30  1  0
M  END
