piperidine-amides-28782-covalent
     RDKit          3D

 25 27  0  0  0  0  0  0  0  0999 V2000
    7.0480   -3.3830   19.3960 C   0  0  0  0  0  0  0  0  0  0  0  0
    6.3520   -4.2360   20.3560 C   0  0  0  0  0  0  0  0  0  0  0  0
    5.3360   -4.8390   19.9730 O   0  0  0  0  0  0  0  0  0  0  0  0
    6.8610   -4.4010   21.6700 N   0  0  0  0  0  0  0  0  0  0  0  0
    6.4580   -5.5550   22.4310 C   0  0  0  0  0  0  0  0  0  0  0  0
    6.0280   -5.1790   23.8380 C   0  0  0  0  0  0  0  0  0  0  0  0
    5.9170   -3.6700   23.9160 C   0  0  0  0  0  0  0  0  0  0  0  0
    5.3750   -3.1540   25.2310 C   0  0  0  0  0  0  0  0  0  0  0  0
    4.2320   -2.7170   25.1480 O   0  0  0  0  0  0  0  0  0  0  0  0
    6.0910   -3.1600   26.4450 N   0  0  0  0  0  0  0  0  0  0  0  0
    6.2580   -1.8650   27.0660 C   0  0  0  0  0  0  0  0  0  0  0  0
    5.8610   -0.6370   26.5300 C   0  0  0  0  0  0  0  0  0  0  0  0
    6.0390    0.5720   27.2100 C   0  0  0  0  0  0  0  0  0  0  0  0
    6.6250    0.7150   28.4870 C   0  0  0  0  0  0  0  0  0  0  0  0
    7.0770   -0.5750   29.1070 C   0  0  0  0  0  0  0  0  0  0  0  0
    6.8760   -1.8840   28.3570 C   0  0  0  0  0  0  0  0  0  0  0  0
    5.6770   -4.1500   27.4310 C   0  0  2  0  0  0  0  0  0  0  0  0
    6.7490   -5.0980   27.8660 C   0  0  0  0  0  0  0  0  0  0  0  0
    5.9780   -6.1620   28.6840 C   0  0  0  0  0  0  0  0  0  0  0  0
    4.3690   -6.1320   27.8840 S   0  0  0  0  0  0  0  0  0  0  0  0
    4.1660   -7.3310   26.9930 O   0  0  0  0  0  0  0  0  0  0  0  0
    3.2340   -6.0400   28.8540 O   0  0  0  0  0  0  0  0  0  0  0  0
    4.5140   -4.7120   26.9410 C   0  0  0  0  0  0  0  0  0  0  0  0
    7.2800   -3.1780   23.6900 C   0  0  0  0  0  0  0  0  0  0  0  0
    7.5840   -3.2870   22.2350 C   0  0  0  0  0  0  0  0  0  0  0  0
  1  2  1  0
  2  3  2  0
  2  4  1  0
  4  5  1  0
  5  6  1  0
  6  7  1  0
  7  8  1  0
  8  9  2  0
  8 10  1  0
 10 11  1  0
 11 12  2  0
 12 13  1  0
 13 14  2  0
 14 15  1  0
 11 16  1  0
 15 16  2  0
 17 10  1  6
 17 18  1  0
 18 19  1  0
 20 19  1  0
 20 21  2  0
 20 22  2  0
 17 23  1  0
 20 23  1  0
  7 24  1  0
  4 25  1  0
 24 25  1  0
M  END
