piperidine-amides-12256-covalent
     RDKit          3D

 24 24  0  0  0  0  0  0  0  0999 V2000
    7.1360   -3.2730   19.2330 C   0  0  0  0  0  0  0  0  0  0  0  0
    6.3730   -4.0400   20.2080 C   0  0  0  0  0  0  0  0  0  0  0  0
    5.3020   -4.5530   19.8900 O   0  0  0  0  0  0  0  0  0  0  0  0
    6.9100   -4.2530   21.5210 N   0  0  0  0  0  0  0  0  0  0  0  0
    7.7120   -3.2390   22.1390 C   0  0  0  0  0  0  0  0  0  0  0  0
    7.1040   -2.8020   23.4340 C   0  0  0  0  0  0  0  0  0  0  0  0
    6.4170   -3.9680   24.1430 C   0  0  0  0  0  0  0  0  0  0  0  0
    5.3750   -3.4030   25.0250 C   0  0  0  0  0  0  0  0  0  0  0  0
    4.1720   -3.3840   24.7230 O   0  0  0  0  0  0  0  0  0  0  0  0
    5.7560   -2.8590   26.2470 N   0  0  0  0  0  0  0  0  0  0  0  0
    5.1280   -3.3730   27.4350 C   0  0  0  0  0  0  0  0  0  0  0  0
    5.3930   -4.8500   27.5420 C   0  0  2  0  0  0  0  0  0  0  0  0
    4.3050   -5.6410   27.8830 C   0  0  0  0  0  0  0  0  0  0  0  0
    3.1700   -5.3360   27.4570 O   0  0  0  0  0  0  0  0  0  0  0  0
    4.3570   -6.7670   28.6790 O   0  0  0  0  0  0  0  0  0  0  0  0
    3.8800   -6.9140   29.9820 C   0  0  0  0  0  0  0  0  0  0  0  0
    4.8870   -7.4200   30.7780 C   0  0  0  0  0  0  0  0  0  0  0  0
    3.4020   -5.6680   30.3130 C   0  0  0  0  0  0  0  0  0  0  0  0
    2.7570   -7.6790   29.9530 C   0  0  0  0  0  0  0  0  0  0  0  0
    6.3560   -5.2490   28.5420 C   0  0  0  0  0  0  0  0  0  0  0  0
    7.3710   -6.0240   27.9860 C   0  0  0  0  0  0  0  0  0  0  0  0
    6.5680   -6.5990   29.0150 C   0  0  0  0  0  0  0  0  0  0  0  0
    5.7370   -5.0110   23.2570 C   0  0  0  0  0  0  0  0  0  0  0  0
    6.6080   -5.4200   22.2710 C   0  0  0  0  0  0  0  0  0  0  0  0
  1  2  1  0
  2  3  2  0
  2  4  1  0
  4  5  1  0
  5  6  1  0
  6  7  1  0
  7  8  1  0
  8  9  2  0
  8 10  1  0
 10 11  1  0
 12 11  1  1
 12 13  1  0
 13 14  2  0
 13 15  1  0
 16 15  1  0
 16 17  1  0
 16 18  1  0
 16 19  1  0
 12 20  1  0
 20 21  1  0
 20 22  1  0
  7 23  1  0
  4 24  1  0
 23 24  1  0
M  END
