piperidine-amides-18863-covalent
     RDKit          3D

 21 22  0  0  0  0  0  0  0  0999 V2000
    7.1210   -3.3330   19.3930 C   0  0  0  0  0  0  0  0  0  0  0  0
    6.4140   -4.1450   20.3620 C   0  0  0  0  0  0  0  0  0  0  0  0
    5.4180   -4.8420   19.9790 O   0  0  0  0  0  0  0  0  0  0  0  0
    6.8370   -4.1910   21.6980 N   0  0  0  0  0  0  0  0  0  0  0  0
    6.7160   -5.5100   22.3810 C   0  0  0  0  0  0  0  0  0  0  0  0
    5.9530   -5.1300   23.7150 C   0  0  0  0  0  0  0  0  0  0  0  0
    6.3950   -3.7260   24.0370 C   0  0  0  0  0  0  0  0  0  0  0  0
    5.6360   -3.1500   25.3110 C   0  0  0  0  0  0  0  0  0  0  0  0
    5.1060   -2.0880   25.0450 O   0  0  0  0  0  0  0  0  0  0  0  0
    5.7510   -3.9440   26.2860 N   0  0  0  0  0  0  0  0  0  0  0  0
    5.6100   -5.0220   27.0350 C   0  0  0  0  0  0  0  0  0  0  0  0
    6.0650   -5.3230   28.2300 C   0  0  0  0  0  0  0  0  0  0  0  0
    6.5940   -4.1340   28.6990 C   0  0  2  0  0  0  0  0  0  0  0  0
    5.7780   -3.6130   29.7160 O   0  0  0  0  0  0  0  0  0  0  0  0
    4.5260   -4.2210   29.7140 C   0  0  0  0  0  0  0  0  0  0  0  0
    4.5080   -5.6090   30.3930 C   0  0  0  0  0  0  0  0  0  0  0  0
    5.6010   -6.1570   30.7280 O   0  0  0  0  0  0  0  0  0  0  0  0
    5.8340   -7.4040   30.1750 C   0  0  0  0  0  0  0  0  0  0  0  0
    6.2480   -3.2640   27.4810 C   0  0  0  0  0  0  0  0  0  0  0  0
    7.7490   -3.3940   23.7610 C   0  0  0  0  0  0  0  0  0  0  0  0
    7.7580   -3.2440   22.2230 C   0  0  0  0  0  0  0  0  0  0  0  0
  1  2  1  0
  2  3  2  0
  2  4  1  0
  4  5  1  0
  5  6  1  0
  6  7  1  0
  7  8  1  0
  8  9  2  0
  8 10  1  0
 10 11  1  0
 11 12  1  0
 12 13  1  0
 13 14  1  1
 14 15  1  0
 15 16  1  0
 16 17  1  0
 17 18  1  0
 10 19  1  0
 13 19  1  0
  7 20  1  0
  4 21  1  0
 20 21  1  0
M  END
