piperidine-amides-4947-covalent
     RDKit          3D

 23 24  0  0  0  0  0  0  0  0999 V2000
    7.1230   -3.2870   19.1470 C   0  0  0  0  0  0  0  0  0  0  0  0
    6.3040   -3.9890   20.1560 C   0  0  0  0  0  0  0  0  0  0  0  0
    5.1830   -4.3840   19.8000 O   0  0  0  0  0  0  0  0  0  0  0  0
    6.8110   -4.2510   21.4230 N   0  0  0  0  0  0  0  0  0  0  0  0
    7.5220   -3.2240   22.1090 C   0  0  0  0  0  0  0  0  0  0  0  0
    7.0360   -2.9680   23.4570 C   0  0  0  0  0  0  0  0  0  0  0  0
    6.4510   -4.1370   24.1610 C   0  0  0  0  0  0  0  0  0  0  0  0
    5.6630   -3.6900   25.3190 C   0  0  0  0  0  0  0  0  0  0  0  0
    4.4460   -3.4490   25.1960 O   0  0  0  0  0  0  0  0  0  0  0  0
    6.3180   -3.5330   26.5320 N   0  0  0  0  0  0  0  0  0  0  0  0
    7.6950   -3.0300   26.5030 C   0  0  0  0  0  0  0  0  0  0  0  0
    7.6920   -1.5950   26.8790 C   0  0  0  0  0  0  0  0  0  0  0  0
    7.2660   -0.4800   26.0790 C   0  0  0  0  0  0  0  0  0  0  0  0
    7.3020    0.8020   26.5450 C   0  0  0  0  0  0  0  0  0  0  0  0
    6.7490    2.0940   25.5060 Cl  0  0  0  0  0  0  0  0  0  0  0  0
    7.7670    1.0590   27.8320 C   0  0  0  0  0  0  0  0  0  0  0  0
    8.1920    0.0310   28.6500 C   0  0  0  0  0  0  0  0  0  0  0  0
    8.7660    0.4320   30.2570 Cl  0  0  0  0  0  0  0  0  0  0  0  0
    8.1820   -1.2860   28.2550 C   0  0  0  0  0  0  0  0  0  0  0  0
    8.5380   -2.2660   28.9230 O   0  0  0  0  0  0  0  0  0  0  0  0
    8.0460   -3.4450   28.4180 C   0  0  0  0  0  0  0  0  0  0  0  0
    5.6370   -5.0050   23.2420 C   0  0  0  0  0  0  0  0  0  0  0  0
    6.5130   -5.4610   22.1490 C   0  0  0  0  0  0  0  0  0  0  0  0
  1  2  1  0
  2  3  2  0
  2  4  1  0
  4  5  1  0
  5  6  1  0
  6  7  1  0
  7  8  1  0
  8  9  2  0
  8 10  1  0
 10 11  1  0
 11 12  1  0
 12 13  2  0
 13 14  1  0
 14 15  1  0
 14 16  2  0
 16 17  1  0
 17 18  1  0
 12 19  1  0
 17 19  2  0
 19 20  1  0
 20 21  1  0
  7 22  1  0
  4 23  1  0
 22 23  1  0
M  END
