piperidine-amides-5416-covalent
     RDKit          3D

 20 21  0  0  0  0  0  0  0  0999 V2000
    7.0400   -3.3360   19.3320 C   0  0  0  0  0  0  0  0  0  0  0  0
    6.3610   -4.1510   20.3450 C   0  0  0  0  0  0  0  0  0  0  0  0
    5.4050   -4.8600   19.9900 O   0  0  0  0  0  0  0  0  0  0  0  0
    6.7990   -4.1730   21.6880 N   0  0  0  0  0  0  0  0  0  0  0  0
    7.7300   -3.1890   22.2110 C   0  0  0  0  0  0  0  0  0  0  0  0
    7.4150   -3.0040   23.6690 C   0  0  0  0  0  0  0  0  0  0  0  0
    6.0700   -3.5700   23.9900 C   0  0  0  0  0  0  0  0  0  0  0  0
    5.5610   -3.2120   25.3400 C   0  0  0  0  0  0  0  0  0  0  0  0
    4.3120   -3.1250   25.5210 O   0  0  0  0  0  0  0  0  0  0  0  0
    6.3720   -2.9570   26.4720 N   0  0  0  0  0  0  0  0  0  0  0  0
    6.6940   -1.5750   26.9180 C   0  0  1  0  0  0  0  0  0  0  0  0
    5.5770   -0.6410   26.6290 C   0  0  0  0  0  0  0  0  0  0  0  0
    5.7240    0.7290   27.1720 C   0  0  0  0  0  0  0  0  0  0  0  0
    6.1260    0.7660   28.6240 C   0  0  0  0  0  0  0  0  0  0  0  0
    6.3040   -0.5390   29.1690 N   0  0  0  0  0  0  0  0  0  0  0  0
    7.2090   -0.3340   30.3010 C   0  0  0  0  0  0  0  0  0  0  0  0
    6.8940   -1.6000   28.3900 C   0  0  1  0  0  0  0  0  0  0  0  0
    6.4360   -2.8050   28.8670 C   0  0  0  0  0  0  0  0  0  0  0  0
    6.0510   -5.0650   23.7930 C   0  0  0  0  0  0  0  0  0  0  0  0
    6.6660   -5.4110   22.4460 C   0  0  0  0  0  0  0  0  0  0  0  0
  1  2  1  0
  2  3  2  0
  2  4  1  0
  4  5  1  0
  5  6  1  0
  6  7  1  0
  7  8  1  0
  8  9  2  0
  8 10  1  0
 11 10  1  1
 11 12  1  0
 12 13  1  0
 13 14  1  0
 14 15  1  0
 15 16  1  0
 11 17  1  0
 15 17  1  0
 17 18  1  1
  7 19  1  0
  4 20  1  0
 19 20  1  0
M  END
