piperidine-amides-29692-covalent
     RDKit          3D

 27 30  0  0  0  0  0  0  0  0999 V2000
    7.0440   -3.3410   19.3850 C   0  0  0  0  0  0  0  0  0  0  0  0
    6.3840   -4.2190   20.3460 C   0  0  0  0  0  0  0  0  0  0  0  0
    5.3980   -4.8670   19.9890 O   0  0  0  0  0  0  0  0  0  0  0  0
    6.8990   -4.3730   21.6850 N   0  0  0  0  0  0  0  0  0  0  0  0
    7.6890   -3.3360   22.3040 C   0  0  0  0  0  0  0  0  0  0  0  0
    7.0330   -2.7980   23.5560 C   0  0  0  0  0  0  0  0  0  0  0  0
    6.2590   -3.8920   24.2990 C   0  0  0  0  0  0  0  0  0  0  0  0
    5.2910   -3.2600   25.2760 C   0  0  0  0  0  0  0  0  0  0  0  0
    4.3970   -2.5000   24.8850 O   0  0  0  0  0  0  0  0  0  0  0  0
    5.3860   -3.5110   26.6830 N   0  0  0  0  0  0  0  0  0  0  0  0
    4.3820   -3.0700   27.6160 C   0  0  0  0  0  0  0  0  0  0  0  0
    4.6760   -3.8180   28.9080 C   0  0  0  0  0  0  0  0  0  0  0  0
    5.3910   -4.9420   28.8880 N   0  0  0  0  0  0  0  0  0  0  0  0
    4.5020   -5.9100   28.5540 C   0  0  0  0  0  0  0  0  0  0  0  0
    3.7850   -6.3500   29.6020 N   0  0  0  0  0  0  0  0  0  0  0  0
    2.7650   -7.3640   29.4380 C   0  0  0  0  0  0  0  0  0  0  0  0
    2.5260   -7.8760   28.1830 C   0  0  0  0  0  0  0  0  0  0  0  0
    3.2530   -7.4240   27.1580 N   0  0  0  0  0  0  0  0  0  0  0  0
    3.1450   -7.8480   25.8060 C   0  0  0  0  0  0  0  0  0  0  0  0
    2.2350   -8.8110   25.4390 C   0  0  0  0  0  0  0  0  0  0  0  0
    4.0770   -7.0970   25.2150 N   0  0  0  0  0  0  0  0  0  0  0  0
    4.7540   -6.2620   26.0210 N   0  0  0  0  0  0  0  0  0  0  0  0
    4.2780   -6.4210   27.2860 C   0  0  0  0  0  0  0  0  0  0  0  0
    6.5160   -4.7400   28.1830 C   0  0  0  0  0  0  0  0  0  0  0  0
    6.5610   -3.4690   27.4240 C   0  0  0  0  0  0  0  0  0  0  0  0
    5.5400   -4.8690   23.3740 C   0  0  0  0  0  0  0  0  0  0  0  0
    6.4630   -5.4530   22.5110 C   0  0  0  0  0  0  0  0  0  0  0  0
  1  2  1  0
  2  3  2  0
  2  4  1  0
  4  5  1  0
  5  6  1  0
  6  7  1  0
  7  8  1  0
  8  9  2  0
  8 10  1  0
 10 11  1  0
 11 12  1  0
 12 13  1  0
 13 14  1  0
 14 15  2  0
 15 16  1  0
 16 17  2  0
 17 18  1  0
 18 19  1  0
 19 20  1  0
 19 21  2  0
 21 22  1  0
 14 23  1  0
 18 23  1  0
 22 23  2  0
 13 24  1  0
 10 25  1  0
 24 25  1  0
  7 26  1  0
  4 27  1  0
 26 27  1  0
M  END
