piperidine-amides-13805-covalent
     RDKit          3D

 27 29  0  0  0  0  0  0  0  0999 V2000
    7.1450   -3.2560   19.1650 C   0  0  0  0  0  0  0  0  0  0  0  0
    6.3620   -4.0020   20.1900 C   0  0  0  0  0  0  0  0  0  0  0  0
    5.2920   -4.5490   19.8770 O   0  0  0  0  0  0  0  0  0  0  0  0
    6.8960   -4.1010   21.4840 N   0  0  0  0  0  0  0  0  0  0  0  0
    7.7500   -3.0540   21.9960 C   0  0  0  0  0  0  0  0  0  0  0  0
    7.4080   -2.8670   23.4680 C   0  0  0  0  0  0  0  0  0  0  0  0
    5.9780   -3.2620   23.6300 C   0  0  0  0  0  0  0  0  0  0  0  0
    5.4000   -2.9370   24.9580 C   0  0  0  0  0  0  0  0  0  0  0  0
    4.2390   -3.3140   25.1520 O   0  0  0  0  0  0  0  0  0  0  0  0
    6.1490   -2.2160   25.9000 N   0  0  0  0  0  0  0  0  0  0  0  0
    6.0910   -2.3180   27.3130 C   0  0  0  0  0  0  0  0  0  0  0  0
    6.6870   -3.3050   28.0240 C   0  0  1  0  0  0  0  0  0  0  0  0
    6.0420   -4.5610   28.1000 C   0  0  0  0  0  0  0  0  0  0  0  0
    4.8770   -4.7800   27.3900 C   0  0  0  0  0  0  0  0  0  0  0  0
    4.1610   -6.0820   27.4520 C   0  0  0  0  0  0  0  0  0  0  0  0
    4.6720   -7.2410   28.3030 C   0  0  0  0  0  0  0  0  0  0  0  0
    5.9520   -6.8110   28.9990 C   0  0  0  0  0  0  0  0  0  0  0  0
    6.5400   -5.5760   28.8760 C   0  0  0  0  0  0  0  0  0  0  0  0
    8.0040   -3.3090   27.4290 N   0  0  0  0  0  0  0  0  0  0  0  0
    8.3310   -4.3180   28.3280 C   0  0  0  0  0  0  0  0  0  0  0  0
    8.7340   -5.5900   27.6610 C   0  0  0  0  0  0  0  0  0  0  0  0
    7.9920   -5.8790   26.5700 C   0  0  0  0  0  0  0  0  0  0  0  0
    9.5000   -6.1680   26.6350 C   0  0  0  0  0  0  0  0  0  0  0  0
    7.5690   -4.9080   25.7090 C   0  0  0  0  0  0  0  0  0  0  0  0
    8.0740   -3.5100   26.0070 C   0  0  0  0  0  0  0  0  0  0  0  0
    5.7350   -4.7430   23.4000 C   0  0  0  0  0  0  0  0  0  0  0  0
    6.4370   -5.1810   22.2930 C   0  0  0  0  0  0  0  0  0  0  0  0
  1  2  1  0
  2  3  2  0
  2  4  1  0
  4  5  1  0
  5  6  1  0
  6  7  1  0
  7  8  1  0
  8  9  2  0
  8 10  1  0
 10 11  1  0
 12 11  1  6
 12 13  1  0
 13 14  2  0
 14 15  1  0
 15 16  2  0
 16 17  1  0
 13 18  1  0
 17 18  2  0
 12 19  1  0
 19 20  1  0
 20 21  1  0
 21 22  1  0
 22 23  1  0
 22 24  1  0
 19 25  1  0
 24 25  1  0
  7 26  1  0
  4 27  1  0
 26 27  1  0
M  END
