piperidine-amides-2220-covalent
     RDKit          3D

 28 30  0  0  0  0  0  0  0  0999 V2000
    7.1160   -3.2720   19.1720 C   0  0  0  0  0  0  0  0  0  0  0  0
    6.3710   -4.0310   20.2090 C   0  0  0  0  0  0  0  0  0  0  0  0
    5.2970   -4.5250   19.8770 O   0  0  0  0  0  0  0  0  0  0  0  0
    6.9200   -4.2070   21.4810 N   0  0  0  0  0  0  0  0  0  0  0  0
    6.5060   -5.3050   22.3010 C   0  0  0  0  0  0  0  0  0  0  0  0
    5.7660   -4.7480   23.4860 C   0  0  0  0  0  0  0  0  0  0  0  0
    6.6190   -3.6880   24.2020 C   0  0  0  0  0  0  0  0  0  0  0  0
    5.8210   -3.1410   25.3120 C   0  0  0  0  0  0  0  0  0  0  0  0
    4.7760   -2.5280   25.0610 O   0  0  0  0  0  0  0  0  0  0  0  0
    6.2310   -3.2970   26.6440 N   0  0  0  0  0  0  0  0  0  0  0  0
    5.9890   -4.5800   27.2540 C   0  0  2  0  0  0  0  0  0  0  0  0
    4.5010   -4.7300   27.2490 C   0  0  0  0  0  0  0  0  0  0  0  0
    3.9070   -5.7290   26.5330 C   0  0  0  0  0  0  0  0  0  0  0  0
    4.3040   -7.0190   26.3340 C   0  0  0  0  0  0  0  0  0  0  0  0
    3.0500   -7.6920   25.3070 S   0  0  0  0  0  0  0  0  0  0  0  0
    2.1450   -6.2520   25.2440 C   0  0  0  0  0  0  0  0  0  0  0  0
    0.8780   -6.3130   24.4240 C   0  0  0  0  0  0  0  0  0  0  0  0
    0.1230   -5.0110   24.4090 C   0  0  0  0  0  0  0  0  0  0  0  0
    0.6600   -3.8140   25.1690 C   0  0  0  0  0  0  0  0  0  0  0  0
    1.9450   -3.9540   25.9240 C   0  0  0  0  0  0  0  0  0  0  0  0
    2.7670   -5.1880   26.0080 C   0  0  0  0  0  0  0  0  0  0  0  0
    6.5170   -4.8010   28.6570 C   0  0  0  0  0  0  0  0  0  0  0  0
    6.6290   -5.3630   29.9070 O   0  0  0  0  0  0  0  0  0  0  0  0
    5.5890   -5.7390   28.6690 O   0  0  0  0  0  0  0  0  0  0  0  0
    5.8690   -7.0310   29.1680 C   0  0  0  0  0  0  0  0  0  0  0  0
    5.4560   -7.2680   30.6000 C   0  0  0  0  0  0  0  0  0  0  0  0
    6.9390   -2.5740   23.2470 C   0  0  0  0  0  0  0  0  0  0  0  0
    7.6540   -3.1090   22.0450 C   0  0  0  0  0  0  0  0  0  0  0  0
  1  2  1  0
  2  3  2  0
  2  4  1  0
  4  5  1  0
  5  6  1  0
  6  7  1  0
  7  8  1  0
  8  9  2  0
  8 10  1  0
 10 11  1  0
 11 12  1  1
 12 13  1  0
 13 14  2  0
 14 15  1  0
 15 16  1  0
 16 17  1  0
 17 18  2  0
 18 19  1  0
 19 20  2  0
 13 21  1  0
 16 21  2  0
 20 21  1  0
 11 22  1  0
 22 23  2  0
 22 24  1  0
 24 25  1  0
 25 26  1  0
  7 27  1  0
  4 28  1  0
 27 28  1  0
M  END
