piperidine-amides-4123-covalent
     RDKit          3D

 27 28  0  0  0  0  0  0  0  0999 V2000
    7.1350   -3.2810   19.1950 C   0  0  0  0  0  0  0  0  0  0  0  0
    6.4150   -4.0270   20.2410 C   0  0  0  0  0  0  0  0  0  0  0  0
    5.3340   -4.5730   19.9040 O   0  0  0  0  0  0  0  0  0  0  0  0
    6.9410   -4.1740   21.5490 N   0  0  0  0  0  0  0  0  0  0  0  0
    7.7530   -3.1390   22.0960 C   0  0  0  0  0  0  0  0  0  0  0  0
    7.3560   -2.8360   23.4440 C   0  0  0  0  0  0  0  0  0  0  0  0
    6.0480   -3.4280   23.7340 C   0  0  0  0  0  0  0  0  0  0  0  0
    5.6200   -3.1020   25.1190 C   0  0  0  0  0  0  0  0  0  0  0  0
    4.5950   -2.4220   25.2950 O   0  0  0  0  0  0  0  0  0  0  0  0
    6.3380   -3.5500   26.2270 N   0  0  0  0  0  0  0  0  0  0  0  0
    5.8050   -4.2860   27.2890 C   0  0  2  0  0  0  0  0  0  0  0  0
    6.0940   -3.9190   28.6400 C   0  0  0  0  0  0  0  0  0  0  0  0
    4.6830   -3.9190   29.2660 C   0  0  0  0  0  0  0  0  0  0  0  0
    4.0540   -2.7040   29.4980 C   0  0  0  0  0  0  0  0  0  0  0  0
    2.6200   -2.7830   30.1420 C   0  0  0  0  0  0  0  0  0  0  0  0
    1.9520   -4.1150   30.4930 C   0  0  0  0  0  0  0  0  0  0  0  0
    0.6790   -4.1760   31.0670 O   0  0  0  0  0  0  0  0  0  0  0  0
    2.7900   -5.3400   30.1660 C   0  0  0  0  0  0  0  0  0  0  0  0
    2.4310   -6.5210   30.3720 O   0  0  0  0  0  0  0  0  0  0  0  0
    3.3160   -7.6540   30.2210 C   0  0  0  0  0  0  0  0  0  0  0  0
    4.1200   -5.1340   29.5640 C   0  0  0  0  0  0  0  0  0  0  0  0
    6.0050   -5.7750   27.1930 C   0  0  0  0  0  0  0  0  0  0  0  0
    6.9350   -6.4710   27.9010 O   0  0  0  0  0  0  0  0  0  0  0  0
    5.1740   -6.4850   26.3530 O   0  0  0  0  0  0  0  0  0  0  0  0
    4.0010   -7.1300   26.7120 C   0  0  0  0  0  0  0  0  0  0  0  0
    5.9320   -4.9040   23.4580 C   0  0  0  0  0  0  0  0  0  0  0  0
    6.6430   -5.3380   22.3370 C   0  0  0  0  0  0  0  0  0  0  0  0
  1  2  1  0
  2  3  2  0
  2  4  1  0
  4  5  1  0
  5  6  1  0
  6  7  1  0
  7  8  1  0
  8  9  2  0
  8 10  1  0
 10 11  1  0
 11 12  1  1
 12 13  1  0
 13 14  2  0
 14 15  1  0
 15 16  2  0
 16 17  1  0
 16 18  1  0
 18 19  1  0
 19 20  1  0
 13 21  1  0
 18 21  2  0
 11 22  1  0
 22 23  2  0
 22 24  1  0
 24 25  1  0
  7 26  1  0
  4 27  1  0
 26 27  1  0
M  END
