piperidine-amides-14815-covalent
     RDKit          3D

 22 24  0  0  0  0  0  0  0  0999 V2000
    7.0760   -3.2920   19.2880 C   0  0  0  0  0  0  0  0  0  0  0  0
    6.3990   -4.0990   20.3050 C   0  0  0  0  0  0  0  0  0  0  0  0
    5.3730   -4.7170   19.9550 O   0  0  0  0  0  0  0  0  0  0  0  0
    6.9180   -4.2200   21.6310 N   0  0  0  0  0  0  0  0  0  0  0  0
    6.6380   -5.4360   22.3580 C   0  0  0  0  0  0  0  0  0  0  0  0
    6.1160   -5.1430   23.7460 C   0  0  0  0  0  0  0  0  0  0  0  0
    5.9900   -3.6430   23.8720 C   0  0  0  0  0  0  0  0  0  0  0  0
    5.5110   -3.2290   25.2360 C   0  0  0  0  0  0  0  0  0  0  0  0
    4.3210   -2.9450   25.3000 O   0  0  0  0  0  0  0  0  0  0  0  0
    6.3940   -3.1810   26.3130 N   0  0  0  0  0  0  0  0  0  0  0  0
    6.1090   -3.8350   27.5660 C   0  0  0  0  0  0  0  0  0  0  0  0
    4.7770   -3.7390   28.0160 C   0  0  0  0  0  0  0  0  0  0  0  0
    4.0780   -2.5630   27.5300 N   0  0  0  0  0  0  0  0  0  0  0  0
    2.8620   -2.6430   28.0500 N   0  0  0  0  0  0  0  0  0  0  0  0
    2.8090   -3.7640   28.7870 N   0  0  0  0  0  0  0  0  0  0  0  0
    3.9430   -4.4480   28.7920 N   0  0  0  0  0  0  0  0  0  0  0  0
    4.2280   -5.6820   29.4800 C   0  0  0  0  0  0  0  0  0  0  0  0
    3.3990   -6.7220   29.0130 C   0  0  0  0  0  0  0  0  0  0  0  0
    4.6000   -7.4450   28.6440 C   0  0  0  0  0  0  0  0  0  0  0  0
    5.5690   -6.3470   29.0430 C   0  0  0  0  0  0  0  0  0  0  0  0
    7.2430   -2.9170   23.5830 C   0  0  0  0  0  0  0  0  0  0  0  0
    7.6720   -3.1230   22.1670 C   0  0  0  0  0  0  0  0  0  0  0  0
  1  2  1  0
  2  3  2  0
  2  4  1  0
  4  5  1  0
  5  6  1  0
  6  7  1  0
  7  8  1  0
  8  9  2  0
  8 10  1  0
 10 11  1  0
 11 12  1  0
 12 13  2  0
 13 14  1  0
 14 15  2  0
 12 16  1  0
 15 16  1  0
 16 17  1  0
 17 18  1  0
 18 19  1  0
 17 20  1  0
 19 20  1  0
  7 21  1  0
  4 22  1  0
 21 22  1  0
M  END
