piperidine-amides-458-covalent
     RDKit          3D

 27 29  0  0  0  0  0  0  0  0999 V2000
    7.1400   -3.3040   19.3640 C   0  0  0  0  0  0  0  0  0  0  0  0
    6.4200   -4.1020   20.3270 C   0  0  0  0  0  0  0  0  0  0  0  0
    5.3860   -4.7410   19.9530 O   0  0  0  0  0  0  0  0  0  0  0  0
    6.8620   -4.2180   21.6570 N   0  0  0  0  0  0  0  0  0  0  0  0
    7.6400   -3.0780   22.2130 C   0  0  0  0  0  0  0  0  0  0  0  0
    7.6720   -3.4050   23.7560 C   0  0  0  0  0  0  0  0  0  0  0  0
    6.2670   -3.8270   24.1060 C   0  0  0  0  0  0  0  0  0  0  0  0
    5.9090   -3.7530   25.6440 C   0  0  0  0  0  0  0  0  0  0  0  0
    5.4240   -4.8060   26.0000 O   0  0  0  0  0  0  0  0  0  0  0  0
    6.1790   -2.6220   26.1300 N   0  0  0  0  0  0  0  0  0  0  0  0
    6.2450   -1.4030   26.7100 C   0  0  0  0  0  0  0  0  0  0  0  0
    6.1630   -0.0560   26.4160 C   0  0  0  0  0  0  0  0  0  0  0  0
    6.2530    1.0600   27.3070 C   0  0  0  0  0  0  0  0  0  0  0  0
    6.4560    1.0740   28.7700 C   0  0  0  0  0  0  0  0  0  0  0  0
    6.5450   -0.3960   29.0910 C   0  0  0  0  0  0  0  0  0  0  0  0
    6.7290   -0.5490   30.5250 N   0  0  0  0  0  0  0  0  0  0  0  0
    5.4980   -0.6270   31.2490 C   0  0  0  0  0  0  0  0  0  0  0  0
    4.3920   -1.1600   31.0140 O   0  0  0  0  0  0  0  0  0  0  0  0
    5.6960    0.0400   32.3990 N   0  0  0  0  0  0  0  0  0  0  0  0
    7.0270    0.6190   32.4700 C   0  0  0  0  0  0  0  0  0  0  0  0
    8.0490    0.1800   33.5250 C   0  0  0  0  0  0  0  0  0  0  0  0
    6.9110    2.1480   32.5610 C   0  0  0  0  0  0  0  0  0  0  0  0
    7.6250    0.3620   31.1530 C   0  0  0  0  0  0  0  0  0  0  0  0
    8.7590    0.8470   30.5800 O   0  0  0  0  0  0  0  0  0  0  0  0
    6.4580   -1.4220   28.2060 C   0  0  0  0  0  0  0  0  0  0  0  0
    5.8570   -5.1460   23.4770 C   0  0  0  0  0  0  0  0  0  0  0  0
    6.6590   -5.4250   22.4090 C   0  0  0  0  0  0  0  0  0  0  0  0
  1  2  1  0
  2  3  2  0
  2  4  1  0
  4  5  1  0
  5  6  1  0
  6  7  1  0
  7  8  1  0
  8  9  2  0
  8 10  1  0
 10 11  1  0
 11 12  2  0
 12 13  1  0
 13 14  2  0
 14 15  1  0
 15 16  1  0
 16 17  1  0
 17 18  2  0
 17 19  1  0
 19 20  1  0
 20 21  1  0
 20 22  1  0
 16 23  1  0
 20 23  1  0
 23 24  2  0
 11 25  1  0
 15 25  2  0
  7 26  1  0
  4 27  1  0
 26 27  1  0
M  END
