piperidine-amides-14034-covalent
     RDKit          3D

 25 27  0  0  0  0  0  0  0  0999 V2000
    7.1410   -3.2770   19.2120 C   0  0  0  0  0  0  0  0  0  0  0  0
    6.3260   -4.0230   20.2110 C   0  0  0  0  0  0  0  0  0  0  0  0
    5.2420   -4.5100   19.8620 O   0  0  0  0  0  0  0  0  0  0  0  0
    6.8320   -4.2100   21.5090 N   0  0  0  0  0  0  0  0  0  0  0  0
    6.5280   -5.3780   22.2940 C   0  0  0  0  0  0  0  0  0  0  0  0
    5.6520   -4.8990   23.4540 C   0  0  0  0  0  0  0  0  0  0  0  0
    6.4670   -3.9100   24.2140 C   0  0  0  0  0  0  0  0  0  0  0  0
    5.7580   -3.3430   25.3850 C   0  0  0  0  0  0  0  0  0  0  0  0
    4.6090   -2.9400   25.1780 O   0  0  0  0  0  0  0  0  0  0  0  0
    6.3800   -3.2790   26.6360 N   0  0  0  0  0  0  0  0  0  0  0  0
    6.1380   -4.1080   27.7780 C   0  0  0  0  0  0  0  0  0  0  0  0
    5.9670   -5.4780   27.7400 C   0  0  0  0  0  0  0  0  0  0  0  0
    5.0610   -6.1370   28.5950 C   0  0  0  0  0  0  0  0  0  0  0  0
    3.8260   -5.5890   28.8880 C   0  0  0  0  0  0  0  0  0  0  0  0
    3.4920   -4.2810   29.5400 C   0  0  0  0  0  0  0  0  0  0  0  0
    2.0890   -4.1240   29.6490 N   0  0  0  0  0  0  0  0  0  0  0  0
    1.4990   -5.2960   29.0830 C   0  0  0  0  0  0  0  0  0  0  0  0
    0.0680   -5.6800   28.9260 C   0  0  0  0  0  0  0  0  0  0  0  0
   -0.2410   -6.8850   28.3360 C   0  0  0  0  0  0  0  0  0  0  0  0
    0.7170   -7.9360   27.7960 C   0  0  0  0  0  0  0  0  0  0  0  0
    0.3730   -9.1120   27.2210 F   0  0  0  0  0  0  0  0  0  0  0  0
    2.1600   -7.4040   28.0280 C   0  0  0  0  0  0  0  0  0  0  0  0
    2.4940   -6.2110   28.6100 C   0  0  0  0  0  0  0  0  0  0  0  0
    6.9870   -2.7640   23.4090 C   0  0  0  0  0  0  0  0  0  0  0  0
    7.6600   -3.1860   22.1300 C   0  0  0  0  0  0  0  0  0  0  0  0
  1  2  1  0
  2  3  2  0
  2  4  1  0
  4  5  1  0
  5  6  1  0
  6  7  1  0
  7  8  1  0
  8  9  2  0
  8 10  1  0
 10 11  1  0
 11 12  1  0
 12 13  1  0
 13 14  1  0
 14 15  2  0
 15 16  1  0
 16 17  1  0
 17 18  1  0
 18 19  2  0
 19 20  1  0
 20 21  1  0
 20 22  2  0
 14 23  1  0
 17 23  2  0
 22 23  1  0
  7 24  1  0
  4 25  1  0
 24 25  1  0
M  END
