piperidine-amides-31356-covalent
     RDKit          3D

 28 30  0  0  0  0  0  0  0  0999 V2000
    7.1340   -3.3560   19.4230 C   0  0  0  0  0  0  0  0  0  0  0  0
    6.4540   -4.1970   20.3770 C   0  0  0  0  0  0  0  0  0  0  0  0
    5.4440   -4.8750   19.9930 O   0  0  0  0  0  0  0  0  0  0  0  0
    6.9220   -4.2950   21.6980 N   0  0  0  0  0  0  0  0  0  0  0  0
    6.6820   -5.5430   22.4560 C   0  0  0  0  0  0  0  0  0  0  0  0
    5.7220   -5.0250   23.6030 C   0  0  0  0  0  0  0  0  0  0  0  0
    6.4430   -3.8930   24.3180 C   0  0  0  0  0  0  0  0  0  0  0  0
    5.6190   -3.4050   25.5870 C   0  0  0  0  0  0  0  0  0  0  0  0
    4.7310   -2.6340   25.2550 O   0  0  0  0  0  0  0  0  0  0  0  0
    6.1090   -3.9580   26.6180 N   0  0  0  0  0  0  0  0  0  0  0  0
    6.9330   -4.6050   27.4500 C   0  0  0  0  0  0  0  0  0  0  0  0
    6.7420   -5.5400   28.3600 C   0  0  0  0  0  0  0  0  0  0  0  0
    5.4990   -5.0870   28.7630 C   0  0  0  0  0  0  0  0  0  0  0  0
    5.0990   -4.0630   27.7510 C   0  0  2  0  0  0  0  0  0  0  0  0
    5.9040   -3.1440   28.7030 C   0  0  0  0  0  0  0  0  0  0  0  0
    4.6470   -2.9580   28.7190 C   0  0  0  0  0  0  0  0  0  0  0  0
    3.6780   -3.3540   29.6620 C   0  0  0  0  0  0  0  0  0  0  0  0
    2.7160   -2.3680   29.0750 C   0  0  0  0  0  0  0  0  0  0  0  0
    1.3290   -2.3680   29.7860 C   0  0  0  0  0  0  0  0  0  0  0  0
    1.1030   -3.2380   30.8560 C   0  0  0  0  0  0  0  0  0  0  0  0
   -0.1020   -3.2670   31.5030 C   0  0  0  0  0  0  0  0  0  0  0  0
   -0.8060   -4.3560   31.0980 C   0  0  0  0  0  0  0  0  0  0  0  0
    0.0810   -3.2750   32.8690 C   0  0  0  0  0  0  0  0  0  0  0  0
   -0.8280   -2.1210   31.3770 C   0  0  0  0  0  0  0  0  0  0  0  0
    2.0970   -4.1170   31.3130 C   0  0  0  0  0  0  0  0  0  0  0  0
    3.4690   -4.1950   30.6930 C   0  0  0  0  0  0  0  0  0  0  0  0
    6.8860   -2.7500   23.4390 C   0  0  0  0  0  0  0  0  0  0  0  0
    7.7500   -3.3190   22.3320 C   0  0  0  0  0  0  0  0  0  0  0  0
  1  2  1  0
  2  3  2  0
  2  4  1  0
  4  5  1  0
  5  6  1  0
  6  7  1  0
  7  8  1  0
  8  9  2  0
  8 10  1  0
 10 11  1  0
 11 12  1  0
 12 13  1  0
 10 14  1  0
 13 14  1  0
 14 15  1  1
 14 16  1  0
 16 17  1  0
 17 18  2  0
 18 19  1  0
 19 20  2  0
 20 21  1  0
 21 22  1  0
 21 23  1  0
 21 24  1  0
 20 25  1  0
 17 26  1  0
 25 26  2  0
  7 27  1  0
  4 28  1  0
 27 28  1  0
M  END
