piperidine-amides-14776-covalent
     RDKit          3D

 22 24  0  0  0  0  0  0  0  0999 V2000
    7.0270   -3.3550   19.3780 C   0  0  0  0  0  0  0  0  0  0  0  0
    6.3020   -4.1790   20.3430 C   0  0  0  0  0  0  0  0  0  0  0  0
    5.2860   -4.7660   19.9500 O   0  0  0  0  0  0  0  0  0  0  0  0
    6.7750   -4.3400   21.6680 N   0  0  0  0  0  0  0  0  0  0  0  0
    7.6310   -3.3450   22.2410 C   0  0  0  0  0  0  0  0  0  0  0  0
    7.4160   -3.3750   23.7120 C   0  0  0  0  0  0  0  0  0  0  0  0
    5.9920   -3.8280   23.8720 C   0  0  0  0  0  0  0  0  0  0  0  0
    5.4800   -3.6220   25.2700 C   0  0  0  0  0  0  0  0  0  0  0  0
    4.2740   -3.7760   25.4330 O   0  0  0  0  0  0  0  0  0  0  0  0
    6.3690   -3.2550   26.2690 N   0  0  0  0  0  0  0  0  0  0  0  0
    6.8970   -1.9410   26.2700 C   0  0  0  0  0  0  0  0  0  0  0  0
    7.3970   -1.3470   25.0930 C   0  0  0  0  0  0  0  0  0  0  0  0
    8.6040   -1.8010   24.5430 C   0  0  0  0  0  0  0  0  0  0  0  0
    9.2470   -1.3250   23.3720 C   0  0  0  0  0  0  0  0  0  0  0  0
    8.5240   -0.2130   22.6730 C   0  0  0  0  0  0  0  0  0  0  0  0
    7.2080    0.3050   23.2420 C   0  0  0  0  0  0  0  0  0  0  0  0
    6.7100   -0.3230   24.4650 C   0  0  0  0  0  0  0  0  0  0  0  0
    5.5050    0.1770   24.9480 F   0  0  0  0  0  0  0  0  0  0  0  0
    5.8600   -0.9270   26.9680 C   0  0  0  0  0  0  0  0  0  0  0  0
    7.0020   -1.2980   27.6740 C   0  0  0  0  0  0  0  0  0  0  0  0
    5.9060   -5.3040   23.5690 C   0  0  0  0  0  0  0  0  0  0  0  0
    6.5770   -5.5820   22.3840 C   0  0  0  0  0  0  0  0  0  0  0  0
  1  2  1  0
  2  3  2  0
  2  4  1  0
  4  5  1  0
  5  6  1  0
  6  7  1  0
  7  8  1  0
  8  9  2  0
  8 10  1  0
 11 10  1  0
 11 12  1  0
 12 13  2  0
 13 14  1  0
 14 15  2  0
 15 16  1  0
 12 17  1  0
 16 17  2  0
 17 18  1  0
 11 19  1  0
 11 20  1  0
 19 20  1  0
  7 21  1  0
  4 22  1  0
 21 22  1  0
M  END
