piperidine-amides-34371-covalent
     RDKit          3D

 31 33  0  0  0  0  0  0  0  0999 V2000
    7.2040   -3.2630   19.1780 C   0  0  0  0  0  0  0  0  0  0  0  0
    6.4550   -4.0350   20.1740 C   0  0  0  0  0  0  0  0  0  0  0  0
    5.3470   -4.5450   19.8930 O   0  0  0  0  0  0  0  0  0  0  0  0
    7.0260   -4.2620   21.4260 N   0  0  0  0  0  0  0  0  0  0  0  0
    7.7950   -3.2130   22.0500 C   0  0  0  0  0  0  0  0  0  0  0  0
    6.8600   -2.5940   23.0730 C   0  0  0  0  0  0  0  0  0  0  0  0
    6.6220   -3.6650   24.1080 C   0  0  0  0  0  0  0  0  0  0  0  0
    5.7830   -3.0980   25.1570 C   0  0  0  0  0  0  0  0  0  0  0  0
    4.9290   -2.2400   24.8530 O   0  0  0  0  0  0  0  0  0  0  0  0
    5.9470   -3.5520   26.4660 N   0  0  0  0  0  0  0  0  0  0  0  0
    5.3220   -4.7860   26.7480 C   0  0  0  0  0  0  0  0  0  0  0  0
    4.6110   -5.6020   25.6870 C   0  0  0  0  0  0  0  0  0  0  0  0
    4.0450   -6.7880   26.0640 C   0  0  0  0  0  0  0  0  0  0  0  0
    4.1160   -7.2320   27.3610 C   0  0  0  0  0  0  0  0  0  0  0  0
    4.7700   -6.4790   28.3310 C   0  0  0  0  0  0  0  0  0  0  0  0
    5.3810   -5.2690   28.1120 C   0  0  0  0  0  0  0  0  0  0  0  0
    6.0910   -4.4040   29.0700 C   0  0  2  0  0  0  0  0  0  0  0  0
    4.5850   -4.4750   29.3270 C   0  0  0  0  0  0  0  0  0  0  0  0
    4.0880   -5.4170   30.0060 O   0  0  0  0  0  0  0  0  0  0  0  0
    3.7040   -3.3840   28.8290 N   0  0  0  0  0  0  0  0  0  0  0  0
    3.4660   -2.4260   29.9350 C   0  0  0  0  0  0  0  0  0  0  0  0
    4.1840   -1.1910   29.5750 C   0  0  0  0  0  0  0  0  0  0  0  0
    4.7890   -0.6960   30.7490 C   0  0  0  0  0  0  0  0  0  0  0  0
    5.7900    0.2040   30.4890 C   0  0  0  0  0  0  0  0  0  0  0  0
    7.2100   -0.2540   30.7560 C   0  0  0  0  0  0  0  0  0  0  0  0
    5.8760    0.7020   29.0610 C   0  0  0  0  0  0  0  0  0  0  0  0
    6.5430   -3.1360   28.6760 C   0  0  0  0  0  0  0  0  0  0  0  0
    6.1180   -2.5320   27.4870 C   0  0  1  0  0  0  0  0  0  0  0  0
    6.8710   -1.5100   27.0030 C   0  0  0  0  0  0  0  0  0  0  0  0
    6.0040   -4.9140   23.4920 C   0  0  0  0  0  0  0  0  0  0  0  0
    6.6010   -5.3540   22.2180 C   0  0  0  0  0  0  0  0  0  0  0  0
  1  2  1  0
  2  3  2  0
  2  4  1  0
  4  5  1  0
  5  6  1  0
  6  7  1  0
  7  8  1  0
  8  9  2  0
  8 10  1  0
 10 11  1  0
 11 12  2  0
 12 13  1  0
 13 14  2  0
 14 15  1  0
 11 16  1  0
 15 16  2  0
 16 17  1  0
 17 18  1  1
 18 19  2  0
 18 20  1  0
 20 21  1  0
 21 22  1  0
 22 23  1  0
 23 24  1  0
 24 25  1  0
 24 26  1  0
 17 27  1  0
 10 28  1  0
 27 28  1  0
 28 29  1  6
  7 30  1  0
  4 31  1  0
 30 31  1  0
M  END
