piperidine-amides-8645-covalent
     RDKit          3D

 23 23  0  0  0  0  0  0  0  0999 V2000
    7.0650   -3.2760   19.2520 C   0  0  0  0  0  0  0  0  0  0  0  0
    6.3690   -4.0650   20.2740 C   0  0  0  0  0  0  0  0  0  0  0  0
    5.3460   -4.6830   19.9340 O   0  0  0  0  0  0  0  0  0  0  0  0
    6.8740   -4.1540   21.6040 N   0  0  0  0  0  0  0  0  0  0  0  0
    7.7570   -3.1350   22.1040 C   0  0  0  0  0  0  0  0  0  0  0  0
    7.5030   -2.9610   23.5650 C   0  0  0  0  0  0  0  0  0  0  0  0
    6.1370   -3.5610   23.7580 C   0  0  0  0  0  0  0  0  0  0  0  0
    5.5910   -3.2690   25.1170 C   0  0  0  0  0  0  0  0  0  0  0  0
    4.3840   -3.0650   25.1680 O   0  0  0  0  0  0  0  0  0  0  0  0
    6.4500   -3.2510   26.2070 N   0  0  0  0  0  0  0  0  0  0  0  0
    6.0890   -3.9090   27.4120 C   0  0  0  0  0  0  0  0  0  0  0  0
    6.1930   -3.1380   28.5680 C   0  0  1  0  0  0  0  0  0  0  0  0
    6.9790   -2.0070   28.6300 C   0  0  0  0  0  0  0  0  0  0  0  0
    6.6020   -0.8990   29.3650 C   0  0  0  0  0  0  0  0  0  0  0  0
    4.7530   -2.6800   28.8550 C   0  0  0  0  0  0  0  0  0  0  0  0
    4.6270   -2.2750   30.1630 O   0  0  0  0  0  0  0  0  0  0  0  0
    3.6500   -2.6430   27.9830 O   0  0  0  0  0  0  0  0  0  0  0  0
    2.9910   -1.4220   27.6550 C   0  0  0  0  0  0  0  0  0  0  0  0
    1.6780   -1.7170   27.0280 C   0  0  0  0  0  0  0  0  0  0  0  0
    3.8830   -0.7600   26.6350 C   0  0  0  0  0  0  0  0  0  0  0  0
    2.9520   -0.5360   28.7320 C   0  0  0  0  0  0  0  0  0  0  0  0
    6.2080   -5.0660   23.6130 C   0  0  0  0  0  0  0  0  0  0  0  0
    6.7110   -5.3730   22.3610 C   0  0  0  0  0  0  0  0  0  0  0  0
  1  2  1  0
  2  3  2  0
  2  4  1  0
  4  5  1  0
  5  6  1  0
  6  7  1  0
  7  8  1  0
  8  9  2  0
  8 10  1  0
 10 11  1  0
 12 11  1  6
 12 13  1  0
 13 14  1  0
 12 15  1  0
 15 16  2  0
 15 17  1  0
 18 17  1  0
 18 19  1  0
 18 20  1  0
 18 21  1  0
  7 22  1  0
  4 23  1  0
 22 23  1  0
M  END
