piperidine-amides-10438-covalent
     RDKit          3D

 24 26  0  0  0  0  0  0  0  0999 V2000
    7.1340   -3.3060   19.2240 C   0  0  0  0  0  0  0  0  0  0  0  0
    6.3760   -4.0450   20.2330 C   0  0  0  0  0  0  0  0  0  0  0  0
    5.2700   -4.5180   19.8720 O   0  0  0  0  0  0  0  0  0  0  0  0
    6.9160   -4.2480   21.5030 N   0  0  0  0  0  0  0  0  0  0  0  0
    6.5500   -5.3850   22.2990 C   0  0  0  0  0  0  0  0  0  0  0  0
    5.6920   -4.8760   23.4260 C   0  0  0  0  0  0  0  0  0  0  0  0
    6.3410   -3.7420   24.1810 C   0  0  0  0  0  0  0  0  0  0  0  0
    5.3350   -3.1040   25.0570 C   0  0  0  0  0  0  0  0  0  0  0  0
    4.1840   -3.5800   25.0890 O   0  0  0  0  0  0  0  0  0  0  0  0
    5.6250   -1.9890   25.8520 N   0  0  0  0  0  0  0  0  0  0  0  0
    6.6850   -2.1010   26.7800 C   0  0  0  0  0  0  0  0  0  0  0  0
    6.2360   -2.0220   28.2240 C   0  0  0  0  0  0  0  0  0  0  0  0
    6.8810   -1.1910   29.1250 C   0  0  0  0  0  0  0  0  0  0  0  0
    6.4920   -0.9000   30.4190 C   0  0  0  0  0  0  0  0  0  0  0  0
    7.1690   -0.0530   31.3030 C   0  0  0  0  0  0  0  0  0  0  0  0
    8.3320    0.5570   30.8640 C   0  0  0  0  0  0  0  0  0  0  0  0
    8.8800    1.3700   31.8700 F   0  0  0  0  0  0  0  0  0  0  0  0
    8.8120    0.3410   29.6000 C   0  0  0  0  0  0  0  0  0  0  0  0
    8.0380   -0.5770   28.6980 C   0  0  0  0  0  0  0  0  0  0  0  0
    6.0530   -3.4170   28.6120 C   0  0  0  0  0  0  0  0  0  0  0  0
    4.5950   -3.2990   28.7450 C   0  0  0  0  0  0  0  0  0  0  0  0
    4.7910   -1.9120   28.3440 C   0  0  0  0  0  0  0  0  0  0  0  0
    6.9560   -2.6870   23.3360 C   0  0  0  0  0  0  0  0  0  0  0  0
    7.6750   -3.1960   22.1120 C   0  0  0  0  0  0  0  0  0  0  0  0
  1  2  1  0
  2  3  2  0
  2  4  1  0
  4  5  1  0
  5  6  1  0
  6  7  1  0
  7  8  1  0
  8  9  2  0
  8 10  1  0
 10 11  1  0
 12 11  1  0
 12 13  1  0
 13 14  2  0
 14 15  1  0
 15 16  2  0
 16 17  1  0
 16 18  1  0
 13 19  1  0
 18 19  2  0
 12 20  1  0
 20 21  1  0
 12 22  1  0
 21 22  1  0
  7 23  1  0
  4 24  1  0
 23 24  1  0
M  END
