piperidine-amides-3184-covalent
     RDKit          3D

 22 24  0  0  0  0  0  0  0  0999 V2000
    7.0630   -3.2850   19.2240 C   0  0  0  0  0  0  0  0  0  0  0  0
    6.3190   -4.0270   20.2410 C   0  0  0  0  0  0  0  0  0  0  0  0
    5.2990   -4.6310   19.9170 O   0  0  0  0  0  0  0  0  0  0  0  0
    6.7850   -4.1060   21.6010 N   0  0  0  0  0  0  0  0  0  0  0  0
    7.6680   -3.0880   22.1240 C   0  0  0  0  0  0  0  0  0  0  0  0
    7.3880   -2.8730   23.5780 C   0  0  0  0  0  0  0  0  0  0  0  0
    6.1040   -3.6210   23.8700 C   0  0  0  0  0  0  0  0  0  0  0  0
    5.5820   -3.3130   25.2330 C   0  0  0  0  0  0  0  0  0  0  0  0
    4.3800   -3.0670   25.4380 O   0  0  0  0  0  0  0  0  0  0  0  0
    6.4730   -3.2830   26.3270 N   0  0  0  0  0  0  0  0  0  0  0  0
    6.1220   -3.9440   27.5750 C   0  0  0  0  0  0  0  0  0  0  0  0
    5.8390   -5.4190   27.3280 C   0  0  0  0  0  0  0  0  0  0  0  0
    4.8270   -6.0800   27.9270 N   0  0  0  0  0  0  0  0  0  0  0  0
    4.6780   -6.0790   29.2430 C   0  0  0  0  0  0  0  0  0  0  0  0
    3.5790   -6.8210   29.5630 N   0  0  0  0  0  0  0  0  0  0  0  0
    3.0070   -7.3110   28.4410 N   0  0  0  0  0  0  0  0  0  0  0  0
    3.8080   -6.8420   27.3440 C   0  0  0  0  0  0  0  0  0  0  0  0
    3.5230   -7.1500   26.0280 C   0  0  0  0  0  0  0  0  0  0  0  0
    2.3820   -6.8010   25.5430 C   0  0  0  0  0  0  0  0  0  0  0  0
    2.4290   -8.1580   25.7250 C   0  0  0  0  0  0  0  0  0  0  0  0
    6.4150   -5.1020   23.7080 C   0  0  0  0  0  0  0  0  0  0  0  0
    6.4260   -5.3220   22.3230 C   0  0  0  0  0  0  0  0  0  0  0  0
  1  2  1  0
  2  3  2  0
  2  4  1  0
  4  5  1  0
  5  6  1  0
  6  7  1  0
  7  8  1  0
  8  9  2  0
  8 10  1  0
 10 11  1  0
 11 12  1  0
 12 13  1  0
 13 14  1  0
 14 15  2  0
 15 16  1  0
 13 17  1  0
 16 17  2  0
 17 18  1  0
 18 19  1  0
 18 20  1  0
 19 20  1  0
  7 21  1  0
  4 22  1  0
 21 22  1  0
M  END
