piperidine-amides-35638-covalent
     RDKit          3D

 40 43  0  0  0  0  0  0  0  0999 V2000
    7.0600   -3.2930   19.3170 C   0  0  0  0  0  0  0  0  0  0  0  0
    6.3450   -4.1380   20.3110 C   0  0  0  0  0  0  0  0  0  0  0  0
    5.3160   -4.6870   19.9310 O   0  0  0  0  0  0  0  0  0  0  0  0
    6.8600   -4.3310   21.5970 N   0  0  0  0  0  0  0  0  0  0  0  0
    7.6890   -3.3220   22.2320 C   0  0  0  0  0  0  0  0  0  0  0  0
    7.3160   -3.1810   23.6760 C   0  0  0  0  0  0  0  0  0  0  0  0
    6.1240   -4.0940   23.9290 C   0  0  0  0  0  0  0  0  0  0  0  0
    5.4990   -3.7740   25.2140 C   0  0  0  0  0  0  0  0  0  0  0  0
    4.3020   -3.4570   25.2110 O   0  0  0  0  0  0  0  0  0  0  0  0
    6.1820   -3.8000   26.4410 N   0  0  0  0  0  0  0  0  0  0  0  0
    5.7300   -4.8730   27.2940 C   0  0  0  0  0  0  0  0  0  0  0  0
    6.3900   -5.1870   28.6070 C   0  0  0  0  0  0  0  0  0  0  0  0
    5.9990   -6.1880   29.4090 C   0  0  0  0  0  0  0  0  0  0  0  0
    4.9630   -6.9330   29.0060 C   0  0  0  0  0  0  0  0  0  0  0  0
    4.2530   -6.7750   27.8420 C   0  0  0  0  0  0  0  0  0  0  0  0
    3.0780   -7.6100   27.3820 C   0  0  0  0  0  0  0  0  0  0  0  0
    2.5410   -7.6050   28.7760 C   0  0  0  0  0  0  0  0  0  0  0  0
    4.5380   -5.7140   26.8090 C   0  0  0  0  0  0  0  0  0  0  0  0
    6.1950   -2.4270   26.8240 C   0  0  0  0  0  0  0  0  0  0  0  0
    5.7890   -1.6490   25.8030 N   0  0  0  0  0  0  0  0  0  0  0  0
    5.7880   -0.3070   26.1660 C   0  0  0  0  0  0  0  0  0  0  0  0
    6.2070    0.0840   27.5730 N   0  0  0  0  0  0  0  0  0  0  0  0
    6.6610   -0.6460   28.7410 C   0  0  0  0  0  0  0  0  0  0  0  0
    6.6230    0.7730   29.0500 C   0  0  0  0  0  0  0  0  0  0  0  0
    6.1530    1.5050   27.8710 C   0  0  0  0  0  0  0  0  0  0  0  0
    6.0210    2.8830   27.8920 O   0  0  0  0  0  0  0  0  0  0  0  0
    6.1970    3.6390   29.0610 C   0  0  0  0  0  0  0  0  0  0  0  0
    5.1280    4.4160   29.7980 C   0  0  0  0  0  0  0  0  0  0  0  0
    4.3390    3.6590   30.6450 O   0  0  0  0  0  0  0  0  0  0  0  0
    3.7470    2.6170   31.1640 C   0  0  0  0  0  0  0  0  0  0  0  0
    5.8470    0.7850   26.7350 C   0  0  0  0  0  0  0  0  0  0  0  0
    5.4460    1.3720   25.6940 O   0  0  0  0  0  0  0  0  0  0  0  0
    4.0430    1.6620   25.5860 C   0  0  0  0  0  0  0  0  0  0  0  0
    3.5430    2.0220   24.1780 C   0  0  0  0  0  0  0  0  0  0  0  0
    4.4060    1.7670   23.1190 O   0  0  0  0  0  0  0  0  0  0  0  0
    4.5060    0.4320   22.7580 C   0  0  0  0  0  0  0  0  0  0  0  0
    6.0350   -0.7250   26.8450 C   0  0  0  0  0  0  0  0  0  0  0  0
    6.5000   -1.7400   27.9380 C   0  0  0  0  0  0  0  0  0  0  0  0
    6.4850   -5.5040   23.6840 C   0  0  0  0  0  0  0  0  0  0  0  0
    6.7300   -5.6480   22.1840 C   0  0  0  0  0  0  0  0  0  0  0  0
  1  2  1  0
  2  3  2  0
  2  4  1  0
  4  5  1  0
  5  6  1  0
  6  7  1  0
  7  8  1  0
  8  9  2  0
  8 10  1  0
 10 11  1  0
 11 12  2  0
 12 13  1  0
 13 14  2  0
 14 15  1  0
 15 16  1  0
 16 17  3  0
 11 18  1  0
 15 18  2  0
 10 19  1  0
 19 20  2  0
 20 21  1  0
 21 22  2  0
 22 23  1  0
 23 24  1  0
 24 25  2  0
 25 26  1  0
 26 27  1  0
 27 28  1  0
 28 29  1  0
 29 30  1  0
 25 31  1  0
 31 32  1  0
 32 33  1  0
 33 34  1  0
 34 35  1  0
 35 36  1  0
 31 37  2  0
 19 38  1  0
 23 38  2  0
 37 38  1  0
  7 39  1  0
  4 40  1  0
 39 40  1  0
M  END
