piperidine-amides-34361-covalent
     RDKit          3D

 30 33  0  0  0  0  0  0  0  0999 V2000
    7.0940   -3.3380   19.3920 C   0  0  0  0  0  0  0  0  0  0  0  0
    6.3810   -4.1710   20.3650 C   0  0  0  0  0  0  0  0  0  0  0  0
    5.3960   -4.8520   19.9920 O   0  0  0  0  0  0  0  0  0  0  0  0
    6.8250   -4.2480   21.6970 N   0  0  0  0  0  0  0  0  0  0  0  0
    7.6120   -3.1630   22.2650 C   0  0  0  0  0  0  0  0  0  0  0  0
    7.1160   -2.9130   23.7050 C   0  0  0  0  0  0  0  0  0  0  0  0
    5.7320   -3.5290   23.7790 C   0  0  0  0  0  0  0  0  0  0  0  0
    4.9820   -3.2060   25.0310 C   0  0  0  0  0  0  0  0  0  0  0  0
    3.7430   -3.1560   24.9350 O   0  0  0  0  0  0  0  0  0  0  0  0
    5.5840   -2.9570   26.2900 N   0  0  0  0  0  0  0  0  0  0  0  0
    5.8870   -4.0560   27.1670 C   0  0  0  0  0  0  0  0  0  0  0  0
    5.1620   -4.0730   28.5000 C   0  0  0  0  0  0  0  0  0  0  0  0
    5.6070   -5.2160   29.2760 N   0  0  0  0  0  0  0  0  0  0  0  0
    6.5850   -6.1920   28.8650 C   0  0  0  0  0  0  0  0  0  0  0  0
    7.1710   -6.0730   27.6380 C   0  0  0  0  0  0  0  0  0  0  0  0
    6.9010   -5.0820   26.7260 C   0  0  0  0  0  0  0  0  0  0  0  0
    7.5070   -4.9990   25.5000 C   0  0  0  0  0  0  0  0  0  0  0  0
    5.3020   -1.6380   26.9560 C   0  0  2  0  0  0  0  0  0  0  0  0
    5.9740   -0.4800   26.0800 C   0  0  0  0  0  0  0  0  0  0  0  0
    5.6110    1.0590   26.8230 S   0  0  0  0  0  0  0  0  0  0  0  0
    4.1570    1.4780   26.7200 O   0  0  0  0  0  0  0  0  0  0  0  0
    6.6140    2.1600   26.5500 O   0  0  0  0  0  0  0  0  0  0  0  0
    5.9120    0.0250   28.0560 C   0  0  0  0  0  0  0  0  0  0  0  0
    5.4360   -0.5020   26.9480 C   0  0  0  0  0  0  0  0  0  0  0  0
    5.6710    0.9580   27.0820 C   0  0  0  0  0  0  0  0  0  0  0  0
    6.1690    0.8740   28.4600 C   0  0  0  0  0  0  0  0  0  0  0  0
    6.3160   -0.3590   29.2890 C   0  0  0  0  0  0  0  0  0  0  0  0
    5.8510   -1.2920   28.3470 C   0  0  0  0  0  0  0  0  0  0  0  0
    5.6290   -5.0040   23.5200 C   0  0  0  0  0  0  0  0  0  0  0  0
    6.4310   -5.3970   22.4740 C   0  0  0  0  0  0  0  0  0  0  0  0
  1  2  1  0
  2  3  2  0
  2  4  1  0
  4  5  1  0
  5  6  1  0
  6  7  1  0
  7  8  1  0
  8  9  2  0
  8 10  1  0
 10 11  1  0
 11 12  2  0
 12 13  1  0
 13 14  2  0
 14 15  1  0
 11 16  1  0
 15 16  2  0
 16 17  1  0
 18 10  1  6
 18 19  1  0
 20 19  1  0
 20 21  2  0
 20 22  2  0
 20 23  1  0
 23 24  1  0
 24 25  2  0
 25 26  1  0
 26 27  2  0
 18 28  1  0
 23 28  2  0
 27 28  1  0
  7 29  1  0
  4 30  1  0
 29 30  1  0
M  END
