piperidine-amides-11895-covalent
     RDKit          3D

 26 28  0  0  0  0  0  0  0  0999 V2000
    7.1240   -3.2840   19.2340 C   0  0  0  0  0  0  0  0  0  0  0  0
    6.4030   -4.0550   20.2410 C   0  0  0  0  0  0  0  0  0  0  0  0
    5.3710   -4.6610   19.9380 O   0  0  0  0  0  0  0  0  0  0  0  0
    6.9300   -4.1400   21.5800 N   0  0  0  0  0  0  0  0  0  0  0  0
    7.8200   -3.0940   22.0640 C   0  0  0  0  0  0  0  0  0  0  0  0
    7.4920   -2.7150   23.4730 C   0  0  0  0  0  0  0  0  0  0  0  0
    6.0950   -3.2270   23.7020 C   0  0  0  0  0  0  0  0  0  0  0  0
    5.4780   -2.7240   24.9550 C   0  0  0  0  0  0  0  0  0  0  0  0
    4.2470   -2.8200   25.1370 O   0  0  0  0  0  0  0  0  0  0  0  0
    6.2560   -2.1170   25.9830 N   0  0  0  0  0  0  0  0  0  0  0  0
    5.7150   -2.3170   27.2980 C   0  0  1  0  0  0  0  0  0  0  0  0
    5.4090   -3.7570   27.2570 C   0  0  0  0  0  0  0  0  0  0  0  0
    6.4810   -4.5310   27.3700 C   0  0  0  0  0  0  0  0  0  0  0  0
    6.4130   -5.5490   28.2900 C   0  0  0  0  0  0  0  0  0  0  0  0
    7.4930   -6.3100   28.3970 C   0  0  0  0  0  0  0  0  0  0  0  0
    8.6340   -6.0360   27.5760 C   0  0  0  0  0  0  0  0  0  0  0  0
    8.8320   -5.1110   26.6670 C   0  0  0  0  0  0  0  0  0  0  0  0
    9.9470   -4.9100   25.9130 C   0  0  0  0  0  0  0  0  0  0  0  0
    7.5870   -4.2700   26.5750 C   0  0  0  0  0  0  0  0  0  0  0  0
    6.4320   -1.9780   28.4600 C   0  0  1  0  0  0  0  0  0  0  0  0
    7.0980   -0.7490   28.4610 C   0  0  0  0  0  0  0  0  0  0  0  0
    6.6250    0.0230   29.4910 C   0  0  0  0  0  0  0  0  0  0  0  0
    5.5700   -0.7980   30.0580 C   0  0  0  0  0  0  0  0  0  0  0  0
    5.5490   -2.0020   29.3840 O   0  0  0  0  0  0  0  0  0  0  0  0
    5.9930   -4.7240   23.6890 C   0  0  0  0  0  0  0  0  0  0  0  0
    6.6040   -5.2630   22.4140 C   0  0  0  0  0  0  0  0  0  0  0  0
  1  2  1  0
  2  3  2  0
  2  4  1  0
  4  5  1  0
  5  6  1  0
  6  7  1  0
  7  8  1  0
  8  9  2  0
  8 10  1  0
 10 11  1  0
 11 12  1  1
 12 13  1  0
 13 14  2  0
 14 15  1  0
 15 16  2  0
 16 17  1  0
 17 18  1  0
 13 19  1  0
 17 19  2  0
 11 20  1  0
 20 21  1  6
 21 22  1  0
 22 23  1  0
 20 24  1  0
 23 24  1  0
  7 25  1  0
  4 26  1  0
 25 26  1  0
M  END
