piperidine-amides-32873-covalent
     RDKit          3D

 23 24  0  0  0  0  0  0  0  0999 V2000
    7.0760   -3.3150   19.2830 C   0  0  0  0  0  0  0  0  0  0  0  0
    6.3710   -4.1500   20.2960 C   0  0  0  0  0  0  0  0  0  0  0  0
    5.3580   -4.7860   19.9630 O   0  0  0  0  0  0  0  0  0  0  0  0
    6.9030   -4.2270   21.6000 N   0  0  0  0  0  0  0  0  0  0  0  0
    7.7800   -3.1960   22.1130 C   0  0  0  0  0  0  0  0  0  0  0  0
    7.4950   -3.1060   23.5980 C   0  0  0  0  0  0  0  0  0  0  0  0
    6.0840   -3.5510   23.7220 C   0  0  0  0  0  0  0  0  0  0  0  0
    5.5250   -3.2340   25.0410 C   0  0  0  0  0  0  0  0  0  0  0  0
    4.3000   -3.0880   25.1190 O   0  0  0  0  0  0  0  0  0  0  0  0
    6.3820   -3.1240   26.1210 N   0  0  0  0  0  0  0  0  0  0  0  0
    6.4080   -1.9240   26.9350 C   0  0  0  0  0  0  0  0  0  0  0  0
    5.7090   -0.7480   26.6380 C   0  0  0  0  0  0  0  0  0  0  0  0
    5.7090    0.4290   27.4310 C   0  0  0  0  0  0  0  0  0  0  0  0
    6.4290    0.4890   28.6020 C   0  0  0  0  0  0  0  0  0  0  0  0
    6.4350    2.0410   29.6800 Br  0  0  0  0  0  0  0  0  0  0  0  0
    7.1910   -0.7200   28.9620 C   0  0  0  0  0  0  0  0  0  0  0  0
    7.1710   -1.9600   28.0820 C   0  0  0  0  0  0  0  0  0  0  0  0
    8.0450   -3.4140   28.4390 Cl  0  0  0  0  0  0  0  0  0  0  0  0
    6.8810   -4.4760   26.5080 C   0  0  0  0  0  0  0  0  0  0  0  0
    6.4730   -4.9820   27.7340 C   0  0  0  0  0  0  0  0  0  0  0  0
    8.3500   -4.6590   26.3720 C   0  0  0  0  0  0  0  0  0  0  0  0
    5.8220   -4.9900   23.3930 C   0  0  0  0  0  0  0  0  0  0  0  0
    6.6970   -5.3970   22.4140 C   0  0  0  0  0  0  0  0  0  0  0  0
  1  2  1  0
  2  3  2  0
  2  4  1  0
  4  5  1  0
  5  6  1  0
  6  7  1  0
  7  8  1  0
  8  9  2  0
  8 10  1  0
 10 11  1  0
 11 12  2  0
 12 13  1  0
 13 14  2  0
 14 15  1  0
 14 16  1  0
 11 17  1  0
 16 17  2  0
 17 18  1  0
 10 19  1  0
 19 20  1  0
 19 21  1  0
  7 22  1  0
  4 23  1  0
 22 23  1  0
M  END
