piperidine-amides-31809-covalent
     RDKit          3D

 27 29  0  0  0  0  0  0  0  0999 V2000
    7.0590   -3.3590   19.2530 C   0  0  0  0  0  0  0  0  0  0  0  0
    6.3650   -4.0980   20.2870 C   0  0  0  0  0  0  0  0  0  0  0  0
    5.3170   -4.7220   19.9450 O   0  0  0  0  0  0  0  0  0  0  0  0
    6.8090   -4.2140   21.6170 N   0  0  0  0  0  0  0  0  0  0  0  0
    7.7300   -3.1950   22.1640 C   0  0  0  0  0  0  0  0  0  0  0  0
    6.7770   -2.5810   23.2420 C   0  0  0  0  0  0  0  0  0  0  0  0
    6.6580   -3.6710   24.2670 C   0  0  0  0  0  0  0  0  0  0  0  0
    5.4650   -3.3870   25.2730 C   0  0  0  0  0  0  0  0  0  0  0  0
    4.4010   -3.7150   24.7760 O   0  0  0  0  0  0  0  0  0  0  0  0
    5.9030   -2.8750   26.3570 N   0  0  0  0  0  0  0  0  0  0  0  0
    6.2590   -1.8960   27.2330 C   0  0  0  0  0  0  0  0  0  0  0  0
    6.9490   -1.6700   28.4260 C   0  0  0  0  0  0  0  0  0  0  0  0
    7.1640   -0.4770   29.1760 C   0  0  0  0  0  0  0  0  0  0  0  0
    6.6900    0.8740   28.8590 C   0  0  0  0  0  0  0  0  0  0  0  0
    5.9490    0.6650   27.5680 C   0  0  0  0  0  0  0  0  0  0  0  0
    5.2560    2.1610   26.9190 S   0  0  0  0  0  0  0  0  0  0  0  0
    3.9950    1.7660   25.8460 C   0  0  0  0  0  0  0  0  0  0  0  0
    5.6940   -0.5540   26.7420 C   0  0  0  0  0  0  0  0  0  0  0  0
    5.8990   -3.8900   27.3960 C   0  0  0  0  0  0  0  0  0  0  0  0
    5.0200   -3.5680   28.6420 C   0  0  0  0  0  0  0  0  0  0  0  0
    4.5200   -4.6670   29.3050 C   0  0  0  0  0  0  0  0  0  0  0  0
    5.4490   -5.6380   29.2390 N   0  0  0  0  0  0  0  0  0  0  0  0
    5.3350   -6.5670   30.3120 C   0  0  0  0  0  0  0  0  0  0  0  0
    5.8480   -6.1180   27.9600 C   0  0  0  0  0  0  0  0  0  0  0  0
    5.5980   -5.1690   26.9920 C   0  0  0  0  0  0  0  0  0  0  0  0
    6.6710   -5.1100   23.8340 C   0  0  0  0  0  0  0  0  0  0  0  0
    6.4480   -5.3810   22.3700 C   0  0  0  0  0  0  0  0  0  0  0  0
  1  2  1  0
  2  3  2  0
  2  4  1  0
  4  5  1  0
  5  6  1  0
  6  7  1  0
  7  8  1  0
  8  9  2  0
  8 10  1  0
 10 11  1  0
 11 12  2  0
 12 13  1  0
 13 14  2  0
 14 15  1  0
 15 16  1  0
 16 17  1  0
 11 18  1  0
 15 18  2  0
 10 19  1  0
 19 20  1  0
 20 21  1  0
 21 22  1  0
 22 23  1  0
 22 24  1  0
 19 25  1  0
 24 25  1  0
  7 26  1  0
  4 27  1  0
 26 27  1  0
M  END
