piperidine-amides-9821-covalent
     RDKit          3D

 27 29  0  0  0  0  0  0  0  0999 V2000
    7.0830   -3.2740   19.2190 C   0  0  0  0  0  0  0  0  0  0  0  0
    6.3390   -4.0230   20.2380 C   0  0  0  0  0  0  0  0  0  0  0  0
    5.2530   -4.5440   19.8740 O   0  0  0  0  0  0  0  0  0  0  0  0
    6.8540   -4.1830   21.5240 N   0  0  0  0  0  0  0  0  0  0  0  0
    7.6480   -3.1520   22.1500 C   0  0  0  0  0  0  0  0  0  0  0  0
    6.9040   -2.6470   23.3500 C   0  0  0  0  0  0  0  0  0  0  0  0
    6.5750   -3.7680   24.2910 C   0  0  0  0  0  0  0  0  0  0  0  0
    5.7970   -3.2820   25.4610 C   0  0  0  0  0  0  0  0  0  0  0  0
    4.5610   -3.1600   25.3170 O   0  0  0  0  0  0  0  0  0  0  0  0
    6.3640   -2.9520   26.7150 N   0  0  0  0  0  0  0  0  0  0  0  0
    6.2210   -3.8270   27.8630 C   0  0  0  0  0  0  0  0  0  0  0  0
    5.2580   -3.3140   28.9270 C   0  0  0  0  0  0  0  0  0  0  0  0
    4.1540   -3.8820   29.4930 C   0  0  0  0  0  0  0  0  0  0  0  0
    3.4340   -3.2160   30.4600 C   0  0  0  0  0  0  0  0  0  0  0  0
    3.8360   -1.9450   30.8690 C   0  0  0  0  0  0  0  0  0  0  0  0
    4.9480   -1.3010   30.3410 C   0  0  0  0  0  0  0  0  0  0  0  0
    5.3320   -0.0220   30.7730 O   0  0  0  0  0  0  0  0  0  0  0  0
    6.0010    0.0510   32.0190 C   0  0  0  0  0  0  0  0  0  0  0  0
    5.1950   -0.2000   33.2870 C   0  0  0  0  0  0  0  0  0  0  0  0
    5.9660   -0.1120   34.6000 C   0  0  0  0  0  0  0  0  0  0  0  0
    7.4340    0.2080   34.6120 C   0  0  0  0  0  0  0  0  0  0  0  0
    8.0830    0.2820   35.7900 F   0  0  0  0  0  0  0  0  0  0  0  0
    8.0840    0.4280   33.2670 C   0  0  0  0  0  0  0  0  0  0  0  0
    7.3650    0.3420   32.0910 C   0  0  0  0  0  0  0  0  0  0  0  0
    5.6330   -1.9730   29.3980 N   0  0  0  0  0  0  0  0  0  0  0  0
    5.7620   -4.8170   23.5410 C   0  0  0  0  0  0  0  0  0  0  0  0
    6.5420   -5.3360   22.3410 C   0  0  0  0  0  0  0  0  0  0  0  0
  1  2  1  0
  2  3  2  0
  2  4  1  0
  4  5  1  0
  5  6  1  0
  6  7  1  0
  7  8  1  0
  8  9  2  0
  8 10  1  0
 10 11  1  0
 11 12  1  0
 12 13  2  0
 13 14  1  0
 14 15  2  0
 15 16  1  0
 16 17  1  0
 17 18  1  0
 18 19  2  0
 19 20  1  0
 20 21  2  0
 21 22  1  0
 21 23  1  0
 18 24  1  0
 23 24  2  0
 12 25  1  0
 16 25  2  0
  7 26  1  0
  4 27  1  0
 26 27  1  0
M  END
