piperidine-amides-12956-covalent
     RDKit          3D

 21 22  0  0  0  0  0  0  0  0999 V2000
    7.0910   -3.2470   19.1930 C   0  0  0  0  0  0  0  0  0  0  0  0
    6.3330   -3.9980   20.2220 C   0  0  0  0  0  0  0  0  0  0  0  0
    5.2610   -4.5150   19.8600 O   0  0  0  0  0  0  0  0  0  0  0  0
    6.8200   -4.1600   21.5260 N   0  0  0  0  0  0  0  0  0  0  0  0
    7.5770   -3.1120   22.1390 C   0  0  0  0  0  0  0  0  0  0  0  0
    7.1810   -2.7770   23.5140 C   0  0  0  0  0  0  0  0  0  0  0  0
    6.4720   -3.8530   24.2330 C   0  0  0  0  0  0  0  0  0  0  0  0
    5.6730   -3.3060   25.3670 C   0  0  0  0  0  0  0  0  0  0  0  0
    4.4430   -3.2010   25.2070 O   0  0  0  0  0  0  0  0  0  0  0  0
    6.2580   -2.9080   26.5940 N   0  0  0  0  0  0  0  0  0  0  0  0
    6.5560   -1.4900   26.9100 C   0  0  0  0  0  0  0  0  0  0  0  0
    6.2780   -1.1050   28.3360 C   0  0  0  0  0  0  0  0  0  0  0  0
    7.3390   -0.4390   29.0800 N   0  0  0  0  0  0  0  0  0  0  0  0
    7.1710   -0.0550   30.4480 C   0  0  0  0  0  0  0  0  0  0  0  0
    8.1150    0.6940   31.1070 C   0  0  0  0  0  0  0  0  0  0  0  0
    5.9290   -0.5020   31.1670 C   0  0  0  0  0  0  0  0  0  0  0  0
    5.0660   -1.2400   30.4740 C   0  0  0  0  0  0  0  0  0  0  0  0
    4.1690   -1.9650   31.2900 O   0  0  0  0  0  0  0  0  0  0  0  0
    5.1000   -1.2920   29.0500 N   0  0  0  0  0  0  0  0  0  0  0  0
    5.6860   -4.8020   23.3800 C   0  0  0  0  0  0  0  0  0  0  0  0
    6.4590   -5.2690   22.3540 C   0  0  0  0  0  0  0  0  0  0  0  0
  1  2  1  0
  2  3  2  0
  2  4  1  0
  4  5  1  0
  5  6  1  0
  6  7  1  0
  7  8  1  0
  8  9  2  0
  8 10  1  0
 10 11  1  0
 11 12  1  0
 12 13  2  0
 13 14  1  0
 14 15  1  0
 14 16  2  0
 16 17  1  0
 17 18  2  0
 12 19  1  0
 17 19  1  0
  7 20  1  0
  4 21  1  0
 20 21  1  0
M  END
