piperidine-amides-31668-covalent
     RDKit          3D

 27 29  0  0  0  0  0  0  0  0999 V2000
    7.1570   -3.3570   19.4540 C   0  0  0  0  0  0  0  0  0  0  0  0
    6.4620   -4.2110   20.3850 C   0  0  0  0  0  0  0  0  0  0  0  0
    5.4240   -4.8250   19.9840 O   0  0  0  0  0  0  0  0  0  0  0  0
    6.9370   -4.4060   21.6990 N   0  0  0  0  0  0  0  0  0  0  0  0
    7.8770   -3.4130   22.2590 C   0  0  0  0  0  0  0  0  0  0  0  0
    6.9060   -2.7140   23.2590 C   0  0  0  0  0  0  0  0  0  0  0  0
    6.5490   -3.7940   24.2580 C   0  0  0  0  0  0  0  0  0  0  0  0
    5.6130   -3.1500   25.3630 C   0  0  0  0  0  0  0  0  0  0  0  0
    4.6500   -2.6170   24.8270 O   0  0  0  0  0  0  0  0  0  0  0  0
    6.0730   -3.3410   26.5380 N   0  0  0  0  0  0  0  0  0  0  0  0
    6.4110   -3.9620   27.7050 C   0  0  0  0  0  0  0  0  0  0  0  0
    6.9760   -5.1510   28.0970 C   0  0  0  0  0  0  0  0  0  0  0  0
    6.0340   -5.9600   28.7910 C   0  0  0  0  0  0  0  0  0  0  0  0
    5.3290   -6.9450   27.9410 C   0  0  0  0  0  0  0  0  0  0  0  0
    4.0330   -6.1260   27.9380 C   0  0  0  0  0  0  0  0  0  0  0  0
    3.5830   -6.9300   26.8790 C   0  0  0  0  0  0  0  0  0  0  0  0
    6.2150   -2.0700   27.2140 C   0  0  0  0  0  0  0  0  0  0  0  0
    6.5890   -1.9540   28.5150 N   0  0  0  0  0  0  0  0  0  0  0  0
    6.6530   -0.6210   28.9810 C   0  0  0  0  0  0  0  0  0  0  0  0
    7.0400   -0.1440   30.3990 C   0  0  0  0  0  0  0  0  0  0  0  0
    7.0220    1.2130   30.6000 C   0  0  0  0  0  0  0  0  0  0  0  0
    6.6800    2.1170   29.5990 C   0  0  0  0  0  0  0  0  0  0  0  0
    6.3350    1.6960   28.3330 C   0  0  0  0  0  0  0  0  0  0  0  0
    6.3500    0.3350   28.1230 C   0  0  0  0  0  0  0  0  0  0  0  0
    5.9660   -0.4310   26.6580 S   0  0  0  0  0  0  0  0  0  0  0  0
    5.9590   -5.0730   23.7440 C   0  0  0  0  0  0  0  0  0  0  0  0
    6.5630   -5.5680   22.4600 C   0  0  0  0  0  0  0  0  0  0  0  0
  1  2  1  0
  2  3  2  0
  2  4  1  0
  4  5  1  0
  5  6  1  0
  6  7  1  0
  7  8  1  0
  8  9  2  0
  8 10  1  0
 10 11  1  0
 11 12  1  0
 12 13  1  0
 13 14  1  0
 14 15  1  0
 15 16  1  0
 10 17  1  0
 17 18  2  0
 18 19  1  0
 19 20  2  0
 20 21  1  0
 21 22  2  0
 22 23  1  0
 19 24  1  0
 23 24  2  0
 17 25  1  0
 24 25  1  0
  7 26  1  0
  4 27  1  0
 26 27  1  0
M  END
