piperidine-amides-5293-covalent
     RDKit          3D

 21 22  0  0  0  0  0  0  0  0999 V2000
    7.0930   -3.2690   19.1600 C   0  0  0  0  0  0  0  0  0  0  0  0
    6.3340   -3.9870   20.2110 C   0  0  0  0  0  0  0  0  0  0  0  0
    5.2560   -4.5010   19.8620 O   0  0  0  0  0  0  0  0  0  0  0  0
    6.8360   -4.1180   21.5110 N   0  0  0  0  0  0  0  0  0  0  0  0
    6.4910   -5.2560   22.2920 C   0  0  0  0  0  0  0  0  0  0  0  0
    6.0900   -4.9360   23.6660 C   0  0  0  0  0  0  0  0  0  0  0  0
    6.6730   -3.6890   24.2210 C   0  0  0  0  0  0  0  0  0  0  0  0
    5.8800   -3.1970   25.3800 C   0  0  0  0  0  0  0  0  0  0  0  0
    4.6590   -3.0110   25.2230 O   0  0  0  0  0  0  0  0  0  0  0  0
    6.4820   -2.9370   26.6290 N   0  0  0  0  0  0  0  0  0  0  0  0
    6.2400   -3.7620   27.8440 C   0  0  0  0  0  0  0  0  0  0  0  0
    5.8440   -5.1710   27.5340 C   0  0  0  0  0  0  0  0  0  0  0  0
    4.4530   -5.5080   27.8210 C   0  0  0  0  0  0  0  0  0  0  0  0
    4.2710   -7.1910   27.6700 S   0  0  0  0  0  0  0  0  0  0  0  0
    3.5700   -7.4590   26.0830 C   0  0  0  0  0  0  0  0  0  0  0  0
    2.3340   -8.0860   26.1100 N   0  0  0  0  0  0  0  0  0  0  0  0
    1.7890   -8.3020   24.7910 C   0  0  0  0  0  0  0  0  0  0  0  0
    2.5350   -7.8710   23.7310 C   0  0  0  0  0  0  0  0  0  0  0  0
    3.9410   -7.1870   24.4420 S   0  0  0  0  0  0  0  0  0  0  0  0
    6.9540   -2.5970   23.2400 C   0  0  0  0  0  0  0  0  0  0  0  0
    7.6200   -3.1070   22.1690 C   0  0  0  0  0  0  0  0  0  0  0  0
  1  2  1  0
  2  3  2  0
  2  4  1  0
  4  5  1  0
  5  6  1  0
  6  7  1  0
  7  8  1  0
  8  9  2  0
  8 10  1  0
 10 11  1  0
 11 12  1  0
 12 13  1  0
 13 14  1  0
 14 15  1  0
 15 16  2  0
 16 17  1  0
 17 18  2  0
 15 19  1  0
 18 19  1  0
  7 20  1  0
  4 21  1  0
 20 21  1  0
M  END
