piperidine-amides-8471-covalent
     RDKit          3D

 24 25  0  0  0  0  0  0  0  0999 V2000
    6.9980   -3.3430   19.4020 C   0  0  0  0  0  0  0  0  0  0  0  0
    6.3490   -4.2000   20.3970 C   0  0  0  0  0  0  0  0  0  0  0  0
    5.4230   -4.9320   20.0000 O   0  0  0  0  0  0  0  0  0  0  0  0
    6.7760   -4.2200   21.7590 N   0  0  0  0  0  0  0  0  0  0  0  0
    7.6660   -3.1970   22.2450 C   0  0  0  0  0  0  0  0  0  0  0  0
    7.4240   -3.0110   23.7110 C   0  0  0  0  0  0  0  0  0  0  0  0
    6.0590   -3.6070   23.9280 C   0  0  0  0  0  0  0  0  0  0  0  0
    5.4520   -3.3010   25.2830 C   0  0  0  0  0  0  0  0  0  0  0  0
    4.2270   -3.2790   25.2980 O   0  0  0  0  0  0  0  0  0  0  0  0
    6.2380   -3.0590   26.4160 N   0  0  0  0  0  0  0  0  0  0  0  0
    6.6220   -1.7450   26.8290 C   0  0  0  0  0  0  0  0  0  0  0  0
    7.0070   -1.6200   28.1940 C   0  0  0  0  0  0  0  0  0  0  0  0
    6.3360   -0.7610   29.0290 C   0  0  0  0  0  0  0  0  0  0  0  0
    6.2660    0.6060   28.6230 N   0  0  0  0  0  0  0  0  0  0  0  0
    5.8720    1.4290   29.6980 C   0  0  0  0  0  0  0  0  0  0  0  0
    5.2650    2.6610   29.5060 O   0  0  0  0  0  0  0  0  0  0  0  0
    6.0810    1.0230   30.8640 O   0  0  0  0  0  0  0  0  0  0  0  0
    5.5830    1.7590   31.9620 C   0  0  0  0  0  0  0  0  0  0  0  0
    5.5320    0.7940   33.1720 C   0  0  0  0  0  0  0  0  0  0  0  0
    6.2760    2.9430   32.0900 C   0  0  0  0  0  0  0  0  0  0  0  0
    5.5570    0.5600   27.3740 C   0  0  0  0  0  0  0  0  0  0  0  0
    5.5640   -0.7420   26.5410 C   0  0  0  0  0  0  0  0  0  0  0  0
    6.1280   -5.1170   23.7780 C   0  0  0  0  0  0  0  0  0  0  0  0
    6.6570   -5.4390   22.5300 C   0  0  0  0  0  0  0  0  0  0  0  0
  1  2  1  0
  2  3  2  0
  2  4  1  0
  4  5  1  0
  5  6  1  0
  6  7  1  0
  7  8  1  0
  8  9  2  0
  8 10  1  0
 10 11  1  0
 11 12  1  0
 12 13  1  0
 13 14  1  0
 14 15  1  0
 15 16  2  0
 15 17  1  0
 17 18  1  0
 18 19  1  0
 18 20  1  0
 14 21  1  0
 11 22  1  0
 21 22  1  0
  7 23  1  0
  4 24  1  0
 23 24  1  0
M  END
