piperidine-amides-24711-covalent
     RDKit          3D

 24 25  0  0  0  0  0  0  0  0999 V2000
    7.0710   -3.3230   19.3430 C   0  0  0  0  0  0  0  0  0  0  0  0
    6.3820   -4.1890   20.3090 C   0  0  0  0  0  0  0  0  0  0  0  0
    5.3580   -4.8200   19.9710 O   0  0  0  0  0  0  0  0  0  0  0  0
    6.8920   -4.3600   21.5990 N   0  0  0  0  0  0  0  0  0  0  0  0
    6.6150   -5.6100   22.2740 C   0  0  0  0  0  0  0  0  0  0  0  0
    6.2800   -5.2930   23.7390 C   0  0  0  0  0  0  0  0  0  0  0  0
    6.0900   -3.7980   23.8290 C   0  0  0  0  0  0  0  0  0  0  0  0
    5.6080   -3.3880   25.1620 C   0  0  0  0  0  0  0  0  0  0  0  0
    4.5870   -2.6710   25.2080 O   0  0  0  0  0  0  0  0  0  0  0  0
    6.2570   -3.7910   26.3480 N   0  0  0  0  0  0  0  0  0  0  0  0
    5.5450   -3.5010   27.5790 C   0  0  0  0  0  0  0  0  0  0  0  0
    5.7340   -4.6350   28.5560 C   0  0  0  0  0  0  0  0  0  0  0  0
    6.9620   -5.1710   28.5780 C   0  0  0  0  0  0  0  0  0  0  0  0
    7.8880   -4.4560   27.8800 C   0  0  2  0  0  0  0  0  0  0  0  0
    8.1970   -3.2500   28.5520 N   0  0  0  0  0  0  0  0  0  0  0  0
    7.6060   -2.0450   28.2490 C   0  0  0  0  0  0  0  0  0  0  0  0
    7.4220   -1.4470   27.0570 O   0  0  0  0  0  0  0  0  0  0  0  0
    7.0960   -1.3110   29.3010 C   0  0  0  0  0  0  0  0  0  0  0  0
    5.7370   -1.5170   29.9460 C   0  0  0  0  0  0  0  0  0  0  0  0
    6.0290   -0.3140   29.0420 C   0  0  0  0  0  0  0  0  0  0  0  0
    7.9370   -0.7690   30.2120 C   0  0  0  0  0  0  0  0  0  0  0  0
    7.5920   -4.3370   26.5540 C   0  0  0  0  0  0  0  0  0  0  0  0
    7.3800   -3.1220   23.5030 C   0  0  0  0  0  0  0  0  0  0  0  0
    7.6640   -3.3040   22.1900 C   0  0  0  0  0  0  0  0  0  0  0  0
  1  2  1  0
  2  3  2  0
  2  4  1  0
  4  5  1  0
  5  6  1  0
  6  7  1  0
  7  8  1  0
  8  9  2  0
  8 10  1  0
 10 11  1  0
 11 12  1  0
 12 13  1  0
 13 14  1  0
 14 15  1  1
 15 16  1  0
 16 17  2  0
 18 16  1  0
 18 19  1  0
 18 20  1  0
 18 21  1  0
 10 22  1  0
 14 22  1  0
  7 23  1  0
  4 24  1  0
 23 24  1  0
M  END
