piperidine-amides-6466-covalent
     RDKit          3D

 20 21  0  0  0  0  0  0  0  0999 V2000
    7.1060   -3.3560   19.3100 C   0  0  0  0  0  0  0  0  0  0  0  0
    6.3810   -4.1710   20.2890 C   0  0  0  0  0  0  0  0  0  0  0  0
    5.3310   -4.7620   19.9610 O   0  0  0  0  0  0  0  0  0  0  0  0
    6.9030   -4.3440   21.5730 N   0  0  0  0  0  0  0  0  0  0  0  0
    7.6960   -3.3010   22.1880 C   0  0  0  0  0  0  0  0  0  0  0  0
    6.8010   -2.6770   23.2540 C   0  0  0  0  0  0  0  0  0  0  0  0
    6.5920   -3.7630   24.2750 C   0  0  0  0  0  0  0  0  0  0  0  0
    5.8010   -3.2560   25.4090 C   0  0  0  0  0  0  0  0  0  0  0  0
    4.5780   -3.0690   25.2360 O   0  0  0  0  0  0  0  0  0  0  0  0
    6.4160   -2.9970   26.6600 N   0  0  0  0  0  0  0  0  0  0  0  0
    6.4310   -1.6500   27.1610 C   0  0  0  0  0  0  0  0  0  0  0  0
    7.0080   -1.4310   28.5160 C   0  0  0  0  0  0  0  0  0  0  0  0
    6.8460   -0.0430   28.6750 N   0  0  0  0  0  0  0  0  0  0  0  0
    6.2750    0.2990   27.5280 N   0  0  0  0  0  0  0  0  0  0  0  0
    6.0970    1.6440   27.6290 C   0  0  0  0  0  0  0  0  0  0  0  0
    4.8710    2.2330   27.4400 C   0  0  0  0  0  0  0  0  0  0  0  0
    4.7330    3.4430   26.7650 C   0  0  0  0  0  0  0  0  0  0  0  0
    5.8710   -0.5020   26.3310 C   0  0  0  0  0  0  0  0  0  0  0  0
    5.8110   -4.9060   23.6170 C   0  0  0  0  0  0  0  0  0  0  0  0
    6.5390   -5.4530   22.4190 C   0  0  0  0  0  0  0  0  0  0  0  0
  1  2  1  0
  2  3  2  0
  2  4  1  0
  4  5  1  0
  5  6  1  0
  6  7  1  0
  7  8  1  0
  8  9  2  0
  8 10  1  0
 10 11  1  0
 11 12  1  0
 12 13  2  0
 13 14  1  0
 14 15  1  0
 15 16  1  0
 16 17  2  3
 11 18  2  0
 14 18  1  0
  7 19  1  0
  4 20  1  0
 19 20  1  0
M  END
