piperidine-amides-33502-covalent
     RDKit          3D

 28 29  0  0  0  0  0  0  0  0999 V2000
    7.0580   -3.3240   19.2760 C   0  0  0  0  0  0  0  0  0  0  0  0
    6.3570   -4.1300   20.2920 C   0  0  0  0  0  0  0  0  0  0  0  0
    5.2920   -4.6770   19.9260 O   0  0  0  0  0  0  0  0  0  0  0  0
    6.8800   -4.3350   21.5950 N   0  0  0  0  0  0  0  0  0  0  0  0
    7.5880   -3.2580   22.2100 C   0  0  0  0  0  0  0  0  0  0  0  0
    7.3430   -3.0600   23.6390 C   0  0  0  0  0  0  0  0  0  0  0  0
    6.4640   -4.0500   24.2950 C   0  0  0  0  0  0  0  0  0  0  0  0
    5.6960   -3.4360   25.4450 C   0  0  0  0  0  0  0  0  0  0  0  0
    4.4850   -3.1870   25.2780 O   0  0  0  0  0  0  0  0  0  0  0  0
    6.2780   -3.1070   26.7070 N   0  0  0  0  0  0  0  0  0  0  0  0
    6.2900   -3.9100   27.8830 C   0  0  0  0  0  0  0  0  0  0  0  0
    6.2200   -5.3620   27.8490 C   0  0  0  0  0  0  0  0  0  0  0  0
    5.2260   -6.0850   28.3870 N   0  0  0  0  0  0  0  0  0  0  0  0
    4.5340   -7.1640   27.7380 C   0  0  0  0  0  0  0  0  0  0  0  0
    6.2410   -6.6460   29.2270 C   0  0  0  0  0  0  0  0  0  0  0  0
    6.2020   -1.6910   27.0940 C   0  0  0  0  0  0  0  0  0  0  0  0
    5.7170   -0.5730   26.3230 N   0  0  0  0  0  0  0  0  0  0  0  0
    5.7510    0.6150   26.9300 C   0  0  0  0  0  0  0  0  0  0  0  0
    5.2080    1.7120   26.0040 C   0  0  0  0  0  0  0  0  0  0  0  0
    5.5520    3.1630   26.2510 C   0  0  0  0  0  0  0  0  0  0  0  0
    4.7400    3.9320   27.1070 O   0  0  0  0  0  0  0  0  0  0  0  0
    6.6250    3.7780   25.6860 O   0  0  0  0  0  0  0  0  0  0  0  0
    7.4040    4.7220   26.3990 C   0  0  0  0  0  0  0  0  0  0  0  0
    8.7320    4.0960   26.8470 C   0  0  0  0  0  0  0  0  0  0  0  0
    6.2310    0.6840   28.1970 C   0  0  0  0  0  0  0  0  0  0  0  0
    6.6570   -0.9310   28.5940 S   0  0  0  0  0  0  0  0  0  0  0  0
    5.5570   -4.7730   23.3540 C   0  0  0  0  0  0  0  0  0  0  0  0
    6.3520   -5.3880   22.4070 C   0  0  0  0  0  0  0  0  0  0  0  0
  1  2  1  0
  2  3  2  0
  2  4  1  0
  4  5  1  0
  5  6  1  0
  6  7  1  0
  7  8  1  0
  8  9  2  0
  8 10  1  0
 10 11  1  0
 11 12  1  0
 12 13  1  0
 13 14  1  0
 13 15  1  0
 10 16  1  0
 16 17  2  0
 17 18  1  0
 18 19  1  0
 19 20  1  0
 20 21  2  0
 20 22  1  0
 22 23  1  0
 23 24  1  0
 18 25  2  0
 16 26  1  0
 25 26  1  0
  7 27  1  0
  4 28  1  0
 27 28  1  0
M  END
