piperidine-amides-31224-covalent
     RDKit          3D

 27 29  0  0  0  0  0  0  0  0999 V2000
    7.0490   -3.3400   19.3550 C   0  0  0  0  0  0  0  0  0  0  0  0
    6.3850   -4.1710   20.3660 C   0  0  0  0  0  0  0  0  0  0  0  0
    5.4220   -4.8760   20.0020 O   0  0  0  0  0  0  0  0  0  0  0  0
    6.8390   -4.2190   21.7070 N   0  0  0  0  0  0  0  0  0  0  0  0
    7.7630   -3.2140   22.2260 C   0  0  0  0  0  0  0  0  0  0  0  0
    7.4880   -3.0650   23.6970 C   0  0  0  0  0  0  0  0  0  0  0  0
    6.1470   -3.6300   24.0210 C   0  0  0  0  0  0  0  0  0  0  0  0
    5.5530   -3.1660   25.3070 C   0  0  0  0  0  0  0  0  0  0  0  0
    4.3180   -2.8870   25.3200 O   0  0  0  0  0  0  0  0  0  0  0  0
    6.2220   -2.9990   26.5520 N   0  0  0  0  0  0  0  0  0  0  0  0
    6.0160   -4.0720   27.5510 C   0  0  0  0  0  0  0  0  0  0  0  0
    4.7060   -3.8530   28.2000 C   0  0  0  0  0  0  0  0  0  0  0  0
    4.4360   -2.7600   29.1530 C   0  0  0  0  0  0  0  0  0  0  0  0
    3.0700   -2.6150   29.7640 C   0  0  0  0  0  0  0  0  0  0  0  0
    2.0040   -3.6080   29.3760 C   0  0  0  0  0  0  0  0  0  0  0  0
    0.4380   -3.2550   30.2210 S   0  0  0  0  0  0  0  0  0  0  0  0
   -0.4020   -2.5250   28.7710 C   0  0  0  0  0  0  0  0  0  0  0  0
    2.3110   -4.7340   28.3850 C   0  0  0  0  0  0  0  0  0  0  0  0
    3.6070   -4.8190   27.8460 C   0  0  0  0  0  0  0  0  0  0  0  0
    6.3440   -1.7500   27.2220 C   0  0  0  0  0  0  0  0  0  0  0  0
    5.8370   -0.4350   26.5570 C   0  0  0  0  0  0  0  0  0  0  0  0
    6.0730    0.6870   27.4840 C   0  0  0  0  0  0  0  0  0  0  0  0
    6.5110    0.8800   28.5300 C   0  0  0  0  0  0  0  0  0  0  0  0
    6.8790   -0.5080   28.8450 C   0  0  0  0  0  0  0  0  0  0  0  0
    6.9030   -1.6260   28.4990 N   0  0  0  0  0  0  0  0  0  0  0  0
    6.1130   -5.1270   23.8130 C   0  0  0  0  0  0  0  0  0  0  0  0
    6.6920   -5.4630   22.4290 C   0  0  0  0  0  0  0  0  0  0  0  0
  1  2  1  0
  2  3  2  0
  2  4  1  0
  4  5  1  0
  5  6  1  0
  6  7  1  0
  7  8  1  0
  8  9  2  0
  8 10  1  0
 10 11  1  0
 11 12  1  0
 12 13  2  0
 13 14  1  0
 14 15  2  0
 15 16  1  0
 16 17  1  0
 15 18  1  0
 12 19  1  0
 18 19  2  0
 10 20  1  0
 20 21  2  0
 21 22  1  0
 22 23  2  0
 23 24  1  0
 20 25  1  0
 24 25  2  0
  7 26  1  0
  4 27  1  0
 26 27  1  0
M  END
