piperidine-amides-1739-covalent
     RDKit          3D

 20 20  0  0  0  0  0  0  0  0999 V2000
    7.0910   -3.2830   19.2310 C   0  0  0  0  0  0  0  0  0  0  0  0
    6.2860   -4.0140   20.2490 C   0  0  0  0  0  0  0  0  0  0  0  0
    5.2620   -4.6200   19.8980 O   0  0  0  0  0  0  0  0  0  0  0  0
    6.7320   -4.0300   21.5820 N   0  0  0  0  0  0  0  0  0  0  0  0
    7.5980   -2.9910   22.0870 C   0  0  0  0  0  0  0  0  0  0  0  0
    7.3150   -2.8930   23.5790 C   0  0  0  0  0  0  0  0  0  0  0  0
    5.9570   -3.4760   23.7830 C   0  0  0  0  0  0  0  0  0  0  0  0
    5.3400   -3.2550   25.1270 C   0  0  0  0  0  0  0  0  0  0  0  0
    4.2960   -3.8740   25.3450 O   0  0  0  0  0  0  0  0  0  0  0  0
    5.8920   -2.3860   26.0760 N   0  0  0  0  0  0  0  0  0  0  0  0
    6.3700   -2.7090   27.3720 C   0  0  0  0  0  0  0  0  0  0  0  0
    7.6970   -2.6820   27.5900 C   0  0  0  0  0  0  0  0  0  0  0  0
    8.3940   -2.7660   25.9390 S   0  0  0  0  0  0  0  0  0  0  0  0
    8.6360   -4.4540   25.4520 C   0  0  0  0  0  0  0  0  0  0  0  0
    8.3190   -5.4510   26.3510 C   0  0  0  0  0  0  0  0  0  0  0  0
    9.5400   -6.2260   26.6000 C   0  0  0  0  0  0  0  0  0  0  0  0
    8.0150   -5.0770   27.6530 C   0  0  0  0  0  0  0  0  0  0  0  0
    7.3150   -6.2860   26.1900 O   0  0  0  0  0  0  0  0  0  0  0  0
    5.8210   -4.9450   23.4570 C   0  0  0  0  0  0  0  0  0  0  0  0
    6.5950   -5.2410   22.3440 C   0  0  0  0  0  0  0  0  0  0  0  0
  1  2  1  0
  2  3  2  0
  2  4  1  0
  4  5  1  0
  5  6  1  0
  6  7  1  0
  7  8  1  0
  8  9  2  0
  8 10  1  0
 10 11  1  0
 11 12  1  0
 12 13  1  0
 13 14  1  0
 14 15  1  0
 15 16  1  0
 15 17  1  0
 15 18  1  0
  7 19  1  0
  4 20  1  0
 19 20  1  0
M  END
