piperidine-amides-10493-covalent
     RDKit          3D

 24 25  0  0  0  0  0  0  0  0999 V2000
    7.0330   -3.3500   19.3260 C   0  0  0  0  0  0  0  0  0  0  0  0
    6.3830   -4.1790   20.3430 C   0  0  0  0  0  0  0  0  0  0  0  0
    5.3740   -4.8390   19.9780 O   0  0  0  0  0  0  0  0  0  0  0  0
    6.9130   -4.2430   21.6360 N   0  0  0  0  0  0  0  0  0  0  0  0
    7.7590   -3.1950   22.1740 C   0  0  0  0  0  0  0  0  0  0  0  0
    7.3860   -2.9630   23.6060 C   0  0  0  0  0  0  0  0  0  0  0  0
    6.0310   -3.5270   23.9310 C   0  0  0  0  0  0  0  0  0  0  0  0
    5.6940   -3.1800   25.3230 C   0  0  0  0  0  0  0  0  0  0  0  0
    4.5000   -3.2310   25.6830 O   0  0  0  0  0  0  0  0  0  0  0  0
    6.6810   -2.7930   26.2410 N   0  0  0  0  0  0  0  0  0  0  0  0
    6.5280   -1.6600   27.1190 C   0  0  0  0  0  0  0  0  0  0  0  0
    6.0940   -0.3450   26.4800 C   0  0  0  0  0  0  0  0  0  0  0  0
    5.9170    0.8070   27.2220 C   0  0  0  0  0  0  0  0  0  0  0  0
    6.1300    0.7920   28.5900 C   0  0  0  0  0  0  0  0  0  0  0  0
    5.9300    1.9350   29.1980 O   0  0  0  0  0  0  0  0  0  0  0  0
    4.6690    2.1080   29.4760 C   0  0  0  0  0  0  0  0  0  0  0  0
    6.5570   -0.4510   29.3220 C   0  0  0  0  0  0  0  0  0  0  0  0
    6.7390   -0.4300   30.6600 N   0  0  0  0  0  0  0  0  0  0  0  0
    7.7460    0.2600   31.2330 C   0  0  0  0  0  0  0  0  0  0  0  0
    7.5840    0.3080   32.5730 N   0  0  0  0  0  0  0  0  0  0  0  0
    8.7820    0.8400   30.6040 O   0  0  0  0  0  0  0  0  0  0  0  0
    6.7590   -1.7220   28.4950 C   0  0  0  0  0  0  0  0  0  0  0  0
    6.0060   -5.0100   23.7540 C   0  0  0  0  0  0  0  0  0  0  0  0
    6.5730   -5.4310   22.4170 C   0  0  0  0  0  0  0  0  0  0  0  0
  1  2  1  0
  2  3  2  0
  2  4  1  0
  4  5  1  0
  5  6  1  0
  6  7  1  0
  7  8  1  0
  8  9  2  0
  8 10  1  0
 10 11  1  0
 11 12  2  0
 12 13  1  0
 13 14  2  0
 14 15  1  0
 15 16  1  0
 14 17  1  0
 17 18  1  0
 18 19  1  0
 19 20  1  0
 19 21  2  0
 11 22  1  0
 17 22  2  0
  7 23  1  0
  4 24  1  0
 23 24  1  0
M  END
