piperidine-amides-12580-covalent
     RDKit          3D

 23 25  0  0  0  0  0  0  0  0999 V2000
    7.1120   -3.3030   19.3030 C   0  0  0  0  0  0  0  0  0  0  0  0
    6.3500   -4.0660   20.3140 C   0  0  0  0  0  0  0  0  0  0  0  0
    5.3000   -4.6050   19.9120 O   0  0  0  0  0  0  0  0  0  0  0  0
    6.8210   -4.2110   21.6350 N   0  0  0  0  0  0  0  0  0  0  0  0
    7.6400   -3.2050   22.2410 C   0  0  0  0  0  0  0  0  0  0  0  0
    7.2800   -2.9260   23.6300 C   0  0  0  0  0  0  0  0  0  0  0  0
    6.0490   -3.6300   24.0350 C   0  0  0  0  0  0  0  0  0  0  0  0
    5.5940   -3.2730   25.4090 C   0  0  0  0  0  0  0  0  0  0  0  0
    4.4200   -2.8820   25.5180 O   0  0  0  0  0  0  0  0  0  0  0  0
    6.3990   -3.3650   26.5680 N   0  0  0  0  0  0  0  0  0  0  0  0
    5.8430   -3.8700   27.8530 C   0  0  1  0  0  0  0  0  0  0  0  0
    6.5800   -5.0100   28.4790 C   0  0  0  0  0  0  0  0  0  0  0  0
    5.6790   -2.7920   28.8540 C   0  0  0  0  0  0  0  0  0  0  0  0
    6.6810   -1.8350   29.2940 N   0  0  0  0  0  0  0  0  0  0  0  0
    6.3300   -0.8930   30.2600 C   0  0  0  0  0  0  0  0  0  0  0  0
    5.0520   -1.0420   30.6410 C   0  0  0  0  0  0  0  0  0  0  0  0
    4.2930   -2.3480   29.7980 S   0  0  0  0  0  0  0  0  0  0  0  0
    4.4580   -0.2540   31.5730 C   0  0  0  0  0  0  0  0  0  0  0  0
    5.1870    0.8950   31.7190 C   0  0  0  0  0  0  0  0  0  0  0  0
    6.5320    0.6900   31.9160 C   0  0  0  0  0  0  0  0  0  0  0  0
    7.1190    0.0800   30.8040 C   0  0  0  0  0  0  0  0  0  0  0  0
    6.0500   -5.0940   23.7870 C   0  0  0  0  0  0  0  0  0  0  0  0
    6.6120   -5.4300   22.4170 C   0  0  0  0  0  0  0  0  0  0  0  0
  1  2  1  0
  2  3  2  0
  2  4  1  0
  4  5  1  0
  5  6  1  0
  6  7  1  0
  7  8  1  0
  8  9  2  0
  8 10  1  0
 10 11  1  0
 11 12  1  1
 11 13  1  0
 13 14  2  0
 14 15  1  0
 15 16  2  0
 13 17  1  0
 16 17  1  0
 16 18  1  0
 18 19  1  0
 19 20  1  0
 15 21  1  0
 20 21  1  0
  7 22  1  0
  4 23  1  0
 22 23  1  0
M  END
