piperidine-amides-29883-covalent
     RDKit          3D

 27 29  0  0  0  0  0  0  0  0999 V2000
    7.0200   -3.3850   19.3960 C   0  0  0  0  0  0  0  0  0  0  0  0
    6.3730   -4.2510   20.3810 C   0  0  0  0  0  0  0  0  0  0  0  0
    5.4230   -4.9430   20.0150 O   0  0  0  0  0  0  0  0  0  0  0  0
    6.8640   -4.3320   21.7400 N   0  0  0  0  0  0  0  0  0  0  0  0
    7.7110   -3.2740   22.2720 C   0  0  0  0  0  0  0  0  0  0  0  0
    7.3670   -2.9860   23.7060 C   0  0  0  0  0  0  0  0  0  0  0  0
    6.0200   -3.6250   23.9320 C   0  0  0  0  0  0  0  0  0  0  0  0
    5.2820   -3.0820   25.1250 C   0  0  0  0  0  0  0  0  0  0  0  0
    4.4800   -2.1540   24.9760 O   0  0  0  0  0  0  0  0  0  0  0  0
    5.4100   -3.5550   26.4530 N   0  0  0  0  0  0  0  0  0  0  0  0
    6.5530   -3.1840   27.1390 C   0  0  0  0  0  0  0  0  0  0  0  0
    6.5950   -4.1970   28.2780 C   0  0  0  0  0  0  0  0  0  0  0  0
    5.4960   -4.8600   28.7780 C   0  0  0  0  0  0  0  0  0  0  0  0
    5.4320   -5.7720   29.8140 C   0  0  0  0  0  0  0  0  0  0  0  0
    6.2350   -6.8520   29.9420 C   0  0  0  0  0  0  0  0  0  0  0  0
    6.0780   -7.7420   31.0790 C   0  0  0  0  0  0  0  0  0  0  0  0
    5.1820   -7.6660   32.1220 C   0  0  0  0  0  0  0  0  0  0  0  0
    5.0740   -8.4840   33.1340 O   0  0  0  0  0  0  0  0  0  0  0  0
    5.7250   -9.4110   33.9970 C   0  0  0  0  0  0  0  0  0  0  0  0
    4.2710   -6.4650   31.9760 C   0  0  0  0  0  0  0  0  0  0  0  0
    3.3610   -6.3760   33.0110 O   0  0  0  0  0  0  0  0  0  0  0  0
    2.0160   -6.7080   32.8970 C   0  0  0  0  0  0  0  0  0  0  0  0
    4.4530   -5.5460   30.7780 C   0  0  0  0  0  0  0  0  0  0  0  0
    4.2660   -4.5930   28.1920 C   0  0  0  0  0  0  0  0  0  0  0  0
    4.1830   -3.5360   27.1500 C   0  0  0  0  0  0  0  0  0  0  0  0
    6.0410   -5.1180   23.8930 C   0  0  0  0  0  0  0  0  0  0  0  0
    6.6190   -5.5140   22.5390 C   0  0  0  0  0  0  0  0  0  0  0  0
  1  2  1  0
  2  3  2  0
  2  4  1  0
  4  5  1  0
  5  6  1  0
  6  7  1  0
  7  8  1  0
  8  9  2  0
  8 10  1  0
 10 11  1  0
 11 12  1  0
 12 13  2  0
 13 14  1  0
 14 15  2  0
 15 16  1  0
 16 17  2  0
 17 18  1  0
 18 19  1  0
 17 20  1  0
 20 21  1  0
 21 22  1  0
 14 23  1  0
 20 23  2  0
 13 24  1  0
 10 25  1  0
 24 25  1  0
  7 26  1  0
  4 27  1  0
 26 27  1  0
M  END
