piperidine-amides-32516-covalent
     RDKit          3D

 29 32  0  0  0  0  0  0  0  0999 V2000
    7.1210   -3.2810   19.2570 C   0  0  0  0  0  0  0  0  0  0  0  0
    6.3720   -4.0900   20.2570 C   0  0  0  0  0  0  0  0  0  0  0  0
    5.3060   -4.6280   19.9140 O   0  0  0  0  0  0  0  0  0  0  0  0
    6.9220   -4.2690   21.5470 N   0  0  0  0  0  0  0  0  0  0  0  0
    6.5680   -5.3980   22.3590 C   0  0  0  0  0  0  0  0  0  0  0  0
    5.6790   -4.8380   23.4740 C   0  0  0  0  0  0  0  0  0  0  0  0
    6.4570   -3.8060   24.2330 C   0  0  0  0  0  0  0  0  0  0  0  0
    5.6740   -3.2550   25.3680 C   0  0  0  0  0  0  0  0  0  0  0  0
    4.4460   -3.3230   25.2440 O   0  0  0  0  0  0  0  0  0  0  0  0
    6.2740   -2.6890   26.5020 N   0  0  0  0  0  0  0  0  0  0  0  0
    5.9440   -2.9900   27.8100 C   0  0  0  0  0  0  0  0  0  0  0  0
    5.6250   -1.7230   28.0060 C   0  0  0  0  0  0  0  0  0  0  0  0
    6.4110   -1.2110   29.1110 N   0  0  0  0  0  0  0  0  0  0  0  0
    5.9140   -0.7120   30.3510 C   0  0  0  0  0  0  0  0  0  0  0  0
    6.9440   -0.3320   31.1270 C   0  0  0  0  0  0  0  0  0  0  0  0
    7.0810    0.2360   32.4980 C   0  0  0  0  0  0  0  0  0  0  0  0
    8.4040    0.5950   33.2340 C   0  0  0  0  0  0  0  0  0  0  0  0
    8.3580    1.1700   34.6740 C   0  0  0  0  0  0  0  0  0  0  0  0
    7.1710    1.3840   35.3510 C   0  0  0  0  0  0  0  0  0  0  0  0
    7.1590    1.8900   36.6300 O   0  0  0  0  0  0  0  0  0  0  0  0
    8.0730    1.4090   37.5800 C   0  0  0  0  0  0  0  0  0  0  0  0
    8.6200    0.0140   37.3240 C   0  0  0  0  0  0  0  0  0  0  0  0
    5.8640    1.0510   34.6690 C   0  0  0  0  0  0  0  0  0  0  0  0
    5.8730    0.4870   33.2600 C   0  0  0  0  0  0  0  0  0  0  0  0
    8.0370   -0.5990   30.3530 N   0  0  0  0  0  0  0  0  0  0  0  0
    7.7630   -1.1050   29.1910 N   0  0  0  0  0  0  0  0  0  0  0  0
    5.9650   -1.2010   26.7430 C   0  0  0  0  0  0  0  0  0  0  0  0
    6.8890   -2.6440   23.3600 C   0  0  0  0  0  0  0  0  0  0  0  0
    7.6310   -3.1670   22.1850 C   0  0  0  0  0  0  0  0  0  0  0  0
  1  2  1  0
  2  3  2  0
  2  4  1  0
  4  5  1  0
  5  6  1  0
  6  7  1  0
  7  8  1  0
  8  9  2  0
  8 10  1  0
 10 11  1  0
 11 12  1  0
 12 13  1  0
 13 14  1  0
 14 15  2  0
 15 16  1  0
 16 17  2  0
 17 18  1  0
 18 19  2  0
 19 20  1  0
 20 21  1  0
 21 22  1  0
 19 23  1  0
 16 24  1  0
 23 24  2  0
 15 25  1  0
 13 26  1  0
 25 26  2  0
 10 27  1  0
 12 27  1  0
  7 28  1  0
  4 29  1  0
 28 29  1  0
M  END
