piperidine-amides-5042-covalent
     RDKit          3D

 22 23  0  0  0  0  0  0  0  0999 V2000
    7.0830   -3.3020   19.2240 C   0  0  0  0  0  0  0  0  0  0  0  0
    6.3790   -4.0670   20.2770 C   0  0  0  0  0  0  0  0  0  0  0  0
    5.3170   -4.6190   19.9180 O   0  0  0  0  0  0  0  0  0  0  0  0
    6.9070   -4.2080   21.5770 N   0  0  0  0  0  0  0  0  0  0  0  0
    7.6790   -3.1600   22.1730 C   0  0  0  0  0  0  0  0  0  0  0  0
    7.2820   -2.8680   23.5470 C   0  0  0  0  0  0  0  0  0  0  0  0
    6.0520   -3.5800   23.9430 C   0  0  0  0  0  0  0  0  0  0  0  0
    5.6210   -3.2180   25.3190 C   0  0  0  0  0  0  0  0  0  0  0  0
    4.4050   -3.0390   25.5020 O   0  0  0  0  0  0  0  0  0  0  0  0
    6.5200   -3.0710   26.3950 N   0  0  0  0  0  0  0  0  0  0  0  0
    6.2550   -3.6550   27.7360 C   0  0  0  0  0  0  0  0  0  0  0  0
    5.7320   -5.0540   27.6670 C   0  0  0  0  0  0  0  0  0  0  0  0
    5.5130   -5.7420   28.8900 N   0  0  0  0  0  0  0  0  0  0  0  0
    6.4090   -6.6800   29.3690 C   0  0  0  0  0  0  0  0  0  0  0  0
    5.9190   -7.1450   30.5280 N   0  0  0  0  0  0  0  0  0  0  0  0
    4.7320   -6.4970   30.7610 N   0  0  0  0  0  0  0  0  0  0  0  0
    4.4370   -5.6040   29.7510 C   0  0  0  0  0  0  0  0  0  0  0  0
    3.3320   -4.7820   29.6400 C   0  0  0  0  0  0  0  0  0  0  0  0
    3.7390   -3.4870   29.5680 C   0  0  0  0  0  0  0  0  0  0  0  0
    2.5870   -5.5510   28.5940 C   0  0  0  0  0  0  0  0  0  0  0  0
    6.0570   -5.0390   23.6510 C   0  0  0  0  0  0  0  0  0  0  0  0
    6.5750   -5.3570   22.3870 C   0  0  0  0  0  0  0  0  0  0  0  0
  1  2  1  0
  2  3  2  0
  2  4  1  0
  4  5  1  0
  5  6  1  0
  6  7  1  0
  7  8  1  0
  8  9  2  0
  8 10  1  0
 10 11  1  0
 11 12  1  0
 12 13  1  0
 13 14  1  0
 14 15  2  0
 15 16  1  0
 13 17  1  0
 16 17  2  0
 17 18  1  0
 18 19  1  0
 18 20  1  0
  7 21  1  0
  4 22  1  0
 21 22  1  0
M  END
