piperidine-amides-33222-covalent
     RDKit          3D

 30 33  0  0  0  0  0  0  0  0999 V2000
    7.1060   -3.3300   19.2540 C   0  0  0  0  0  0  0  0  0  0  0  0
    6.4090   -4.1310   20.2690 C   0  0  0  0  0  0  0  0  0  0  0  0
    5.3250   -4.6620   19.9300 O   0  0  0  0  0  0  0  0  0  0  0  0
    6.9840   -4.3450   21.5410 N   0  0  0  0  0  0  0  0  0  0  0  0
    6.4760   -5.4050   22.3340 C   0  0  0  0  0  0  0  0  0  0  0  0
    5.8790   -4.9740   23.5940 C   0  0  0  0  0  0  0  0  0  0  0  0
    6.4880   -3.7760   24.2230 C   0  0  0  0  0  0  0  0  0  0  0  0
    5.6610   -3.2610   25.3540 C   0  0  0  0  0  0  0  0  0  0  0  0
    4.4450   -3.5260   25.3930 O   0  0  0  0  0  0  0  0  0  0  0  0
    6.2140   -2.4710   26.3730 N   0  0  0  0  0  0  0  0  0  0  0  0
    6.3740   -2.7940   27.7130 C   0  0  0  0  0  0  0  0  0  0  0  0
    6.6470   -1.5770   28.5240 C   0  0  0  0  0  0  0  0  0  0  0  0
    6.7240   -0.3120   27.7120 C   0  0  0  0  0  0  0  0  0  0  0  0
    6.9520    0.9390   28.2490 C   0  0  0  0  0  0  0  0  0  0  0  0
    7.1720    1.1020   29.7720 C   0  0  0  0  0  0  0  0  0  0  0  0
    7.1110   -0.1660   30.5950 C   0  0  0  0  0  0  0  0  0  0  0  0
    7.3240   -0.1180   31.9730 O   0  0  0  0  0  0  0  0  0  0  0  0
    6.8210   -1.5220   29.9220 C   0  0  0  0  0  0  0  0  0  0  0  0
    5.9220   -1.1440   26.7060 C   0  0  0  0  0  0  0  0  0  0  0  0
    5.7340   -0.9960   28.2150 C   0  0  0  0  0  0  0  0  0  0  0  0
    5.4040    0.3280   28.9080 C   0  0  0  0  0  0  0  0  0  0  0  0
    5.3020    1.4000   27.9100 C   0  0  0  0  0  0  0  0  0  0  0  0
    5.0380    2.7250   27.9680 O   0  0  0  0  0  0  0  0  0  0  0  0
    5.0730    3.2640   26.6330 C   0  0  0  0  0  0  0  0  0  0  0  0
    4.8230    4.6140   26.5420 C   0  0  0  0  0  0  0  0  0  0  0  0
    5.3210    2.4320   25.8020 N   0  0  0  0  0  0  0  0  0  0  0  0
    5.4980    1.1680   26.4590 C   0  0  0  0  0  0  0  0  0  0  0  0
    5.7990   -0.0690   25.8810 C   0  0  0  0  0  0  0  0  0  0  0  0
    6.7070   -2.7020   23.1940 C   0  0  0  0  0  0  0  0  0  0  0  0
    7.6710   -3.2460   22.1730 C   0  0  0  0  0  0  0  0  0  0  0  0
  1  2  1  0
  2  3  2  0
  2  4  1  0
  4  5  1  0
  5  6  1  0
  6  7  1  0
  7  8  1  0
  8  9  2  0
  8 10  1  0
 10 11  1  0
 11 12  1  0
 12 13  2  0
 13 14  1  0
 14 15  2  0
 15 16  1  0
 16 17  1  0
 12 18  1  0
 16 18  2  0
 10 19  1  0
 19 20  2  0
 20 21  1  0
 21 22  2  0
 22 23  1  0
 23 24  1  0
 24 25  1  0
 24 26  2  0
 22 27  1  0
 26 27  1  0
 19 28  1  0
 27 28  2  0
  7 29  1  0
  4 30  1  0
 29 30  1  0
M  END
