piperidine-amides-26012-covalent
     RDKit          3D

 25 28  0  0  0  0  0  0  0  0999 V2000
    7.0870   -3.3200   19.2790 C   0  0  0  0  0  0  0  0  0  0  0  0
    6.3630   -4.1230   20.2630 C   0  0  0  0  0  0  0  0  0  0  0  0
    5.3090   -4.6850   19.9310 O   0  0  0  0  0  0  0  0  0  0  0  0
    6.8660   -4.3230   21.5560 N   0  0  0  0  0  0  0  0  0  0  0  0
    6.6150   -5.5390   22.2940 C   0  0  0  0  0  0  0  0  0  0  0  0
    5.8680   -5.1010   23.5240 C   0  0  0  0  0  0  0  0  0  0  0  0
    6.5860   -3.9910   24.2250 C   0  0  0  0  0  0  0  0  0  0  0  0
    5.8530   -3.5140   25.4260 C   0  0  0  0  0  0  0  0  0  0  0  0
    4.7350   -2.9340   25.2860 O   0  0  0  0  0  0  0  0  0  0  0  0
    6.3120   -3.6700   26.7560 N   0  0  0  0  0  0  0  0  0  0  0  0
    6.0640   -2.5870   27.7580 C   0  0  0  0  0  0  0  0  0  0  0  0
    5.5460   -3.5430   28.7390 C   0  0  1  0  0  0  0  0  0  0  0  0
    4.8250   -4.4960   27.8890 C   0  0  0  0  0  0  0  0  0  0  0  0
    6.1550   -4.9150   27.4680 C   0  0  2  0  0  0  0  0  0  0  0  0
    6.5400   -4.6270   28.8820 C   0  0  2  0  0  0  0  0  0  0  0  0
    5.9760   -5.6840   29.7660 C   0  0  0  0  0  0  0  0  0  0  0  0
    6.5570   -6.8200   30.2380 O   0  0  0  0  0  0  0  0  0  0  0  0
    5.5880   -7.4230   31.0320 C   0  0  0  0  0  0  0  0  0  0  0  0
    4.3020   -6.7320   31.1380 N   0  0  0  0  0  0  0  0  0  0  0  0
    4.5540   -5.5840   30.3040 C   0  0  0  0  0  0  0  0  0  0  0  0
    3.4150   -4.5880   30.1690 C   0  0  0  0  0  0  0  0  0  0  0  0
    3.3520   -3.5180   31.0930 N   0  0  0  0  0  0  0  0  0  0  0  0
    2.5710   -4.7610   29.2570 O   0  0  0  0  0  0  0  0  0  0  0  0
    6.9060   -2.8010   23.3710 C   0  0  0  0  0  0  0  0  0  0  0  0
    7.6800   -3.3050   22.1870 C   0  0  0  0  0  0  0  0  0  0  0  0
  1  2  1  0
  2  3  2  0
  2  4  1  0
  4  5  1  0
  5  6  1  0
  6  7  1  0
  7  8  1  0
  8  9  2  0
  8 10  1  0
 10 11  1  0
 12 11  1  6
 12 13  1  0
 10 14  1  0
 14 13  1  1
 12 15  1  0
 14 15  1  0
 15 16  1  1
 16 17  1  0
 17 18  1  0
 18 19  2  0
 16 20  2  0
 19 20  1  0
 20 21  1  0
 21 22  1  0
 21 23  2  0
  7 24  1  0
  4 25  1  0
 24 25  1  0
M  END
