piperidine-amides-30016-covalent
     RDKit          3D

 27 29  0  0  0  0  0  0  0  0999 V2000
    7.0410   -3.3470   19.3910 C   0  0  0  0  0  0  0  0  0  0  0  0
    6.3770   -4.2150   20.3590 C   0  0  0  0  0  0  0  0  0  0  0  0
    5.4190   -4.8980   19.9980 O   0  0  0  0  0  0  0  0  0  0  0  0
    6.8560   -4.3090   21.7190 N   0  0  0  0  0  0  0  0  0  0  0  0
    7.6990   -3.2480   22.2560 C   0  0  0  0  0  0  0  0  0  0  0  0
    7.4760   -3.0350   23.7280 C   0  0  0  0  0  0  0  0  0  0  0  0
    6.1560   -3.6880   24.0500 C   0  0  0  0  0  0  0  0  0  0  0  0
    5.6180   -3.3240   25.4080 C   0  0  0  0  0  0  0  0  0  0  0  0
    4.7240   -2.4680   25.5110 O   0  0  0  0  0  0  0  0  0  0  0  0
    6.0670   -3.9240   26.6160 N   0  0  0  0  0  0  0  0  0  0  0  0
    6.0090   -3.0950   27.8120 C   0  0  0  0  0  0  0  0  0  0  0  0
    5.2940   -3.8530   28.9260 C   0  0  0  0  0  0  0  0  0  0  0  0
    5.4790   -5.1690   29.1730 N   0  0  0  0  0  0  0  0  0  0  0  0
    4.3420   -5.7560   29.6280 C   0  0  0  0  0  0  0  0  0  0  0  0
    3.7460   -5.6160   30.8920 C   0  0  0  0  0  0  0  0  0  0  0  0
    3.8600   -6.5930   31.8860 C   0  0  0  0  0  0  0  0  0  0  0  0
    2.6740   -6.9970   32.6480 C   0  0  0  0  0  0  0  0  0  0  0  0
    2.6890   -7.9500   33.6480 C   0  0  0  0  0  0  0  0  0  0  0  0
    3.8910   -8.5510   33.9430 C   0  0  0  0  0  0  0  0  0  0  0  0
    5.0630   -8.2370   33.2800 C   0  0  0  0  0  0  0  0  0  0  0  0
    5.0690   -7.2320   32.2150 C   0  0  0  0  0  0  0  0  0  0  0  0
    6.0330   -6.8690   31.5460 O   0  0  0  0  0  0  0  0  0  0  0  0
    6.0460   -7.5710   30.3710 C   0  0  0  0  0  0  0  0  0  0  0  0
    6.0810   -5.7670   28.0430 C   0  0  0  0  0  0  0  0  0  0  0  0
    5.8140   -5.3300   26.6470 C   0  0  0  0  0  0  0  0  0  0  0  0
    6.1770   -5.1650   23.8520 C   0  0  0  0  0  0  0  0  0  0  0  0
    6.6540   -5.5290   22.4580 C   0  0  0  0  0  0  0  0  0  0  0  0
  1  2  1  0
  2  3  2  0
  2  4  1  0
  4  5  1  0
  5  6  1  0
  6  7  1  0
  7  8  1  0
  8  9  2  0
  8 10  1  0
 10 11  1  0
 11 12  1  0
 12 13  1  0
 13 14  1  0
 14 15  1  0
 15 16  1  0
 16 17  2  0
 17 18  1  0
 18 19  2  0
 19 20  1  0
 16 21  1  0
 20 21  2  0
 21 22  1  0
 22 23  1  0
 13 24  1  0
 10 25  1  0
 24 25  1  0
  7 26  1  0
  4 27  1  0
 26 27  1  0
M  END
