piperidine-amides-9898-covalent
     RDKit          3D

 27 29  0  0  0  0  0  0  0  0999 V2000
    7.0470   -3.3660   19.3960 C   0  0  0  0  0  0  0  0  0  0  0  0
    6.3530   -4.1810   20.3940 C   0  0  0  0  0  0  0  0  0  0  0  0
    5.3540   -4.8260   19.9780 O   0  0  0  0  0  0  0  0  0  0  0  0
    6.8240   -4.2620   21.7120 N   0  0  0  0  0  0  0  0  0  0  0  0
    7.6960   -3.2380   22.2650 C   0  0  0  0  0  0  0  0  0  0  0  0
    7.3500   -3.0430   23.7160 C   0  0  0  0  0  0  0  0  0  0  0  0
    6.0100   -3.6530   24.0170 C   0  0  0  0  0  0  0  0  0  0  0  0
    5.4660   -3.3200   25.3660 C   0  0  0  0  0  0  0  0  0  0  0  0
    4.2230   -3.2880   25.4650 O   0  0  0  0  0  0  0  0  0  0  0  0
    6.2140   -3.0360   26.5330 N   0  0  0  0  0  0  0  0  0  0  0  0
    6.5240   -1.6740   26.9080 C   0  0  2  0  0  0  0  0  0  0  0  0
    7.0290   -1.6440   28.3240 C   0  0  0  0  0  0  0  0  0  0  0  0
    6.4500   -0.6610   28.9920 C   0  0  0  0  0  0  0  0  0  0  0  0
    5.5590   -0.0340   28.1710 N   0  0  0  0  0  0  0  0  0  0  0  0
    4.9520    1.1000   28.5560 C   0  0  0  0  0  0  0  0  0  0  0  0
    4.7760    1.3700   29.9220 C   0  0  0  0  0  0  0  0  0  0  0  0
    4.1590    2.5210   30.4140 C   0  0  0  0  0  0  0  0  0  0  0  0
    4.0190    2.7250   31.7960 O   0  0  0  0  0  0  0  0  0  0  0  0
    4.8110    1.9280   32.6550 C   0  0  0  0  0  0  0  0  0  0  0  0
    3.6440    3.5480   29.3970 C   0  0  0  0  0  0  0  0  0  0  0  0
    3.7970    3.3260   27.9070 C   0  0  0  0  0  0  0  0  0  0  0  0
    3.5710    3.8020   26.9200 O   0  0  0  0  0  0  0  0  0  0  0  0
    2.6050    4.7920   26.7230 C   0  0  0  0  0  0  0  0  0  0  0  0
    4.5180    1.9720   27.5750 C   0  0  0  0  0  0  0  0  0  0  0  0
    5.5550   -0.6410   26.8300 C   0  0  0  0  0  0  0  0  0  0  0  0
    6.1250   -5.1580   23.8420 C   0  0  0  0  0  0  0  0  0  0  0  0
    6.7270   -5.4920   22.4780 C   0  0  0  0  0  0  0  0  0  0  0  0
  1  2  1  0
  2  3  2  0
  2  4  1  0
  4  5  1  0
  5  6  1  0
  6  7  1  0
  7  8  1  0
  8  9  2  0
  8 10  1  0
 11 10  1  1
 11 12  1  0
 12 13  1  0
 13 14  1  0
 14 15  1  0
 15 16  2  0
 16 17  1  0
 17 18  1  0
 18 19  1  0
 17 20  2  0
 20 21  1  0
 21 22  1  0
 22 23  1  0
 15 24  1  0
 21 24  2  0
 11 25  1  0
 14 25  1  0
  7 26  1  0
  4 27  1  0
 26 27  1  0
M  END
