piperidine-amides-6280-covalent
     RDKit          3D

 25 27  0  0  0  0  0  0  0  0999 V2000
    7.0580   -3.2960   19.2860 C   0  0  0  0  0  0  0  0  0  0  0  0
    6.3530   -4.1040   20.2960 C   0  0  0  0  0  0  0  0  0  0  0  0
    5.3480   -4.7650   19.9610 O   0  0  0  0  0  0  0  0  0  0  0  0
    6.8110   -4.1830   21.6200 N   0  0  0  0  0  0  0  0  0  0  0  0
    6.6770   -5.4360   22.3310 C   0  0  0  0  0  0  0  0  0  0  0  0
    5.8770   -5.1250   23.5930 C   0  0  0  0  0  0  0  0  0  0  0  0
    6.0560   -3.6450   23.8360 C   0  0  0  0  0  0  0  0  0  0  0  0
    5.6350   -3.2940   25.2080 C   0  0  0  0  0  0  0  0  0  0  0  0
    6.1440   -3.8760   26.1720 O   0  0  0  0  0  0  0  0  0  0  0  0
    4.6340   -2.3200   25.4060 N   0  0  0  0  0  0  0  0  0  0  0  0
    4.9130   -1.0830   26.0720 C   0  0  0  0  0  0  0  0  0  0  0  0
    4.3060   -0.9540   27.4630 C   0  0  0  0  0  0  0  0  0  0  0  0
    3.6320   -2.1460   27.9200 N   0  0  0  0  0  0  0  0  0  0  0  0
    2.9970   -2.2040   29.2230 C   0  0  0  0  0  0  0  0  0  0  0  0
    3.0640   -1.0730   30.0030 C   0  0  0  0  0  0  0  0  0  0  0  0
    3.7120    0.0990   29.5820 C   0  0  0  0  0  0  0  0  0  0  0  0
    3.7570    1.2120   30.3940 C   0  0  0  0  0  0  0  0  0  0  0  0
    5.0190    1.3330   30.9470 F   0  0  0  0  0  0  0  0  0  0  0  0
    3.4420    2.3320   29.6440 F   0  0  0  0  0  0  0  0  0  0  0  0
    4.3360    0.1250   28.2810 N   0  0  0  0  0  0  0  0  0  0  0  0
    4.6920    0.0930   25.2060 C   0  0  0  0  0  0  0  0  0  0  0  0
    6.0700    0.5640   25.3500 C   0  0  0  0  0  0  0  0  0  0  0  0
    6.3720   -0.5990   26.2320 C   0  0  0  0  0  0  0  0  0  0  0  0
    7.4960   -3.2660   23.5870 C   0  0  0  0  0  0  0  0  0  0  0  0
    7.6310   -3.1260   22.1960 C   0  0  0  0  0  0  0  0  0  0  0  0
  1  2  1  0
  2  3  2  0
  2  4  1  0
  4  5  1  0
  5  6  1  0
  6  7  1  0
  7  8  1  0
  8  9  2  0
  8 10  1  0
 11 10  1  0
 11 12  1  0
 12 13  2  0
 13 14  1  0
 14 15  2  0
 15 16  1  0
 16 17  1  0
 17 18  1  0
 17 19  1  0
 12 20  1  0
 16 20  2  0
 11 21  1  0
 21 22  1  0
 11 23  1  0
 22 23  1  0
  7 24  1  0
  4 25  1  0
 24 25  1  0
M  END
