piperidine-amides-13908-covalent
     RDKit          3D

 26 27  0  0  0  0  0  0  0  0999 V2000
    7.0530   -3.3410   19.3110 C   0  0  0  0  0  0  0  0  0  0  0  0
    6.3650   -4.1970   20.3120 C   0  0  0  0  0  0  0  0  0  0  0  0
    5.3450   -4.8190   19.9740 O   0  0  0  0  0  0  0  0  0  0  0  0
    6.9240   -4.3170   21.6050 N   0  0  0  0  0  0  0  0  0  0  0  0
    7.6920   -3.2660   22.2290 C   0  0  0  0  0  0  0  0  0  0  0  0
    6.8000   -2.6570   23.3140 C   0  0  0  0  0  0  0  0  0  0  0  0
    6.5090   -3.7420   24.2870 C   0  0  0  0  0  0  0  0  0  0  0  0
    5.6310   -3.3150   25.4110 C   0  0  0  0  0  0  0  0  0  0  0  0
    4.4200   -3.3110   25.1700 O   0  0  0  0  0  0  0  0  0  0  0  0
    6.1520   -2.9350   26.6620 N   0  0  0  0  0  0  0  0  0  0  0  0
    6.4290   -1.6060   27.0920 C   0  0  0  0  0  0  0  0  0  0  0  0
    5.5810   -0.5630   26.8010 C   0  0  0  0  0  0  0  0  0  0  0  0
    5.5230    0.5340   27.6780 C   0  0  0  0  0  0  0  0  0  0  0  0
    5.3870    0.0100   29.0320 N   0  0  0  0  0  0  0  0  0  0  0  0
    4.5200    0.4130   30.0060 C   0  0  0  0  0  0  0  0  0  0  0  0
    4.7110   -0.0060   31.4300 C   0  0  0  0  0  0  0  0  0  0  0  0
    3.6290   -0.2190   32.1830 O   0  0  0  0  0  0  0  0  0  0  0  0
    5.9830   -0.1740   31.9680 O   0  0  0  0  0  0  0  0  0  0  0  0
    6.4810    0.6710   32.9970 C   0  0  0  0  0  0  0  0  0  0  0  0
    7.1720   -0.1910   34.0560 C   0  0  0  0  0  0  0  0  0  0  0  0
    7.2750    1.6060   32.3130 C   0  0  0  0  0  0  0  0  0  0  0  0
    5.4930    1.4750   33.8120 C   0  0  0  0  0  0  0  0  0  0  0  0
    6.6400   -0.5870   29.3030 C   0  0  0  0  0  0  0  0  0  0  0  0
    6.9740   -1.5450   28.3820 C   0  0  0  0  0  0  0  0  0  0  0  0
    5.8760   -4.9700   23.6930 C   0  0  0  0  0  0  0  0  0  0  0  0
    6.5840   -5.4500   22.4450 C   0  0  0  0  0  0  0  0  0  0  0  0
  1  2  1  0
  2  3  2  0
  2  4  1  0
  4  5  1  0
  5  6  1  0
  6  7  1  0
  7  8  1  0
  8  9  2  0
  8 10  1  0
 10 11  1  0
 11 12  1  0
 12 13  1  0
 13 14  1  0
 14 15  1  0
 15 16  1  0
 16 17  2  0
 16 18  1  0
 19 18  1  0
 19 20  1  0
 19 21  1  0
 19 22  1  0
 14 23  1  0
 11 24  1  0
 23 24  1  0
  7 25  1  0
  4 26  1  0
 25 26  1  0
M  END
