piperidine-amides-16161-covalent
     RDKit          3D

 19 20  0  0  0  0  0  0  0  0999 V2000
    7.1490   -3.3010   19.2610 C   0  0  0  0  0  0  0  0  0  0  0  0
    6.3730   -4.0910   20.2490 C   0  0  0  0  0  0  0  0  0  0  0  0
    5.3030   -4.5720   19.8900 O   0  0  0  0  0  0  0  0  0  0  0  0
    6.9060   -4.3000   21.5140 N   0  0  0  0  0  0  0  0  0  0  0  0
    6.6690   -5.5450   22.2250 C   0  0  0  0  0  0  0  0  0  0  0  0
    6.1050   -5.2720   23.5830 C   0  0  0  0  0  0  0  0  0  0  0  0
    5.9100   -3.7730   23.7440 C   0  0  0  0  0  0  0  0  0  0  0  0
    5.2550   -3.5570   25.0220 C   0  0  0  0  0  0  0  0  0  0  0  0
    4.0640   -3.2310   25.0530 O   0  0  0  0  0  0  0  0  0  0  0  0
    5.9280   -3.7030   26.2140 N   0  0  0  0  0  0  0  0  0  0  0  0
    7.3770   -3.8920   26.1860 C   0  0  0  0  0  0  0  0  0  0  0  0
    7.7250   -4.7140   27.3770 C   0  0  0  0  0  0  0  0  0  0  0  0
    7.5180   -4.1310   28.5490 C   0  0  1  0  0  0  0  0  0  0  0  0
    8.0820   -2.8860   28.6020 C   0  0  0  0  0  0  0  0  0  0  0  0
    6.0310   -3.8670   28.5380 C   0  0  1  0  0  0  0  0  0  0  0  0
    5.5840   -3.3180   29.6920 O   0  0  0  0  0  0  0  0  0  0  0  0
    5.8350   -2.9160   27.4080 C   0  0  0  0  0  0  0  0  0  0  0  0
    7.1740   -3.0140   23.5500 C   0  0  0  0  0  0  0  0  0  0  0  0
    7.6030   -3.1820   22.1440 C   0  0  0  0  0  0  0  0  0  0  0  0
  1  2  1  0
  2  3  2  0
  2  4  1  0
  4  5  1  0
  5  6  1  0
  6  7  1  0
  7  8  1  0
  8  9  2  0
  8 10  1  0
 10 11  1  0
 11 12  1  0
 12 13  1  0
 13 14  1  6
 13 15  1  0
 15 16  1  1
 10 17  1  0
 15 17  1  0
  7 18  1  0
  4 19  1  0
 18 19  1  0
M  END
