piperidine-amides-31300-covalent
     RDKit          3D

 28 30  0  0  0  0  0  0  0  0999 V2000
    7.1670   -3.3970   19.3290 C   0  0  0  0  0  0  0  0  0  0  0  0
    6.4530   -4.1530   20.3220 C   0  0  0  0  0  0  0  0  0  0  0  0
    5.3600   -4.6940   19.9610 O   0  0  0  0  0  0  0  0  0  0  0  0
    6.9540   -4.3850   21.6210 N   0  0  0  0  0  0  0  0  0  0  0  0
    7.8990   -3.4130   22.2270 C   0  0  0  0  0  0  0  0  0  0  0  0
    6.9180   -2.5230   23.0710 C   0  0  0  0  0  0  0  0  0  0  0  0
    6.1460   -3.4860   23.9530 C   0  0  0  0  0  0  0  0  0  0  0  0
    5.1840   -2.6290   24.9350 C   0  0  0  0  0  0  0  0  0  0  0  0
    4.3720   -2.0350   24.2550 O   0  0  0  0  0  0  0  0  0  0  0  0
    5.4700   -2.7420   26.2060 N   0  0  0  0  0  0  0  0  0  0  0  0
    5.2930   -3.0270   27.5470 C   0  0  0  0  0  0  0  0  0  0  0  0
    4.6880   -2.4800   28.6760 C   0  0  0  0  0  0  0  0  0  0  0  0
    4.2480   -3.3580   29.6490 C   0  0  0  0  0  0  0  0  0  0  0  0
    4.5640   -4.7390   29.3660 C   0  0  0  0  0  0  0  0  0  0  0  0
    3.5250   -5.6710   29.3600 O   0  0  0  0  0  0  0  0  0  0  0  0
    5.8570   -5.1920   29.1150 N   0  0  0  0  0  0  0  0  0  0  0  0
    6.2660   -6.5880   28.9840 C   0  0  0  0  0  0  0  0  0  0  0  0
    5.8550   -4.4490   27.8850 C   0  0  0  0  0  0  0  0  0  0  0  0
    6.7400   -2.1650   26.3650 C   0  0  0  0  0  0  0  0  0  0  0  0
    5.7360   -1.4800   27.1990 C   0  0  0  0  0  0  0  0  0  0  0  0
    4.3850   -2.2470   26.8790 C   0  0  0  0  0  0  0  0  0  0  0  0
    4.3510   -3.3440   25.9740 C   0  0  0  0  0  0  0  0  0  0  0  0
    3.1570   -3.9290   25.6270 O   0  0  0  0  0  0  0  0  0  0  0  0
    5.5670   -3.8800   25.3910 N   0  0  0  0  0  0  0  0  0  0  0  0
    5.6420   -5.2390   25.5320 C   0  0  0  0  0  0  0  0  0  0  0  0
    6.7490   -3.1870   25.5470 C   0  0  0  0  0  0  0  0  0  0  0  0
    5.4370   -4.6080   23.2220 C   0  0  0  0  0  0  0  0  0  0  0  0
    6.3510   -5.3420   22.4810 C   0  0  0  0  0  0  0  0  0  0  0  0
  1  2  1  0
  2  3  2  0
  2  4  1  0
  4  5  1  0
  5  6  1  0
  6  7  1  0
  7  8  1  0
  8  9  2  0
  8 10  1  0
 10 11  1  0
 11 12  1  0
 12 13  2  0
 13 14  1  0
 14 15  2  0
 14 16  1  0
 16 17  1  0
 11 18  2  0
 16 18  1  0
 10 19  1  0
 19 20  1  0
 20 21  2  0
 21 22  1  0
 22 23  2  0
 22 24  1  0
 24 25  1  0
 19 26  2  0
 24 26  1  0
  7 27  1  0
  4 28  1  0
 27 28  1  0
M  END
