piperidine-amides-25676-covalent
     RDKit          3D

 25 27  0  0  0  0  0  0  0  0999 V2000
    7.0820   -3.3180   19.2980 C   0  0  0  0  0  0  0  0  0  0  0  0
    6.3230   -4.1110   20.2910 C   0  0  0  0  0  0  0  0  0  0  0  0
    5.2840   -4.6470   19.9150 O   0  0  0  0  0  0  0  0  0  0  0  0
    6.8310   -4.2590   21.5810 N   0  0  0  0  0  0  0  0  0  0  0  0
    6.5150   -5.3960   22.3980 C   0  0  0  0  0  0  0  0  0  0  0  0
    5.7540   -4.9260   23.6060 C   0  0  0  0  0  0  0  0  0  0  0  0
    6.4810   -3.7190   24.2070 C   0  0  0  0  0  0  0  0  0  0  0  0
    5.7220   -3.2120   25.3760 C   0  0  0  0  0  0  0  0  0  0  0  0
    4.5030   -3.0150   25.2560 O   0  0  0  0  0  0  0  0  0  0  0  0
    6.3410   -2.9790   26.6310 N   0  0  0  0  0  0  0  0  0  0  0  0
    6.4720   -4.1720   27.4460 C   0  0  0  0  0  0  0  0  0  0  0  0
    6.0370   -1.7630   27.3430 C   0  0  1  0  0  0  0  0  0  0  0  0
    7.0290   -1.4560   28.2690 C   0  0  0  0  0  0  0  0  0  0  0  0
    6.7770   -0.4840   29.2090 C   0  0  0  0  0  0  0  0  0  0  0  0
    6.3510    0.6990   28.6730 C   0  0  0  0  0  0  0  0  0  0  0  0
    6.0430    0.7400   27.2130 C   0  0  0  0  0  0  0  0  0  0  0  0
    5.9320    2.0930   26.6050 C   0  0  0  0  0  0  0  0  0  0  0  0
    5.6230    2.0330   25.1130 C   0  0  0  0  0  0  0  0  0  0  0  0
    5.5280    3.3190   24.6070 O   0  0  0  0  0  0  0  0  0  0  0  0
    4.5300    4.1960   25.0590 C   0  0  0  0  0  0  0  0  0  0  0  0
    5.4560    0.7040   24.3550 C   0  0  0  0  0  0  0  0  0  0  0  0
    5.6070   -0.5920   25.1510 C   0  0  0  0  0  0  0  0  0  0  0  0
    5.9030   -0.6160   26.5960 C   0  0  0  0  0  0  0  0  0  0  0  0
    6.6940   -2.6360   23.1780 C   0  0  0  0  0  0  0  0  0  0  0  0
    7.5300   -3.1500   22.2160 C   0  0  0  0  0  0  0  0  0  0  0  0
  1  2  1  0
  2  3  2  0
  2  4  1  0
  4  5  1  0
  5  6  1  0
  6  7  1  0
  7  8  1  0
  8  9  2  0
  8 10  1  0
 10 11  1  0
 12 10  1  6
 12 13  1  0
 13 14  1  0
 14 15  1  0
 15 16  1  0
 16 17  2  0
 17 18  1  0
 18 19  1  0
 19 20  1  0
 18 21  2  0
 21 22  1  0
 12 23  1  0
 16 23  1  0
 22 23  2  0
  7 24  1  0
  4 25  1  0
 24 25  1  0
M  END
