piperidine-amides-8292-covalent
     RDKit          3D

 25 27  0  0  0  0  0  0  0  0999 V2000
    7.1460   -3.2900   19.2410 C   0  0  0  0  0  0  0  0  0  0  0  0
    6.3970   -4.0380   20.2400 C   0  0  0  0  0  0  0  0  0  0  0  0
    5.3130   -4.5460   19.8970 O   0  0  0  0  0  0  0  0  0  0  0  0
    6.9400   -4.2210   21.5330 N   0  0  0  0  0  0  0  0  0  0  0  0
    6.4940   -5.3510   22.2840 C   0  0  0  0  0  0  0  0  0  0  0  0
    5.5240   -4.8990   23.3420 C   0  0  0  0  0  0  0  0  0  0  0  0
    5.5920   -3.3800   23.4520 C   0  0  0  0  0  0  0  0  0  0  0  0
    4.7990   -2.9150   24.6410 C   0  0  0  0  0  0  0  0  0  0  0  0
    3.6680   -3.3700   24.7370 O   0  0  0  0  0  0  0  0  0  0  0  0
    5.3470   -2.0350   25.5580 N   0  0  0  0  0  0  0  0  0  0  0  0
    5.9170   -2.5920   26.7080 C   0  0  1  0  0  0  0  0  0  0  0  0
    6.2610   -1.7750   27.7920 C   0  0  0  0  0  0  0  0  0  0  0  0
    6.5370   -0.5740   27.5760 O   0  0  0  0  0  0  0  0  0  0  0  0
    4.9840   -3.6210   27.2440 C   0  0  0  0  0  0  0  0  0  0  0  0
    5.8730   -4.4240   27.6910 C   0  0  0  0  0  0  0  0  0  0  0  0
    5.9610   -4.8610   29.0500 C   0  0  0  0  0  0  0  0  0  0  0  0
    7.0480   -5.5990   29.1290 N   0  0  0  0  0  0  0  0  0  0  0  0
    7.5680   -5.5860   27.8680 C   0  0  0  0  0  0  0  0  0  0  0  0
    8.7740   -6.1880   27.4080 C   0  0  0  0  0  0  0  0  0  0  0  0
    9.1140   -6.0630   25.9640 C   0  0  0  0  0  0  0  0  0  0  0  0
    8.1390   -5.2700   25.0830 C   0  0  0  0  0  0  0  0  0  0  0  0
    7.0510   -4.7150   25.6400 C   0  0  0  0  0  0  0  0  0  0  0  0
    6.8350   -4.8960   26.9660 C   0  0  0  0  0  0  0  0  0  0  0  0
    6.9800   -2.8260   23.4640 C   0  0  0  0  0  0  0  0  0  0  0  0
    7.6870   -3.1840   22.1950 C   0  0  0  0  0  0  0  0  0  0  0  0
  1  2  1  0
  2  3  2  0
  2  4  1  0
  4  5  1  0
  5  6  1  0
  6  7  1  0
  7  8  1  0
  8  9  2  0
  8 10  1  0
 10 11  1  0
 11 12  1  1
 12 13  1  0
 11 14  1  0
 14 15  1  0
 15 16  2  0
 16 17  1  0
 17 18  1  0
 18 19  1  0
 19 20  2  0
 20 21  1  0
 21 22  2  0
 15 23  1  0
 18 23  2  0
 22 23  1  0
  7 24  1  0
  4 25  1  0
 24 25  1  0
M  END
