piperidine-amides-19413-covalent
     RDKit          3D

 22 24  0  0  0  0  0  0  0  0999 V2000
    7.1240   -3.3760   19.4630 C   0  0  0  0  0  0  0  0  0  0  0  0
    6.4560   -4.2460   20.4030 C   0  0  0  0  0  0  0  0  0  0  0  0
    5.4470   -4.9130   20.0030 O   0  0  0  0  0  0  0  0  0  0  0  0
    6.9350   -4.3870   21.7250 N   0  0  0  0  0  0  0  0  0  0  0  0
    6.6800   -5.6340   22.4750 C   0  0  0  0  0  0  0  0  0  0  0  0
    5.7530   -5.0950   23.6400 C   0  0  0  0  0  0  0  0  0  0  0  0
    6.4960   -3.9850   24.3750 C   0  0  0  0  0  0  0  0  0  0  0  0
    5.5790   -3.3530   25.5230 C   0  0  0  0  0  0  0  0  0  0  0  0
    4.6870   -2.6940   25.0130 O   0  0  0  0  0  0  0  0  0  0  0  0
    5.9850   -3.6870   26.6920 N   0  0  0  0  0  0  0  0  0  0  0  0
    6.7020   -3.9600   27.7610 C   0  0  0  0  0  0  0  0  0  0  0  0
    7.3260   -5.0580   28.1990 C   0  0  0  0  0  0  0  0  0  0  0  0
    6.2690   -5.7680   28.7130 C   0  0  0  0  0  0  0  0  0  0  0  0
    5.0050   -4.9710   28.6550 C   0  0  0  0  0  0  0  0  0  0  0  0
    4.1530   -5.4940   29.7330 C   0  0  0  0  0  0  0  0  0  0  0  0
    2.9530   -4.7240   29.6680 C   0  0  0  0  0  0  0  0  0  0  0  0
    2.3910   -3.6260   28.8650 C   0  0  0  0  0  0  0  0  0  0  0  0
    3.5210   -3.2860   27.8050 C   0  0  0  0  0  0  0  0  0  0  0  0
    3.1820   -2.2890   26.9690 F   0  0  0  0  0  0  0  0  0  0  0  0
    4.9170   -3.9470   27.6320 C   0  0  0  0  0  0  0  0  0  0  0  0
    6.9060   -2.8700   23.3900 C   0  0  0  0  0  0  0  0  0  0  0  0
    7.6910   -3.3470   22.3860 C   0  0  0  0  0  0  0  0  0  0  0  0
  1  2  1  0
  2  3  2  0
  2  4  1  0
  4  5  1  0
  5  6  1  0
  6  7  1  0
  7  8  1  0
  8  9  2  0
  8 10  1  0
 10 11  1  0
 11 12  1  0
 12 13  1  0
 13 14  1  0
 14 15  2  0
 15 16  1  0
 16 17  2  0
 17 18  1  0
 18 19  1  0
 10 20  1  0
 14 20  1  0
 18 20  2  0
  7 21  1  0
  4 22  1  0
 21 22  1  0
M  END
