piperidine-amides-1652-covalent
     RDKit          3D

 21 22  0  0  0  0  0  0  0  0999 V2000
    7.1570   -3.2950   19.2350 C   0  0  0  0  0  0  0  0  0  0  0  0
    6.3490   -4.0470   20.2290 C   0  0  0  0  0  0  0  0  0  0  0  0
    5.2670   -4.5490   19.8820 O   0  0  0  0  0  0  0  0  0  0  0  0
    6.8770   -4.2070   21.5170 N   0  0  0  0  0  0  0  0  0  0  0  0
    7.7270   -3.2250   22.1480 C   0  0  0  0  0  0  0  0  0  0  0  0
    6.9150   -2.6270   23.2860 C   0  0  0  0  0  0  0  0  0  0  0  0
    6.5380   -3.7720   24.1620 C   0  0  0  0  0  0  0  0  0  0  0  0
    5.8260   -3.3450   25.3790 C   0  0  0  0  0  0  0  0  0  0  0  0
    4.5900   -3.4200   25.3580 O   0  0  0  0  0  0  0  0  0  0  0  0
    6.5440   -2.8800   26.4800 N   0  0  0  0  0  0  0  0  0  0  0  0
    6.4250   -1.6160   27.0980 C   0  0  0  0  0  0  0  0  0  0  0  0
    5.3480   -1.2830   27.8830 C   0  0  0  0  0  0  0  0  0  0  0  0
    5.4770   -1.1350   29.2940 C   0  0  0  0  0  0  0  0  0  0  0  0
    4.4200   -0.8070   30.1180 C   0  0  0  0  0  0  0  0  0  0  0  0
    3.1080   -0.6080   29.4910 C   0  0  0  0  0  0  0  0  0  0  0  0
    2.0570   -0.2790   30.3650 N   0  0  0  0  0  0  0  0  0  0  0  0
    3.0080   -0.7730   27.9890 C   0  0  0  0  0  0  0  0  0  0  0  0
    1.5840   -0.5350   27.4820 C   0  0  0  0  0  0  0  0  0  0  0  0
    4.1320   -1.1050   27.2260 C   0  0  0  0  0  0  0  0  0  0  0  0
    5.7300   -4.8330   23.4900 C   0  0  0  0  0  0  0  0  0  0  0  0
    6.4810   -5.3620   22.2890 C   0  0  0  0  0  0  0  0  0  0  0  0
  1  2  1  0
  2  3  2  0
  2  4  1  0
  4  5  1  0
  5  6  1  0
  6  7  1  0
  7  8  1  0
  8  9  2  0
  8 10  1  0
 10 11  1  0
 11 12  1  0
 12 13  2  0
 13 14  1  0
 14 15  2  0
 15 16  1  0
 15 17  1  0
 17 18  1  0
 12 19  1  0
 17 19  2  0
  7 20  1  0
  4 21  1  0
 20 21  1  0
M  END
