piperidine-amides-32340-covalent
     RDKit          3D

 28 30  0  0  0  0  0  0  0  0999 V2000
    7.0260   -3.3430   19.3870 C   0  0  0  0  0  0  0  0  0  0  0  0
    6.3660   -4.2270   20.3890 C   0  0  0  0  0  0  0  0  0  0  0  0
    5.4070   -4.9230   20.0040 O   0  0  0  0  0  0  0  0  0  0  0  0
    6.8540   -4.2880   21.7220 N   0  0  0  0  0  0  0  0  0  0  0  0
    6.7580   -5.5340   22.4670 C   0  0  0  0  0  0  0  0  0  0  0  0
    6.3420   -5.2700   23.9330 C   0  0  0  0  0  0  0  0  0  0  0  0
    6.4030   -3.8040   24.1930 C   0  0  0  0  0  0  0  0  0  0  0  0
    5.8990   -3.3430   25.5310 C   0  0  0  0  0  0  0  0  0  0  0  0
    4.8970   -2.6230   25.4350 O   0  0  0  0  0  0  0  0  0  0  0  0
    6.4350   -3.6610   26.8180 N   0  0  0  0  0  0  0  0  0  0  0  0
    6.3550   -2.7380   27.8620 C   0  0  0  0  0  0  0  0  0  0  0  0
    5.1820   -2.7090   28.5150 C   0  0  0  0  0  0  0  0  0  0  0  0
    4.3540   -3.4050   27.5340 O   0  0  0  0  0  0  0  0  0  0  0  0
    4.6150   -4.7690   27.4230 C   0  0  2  0  0  0  0  0  0  0  0  0
    4.0830   -5.4410   28.4470 C   0  0  0  0  0  0  0  0  0  0  0  0
    4.4110   -4.9170   29.7580 C   0  0  0  0  0  0  0  0  0  0  0  0
    5.6840   -5.4130   29.9090 N   0  0  0  0  0  0  0  0  0  0  0  0
    5.6250   -6.6520   30.6540 C   0  0  0  0  0  0  0  0  0  0  0  0
    6.5460   -7.1780   31.5100 O   0  0  0  0  0  0  0  0  0  0  0  0
    4.4210   -7.2630   30.4760 O   0  0  0  0  0  0  0  0  0  0  0  0
    3.7840   -7.3680   31.6950 C   0  0  0  0  0  0  0  0  0  0  0  0
    4.5690   -7.8740   32.7150 C   0  0  0  0  0  0  0  0  0  0  0  0
    3.2390   -6.0950   32.2350 C   0  0  0  0  0  0  0  0  0  0  0  0
    2.5910   -8.3040   31.5290 C   0  0  0  0  0  0  0  0  0  0  0  0
    6.5400   -5.3340   28.8290 C   0  0  0  0  0  0  0  0  0  0  0  0
    5.9880   -4.9330   27.4010 C   0  0  2  0  0  0  0  0  0  0  0  0
    7.6840   -3.1920   23.7590 C   0  0  0  0  0  0  0  0  0  0  0  0
    7.7370   -3.2350   22.2340 C   0  0  0  0  0  0  0  0  0  0  0  0
  1  2  1  0
  2  3  2  0
  2  4  1  0
  4  5  1  0
  5  6  1  0
  6  7  1  0
  7  8  1  0
  8  9  2  0
  8 10  1  0
 10 11  1  0
 11 12  1  0
 12 13  1  0
 13 14  1  0
 14 15  1  1
 15 16  1  0
 16 17  1  0
 17 18  1  0
 18 19  2  0
 18 20  1  0
 21 20  1  0
 21 22  1  0
 21 23  1  0
 21 24  1  0
 17 25  1  0
 10 26  1  0
 14 26  1  0
 26 25  1  1
  7 27  1  0
  4 28  1  0
 27 28  1  0
M  END
