piperidine-amides-15142-covalent
     RDKit          3D

 21 22  0  0  0  0  0  0  0  0999 V2000
    7.1120   -3.2600   19.1870 C   0  0  0  0  0  0  0  0  0  0  0  0
    6.3740   -4.0130   20.2000 C   0  0  0  0  0  0  0  0  0  0  0  0
    5.2930   -4.5340   19.8780 O   0  0  0  0  0  0  0  0  0  0  0  0
    6.9120   -4.1780   21.4980 N   0  0  0  0  0  0  0  0  0  0  0  0
    6.5730   -5.3540   22.2470 C   0  0  0  0  0  0  0  0  0  0  0  0
    5.8260   -4.9410   23.4770 C   0  0  0  0  0  0  0  0  0  0  0  0
    6.6230   -3.8010   24.0710 C   0  0  0  0  0  0  0  0  0  0  0  0
    5.8550   -3.1710   25.1850 C   0  0  0  0  0  0  0  0  0  0  0  0
    4.6380   -3.1020   25.0280 O   0  0  0  0  0  0  0  0  0  0  0  0
    6.5630   -2.7030   26.2890 N   0  0  0  0  0  0  0  0  0  0  0  0
    6.4040   -3.2210   27.6100 C   0  0  0  0  0  0  0  0  0  0  0  0
    5.1600   -3.7210   27.9270 C   0  0  1  0  0  0  0  0  0  0  0  0
    4.2240   -3.3900   26.9550 F   0  0  0  0  0  0  0  0  0  0  0  0
    5.0310   -5.0280   28.2030 C   0  0  0  0  0  0  0  0  0  0  0  0
    4.0320   -5.7760   27.5810 C   0  0  0  0  0  0  0  0  0  0  0  0
    3.9240   -7.2270   27.9290 C   0  0  0  0  0  0  0  0  0  0  0  0
    4.8890   -7.8650   28.9430 C   0  0  0  0  0  0  0  0  0  0  0  0
    5.8960   -6.9980   29.5330 C   0  0  0  0  0  0  0  0  0  0  0  0
    5.8910   -5.5950   29.1000 C   0  0  0  0  0  0  0  0  0  0  0  0
    7.0060   -2.7140   23.1720 C   0  0  0  0  0  0  0  0  0  0  0  0
    7.7520   -3.1810   22.1280 C   0  0  0  0  0  0  0  0  0  0  0  0
  1  2  1  0
  2  3  2  0
  2  4  1  0
  4  5  1  0
  5  6  1  0
  6  7  1  0
  7  8  1  0
  8  9  2  0
  8 10  1  0
 10 11  1  0
 11 12  1  0
 12 13  1  6
 12 14  1  0
 14 15  2  0
 15 16  1  0
 16 17  2  0
 17 18  1  0
 14 19  1  0
 18 19  2  0
  7 20  1  0
  4 21  1  0
 20 21  1  0
M  END
