piperidine-amides-32383-covalent
     RDKit          3D

 28 29  0  0  0  0  0  0  0  0999 V2000
    7.0940   -3.3280   19.2970 C   0  0  0  0  0  0  0  0  0  0  0  0
    6.3890   -4.1740   20.2930 C   0  0  0  0  0  0  0  0  0  0  0  0
    5.3510   -4.7690   19.9600 O   0  0  0  0  0  0  0  0  0  0  0  0
    6.9500   -4.3230   21.5800 N   0  0  0  0  0  0  0  0  0  0  0  0
    7.7560   -3.2880   22.1780 C   0  0  0  0  0  0  0  0  0  0  0  0
    6.9520   -2.7360   23.3500 C   0  0  0  0  0  0  0  0  0  0  0  0
    6.7190   -3.8640   24.2970 C   0  0  0  0  0  0  0  0  0  0  0  0
    6.0250   -3.4140   25.5150 C   0  0  0  0  0  0  0  0  0  0  0  0
    4.7870   -3.3650   25.4580 O   0  0  0  0  0  0  0  0  0  0  0  0
    6.7600   -3.0570   26.6520 N   0  0  0  0  0  0  0  0  0  0  0  0
    7.4600   -3.9950   27.4800 C   0  0  0  0  0  0  0  0  0  0  0  0
    8.0360   -5.1920   27.0830 C   0  0  0  0  0  0  0  0  0  0  0  0
    8.9880   -5.2600   26.0560 C   0  0  0  0  0  0  0  0  0  0  0  0
    6.4710   -1.9050   27.4040 C   0  0  0  0  0  0  0  0  0  0  0  0
    7.2870   -1.5200   28.5530 C   0  0  0  0  0  0  0  0  0  0  0  0
    6.8220   -0.2410   29.2370 C   0  0  0  0  0  0  0  0  0  0  0  0
    6.5690    0.8520   28.3350 N   0  0  0  0  0  0  0  0  0  0  0  0
    6.5790    2.1690   28.8610 C   0  0  0  0  0  0  0  0  0  0  0  0
    7.5980    2.5230   29.7260 O   0  0  0  0  0  0  0  0  0  0  0  0
    5.6340    3.1400   28.5810 O   0  0  0  0  0  0  0  0  0  0  0  0
    5.6560    4.3350   29.3190 C   0  0  0  0  0  0  0  0  0  0  0  0
    4.4880    5.1550   28.9160 C   0  0  0  0  0  0  0  0  0  0  0  0
    6.8710    4.9810   29.5720 C   0  0  0  0  0  0  0  0  0  0  0  0
    4.9340    4.0790   30.6480 C   0  0  0  0  0  0  0  0  0  0  0  0
    5.6590    0.4590   27.2850 C   0  0  0  0  0  0  0  0  0  0  0  0
    6.0810   -0.8510   26.6170 C   0  0  0  0  0  0  0  0  0  0  0  0
    5.8900   -4.9690   23.6690 C   0  0  0  0  0  0  0  0  0  0  0  0
    6.5170   -5.4420   22.4060 C   0  0  0  0  0  0  0  0  0  0  0  0
  1  2  1  0
  2  3  2  0
  2  4  1  0
  4  5  1  0
  5  6  1  0
  6  7  1  0
  7  8  1  0
  8  9  2  0
  8 10  1  0
 10 11  1  0
 11 12  1  0
 12 13  1  0
 10 14  1  0
 14 15  1  0
 15 16  1  0
 16 17  1  0
 17 18  1  0
 18 19  2  0
 18 20  1  0
 21 20  1  0
 21 22  1  0
 21 23  1  0
 21 24  1  0
 17 25  1  0
 14 26  1  0
 25 26  1  0
  7 27  1  0
  4 28  1  0
 27 28  1  0
M  END
