piperidine-amides-15216-covalent
     RDKit          3D

 19 20  0  0  0  0  0  0  0  0999 V2000
    7.0820   -3.2780   19.2130 C   0  0  0  0  0  0  0  0  0  0  0  0
    6.3400   -4.0450   20.2250 C   0  0  0  0  0  0  0  0  0  0  0  0
    5.2930   -4.6480   19.9130 O   0  0  0  0  0  0  0  0  0  0  0  0
    6.8130   -4.1520   21.5360 N   0  0  0  0  0  0  0  0  0  0  0  0
    7.6970   -3.1310   22.0760 C   0  0  0  0  0  0  0  0  0  0  0  0
    7.4780   -3.0490   23.5880 C   0  0  0  0  0  0  0  0  0  0  0  0
    6.0660   -3.5210   23.8400 C   0  0  0  0  0  0  0  0  0  0  0  0
    5.6060   -3.1900   25.2000 C   0  0  0  0  0  0  0  0  0  0  0  0
    4.3860   -2.9910   25.3810 O   0  0  0  0  0  0  0  0  0  0  0  0
    6.5430   -3.1080   26.2470 N   0  0  0  0  0  0  0  0  0  0  0  0
    6.1280   -3.2340   27.6150 C   0  0  0  0  0  0  0  0  0  0  0  0
    5.7770   -4.6760   27.9510 C   0  0  0  0  0  0  0  0  0  0  0  0
    6.3170   -5.4070   28.9570 C   0  0  0  0  0  0  0  0  0  0  0  0
    6.5820   -6.6270   28.7930 O   0  0  0  0  0  0  0  0  0  0  0  0
    5.9520   -7.4930   29.6370 C   0  0  0  0  0  0  0  0  0  0  0  0
    4.5040   -5.2720   27.3750 C   0  0  0  0  0  0  0  0  0  0  0  0
    5.4820   -5.5040   26.6870 C   0  0  0  0  0  0  0  0  0  0  0  0
    6.0660   -5.0360   23.6480 C   0  0  0  0  0  0  0  0  0  0  0  0
    6.6460   -5.3660   22.3030 C   0  0  0  0  0  0  0  0  0  0  0  0
  1  2  1  0
  2  3  2  0
  2  4  1  0
  4  5  1  0
  5  6  1  0
  6  7  1  0
  7  8  1  0
  8  9  2  0
  8 10  1  0
 10 11  1  0
 12 11  1  0
 12 13  1  0
 13 14  1  0
 14 15  1  0
 12 16  1  0
 12 17  1  0
 16 17  1  0
  7 18  1  0
  4 19  1  0
 18 19  1  0
M  END
