piperidine-amides-34409-covalent
     RDKit          3D

 23 25  0  0  0  0  0  0  0  0999 V2000
    7.0530   -3.3740   19.4400 C   0  0  0  0  0  0  0  0  0  0  0  0
    6.3610   -4.2440   20.4030 C   0  0  0  0  0  0  0  0  0  0  0  0
    5.4070   -4.9560   20.0090 O   0  0  0  0  0  0  0  0  0  0  0  0
    6.7840   -4.3120   21.7430 N   0  0  0  0  0  0  0  0  0  0  0  0
    6.5860   -5.5440   22.4990 C   0  0  0  0  0  0  0  0  0  0  0  0
    6.1100   -5.2100   23.9420 C   0  0  0  0  0  0  0  0  0  0  0  0
    6.0310   -3.7060   24.0570 C   0  0  0  0  0  0  0  0  0  0  0  0
    5.5560   -3.1900   25.3800 C   0  0  0  0  0  0  0  0  0  0  0  0
    5.1100   -2.0330   25.3810 O   0  0  0  0  0  0  0  0  0  0  0  0
    5.5400   -3.9260   26.6030 N   0  0  0  0  0  0  0  0  0  0  0  0
    6.4740   -3.5910   27.6310 C   0  0  0  0  0  0  0  0  0  0  0  0
    6.8610   -4.8650   28.3970 C   0  0  0  0  0  0  0  0  0  0  0  0
    5.8410   -5.3750   29.0840 C   0  0  0  0  0  0  0  0  0  0  0  0
    5.7310   -6.2260   30.1900 N   0  0  0  0  0  0  0  0  0  0  0  0
    4.4090   -6.6400   30.6190 C   0  0  0  0  0  0  0  0  0  0  0  0
    3.2460   -6.1180   29.9410 C   0  0  0  0  0  0  0  0  0  0  0  0
    1.3260   -6.7190   30.5660 I   0  0  0  0  0  0  0  0  0  0  0  0
    3.3580   -5.2320   28.8880 C   0  0  0  0  0  0  0  0  0  0  0  0
    2.3970   -4.6010   28.1740 O   0  0  0  0  0  0  0  0  0  0  0  0
    4.7600   -4.9570   28.5240 C   0  0  0  0  0  0  0  0  0  0  0  0
    4.3150   -4.1070   27.3740 C   0  0  0  0  0  0  0  0  0  0  0  0
    7.2730   -3.0190   23.6720 C   0  0  0  0  0  0  0  0  0  0  0  0
    7.6210   -3.2880   22.2900 C   0  0  0  0  0  0  0  0  0  0  0  0
  1  2  1  0
  2  3  2  0
  2  4  1  0
  4  5  1  0
  5  6  1  0
  6  7  1  0
  7  8  1  0
  8  9  2  0
  8 10  1  0
 10 11  1  0
 11 12  1  0
 12 13  1  0
 13 14  1  0
 14 15  1  0
 15 16  2  0
 16 17  1  0
 16 18  1  0
 18 19  2  0
 13 20  2  0
 18 20  1  0
 10 21  1  0
 20 21  1  0
  7 22  1  0
  4 23  1  0
 22 23  1  0
M  END
