piperidine-amides-3942-covalent
     RDKit          3D

 30 33  0  0  0  0  0  0  0  0999 V2000
    7.1450   -3.2820   19.2300 C   0  0  0  0  0  0  0  0  0  0  0  0
    6.4150   -4.0530   20.2450 C   0  0  0  0  0  0  0  0  0  0  0  0
    5.3160   -4.5510   19.8940 O   0  0  0  0  0  0  0  0  0  0  0  0
    6.9640   -4.2700   21.5320 N   0  0  0  0  0  0  0  0  0  0  0  0
    6.4290   -5.3160   22.3290 C   0  0  0  0  0  0  0  0  0  0  0  0
    5.9100   -4.8840   23.6280 C   0  0  0  0  0  0  0  0  0  0  0  0
    6.5790   -3.7170   24.2550 C   0  0  0  0  0  0  0  0  0  0  0  0
    5.7800   -3.1500   25.3900 C   0  0  0  0  0  0  0  0  0  0  0  0
    4.5360   -3.2090   25.3440 O   0  0  0  0  0  0  0  0  0  0  0  0
    6.4020   -2.5460   26.5000 N   0  0  0  0  0  0  0  0  0  0  0  0
    6.3340   -2.9500   27.8560 C   0  0  0  0  0  0  0  0  0  0  0  0
    5.1860   -2.6890   28.7200 C   0  0  0  0  0  0  0  0  0  0  0  0
    4.4360   -1.3610   28.8850 C   0  0  0  0  0  0  0  0  0  0  0  0
    3.4130   -1.6550   29.8450 N   0  0  0  0  0  0  0  0  0  0  0  0
    2.5120   -0.6210   30.2540 C   0  0  0  0  0  0  0  0  0  0  0  0
    1.5900   -1.0780   31.4140 C   0  0  0  0  0  0  0  0  0  0  0  0
    0.6180    0.0200   31.8710 C   0  0  0  0  0  0  0  0  0  0  0  0
    0.7770    1.3370   31.0700 C   0  0  0  0  0  0  0  0  0  0  0  0
    1.7060    1.6850   29.9550 C   0  0  0  0  0  0  0  0  0  0  0  0
    2.5880    0.5580   29.6050 C   0  0  0  0  0  0  0  0  0  0  0  0
    3.3090   -2.8500   30.3460 N   0  0  0  0  0  0  0  0  0  0  0  0
    4.4030   -3.5950   29.6940 C   0  0  0  0  0  0  0  0  0  0  0  0
    4.7720   -5.0170   29.8990 C   0  0  0  0  0  0  0  0  0  0  0  0
    5.9110   -5.5250   29.2890 C   0  0  0  0  0  0  0  0  0  0  0  0
    6.2800   -6.8340   29.4720 C   0  0  0  0  0  0  0  0  0  0  0  0
    5.5360   -7.6210   30.2480 N   0  0  0  0  0  0  0  0  0  0  0  0
    4.4540   -7.1400   30.8220 C   0  0  0  0  0  0  0  0  0  0  0  0
    3.9970   -5.8400   30.6990 C   0  0  0  0  0  0  0  0  0  0  0  0
    6.8160   -2.6430   23.2280 C   0  0  0  0  0  0  0  0  0  0  0  0
    7.7100   -3.2060   22.1560 C   0  0  0  0  0  0  0  0  0  0  0  0
  1  2  1  0
  2  3  2  0
  2  4  1  0
  4  5  1  0
  5  6  1  0
  6  7  1  0
  7  8  1  0
  8  9  2  0
  8 10  1  0
 10 11  1  0
 11 12  1  0
 12 13  2  0
 13 14  1  0
 14 15  1  0
 15 16  2  0
 16 17  1  0
 17 18  2  0
 18 19  1  0
 15 20  1  0
 19 20  2  0
 14 21  1  0
 12 22  1  0
 21 22  2  0
 22 23  1  0
 23 24  2  0
 24 25  1  0
 25 26  2  0
 26 27  1  0
 23 28  1  0
 27 28  2  0
  7 29  1  0
  4 30  1  0
 29 30  1  0
M  END
