piperidine-amides-27425-covalent
     RDKit          3D

 26 29  0  0  0  0  0  0  0  0999 V2000
    7.0760   -3.3380   19.3430 C   0  0  0  0  0  0  0  0  0  0  0  0
    6.4220   -4.1910   20.3380 C   0  0  0  0  0  0  0  0  0  0  0  0
    5.3720   -4.7780   19.9660 O   0  0  0  0  0  0  0  0  0  0  0  0
    6.9920   -4.3700   21.6040 N   0  0  0  0  0  0  0  0  0  0  0  0
    6.7760   -5.6200   22.3080 C   0  0  0  0  0  0  0  0  0  0  0  0
    6.3580   -5.3100   23.7190 C   0  0  0  0  0  0  0  0  0  0  0  0
    6.2160   -3.8330   23.9240 C   0  0  0  0  0  0  0  0  0  0  0  0
    5.6050   -3.5450   25.2280 C   0  0  0  0  0  0  0  0  0  0  0  0
    4.3640   -3.4010   25.2400 O   0  0  0  0  0  0  0  0  0  0  0  0
    6.2700   -3.4110   26.4470 N   0  0  0  0  0  0  0  0  0  0  0  0
    6.6730   -2.0950   26.7830 C   0  0  0  0  0  0  0  0  0  0  0  0
    6.6400   -2.0710   28.2940 C   0  0  1  0  0  0  0  0  0  0  0  0
    6.2710   -0.9480   28.9800 C   0  0  0  0  0  0  0  0  0  0  0  0
    6.8660   -0.4520   30.1290 C   0  0  0  0  0  0  0  0  0  0  0  0
    6.4770    0.6980   30.8160 C   0  0  0  0  0  0  0  0  0  0  0  0
    5.4010    1.4220   30.3170 C   0  0  0  0  0  0  0  0  0  0  0  0
    4.7600    0.9960   29.1820 C   0  0  0  0  0  0  0  0  0  0  0  0
    5.2050   -0.2450   28.4710 C   0  0  0  0  0  0  0  0  0  0  0  0
    5.9480   -3.2200   28.6240 C   0  0  1  0  0  0  0  0  0  0  0  0
    4.6680   -3.1040   29.3460 C   0  0  0  0  0  0  0  0  0  0  0  0
    4.1350   -4.5260   29.5220 C   0  0  0  0  0  0  0  0  0  0  0  0
    5.0690   -5.5550   29.2200 C   0  0  0  0  0  0  0  0  0  0  0  0
    5.5830   -5.4020   27.7930 C   0  0  0  0  0  0  0  0  0  0  0  0
    5.5410   -3.9260   27.5480 C   0  0  2  0  0  0  0  0  0  0  0  0
    7.4850   -3.1370   23.6110 C   0  0  0  0  0  0  0  0  0  0  0  0
    7.7770   -3.3020   22.1770 C   0  0  0  0  0  0  0  0  0  0  0  0
  1  2  1  0
  2  3  2  0
  2  4  1  0
  4  5  1  0
  5  6  1  0
  6  7  1  0
  7  8  1  0
  8  9  2  0
  8 10  1  0
 10 11  1  0
 11 12  1  0
 12 13  1  6
 13 14  2  0
 14 15  1  0
 15 16  2  0
 16 17  1  0
 13 18  1  0
 17 18  2  0
 12 19  1  0
 19 20  1  6
 20 21  1  0
 21 22  1  0
 22 23  1  0
 10 24  1  0
 19 24  1  0
 24 23  1  1
  7 25  1  0
  4 26  1  0
 25 26  1  0
M  END
