piperidine-amides-9085-covalent
     RDKit          3D

 21 22  0  0  0  0  0  0  0  0999 V2000
    7.1150   -3.2770   19.2170 C   0  0  0  0  0  0  0  0  0  0  0  0
    6.3510   -4.0390   20.2040 C   0  0  0  0  0  0  0  0  0  0  0  0
    5.2690   -4.5450   19.8750 O   0  0  0  0  0  0  0  0  0  0  0  0
    6.8360   -4.2640   21.4980 N   0  0  0  0  0  0  0  0  0  0  0  0
    6.5280   -5.4600   22.2320 C   0  0  0  0  0  0  0  0  0  0  0  0
    5.8070   -4.9740   23.4610 C   0  0  0  0  0  0  0  0  0  0  0  0
    6.5760   -3.9020   24.1890 C   0  0  0  0  0  0  0  0  0  0  0  0
    5.8400   -3.3760   25.3550 C   0  0  0  0  0  0  0  0  0  0  0  0
    4.5740   -3.2930   25.3240 O   0  0  0  0  0  0  0  0  0  0  0  0
    6.4870   -2.9470   26.5320 N   0  0  0  0  0  0  0  0  0  0  0  0
    6.1230   -3.5020   27.8510 C   0  0  2  0  0  0  0  0  0  0  0  0
    5.8140   -4.9570   27.7420 C   0  0  0  0  0  0  0  0  0  0  0  0
    6.4040   -5.8010   28.7980 C   0  0  0  0  0  0  0  0  0  0  0  0
    4.9540   -2.7480   28.4540 C   0  0  0  0  0  0  0  0  0  0  0  0
    3.6740   -2.3350   27.9720 N   0  0  0  0  0  0  0  0  0  0  0  0
    3.0330   -1.6910   28.9340 O   0  0  0  0  0  0  0  0  0  0  0  0
    3.9160   -1.7120   29.9940 C   0  0  0  0  0  0  0  0  0  0  0  0
    3.3640   -1.0260   31.1870 C   0  0  0  0  0  0  0  0  0  0  0  0
    5.0790   -2.3280   29.7770 N   0  0  0  0  0  0  0  0  0  0  0  0
    6.9110   -2.7710   23.2430 C   0  0  0  0  0  0  0  0  0  0  0  0
    7.6180   -3.2390   22.1420 C   0  0  0  0  0  0  0  0  0  0  0  0
  1  2  1  0
  2  3  2  0
  2  4  1  0
  4  5  1  0
  5  6  1  0
  6  7  1  0
  7  8  1  0
  8  9  2  0
  8 10  1  0
 10 11  1  0
 11 12  1  6
 12 13  1  0
 11 14  1  0
 14 15  2  0
 15 16  1  0
 16 17  1  0
 17 18  1  0
 14 19  1  0
 17 19  2  0
  7 20  1  0
  4 21  1  0
 20 21  1  0
M  END
