piperidine-amides-24691-covalent
     RDKit          3D

 24 25  0  0  0  0  0  0  0  0999 V2000
    7.1090   -3.2560   19.2290 C   0  0  0  0  0  0  0  0  0  0  0  0
    6.3530   -4.0270   20.2280 C   0  0  0  0  0  0  0  0  0  0  0  0
    5.3220   -4.6500   19.9170 O   0  0  0  0  0  0  0  0  0  0  0  0
    6.8140   -4.1040   21.5400 N   0  0  0  0  0  0  0  0  0  0  0  0
    7.6350   -3.0200   22.0320 C   0  0  0  0  0  0  0  0  0  0  0  0
    7.3730   -2.8980   23.5310 C   0  0  0  0  0  0  0  0  0  0  0  0
    5.9650   -3.3970   23.7660 C   0  0  0  0  0  0  0  0  0  0  0  0
    5.5240   -3.0920   25.1450 C   0  0  0  0  0  0  0  0  0  0  0  0
    4.3010   -3.1520   25.3890 O   0  0  0  0  0  0  0  0  0  0  0  0
    6.4580   -2.7430   26.1560 N   0  0  0  0  0  0  0  0  0  0  0  0
    7.2270   -1.5540   26.0350 C   0  0  0  0  0  0  0  0  0  0  0  0
    6.1520   -3.1330   27.5010 C   0  0  0  0  0  0  0  0  0  0  0  0
    7.2240   -3.8140   27.9440 C   0  0  0  0  0  0  0  0  0  0  0  0
    8.2200   -3.2720   28.4980 O   0  0  0  0  0  0  0  0  0  0  0  0
    7.0980   -5.1820   27.7180 N   0  0  0  0  0  0  0  0  0  0  0  0
    6.3450   -5.9550   28.6110 C   0  0  0  0  0  0  0  0  0  0  0  0
    7.9860   -5.6700   26.8060 C   0  0  0  0  0  0  0  0  0  0  0  0
    9.0760   -5.9090   27.5260 C   0  0  0  0  0  0  0  0  0  0  0  0
    9.8490   -4.7330   27.9850 C   0  0  0  0  0  0  0  0  0  0  0  0
    9.6440   -4.9240   26.5030 C   0  0  0  0  0  0  0  0  0  0  0  0
    9.1200   -3.7250   25.7900 C   0  0  0  0  0  0  0  0  0  0  0  0
    8.1100   -4.7990   25.7440 C   0  0  0  0  0  0  0  0  0  0  0  0
    5.8930   -4.8820   23.5290 C   0  0  0  0  0  0  0  0  0  0  0  0
    6.4620   -5.2320   22.3350 C   0  0  0  0  0  0  0  0  0  0  0  0
  1  2  1  0
  2  3  2  0
  2  4  1  0
  4  5  1  0
  5  6  1  0
  6  7  1  0
  7  8  1  0
  8  9  2  0
  8 10  1  0
 10 11  1  0
 10 12  1  0
 12 13  1  0
 13 14  2  0
 13 15  1  0
 15 16  1  0
 15 17  1  0
 17 18  1  0
 18 19  1  0
 19 20  1  0
 20 21  1  0
 17 22  1  0
 21 22  1  0
  7 23  1  0
  4 24  1  0
 23 24  1  0
M  END
