piperidine-amides-998-covalent
     RDKit          3D

 24 26  0  0  0  0  0  0  0  0999 V2000
    7.0660   -3.3260   19.3210 C   0  0  0  0  0  0  0  0  0  0  0  0
    6.3640   -4.1730   20.3230 C   0  0  0  0  0  0  0  0  0  0  0  0
    5.3550   -4.8080   19.9700 O   0  0  0  0  0  0  0  0  0  0  0  0
    6.8870   -4.2730   21.6300 N   0  0  0  0  0  0  0  0  0  0  0  0
    7.6580   -3.1860   22.2120 C   0  0  0  0  0  0  0  0  0  0  0  0
    7.5110   -3.2410   23.7380 C   0  0  0  0  0  0  0  0  0  0  0  0
    6.1330   -3.7240   24.0400 C   0  0  0  0  0  0  0  0  0  0  0  0
    5.6010   -3.2440   25.3360 C   0  0  0  0  0  0  0  0  0  0  0  0
    4.3720   -3.2070   25.4360 O   0  0  0  0  0  0  0  0  0  0  0  0
    6.4590   -2.8660   26.3690 N   0  0  0  0  0  0  0  0  0  0  0  0
    6.4160   -1.6540   27.1060 C   0  0  0  0  0  0  0  0  0  0  0  0
    7.0010   -1.5430   28.3590 C   0  0  0  0  0  0  0  0  0  0  0  0
    7.0200   -0.4000   29.1670 C   0  0  0  0  0  0  0  0  0  0  0  0
    6.4320    0.7750   28.7830 C   0  0  0  0  0  0  0  0  0  0  0  0
    5.7550    0.8460   27.4740 C   0  0  0  0  0  0  0  0  0  0  0  0
    5.0340    2.0530   26.8500 C   0  0  0  0  0  0  0  0  0  0  0  0
    4.3030    2.0140   25.5340 C   0  0  0  0  0  0  0  0  0  0  0  0
    3.7470    3.1960   25.1960 N   0  0  0  0  0  0  0  0  0  0  0  0
    4.0770    4.0110   26.2270 N   0  0  0  0  0  0  0  0  0  0  0  0
    3.6650    5.2780   26.1960 C   0  0  0  0  0  0  0  0  0  0  0  0
    4.8720    3.4530   27.3260 C   0  0  0  0  0  0  0  0  0  0  0  0
    5.7710   -0.3950   26.6620 C   0  0  0  0  0  0  0  0  0  0  0  0
    6.1570   -5.1690   23.8230 C   0  0  0  0  0  0  0  0  0  0  0  0
    6.6560   -5.4680   22.4010 C   0  0  0  0  0  0  0  0  0  0  0  0
  1  2  1  0
  2  3  2  0
  2  4  1  0
  4  5  1  0
  5  6  1  0
  6  7  1  0
  7  8  1  0
  8  9  2  0
  8 10  1  0
 10 11  1  0
 11 12  2  0
 12 13  1  0
 13 14  2  0
 14 15  1  0
 15 16  1  0
 16 17  1  0
 17 18  2  0
 18 19  1  0
 19 20  1  0
 16 21  2  0
 19 21  1  0
 11 22  1  0
 15 22  2  0
  7 23  1  0
  4 24  1  0
 23 24  1  0
M  END
