piperidine-amides-4283-covalent
     RDKit          3D

 26 28  0  0  0  0  0  0  0  0999 V2000
    7.1060   -3.2780   19.1850 C   0  0  0  0  0  0  0  0  0  0  0  0
    6.3610   -4.0300   20.2100 C   0  0  0  0  0  0  0  0  0  0  0  0
    5.2590   -4.5070   19.8620 O   0  0  0  0  0  0  0  0  0  0  0  0
    6.8830   -4.2650   21.5030 N   0  0  0  0  0  0  0  0  0  0  0  0
    7.5660   -3.1990   22.1520 C   0  0  0  0  0  0  0  0  0  0  0  0
    7.1330   -2.8930   23.5170 C   0  0  0  0  0  0  0  0  0  0  0  0
    6.3870   -3.9390   24.2630 C   0  0  0  0  0  0  0  0  0  0  0  0
    5.5530   -3.3010   25.3390 C   0  0  0  0  0  0  0  0  0  0  0  0
    4.3630   -3.0230   25.0990 O   0  0  0  0  0  0  0  0  0  0  0  0
    6.0740   -3.0040   26.6160 N   0  0  0  0  0  0  0  0  0  0  0  0
    6.1560   -3.8490   27.7480 C   0  0  1  0  0  0  0  0  0  0  0  0
    5.6320   -5.2020   27.5730 C   0  0  0  0  0  0  0  0  0  0  0  0
    5.4160   -5.8230   28.9680 C   0  0  0  0  0  0  0  0  0  0  0  0
    6.1400   -6.8060   29.6020 C   0  0  0  0  0  0  0  0  0  0  0  0
    5.6120   -7.1890   31.0440 C   0  0  0  0  0  0  0  0  0  0  0  0
    4.3840   -6.5040   31.6710 C   0  0  0  0  0  0  0  0  0  0  0  0
    3.7530   -5.4470   30.7690 C   0  0  0  0  0  0  0  0  0  0  0  0
    4.2490   -5.1060   29.4460 C   0  0  0  0  0  0  0  0  0  0  0  0
    7.3520   -3.9800   28.3430 C   0  0  0  0  0  0  0  0  0  0  0  0
    8.2230   -4.5820   27.2900 C   0  0  0  0  0  0  0  0  0  0  0  0
    8.8460   -5.8370   27.5600 C   0  0  0  0  0  0  0  0  0  0  0  0
    9.6460   -6.0070   26.0880 S   0  0  0  0  0  0  0  0  0  0  0  0
    9.1520   -4.5460   25.2920 C   0  0  0  0  0  0  0  0  0  0  0  0
    8.4590   -3.9910   26.0460 N   0  0  0  0  0  0  0  0  0  0  0  0
    5.5850   -4.8850   23.4290 C   0  0  0  0  0  0  0  0  0  0  0  0
    6.3850   -5.3750   22.2510 C   0  0  0  0  0  0  0  0  0  0  0  0
  1  2  1  0
  2  3  2  0
  2  4  1  0
  4  5  1  0
  5  6  1  0
  6  7  1  0
  7  8  1  0
  8  9  2  0
  8 10  1  0
 10 11  1  0
 11 12  1  6
 12 13  1  0
 13 14  2  0
 14 15  1  0
 15 16  2  0
 16 17  1  0
 13 18  1  0
 17 18  2  0
 11 19  1  0
 19 20  1  0
 20 21  2  0
 21 22  1  0
 22 23  1  0
 20 24  1  0
 23 24  2  0
  7 25  1  0
  4 26  1  0
 25 26  1  0
M  END
