piperidine-amides-14867-covalent
     RDKit          3D

 21 23  0  0  0  0  0  0  0  0999 V2000
    7.1270   -3.2810   19.2250 C   0  0  0  0  0  0  0  0  0  0  0  0
    6.3370   -4.0050   20.2150 C   0  0  0  0  0  0  0  0  0  0  0  0
    5.2560   -4.5010   19.8640 O   0  0  0  0  0  0  0  0  0  0  0  0
    6.8420   -4.1740   21.5230 N   0  0  0  0  0  0  0  0  0  0  0  0
    6.4830   -5.3370   22.2730 C   0  0  0  0  0  0  0  0  0  0  0  0
    5.7100   -4.9010   23.4790 C   0  0  0  0  0  0  0  0  0  0  0  0
    6.5700   -3.8680   24.1710 C   0  0  0  0  0  0  0  0  0  0  0  0
    5.8160   -3.2400   25.3030 C   0  0  0  0  0  0  0  0  0  0  0  0
    4.6690   -2.8700   25.0550 O   0  0  0  0  0  0  0  0  0  0  0  0
    6.4550   -3.1110   26.5380 N   0  0  0  0  0  0  0  0  0  0  0  0
    6.1160   -3.8730   27.7020 C   0  0  0  0  0  0  0  0  0  0  0  0
    5.2530   -4.9690   27.5080 C   0  0  0  0  0  0  0  0  0  0  0  0
    4.8780   -5.1890   26.3410 O   0  0  0  0  0  0  0  0  0  0  0  0
    5.7140   -6.2050   27.8680 C   0  0  0  0  0  0  0  0  0  0  0  0
    5.3790   -6.9470   29.0310 C   0  0  0  0  0  0  0  0  0  0  0  0
    6.6430   -6.1740   29.0800 C   0  0  0  0  0  0  0  0  0  0  0  0
    4.0380   -4.9520   28.2030 C   0  0  0  0  0  0  0  0  0  0  0  0
    3.0860   -5.9200   28.1210 C   0  0  0  0  0  0  0  0  0  0  0  0
    2.6540   -4.4630   27.7090 C   0  0  0  0  0  0  0  0  0  0  0  0
    7.0840   -2.7670   23.3460 C   0  0  0  0  0  0  0  0  0  0  0  0
    7.6630   -3.1740   22.1740 C   0  0  0  0  0  0  0  0  0  0  0  0
  1  2  1  0
  2  3  2  0
  2  4  1  0
  4  5  1  0
  5  6  1  0
  6  7  1  0
  7  8  1  0
  8  9  2  0
  8 10  1  0
 10 11  1  0
 11 12  1  0
 12 13  1  0
 12 14  1  0
 14 15  1  0
 14 16  1  0
 15 16  1  0
 12 17  1  0
 17 18  1  0
 17 19  1  0
 18 19  1  0
  7 20  1  0
  4 21  1  0
 20 21  1  0
M  END
