piperidine-amides-34857-covalent
     RDKit          3D

 32 35  0  0  0  0  0  0  0  0999 V2000
    7.0660   -3.3470   19.2910 C   0  0  0  0  0  0  0  0  0  0  0  0
    6.3590   -4.1550   20.3090 C   0  0  0  0  0  0  0  0  0  0  0  0
    5.3390   -4.7430   19.9520 O   0  0  0  0  0  0  0  0  0  0  0  0
    6.8840   -4.2600   21.5950 N   0  0  0  0  0  0  0  0  0  0  0  0
    7.6760   -3.2110   22.1790 C   0  0  0  0  0  0  0  0  0  0  0  0
    6.9760   -2.6870   23.3930 C   0  0  0  0  0  0  0  0  0  0  0  0
    6.5220   -3.8630   24.2520 C   0  0  0  0  0  0  0  0  0  0  0  0
    5.6720   -3.3270   25.3410 C   0  0  0  0  0  0  0  0  0  0  0  0
    4.5190   -2.9770   25.0610 O   0  0  0  0  0  0  0  0  0  0  0  0
    6.1100   -3.1960   26.6810 N   0  0  0  0  0  0  0  0  0  0  0  0
    6.1980   -1.8220   27.1750 C   0  0  0  0  0  0  0  0  0  0  0  0
    6.8830   -1.6760   28.5470 C   0  0  0  0  0  0  0  0  0  0  0  0
    7.0700   -0.4710   29.2390 C   0  0  0  0  0  0  0  0  0  0  0  0
    6.6080    0.6700   28.6520 C   0  0  0  0  0  0  0  0  0  0  0  0
    6.0490    0.4830   27.4940 C   0  0  0  0  0  0  0  0  0  0  0  0
    5.7520   -0.6610   26.5930 C   0  0  0  0  0  0  0  0  0  0  0  0
    5.4380    1.3510   26.5240 C   0  0  0  0  0  0  0  0  0  0  0  0
    4.9980    2.5800   27.3440 C   0  0  0  0  0  0  0  0  0  0  0  0
    6.1700    2.9980   28.2300 C   0  0  0  0  0  0  0  0  0  0  0  0
    6.6440    4.3110   28.0860 O   0  0  0  0  0  0  0  0  0  0  0  0
    6.6520    2.0060   29.1160 N   0  0  0  0  0  0  0  0  0  0  0  0
    5.4540   -3.9300   27.7990 C   0  0  0  0  0  0  0  0  0  0  0  0
    6.3190   -5.0540   28.3470 C   0  0  0  0  0  0  0  0  0  0  0  0
    5.6160   -5.9760   29.2690 C   0  0  0  0  0  0  0  0  0  0  0  0
    4.3900   -6.3320   28.8620 N   0  0  0  0  0  0  0  0  0  0  0  0
    3.8640   -7.3020   29.8060 C   0  0  0  0  0  0  0  0  0  0  0  0
    4.6850   -7.8230   30.8260 N   0  0  0  0  0  0  0  0  0  0  0  0
    2.5370   -7.7030   29.7000 O   0  0  0  0  0  0  0  0  0  0  0  0
    3.4390   -5.3260   28.3560 C   0  0  0  0  0  0  0  0  0  0  0  0
    4.2160   -4.4140   27.4200 C   0  0  0  0  0  0  0  0  0  0  0  0
    5.6840   -4.9140   23.4980 C   0  0  0  0  0  0  0  0  0  0  0  0
    6.5540   -5.4320   22.3610 C   0  0  0  0  0  0  0  0  0  0  0  0
  1  2  1  0
  2  3  2  0
  2  4  1  0
  4  5  1  0
  5  6  1  0
  6  7  1  0
  7  8  1  0
  8  9  2  0
  8 10  1  0
 10 11  1  0
 11 12  2  0
 12 13  1  0
 13 14  2  0
 14 15  1  0
 11 16  1  0
 15 16  2  0
 15 17  1  0
 17 18  1  0
 18 19  1  0
 19 20  2  0
 14 21  1  0
 19 21  1  0
 10 22  1  0
 22 23  1  0
 23 24  1  0
 24 25  1  0
 25 26  1  0
 26 27  1  0
 26 28  2  0
 25 29  1  0
 22 30  1  0
 29 30  1  0
  7 31  1  0
  4 32  1  0
 31 32  1  0
M  END
