piperidine-amides-35133-covalent
     RDKit          3D

 32 33  0  0  0  0  0  0  0  0999 V2000
    7.0780   -3.3260   19.2670 C   0  0  0  0  0  0  0  0  0  0  0  0
    6.3990   -4.1610   20.2860 C   0  0  0  0  0  0  0  0  0  0  0  0
    5.3560   -4.7230   19.9490 O   0  0  0  0  0  0  0  0  0  0  0  0
    6.9770   -4.3280   21.5460 N   0  0  0  0  0  0  0  0  0  0  0  0
    7.7280   -3.2850   22.1830 C   0  0  0  0  0  0  0  0  0  0  0  0
    6.9340   -2.7600   23.3340 C   0  0  0  0  0  0  0  0  0  0  0  0
    6.3320   -3.9130   24.1490 C   0  0  0  0  0  0  0  0  0  0  0  0
    5.2580   -3.3270   24.9700 C   0  0  0  0  0  0  0  0  0  0  0  0
    4.0800   -3.5070   24.6560 O   0  0  0  0  0  0  0  0  0  0  0  0
    5.5320   -2.5550   26.0950 N   0  0  0  0  0  0  0  0  0  0  0  0
    5.8480   -3.2290   27.3230 C   0  0  0  0  0  0  0  0  0  0  0  0
    6.3790   -4.5430   26.8890 C   0  0  0  0  0  0  0  0  0  0  0  0
    5.5300   -5.6360   26.9110 O   0  0  0  0  0  0  0  0  0  0  0  0
    7.6640   -4.5700   26.5060 O   0  0  0  0  0  0  0  0  0  0  0  0
    8.3980   -5.3290   27.3100 C   0  0  0  0  0  0  0  0  0  0  0  0
    7.7740   -6.0580   28.2410 C   0  0  0  0  0  0  0  0  0  0  0  0
    9.4500   -4.5670   28.0160 C   0  0  0  0  0  0  0  0  0  0  0  0
    9.2350   -6.1190   26.3750 C   0  0  0  0  0  0  0  0  0  0  0  0
    5.8030   -1.1860   25.9660 C   0  0  2  0  0  0  0  0  0  0  0  0
    6.6680   -0.5010   26.8800 C   0  0  0  0  0  0  0  0  0  0  0  0
    5.8210    0.5520   27.4730 C   0  0  0  0  0  0  0  0  0  0  0  0
    4.8600    0.8320   26.4860 N   0  0  0  0  0  0  0  0  0  0  0  0
    4.3610    2.1580   26.3820 C   0  0  0  0  0  0  0  0  0  0  0  0
    3.6650    2.6090   25.2650 O   0  0  0  0  0  0  0  0  0  0  0  0
    4.4980    3.1300   27.3390 O   0  0  0  0  0  0  0  0  0  0  0  0
    4.6110    4.5040   27.0840 C   0  0  0  0  0  0  0  0  0  0  0  0
    5.2910    5.1410   28.2400 C   0  0  0  0  0  0  0  0  0  0  0  0
    3.3860    5.0490   26.7000 C   0  0  0  0  0  0  0  0  0  0  0  0
    5.5180    4.7170   25.8960 C   0  0  0  0  0  0  0  0  0  0  0  0
    4.5510   -0.3520   25.9540 C   0  0  0  0  0  0  0  0  0  0  0  0
    5.6490   -5.0390   23.3480 C   0  0  0  0  0  0  0  0  0  0  0  0
    6.6340   -5.5060   22.2940 C   0  0  0  0  0  0  0  0  0  0  0  0
  1  2  1  0
  2  3  2  0
  2  4  1  0
  4  5  1  0
  5  6  1  0
  6  7  1  0
  7  8  1  0
  8  9  2  0
  8 10  1  0
 10 11  1  0
 11 12  1  0
 12 13  2  0
 12 14  1  0
 15 14  1  0
 15 16  1  0
 15 17  1  0
 15 18  1  0
 19 10  1  1
 19 20  1  0
 20 21  1  0
 21 22  1  0
 22 23  1  0
 23 24  2  0
 23 25  1  0
 26 25  1  0
 26 27  1  0
 26 28  1  0
 26 29  1  0
 19 30  1  0
 22 30  1  0
  7 31  1  0
  4 32  1  0
 31 32  1  0
M  END
