piperidine-amides-11468-covalent
     RDKit          3D

 25 27  0  0  0  0  0  0  0  0999 V2000
    7.0720   -3.3420   19.3210 C   0  0  0  0  0  0  0  0  0  0  0  0
    6.3830   -4.1830   20.2990 C   0  0  0  0  0  0  0  0  0  0  0  0
    5.3380   -4.7570   19.9600 O   0  0  0  0  0  0  0  0  0  0  0  0
    6.9060   -4.4130   21.5860 N   0  0  0  0  0  0  0  0  0  0  0  0
    6.5770   -5.5840   22.3540 C   0  0  0  0  0  0  0  0  0  0  0  0
    5.8920   -5.0480   23.5820 C   0  0  0  0  0  0  0  0  0  0  0  0
    6.5900   -3.8410   24.1500 C   0  0  0  0  0  0  0  0  0  0  0  0
    5.8510   -3.2630   25.2960 C   0  0  0  0  0  0  0  0  0  0  0  0
    4.6250   -2.9630   25.1830 O   0  0  0  0  0  0  0  0  0  0  0  0
    6.4490   -3.0370   26.5500 N   0  0  0  0  0  0  0  0  0  0  0  0
    6.4380   -1.7030   27.1840 C   0  0  0  0  0  0  0  0  0  0  0  0
    7.0020   -1.6620   28.5560 C   0  0  0  0  0  0  0  0  0  0  0  0
    7.0630   -0.4200   29.3410 C   0  0  0  0  0  0  0  0  0  0  0  0
    6.5450    0.8630   28.7590 C   0  0  0  0  0  0  0  0  0  0  0  0
    5.9730    0.8400   27.3670 C   0  0  0  0  0  0  0  0  0  0  0  0
    5.4690    2.1170   26.7970 C   0  0  2  0  0  0  0  0  0  0  0  0
    4.5430    2.9150   27.4180 C   0  0  0  0  0  0  0  0  0  0  0  0
    4.0450    1.9300   26.3470 C   0  0  0  0  0  0  0  0  0  0  0  0
    3.8460    2.4050   25.0690 O   0  0  0  0  0  0  0  0  0  0  0  0
    5.0830    2.8690   24.5710 C   0  0  0  0  0  0  0  0  0  0  0  0
    5.3090    3.3940   23.4530 O   0  0  0  0  0  0  0  0  0  0  0  0
    5.9890    2.6320   25.5600 N   0  0  0  0  0  0  0  0  0  0  0  0
    5.9140   -0.4420   26.5690 C   0  0  0  0  0  0  0  0  0  0  0  0
    6.8180   -2.8090   23.0350 C   0  0  0  0  0  0  0  0  0  0  0  0
    7.5800   -3.2990   22.2490 C   0  0  0  0  0  0  0  0  0  0  0  0
  1  2  1  0
  2  3  2  0
  2  4  1  0
  4  5  1  0
  5  6  1  0
  6  7  1  0
  7  8  1  0
  8  9  2  0
  8 10  1  0
 10 11  1  0
 11 12  2  0
 12 13  1  0
 13 14  2  0
 14 15  1  0
 15 16  1  0
 16 17  1  1
 16 18  1  0
 18 19  1  0
 19 20  1  0
 20 21  2  0
 16 22  1  0
 20 22  1  0
 11 23  1  0
 15 23  2  0
  7 24  1  0
  4 25  1  0
 24 25  1  0
M  END
