piperidine-amides-858-covalent
     RDKit          3D

 25 27  0  0  0  0  0  0  0  0999 V2000
    7.1780   -3.3250   19.3930 C   0  0  0  0  0  0  0  0  0  0  0  0
    6.4790   -4.1470   20.3460 C   0  0  0  0  0  0  0  0  0  0  0  0
    5.4230   -4.7590   19.9710 O   0  0  0  0  0  0  0  0  0  0  0  0
    6.9780   -4.3230   21.6500 N   0  0  0  0  0  0  0  0  0  0  0  0
    6.6710   -5.5770   22.3490 C   0  0  0  0  0  0  0  0  0  0  0  0
    5.6590   -4.9800   23.3820 C   0  0  0  0  0  0  0  0  0  0  0  0
    6.4210   -3.9220   24.1560 C   0  0  0  0  0  0  0  0  0  0  0  0
    5.5520   -3.6090   25.4440 C   0  0  0  0  0  0  0  0  0  0  0  0
    4.5340   -4.2770   25.4030 O   0  0  0  0  0  0  0  0  0  0  0  0
    6.0690   -2.7430   26.2140 N   0  0  0  0  0  0  0  0  0  0  0  0
    6.3640   -1.7910   27.1310 C   0  0  0  0  0  0  0  0  0  0  0  0
    6.9890   -1.5960   28.3610 C   0  0  0  0  0  0  0  0  0  0  0  0
    7.1210   -0.3960   29.1330 C   0  0  0  0  0  0  0  0  0  0  0  0
    6.6240    0.9620   28.8210 C   0  0  0  0  0  0  0  0  0  0  0  0
    5.9650    0.7080   27.4920 C   0  0  0  0  0  0  0  0  0  0  0  0
    5.4990    1.9960   27.2060 C   0  0  0  0  0  0  0  0  0  0  0  0
    4.1750    2.1800   27.6500 N   0  0  0  0  0  0  0  0  0  0  0  0
    3.7650    2.0200   29.0340 C   0  0  0  0  0  0  0  0  0  0  0  0
    2.2380    2.1140   29.0410 C   0  0  0  0  0  0  0  0  0  0  0  0
    1.8810    3.2460   28.6580 O   0  0  0  0  0  0  0  0  0  0  0  0
    2.0750    3.3490   27.2860 C   0  0  0  0  0  0  0  0  0  0  0  0
    3.4330    3.2680   27.1000 C   0  0  0  0  0  0  0  0  0  0  0  0
    5.8420   -0.4220   26.7680 C   0  0  0  0  0  0  0  0  0  0  0  0
    6.9010   -2.7340   23.3360 C   0  0  0  0  0  0  0  0  0  0  0  0
    7.6920   -3.2750   22.3490 C   0  0  0  0  0  0  0  0  0  0  0  0
  1  2  1  0
  2  3  2  0
  2  4  1  0
  4  5  1  0
  5  6  1  0
  6  7  1  0
  7  8  1  0
  8  9  2  0
  8 10  1  0
 10 11  1  0
 11 12  2  0
 12 13  1  0
 13 14  2  0
 14 15  1  0
 15 16  1  0
 16 17  1  0
 17 18  1  0
 18 19  1  0
 19 20  1  0
 20 21  1  0
 17 22  1  0
 21 22  1  0
 11 23  1  0
 15 23  2  0
  7 24  1  0
  4 25  1  0
 24 25  1  0
M  END
