piperidine-amides-2823-covalent
     RDKit          3D

 24 26  0  0  0  0  0  0  0  0999 V2000
    7.1140   -3.2770   19.1380 C   0  0  0  0  0  0  0  0  0  0  0  0
    6.3460   -4.0030   20.1460 C   0  0  0  0  0  0  0  0  0  0  0  0
    5.2580   -4.4930   19.8590 O   0  0  0  0  0  0  0  0  0  0  0  0
    6.8860   -4.2050   21.4550 N   0  0  0  0  0  0  0  0  0  0  0  0
    7.6670   -3.1770   22.0880 C   0  0  0  0  0  0  0  0  0  0  0  0
    6.9290   -2.6400   23.2700 C   0  0  0  0  0  0  0  0  0  0  0  0
    6.5690   -3.8220   24.1420 C   0  0  0  0  0  0  0  0  0  0  0  0
    5.7690   -3.3440   25.2910 C   0  0  0  0  0  0  0  0  0  0  0  0
    4.5710   -3.0120   25.2020 O   0  0  0  0  0  0  0  0  0  0  0  0
    6.4260   -3.2610   26.5300 N   0  0  0  0  0  0  0  0  0  0  0  0
    5.7420   -3.6780   27.7230 C   0  0  2  0  0  0  0  0  0  0  0  0
    6.7300   -3.6720   28.8370 C   0  0  0  0  0  0  0  0  0  0  0  0
    5.1660   -5.0440   27.6650 C   0  0  0  0  0  0  0  0  0  0  0  0
    5.0940   -5.6450   28.9300 C   0  0  0  0  0  0  0  0  0  0  0  0
    5.9830   -6.6430   29.3300 C   0  0  0  0  0  0  0  0  0  0  0  0
    5.8420   -7.2240   30.6450 C   0  0  0  0  0  0  0  0  0  0  0  0
    4.8950   -6.8510   31.5190 C   0  0  0  0  0  0  0  0  0  0  0  0
    4.0210   -5.8750   31.1450 C   0  0  0  0  0  0  0  0  0  0  0  0
    4.1190   -5.2840   29.8720 C   0  0  0  0  0  0  0  0  0  0  0  0
    3.9450   -5.4150   27.0850 C   0  0  0  0  0  0  0  0  0  0  0  0
    4.3730   -6.2780   26.1540 C   0  0  0  0  0  0  0  0  0  0  0  0
    5.5940   -5.9330   26.6200 C   0  0  0  0  0  0  0  0  0  0  0  0
    5.7480   -4.8530   23.3980 C   0  0  0  0  0  0  0  0  0  0  0  0
    6.5580   -5.3780   22.2120 C   0  0  0  0  0  0  0  0  0  0  0  0
  1  2  1  0
  2  3  2  0
  2  4  1  0
  4  5  1  0
  5  6  1  0
  6  7  1  0
  7  8  1  0
  8  9  2  0
  8 10  1  0
 10 11  1  0
 11 12  1  1
 11 13  1  0
 13 14  1  0
 14 15  2  0
 15 16  1  0
 16 17  2  0
 17 18  1  0
 14 19  1  0
 18 19  2  0
 13 20  1  0
 20 21  1  0
 13 22  1  0
 21 22  1  0
  7 23  1  0
  4 24  1  0
 23 24  1  0
M  END
