piperidine-amides-25481-covalent
     RDKit          3D

 25 27  0  0  0  0  0  0  0  0999 V2000
    6.9830   -3.3540   19.3680 C   0  0  0  0  0  0  0  0  0  0  0  0
    6.3110   -4.2290   20.3650 C   0  0  0  0  0  0  0  0  0  0  0  0
    5.3480   -4.8790   19.9760 O   0  0  0  0  0  0  0  0  0  0  0  0
    6.7940   -4.3230   21.6740 N   0  0  0  0  0  0  0  0  0  0  0  0
    6.5540   -5.4870   22.4930 C   0  0  0  0  0  0  0  0  0  0  0  0
    5.8400   -5.1050   23.7710 C   0  0  0  0  0  0  0  0  0  0  0  0
    5.8850   -3.5880   23.9880 C   0  0  0  0  0  0  0  0  0  0  0  0
    5.4230   -3.2510   25.3660 C   0  0  0  0  0  0  0  0  0  0  0  0
    4.2050   -3.1870   25.5570 O   0  0  0  0  0  0  0  0  0  0  0  0
    6.2940   -3.0010   26.4690 N   0  0  0  0  0  0  0  0  0  0  0  0
    6.5660   -4.1410   27.3290 C   0  0  0  0  0  0  0  0  0  0  0  0
    6.6420   -1.6350   26.8380 C   0  0  2  0  0  0  0  0  0  0  0  0
    7.0630   -1.5560   28.1380 C   0  0  0  0  0  0  0  0  0  0  0  0
    6.2760   -0.7440   28.7510 C   0  0  0  0  0  0  0  0  0  0  0  0
    5.1950   -0.5250   27.8620 N   0  0  0  0  0  0  0  0  0  0  0  0
    4.2640    0.5300   28.2020 C   0  0  0  0  0  0  0  0  0  0  0  0
    4.8200    1.9390   28.3940 C   0  0  0  0  0  0  0  0  0  0  0  0
    3.7550    2.9400   28.7490 C   0  0  0  0  0  0  0  0  0  0  0  0
    2.3110    2.5410   28.8870 C   0  0  0  0  0  0  0  0  0  0  0  0
    1.9430    1.1180   28.6640 C   0  0  0  0  0  0  0  0  0  0  0  0
    2.8600    0.0030   28.3090 C   0  0  0  0  0  0  0  0  0  0  0  0
    5.6700   -0.4360   26.4860 C   0  0  0  0  0  0  0  0  0  0  0  0
    4.7230    0.5810   26.4880 O   0  0  0  0  0  0  0  0  0  0  0  0
    7.2840   -3.1450   23.7280 C   0  0  0  0  0  0  0  0  0  0  0  0
    7.5620   -3.2500   22.2590 C   0  0  0  0  0  0  0  0  0  0  0  0
  1  2  1  0
  2  3  2  0
  2  4  1  0
  4  5  1  0
  5  6  1  0
  6  7  1  0
  7  8  1  0
  8  9  2  0
  8 10  1  0
 10 11  1  0
 12 10  1  1
 12 13  1  0
 13 14  1  0
 14 15  1  0
 15 16  1  0
 16 17  2  0
 17 18  1  0
 18 19  2  0
 19 20  1  0
 16 21  1  0
 20 21  2  0
 12 22  1  0
 15 22  1  0
 22 23  2  0
  7 24  1  0
  4 25  1  0
 24 25  1  0
M  END
