piperidine-amides-24346-covalent
     RDKit          3D

 24 25  0  0  0  0  0  0  0  0999 V2000
    7.0870   -3.3240   19.3240 C   0  0  0  0  0  0  0  0  0  0  0  0
    6.3990   -4.1840   20.2990 C   0  0  0  0  0  0  0  0  0  0  0  0
    5.3710   -4.8170   19.9710 O   0  0  0  0  0  0  0  0  0  0  0  0
    6.9200   -4.3400   21.5890 N   0  0  0  0  0  0  0  0  0  0  0  0
    6.6670   -5.5920   22.2860 C   0  0  0  0  0  0  0  0  0  0  0  0
    6.3680   -5.2780   23.7680 C   0  0  0  0  0  0  0  0  0  0  0  0
    6.2740   -3.7780   23.8640 C   0  0  0  0  0  0  0  0  0  0  0  0
    5.8410   -3.2840   25.1750 C   0  0  0  0  0  0  0  0  0  0  0  0
    5.0330   -2.3340   25.1420 O   0  0  0  0  0  0  0  0  0  0  0  0
    6.2290   -3.8200   26.4260 N   0  0  0  0  0  0  0  0  0  0  0  0
    7.6020   -3.8980   26.8930 C   0  0  0  0  0  0  0  0  0  0  0  0
    8.4820   -4.3520   25.7410 C   0  0  0  0  0  0  0  0  0  0  0  0
    7.9460   -2.5020   27.2790 C   0  0  0  0  0  0  0  0  0  0  0  0
    7.7770   -4.8080   28.0450 C   0  0  0  0  0  0  0  0  0  0  0  0
    6.6270   -5.2710   28.7010 C   0  0  0  0  0  0  0  0  0  0  0  0
    6.8470   -5.9770   29.8200 O   0  0  0  0  0  0  0  0  0  0  0  0
    5.7890   -6.1080   28.0010 C   0  0  0  0  0  0  0  0  0  0  0  0
    4.6860   -6.7610   28.4450 N   0  0  0  0  0  0  0  0  0  0  0  0
    5.8140   -4.0000   28.8650 C   0  0  0  0  0  0  0  0  0  0  0  0
    5.4340   -3.4280   27.5560 C   0  0  0  0  0  0  0  0  0  0  0  0
    3.9850   -3.2850   27.1990 C   0  0  0  0  0  0  0  0  0  0  0  0
    4.8370   -2.0240   27.4990 C   0  0  0  0  0  0  0  0  0  0  0  0
    7.5650   -3.1530   23.4700 C   0  0  0  0  0  0  0  0  0  0  0  0
    7.7100   -3.2780   22.1390 C   0  0  0  0  0  0  0  0  0  0  0  0
  1  2  1  0
  2  3  2  0
  2  4  1  0
  4  5  1  0
  5  6  1  0
  6  7  1  0
  7  8  1  0
  8  9  2  0
  8 10  1  0
 10 11  1  0
 11 12  1  0
 11 13  1  0
 11 14  1  0
 14 15  1  0
 15 16  1  0
 15 17  1  0
 17 18  3  0
 15 19  1  0
 10 20  1  0
 19 20  1  0
 20 21  1  0
 20 22  1  0
  7 23  1  0
  4 24  1  0
 23 24  1  0
M  END
