piperidine-amides-9323-covalent
     RDKit          3D

 19 20  0  0  0  0  0  0  0  0999 V2000
    7.1340   -3.2670   19.2030 C   0  0  0  0  0  0  0  0  0  0  0  0
    6.3700   -3.9870   20.2230 C   0  0  0  0  0  0  0  0  0  0  0  0
    5.3230   -4.5720   19.9030 O   0  0  0  0  0  0  0  0  0  0  0  0
    6.8360   -4.0590   21.5460 N   0  0  0  0  0  0  0  0  0  0  0  0
    7.7970   -3.1090   22.0730 C   0  0  0  0  0  0  0  0  0  0  0  0
    7.4000   -2.8690   23.4900 C   0  0  0  0  0  0  0  0  0  0  0  0
    6.0100   -3.3530   23.7340 C   0  0  0  0  0  0  0  0  0  0  0  0
    5.5050   -2.9080   25.0450 C   0  0  0  0  0  0  0  0  0  0  0  0
    4.3920   -3.3210   25.4870 O   0  0  0  0  0  0  0  0  0  0  0  0
    6.2190   -1.9960   25.8550 N   0  0  0  0  0  0  0  0  0  0  0  0
    6.4100   -2.3220   27.2670 C   0  0  0  0  0  0  0  0  0  0  0  0
    6.6360   -3.7550   27.2790 C   0  0  2  0  0  0  0  0  0  0  0  0
    6.7340   -4.3540   28.5720 C   0  0  0  0  0  0  0  0  0  0  0  0
    8.0700   -4.7380   28.1160 C   0  0  1  0  0  0  0  0  0  0  0  0
    8.1620   -6.0850   27.4810 C   0  0  0  0  0  0  0  0  0  0  0  0
    9.3520   -6.1020   26.6030 C   0  0  0  0  0  0  0  0  0  0  0  0
    7.8470   -4.1310   26.7140 C   0  0  0  0  0  0  0  0  0  0  0  0
    5.9180   -4.8590   23.6010 C   0  0  0  0  0  0  0  0  0  0  0  0
    6.6110   -5.2700   22.3160 C   0  0  0  0  0  0  0  0  0  0  0  0
  1  2  1  0
  2  3  2  0
  2  4  1  0
  4  5  1  0
  5  6  1  0
  6  7  1  0
  7  8  1  0
  8  9  2  0
  8 10  1  0
 10 11  1  0
 12 11  1  1
 12 13  1  0
 13 14  1  0
 14 15  1  6
 15 16  1  0
 12 17  1  0
 14 17  1  0
  7 18  1  0
  4 19  1  0
 18 19  1  0
M  END
