piperidine-amides-4498-covalent
     RDKit          3D

 25 26  0  0  0  0  0  0  0  0999 V2000
    7.0850   -3.2790   19.2620 C   0  0  0  0  0  0  0  0  0  0  0  0
    6.3610   -4.0640   20.2900 C   0  0  0  0  0  0  0  0  0  0  0  0
    5.3140   -4.6280   19.9180 O   0  0  0  0  0  0  0  0  0  0  0  0
    6.8620   -4.1890   21.6010 N   0  0  0  0  0  0  0  0  0  0  0  0
    6.5800   -5.3640   22.3590 C   0  0  0  0  0  0  0  0  0  0  0  0
    6.0130   -5.0560   23.6690 C   0  0  0  0  0  0  0  0  0  0  0  0
    6.0080   -3.6100   23.9620 C   0  0  0  0  0  0  0  0  0  0  0  0
    5.5770   -3.3130   25.3550 C   0  0  0  0  0  0  0  0  0  0  0  0
    4.3760   -3.0510   25.5350 O   0  0  0  0  0  0  0  0  0  0  0  0
    6.4670   -3.3120   26.4470 N   0  0  0  0  0  0  0  0  0  0  0  0
    6.1760   -3.9870   27.7410 C   0  0  0  0  0  0  0  0  0  0  0  0
    6.1480   -5.4860   27.6640 C   0  0  0  0  0  0  0  0  0  0  0  0
    4.9940   -6.1810   28.2300 C   0  0  0  0  0  0  0  0  0  0  0  0
    4.7270   -6.0730   29.5800 C   0  0  0  0  0  0  0  0  0  0  0  0
    5.6420   -6.1500   30.4220 O   0  0  0  0  0  0  0  0  0  0  0  0
    3.4410   -5.8830   29.9860 O   0  0  0  0  0  0  0  0  0  0  0  0
    3.0150   -4.7450   30.7350 C   0  0  0  0  0  0  0  0  0  0  0  0
    2.3770   -5.0870   31.8870 C   0  0  0  0  0  0  0  0  0  0  0  0
    1.1710   -5.7210   31.7990 C   0  0  0  0  0  0  0  0  0  0  0  0
    0.4620   -6.1010   32.9010 C   0  0  0  0  0  0  0  0  0  0  0  0
    0.9670   -5.8430   34.1770 C   0  0  0  0  0  0  0  0  0  0  0  0
    2.2620   -5.1620   34.3940 C   0  0  0  0  0  0  0  0  0  0  0  0
    2.9440   -4.7960   33.1010 C   0  0  0  0  0  0  0  0  0  0  0  0
    7.3610   -2.9930   23.5830 C   0  0  0  0  0  0  0  0  0  0  0  0
    7.6810   -3.1470   22.2110 C   0  0  0  0  0  0  0  0  0  0  0  0
  1  2  1  0
  2  3  2  0
  2  4  1  0
  4  5  1  0
  5  6  1  0
  6  7  1  0
  7  8  1  0
  8  9  2  0
  8 10  1  0
 10 11  1  0
 11 12  1  0
 12 13  1  0
 13 14  1  0
 14 15  2  0
 14 16  1  0
 16 17  1  0
 17 18  1  0
 18 19  2  0
 19 20  1  0
 20 21  2  0
 21 22  1  0
 18 23  1  0
 22 23  2  0
  7 24  1  0
  4 25  1  0
 24 25  1  0
M  END
