piperidine-amides-15018-covalent
     RDKit          3D

 20 22  0  0  0  0  0  0  0  0999 V2000
    7.1200   -3.3510   19.2970 C   0  0  0  0  0  0  0  0  0  0  0  0
    6.3870   -4.1550   20.2630 C   0  0  0  0  0  0  0  0  0  0  0  0
    5.2940   -4.6340   19.9180 O   0  0  0  0  0  0  0  0  0  0  0  0
    6.9650   -4.4260   21.5220 N   0  0  0  0  0  0  0  0  0  0  0  0
    7.6760   -3.3630   22.1780 C   0  0  0  0  0  0  0  0  0  0  0  0
    6.7930   -2.7680   23.2220 C   0  0  0  0  0  0  0  0  0  0  0  0
    6.5460   -3.8530   24.2440 C   0  0  0  0  0  0  0  0  0  0  0  0
    5.7860   -3.2940   25.3970 C   0  0  0  0  0  0  0  0  0  0  0  0
    4.5730   -3.4970   25.4110 O   0  0  0  0  0  0  0  0  0  0  0  0
    6.4970   -2.5930   26.3570 N   0  0  0  0  0  0  0  0  0  0  0  0
    6.2480   -1.2170   26.6540 C   0  0  0  0  0  0  0  0  0  0  0  0
    6.1560   -0.2060   25.6700 C   0  0  2  0  0  0  0  0  0  0  0  0
    5.9140    1.0880   26.1050 C   0  0  0  0  0  0  0  0  0  0  0  0
    4.8360    1.6290   25.4430 C   0  0  0  0  0  0  0  0  0  0  0  0
    4.1790    0.6060   24.8000 O   0  0  0  0  0  0  0  0  0  0  0  0
    4.8790   -0.5760   24.8860 C   0  0  0  0  0  0  0  0  0  0  0  0
    5.4770   -1.1010   27.9240 C   0  0  0  0  0  0  0  0  0  0  0  0
    6.7460   -0.7680   28.0180 C   0  0  0  0  0  0  0  0  0  0  0  0
    5.9000   -5.0420   23.6280 C   0  0  0  0  0  0  0  0  0  0  0  0
    6.4170   -5.5240   22.2680 C   0  0  0  0  0  0  0  0  0  0  0  0
  1  2  1  0
  2  3  2  0
  2  4  1  0
  4  5  1  0
  5  6  1  0
  6  7  1  0
  7  8  1  0
  8  9  2  0
  8 10  1  0
 11 10  1  0
 12 11  1  1
 12 13  1  0
 13 14  1  0
 14 15  1  0
 12 16  1  0
 15 16  1  0
 11 17  1  0
 11 18  1  0
 17 18  1  0
  7 19  1  0
  4 20  1  0
 19 20  1  0
M  END
