piperidine-amides-12421-covalent
     RDKit          3D

 24 25  0  0  0  0  0  0  0  0999 V2000
    7.0840   -3.2710   19.1500 C   0  0  0  0  0  0  0  0  0  0  0  0
    6.3050   -4.0000   20.1460 C   0  0  0  0  0  0  0  0  0  0  0  0
    5.2170   -4.4790   19.8470 O   0  0  0  0  0  0  0  0  0  0  0  0
    6.8230   -4.2300   21.4570 N   0  0  0  0  0  0  0  0  0  0  0  0
    7.5640   -3.2160   22.1410 C   0  0  0  0  0  0  0  0  0  0  0  0
    6.7450   -2.6730   23.2770 C   0  0  0  0  0  0  0  0  0  0  0  0
    5.8360   -3.7590   23.8590 C   0  0  0  0  0  0  0  0  0  0  0  0
    5.7300   -3.6050   25.3300 C   0  0  0  0  0  0  0  0  0  0  0  0
    4.7180   -3.1220   25.8820 O   0  0  0  0  0  0  0  0  0  0  0  0
    6.8380   -4.0330   26.1020 N   0  0  0  0  0  0  0  0  0  0  0  0
    6.6380   -4.4530   27.4660 C   0  0  0  0  0  0  0  0  0  0  0  0
    7.7370   -5.4300   27.7910 C   0  0  0  0  0  0  0  0  0  0  0  0
    9.0460   -5.0250   27.7470 C   0  0  0  0  0  0  0  0  0  0  0  0
    9.6680   -4.6520   26.5620 C   0  0  0  0  0  0  0  0  0  0  0  0
    9.3720   -3.3860   25.9980 N   0  0  0  0  0  0  0  0  0  0  0  0
    9.2080   -3.1860   24.6250 C   0  0  0  0  0  0  0  0  0  0  0  0
    8.5830   -2.6280   26.9380 C   0  0  0  0  0  0  0  0  0  0  0  0
    7.6360   -1.8730   26.2770 C   0  0  0  0  0  0  0  0  0  0  0  0
    6.7220   -1.0370   26.8600 C   0  0  0  0  0  0  0  0  0  0  0  0
    6.6880   -0.8790   28.2210 C   0  0  0  0  0  0  0  0  0  0  0  0
    7.6730   -1.6600   28.9550 C   0  0  0  0  0  0  0  0  0  0  0  0
    8.5890   -2.5100   28.3260 C   0  0  0  0  0  0  0  0  0  0  0  0
    6.3000   -5.1610   23.5780 C   0  0  0  0  0  0  0  0  0  0  0  0
    6.4260   -5.4110   22.1160 C   0  0  0  0  0  0  0  0  0  0  0  0
  1  2  1  0
  2  3  2  0
  2  4  1  0
  4  5  1  0
  5  6  1  0
  6  7  1  0
  7  8  1  0
  8  9  2  0
  8 10  1  0
 10 11  1  0
 11 12  1  0
 12 13  1  0
 13 14  1  0
 14 15  1  0
 15 16  1  0
 15 17  1  0
 17 18  2  0
 18 19  1  0
 19 20  2  0
 20 21  1  0
 17 22  1  0
 21 22  2  0
  7 23  1  0
  4 24  1  0
 23 24  1  0
M  END
