piperidine-amides-31448-covalent
     RDKit          3D

 26 28  0  0  0  0  0  0  0  0999 V2000
    7.0500   -3.3970   19.3160 C   0  0  0  0  0  0  0  0  0  0  0  0
    6.3830   -4.1690   20.3430 C   0  0  0  0  0  0  0  0  0  0  0  0
    5.3790   -4.8570   19.9890 O   0  0  0  0  0  0  0  0  0  0  0  0
    6.8230   -4.2320   21.6860 N   0  0  0  0  0  0  0  0  0  0  0  0
    6.7180   -5.5670   22.3470 C   0  0  0  0  0  0  0  0  0  0  0  0
    6.1700   -5.2120   23.7920 C   0  0  0  0  0  0  0  0  0  0  0  0
    6.4210   -3.7380   23.9520 C   0  0  0  0  0  0  0  0  0  0  0  0
    5.9310   -3.0630   25.2970 C   0  0  0  0  0  0  0  0  0  0  0  0
    5.6470   -1.8970   25.0970 O   0  0  0  0  0  0  0  0  0  0  0  0
    5.9130   -3.8810   26.2520 N   0  0  0  0  0  0  0  0  0  0  0  0
    5.5720   -4.9940   26.9560 C   0  0  0  0  0  0  0  0  0  0  0  0
    5.9380   -5.7800   27.9940 C   0  0  0  0  0  0  0  0  0  0  0  0
    5.7430   -5.0260   29.0990 C   0  0  0  0  0  0  0  0  0  0  0  0
    4.3270   -4.5930   29.3030 C   0  0  0  0  0  0  0  0  0  0  0  0
    3.9370   -5.9120   29.9900 C   0  0  0  0  0  0  0  0  0  0  0  0
    2.5200   -5.7870   30.3380 N   0  0  0  0  0  0  0  0  0  0  0  0
    2.1020   -6.6770   31.3630 C   0  0  0  0  0  0  0  0  0  0  0  0
    0.6840   -6.6760   31.5270 C   0  0  0  0  0  0  0  0  0  0  0  0
    1.1030   -5.2810   32.0830 C   0  0  0  0  0  0  0  0  0  0  0  0
    1.6390   -4.4120   30.7210 S   0  0  0  0  0  0  0  0  0  0  0  0
    2.4550   -3.2320   31.0570 O   0  0  0  0  0  0  0  0  0  0  0  0
    0.5560   -4.2370   29.7070 O   0  0  0  0  0  0  0  0  0  0  0  0
    6.6330   -3.9200   28.7150 C   0  0  0  0  0  0  0  0  0  0  0  0
    6.1810   -3.2920   27.5730 C   0  0  0  0  0  0  0  0  0  0  0  0
    7.7800   -3.2710   23.5120 C   0  0  0  0  0  0  0  0  0  0  0  0
    7.7700   -3.2450   22.1700 C   0  0  0  0  0  0  0  0  0  0  0  0
  1  2  1  0
  2  3  2  0
  2  4  1  0
  4  5  1  0
  5  6  1  0
  6  7  1  0
  7  8  1  0
  8  9  2  0
  8 10  1  0
 10 11  1  0
 11 12  1  0
 12 13  1  0
 13 14  1  0
 14 15  1  0
 15 16  1  0
 16 17  1  0
 17 18  1  0
 18 19  1  0
 20 16  1  0
 19 20  1  0
 20 21  2  0
 20 22  2  0
 13 23  1  0
 10 24  1  0
 23 24  1  0
  7 25  1  0
  4 26  1  0
 25 26  1  0
M  END
