piperidine-amides-8417-covalent
     RDKit          3D

 24 26  0  0  0  0  0  0  0  0999 V2000
    7.0310   -3.3470   19.3550 C   0  0  0  0  0  0  0  0  0  0  0  0
    6.3800   -4.1970   20.3560 C   0  0  0  0  0  0  0  0  0  0  0  0
    5.3960   -4.8620   19.9860 O   0  0  0  0  0  0  0  0  0  0  0  0
    6.8820   -4.2860   21.6800 N   0  0  0  0  0  0  0  0  0  0  0  0
    7.6830   -3.2010   22.1940 C   0  0  0  0  0  0  0  0  0  0  0  0
    7.4990   -3.0440   23.6740 C   0  0  0  0  0  0  0  0  0  0  0  0
    6.1210   -3.5700   23.9950 C   0  0  0  0  0  0  0  0  0  0  0  0
    5.6830   -3.1960   25.3810 C   0  0  0  0  0  0  0  0  0  0  0  0
    4.4780   -3.2670   25.6000 O   0  0  0  0  0  0  0  0  0  0  0  0
    6.6490   -2.8060   26.3050 N   0  0  0  0  0  0  0  0  0  0  0  0
    6.5180   -1.6050   27.0780 C   0  0  0  0  0  0  0  0  0  0  0  0
    6.1430   -0.4390   26.4010 C   0  0  0  0  0  0  0  0  0  0  0  0
    5.9940    0.7490   27.0540 C   0  0  0  0  0  0  0  0  0  0  0  0
    6.2070    0.8180   28.4020 C   0  0  0  0  0  0  0  0  0  0  0  0
    5.9720    2.2240   28.8510 C   0  0  0  0  0  0  0  0  0  0  0  0
    6.5690   -0.2730   29.1350 C   0  0  0  0  0  0  0  0  0  0  0  0
    6.7540   -0.0860   30.6010 C   0  0  0  0  0  0  0  0  0  0  0  0
    8.1400   -0.0370   31.1060 C   0  0  0  0  0  0  0  0  0  0  0  0
    8.1180    0.1830   32.6180 C   0  0  0  0  0  0  0  0  0  0  0  0
    6.3740    0.2660   33.0220 S   0  0  0  0  0  0  0  0  0  0  0  0
    5.6660    0.0500   31.4560 C   0  0  0  0  0  0  0  0  0  0  0  0
    6.7260   -1.4880   28.4430 C   0  0  0  0  0  0  0  0  0  0  0  0
    6.0440   -5.0450   23.8030 C   0  0  0  0  0  0  0  0  0  0  0  0
    6.6460   -5.4580   22.4900 C   0  0  0  0  0  0  0  0  0  0  0  0
  1  2  1  0
  2  3  2  0
  2  4  1  0
  4  5  1  0
  5  6  1  0
  6  7  1  0
  7  8  1  0
  8  9  2  0
  8 10  1  0
 10 11  1  0
 11 12  2  0
 12 13  1  0
 13 14  2  0
 14 15  1  0
 14 16  1  0
 16 17  1  0
 17 18  1  0
 18 19  2  0
 19 20  1  0
 17 21  2  0
 20 21  1  0
 11 22  1  0
 16 22  2  0
  7 23  1  0
  4 24  1  0
 23 24  1  0
M  END
