piperidine-amides-15361-covalent
     RDKit          3D

 17 18  0  0  0  0  0  0  0  0999 V2000
    7.0580   -3.2800   19.3000 C   0  0  0  0  0  0  0  0  0  0  0  0
    6.3530   -4.1020   20.3000 C   0  0  0  0  0  0  0  0  0  0  0  0
    5.3620   -4.7800   19.9600 O   0  0  0  0  0  0  0  0  0  0  0  0
    6.7960   -4.1740   21.6330 N   0  0  0  0  0  0  0  0  0  0  0  0
    6.7020   -5.4470   22.3180 C   0  0  0  0  0  0  0  0  0  0  0  0
    6.1090   -5.1780   23.7070 C   0  0  0  0  0  0  0  0  0  0  0  0
    6.0200   -3.6800   23.8300 C   0  0  0  0  0  0  0  0  0  0  0  0
    5.4680   -3.3000   25.1500 C   0  0  0  0  0  0  0  0  0  0  0  0
    4.2270   -3.3550   25.2690 O   0  0  0  0  0  0  0  0  0  0  0  0
    6.2560   -2.8900   26.2460 N   0  0  0  0  0  0  0  0  0  0  0  0
    5.9280   -3.4960   27.5190 C   0  0  0  0  0  0  0  0  0  0  0  0
    5.8320   -2.2270   28.2100 C   0  0  0  0  0  0  0  0  0  0  0  0
    6.6920   -2.2220   29.3300 O   0  0  0  0  0  0  0  0  0  0  0  0
    7.5800   -1.2180   29.6040 C   0  0  0  0  0  0  0  0  0  0  0  0
    6.3890   -1.5810   26.9700 C   0  0  0  0  0  0  0  0  0  0  0  0
    7.3090   -2.9810   23.5350 C   0  0  0  0  0  0  0  0  0  0  0  0
    7.6670   -3.1600   22.2160 C   0  0  0  0  0  0  0  0  0  0  0  0
  1  2  1  0
  2  3  2  0
  2  4  1  0
  4  5  1  0
  5  6  1  0
  6  7  1  0
  7  8  1  0
  8  9  2  0
  8 10  1  0
 10 11  1  0
 11 12  1  0
 12 13  1  0
 13 14  1  0
 10 15  1  0
 12 15  1  0
  7 16  1  0
  4 17  1  0
 16 17  1  0
M  END
