piperidine-amides-4351-covalent
     RDKit          3D

 26 28  0  0  0  0  0  0  0  0999 V2000
    7.0990   -3.2980   19.2580 C   0  0  0  0  0  0  0  0  0  0  0  0
    6.3610   -4.0840   20.2610 C   0  0  0  0  0  0  0  0  0  0  0  0
    5.2840   -4.6100   19.9000 O   0  0  0  0  0  0  0  0  0  0  0  0
    6.8760   -4.2850   21.5590 N   0  0  0  0  0  0  0  0  0  0  0  0
    7.6110   -3.2060   22.1380 C   0  0  0  0  0  0  0  0  0  0  0  0
    7.1620   -2.7900   23.4560 C   0  0  0  0  0  0  0  0  0  0  0  0
    6.5370   -3.8660   24.2330 C   0  0  0  0  0  0  0  0  0  0  0  0
    5.7860   -3.3180   25.4110 C   0  0  0  0  0  0  0  0  0  0  0  0
    4.5510   -3.1680   25.3350 O   0  0  0  0  0  0  0  0  0  0  0  0
    6.4470   -2.9730   26.6080 N   0  0  0  0  0  0  0  0  0  0  0  0
    6.4420   -1.7240   27.2850 C   0  0  0  0  0  0  0  0  0  0  0  0
    5.8680   -0.5340   26.6490 C   0  0  0  0  0  0  0  0  0  0  0  0
    5.8490    0.8440   27.3790 C   0  0  0  0  0  0  0  0  0  0  0  0
    6.3630    1.0290   28.6560 C   0  0  0  0  0  0  0  0  0  0  0  0
    6.9190   -0.2720   29.1900 C   0  0  0  0  0  0  0  0  0  0  0  0
    7.4240    0.0540   30.5630 C   0  0  0  0  0  0  0  0  0  0  0  0
    8.6930    0.4840   30.9490 O   0  0  0  0  0  0  0  0  0  0  0  0
    6.2030   -0.1720   31.4540 C   0  0  0  0  0  0  0  0  0  0  0  0
    4.9610   -0.7820   30.8290 C   0  0  0  0  0  0  0  0  0  0  0  0
    3.7940   -0.9790   31.7820 C   0  0  0  0  0  0  0  0  0  0  0  0
    3.9240   -0.5740   33.2500 C   0  0  0  0  0  0  0  0  0  0  0  0
    5.2230    0.0050   33.6570 C   0  0  0  0  0  0  0  0  0  0  0  0
    6.3100    0.1980   32.8070 C   0  0  0  0  0  0  0  0  0  0  0  0
    6.9610   -1.5870   28.5390 C   0  0  0  0  0  0  0  0  0  0  0  0
    5.6640   -4.7400   23.4030 C   0  0  0  0  0  0  0  0  0  0  0  0
    6.3890   -5.3550   22.3920 C   0  0  0  0  0  0  0  0  0  0  0  0
  1  2  1  0
  2  3  2  0
  2  4  1  0
  4  5  1  0
  5  6  1  0
  6  7  1  0
  7  8  1  0
  8  9  2  0
  8 10  1  0
 10 11  1  0
 11 12  2  0
 12 13  1  0
 13 14  2  0
 14 15  1  0
 15 16  1  0
 16 17  2  0
 16 18  1  0
 18 19  2  0
 19 20  1  0
 20 21  2  0
 21 22  1  0
 18 23  1  0
 22 23  2  0
 11 24  1  0
 15 24  2  0
  7 25  1  0
  4 26  1  0
 25 26  1  0
M  END
