piperidine-amides-12434-covalent
     RDKit          3D

 24 25  0  0  0  0  0  0  0  0999 V2000
    7.1060   -3.2770   19.1870 C   0  0  0  0  0  0  0  0  0  0  0  0
    6.3510   -4.0110   20.1990 C   0  0  0  0  0  0  0  0  0  0  0  0
    5.2940   -4.5600   19.8940 O   0  0  0  0  0  0  0  0  0  0  0  0
    6.8610   -4.1380   21.5380 N   0  0  0  0  0  0  0  0  0  0  0  0
    6.5770   -5.3310   22.3000 C   0  0  0  0  0  0  0  0  0  0  0  0
    6.0630   -5.0050   23.6870 C   0  0  0  0  0  0  0  0  0  0  0  0
    6.2500   -3.5210   23.9820 C   0  0  0  0  0  0  0  0  0  0  0  0
    6.0520   -3.2510   25.4240 C   0  0  0  0  0  0  0  0  0  0  0  0
    4.9310   -2.9810   25.9040 O   0  0  0  0  0  0  0  0  0  0  0  0
    7.2030   -3.2930   26.2530 N   0  0  0  0  0  0  0  0  0  0  0  0
    7.1090   -3.8440   27.5850 C   0  0  0  0  0  0  0  0  0  0  0  0
    6.4520   -5.2030   27.5080 C   0  0  0  0  0  0  0  0  0  0  0  0
    6.5050   -5.9550   28.6620 C   0  0  0  0  0  0  0  0  0  0  0  0
    5.4170   -6.0210   29.5440 C   0  0  0  0  0  0  0  0  0  0  0  0
    4.1920   -6.4750   29.0040 N   0  0  0  0  0  0  0  0  0  0  0  0
    3.4460   -7.5340   29.5490 C   0  0  0  0  0  0  0  0  0  0  0  0
    2.4510   -7.2330   30.5750 C   0  0  0  0  0  0  0  0  0  0  0  0
    3.0450   -7.1280   31.8020 F   0  0  0  0  0  0  0  0  0  0  0  0
    1.6910   -6.1300   30.2360 F   0  0  0  0  0  0  0  0  0  0  0  0
    1.5980   -8.3280   30.6340 F   0  0  0  0  0  0  0  0  0  0  0  0
    4.4010   -6.4690   27.5770 C   0  0  0  0  0  0  0  0  0  0  0  0
    5.0220   -5.2940   27.1860 C   0  0  0  0  0  0  0  0  0  0  0  0
    7.4980   -2.9040   23.4850 C   0  0  0  0  0  0  0  0  0  0  0  0
    7.6820   -3.1010   22.0590 C   0  0  0  0  0  0  0  0  0  0  0  0
  1  2  1  0
  2  3  2  0
  2  4  1  0
  4  5  1  0
  5  6  1  0
  6  7  1  0
  7  8  1  0
  8  9  2  0
  8 10  1  0
 10 11  1  0
 11 12  1  0
 12 13  1  0
 13 14  1  0
 14 15  1  0
 15 16  1  0
 16 17  1  0
 17 18  1  0
 17 19  1  0
 17 20  1  0
 15 21  1  0
 12 22  1  0
 21 22  1  0
  7 23  1  0
  4 24  1  0
 23 24  1  0
M  END
