piperidine-amides-14143-covalent
     RDKit          3D

 25 26  0  0  0  0  0  0  0  0999 V2000
    7.1320   -3.2530   19.2030 C   0  0  0  0  0  0  0  0  0  0  0  0
    6.3370   -4.0200   20.2000 C   0  0  0  0  0  0  0  0  0  0  0  0
    5.2510   -4.5130   19.8640 O   0  0  0  0  0  0  0  0  0  0  0  0
    6.8640   -4.2230   21.4910 N   0  0  0  0  0  0  0  0  0  0  0  0
    6.5180   -5.3710   22.2850 C   0  0  0  0  0  0  0  0  0  0  0  0
    5.6210   -4.8560   23.4150 C   0  0  0  0  0  0  0  0  0  0  0  0
    6.4360   -3.8670   24.1750 C   0  0  0  0  0  0  0  0  0  0  0  0
    5.7460   -3.3140   25.3640 C   0  0  0  0  0  0  0  0  0  0  0  0
    4.5630   -2.9910   25.2040 O   0  0  0  0  0  0  0  0  0  0  0  0
    6.4200   -3.1790   26.5800 N   0  0  0  0  0  0  0  0  0  0  0  0
    6.2540   -3.9720   27.7530 C   0  0  0  0  0  0  0  0  0  0  0  0
    6.1120   -5.3420   27.7630 C   0  0  0  0  0  0  0  0  0  0  0  0
    4.9410   -5.9220   28.2750 C   0  0  0  0  0  0  0  0  0  0  0  0
    3.6880   -5.8490   27.6860 O   0  0  0  0  0  0  0  0  0  0  0  0
    5.0810   -6.6480   29.5260 N   0  0  0  0  0  0  0  0  0  0  0  0
    6.0660   -7.5290   29.7750 C   0  0  0  0  0  0  0  0  0  0  0  0
    4.0310   -6.5960   30.3700 C   0  0  0  0  0  0  0  0  0  0  0  0
    4.0690   -7.4230   31.6700 C   0  0  0  0  0  0  0  0  0  0  0  0
    2.8030   -8.2100   31.9200 C   0  0  0  0  0  0  0  0  0  0  0  0
    2.7790   -8.9690   33.0670 C   0  0  0  0  0  0  0  0  0  0  0  0
    3.8390   -9.1260   34.1090 C   0  0  0  0  0  0  0  0  0  0  0  0
    5.0500   -8.2700   33.7080 C   0  0  0  0  0  0  0  0  0  0  0  0
    5.1980   -7.4720   32.5980 C   0  0  0  0  0  0  0  0  0  0  0  0
    6.9250   -2.7050   23.3760 C   0  0  0  0  0  0  0  0  0  0  0  0
    7.6450   -3.1770   22.1370 C   0  0  0  0  0  0  0  0  0  0  0  0
  1  2  1  0
  2  3  2  0
  2  4  1  0
  4  5  1  0
  5  6  1  0
  6  7  1  0
  7  8  1  0
  8  9  2  0
  8 10  1  0
 10 11  1  0
 11 12  1  0
 12 13  1  0
 13 14  2  0
 13 15  1  0
 15 16  1  0
 15 17  1  0
 17 18  1  0
 18 19  2  0
 19 20  1  0
 20 21  2  0
 21 22  1  0
 18 23  1  0
 22 23  2  0
  7 24  1  0
  4 25  1  0
 24 25  1  0
M  END
