piperidine-amides-24885-covalent
     RDKit          3D

 24 25  0  0  0  0  0  0  0  0999 V2000
    7.0230   -3.3510   19.4250 C   0  0  0  0  0  0  0  0  0  0  0  0
    6.3680   -4.2490   20.3950 C   0  0  0  0  0  0  0  0  0  0  0  0
    5.4290   -4.9870   20.0120 O   0  0  0  0  0  0  0  0  0  0  0  0
    6.7970   -4.2980   21.7370 N   0  0  0  0  0  0  0  0  0  0  0  0
    6.6520   -5.5480   22.4740 C   0  0  0  0  0  0  0  0  0  0  0  0
    6.1390   -5.2400   23.9010 C   0  0  0  0  0  0  0  0  0  0  0  0
    6.2490   -3.7470   24.0620 C   0  0  0  0  0  0  0  0  0  0  0  0
    5.8730   -3.1730   25.3910 C   0  0  0  0  0  0  0  0  0  0  0  0
    5.7870   -1.9390   25.4280 O   0  0  0  0  0  0  0  0  0  0  0  0
    5.5490   -3.9010   26.5750 N   0  0  0  0  0  0  0  0  0  0  0  0
    6.3100   -3.6970   27.7570 C   0  0  0  0  0  0  0  0  0  0  0  0
    6.5630   -5.0500   28.4090 C   0  0  0  0  0  0  0  0  0  0  0  0
    5.3100   -5.2330   29.0440 N   0  0  0  0  0  0  0  0  0  0  0  0
    4.6080   -6.5100   29.1020 C   0  0  0  0  0  0  0  0  0  0  0  0
    3.4540   -6.3000   29.8230 C   0  0  0  0  0  0  0  0  0  0  0  0
    2.2650   -5.8670   29.2540 O   0  0  0  0  0  0  0  0  0  0  0  0
    3.4870   -6.5340   31.1380 N   0  0  0  0  0  0  0  0  0  0  0  0
    4.0380   -7.7650   31.6650 C   0  0  0  0  0  0  0  0  0  0  0  0
    3.3520   -8.2420   32.7590 C   0  0  0  0  0  0  0  0  0  0  0  0
    5.5000   -7.6040   32.1210 C   0  0  0  0  0  0  0  0  0  0  0  0
    4.5860   -4.0400   28.9380 C   0  0  0  0  0  0  0  0  0  0  0  0
    4.3760   -3.8170   27.4550 C   0  0  0  0  0  0  0  0  0  0  0  0
    7.6270   -3.3090   23.6580 C   0  0  0  0  0  0  0  0  0  0  0  0
    7.6570   -3.2460   22.2600 C   0  0  0  0  0  0  0  0  0  0  0  0
  1  2  1  0
  2  3  2  0
  2  4  1  0
  4  5  1  0
  5  6  1  0
  6  7  1  0
  7  8  1  0
  8  9  2  0
  8 10  1  0
 10 11  1  0
 11 12  1  0
 12 13  1  0
 13 14  1  0
 14 15  1  0
 15 16  2  0
 15 17  1  0
 17 18  1  0
 18 19  1  0
 18 20  1  0
 13 21  1  0
 10 22  1  0
 21 22  1  0
  7 23  1  0
  4 24  1  0
 23 24  1  0
M  END
