piperidine-amides-8713-covalent
     RDKit          3D

 23 25  0  0  0  0  0  0  0  0999 V2000
    7.0620   -3.2640   19.2260 C   0  0  0  0  0  0  0  0  0  0  0  0
    6.3250   -4.0090   20.2570 C   0  0  0  0  0  0  0  0  0  0  0  0
    5.3100   -4.6310   19.9060 O   0  0  0  0  0  0  0  0  0  0  0  0
    6.7650   -4.0510   21.6080 N   0  0  0  0  0  0  0  0  0  0  0  0
    7.7390   -3.0830   22.0490 C   0  0  0  0  0  0  0  0  0  0  0  0
    7.4580   -2.7040   23.4580 C   0  0  0  0  0  0  0  0  0  0  0  0
    6.2010   -3.4500   23.8040 C   0  0  0  0  0  0  0  0  0  0  0  0
    5.7920   -3.1440   25.2160 C   0  0  0  0  0  0  0  0  0  0  0  0
    4.6350   -3.4300   25.5130 O   0  0  0  0  0  0  0  0  0  0  0  0
    6.7240   -2.5410   26.0710 N   0  0  0  0  0  0  0  0  0  0  0  0
    7.6910   -3.2670   26.8290 C   0  0  0  0  0  0  0  0  0  0  0  0
    7.2050   -4.3950   27.4940 C   0  0  0  0  0  0  0  0  0  0  0  0
    7.8680   -5.6220   27.6340 C   0  0  0  0  0  0  0  0  0  0  0  0
    9.1230   -5.9200   27.1360 C   0  0  0  0  0  0  0  0  0  0  0  0
    7.0660   -6.5680   28.3800 N   0  0  0  0  0  0  0  0  0  0  0  0
    5.8860   -5.8140   28.6740 C   0  0  0  0  0  0  0  0  0  0  0  0
    4.6320   -6.3170   29.4730 C   0  0  0  0  0  0  0  0  0  0  0  0
    3.5320   -5.2600   29.6100 C   0  0  0  0  0  0  0  0  0  0  0  0
    3.8240   -3.9150   28.9680 C   0  0  0  0  0  0  0  0  0  0  0  0
    5.1910   -3.9510   28.3160 C   0  0  0  0  0  0  0  0  0  0  0  0
    6.0520   -4.6460   28.1550 N   0  0  0  0  0  0  0  0  0  0  0  0
    6.4620   -4.9390   23.7010 C   0  0  0  0  0  0  0  0  0  0  0  0
    6.5980   -5.2800   22.3600 C   0  0  0  0  0  0  0  0  0  0  0  0
  1  2  1  0
  2  3  2  0
  2  4  1  0
  4  5  1  0
  5  6  1  0
  6  7  1  0
  7  8  1  0
  8  9  2  0
  8 10  1  0
 10 11  1  0
 11 12  1  0
 12 13  2  0
 13 14  1  0
 13 15  1  0
 15 16  2  0
 16 17  1  0
 17 18  2  0
 18 19  1  0
 19 20  2  0
 12 21  1  0
 16 21  1  0
 20 21  1  0
  7 22  1  0
  4 23  1  0
 22 23  1  0
M  END
