piperidine-amides-29557-covalent
     RDKit          3D

 27 29  0  0  0  0  0  0  0  0999 V2000
    7.1250   -3.2670   19.2690 C   0  0  0  0  0  0  0  0  0  0  0  0
    6.3610   -4.0420   20.2400 C   0  0  0  0  0  0  0  0  0  0  0  0
    5.3080   -4.5870   19.9040 O   0  0  0  0  0  0  0  0  0  0  0  0
    6.8620   -4.2160   21.5740 N   0  0  0  0  0  0  0  0  0  0  0  0
    6.5280   -5.3870   22.3300 C   0  0  0  0  0  0  0  0  0  0  0  0
    5.7420   -4.9910   23.5510 C   0  0  0  0  0  0  0  0  0  0  0  0
    6.5060   -3.9020   24.2990 C   0  0  0  0  0  0  0  0  0  0  0  0
    5.7070   -3.4660   25.4840 C   0  0  0  0  0  0  0  0  0  0  0  0
    4.4620   -3.4460   25.4540 O   0  0  0  0  0  0  0  0  0  0  0  0
    6.3650   -3.0400   26.6720 N   0  0  0  0  0  0  0  0  0  0  0  0
    6.1570   -3.7750   27.9140 C   0  0  0  0  0  0  0  0  0  0  0  0
    6.0650   -5.2680   27.6660 C   0  0  0  0  0  0  0  0  0  0  0  0
    5.1280   -6.0180   28.3370 C   0  0  0  0  0  0  0  0  0  0  0  0
    5.2740   -6.2030   29.7170 C   0  0  0  0  0  0  0  0  0  0  0  0
    4.4000   -6.9470   30.4850 C   0  0  0  0  0  0  0  0  0  0  0  0
    3.2190   -7.4110   29.7750 C   0  0  0  0  0  0  0  0  0  0  0  0
    2.9580   -6.9170   28.5230 C   0  0  0  0  0  0  0  0  0  0  0  0
    4.0480   -6.6210   27.7340 C   0  0  0  0  0  0  0  0  0  0  0  0
    6.6560   -1.6370   26.8240 C   0  0  0  0  0  0  0  0  0  0  0  0
    6.4400   -1.2220   28.2210 C   0  0  0  0  0  0  0  0  0  0  0  0
    7.4280   -1.1330   29.1970 C   0  0  0  0  0  0  0  0  0  0  0  0
    7.0780   -0.7230   30.4660 C   0  0  0  0  0  0  0  0  0  0  0  0
    5.6790   -0.3810   30.8020 C   0  0  0  0  0  0  0  0  0  0  0  0
    4.7530   -0.4800   29.8390 N   0  0  0  0  0  0  0  0  0  0  0  0
    5.1510   -0.8850   28.6150 C   0  0  0  0  0  0  0  0  0  0  0  0
    6.8830   -2.7610   23.4050 C   0  0  0  0  0  0  0  0  0  0  0  0
    7.6540   -3.1850   22.2020 C   0  0  0  0  0  0  0  0  0  0  0  0
  1  2  1  0
  2  3  2  0
  2  4  1  0
  4  5  1  0
  5  6  1  0
  6  7  1  0
  7  8  1  0
  8  9  2  0
  8 10  1  0
 10 11  1  0
 11 12  1  0
 12 13  1  0
 13 14  2  0
 14 15  1  0
 15 16  1  0
 16 17  1  0
 13 18  1  0
 17 18  1  0
 10 19  1  0
 19 20  1  0
 20 21  2  0
 21 22  1  0
 22 23  2  0
 23 24  1  0
 20 25  1  0
 24 25  2  0
  7 26  1  0
  4 27  1  0
 26 27  1  0
M  END
