piperidine-amides-2423-covalent
     RDKit          3D

 27 29  0  0  0  0  0  0  0  0999 V2000
    7.0940   -3.3350   19.2910 C   0  0  0  0  0  0  0  0  0  0  0  0
    6.3580   -4.1300   20.2980 C   0  0  0  0  0  0  0  0  0  0  0  0
    5.3120   -4.6610   19.9280 O   0  0  0  0  0  0  0  0  0  0  0  0
    6.8940   -4.2860   21.5740 N   0  0  0  0  0  0  0  0  0  0  0  0
    7.7110   -3.2750   22.1960 C   0  0  0  0  0  0  0  0  0  0  0  0
    6.9490   -2.6810   23.3310 C   0  0  0  0  0  0  0  0  0  0  0  0
    6.4850   -3.8070   24.2490 C   0  0  0  0  0  0  0  0  0  0  0  0
    5.7720   -3.1740   25.3720 C   0  0  0  0  0  0  0  0  0  0  0  0
    4.6560   -2.6730   25.1760 O   0  0  0  0  0  0  0  0  0  0  0  0
    6.3320   -3.1530   26.6560 N   0  0  0  0  0  0  0  0  0  0  0  0
    6.4100   -1.8940   27.3700 C   0  0  0  0  0  0  0  0  0  0  0  0
    5.8830   -0.6490   26.7500 C   0  0  0  0  0  0  0  0  0  0  0  0
    5.8970    0.5800   27.3380 C   0  0  0  0  0  0  0  0  0  0  0  0
    6.4440    0.6650   28.6070 C   0  0  0  0  0  0  0  0  0  0  0  0
    6.9600   -0.4650   29.2520 C   0  0  0  0  0  0  0  0  0  0  0  0
    7.4690   -0.2870   30.5000 O   0  0  0  0  0  0  0  0  0  0  0  0
    7.8090    0.9430   30.9630 C   0  0  0  0  0  0  0  0  0  0  0  0
    8.2940    0.6990   32.3580 C   0  0  0  0  0  0  0  0  0  0  0  0
    7.0510    0.5180   33.2030 C   0  0  0  0  0  0  0  0  0  0  0  0
    7.2990    0.2520   34.6570 C   0  0  0  0  0  0  0  0  0  0  0  0
    8.7020    0.1880   35.1500 C   0  0  0  0  0  0  0  0  0  0  0  0
    9.8650    0.3850   34.2190 C   0  0  0  0  0  0  0  0  0  0  0  0
    9.6170    0.6450   32.7800 C   0  0  0  0  0  0  0  0  0  0  0  0
   10.7610    0.8290   31.8210 C   0  0  0  0  0  0  0  0  0  0  0  0
    6.9300   -1.6860   28.6250 C   0  0  0  0  0  0  0  0  0  0  0  0
    5.6710   -4.8170   23.4940 C   0  0  0  0  0  0  0  0  0  0  0  0
    6.5490   -5.4410   22.4070 C   0  0  0  0  0  0  0  0  0  0  0  0
  1  2  1  0
  2  3  2  0
  2  4  1  0
  4  5  1  0
  5  6  1  0
  6  7  1  0
  7  8  1  0
  8  9  2  0
  8 10  1  0
 10 11  1  0
 11 12  2  0
 12 13  1  0
 13 14  2  0
 14 15  1  0
 15 16  1  0
 16 17  1  0
 17 18  1  0
 18 19  2  0
 19 20  1  0
 20 21  2  0
 21 22  1  0
 18 23  1  0
 22 23  2  0
 23 24  1  0
 11 25  1  0
 15 25  2  0
  7 26  1  0
  4 27  1  0
 26 27  1  0
M  END
