piperidine-amides-4853-covalent
     RDKit          3D

 23 25  0  0  0  0  0  0  0  0999 V2000
    7.0670   -3.3210   19.3040 C   0  0  0  0  0  0  0  0  0  0  0  0
    6.3880   -4.1490   20.3250 C   0  0  0  0  0  0  0  0  0  0  0  0
    5.3630   -4.7590   19.9590 O   0  0  0  0  0  0  0  0  0  0  0  0
    6.9150   -4.2700   21.6200 N   0  0  0  0  0  0  0  0  0  0  0  0
    7.7020   -3.2220   22.1870 C   0  0  0  0  0  0  0  0  0  0  0  0
    7.3550   -2.9640   23.5710 C   0  0  0  0  0  0  0  0  0  0  0  0
    6.1070   -3.6400   23.9710 C   0  0  0  0  0  0  0  0  0  0  0  0
    5.7850   -3.3120   25.3800 C   0  0  0  0  0  0  0  0  0  0  0  0
    4.5860   -3.3380   25.7200 O   0  0  0  0  0  0  0  0  0  0  0  0
    6.7940   -2.9690   26.3060 N   0  0  0  0  0  0  0  0  0  0  0  0
    6.7350   -1.7240   27.1200 C   0  0  0  0  0  0  0  0  0  0  0  0
    7.6130   -1.4730   28.4800 C   0  0  0  0  0  0  0  0  0  0  0  0
    7.5050   -2.3640   27.6930 N   0  0  0  0  0  0  0  0  0  0  0  0
    6.8690   -1.0470   27.7900 N   0  0  0  0  0  0  0  0  0  0  0  0
    5.9420   -0.6280   26.8440 C   0  0  0  0  0  0  0  0  0  0  0  0
    5.6730    0.6140   27.3840 C   0  0  0  0  0  0  0  0  0  0  0  0
    6.4690    1.0810   28.2210 O   0  0  0  0  0  0  0  0  0  0  0  0
    4.5940    1.3360   27.0620 N   0  0  0  0  0  0  0  0  0  0  0  0
    4.9620    2.6600   26.6000 C   0  0  0  0  0  0  0  0  0  0  0  0
    3.9290    3.2030   26.3200 C   0  0  0  0  0  0  0  0  0  0  0  0
    4.6190    3.8230   27.4860 C   0  0  0  0  0  0  0  0  0  0  0  0
    6.0210   -5.0910   23.6470 C   0  0  0  0  0  0  0  0  0  0  0  0
    6.6260   -5.4360   22.4220 C   0  0  0  0  0  0  0  0  0  0  0  0
  1  2  1  0
  2  3  2  0
  2  4  1  0
  4  5  1  0
  5  6  1  0
  6  7  1  0
  7  8  1  0
  8  9  2  0
  8 10  1  0
 10 11  1  0
 11 12  2  0
 12 13  1  0
 13 14  1  0
 11 15  1  0
 14 15  2  0
 15 16  1  0
 16 17  2  0
 16 18  1  0
 18 19  1  0
 19 20  1  0
 19 21  1  0
 20 21  1  0
  7 22  1  0
  4 23  1  0
 22 23  1  0
M  END
