piperidine-amides-32833-covalent
     RDKit          3D

 29 31  0  0  0  0  0  0  0  0999 V2000
    7.0110   -3.3700   19.4460 C   0  0  0  0  0  0  0  0  0  0  0  0
    6.3710   -4.2910   20.4340 C   0  0  0  0  0  0  0  0  0  0  0  0
    5.4240   -4.9860   20.0180 O   0  0  0  0  0  0  0  0  0  0  0  0
    6.8500   -4.3930   21.7780 N   0  0  0  0  0  0  0  0  0  0  0  0
    6.6150   -5.6060   22.5520 C   0  0  0  0  0  0  0  0  0  0  0  0
    6.1470   -5.2410   23.9850 C   0  0  0  0  0  0  0  0  0  0  0  0
    5.9950   -3.7630   24.0210 C   0  0  0  0  0  0  0  0  0  0  0  0
    5.4220   -3.0740   25.2360 C   0  0  0  0  0  0  0  0  0  0  0  0
    4.8210   -2.0450   24.9480 O   0  0  0  0  0  0  0  0  0  0  0  0
    5.4740   -3.4780   26.5930 N   0  0  0  0  0  0  0  0  0  0  0  0
    6.2540   -4.4480   27.1980 C   0  0  0  0  0  0  0  0  0  0  0  0
    5.9250   -5.1550   28.2910 C   0  0  0  0  0  0  0  0  0  0  0  0
    6.4200   -6.4460   28.4680 C   0  0  0  0  0  0  0  0  0  0  0  0
    6.1150   -7.2570   29.5480 C   0  0  0  0  0  0  0  0  0  0  0  0
    5.2150   -6.7460   30.5810 C   0  0  0  0  0  0  0  0  0  0  0  0
    4.6480   -5.3520   30.4500 C   0  0  0  0  0  0  0  0  0  0  0  0
    5.1170   -4.6240   29.1940 C   0  0  0  0  0  0  0  0  0  0  0  0
    4.7020   -3.3520   28.9370 C   0  0  1  0  0  0  0  0  0  0  0  0
    4.8140   -2.5150   29.9850 N   0  0  0  0  0  0  0  0  0  0  0  0
    3.5290   -2.1420   30.4410 C   0  0  0  0  0  0  0  0  0  0  0  0
    2.4210   -2.2550   29.8790 O   0  0  0  0  0  0  0  0  0  0  0  0
    3.3760   -1.5470   31.7010 O   0  0  0  0  0  0  0  0  0  0  0  0
    2.6480   -2.2020   32.7410 C   0  0  0  0  0  0  0  0  0  0  0  0
    1.4310   -2.8220   32.6080 C   0  0  0  0  0  0  0  0  0  0  0  0
    1.5650   -1.5460   33.5100 C   0  0  0  0  0  0  0  0  0  0  0  0
    3.4430   -3.0370   33.4960 C   0  0  0  0  0  0  0  0  0  0  0  0
    5.4310   -2.7860   27.8710 C   0  0  0  0  0  0  0  0  0  0  0  0
    7.2790   -3.0640   23.6530 C   0  0  0  0  0  0  0  0  0  0  0  0
    7.5920   -3.2800   22.3210 C   0  0  0  0  0  0  0  0  0  0  0  0
  1  2  1  0
  2  3  2  0
  2  4  1  0
  4  5  1  0
  5  6  1  0
  6  7  1  0
  7  8  1  0
  8  9  2  0
  8 10  1  0
 10 11  1  0
 11 12  1  0
 12 13  2  0
 13 14  1  0
 14 15  2  0
 15 16  1  0
 12 17  1  0
 16 17  2  0
 17 18  1  0
 18 19  1  1
 19 20  1  0
 20 21  2  0
 20 22  1  0
 23 22  1  0
 23 24  1  0
 23 25  1  0
 23 26  1  0
 10 27  1  0
 18 27  1  0
  7 28  1  0
  4 29  1  0
 28 29  1  0
M  END
