piperidine-amides-32323-covalent
     RDKit          3D

 27 27  0  0  0  0  0  0  0  0999 V2000
    7.0840   -3.2810   19.3270 C   0  0  0  0  0  0  0  0  0  0  0  0
    6.3460   -4.1040   20.3250 C   0  0  0  0  0  0  0  0  0  0  0  0
    5.3340   -4.7220   19.9490 O   0  0  0  0  0  0  0  0  0  0  0  0
    6.8250   -4.2110   21.6540 N   0  0  0  0  0  0  0  0  0  0  0  0
    6.7190   -5.4740   22.3540 C   0  0  0  0  0  0  0  0  0  0  0  0
    6.2140   -5.1980   23.7710 C   0  0  0  0  0  0  0  0  0  0  0  0
    6.1410   -3.7190   23.9070 C   0  0  0  0  0  0  0  0  0  0  0  0
    5.5790   -3.2600   25.2070 C   0  0  0  0  0  0  0  0  0  0  0  0
    4.3470   -3.1890   25.2280 O   0  0  0  0  0  0  0  0  0  0  0  0
    6.3660   -2.9130   26.3220 N   0  0  0  0  0  0  0  0  0  0  0  0
    6.9040   -1.6030   26.4430 C   0  0  0  0  0  0  0  0  0  0  0  0
    6.2040   -3.6450   27.5570 C   0  0  2  0  0  0  0  0  0  0  0  0
    5.5320   -4.8720   27.4800 C   0  0  0  0  0  0  0  0  0  0  0  0
    4.1360   -4.5890   27.7980 N   0  0  0  0  0  0  0  0  0  0  0  0
    3.1260   -5.4110   28.1730 C   0  0  0  0  0  0  0  0  0  0  0  0
    2.1790   -5.7520   27.3090 O   0  0  0  0  0  0  0  0  0  0  0  0
    3.0610   -5.9080   29.4440 O   0  0  0  0  0  0  0  0  0  0  0  0
    3.3470   -7.2710   29.7070 C   0  0  0  0  0  0  0  0  0  0  0  0
    2.2730   -8.1140   29.0040 C   0  0  0  0  0  0  0  0  0  0  0  0
    3.6050   -7.6350   30.9910 C   0  0  0  0  0  0  0  0  0  0  0  0
    4.5760   -7.6600   28.9420 C   0  0  0  0  0  0  0  0  0  0  0  0
    5.8780   -2.8050   28.5620 C   0  0  0  0  0  0  0  0  0  0  0  0
    4.9790   -1.8510   28.2250 F   0  0  0  0  0  0  0  0  0  0  0  0
    6.9590   -2.1610   29.0880 F   0  0  0  0  0  0  0  0  0  0  0  0
    5.2860   -3.5450   29.5660 F   0  0  0  0  0  0  0  0  0  0  0  0
    7.4060   -3.0150   23.5640 C   0  0  0  0  0  0  0  0  0  0  0  0
    7.6840   -3.1870   22.2280 C   0  0  0  0  0  0  0  0  0  0  0  0
  1  2  1  0
  2  3  2  0
  2  4  1  0
  4  5  1  0
  5  6  1  0
  6  7  1  0
  7  8  1  0
  8  9  2  0
  8 10  1  0
 10 11  1  0
 10 12  1  0
 12 13  1  6
 13 14  1  0
 14 15  1  0
 15 16  2  0
 15 17  1  0
 18 17  1  0
 18 19  1  0
 18 20  1  0
 18 21  1  0
 12 22  1  0
 22 23  1  0
 22 24  1  0
 22 25  1  0
  7 26  1  0
  4 27  1  0
 26 27  1  0
M  END
