piperidine-amides-24412-covalent
     RDKit          3D

 23 25  0  0  0  0  0  0  0  0999 V2000
    7.0900   -3.3540   19.3200 C   0  0  0  0  0  0  0  0  0  0  0  0
    6.3890   -4.1740   20.3160 C   0  0  0  0  0  0  0  0  0  0  0  0
    5.3700   -4.8190   19.9800 O   0  0  0  0  0  0  0  0  0  0  0  0
    6.8830   -4.2830   21.6250 N   0  0  0  0  0  0  0  0  0  0  0  0
    7.7360   -3.2530   22.1760 C   0  0  0  0  0  0  0  0  0  0  0  0
    6.9650   -2.6450   23.3390 C   0  0  0  0  0  0  0  0  0  0  0  0
    6.5260   -3.8060   24.1970 C   0  0  0  0  0  0  0  0  0  0  0  0
    5.7660   -3.3030   25.3600 C   0  0  0  0  0  0  0  0  0  0  0  0
    4.5230   -3.2090   25.2530 O   0  0  0  0  0  0  0  0  0  0  0  0
    6.4350   -2.9310   26.5520 N   0  0  0  0  0  0  0  0  0  0  0  0
    6.2180   -3.6740   27.7660 C   0  0  0  0  0  0  0  0  0  0  0  0
    5.7680   -5.0880   27.4480 C   0  0  0  0  0  0  0  0  0  0  0  0
    5.0230   -5.9230   28.2300 C   0  0  0  0  0  0  0  0  0  0  0  0
    6.3420   -5.9340   28.5760 C   0  0  0  0  0  0  0  0  0  0  0  0
    6.4910   -1.7230   27.3740 C   0  0  0  0  0  0  0  0  0  0  0  0
    5.9560   -0.6790   26.6610 C   0  0  0  0  0  0  0  0  0  0  0  0
    5.7720    0.7980   27.0730 C   0  0  0  0  0  0  0  0  0  0  0  0
    6.3690    0.7080   28.4950 C   0  0  0  0  0  0  0  0  0  0  0  0
    6.3850    2.2120   29.4270 Cl  0  0  0  0  0  0  0  0  0  0  0  0
    6.9290   -0.5170   29.1550 C   0  0  0  0  0  0  0  0  0  0  0  0
    6.9710   -1.6660   28.5900 N   0  0  0  0  0  0  0  0  0  0  0  0
    5.6670   -4.7760   23.4100 C   0  0  0  0  0  0  0  0  0  0  0  0
    6.5180   -5.3880   22.4740 C   0  0  0  0  0  0  0  0  0  0  0  0
  1  2  1  0
  2  3  2  0
  2  4  1  0
  4  5  1  0
  5  6  1  0
  6  7  1  0
  7  8  1  0
  8  9  2  0
  8 10  1  0
 10 11  1  0
 11 12  1  0
 12 13  1  0
 12 14  1  0
 13 14  1  0
 10 15  1  0
 15 16  2  0
 16 17  1  0
 17 18  2  0
 18 19  1  0
 18 20  1  0
 15 21  1  0
 20 21  2  0
  7 22  1  0
  4 23  1  0
 22 23  1  0
M  END
