piperidine-amides-4870-covalent
     RDKit          3D

 23 24  0  0  0  0  0  0  0  0999 V2000
    7.1350   -3.2390   19.1680 C   0  0  0  0  0  0  0  0  0  0  0  0
    6.3490   -3.9860   20.1790 C   0  0  0  0  0  0  0  0  0  0  0  0
    5.2430   -4.4290   19.8240 O   0  0  0  0  0  0  0  0  0  0  0  0
    6.8580   -4.2300   21.4550 N   0  0  0  0  0  0  0  0  0  0  0  0
    7.6130   -3.2190   22.1300 C   0  0  0  0  0  0  0  0  0  0  0  0
    7.2010   -2.9370   23.5020 C   0  0  0  0  0  0  0  0  0  0  0  0
    6.4690   -4.0170   24.1940 C   0  0  0  0  0  0  0  0  0  0  0  0
    5.7200   -3.4420   25.3310 C   0  0  0  0  0  0  0  0  0  0  0  0
    4.4760   -3.5240   25.3440 O   0  0  0  0  0  0  0  0  0  0  0  0
    6.4010   -2.7970   26.3710 N   0  0  0  0  0  0  0  0  0  0  0  0
    6.1940   -3.0970   27.8000 C   0  0  0  0  0  0  0  0  0  0  0  0
    6.9130   -2.0700   28.5970 C   0  0  1  0  0  0  0  0  0  0  0  0
    7.4910   -1.1090   28.0160 O   0  0  0  0  0  0  0  0  0  0  0  0
    6.2950   -1.4230   29.7420 C   0  0  0  0  0  0  0  0  0  0  0  0
    4.9740   -1.5230   30.0990 C   0  0  0  0  0  0  0  0  0  0  0  0
    4.3960   -0.9080   31.1880 C   0  0  0  0  0  0  0  0  0  0  0  0
    5.2080   -0.1410   31.9650 C   0  0  0  0  0  0  0  0  0  0  0  0
    4.5820    0.4630   33.0610 O   0  0  0  0  0  0  0  0  0  0  0  0
    5.4520    0.3840   34.1400 C   0  0  0  0  0  0  0  0  0  0  0  0
    6.5540    0.0170   31.6740 C   0  0  0  0  0  0  0  0  0  0  0  0
    7.0770   -0.6370   30.5550 C   0  0  0  0  0  0  0  0  0  0  0  0
    5.6150   -4.8810   23.3560 C   0  0  0  0  0  0  0  0  0  0  0  0
    6.4560   -5.3980   22.2220 C   0  0  0  0  0  0  0  0  0  0  0  0
  1  2  1  0
  2  3  2  0
  2  4  1  0
  4  5  1  0
  5  6  1  0
  6  7  1  0
  7  8  1  0
  8  9  2  0
  8 10  1  0
 10 11  1  0
 11 12  1  0
 12 13  1  6
 12 14  1  0
 14 15  2  0
 15 16  1  0
 16 17  2  0
 17 18  1  0
 18 19  1  0
 17 20  1  0
 14 21  1  0
 20 21  2  0
  7 22  1  0
  4 23  1  0
 22 23  1  0
M  END
