piperidine-amides-4196-covalent
     RDKit          3D

 27 29  0  0  0  0  0  0  0  0999 V2000
    7.0430   -3.3110   19.3310 C   0  0  0  0  0  0  0  0  0  0  0  0
    6.3530   -4.1320   20.3480 C   0  0  0  0  0  0  0  0  0  0  0  0
    5.3450   -4.7690   19.9560 O   0  0  0  0  0  0  0  0  0  0  0  0
    6.8130   -4.2490   21.6900 N   0  0  0  0  0  0  0  0  0  0  0  0
    7.6420   -3.2270   22.2350 C   0  0  0  0  0  0  0  0  0  0  0  0
    7.3200   -2.9870   23.6170 C   0  0  0  0  0  0  0  0  0  0  0  0
    6.0880   -3.6990   23.9750 C   0  0  0  0  0  0  0  0  0  0  0  0
    5.6090   -3.3460   25.3540 C   0  0  0  0  0  0  0  0  0  0  0  0
    4.3920   -3.4320   25.6230 O   0  0  0  0  0  0  0  0  0  0  0  0
    6.4850   -2.8920   26.3550 N   0  0  0  0  0  0  0  0  0  0  0  0
    6.4430   -1.6620   27.0500 C   0  0  0  0  0  0  0  0  0  0  0  0
    5.9300   -0.3890   26.5390 C   0  0  0  0  0  0  0  0  0  0  0  0
    5.9670    0.8470   27.4610 C   0  0  0  0  0  0  0  0  0  0  0  0
    6.4840    0.7110   28.7300 C   0  0  0  0  0  0  0  0  0  0  0  0
    6.5510    1.7980   29.6170 N   0  0  0  0  0  0  0  0  0  0  0  0
    7.0920    3.0740   29.3860 C   0  0  0  0  0  0  0  0  0  0  0  0
    6.9410    3.8790   30.6120 C   0  0  0  0  0  0  0  0  0  0  0  0
    6.2470    2.8550   31.5210 C   0  0  0  0  0  0  0  0  0  0  0  0
    5.8030    3.0450   32.9540 C   0  0  0  0  0  0  0  0  0  0  0  0
    4.5460    2.5070   33.1150 F   0  0  0  0  0  0  0  0  0  0  0  0
    5.7510    4.4270   33.1610 F   0  0  0  0  0  0  0  0  0  0  0  0
    6.6970    2.4660   33.8320 F   0  0  0  0  0  0  0  0  0  0  0  0
    6.0610    1.6640   30.8500 N   0  0  0  0  0  0  0  0  0  0  0  0
    6.9850   -0.4150   29.3030 C   0  0  0  0  0  0  0  0  0  0  0  0
    6.9830   -1.6860   28.4610 C   0  0  0  0  0  0  0  0  0  0  0  0
    6.2190   -5.1810   23.7470 C   0  0  0  0  0  0  0  0  0  0  0  0
    6.6500   -5.4890   22.4340 C   0  0  0  0  0  0  0  0  0  0  0  0
  1  2  1  0
  2  3  2  0
  2  4  1  0
  4  5  1  0
  5  6  1  0
  6  7  1  0
  7  8  1  0
  8  9  2  0
  8 10  1  0
 10 11  1  0
 11 12  2  0
 12 13  1  0
 13 14  2  0
 14 15  1  0
 15 16  1  0
 16 17  2  0
 17 18  1  0
 18 19  1  0
 19 20  1  0
 19 21  1  0
 19 22  1  0
 15 23  1  0
 18 23  2  0
 14 24  1  0
 11 25  1  0
 24 25  2  0
  7 26  1  0
  4 27  1  0
 26 27  1  0
M  END
