piperidine-amides-26877-covalent
     RDKit          3D

 24 26  0  0  0  0  0  0  0  0999 V2000
    7.0030   -3.3550   19.4400 C   0  0  0  0  0  0  0  0  0  0  0  0
    6.3800   -4.2270   20.4430 C   0  0  0  0  0  0  0  0  0  0  0  0
    5.4220   -4.9310   20.0080 O   0  0  0  0  0  0  0  0  0  0  0  0
    6.8400   -4.3040   21.7750 N   0  0  0  0  0  0  0  0  0  0  0  0
    6.7460   -5.5420   22.5230 C   0  0  0  0  0  0  0  0  0  0  0  0
    6.1480   -5.2380   23.8670 C   0  0  0  0  0  0  0  0  0  0  0  0
    5.9220   -3.7600   24.0380 C   0  0  0  0  0  0  0  0  0  0  0  0
    5.0540   -3.4540   25.2370 C   0  0  0  0  0  0  0  0  0  0  0  0
    3.8490   -3.7040   25.0700 O   0  0  0  0  0  0  0  0  0  0  0  0
    5.3630   -2.9180   26.5240 N   0  0  0  0  0  0  0  0  0  0  0  0
    4.3420   -2.7720   27.5160 C   0  0  0  0  0  0  0  0  0  0  0  0
    4.8790   -3.1960   28.8780 C   0  0  0  0  0  0  0  0  0  0  0  0
    5.5540   -4.3540   29.0920 C   0  0  0  0  0  0  0  0  0  0  0  0
    4.8560   -5.5060   29.3630 C   0  0  0  0  0  0  0  0  0  0  0  0
    4.3740   -6.3760   28.4020 C   0  0  0  0  0  0  0  0  0  0  0  0
    3.6690   -7.5060   28.7390 C   0  0  0  0  0  0  0  0  0  0  0  0
    3.4270   -7.8040   30.0200 N   0  0  0  0  0  0  0  0  0  0  0  0
    3.8590   -7.0280   31.0370 C   0  0  0  0  0  0  0  0  0  0  0  0
    3.5650   -7.3940   32.7260 Cl  0  0  0  0  0  0  0  0  0  0  0  0
    4.5390   -5.9370   30.6100 N   0  0  0  0  0  0  0  0  0  0  0  0
    6.5320   -4.3780   28.1700 C   0  0  0  0  0  0  0  0  0  0  0  0
    6.5370   -3.1860   27.1700 C   0  0  0  0  0  0  0  0  0  0  0  0
    7.2420   -3.0040   23.8400 C   0  0  0  0  0  0  0  0  0  0  0  0
    7.6430   -3.2090   22.3690 C   0  0  0  0  0  0  0  0  0  0  0  0
  1  2  1  0
  2  3  2  0
  2  4  1  0
  4  5  1  0
  5  6  1  0
  6  7  1  0
  7  8  1  0
  8  9  2  0
  8 10  1  0
 10 11  1  0
 11 12  1  0
 12 13  1  0
 13 14  1  0
 14 15  2  0
 15 16  1  0
 16 17  2  0
 17 18  1  0
 18 19  1  0
 14 20  1  0
 18 20  2  0
 13 21  1  0
 10 22  1  0
 21 22  1  0
  7 23  1  0
  4 24  1  0
 23 24  1  0
M  END
