piperidine-amides-16202-covalent
     RDKit          3D

 19 20  0  0  0  0  0  0  0  0999 V2000
    7.0590   -3.3260   19.3050 C   0  0  0  0  0  0  0  0  0  0  0  0
    6.3640   -4.1890   20.2940 C   0  0  0  0  0  0  0  0  0  0  0  0
    5.3340   -4.7500   19.9420 O   0  0  0  0  0  0  0  0  0  0  0  0
    6.9210   -4.3670   21.5540 N   0  0  0  0  0  0  0  0  0  0  0  0
    6.5830   -5.4890   22.3890 C   0  0  0  0  0  0  0  0  0  0  0  0
    5.6770   -5.0410   23.5110 C   0  0  0  0  0  0  0  0  0  0  0  0
    5.8950   -3.5540   23.8220 C   0  0  0  0  0  0  0  0  0  0  0  0
    5.4710   -3.2860   25.2070 C   0  0  0  0  0  0  0  0  0  0  0  0
    4.4090   -2.6970   25.4310 O   0  0  0  0  0  0  0  0  0  0  0  0
    6.2680   -3.7120   26.2620 N   0  0  0  0  0  0  0  0  0  0  0  0
    5.9230   -3.3070   27.6310 C   0  0  0  0  0  0  0  0  0  0  0  0
    6.3980   -4.3980   28.5130 C   0  0  0  0  0  0  0  0  0  0  0  0
    6.8210   -5.4740   27.8650 C   0  0  2  0  0  0  0  0  0  0  0  0
    6.0660   -6.4860   27.9190 O   0  0  0  0  0  0  0  0  0  0  0  0
    8.0570   -5.8900   28.1720 C   0  0  0  0  0  0  0  0  0  0  0  0
    8.8360   -6.2280   27.0930 C   0  0  0  0  0  0  0  0  0  0  0  0
    6.9470   -4.9930   26.4660 C   0  0  0  0  0  0  0  0  0  0  0  0
    7.3000   -3.1640   23.5780 C   0  0  0  0  0  0  0  0  0  0  0  0
    7.6520   -3.2750   22.1450 C   0  0  0  0  0  0  0  0  0  0  0  0
  1  2  1  0
  2  3  2  0
  2  4  1  0
  4  5  1  0
  5  6  1  0
  6  7  1  0
  7  8  1  0
  8  9  2  0
  8 10  1  0
 10 11  1  0
 11 12  1  0
 12 13  1  0
 13 14  1  6
 13 15  1  0
 15 16  1  0
 10 17  1  0
 13 17  1  0
  7 18  1  0
  4 19  1  0
 18 19  1  0
M  END
