piperidine-amides-25876-covalent
     RDKit          3D

 25 28  0  0  0  0  0  0  0  0999 V2000
    6.9870   -3.3680   19.3790 C   0  0  0  0  0  0  0  0  0  0  0  0
    6.3460   -4.2620   20.3810 C   0  0  0  0  0  0  0  0  0  0  0  0
    5.3730   -4.9030   19.9890 O   0  0  0  0  0  0  0  0  0  0  0  0
    6.8550   -4.3930   21.6830 N   0  0  0  0  0  0  0  0  0  0  0  0
    6.6600   -5.6000   22.4670 C   0  0  0  0  0  0  0  0  0  0  0  0
    5.8520   -5.3120   23.7180 C   0  0  0  0  0  0  0  0  0  0  0  0
    5.9200   -3.8160   23.9900 C   0  0  0  0  0  0  0  0  0  0  0  0
    5.3360   -3.4510   25.3150 C   0  0  0  0  0  0  0  0  0  0  0  0
    4.5810   -2.4780   25.3520 O   0  0  0  0  0  0  0  0  0  0  0  0
    5.5770   -4.1320   26.5330 N   0  0  0  0  0  0  0  0  0  0  0  0
    4.7810   -3.7080   27.6620 C   0  0  0  0  0  0  0  0  0  0  0  0
    4.4460   -4.9530   28.4680 C   0  0  0  0  0  0  0  0  0  0  0  0
    5.6770   -5.3220   29.1370 N   0  0  0  0  0  0  0  0  0  0  0  0
    5.7130   -6.7710   29.4320 C   0  0  0  0  0  0  0  0  0  0  0  0
    6.8270   -7.3550   29.3320 C   0  0  0  0  0  0  0  0  0  0  0  0
    6.8300   -8.7340   29.6310 C   0  0  0  0  0  0  0  0  0  0  0  0
    8.1250   -9.8730   29.6060 C   0  0  0  0  0  0  0  0  0  0  0  0
    7.6450  -10.9150   29.3170 C   0  0  0  0  0  0  0  0  0  0  0  0
    8.4150  -11.4580   30.1870 C   0  0  0  0  0  0  0  0  0  0  0  0
    5.5110   -8.8510   29.9070 N   0  0  0  0  0  0  0  0  0  0  0  0
    4.8040   -7.6690   29.7990 N   0  0  0  0  0  0  0  0  0  0  0  0
    6.9080   -5.0960   28.3550 C   0  0  0  0  0  0  0  0  0  0  0  0
    6.8880   -4.2830   27.0980 C   0  0  0  0  0  0  0  0  0  0  0  0
    7.2360   -3.2350   23.7100 C   0  0  0  0  0  0  0  0  0  0  0  0
    7.6340   -3.3180   22.2830 C   0  0  0  0  0  0  0  0  0  0  0  0
  1  2  1  0
  2  3  2  0
  2  4  1  0
  4  5  1  0
  5  6  1  0
  6  7  1  0
  7  8  1  0
  8  9  2  0
  8 10  1  0
 10 11  1  0
 11 12  1  0
 12 13  1  0
 13 14  1  0
 14 15  2  0
 15 16  1  0
 16 17  1  0
 17 18  1  0
 17 19  1  0
 18 19  1  0
 16 20  2  0
 14 21  1  0
 20 21  1  0
 13 22  1  0
 10 23  1  0
 22 23  1  0
  7 24  1  0
  4 25  1  0
 24 25  1  0
M  END
