piperidine-amides-33882-covalent
     RDKit          3D

 29 32  0  0  0  0  0  0  0  0999 V2000
    7.1270   -3.3390   19.2850 C   0  0  0  0  0  0  0  0  0  0  0  0
    6.3830   -4.1090   20.2910 C   0  0  0  0  0  0  0  0  0  0  0  0
    5.2980   -4.6140   19.9150 O   0  0  0  0  0  0  0  0  0  0  0  0
    6.9050   -4.3300   21.5910 N   0  0  0  0  0  0  0  0  0  0  0  0
    6.4980   -5.4980   22.2780 C   0  0  0  0  0  0  0  0  0  0  0  0
    5.9820   -5.2190   23.6070 C   0  0  0  0  0  0  0  0  0  0  0  0
    6.5590   -4.0310   24.2680 C   0  0  0  0  0  0  0  0  0  0  0  0
    5.6210   -3.5620   25.3410 C   0  0  0  0  0  0  0  0  0  0  0  0
    4.7590   -2.7030   25.0900 O   0  0  0  0  0  0  0  0  0  0  0  0
    5.7070   -4.0940   26.6400 N   0  0  0  0  0  0  0  0  0  0  0  0
    6.8880   -4.4910   27.1980 C   0  0  0  0  0  0  0  0  0  0  0  0
    6.9580   -5.4430   28.2690 C   0  0  0  0  0  0  0  0  0  0  0  0
    5.8990   -4.8860   29.2140 C   0  0  0  0  0  0  0  0  0  0  0  0
    4.7160   -4.6140   28.5480 C   0  0  1  0  0  0  0  0  0  0  0  0
    4.0570   -4.3520   29.9030 C   0  0  0  0  0  0  0  0  0  0  0  0
    4.0980   -3.0510   30.4930 N   0  0  0  0  0  0  0  0  0  0  0  0
    3.3450   -3.5200   31.6460 C   0  0  0  0  0  0  0  0  0  0  0  0
    3.2080   -2.2930   32.5530 C   0  0  0  0  0  0  0  0  0  0  0  0
    2.1880   -2.3270   33.6640 C   0  0  0  0  0  0  0  0  0  0  0  0
    2.0990   -1.0970   34.5240 C   0  0  0  0  0  0  0  0  0  0  0  0
    2.9860    0.1230   34.2940 C   0  0  0  0  0  0  0  0  0  0  0  0
    2.9030    1.5810   35.2890 Cl  0  0  0  0  0  0  0  0  0  0  0  0
    3.9340   -0.0260   33.1490 C   0  0  0  0  0  0  0  0  0  0  0  0
    4.0320   -1.1690   32.3330 C   0  0  0  0  0  0  0  0  0  0  0  0
    2.9670   -4.7990   31.6810 N   0  0  0  0  0  0  0  0  0  0  0  0
    3.4010   -5.4000   30.5710 O   0  0  0  0  0  0  0  0  0  0  0  0
    4.8050   -3.5780   27.6350 C   0  0  0  0  0  0  0  0  0  0  0  0
    6.8240   -2.9040   23.3090 C   0  0  0  0  0  0  0  0  0  0  0  0
    7.6790   -3.3420   22.3070 C   0  0  0  0  0  0  0  0  0  0  0  0
  1  2  1  0
  2  3  2  0
  2  4  1  0
  4  5  1  0
  5  6  1  0
  6  7  1  0
  7  8  1  0
  8  9  2  0
  8 10  1  0
 10 11  1  0
 11 12  1  0
 12 13  1  0
 13 14  1  0
 14 15  1  1
 15 16  2  0
 16 17  1  0
 17 18  1  0
 18 19  2  0
 19 20  1  0
 20 21  2  0
 21 22  1  0
 21 23  1  0
 18 24  1  0
 23 24  2  0
 17 25  2  0
 15 26  1  0
 25 26  1  0
 10 27  1  0
 14 27  1  0
  7 28  1  0
  4 29  1  0
 28 29  1  0
M  END
