piperidine-amides-33690-covalent
     RDKit          3D

 30 32  0  0  0  0  0  0  0  0999 V2000
    7.1480   -3.3120   19.2310 C   0  0  0  0  0  0  0  0  0  0  0  0
    6.3760   -4.0370   20.2450 C   0  0  0  0  0  0  0  0  0  0  0  0
    5.2810   -4.5200   19.8830 O   0  0  0  0  0  0  0  0  0  0  0  0
    6.8920   -4.2300   21.5510 N   0  0  0  0  0  0  0  0  0  0  0  0
    6.4040   -5.3190   22.3110 C   0  0  0  0  0  0  0  0  0  0  0  0
    5.9320   -4.9430   23.6470 C   0  0  0  0  0  0  0  0  0  0  0  0
    6.5760   -3.7630   24.2780 C   0  0  0  0  0  0  0  0  0  0  0  0
    5.7860   -3.2660   25.4620 C   0  0  0  0  0  0  0  0  0  0  0  0
    4.5580   -3.1040   25.3190 O   0  0  0  0  0  0  0  0  0  0  0  0
    6.3640   -2.9620   26.7170 N   0  0  0  0  0  0  0  0  0  0  0  0
    6.7140   -1.6500   27.1070 C   0  0  0  0  0  0  0  0  0  0  0  0
    7.0490   -1.3640   28.5010 C   0  0  0  0  0  0  0  0  0  0  0  0
    6.2290   -3.8730   27.8490 C   0  0  0  0  0  0  0  0  0  0  0  0
    5.9130   -5.1880   27.5660 C   0  0  0  0  0  0  0  0  0  0  0  0
    4.7580   -5.1700   28.5850 C   0  0  0  0  0  0  0  0  0  0  0  0
    3.7020   -6.0920   28.2630 N   0  0  0  0  0  0  0  0  0  0  0  0
    4.2930   -7.2400   27.5490 C   0  0  0  0  0  0  0  0  0  0  0  0
    3.0400   -7.3960   26.6550 C   0  0  0  0  0  0  0  0  0  0  0  0
    1.6480   -7.4190   27.2550 C   0  0  0  0  0  0  0  0  0  0  0  0
    0.8940   -8.5650   26.5710 C   0  0  0  0  0  0  0  0  0  0  0  0
    0.8720   -9.9440   27.2640 C   0  0  0  0  0  0  0  0  0  0  0  0
    1.2470  -11.0730   26.3500 C   0  0  0  0  0  0  0  0  0  0  0  0
    1.2940  -12.3940   26.7910 C   0  0  0  0  0  0  0  0  0  0  0  0
    0.9930  -12.7070   28.0900 C   0  0  0  0  0  0  0  0  0  0  0  0
    0.6110  -11.5840   29.0170 C   0  0  0  0  0  0  0  0  0  0  0  0
    0.5660  -10.2630   28.5740 C   0  0  0  0  0  0  0  0  0  0  0  0
    1.6810   -7.3160   28.6290 C   0  0  0  0  0  0  0  0  0  0  0  0
    2.7230   -6.3570   29.1680 C   0  0  0  0  0  0  0  0  0  0  0  0
    6.6870   -2.6030   23.2920 C   0  0  0  0  0  0  0  0  0  0  0  0
    7.5840   -3.1200   22.1680 C   0  0  0  0  0  0  0  0  0  0  0  0
  1  2  1  0
  2  3  2  0
  2  4  1  0
  4  5  1  0
  5  6  1  0
  6  7  1  0
  7  8  1  0
  8  9  2  0
  8 10  1  0
 10 11  1  0
 11 12  1  0
 10 13  1  0
 13 14  1  0
 14 15  1  0
 15 16  1  0
 16 17  1  0
 17 18  1  0
 18 19  1  0
 19 20  1  0
 20 21  1  0
 21 22  2  0
 22 23  1  0
 23 24  2  0
 24 25  1  0
 21 26  1  0
 25 26  2  0
 19 27  1  0
 16 28  1  0
 27 28  1  0
  7 29  1  0
  4 30  1  0
 29 30  1  0
M  END
