piperidine-amides-2945-covalent
     RDKit          3D

 24 25  0  0  0  0  0  0  0  0999 V2000
    7.0820   -3.3760   19.3600 C   0  0  0  0  0  0  0  0  0  0  0  0
    6.3650   -4.1800   20.3360 C   0  0  0  0  0  0  0  0  0  0  0  0
    5.3810   -4.8270   19.9840 O   0  0  0  0  0  0  0  0  0  0  0  0
    6.8490   -4.2540   21.6840 N   0  0  0  0  0  0  0  0  0  0  0  0
    7.6650   -3.1850   22.2150 C   0  0  0  0  0  0  0  0  0  0  0  0
    7.4330   -3.0070   23.6890 C   0  0  0  0  0  0  0  0  0  0  0  0
    6.0690   -3.5930   23.9900 C   0  0  0  0  0  0  0  0  0  0  0  0
    5.5690   -3.2340   25.3500 C   0  0  0  0  0  0  0  0  0  0  0  0
    4.3530   -3.1960   25.5990 O   0  0  0  0  0  0  0  0  0  0  0  0
    6.4770   -2.9220   26.3920 N   0  0  0  0  0  0  0  0  0  0  0  0
    6.3980   -1.6320   27.0530 C   0  0  0  0  0  0  0  0  0  0  0  0
    7.0470   -1.5800   28.4040 C   0  0  0  0  0  0  0  0  0  0  0  0
    7.0460   -0.4120   29.1370 C   0  0  0  0  0  0  0  0  0  0  0  0
    6.4270    0.7430   28.6100 C   0  0  0  0  0  0  0  0  0  0  0  0
    6.4330    1.9420   29.3640 N   0  0  0  0  0  0  0  0  0  0  0  0
    7.3240    2.9900   29.1040 C   0  0  0  0  0  0  0  0  0  0  0  0
    6.1050    1.5440   30.7030 C   0  0  0  0  0  0  0  0  0  0  0  0
    4.7560    1.3160   30.7960 C   0  0  0  0  0  0  0  0  0  0  0  0
    3.9790    2.4100   30.4880 C   0  0  0  0  0  0  0  0  0  0  0  0
    3.3160    2.4070   29.2580 C   0  0  0  0  0  0  0  0  0  0  0  0
    5.8180    0.6910   27.3510 C   0  0  0  0  0  0  0  0  0  0  0  0
    5.7980   -0.4630   26.5820 C   0  0  0  0  0  0  0  0  0  0  0  0
    6.1000   -5.0840   23.8080 C   0  0  0  0  0  0  0  0  0  0  0  0
    6.5630   -5.4270   22.4300 C   0  0  0  0  0  0  0  0  0  0  0  0
  1  2  1  0
  2  3  2  0
  2  4  1  0
  4  5  1  0
  5  6  1  0
  6  7  1  0
  7  8  1  0
  8  9  2  0
  8 10  1  0
 10 11  1  0
 11 12  2  0
 12 13  1  0
 13 14  2  0
 14 15  1  0
 15 16  1  0
 15 17  1  0
 17 18  1  0
 18 19  1  0
 19 20  1  0
 14 21  1  0
 11 22  1  0
 21 22  2  0
  7 23  1  0
  4 24  1  0
 23 24  1  0
M  END
