piperidine-amides-27619-covalent
     RDKit          3D

 26 27  0  0  0  0  0  0  0  0999 V2000
    7.0690   -3.2580   19.2090 C   0  0  0  0  0  0  0  0  0  0  0  0
    6.2960   -4.0170   20.2080 C   0  0  0  0  0  0  0  0  0  0  0  0
    5.2040   -4.5070   19.8430 O   0  0  0  0  0  0  0  0  0  0  0  0
    6.7950   -4.2120   21.4850 N   0  0  0  0  0  0  0  0  0  0  0  0
    7.6530   -3.2270   22.0760 C   0  0  0  0  0  0  0  0  0  0  0  0
    7.4420   -3.2990   23.5380 C   0  0  0  0  0  0  0  0  0  0  0  0
    6.0270   -3.6200   23.8860 C   0  0  0  0  0  0  0  0  0  0  0  0
    5.8660   -3.4260   25.3360 C   0  0  0  0  0  0  0  0  0  0  0  0
    4.7090   -3.2620   25.7910 O   0  0  0  0  0  0  0  0  0  0  0  0
    6.9820   -3.3870   26.2000 N   0  0  0  0  0  0  0  0  0  0  0  0
    7.5550   -4.6380   26.6660 C   0  0  0  0  0  0  0  0  0  0  0  0
    6.8900   -5.1740   27.9310 C   0  0  0  0  0  0  0  0  0  0  0  0
    5.4550   -5.4170   27.6790 N   0  0  0  0  0  0  0  0  0  0  0  0
    4.5440   -4.7980   28.4090 C   0  0  0  0  0  0  0  0  0  0  0  0
    5.0980   -6.4650   26.9150 C   0  0  0  0  0  0  0  0  0  0  0  0
    7.7720   -2.1790   26.1030 C   0  0  0  0  0  0  0  0  0  0  0  0
    8.5140   -1.9640   24.9300 C   0  0  0  0  0  0  0  0  0  0  0  0
    9.6570   -2.6920   24.6040 C   0  0  0  0  0  0  0  0  0  0  0  0
   10.5330   -2.5340   23.3820 C   0  0  0  0  0  0  0  0  0  0  0  0
   10.0130   -1.4370   22.4740 C   0  0  0  0  0  0  0  0  0  0  0  0
    8.7790   -0.6560   22.8220 C   0  0  0  0  0  0  0  0  0  0  0  0
    8.2340    0.4500   21.9270 C   0  0  0  0  0  0  0  0  0  0  0  0
    8.9220    1.6830   21.7760 N   0  0  0  0  0  0  0  0  0  0  0  0
    8.0540   -0.9570   24.0720 C   0  0  0  0  0  0  0  0  0  0  0  0
    5.7540   -5.0590   23.4670 C   0  0  0  0  0  0  0  0  0  0  0  0
    6.5760   -5.4390   22.2310 C   0  0  0  0  0  0  0  0  0  0  0  0
  1  2  1  0
  2  3  2  0
  2  4  1  0
  4  5  1  0
  5  6  1  0
  6  7  1  0
  7  8  1  0
  8  9  2  0
  8 10  1  0
 10 11  1  0
 11 12  1  0
 12 13  1  0
 13 14  1  0
 13 15  1  0
 10 16  1  0
 16 17  1  0
 17 18  2  0
 18 19  1  0
 19 20  2  0
 20 21  1  0
 21 22  1  0
 22 23  3  0
 17 24  1  0
 21 24  2  0
  7 25  1  0
  4 26  1  0
 25 26  1  0
M  END
