piperidine-amides-32389-covalent
     RDKit          3D

 28 30  0  0  0  0  0  0  0  0999 V2000
    7.1090   -3.3390   19.3210 C   0  0  0  0  0  0  0  0  0  0  0  0
    6.3620   -4.1610   20.3110 C   0  0  0  0  0  0  0  0  0  0  0  0
    5.3150   -4.7200   19.9460 O   0  0  0  0  0  0  0  0  0  0  0  0
    6.8790   -4.3380   21.6130 N   0  0  0  0  0  0  0  0  0  0  0  0
    6.5190   -5.4900   22.3950 C   0  0  0  0  0  0  0  0  0  0  0  0
    5.6620   -4.9540   23.5480 C   0  0  0  0  0  0  0  0  0  0  0  0
    6.4470   -3.8680   24.2100 C   0  0  0  0  0  0  0  0  0  0  0  0
    5.7050   -3.2010   25.3140 C   0  0  0  0  0  0  0  0  0  0  0  0
    4.6340   -2.6790   24.9930 O   0  0  0  0  0  0  0  0  0  0  0  0
    6.1850   -3.1830   26.6350 N   0  0  0  0  0  0  0  0  0  0  0  0
    6.1970   -4.3440   27.4580 C   0  0  0  0  0  0  0  0  0  0  0  0
    5.1420   -4.8370   28.1720 C   0  0  0  0  0  0  0  0  0  0  0  0
    4.1770   -3.9400   28.6970 C   0  0  0  0  0  0  0  0  0  0  0  0
    3.0750   -4.3310   29.4320 C   0  0  0  0  0  0  0  0  0  0  0  0
    2.8420   -5.7650   29.7160 C   0  0  0  0  0  0  0  0  0  0  0  0
    1.4430   -6.2840   30.6490 Cl  0  0  0  0  0  0  0  0  0  0  0  0
    3.8330   -6.7830   29.1850 C   0  0  0  0  0  0  0  0  0  0  0  0
    4.9850   -6.1760   28.3990 C   0  0  0  0  0  0  0  0  0  0  0  0
    6.2980   -1.8820   27.2310 C   0  0  0  0  0  0  0  0  0  0  0  0
    5.7770   -0.7060   26.5320 C   0  0  0  0  0  0  0  0  0  0  0  0
    5.9780    0.5760   27.3500 C   0  0  0  0  0  0  0  0  0  0  0  0
    6.5340    0.9000   28.5920 C   0  0  0  0  0  0  0  0  0  0  0  0
    7.0070   -0.4920   29.1090 C   0  0  0  0  0  0  0  0  0  0  0  0
    7.6720   -0.5000   30.4680 C   0  0  0  0  0  0  0  0  0  0  0  0
    7.7360    0.6170   31.2230 N   0  0  0  0  0  0  0  0  0  0  0  0
    6.8770   -1.7040   28.4590 C   0  0  0  0  0  0  0  0  0  0  0  0
    6.8380   -2.7380   23.2850 C   0  0  0  0  0  0  0  0  0  0  0  0
    7.5580   -3.2320   22.2120 C   0  0  0  0  0  0  0  0  0  0  0  0
  1  2  1  0
  2  3  2  0
  2  4  1  0
  4  5  1  0
  5  6  1  0
  6  7  1  0
  7  8  1  0
  8  9  2  0
  8 10  1  0
 10 11  1  0
 11 12  1  0
 12 13  2  0
 13 14  1  0
 14 15  2  0
 15 16  1  0
 15 17  1  0
 12 18  1  0
 17 18  2  0
 10 19  1  0
 19 20  2  0
 20 21  1  0
 21 22  2  0
 22 23  1  0
 23 24  1  0
 24 25  3  0
 19 26  1  0
 23 26  2  0
  7 27  1  0
  4 28  1  0
 27 28  1  0
M  END
