piperidine-amides-18967-covalent
     RDKit          3D

 22 23  0  0  0  0  0  0  0  0999 V2000
    7.0240   -3.4230   19.4010 C   0  0  0  0  0  0  0  0  0  0  0  0
    6.3650   -4.2240   20.4140 C   0  0  0  0  0  0  0  0  0  0  0  0
    5.4080   -4.9530   20.0100 O   0  0  0  0  0  0  0  0  0  0  0  0
    6.7500   -4.2730   21.7830 N   0  0  0  0  0  0  0  0  0  0  0  0
    7.7210   -3.2810   22.3110 C   0  0  0  0  0  0  0  0  0  0  0  0
    6.8390   -2.5420   23.3900 C   0  0  0  0  0  0  0  0  0  0  0  0
    5.9690   -3.6000   24.0350 C   0  0  0  0  0  0  0  0  0  0  0  0
    5.4030   -3.1950   25.4820 C   0  0  0  0  0  0  0  0  0  0  0  0
    4.3250   -2.6500   25.4040 O   0  0  0  0  0  0  0  0  0  0  0  0
    6.1790   -3.5470   26.4000 N   0  0  0  0  0  0  0  0  0  0  0  0
    6.8540   -4.4340   27.1740 C   0  0  0  0  0  0  0  0  0  0  0  0
    6.5880   -5.5600   27.9010 C   0  0  0  0  0  0  0  0  0  0  0  0
    6.3120   -2.2110   27.0670 C   0  0  0  0  0  0  0  0  0  0  0  0
    6.9000   -2.2040   28.4630 C   0  0  0  0  0  0  0  0  0  0  0  0
    7.0420   -0.8370   29.2030 C   0  0  0  0  0  0  0  0  0  0  0  0
    6.5840    0.2190   28.4460 C   0  0  0  0  0  0  0  0  0  0  0  0
    6.4230    1.6110   28.4980 C   0  0  0  0  0  0  0  0  0  0  0  0
    6.7730    2.3140   29.5810 N   0  0  0  0  0  0  0  0  0  0  0  0
    6.0070    0.3370   27.1080 C   0  0  0  0  0  0  0  0  0  0  0  0
    5.8360   -0.9720   26.3000 C   0  0  0  0  0  0  0  0  0  0  0  0
    6.5630   -5.0120   23.9230 C   0  0  0  0  0  0  0  0  0  0  0  0
    6.5150   -5.4400   22.6160 C   0  0  0  0  0  0  0  0  0  0  0  0
  1  2  1  0
  2  3  2  0
  2  4  1  0
  4  5  1  0
  5  6  1  0
  6  7  1  0
  7  8  1  0
  8  9  2  0
  8 10  1  0
 10 11  1  0
 11 12  1  0
 10 13  1  0
 13 14  2  0
 14 15  1  0
 15 16  2  0
 16 17  1  0
 17 18  3  0
 16 19  1  0
 13 20  1  0
 19 20  2  0
  7 21  1  0
  4 22  1  0
 21 22  1  0
M  END
