piperidine-amides-17094-covalent
     RDKit          3D

 20 21  0  0  0  0  0  0  0  0999 V2000
    7.0370   -3.3790   19.4220 C   0  0  0  0  0  0  0  0  0  0  0  0
    6.4010   -4.2620   20.4180 C   0  0  0  0  0  0  0  0  0  0  0  0
    5.4220   -4.9380   20.0080 O   0  0  0  0  0  0  0  0  0  0  0  0
    6.9070   -4.3660   21.7470 N   0  0  0  0  0  0  0  0  0  0  0  0
    6.5630   -5.5060   22.5440 C   0  0  0  0  0  0  0  0  0  0  0  0
    6.0920   -5.1640   23.8920 C   0  0  0  0  0  0  0  0  0  0  0  0
    6.1180   -3.7160   24.1460 C   0  0  0  0  0  0  0  0  0  0  0  0
    5.5030   -3.2250   25.4500 C   0  0  0  0  0  0  0  0  0  0  0  0
    4.9310   -2.1260   25.4070 O   0  0  0  0  0  0  0  0  0  0  0  0
    5.4770   -3.8890   26.7120 N   0  0  0  0  0  0  0  0  0  0  0  0
    6.3590   -3.7250   27.7600 C   0  0  0  0  0  0  0  0  0  0  0  0
    6.7290   -4.9310   28.4950 C   0  0  0  0  0  0  0  0  0  0  0  0
    5.4270   -5.3570   29.0890 C   0  0  0  0  0  0  0  0  0  0  0  0
    4.4570   -4.4240   28.7810 C   0  0  2  0  0  0  0  0  0  0  0  0
    3.4050   -5.5470   28.7310 C   0  0  0  0  0  0  0  0  0  0  0  0
    3.3510   -6.2080   27.5080 O   0  0  0  0  0  0  0  0  0  0  0  0
    3.6100   -7.5640   27.6990 C   0  0  0  0  0  0  0  0  0  0  0  0
    4.2020   -4.0940   27.3300 C   0  0  0  0  0  0  0  0  0  0  0  0
    7.4570   -3.1020   23.8140 C   0  0  0  0  0  0  0  0  0  0  0  0
    7.6960   -3.2780   22.3180 C   0  0  0  0  0  0  0  0  0  0  0  0
  1  2  1  0
  2  3  2  0
  2  4  1  0
  4  5  1  0
  5  6  1  0
  6  7  1  0
  7  8  1  0
  8  9  2  0
  8 10  1  0
 10 11  1  0
 11 12  1  0
 12 13  1  0
 13 14  1  0
 14 15  1  6
 15 16  1  0
 16 17  1  0
 10 18  1  0
 14 18  1  0
  7 19  1  0
  4 20  1  0
 19 20  1  0
M  END
