piperidine-amides-8615-covalent
     RDKit          3D

 23 24  0  0  0  0  0  0  0  0999 V2000
    7.1060   -3.3130   19.2750 C   0  0  0  0  0  0  0  0  0  0  0  0
    6.3750   -4.0860   20.2720 C   0  0  0  0  0  0  0  0  0  0  0  0
    5.3120   -4.6250   19.9190 O   0  0  0  0  0  0  0  0  0  0  0  0
    6.9060   -4.2500   21.5770 N   0  0  0  0  0  0  0  0  0  0  0  0
    7.6120   -3.1400   22.1830 C   0  0  0  0  0  0  0  0  0  0  0  0
    7.4400   -3.0970   23.6840 C   0  0  0  0  0  0  0  0  0  0  0  0
    6.0680   -3.6500   24.0050 C   0  0  0  0  0  0  0  0  0  0  0  0
    5.5800   -3.2680   25.3740 C   0  0  0  0  0  0  0  0  0  0  0  0
    4.3600   -3.2170   25.4890 O   0  0  0  0  0  0  0  0  0  0  0  0
    6.4930   -2.9930   26.3930 N   0  0  0  0  0  0  0  0  0  0  0  0
    6.3010   -3.3600   27.7740 C   0  0  0  0  0  0  0  0  0  0  0  0
    4.9980   -3.6950   28.1840 C   0  0  0  0  0  0  0  0  0  0  0  0
    4.2210   -2.5040   28.6140 N   0  0  0  0  0  0  0  0  0  0  0  0
    2.8940   -2.4720   29.0930 C   0  0  0  0  0  0  0  0  0  0  0  0
    2.3440   -1.2580   29.4440 O   0  0  0  0  0  0  0  0  0  0  0  0
    1.3360   -0.4720   29.0600 C   0  0  0  0  0  0  0  0  0  0  0  0
    2.2910   -3.9020   29.1280 C   0  0  0  0  0  0  0  0  0  0  0  0
    3.0930   -5.1430   28.6830 C   0  0  0  0  0  0  0  0  0  0  0  0
    2.5730   -6.3520   28.7150 O   0  0  0  0  0  0  0  0  0  0  0  0
    3.5650   -7.3300   28.8010 C   0  0  0  0  0  0  0  0  0  0  0  0
    4.3350   -4.8880   28.2680 N   0  0  0  0  0  0  0  0  0  0  0  0
    6.0500   -5.1010   23.7140 C   0  0  0  0  0  0  0  0  0  0  0  0
    6.5450   -5.4400   22.3040 C   0  0  0  0  0  0  0  0  0  0  0  0
  1  2  1  0
  2  3  2  0
  2  4  1  0
  4  5  1  0
  5  6  1  0
  6  7  1  0
  7  8  1  0
  8  9  2  0
  8 10  1  0
 10 11  1  0
 11 12  1  0
 12 13  2  0
 13 14  1  0
 14 15  1  0
 15 16  1  0
 14 17  2  0
 17 18  1  0
 18 19  1  0
 19 20  1  0
 12 21  1  0
 18 21  2  0
  7 22  1  0
  4 23  1  0
 22 23  1  0
M  END
