piperidine-amides-16162-covalent
     RDKit          3D

 19 20  0  0  0  0  0  0  0  0999 V2000
    7.0660   -3.3160   19.2600 C   0  0  0  0  0  0  0  0  0  0  0  0
    6.3680   -4.1410   20.2800 C   0  0  0  0  0  0  0  0  0  0  0  0
    5.3280   -4.6940   19.9350 O   0  0  0  0  0  0  0  0  0  0  0  0
    6.9220   -4.3100   21.5490 N   0  0  0  0  0  0  0  0  0  0  0  0
    6.6720   -5.4830   22.3330 C   0  0  0  0  0  0  0  0  0  0  0  0
    5.9630   -5.0650   23.5830 C   0  0  0  0  0  0  0  0  0  0  0  0
    6.7750   -4.0010   24.3400 C   0  0  0  0  0  0  0  0  0  0  0  0
    5.9120   -3.5600   25.4460 C   0  0  0  0  0  0  0  0  0  0  0  0
    4.7660   -3.1540   25.2030 O   0  0  0  0  0  0  0  0  0  0  0  0
    6.3550   -3.5850   26.7760 N   0  0  0  0  0  0  0  0  0  0  0  0
    5.3560   -3.4830   27.7930 C   0  0  0  0  0  0  0  0  0  0  0  0
    5.5020   -4.7690   28.5450 C   0  0  0  0  0  0  0  0  0  0  0  0
    6.7240   -5.3500   28.7090 C   0  0  0  0  0  0  0  0  0  0  0  0
    7.7000   -5.0460   27.8140 C   0  0  1  0  0  0  0  0  0  0  0  0
    7.7750   -5.9830   26.8040 O   0  0  0  0  0  0  0  0  0  0  0  0
    7.6480   -3.7710   27.2940 C   0  0  2  0  0  0  0  0  0  0  0  0
    8.0280   -2.5580   28.1210 C   0  0  0  0  0  0  0  0  0  0  0  0
    7.1940   -2.8440   23.4880 C   0  0  0  0  0  0  0  0  0  0  0  0
    7.7000   -3.2380   22.1390 C   0  0  0  0  0  0  0  0  0  0  0  0
  1  2  1  0
  2  3  2  0
  2  4  1  0
  4  5  1  0
  5  6  1  0
  6  7  1  0
  7  8  1  0
  8  9  2  0
  8 10  1  0
 10 11  1  0
 11 12  1  0
 12 13  1  0
 13 14  1  0
 14 15  1  6
 10 16  1  0
 14 16  1  0
 16 17  1  1
  7 18  1  0
  4 19  1  0
 18 19  1  0
M  END
