piperidine-amides-25777-covalent
     RDKit          3D

 25 27  0  0  0  0  0  0  0  0999 V2000
    7.0210   -3.3440   19.3480 C   0  0  0  0  0  0  0  0  0  0  0  0
    6.3690   -4.2070   20.3720 C   0  0  0  0  0  0  0  0  0  0  0  0
    5.3960   -4.8580   19.9880 O   0  0  0  0  0  0  0  0  0  0  0  0
    6.8730   -4.3010   21.6830 N   0  0  0  0  0  0  0  0  0  0  0  0
    6.5270   -5.3800   22.5600 C   0  0  0  0  0  0  0  0  0  0  0  0
    5.7110   -4.8400   23.7120 C   0  0  0  0  0  0  0  0  0  0  0  0
    6.3370   -3.5620   24.3140 C   0  0  0  0  0  0  0  0  0  0  0  0
    5.3060   -2.8550   25.1490 C   0  0  0  0  0  0  0  0  0  0  0  0
    4.3720   -2.2980   24.5710 O   0  0  0  0  0  0  0  0  0  0  0  0
    5.3600   -2.8180   26.5720 N   0  0  0  0  0  0  0  0  0  0  0  0
    6.3960   -3.5230   27.1320 C   0  0  0  0  0  0  0  0  0  0  0  0
    5.9330   -4.8810   27.6570 C   0  0  0  0  0  0  0  0  0  0  0  0
    5.5410   -5.9160   26.8680 C   0  0  0  0  0  0  0  0  0  0  0  0
    5.1810   -7.0060   27.4020 O   0  0  0  0  0  0  0  0  0  0  0  0
    5.0700   -1.7070   27.3810 C   0  0  1  0  0  0  0  0  0  0  0  0
    5.8510   -1.5180   28.4950 C   0  0  0  0  0  0  0  0  0  0  0  0
    6.3140   -0.0690   28.9270 C   0  0  0  0  0  0  0  0  0  0  0  0
    6.0940    0.7150   27.6080 C   0  0  0  0  0  0  0  0  0  0  0  0
    6.8340    1.8160   28.4660 C   0  0  0  0  0  0  0  0  0  0  0  0
    6.8720    0.8410   29.5850 C   0  0  0  0  0  0  0  0  0  0  0  0
    6.3500   -0.4850   29.5580 C   0  0  0  0  0  0  0  0  0  0  0  0
    5.7020   -1.0230   28.3630 C   0  0  0  0  0  0  0  0  0  0  0  0
    5.4570   -0.3960   27.0390 C   0  0  0  0  0  0  0  0  0  0  0  0
    6.7980   -2.5940   23.2230 C   0  0  0  0  0  0  0  0  0  0  0  0
    7.6200   -3.2210   22.3070 C   0  0  0  0  0  0  0  0  0  0  0  0
  1  2  1  0
  2  3  2  0
  2  4  1  0
  4  5  1  0
  5  6  1  0
  6  7  1  0
  7  8  1  0
  8  9  2  0
  8 10  1  0
 10 11  1  0
 11 12  1  0
 12 13  1  0
 13 14  1  0
 15 10  1  6
 15 16  1  0
 16 17  1  0
 17 18  1  0
 18 19  1  0
 19 20  2  0
 20 21  1  0
 21 22  2  0
 15 23  1  0
 18 23  2  0
 22 23  1  0
  7 24  1  0
  4 25  1  0
 24 25  1  0
M  END
