piperidine-amides-11067-covalent
     RDKit          3D

 21 22  0  0  0  0  0  0  0  0999 V2000
    7.1020   -3.2850   19.2490 C   0  0  0  0  0  0  0  0  0  0  0  0
    6.3680   -4.0530   20.2620 C   0  0  0  0  0  0  0  0  0  0  0  0
    5.3330   -4.6510   19.9260 O   0  0  0  0  0  0  0  0  0  0  0  0
    6.8310   -4.1700   21.5840 N   0  0  0  0  0  0  0  0  0  0  0  0
    6.6780   -5.4020   22.3370 C   0  0  0  0  0  0  0  0  0  0  0  0
    5.9920   -5.0200   23.6240 C   0  0  0  0  0  0  0  0  0  0  0  0
    6.0630   -3.5430   23.8520 C   0  0  0  0  0  0  0  0  0  0  0  0
    5.6680   -3.1310   25.2140 C   0  0  0  0  0  0  0  0  0  0  0  0
    4.4600   -2.8580   25.4730 O   0  0  0  0  0  0  0  0  0  0  0  0
    6.5870   -3.0070   26.2690 N   0  0  0  0  0  0  0  0  0  0  0  0
    6.2310   -3.4530   27.6310 C   0  0  0  0  0  0  0  0  0  0  0  0
    5.7840   -4.8570   27.5740 C   0  0  0  0  0  0  0  0  0  0  0  0
    5.0390   -5.3270   28.7450 C   0  0  2  0  0  0  0  0  0  0  0  0
    5.8290   -6.4410   29.3740 C   0  0  0  0  0  0  0  0  0  0  0  0
    5.1690   -7.7720   29.1610 C   0  0  0  0  0  0  0  0  0  0  0  0
    3.8370   -7.6770   29.8040 C   0  0  0  0  0  0  0  0  0  0  0  0
    3.0500   -6.7100   29.2530 C   0  0  1  0  0  0  0  0  0  0  0  0
    2.9120   -5.4410   29.8260 C   0  0  0  0  0  0  0  0  0  0  0  0
    3.6970   -5.5390   28.5000 C   0  0  0  0  0  0  0  0  0  0  0  0
    7.4100   -2.9410   23.5740 C   0  0  0  0  0  0  0  0  0  0  0  0
    7.7340   -3.1630   22.1230 C   0  0  0  0  0  0  0  0  0  0  0  0
  1  2  1  0
  2  3  2  0
  2  4  1  0
  4  5  1  0
  5  6  1  0
  6  7  1  0
  7  8  1  0
  8  9  2  0
  8 10  1  0
 10 11  1  0
 11 12  1  0
 13 12  1  6
 13 14  1  0
 14 15  1  0
 15 16  1  0
 16 17  1  0
 17 18  1  1
 13 19  1  0
 17 19  1  0
  7 20  1  0
  4 21  1  0
 20 21  1  0
M  END
