piperidine-amides-16152-covalent
     RDKit          3D

 19 20  0  0  0  0  0  0  0  0999 V2000
    7.0110   -3.3400   19.3380 C   0  0  0  0  0  0  0  0  0  0  0  0
    6.3540   -4.1900   20.3660 C   0  0  0  0  0  0  0  0  0  0  0  0
    5.3870   -4.8500   19.9830 O   0  0  0  0  0  0  0  0  0  0  0  0
    6.8400   -4.2520   21.6810 N   0  0  0  0  0  0  0  0  0  0  0  0
    7.6640   -3.2070   22.2720 C   0  0  0  0  0  0  0  0  0  0  0  0
    7.3100   -2.9720   23.7220 C   0  0  0  0  0  0  0  0  0  0  0  0
    6.0420   -3.7530   24.0800 C   0  0  0  0  0  0  0  0  0  0  0  0
    5.5590   -3.3970   25.4450 C   0  0  0  0  0  0  0  0  0  0  0  0
    4.3350   -3.3330   25.6160 O   0  0  0  0  0  0  0  0  0  0  0  0
    6.3960   -3.1040   26.5480 N   0  0  0  0  0  0  0  0  0  0  0  0
    6.2730   -3.9600   27.7240 C   0  0  0  0  0  0  0  0  0  0  0  0
    6.1310   -5.4150   27.3180 C   0  0  0  0  0  0  0  0  0  0  0  0
    4.9300   -5.9320   27.7670 O   0  0  0  0  0  0  0  0  0  0  0  0
    6.7840   -1.7730   26.5680 C   0  0  2  0  0  0  0  0  0  0  0  0
    6.7880   -1.2690   27.6860 C   0  0  0  0  0  0  0  0  0  0  0  0
    5.8080   -0.5780   26.9050 C   0  0  1  0  0  0  0  0  0  0  0  0
    5.8920    0.4560   25.8010 C   0  0  0  0  0  0  0  0  0  0  0  0
    6.2030   -5.2130   23.8300 C   0  0  0  0  0  0  0  0  0  0  0  0
    6.6590   -5.4840   22.4250 C   0  0  0  0  0  0  0  0  0  0  0  0
  1  2  1  0
  2  3  2  0
  2  4  1  0
  4  5  1  0
  5  6  1  0
  6  7  1  0
  7  8  1  0
  8  9  2  0
  8 10  1  0
 10 11  1  0
 11 12  1  0
 12 13  1  0
 14 10  1  1
 14 15  1  0
 14 16  1  0
 15 16  1  0
 16 17  1  6
  7 18  1  0
  4 19  1  0
 18 19  1  0
M  END
