piperidine-amides-11323-covalent
     RDKit          3D

 17 17  0  0  0  0  0  0  0  0999 V2000
    7.0990   -3.2910   19.2430 C   0  0  0  0  0  0  0  0  0  0  0  0
    6.3690   -4.0740   20.2430 C   0  0  0  0  0  0  0  0  0  0  0  0
    5.3000   -4.6070   19.9090 O   0  0  0  0  0  0  0  0  0  0  0  0
    6.8690   -4.2910   21.5410 N   0  0  0  0  0  0  0  0  0  0  0  0
    6.5760   -5.5030   22.2580 C   0  0  0  0  0  0  0  0  0  0  0  0
    5.8660   -5.0560   23.5130 C   0  0  0  0  0  0  0  0  0  0  0  0
    6.5540   -3.9210   24.2290 C   0  0  0  0  0  0  0  0  0  0  0  0
    5.7020   -3.3810   25.3160 C   0  0  0  0  0  0  0  0  0  0  0  0
    5.0130   -2.3350   25.1380 O   0  0  0  0  0  0  0  0  0  0  0  0
    5.5830   -3.9940   26.5810 N   0  0  0  0  0  0  0  0  0  0  0  0
    6.7580   -4.5540   27.2620 C   0  0  0  0  0  0  0  0  0  0  0  0
    6.3300   -5.7250   28.0450 C   0  0  0  0  0  0  0  0  0  0  0  0
    5.4490   -6.4120   29.0020 C   0  0  0  0  0  0  0  0  0  0  0  0
    4.3100   -5.6190   29.5880 C   0  0  0  0  0  0  0  0  0  0  0  0
    5.5120   -7.8210   29.4960 C   0  0  0  0  0  0  0  0  0  0  0  0
    6.8620   -2.7950   23.2880 C   0  0  0  0  0  0  0  0  0  0  0  0
    7.5420   -3.2050   22.1740 C   0  0  0  0  0  0  0  0  0  0  0  0
  1  2  1  0
  2  3  2  0
  2  4  1  0
  4  5  1  0
  5  6  1  0
  6  7  1  0
  7  8  1  0
  8  9  2  0
  8 10  1  0
 10 11  1  0
 11 12  1  0
 12 13  2  3
 13 14  1  0
 13 15  1  0
  7 16  1  0
  4 17  1  0
 16 17  1  0
M  END
