piperidine-amides-14153-covalent
     RDKit          3D

 25 27  0  0  0  0  0  0  0  0999 V2000
    7.0950   -3.3360   19.3150 C   0  0  0  0  0  0  0  0  0  0  0  0
    6.4040   -4.1960   20.3110 C   0  0  0  0  0  0  0  0  0  0  0  0
    5.3710   -4.7970   19.9720 O   0  0  0  0  0  0  0  0  0  0  0  0
    6.9680   -4.3540   21.5980 N   0  0  0  0  0  0  0  0  0  0  0  0
    6.5500   -5.4270   22.4530 C   0  0  0  0  0  0  0  0  0  0  0  0
    5.6760   -4.7740   23.5330 C   0  0  0  0  0  0  0  0  0  0  0  0
    6.4790   -3.7310   24.2530 C   0  0  0  0  0  0  0  0  0  0  0  0
    5.7670   -3.2670   25.4650 C   0  0  0  0  0  0  0  0  0  0  0  0
    4.5320   -3.2450   25.3920 O   0  0  0  0  0  0  0  0  0  0  0  0
    6.4720   -2.8760   26.6040 N   0  0  0  0  0  0  0  0  0  0  0  0
    6.4760   -1.6060   27.2420 C   0  0  0  0  0  0  0  0  0  0  0  0
    5.7770   -0.5100   26.7540 C   0  0  0  0  0  0  0  0  0  0  0  0
    5.7550    0.7510   27.3680 C   0  0  0  0  0  0  0  0  0  0  0  0
    6.4530    0.9700   28.5190 C   0  0  0  0  0  0  0  0  0  0  0  0
    6.4310    2.1820   29.1210 N   0  0  0  0  0  0  0  0  0  0  0  0
    6.4130    3.3990   28.5460 C   0  0  0  0  0  0  0  0  0  0  0  0
    6.3900    4.4250   29.4160 N   0  0  0  0  0  0  0  0  0  0  0  0
    6.3950    3.7600   30.6630 C   0  0  0  0  0  0  0  0  0  0  0  0
    6.3730    4.5880   31.9480 C   0  0  0  0  0  0  0  0  0  0  0  0
    6.4210    2.3720   30.4500 C   0  0  0  0  0  0  0  0  0  0  0  0
    6.4400    1.2050   31.3670 C   0  0  0  0  0  0  0  0  0  0  0  0
    7.1660   -0.0560   29.0400 N   0  0  0  0  0  0  0  0  0  0  0  0
    7.2160   -1.2960   28.4950 C   0  0  0  0  0  0  0  0  0  0  0  0
    6.8260   -2.6650   23.3060 C   0  0  0  0  0  0  0  0  0  0  0  0
    7.7010   -3.2820   22.2090 C   0  0  0  0  0  0  0  0  0  0  0  0
  1  2  1  0
  2  3  2  0
  2  4  1  0
  4  5  1  0
  5  6  1  0
  6  7  1  0
  7  8  1  0
  8  9  2  0
  8 10  1  0
 10 11  1  0
 11 12  2  0
 12 13  1  0
 13 14  2  0
 14 15  1  0
 15 16  1  0
 16 17  2  0
 17 18  1  0
 18 19  1  0
 15 20  1  0
 18 20  2  0
 20 21  1  0
 14 22  1  0
 11 23  1  0
 22 23  2  0
  7 24  1  0
  4 25  1  0
 24 25  1  0
M  END
