piperidine-amides-15344-covalent
     RDKit          3D

 17 18  0  0  0  0  0  0  0  0999 V2000
    7.1160   -3.2870   19.2780 C   0  0  0  0  0  0  0  0  0  0  0  0
    6.3970   -4.0970   20.2740 C   0  0  0  0  0  0  0  0  0  0  0  0
    5.3600   -4.7210   19.9520 O   0  0  0  0  0  0  0  0  0  0  0  0
    6.8970   -4.2170   21.5820 N   0  0  0  0  0  0  0  0  0  0  0  0
    7.6830   -3.1200   22.1450 C   0  0  0  0  0  0  0  0  0  0  0  0
    7.4090   -2.9830   23.6580 C   0  0  0  0  0  0  0  0  0  0  0  0
    6.0360   -3.5580   23.8950 C   0  0  0  0  0  0  0  0  0  0  0  0
    5.4820   -3.1540   25.1980 C   0  0  0  0  0  0  0  0  0  0  0  0
    4.2850   -2.8010   25.2220 O   0  0  0  0  0  0  0  0  0  0  0  0
    6.2500   -3.1720   26.3780 N   0  0  0  0  0  0  0  0  0  0  0  0
    6.6700   -1.8910   26.8890 C   0  0  0  0  0  0  0  0  0  0  0  0
    5.8940   -4.2310   27.3090 C   0  0  0  0  0  0  0  0  0  0  0  0
    6.3880   -3.9850   28.5020 C   0  0  0  0  0  0  0  0  0  0  0  0
    5.1540   -3.9960   28.8710 C   0  0  0  0  0  0  0  0  0  0  0  0
    4.4130   -4.2230   27.6710 C   0  0  0  0  0  0  0  0  0  0  0  0
    6.0160   -5.0210   23.7040 C   0  0  0  0  0  0  0  0  0  0  0  0
    6.6180   -5.3860   22.3820 C   0  0  0  0  0  0  0  0  0  0  0  0
  1  2  1  0
  2  3  2  0
  2  4  1  0
  4  5  1  0
  5  6  1  0
  6  7  1  0
  7  8  1  0
  8  9  2  0
  8 10  1  0
 10 11  1  0
 10 12  1  0
 12 13  1  0
 13 14  1  0
 12 15  1  0
 14 15  1  0
  7 16  1  0
  4 17  1  0
 16 17  1  0
M  END
