piperidine-amides-19158-covalent
     RDKit          3D

 21 22  0  0  0  0  0  0  0  0999 V2000
    7.0650   -3.4320   19.3320 C   0  0  0  0  0  0  0  0  0  0  0  0
    6.4340   -4.2410   20.3490 C   0  0  0  0  0  0  0  0  0  0  0  0
    5.3980   -4.8880   20.0030 O   0  0  0  0  0  0  0  0  0  0  0  0
    6.9570   -4.3810   21.6570 N   0  0  0  0  0  0  0  0  0  0  0  0
    6.5080   -5.5390   22.4550 C   0  0  0  0  0  0  0  0  0  0  0  0
    5.5800   -4.8190   23.5180 C   0  0  0  0  0  0  0  0  0  0  0  0
    6.3690   -3.6600   24.1050 C   0  0  0  0  0  0  0  0  0  0  0  0
    5.6090   -3.0860   25.3790 C   0  0  0  0  0  0  0  0  0  0  0  0
    5.3460   -1.9140   25.2000 O   0  0  0  0  0  0  0  0  0  0  0  0
    5.4300   -3.9650   26.2710 N   0  0  0  0  0  0  0  0  0  0  0  0
    4.7970   -5.0000   26.9070 C   0  0  0  0  0  0  0  0  0  0  0  0
    4.6010   -5.5150   28.1620 C   0  0  0  0  0  0  0  0  0  0  0  0
    3.5480   -5.0230   28.9700 C   0  0  0  0  0  0  0  0  0  0  0  0
    4.6710   -7.0560   28.2010 C   0  0  0  0  0  0  0  0  0  0  0  0
    5.5870   -4.9970   29.1250 C   0  0  0  0  0  0  0  0  0  0  0  0
    6.5630   -4.7180   28.2640 C   0  0  0  0  0  0  0  0  0  0  0  0
    6.7680   -5.9680   27.7050 F   0  0  0  0  0  0  0  0  0  0  0  0
    7.6670   -4.4760   29.0080 F   0  0  0  0  0  0  0  0  0  0  0  0
    6.2150   -3.6430   27.4370 C   0  0  0  0  0  0  0  0  0  0  0  0
    6.8990   -2.6710   23.2110 C   0  0  0  0  0  0  0  0  0  0  0  0
    7.8350   -3.4930   22.3030 C   0  0  0  0  0  0  0  0  0  0  0  0
  1  2  1  0
  2  3  2  0
  2  4  1  0
  4  5  1  0
  5  6  1  0
  6  7  1  0
  7  8  1  0
  8  9  2  0
  8 10  1  0
 10 11  1  0
 11 12  1  0
 12 13  1  0
 12 14  1  0
 12 15  1  0
 15 16  1  0
 16 17  1  0
 16 18  1  0
 10 19  1  0
 16 19  1  0
  7 20  1  0
  4 21  1  0
 20 21  1  0
M  END
