piperidine-amides-7024-covalent
     RDKit          3D

 22 23  0  0  0  0  0  0  0  0999 V2000
    7.0520   -3.3170   19.3360 C   0  0  0  0  0  0  0  0  0  0  0  0
    6.3690   -4.1730   20.3200 C   0  0  0  0  0  0  0  0  0  0  0  0
    5.3750   -4.8520   19.9790 O   0  0  0  0  0  0  0  0  0  0  0  0
    6.8490   -4.2700   21.6340 N   0  0  0  0  0  0  0  0  0  0  0  0
    7.6650   -3.1860   22.1700 C   0  0  0  0  0  0  0  0  0  0  0  0
    7.4670   -3.0830   23.6900 C   0  0  0  0  0  0  0  0  0  0  0  0
    6.0900   -3.6170   23.9770 C   0  0  0  0  0  0  0  0  0  0  0  0
    5.6610   -3.2440   25.3370 C   0  0  0  0  0  0  0  0  0  0  0  0
    4.4480   -3.3330   25.6190 O   0  0  0  0  0  0  0  0  0  0  0  0
    6.6140   -2.7910   26.2750 N   0  0  0  0  0  0  0  0  0  0  0  0
    6.4370   -1.5170   26.9110 C   0  0  0  0  0  0  0  0  0  0  0  0
    5.8000   -0.4200   26.0920 C   0  0  0  0  0  0  0  0  0  0  0  0
    5.6790    0.7980   26.8670 N   0  0  0  0  0  0  0  0  0  0  0  0
    6.0920    1.0060   28.2460 C   0  0  0  0  0  0  0  0  0  0  0  0
    6.6600   -0.0560   28.8970 C   0  0  0  0  0  0  0  0  0  0  0  0
    7.1750    0.1410   30.5780 S   0  0  0  0  0  0  0  0  0  0  0  0
    7.1880    1.7630   30.9950 N   0  0  0  0  0  0  0  0  0  0  0  0
    6.2070   -0.5830   31.4750 O   0  0  0  0  0  0  0  0  0  0  0  0
    8.5800   -0.3420   30.7430 O   0  0  0  0  0  0  0  0  0  0  0  0
    6.8740   -1.3220   28.3390 C   0  0  0  0  0  0  0  0  0  0  0  0
    6.0110   -5.0780   23.7550 C   0  0  0  0  0  0  0  0  0  0  0  0
    6.6100   -5.4570   22.4250 C   0  0  0  0  0  0  0  0  0  0  0  0
  1  2  1  0
  2  3  2  0
  2  4  1  0
  4  5  1  0
  5  6  1  0
  6  7  1  0
  7  8  1  0
  8  9  2  0
  8 10  1  0
 10 11  1  0
 11 12  2  0
 12 13  1  0
 13 14  2  0
 14 15  1  0
 15 16  1  0
 16 17  1  0
 16 18  2  0
 16 19  2  0
 11 20  1  0
 15 20  2  0
  7 21  1  0
  4 22  1  0
 21 22  1  0
M  END
