piperidine-amides-4393-covalent
     RDKit          3D

 25 27  0  0  0  0  0  0  0  0999 V2000
    7.0530   -3.3440   19.3320 C   0  0  0  0  0  0  0  0  0  0  0  0
    6.3980   -4.1870   20.3440 C   0  0  0  0  0  0  0  0  0  0  0  0
    5.3780   -4.8180   19.9770 O   0  0  0  0  0  0  0  0  0  0  0  0
    6.9330   -4.3100   21.6570 N   0  0  0  0  0  0  0  0  0  0  0  0
    6.6050   -5.4640   22.4210 C   0  0  0  0  0  0  0  0  0  0  0  0
    6.0350   -5.1230   23.7130 C   0  0  0  0  0  0  0  0  0  0  0  0
    6.1560   -3.6880   24.0010 C   0  0  0  0  0  0  0  0  0  0  0  0
    5.6800   -3.3540   25.3860 C   0  0  0  0  0  0  0  0  0  0  0  0
    4.5140   -3.6550   25.6960 O   0  0  0  0  0  0  0  0  0  0  0  0
    6.4730   -2.6920   26.3440 N   0  0  0  0  0  0  0  0  0  0  0  0
    6.0750   -1.5660   27.1020 C   0  0  2  0  0  0  0  0  0  0  0  0
    5.8770   -0.3080   26.3840 C   0  0  0  0  0  0  0  0  0  0  0  0
    5.4490    0.7910   27.3680 C   0  0  0  0  0  0  0  0  0  0  0  0
    6.2420    0.8950   28.4880 C   0  0  0  0  0  0  0  0  0  0  0  0
    6.5190   -0.3180   29.1290 N   0  0  0  0  0  0  0  0  0  0  0  0
    6.4840   -0.2700   30.5490 C   0  0  0  0  0  0  0  0  0  0  0  0
    7.6170   -0.1620   31.3430 O   0  0  0  0  0  0  0  0  0  0  0  0
    5.1430   -0.3400   31.0560 N   0  0  0  0  0  0  0  0  0  0  0  0
    4.0430   -0.0790   30.2690 C   0  0  0  0  0  0  0  0  0  0  0  0
    3.2050    0.6310   31.3450 C   0  0  0  0  0  0  0  0  0  0  0  0
    3.7050    0.4820   32.7400 C   0  0  0  0  0  0  0  0  0  0  0  0
    4.9400   -0.3550   32.5470 C   0  0  0  0  0  0  0  0  0  0  0  0
    7.0000   -1.3500   28.2870 C   0  0  0  0  0  0  0  0  0  0  0  0
    7.5340   -3.2320   23.6640 C   0  0  0  0  0  0  0  0  0  0  0  0
    7.6680   -3.2030   22.2650 C   0  0  0  0  0  0  0  0  0  0  0  0
  1  2  1  0
  2  3  2  0
  2  4  1  0
  4  5  1  0
  5  6  1  0
  6  7  1  0
  7  8  1  0
  8  9  2  0
  8 10  1  0
 11 10  1  6
 11 12  1  0
 12 13  1  0
 13 14  1  0
 14 15  1  0
 15 16  1  0
 16 17  2  0
 16 18  1  0
 18 19  1  0
 19 20  1  0
 20 21  1  0
 18 22  1  0
 21 22  1  0
 11 23  1  0
 15 23  1  0
  7 24  1  0
  4 25  1  0
 24 25  1  0
M  END
