piperidine-amides-12864-covalent
     RDKit          3D

 21 22  0  0  0  0  0  0  0  0999 V2000
    7.1150   -3.2770   19.2470 C   0  0  0  0  0  0  0  0  0  0  0  0
    6.3760   -4.0620   20.2600 C   0  0  0  0  0  0  0  0  0  0  0  0
    5.2980   -4.5720   19.8930 O   0  0  0  0  0  0  0  0  0  0  0  0
    6.9080   -4.2530   21.5420 N   0  0  0  0  0  0  0  0  0  0  0  0
    6.4750   -5.3420   22.3450 C   0  0  0  0  0  0  0  0  0  0  0  0
    5.7370   -4.9250   23.5420 C   0  0  0  0  0  0  0  0  0  0  0  0
    5.6430   -3.4550   23.7580 C   0  0  0  0  0  0  0  0  0  0  0  0
    5.1390   -3.1470   25.1280 C   0  0  0  0  0  0  0  0  0  0  0  0
    3.9290   -3.3340   25.3390 O   0  0  0  0  0  0  0  0  0  0  0  0
    5.9400   -2.6620   26.1790 N   0  0  0  0  0  0  0  0  0  0  0  0
    6.3820   -3.5230   27.2890 C   0  0  1  0  0  0  0  0  0  0  0  0
    5.5880   -4.7870   27.4280 C   0  0  0  0  0  0  0  0  0  0  0  0
    7.7370   -3.8980   27.0240 C   0  0  1  0  0  0  0  0  0  0  0  0
    8.2680   -4.6120   28.0820 C   0  0  0  0  0  0  0  0  0  0  0  0
    9.0080   -5.7410   27.8720 C   0  0  0  0  0  0  0  0  0  0  0  0
    9.2360   -6.0920   26.6060 C   0  0  0  0  0  0  0  0  0  0  0  0
    8.2780   -5.7100   25.7620 C   0  0  0  0  0  0  0  0  0  0  0  0
    7.9590   -4.4220   25.7630 C   0  0  2  0  0  0  0  0  0  0  0  0
    8.9230   -3.6260   25.1730 C   0  0  0  0  0  0  0  0  0  0  0  0
    6.8350   -2.6410   23.3820 C   0  0  0  0  0  0  0  0  0  0  0  0
    7.6460   -3.2120   22.2420 C   0  0  0  0  0  0  0  0  0  0  0  0
  1  2  1  0
  2  3  2  0
  2  4  1  0
  4  5  1  0
  5  6  1  0
  6  7  1  0
  7  8  1  0
  8  9  2  0
  8 10  1  0
 10 11  1  0
 11 12  1  6
 11 13  1  0
 13 14  1  1
 14 15  1  0
 15 16  1  0
 16 17  1  0
 13 18  1  0
 17 18  1  0
 18 19  1  1
  7 20  1  0
  4 21  1  0
 20 21  1  0
M  END
