piperidine-amides-6326-covalent
     RDKit          3D

 25 27  0  0  0  0  0  0  0  0999 V2000
    7.1230   -3.2840   19.2610 C   0  0  0  0  0  0  0  0  0  0  0  0
    6.3470   -4.0510   20.2480 C   0  0  0  0  0  0  0  0  0  0  0  0
    5.2920   -4.6290   19.9120 O   0  0  0  0  0  0  0  0  0  0  0  0
    6.8100   -4.1800   21.5640 N   0  0  0  0  0  0  0  0  0  0  0  0
    7.6750   -3.1430   22.0990 C   0  0  0  0  0  0  0  0  0  0  0  0
    7.4720   -3.0860   23.6180 C   0  0  0  0  0  0  0  0  0  0  0  0
    6.0870   -3.6200   23.8690 C   0  0  0  0  0  0  0  0  0  0  0  0
    5.6230   -3.2990   25.2270 C   0  0  0  0  0  0  0  0  0  0  0  0
    4.4190   -3.4870   25.4960 O   0  0  0  0  0  0  0  0  0  0  0  0
    6.5280   -2.7840   26.1760 N   0  0  0  0  0  0  0  0  0  0  0  0
    6.2780   -1.5120   26.7780 C   0  0  0  0  0  0  0  0  0  0  0  0
    5.6560   -1.7430   28.1430 C   0  0  1  0  0  0  0  0  0  0  0  0
    6.4270   -2.1710   29.1750 C   0  0  0  0  0  0  0  0  0  0  0  0
    7.0010   -1.0990   29.7450 C   0  0  0  0  0  0  0  0  0  0  0  0
    6.3900    0.0690   29.3480 C   0  0  0  0  0  0  0  0  0  0  0  0
    5.3030   -0.4070   28.6840 N   0  0  0  0  0  0  0  0  0  0  0  0
    3.9890    0.0770   28.9640 C   0  0  0  0  0  0  0  0  0  0  0  0
    3.8350    1.6460   28.8390 C   0  0  0  0  0  0  0  0  0  0  0  0
    2.3410    1.8030   29.2040 C   0  0  0  0  0  0  0  0  0  0  0  0
    1.4700    0.6710   29.5440 C   0  0  0  0  0  0  0  0  0  0  0  0
    0.3900    1.6440   29.7210 C   0  0  0  0  0  0  0  0  0  0  0  0
    1.7610   -0.6310   29.6030 C   0  0  0  0  0  0  0  0  0  0  0  0
    3.0260   -0.8910   29.3090 C   0  0  0  0  0  0  0  0  0  0  0  0
    6.0580   -5.1190   23.6570 C   0  0  0  0  0  0  0  0  0  0  0  0
    6.5770   -5.4110   22.2730 C   0  0  0  0  0  0  0  0  0  0  0  0
  1  2  1  0
  2  3  2  0
  2  4  1  0
  4  5  1  0
  5  6  1  0
  6  7  1  0
  7  8  1  0
  8  9  2  0
  8 10  1  0
 10 11  1  0
 12 11  1  6
 12 13  1  0
 13 14  1  0
 14 15  1  0
 12 16  1  0
 15 16  1  0
 16 17  1  0
 17 18  2  0
 18 19  1  0
 19 20  2  0
 20 21  1  0
 20 22  1  0
 17 23  1  0
 22 23  2  0
  7 24  1  0
  4 25  1  0
 24 25  1  0
M  END
