piperidine-amides-34881-covalent
     RDKit          3D

 31 33  0  0  0  0  0  0  0  0999 V2000
    7.0460   -3.3680   19.3560 C   0  0  0  0  0  0  0  0  0  0  0  0
    6.4080   -4.2500   20.3630 C   0  0  0  0  0  0  0  0  0  0  0  0
    5.4070   -4.8690   19.9950 O   0  0  0  0  0  0  0  0  0  0  0  0
    6.9760   -4.3810   21.6380 N   0  0  0  0  0  0  0  0  0  0  0  0
    7.7470   -3.2940   22.2140 C   0  0  0  0  0  0  0  0  0  0  0  0
    7.3730   -3.1110   23.6550 C   0  0  0  0  0  0  0  0  0  0  0  0
    5.9900   -3.7250   23.8530 C   0  0  0  0  0  0  0  0  0  0  0  0
    5.3940   -3.2650   25.1220 C   0  0  0  0  0  0  0  0  0  0  0  0
    4.6270   -2.3020   25.0790 O   0  0  0  0  0  0  0  0  0  0  0  0
    5.6190   -3.8580   26.3630 N   0  0  0  0  0  0  0  0  0  0  0  0
    6.4470   -3.1330   27.2310 C   0  0  0  0  0  0  0  0  0  0  0  0
    6.6970   -4.1130   28.3540 C   0  0  0  0  0  0  0  0  0  0  0  0
    5.7960   -4.2130   29.3190 C   0  0  1  0  0  0  0  0  0  0  0  0
    5.3740   -2.9970   29.7540 C   0  0  0  0  0  0  0  0  0  0  0  0
    4.1510   -2.8510   30.2910 C   0  0  0  0  0  0  0  0  0  0  0  0
    3.4590   -1.6360   30.8430 C   0  0  0  0  0  0  0  0  0  0  0  0
    4.3360   -0.4100   30.7510 C   0  0  0  0  0  0  0  0  0  0  0  0
    5.7380   -0.5050   30.1490 C   0  0  0  0  0  0  0  0  0  0  0  0
    6.5230    0.6100   30.0680 F   0  0  0  0  0  0  0  0  0  0  0  0
    6.1500   -1.8670   29.6790 C   0  0  0  0  0  0  0  0  0  0  0  0
    5.0170   -5.0060   28.4970 C   0  0  1  0  0  0  0  0  0  0  0  0
    4.0350   -5.5770   29.3200 N   0  0  0  0  0  0  0  0  0  0  0  0
    3.0070   -6.4180   28.8120 C   0  0  0  0  0  0  0  0  0  0  0  0
    2.8830   -6.8680   27.5030 O   0  0  0  0  0  0  0  0  0  0  0  0
    1.9620   -6.8430   29.7930 C   0  0  0  0  0  0  0  0  0  0  0  0
    2.2410   -6.4060   31.0770 F   0  0  0  0  0  0  0  0  0  0  0  0
    1.8480   -8.2130   29.7570 F   0  0  0  0  0  0  0  0  0  0  0  0
    0.7790   -6.2360   29.4090 F   0  0  0  0  0  0  0  0  0  0  0  0
    4.5570   -4.2430   27.2560 C   0  0  0  0  0  0  0  0  0  0  0  0
    6.1430   -5.2150   23.7510 C   0  0  0  0  0  0  0  0  0  0  0  0
    6.6680   -5.5740   22.3880 C   0  0  0  0  0  0  0  0  0  0  0  0
  1  2  1  0
  2  3  2  0
  2  4  1  0
  4  5  1  0
  5  6  1  0
  6  7  1  0
  7  8  1  0
  8  9  2  0
  8 10  1  0
 10 11  1  0
 11 12  1  0
 12 13  1  0
 13 14  1  6
 14 15  2  0
 15 16  1  0
 16 17  2  0
 17 18  1  0
 18 19  1  0
 14 20  1  0
 18 20  2  0
 13 21  1  0
 21 22  1  1
 22 23  1  0
 23 24  2  0
 23 25  1  0
 25 26  1  0
 25 27  1  0
 25 28  1  0
 10 29  1  0
 21 29  1  0
  7 30  1  0
  4 31  1  0
 30 31  1  0
M  END
