piperidine-amides-33203-covalent
     RDKit          3D

 25 27  0  0  0  0  0  0  0  0999 V2000
    7.1350   -3.3400   19.3020 C   0  0  0  0  0  0  0  0  0  0  0  0
    6.4670   -4.1730   20.3080 C   0  0  0  0  0  0  0  0  0  0  0  0
    5.3960   -4.7400   19.9650 O   0  0  0  0  0  0  0  0  0  0  0  0
    7.0650   -4.3700   21.5800 N   0  0  0  0  0  0  0  0  0  0  0  0
    6.7260   -5.5310   22.3270 C   0  0  0  0  0  0  0  0  0  0  0  0
    6.2160   -5.2130   23.6490 C   0  0  0  0  0  0  0  0  0  0  0  0
    6.0210   -3.7670   23.8370 C   0  0  0  0  0  0  0  0  0  0  0  0
    5.2890   -3.4160   25.0910 C   0  0  0  0  0  0  0  0  0  0  0  0
    4.3230   -2.6390   25.0150 O   0  0  0  0  0  0  0  0  0  0  0  0
    5.6260   -3.8940   26.3540 N   0  0  0  0  0  0  0  0  0  0  0  0
    5.1000   -5.0440   27.0010 C   0  0  0  0  0  0  0  0  0  0  0  0
    4.3900   -6.1760   26.4080 C   0  0  0  0  0  0  0  0  0  0  0  0
    4.0050   -6.3310   24.5750 Br  0  0  0  0  0  0  0  0  0  0  0  0
    3.9520   -7.2780   27.4040 C   0  0  0  0  0  0  0  0  0  0  0  0
    4.0970   -7.4190   28.7890 C   0  0  0  0  0  0  0  0  0  0  0  0
    4.8250   -6.2770   29.5080 C   0  0  0  0  0  0  0  0  0  0  0  0
    5.1880   -5.3000   28.4700 C   0  0  0  0  0  0  0  0  0  0  0  0
    5.9110   -4.0770   29.0020 C   0  0  2  0  0  0  0  0  0  0  0  0
    5.0330   -2.9080   29.3970 C   0  0  0  0  0  0  0  0  0  0  0  0
    6.9960   -3.5970   28.1710 C   0  0  0  0  0  0  0  0  0  0  0  0
    6.1620   -2.8810   27.1430 C   0  0  0  0  0  0  0  0  0  0  0  0
    6.9880   -1.8550   26.4600 C   0  0  0  0  0  0  0  0  0  0  0  0
    5.0820   -2.1900   27.6460 C   0  0  0  0  0  0  0  0  0  0  0  0
    7.2350   -2.9610   23.5640 C   0  0  0  0  0  0  0  0  0  0  0  0
    7.7760   -3.2650   22.1940 C   0  0  0  0  0  0  0  0  0  0  0  0
  1  2  1  0
  2  3  2  0
  2  4  1  0
  4  5  1  0
  5  6  1  0
  6  7  1  0
  7  8  1  0
  8  9  2  0
  8 10  1  0
 10 11  1  0
 11 12  2  0
 12 13  1  0
 12 14  1  0
 14 15  2  0
 15 16  1  0
 11 17  1  0
 16 17  2  0
 17 18  1  0
 18 19  1  6
 18 20  1  0
 10 21  1  0
 20 21  1  0
 21 22  1  0
 21 23  1  0
  7 24  1  0
  4 25  1  0
 24 25  1  0
M  END
