piperidine-amides-29082-covalent
     RDKit          3D

 26 28  0  0  0  0  0  0  0  0999 V2000
    7.0340   -3.3490   19.4160 C   0  0  0  0  0  0  0  0  0  0  0  0
    6.3960   -4.2240   20.3980 C   0  0  0  0  0  0  0  0  0  0  0  0
    5.4150   -4.8830   20.0020 O   0  0  0  0  0  0  0  0  0  0  0  0
    6.9020   -4.3550   21.7350 N   0  0  0  0  0  0  0  0  0  0  0  0
    6.5820   -5.5730   22.4390 C   0  0  0  0  0  0  0  0  0  0  0  0
    6.5160   -5.3450   23.9340 C   0  0  0  0  0  0  0  0  0  0  0  0
    6.1350   -3.9060   24.1780 C   0  0  0  0  0  0  0  0  0  0  0  0
    5.4810   -3.6700   25.5430 C   0  0  0  0  0  0  0  0  0  0  0  0
    4.2640   -3.7880   25.4610 O   0  0  0  0  0  0  0  0  0  0  0  0
    6.0750   -3.3160   26.7880 N   0  0  0  0  0  0  0  0  0  0  0  0
    5.1190   -2.9860   27.8170 C   0  0  0  0  0  0  0  0  0  0  0  0
    4.2600   -4.0240   28.3340 C   0  0  0  0  0  0  0  0  0  0  0  0
    5.0930   -5.1640   28.7780 N   0  0  0  0  0  0  0  0  0  0  0  0
    4.9480   -6.0630   29.8600 C   0  0  0  0  0  0  0  0  0  0  0  0
    4.5690   -7.3700   29.6000 C   0  0  0  0  0  0  0  0  0  0  0  0
    3.4090   -7.5890   30.5270 C   0  0  0  0  0  0  0  0  0  0  0  0
    3.9090   -7.7200   31.7770 N   0  0  0  0  0  0  0  0  0  0  0  0
    5.1570   -7.6070   32.2660 C   0  0  0  0  0  0  0  0  0  0  0  0
    5.2630   -8.3360   33.5710 C   0  0  0  0  0  0  0  0  0  0  0  0
    4.1280   -8.8250   33.8830 O   0  0  0  0  0  0  0  0  0  0  0  0
    3.2960   -8.5000   32.8150 C   0  0  0  0  0  0  0  0  0  0  0  0
    2.1100   -8.9080   32.8550 O   0  0  0  0  0  0  0  0  0  0  0  0
    6.4200   -5.0830   28.3690 C   0  0  0  0  0  0  0  0  0  0  0  0
    6.6050   -3.7880   28.0450 C   0  0  0  0  0  0  0  0  0  0  0  0
    7.3270   -3.0910   23.8130 C   0  0  0  0  0  0  0  0  0  0  0  0
    7.6310   -3.2410   22.3360 C   0  0  0  0  0  0  0  0  0  0  0  0
  1  2  1  0
  2  3  2  0
  2  4  1  0
  4  5  1  0
  5  6  1  0
  6  7  1  0
  7  8  1  0
  8  9  2  0
  8 10  1  0
 10 11  1  0
 11 12  1  0
 12 13  1  0
 13 14  1  0
 14 15  1  0
 15 16  1  0
 16 17  1  0
 17 18  1  0
 18 19  1  0
 19 20  1  0
 17 21  1  0
 20 21  1  0
 21 22  2  0
 13 23  1  0
 10 24  1  0
 23 24  1  0
  7 25  1  0
  4 26  1  0
 25 26  1  0
M  END
