piperidine-amides-25048-covalent
     RDKit          3D

 24 26  0  0  0  0  0  0  0  0999 V2000
    7.0500   -3.3350   19.3500 C   0  0  0  0  0  0  0  0  0  0  0  0
    6.3770   -4.2090   20.3500 C   0  0  0  0  0  0  0  0  0  0  0  0
    5.3760   -4.8160   19.9710 O   0  0  0  0  0  0  0  0  0  0  0  0
    6.8990   -4.3520   21.6410 N   0  0  0  0  0  0  0  0  0  0  0  0
    6.7770   -5.6220   22.3260 C   0  0  0  0  0  0  0  0  0  0  0  0
    6.2260   -5.4010   23.6980 C   0  0  0  0  0  0  0  0  0  0  0  0
    6.1540   -3.9060   23.9400 C   0  0  0  0  0  0  0  0  0  0  0  0
    5.5400   -3.6680   25.2580 C   0  0  0  0  0  0  0  0  0  0  0  0
    4.5140   -2.9830   25.3090 O   0  0  0  0  0  0  0  0  0  0  0  0
    6.0640   -4.1750   26.4590 N   0  0  0  0  0  0  0  0  0  0  0  0
    5.2740   -5.1910   27.0940 C   0  0  0  0  0  0  0  0  0  0  0  0
    4.7420   -4.4040   28.1960 C   0  0  0  0  0  0  0  0  0  0  0  0
    5.4900   -3.3340   28.3750 C   0  0  0  0  0  0  0  0  0  0  0  0
    5.3840   -2.4400   29.5320 C   0  0  0  0  0  0  0  0  0  0  0  0
    6.2350   -1.3300   29.6850 C   0  0  0  0  0  0  0  0  0  0  0  0
    6.7620   -0.0980   30.3960 C   0  0  0  0  0  0  0  0  0  0  0  0
    6.4920    1.1130   29.7450 F   0  0  0  0  0  0  0  0  0  0  0  0
    8.1380   -0.0740   30.6250 F   0  0  0  0  0  0  0  0  0  0  0  0
    6.1590   -0.0430   31.6310 F   0  0  0  0  0  0  0  0  0  0  0  0
    7.1770   -1.1090   28.7190 C   0  0  0  0  0  0  0  0  0  0  0  0
    6.4650   -2.2660   28.3060 C   0  0  0  0  0  0  0  0  0  0  0  0
    6.5670   -3.0290   27.2160 C   0  0  0  0  0  0  0  0  0  0  0  0
    7.4700   -3.2380   23.7010 C   0  0  0  0  0  0  0  0  0  0  0  0
    7.7070   -3.2690   22.2010 C   0  0  0  0  0  0  0  0  0  0  0  0
  1  2  1  0
  2  3  2  0
  2  4  1  0
  4  5  1  0
  5  6  1  0
  6  7  1  0
  7  8  1  0
  8  9  2  0
  8 10  1  0
 10 11  1  0
 11 12  1  0
 12 13  1  0
 13 14  1  0
 14 15  2  0
 15 16  1  0
 16 17  1  0
 16 18  1  0
 16 19  1  0
 15 20  1  0
 20 21  2  0
 10 22  1  0
 13 22  2  0
 21 22  1  0
  7 23  1  0
  4 24  1  0
 23 24  1  0
M  END
