piperidine-amides-24186-covalent
     RDKit          3D

 24 26  0  0  0  0  0  0  0  0999 V2000
    7.0280   -3.3460   19.3970 C   0  0  0  0  0  0  0  0  0  0  0  0
    6.3730   -4.2340   20.3730 C   0  0  0  0  0  0  0  0  0  0  0  0
    5.4180   -4.9550   20.0060 O   0  0  0  0  0  0  0  0  0  0  0  0
    6.8310   -4.3090   21.7030 N   0  0  0  0  0  0  0  0  0  0  0  0
    6.6110   -5.5320   22.4670 C   0  0  0  0  0  0  0  0  0  0  0  0
    6.1840   -5.1980   23.9260 C   0  0  0  0  0  0  0  0  0  0  0  0
    6.1850   -3.6940   24.0900 C   0  0  0  0  0  0  0  0  0  0  0  0
    5.8280   -3.2110   25.4600 C   0  0  0  0  0  0  0  0  0  0  0  0
    5.6310   -1.9920   25.5820 O   0  0  0  0  0  0  0  0  0  0  0  0
    5.6410   -4.0550   26.5910 N   0  0  0  0  0  0  0  0  0  0  0  0
    6.3300   -3.8170   27.8090 C   0  0  0  0  0  0  0  0  0  0  0  0
    6.5310   -5.1810   28.4440 C   0  0  0  0  0  0  0  0  0  0  0  0
    5.1870   -5.5870   28.7600 N   0  0  0  0  0  0  0  0  0  0  0  0
    4.8550   -6.7630   29.5570 C   0  0  0  0  0  0  0  0  0  0  0  0
    5.1080   -6.3280   30.8210 C   0  0  0  0  0  0  0  0  0  0  0  0
    4.9800   -7.1730   31.8480 N   0  0  0  0  0  0  0  0  0  0  0  0
    3.9100   -7.1410   32.8300 C   0  0  0  0  0  0  0  0  0  0  0  0
    4.0340   -8.1190   33.7720 N   0  0  0  0  0  0  0  0  0  0  0  0
    5.1780   -8.7330   33.3530 C   0  0  0  0  0  0  0  0  0  0  0  0
    5.7720   -8.2440   32.2570 N   0  0  0  0  0  0  0  0  0  0  0  0
    4.2260   -4.6820   28.5630 C   0  0  0  0  0  0  0  0  0  0  0  0
    4.3140   -4.3280   27.0870 C   0  0  0  0  0  0  0  0  0  0  0  0
    7.4350   -3.0590   23.6610 C   0  0  0  0  0  0  0  0  0  0  0  0
    7.6560   -3.2780   22.2460 C   0  0  0  0  0  0  0  0  0  0  0  0
  1  2  1  0
  2  3  2  0
  2  4  1  0
  4  5  1  0
  5  6  1  0
  6  7  1  0
  7  8  1  0
  8  9  2  0
  8 10  1  0
 10 11  1  0
 11 12  1  0
 12 13  1  0
 13 14  1  0
 14 15  1  0
 15 16  1  0
 16 17  1  0
 17 18  2  0
 18 19  1  0
 16 20  1  0
 19 20  2  0
 13 21  1  0
 10 22  1  0
 21 22  1  0
  7 23  1  0
  4 24  1  0
 23 24  1  0
M  END
