piperidine-amides-25314-covalent
     RDKit          3D

 25 27  0  0  0  0  0  0  0  0999 V2000
    7.1390   -3.2630   19.2010 C   0  0  0  0  0  0  0  0  0  0  0  0
    6.3920   -4.0430   20.2170 C   0  0  0  0  0  0  0  0  0  0  0  0
    5.3020   -4.4970   19.8720 O   0  0  0  0  0  0  0  0  0  0  0  0
    6.9400   -4.3030   21.4740 N   0  0  0  0  0  0  0  0  0  0  0  0
    6.4810   -5.4130   22.2510 C   0  0  0  0  0  0  0  0  0  0  0  0
    5.5500   -4.8770   23.2920 C   0  0  0  0  0  0  0  0  0  0  0  0
    6.2350   -3.7060   24.0100 C   0  0  0  0  0  0  0  0  0  0  0  0
    5.2510   -2.9760   24.8260 C   0  0  0  0  0  0  0  0  0  0  0  0
    4.0410   -3.1880   24.7090 O   0  0  0  0  0  0  0  0  0  0  0  0
    5.7110   -2.0350   25.7470 N   0  0  0  0  0  0  0  0  0  0  0  0
    5.6010   -0.6470   25.4400 C   0  0  0  0  0  0  0  0  0  0  0  0
    6.8100   -2.4310   26.4650 C   0  0  0  0  0  0  0  0  0  0  0  0
    6.4250   -3.0770   27.5650 C   0  0  0  0  0  0  0  0  0  0  0  0
    6.4090   -2.7980   28.8740 C   0  0  0  0  0  0  0  0  0  0  0  0
    6.8480   -1.6290   29.4290 C   0  0  0  0  0  0  0  0  0  0  0  0
    6.5320   -0.3240   28.7320 C   0  0  0  0  0  0  0  0  0  0  0  0
    5.8950   -3.8090   29.6970 O   0  0  0  0  0  0  0  0  0  0  0  0
    5.5790   -4.7850   28.7470 C   0  0  0  0  0  0  0  0  0  0  0  0
    4.9780   -6.0910   29.2410 C   0  0  0  0  0  0  0  0  0  0  0  0
    4.6630   -7.0750   28.1410 C   0  0  0  0  0  0  0  0  0  0  0  0
    4.9470   -6.7250   26.7220 C   0  0  0  0  0  0  0  0  0  0  0  0
    5.5490   -5.3980   26.3950 C   0  0  0  0  0  0  0  0  0  0  0  0
    5.8440   -4.4580   27.4780 C   0  0  0  0  0  0  0  0  0  0  0  0
    6.8450   -2.6990   23.0460 C   0  0  0  0  0  0  0  0  0  0  0  0
    7.7240   -3.3010   22.1870 C   0  0  0  0  0  0  0  0  0  0  0  0
  1  2  1  0
  2  3  2  0
  2  4  1  0
  4  5  1  0
  5  6  1  0
  6  7  1  0
  7  8  1  0
  8  9  2  0
  8 10  1  0
 10 11  1  0
 10 12  1  0
 12 13  1  0
 13 14  2  0
 14 15  1  0
 15 16  1  0
 14 17  1  0
 17 18  1  0
 18 19  1  0
 19 20  2  0
 20 21  1  0
 21 22  2  0
 13 23  1  0
 18 23  2  0
 22 23  1  0
  7 24  1  0
  4 25  1  0
 24 25  1  0
M  END
