piperidine-amides-28952-covalent
     RDKit          3D

 27 29  0  0  0  0  0  0  0  0999 V2000
    7.0660   -3.3150   19.3090 C   0  0  0  0  0  0  0  0  0  0  0  0
    6.3770   -4.1390   20.3030 C   0  0  0  0  0  0  0  0  0  0  0  0
    5.3450   -4.7290   19.9480 O   0  0  0  0  0  0  0  0  0  0  0  0
    6.8940   -4.2940   21.6170 N   0  0  0  0  0  0  0  0  0  0  0  0
    7.7260   -3.2450   22.1760 C   0  0  0  0  0  0  0  0  0  0  0  0
    7.5170   -3.1390   23.6590 C   0  0  0  0  0  0  0  0  0  0  0  0
    6.1180   -3.6320   23.8730 C   0  0  0  0  0  0  0  0  0  0  0  0
    5.4910   -3.0540   25.1040 C   0  0  0  0  0  0  0  0  0  0  0  0
    4.8010   -2.0700   24.8910 O   0  0  0  0  0  0  0  0  0  0  0  0
    5.6660   -3.5850   26.3800 N   0  0  0  0  0  0  0  0  0  0  0  0
    6.4110   -4.7630   26.7210 C   0  0  0  0  0  0  0  0  0  0  0  0
    5.6820   -5.9330   26.8960 C   0  0  0  0  0  0  0  0  0  0  0  0
    5.1360   -2.7640   27.4770 C   0  0  0  0  0  0  0  0  0  0  0  0
    3.8110   -2.3710   27.2860 C   0  0  0  0  0  0  0  0  0  0  0  0
    3.1380   -3.2160   26.2680 C   0  0  0  0  0  0  0  0  0  0  0  0
    1.6680   -3.0080   25.8410 C   0  0  0  0  0  0  0  0  0  0  0  0
    0.9590   -1.8850   26.5340 C   0  0  0  0  0  0  0  0  0  0  0  0
    1.7750   -1.1090   27.5510 C   0  0  0  0  0  0  0  0  0  0  0  0
    0.9550    0.0290   28.2090 C   0  0  0  0  0  0  0  0  0  0  0  0
   -0.3470   -0.1060   28.6380 C   0  0  0  0  0  0  0  0  0  0  0  0
   -1.1460    0.8380   29.2270 C   0  0  0  0  0  0  0  0  0  0  0  0
   -0.7720    2.0730   29.4820 N   0  0  0  0  0  0  0  0  0  0  0  0
    0.5660    2.4610   29.1210 C   0  0  0  0  0  0  0  0  0  0  0  0
    1.4570    1.4260   28.4710 C   0  0  0  0  0  0  0  0  0  0  0  0
    3.1090   -1.3600   27.8850 C   0  0  0  0  0  0  0  0  0  0  0  0
    6.1250   -5.1370   23.7730 C   0  0  0  0  0  0  0  0  0  0  0  0
    6.6890   -5.5030   22.3910 C   0  0  0  0  0  0  0  0  0  0  0  0
  1  2  1  0
  2  3  2  0
  2  4  1  0
  4  5  1  0
  5  6  1  0
  6  7  1  0
  7  8  1  0
  8  9  2  0
  8 10  1  0
 10 11  1  0
 11 12  1  0
 10 13  1  0
 13 14  1  0
 14 15  2  0
 15 16  1  0
 16 17  2  0
 17 18  1  0
 18 19  1  0
 19 20  2  0
 20 21  1  0
 21 22  2  0
 22 23  1  0
 19 24  1  0
 23 24  2  0
 14 25  1  0
 18 25  2  0
  7 26  1  0
  4 27  1  0
 26 27  1  0
M  END
