piperidine-amides-33816-covalent
     RDKit          3D

 30 32  0  0  0  0  0  0  0  0999 V2000
    7.0960   -3.3840   19.4090 C   0  0  0  0  0  0  0  0  0  0  0  0
    6.4080   -4.2340   20.3860 C   0  0  0  0  0  0  0  0  0  0  0  0
    5.3730   -4.8220   19.9860 O   0  0  0  0  0  0  0  0  0  0  0  0
    6.9390   -4.4230   21.6930 N   0  0  0  0  0  0  0  0  0  0  0  0
    6.4310   -5.4760   22.4900 C   0  0  0  0  0  0  0  0  0  0  0  0
    5.7920   -5.0560   23.7470 C   0  0  0  0  0  0  0  0  0  0  0  0
    6.2670   -3.8010   24.4000 C   0  0  0  0  0  0  0  0  0  0  0  0
    5.2580   -3.2610   25.3960 C   0  0  0  0  0  0  0  0  0  0  0  0
    4.3050   -2.6190   24.9390 O   0  0  0  0  0  0  0  0  0  0  0  0
    5.3410   -3.4430   26.8140 N   0  0  0  0  0  0  0  0  0  0  0  0
    6.4740   -3.5580   27.5260 C   0  0  0  0  0  0  0  0  0  0  0  0
    6.7420   -4.8190   28.2080 C   0  0  0  0  0  0  0  0  0  0  0  0
    5.6320   -5.1920   29.1800 C   0  0  0  0  0  0  0  0  0  0  0  0
    5.7400   -6.1450   30.1760 C   0  0  0  0  0  0  0  0  0  0  0  0
    4.4480   -6.3490   31.0650 C   0  0  0  0  0  0  0  0  0  0  0  0
    3.1690   -5.5380   30.8270 C   0  0  0  0  0  0  0  0  0  0  0  0
    3.2790   -4.5560   29.6730 C   0  0  0  0  0  0  0  0  0  0  0  0
    4.4620   -4.3570   28.8400 C   0  0  0  0  0  0  0  0  0  0  0  0
    4.2930   -3.3020   27.7260 C   0  0  2  0  0  0  0  0  0  0  0  0
    2.8880   -3.2560   27.0750 C   0  0  0  0  0  0  0  0  0  0  0  0
    1.7830   -3.1560   27.9600 N   0  0  0  0  0  0  0  0  0  0  0  0
    0.7530   -2.4070   27.5570 C   0  0  0  0  0  0  0  0  0  0  0  0
    0.7510   -1.7080   26.5090 O   0  0  0  0  0  0  0  0  0  0  0  0
   -0.4030   -2.3790   28.3200 O   0  0  0  0  0  0  0  0  0  0  0  0
   -0.3810   -2.2160   29.7460 C   0  0  0  0  0  0  0  0  0  0  0  0
   -1.3660   -3.0380   30.2540 C   0  0  0  0  0  0  0  0  0  0  0  0
   -0.8050   -0.9410   30.0500 C   0  0  0  0  0  0  0  0  0  0  0  0
    0.8270   -2.5330   30.5560 C   0  0  0  0  0  0  0  0  0  0  0  0
    6.6080   -2.7590   23.3510 C   0  0  0  0  0  0  0  0  0  0  0  0
    7.5980   -3.3310   22.3560 C   0  0  0  0  0  0  0  0  0  0  0  0
  1  2  1  0
  2  3  2  0
  2  4  1  0
  4  5  1  0
  5  6  1  0
  6  7  1  0
  7  8  1  0
  8  9  2  0
  8 10  1  0
 10 11  1  0
 11 12  1  0
 12 13  1  0
 13 14  2  0
 14 15  1  0
 15 16  2  0
 16 17  1  0
 13 18  1  0
 17 18  2  0
 10 19  1  0
 18 19  1  0
 19 20  1  6
 20 21  1  0
 21 22  1  0
 22 23  2  0
 22 24  1  0
 25 24  1  0
 25 26  1  0
 25 27  1  0
 25 28  1  0
  7 29  1  0
  4 30  1  0
 29 30  1  0
M  END
