piperidine-amides-2844-covalent
     RDKit          3D

 24 25  0  0  0  0  0  0  0  0999 V2000
    7.0600   -3.3550   19.3220 C   0  0  0  0  0  0  0  0  0  0  0  0
    6.3170   -4.1280   20.3100 C   0  0  0  0  0  0  0  0  0  0  0  0
    5.3290   -4.7700   19.9610 O   0  0  0  0  0  0  0  0  0  0  0  0
    6.7630   -4.1800   21.6730 N   0  0  0  0  0  0  0  0  0  0  0  0
    7.6890   -3.1860   22.1520 C   0  0  0  0  0  0  0  0  0  0  0  0
    7.6380   -3.1530   23.6410 C   0  0  0  0  0  0  0  0  0  0  0  0
    6.2510   -3.6350   24.0280 C   0  0  0  0  0  0  0  0  0  0  0  0
    6.0280   -3.4260   25.4800 C   0  0  0  0  0  0  0  0  0  0  0  0
    4.9540   -3.7120   26.0440 O   0  0  0  0  0  0  0  0  0  0  0  0
    7.0910   -2.8770   26.2310 N   0  0  0  0  0  0  0  0  0  0  0  0
    6.8610   -1.7360   27.0930 C   0  0  0  0  0  0  0  0  0  0  0  0
    7.4800   -1.6170   28.4510 C   0  0  0  0  0  0  0  0  0  0  0  0
    7.2420   -0.5160   29.2590 C   0  0  0  0  0  0  0  0  0  0  0  0
    6.4080    0.5280   28.8130 C   0  0  0  0  0  0  0  0  0  0  0  0
    6.2630    1.5590   29.7220 F   0  0  0  0  0  0  0  0  0  0  0  0
    5.7830    0.5360   27.5850 C   0  0  0  0  0  0  0  0  0  0  0  0
    5.9730   -0.5790   26.6820 C   0  0  0  0  0  0  0  0  0  0  0  0
    5.3780   -0.5580   25.5640 O   0  0  0  0  0  0  0  0  0  0  0  0
    4.0470   -0.9120   25.7820 C   0  0  0  0  0  0  0  0  0  0  0  0
    3.7800   -1.8860   24.8470 C   0  0  0  0  0  0  0  0  0  0  0  0
    3.6740   -1.4120   27.1680 C   0  0  0  0  0  0  0  0  0  0  0  0
    3.1500    0.2620   25.5510 C   0  0  0  0  0  0  0  0  0  0  0  0
    5.9580   -5.0740   23.6170 C   0  0  0  0  0  0  0  0  0  0  0  0
    6.6270   -5.3950   22.4320 C   0  0  0  0  0  0  0  0  0  0  0  0
  1  2  1  0
  2  3  2  0
  2  4  1  0
  4  5  1  0
  5  6  1  0
  6  7  1  0
  7  8  1  0
  8  9  2  0
  8 10  1  0
 10 11  1  0
 11 12  2  0
 12 13  1  0
 13 14  2  0
 14 15  1  0
 14 16  1  0
 11 17  1  0
 16 17  2  0
 17 18  1  0
 19 18  1  0
 19 20  1  0
 19 21  1  0
 19 22  1  0
  7 23  1  0
  4 24  1  0
 23 24  1  0
M  END
