piperidine-amides-25536-covalent
     RDKit          3D

 25 28  0  0  0  0  0  0  0  0999 V2000
    7.0150   -3.3490   19.3940 C   0  0  0  0  0  0  0  0  0  0  0  0
    6.3670   -4.2430   20.3870 C   0  0  0  0  0  0  0  0  0  0  0  0
    5.3870   -4.8790   19.9900 O   0  0  0  0  0  0  0  0  0  0  0  0
    6.8790   -4.3790   21.6880 N   0  0  0  0  0  0  0  0  0  0  0  0
    6.7670   -5.6350   22.3990 C   0  0  0  0  0  0  0  0  0  0  0  0
    6.2090   -5.3850   23.7710 C   0  0  0  0  0  0  0  0  0  0  0  0
    6.0590   -3.8850   23.9180 C   0  0  0  0  0  0  0  0  0  0  0  0
    5.4920   -3.5140   25.2400 C   0  0  0  0  0  0  0  0  0  0  0  0
    4.4400   -2.8670   25.2340 O   0  0  0  0  0  0  0  0  0  0  0  0
    6.0530   -3.8410   26.4920 N   0  0  0  0  0  0  0  0  0  0  0  0
    5.6570   -5.1730   27.0410 C   0  0  0  0  0  0  0  0  0  0  0  0
    5.0410   -5.1850   28.4540 C   0  0  0  0  0  0  0  0  0  0  0  0
    4.2250   -4.0010   28.4770 N   0  0  0  0  0  0  0  0  0  0  0  0
    2.8620   -3.6520   28.9290 C   0  0  0  0  0  0  0  0  0  0  0  0
    2.6750   -2.3090   28.6510 C   0  0  0  0  0  0  0  0  0  0  0  0
    3.8000   -1.7840   28.0650 C   0  0  0  0  0  0  0  0  0  0  0  0
    4.8310   -2.8570   27.9430 C   0  0  0  0  0  0  0  0  0  0  0  0
    6.1870   -2.7450   27.3740 C   0  0  0  0  0  0  0  0  0  0  0  0
    6.8860   -2.9230   28.6940 C   0  0  0  0  0  0  0  0  0  0  0  0
    5.9880   -2.1490   29.5620 C   0  0  0  0  0  0  0  0  0  0  0  0
    5.7970   -0.7520   29.0720 C   0  0  0  0  0  0  0  0  0  0  0  0
    6.2260   -0.3920   27.6610 C   0  0  0  0  0  0  0  0  0  0  0  0
    6.4420   -1.5390   26.7360 C   0  0  0  0  0  0  0  0  0  0  0  0
    7.3870   -3.2020   23.6470 C   0  0  0  0  0  0  0  0  0  0  0  0
    7.6740   -3.3010   22.2980 C   0  0  0  0  0  0  0  0  0  0  0  0
  1  2  1  0
  2  3  2  0
  2  4  1  0
  4  5  1  0
  5  6  1  0
  6  7  1  0
  7  8  1  0
  8  9  2  0
  8 10  1  0
 10 11  1  0
 11 12  1  0
 12 13  1  0
 13 14  1  0
 14 15  2  0
 15 16  1  0
 13 17  1  0
 16 17  2  0
 18 10  1  0
 17 18  1  0
 18 19  1  0
 19 20  1  0
 20 21  1  0
 21 22  1  0
 18 23  1  0
 22 23  1  0
  7 24  1  0
  4 25  1  0
 24 25  1  0
M  END
