piperidine-amides-27140-covalent
     RDKit          3D

 25 26  0  0  0  0  0  0  0  0999 V2000
    6.9890   -3.1370   19.0400 C   0  0  0  0  0  0  0  0  0  0  0  0
    6.1010   -3.7420   20.0490 C   0  0  0  0  0  0  0  0  0  0  0  0
    5.0450   -4.2660   19.6630 O   0  0  0  0  0  0  0  0  0  0  0  0
    6.3870   -3.7640   21.3920 N   0  0  0  0  0  0  0  0  0  0  0  0
    7.2730   -2.7620   21.9650 C   0  0  0  0  0  0  0  0  0  0  0  0
    6.6740   -2.2000   23.2290 C   0  0  0  0  0  0  0  0  0  0  0  0
    6.1380   -3.3100   24.0740 C   0  0  0  0  0  0  0  0  0  0  0  0
    5.6090   -2.8530   25.3800 C   0  0  0  0  0  0  0  0  0  0  0  0
    4.3840   -2.6280   25.4910 O   0  0  0  0  0  0  0  0  0  0  0  0
    6.4540   -2.6710   26.5030 N   0  0  0  0  0  0  0  0  0  0  0  0
    7.4460   -1.6590   26.5000 C   0  0  0  0  0  0  0  0  0  0  0  0
    6.3170   -3.5170   27.6580 C   0  0  0  0  0  0  0  0  0  0  0  0
    6.9350   -4.7020   27.4230 C   0  0  0  0  0  0  0  0  0  0  0  0
    6.0730   -5.8330   27.3750 O   0  0  0  0  0  0  0  0  0  0  0  0
    8.2760   -4.7240   27.2910 N   0  0  0  0  0  0  0  0  0  0  0  0
    8.8720   -5.2820   28.3050 C   0  0  0  0  0  0  0  0  0  0  0  0
    8.6250   -5.1720   26.1090 C   0  0  0  0  0  0  0  0  0  0  0  0
    7.6580   -5.8770   25.5360 C   0  0  0  0  0  0  0  0  0  0  0  0
    6.6580   -5.2990   24.8260 C   0  0  0  0  0  0  0  0  0  0  0  0
    7.2660   -4.7740   23.7620 N   0  0  0  0  0  0  0  0  0  0  0  0
    7.4270   -5.6500   22.6520 C   0  0  0  0  0  0  0  0  0  0  0  0
    8.3250   -3.9840   24.0070 C   0  0  0  0  0  0  0  0  0  0  0  0
    8.9830   -4.1070   25.3400 C   0  0  0  0  0  0  0  0  0  0  0  0
    5.0720   -4.0320   23.3050 C   0  0  0  0  0  0  0  0  0  0  0  0
    5.6290   -4.7060   22.2380 C   0  0  0  0  0  0  0  0  0  0  0  0
  1  2  1  0
  2  3  2  0
  2  4  1  0
  4  5  1  0
  5  6  1  0
  6  7  1  0
  7  8  1  0
  8  9  2  0
  8 10  1  0
 10 11  1  0
 10 12  1  0
 12 13  1  0
 13 14  2  0
 13 15  1  0
 15 16  1  0
 15 17  1  0
 17 18  1  0
 18 19  1  0
 19 20  1  0
 20 21  1  0
 20 22  1  0
 17 23  1  0
 22 23  1  0
  7 24  1  0
  4 25  1  0
 24 25  1  0
M  END
