piperidine-amides-14063-covalent
     RDKit          3D

 25 25  0  0  0  0  0  0  0  0999 V2000
    7.1360   -3.2640   19.2050 C   0  0  0  0  0  0  0  0  0  0  0  0
    6.3550   -4.0390   20.2100 C   0  0  0  0  0  0  0  0  0  0  0  0
    5.2710   -4.5420   19.8760 O   0  0  0  0  0  0  0  0  0  0  0  0
    6.8890   -4.2370   21.4970 N   0  0  0  0  0  0  0  0  0  0  0  0
    6.5800   -5.3950   22.2880 C   0  0  0  0  0  0  0  0  0  0  0  0
    5.7040   -4.9090   23.4430 C   0  0  0  0  0  0  0  0  0  0  0  0
    6.4960   -3.8850   24.1900 C   0  0  0  0  0  0  0  0  0  0  0  0
    5.7560   -3.3030   25.3260 C   0  0  0  0  0  0  0  0  0  0  0  0
    4.5620   -3.0330   25.1360 O   0  0  0  0  0  0  0  0  0  0  0  0
    6.4150   -3.0790   26.5330 N   0  0  0  0  0  0  0  0  0  0  0  0
    6.1300   -3.6400   27.8060 C   0  0  0  0  0  0  0  0  0  0  0  0
    5.6580   -4.9140   28.0720 C   0  0  2  0  0  0  0  0  0  0  0  0
    6.2600   -5.5800   29.1470 C   0  0  0  0  0  0  0  0  0  0  0  0
    5.4810   -5.8490   30.2590 C   0  0  0  0  0  0  0  0  0  0  0  0
    5.8070   -6.4970   31.3840 O   0  0  0  0  0  0  0  0  0  0  0  0
    4.1940   -5.3630   30.2640 O   0  0  0  0  0  0  0  0  0  0  0  0
    3.0050   -6.1290   30.4850 C   0  0  0  0  0  0  0  0  0  0  0  0
    2.9720   -6.6830   31.9160 C   0  0  0  0  0  0  0  0  0  0  0  0
    2.6640   -8.1700   31.7600 C   0  0  0  0  0  0  0  0  0  0  0  0
    5.5270   -5.7400   26.9830 C   0  0  0  0  0  0  0  0  0  0  0  0
    4.4810   -6.5410   27.6740 C   0  0  0  0  0  0  0  0  0  0  0  0
    3.9510   -7.0780   26.3530 C   0  0  0  0  0  0  0  0  0  0  0  0
    4.9700   -7.5570   28.6760 C   0  0  0  0  0  0  0  0  0  0  0  0
    6.9910   -2.7310   23.3790 C   0  0  0  0  0  0  0  0  0  0  0  0
    7.6920   -3.2000   22.1310 C   0  0  0  0  0  0  0  0  0  0  0  0
  1  2  1  0
  2  3  2  0
  2  4  1  0
  4  5  1  0
  5  6  1  0
  6  7  1  0
  7  8  1  0
  8  9  2  0
  8 10  1  0
 10 11  1  0
 12 11  1  6
 12 13  1  0
 13 14  1  0
 14 15  2  0
 14 16  1  0
 16 17  1  0
 17 18  1  0
 18 19  1  0
 12 20  1  0
 20 21  1  0
 21 22  1  0
 21 23  1  0
  7 24  1  0
  4 25  1  0
 24 25  1  0
M  END
