piperidine-amides-15354-covalent
     RDKit          3D

 17 18  0  0  0  0  0  0  0  0999 V2000
    7.0190   -3.3150   19.3860 C   0  0  0  0  0  0  0  0  0  0  0  0
    6.3360   -4.1810   20.3660 C   0  0  0  0  0  0  0  0  0  0  0  0
    5.3840   -4.8990   19.9890 O   0  0  0  0  0  0  0  0  0  0  0  0
    6.7520   -4.2500   21.7100 N   0  0  0  0  0  0  0  0  0  0  0  0
    6.7200   -5.5520   22.3550 C   0  0  0  0  0  0  0  0  0  0  0  0
    6.2200   -5.3570   23.7890 C   0  0  0  0  0  0  0  0  0  0  0  0
    6.1030   -3.8730   23.9880 C   0  0  0  0  0  0  0  0  0  0  0  0
    5.5820   -3.5580   25.3490 C   0  0  0  0  0  0  0  0  0  0  0  0
    4.3560   -3.3340   25.4590 O   0  0  0  0  0  0  0  0  0  0  0  0
    6.3510   -3.5080   26.5370 N   0  0  0  0  0  0  0  0  0  0  0  0
    7.6970   -4.0750   26.6340 C   0  0  0  0  0  0  0  0  0  0  0  0
    7.5130   -5.0830   27.6900 C   0  0  0  0  0  0  0  0  0  0  0  0
    6.4930   -4.7650   28.4380 C   0  0  0  0  0  0  0  0  0  0  0  0
    6.0590   -5.5220   29.4770 F   0  0  0  0  0  0  0  0  0  0  0  0
    5.9770   -3.5750   27.9900 C   0  0  0  0  0  0  0  0  0  0  0  0
    7.3640   -3.1400   23.6500 C   0  0  0  0  0  0  0  0  0  0  0  0
    7.6240   -3.2250   22.2930 C   0  0  0  0  0  0  0  0  0  0  0  0
  1  2  1  0
  2  3  2  0
  2  4  1  0
  4  5  1  0
  5  6  1  0
  6  7  1  0
  7  8  1  0
  8  9  2  0
  8 10  1  0
 10 11  1  0
 11 12  1  0
 12 13  2  0
 13 14  1  0
 10 15  1  0
 13 15  1  0
  7 16  1  0
  4 17  1  0
 16 17  1  0
M  END
