piperidine-amides-23976-covalent
     RDKit          3D

 24 26  0  0  0  0  0  0  0  0999 V2000
    7.0410   -3.3690   19.3160 C   0  0  0  0  0  0  0  0  0  0  0  0
    6.3590   -4.2280   20.3030 C   0  0  0  0  0  0  0  0  0  0  0  0
    5.3100   -4.8070   19.9520 O   0  0  0  0  0  0  0  0  0  0  0  0
    6.9090   -4.4250   21.5870 N   0  0  0  0  0  0  0  0  0  0  0  0
    6.4670   -5.5420   22.3540 C   0  0  0  0  0  0  0  0  0  0  0  0
    6.0240   -5.2000   23.7080 C   0  0  0  0  0  0  0  0  0  0  0  0
    6.1330   -3.7660   24.0410 C   0  0  0  0  0  0  0  0  0  0  0  0
    5.7290   -3.3950   25.4470 C   0  0  0  0  0  0  0  0  0  0  0  0
    4.7670   -2.6150   25.5620 O   0  0  0  0  0  0  0  0  0  0  0  0
    6.3370   -3.8680   26.6430 N   0  0  0  0  0  0  0  0  0  0  0  0
    7.0020   -5.1090   26.7220 C   0  0  0  0  0  0  0  0  0  0  0  0
    6.1730   -6.0270   27.3810 C   0  0  0  0  0  0  0  0  0  0  0  0
    5.2810   -5.4530   28.1650 N   0  0  0  0  0  0  0  0  0  0  0  0
    5.7500   -4.3610   28.9790 C   0  0  0  0  0  0  0  0  0  0  0  0
    5.7420   -5.5750   29.6370 O   0  0  0  0  0  0  0  0  0  0  0  0
    5.4990   -3.6040   27.8180 C   0  0  1  0  0  0  0  0  0  0  0  0
    5.9030   -2.4090   28.7010 C   0  0  0  0  0  0  0  0  0  0  0  0
    4.7260   -1.7020   29.2680 C   0  0  0  0  0  0  0  0  0  0  0  0
    5.1810   -0.6480   30.0600 N   0  0  0  0  0  0  0  0  0  0  0  0
    6.5410   -0.6630   30.0120 N   0  0  0  0  0  0  0  0  0  0  0  0
    7.2550    0.2370   30.6890 C   0  0  0  0  0  0  0  0  0  0  0  0
    7.0510   -1.7080   29.2010 C   0  0  0  0  0  0  0  0  0  0  0  0
    7.4810   -3.2700   23.6610 C   0  0  0  0  0  0  0  0  0  0  0  0
    7.6050   -3.3160   22.1510 C   0  0  0  0  0  0  0  0  0  0  0  0
  1  2  1  0
  2  3  2  0
  2  4  1  0
  4  5  1  0
  5  6  1  0
  6  7  1  0
  7  8  1  0
  8  9  2  0
  8 10  1  0
 10 11  1  0
 11 12  1  0
 12 13  1  0
 13 14  1  0
 14 15  2  0
 10 16  1  0
 14 16  1  0
 16 17  1  1
 17 18  1  0
 18 19  2  0
 19 20  1  0
 20 21  1  0
 17 22  2  0
 20 22  1  0
  7 23  1  0
  4 24  1  0
 23 24  1  0
M  END
