piperidine-amides-12057-covalent
     RDKit          3D

 25 27  0  0  0  0  0  0  0  0999 V2000
    7.1350   -3.3390   19.2560 C   0  0  0  0  0  0  0  0  0  0  0  0
    6.3660   -4.0900   20.2310 C   0  0  0  0  0  0  0  0  0  0  0  0
    5.2950   -4.6070   19.9100 O   0  0  0  0  0  0  0  0  0  0  0  0
    6.9000   -4.2870   21.5410 N   0  0  0  0  0  0  0  0  0  0  0  0
    6.4690   -5.4050   22.3330 C   0  0  0  0  0  0  0  0  0  0  0  0
    5.6700   -4.9060   23.5050 C   0  0  0  0  0  0  0  0  0  0  0  0
    6.5240   -3.8760   24.2240 C   0  0  0  0  0  0  0  0  0  0  0  0
    5.7820   -3.2610   25.3440 C   0  0  0  0  0  0  0  0  0  0  0  0
    4.5390   -3.1790   25.3740 O   0  0  0  0  0  0  0  0  0  0  0  0
    6.5480   -2.7530   26.4080 N   0  0  0  0  0  0  0  0  0  0  0  0
    6.3920   -1.3810   26.8280 C   0  0  0  0  0  0  0  0  0  0  0  0
    6.0960   -0.1750   25.9860 C   0  0  0  0  0  0  0  0  0  0  0  0
    5.9720    1.0930   26.5660 C   0  0  0  0  0  0  0  0  0  0  0  0
    6.1240    1.2540   27.9530 C   0  0  0  0  0  0  0  0  0  0  0  0
    5.9770    2.5490   28.4130 F   0  0  0  0  0  0  0  0  0  0  0  0
    6.3900    0.1960   28.7650 C   0  0  0  0  0  0  0  0  0  0  0  0
    6.5320   -1.1040   28.2720 C   0  0  0  0  0  0  0  0  0  0  0  0
    6.7840   -2.0550   29.1630 C   0  0  2  0  0  0  0  0  0  0  0  0
    5.9770   -3.1740   29.2180 C   0  0  0  0  0  0  0  0  0  0  0  0
    6.7080   -1.1820   30.4400 C   0  0  0  0  0  0  0  0  0  0  0  0
    6.5330    0.2430   30.1040 C   0  0  0  0  0  0  0  0  0  0  0  0
    5.4930    0.8780   30.7580 C   0  0  0  0  0  0  0  0  0  0  0  0
    7.7070    0.9570   30.6730 C   0  0  0  0  0  0  0  0  0  0  0  0
    6.9450   -2.7480   23.3290 C   0  0  0  0  0  0  0  0  0  0  0  0
    7.7400   -3.2930   22.1580 C   0  0  0  0  0  0  0  0  0  0  0  0
  1  2  1  0
  2  3  2  0
  2  4  1  0
  4  5  1  0
  5  6  1  0
  6  7  1  0
  7  8  1  0
  8  9  2  0
  8 10  1  0
 10 11  1  0
 11 12  2  0
 12 13  1  0
 13 14  2  0
 14 15  1  0
 14 16  1  0
 11 17  1  0
 16 17  2  0
 17 18  1  0
 18 19  1  1
 18 20  1  0
 16 21  1  0
 20 21  1  0
 21 22  1  0
 21 23  1  0
  7 24  1  0
  4 25  1  0
 24 25  1  0
M  END
