piperidine-amides-12193-covalent
     RDKit          3D

 24 25  0  0  0  0  0  0  0  0999 V2000
    7.1560   -3.3280   19.2470 C   0  0  0  0  0  0  0  0  0  0  0  0
    6.4350   -4.1210   20.2270 C   0  0  0  0  0  0  0  0  0  0  0  0
    5.3470   -4.6130   19.9280 O   0  0  0  0  0  0  0  0  0  0  0  0
    7.0400   -4.4050   21.4990 N   0  0  0  0  0  0  0  0  0  0  0  0
    6.5900   -5.5480   22.2530 C   0  0  0  0  0  0  0  0  0  0  0  0
    5.8310   -5.0700   23.4550 C   0  0  0  0  0  0  0  0  0  0  0  0
    5.7120   -3.5640   23.3080 C   0  0  0  0  0  0  0  0  0  0  0  0
    4.8470   -2.9720   24.3420 C   0  0  0  0  0  0  0  0  0  0  0  0
    3.7200   -3.4080   24.6250 O   0  0  0  0  0  0  0  0  0  0  0  0
    5.3310   -1.8680   25.0300 N   0  0  0  0  0  0  0  0  0  0  0  0
    6.0410   -2.2580   26.1610 C   0  0  0  0  0  0  0  0  0  0  0  0
    5.3650   -3.5330   26.6070 C   0  0  0  0  0  0  0  0  0  0  0  0
    4.0510   -3.5460   27.0410 C   0  0  0  0  0  0  0  0  0  0  0  0
    3.4280   -4.7410   27.4440 C   0  0  0  0  0  0  0  0  0  0  0  0
    4.0940   -5.9490   27.4280 C   0  0  0  0  0  0  0  0  0  0  0  0
    3.4280   -7.1720   27.8370 C   0  0  0  0  0  0  0  0  0  0  0  0
    2.3570   -7.6690   27.1220 C   0  0  0  0  0  0  0  0  0  0  0  0
    2.7450   -7.8690   25.8430 N   0  0  0  0  0  0  0  0  0  0  0  0
    2.0270   -8.9020   25.1700 C   0  0  0  0  0  0  0  0  0  0  0  0
    3.7610   -7.2820   25.1630 C   0  0  0  0  0  0  0  0  0  0  0  0
    5.4000   -5.8980   27.0000 C   0  0  0  0  0  0  0  0  0  0  0  0
    6.0160   -4.7410   26.6020 C   0  0  0  0  0  0  0  0  0  0  0  0
    7.0710   -2.9350   23.3530 C   0  0  0  0  0  0  0  0  0  0  0  0
    7.7900   -3.3690   22.1340 C   0  0  0  0  0  0  0  0  0  0  0  0
  1  2  1  0
  2  3  2  0
  2  4  1  0
  4  5  1  0
  5  6  1  0
  6  7  1  0
  7  8  1  0
  8  9  2  0
  8 10  1  0
 10 11  1  0
 11 12  1  0
 12 13  2  0
 13 14  1  0
 14 15  2  0
 15 16  1  0
 16 17  1  0
 17 18  1  0
 18 19  1  0
 18 20  1  0
 15 21  1  0
 12 22  1  0
 21 22  2  0
  7 23  1  0
  4 24  1  0
 23 24  1  0
M  END
