piperidine-amides-32909-covalent
     RDKit          3D

 29 31  0  0  0  0  0  0  0  0999 V2000
    7.1000   -3.3330   19.3240 C   0  0  0  0  0  0  0  0  0  0  0  0
    6.3920   -4.1950   20.3040 C   0  0  0  0  0  0  0  0  0  0  0  0
    5.3490   -4.7780   19.9630 O   0  0  0  0  0  0  0  0  0  0  0  0
    6.9560   -4.3790   21.5800 N   0  0  0  0  0  0  0  0  0  0  0  0
    6.7290   -5.5720   22.3400 C   0  0  0  0  0  0  0  0  0  0  0  0
    5.9430   -5.1370   23.5760 C   0  0  0  0  0  0  0  0  0  0  0  0
    6.7400   -4.1250   24.3500 C   0  0  0  0  0  0  0  0  0  0  0  0
    5.9200   -3.5690   25.4420 C   0  0  0  0  0  0  0  0  0  0  0  0
    4.7290   -3.3650   25.1560 O   0  0  0  0  0  0  0  0  0  0  0  0
    6.4290   -3.2720   26.7070 N   0  0  0  0  0  0  0  0  0  0  0  0
    5.6510   -2.6230   27.6630 C   0  0  0  0  0  0  0  0  0  0  0  0
    4.8780   -3.3700   28.4760 C   0  0  0  0  0  0  0  0  0  0  0  0
    5.5310   -4.2270   29.3160 C   0  0  0  0  0  0  0  0  0  0  0  0
    5.6490   -5.5190   28.7030 N   0  0  0  0  0  0  0  0  0  0  0  0
    5.9170   -6.5390   29.5280 C   0  0  0  0  0  0  0  0  0  0  0  0
    5.6980   -6.6160   30.9780 C   0  0  0  0  0  0  0  0  0  0  0  0
    6.1510   -7.7770   31.8230 C   0  0  0  0  0  0  0  0  0  0  0  0
    6.8560   -8.8690   30.9970 C   0  0  0  0  0  0  0  0  0  0  0  0
    7.4330  -10.1140   31.5710 C   0  0  0  0  0  0  0  0  0  0  0  0
    7.9220  -10.9870   30.6100 O   0  0  0  0  0  0  0  0  0  0  0  0
    7.3570  -10.4300   32.9280 O   0  0  0  0  0  0  0  0  0  0  0  0
    7.4890  -11.6810   33.5560 C   0  0  0  0  0  0  0  0  0  0  0  0
    8.1050  -12.6880   32.6050 C   0  0  0  0  0  0  0  0  0  0  0  0
    6.9070   -8.7120   29.6620 C   0  0  0  0  0  0  0  0  0  0  0  0
    6.5010   -7.6580   28.9320 N   0  0  0  0  0  0  0  0  0  0  0  0
    6.7310   -5.5570   27.7060 C   0  0  0  0  0  0  0  0  0  0  0  0
    7.3770   -4.2080   27.3720 C   0  0  0  0  0  0  0  0  0  0  0  0
    7.1800   -2.9240   23.5300 C   0  0  0  0  0  0  0  0  0  0  0  0
    7.7120   -3.2920   22.1960 C   0  0  0  0  0  0  0  0  0  0  0  0
  1  2  1  0
  2  3  2  0
  2  4  1  0
  4  5  1  0
  5  6  1  0
  6  7  1  0
  7  8  1  0
  8  9  2  0
  8 10  1  0
 10 11  1  0
 11 12  1  0
 12 13  1  0
 13 14  1  0
 14 15  1  0
 15 16  2  0
 16 17  1  0
 17 18  2  0
 18 19  1  0
 19 20  2  0
 19 21  1  0
 21 22  1  0
 22 23  1  0
 18 24  1  0
 15 25  1  0
 24 25  2  0
 14 26  1  0
 10 27  1  0
 26 27  1  0
  7 28  1  0
  4 29  1  0
 28 29  1  0
M  END
