piperidine-amides-16108-covalent
     RDKit          3D

 19 20  0  0  0  0  0  0  0  0999 V2000
    7.0810   -3.3080   19.2900 C   0  0  0  0  0  0  0  0  0  0  0  0
    6.3130   -4.0660   20.3070 C   0  0  0  0  0  0  0  0  0  0  0  0
    5.2950   -4.6330   19.9190 O   0  0  0  0  0  0  0  0  0  0  0  0
    6.7740   -4.1590   21.6270 N   0  0  0  0  0  0  0  0  0  0  0  0
    7.6420   -3.1630   22.2270 C   0  0  0  0  0  0  0  0  0  0  0  0
    7.2940   -2.9350   23.6820 C   0  0  0  0  0  0  0  0  0  0  0  0
    6.0050   -3.6850   24.0180 C   0  0  0  0  0  0  0  0  0  0  0  0
    5.5280   -3.3610   25.3870 C   0  0  0  0  0  0  0  0  0  0  0  0
    4.3210   -3.5020   25.6130 O   0  0  0  0  0  0  0  0  0  0  0  0
    6.3530   -2.9110   26.4430 N   0  0  0  0  0  0  0  0  0  0  0  0
    6.3430   -3.7120   27.6600 C   0  0  0  0  0  0  0  0  0  0  0  0
    6.7670   -1.5370   26.4830 C   0  0  0  0  0  0  0  0  0  0  0  0
    5.7690   -0.6380   26.7970 C   0  0  0  0  0  0  0  0  0  0  0  0
    6.0850    0.4940   27.4660 C   0  0  0  0  0  0  0  0  0  0  0  0
    4.5390   -1.3250   27.4220 C   0  0  0  0  0  0  0  0  0  0  0  0
    3.7650   -0.9460   26.3530 O   0  0  0  0  0  0  0  0  0  0  0  0
    4.7930   -0.3530   25.7190 C   0  0  0  0  0  0  0  0  0  0  0  0
    6.1340   -5.1480   23.7520 C   0  0  0  0  0  0  0  0  0  0  0  0
    6.5720   -5.4040   22.3410 C   0  0  0  0  0  0  0  0  0  0  0  0
  1  2  1  0
  2  3  2  0
  2  4  1  0
  4  5  1  0
  5  6  1  0
  6  7  1  0
  7  8  1  0
  8  9  2  0
  8 10  1  0
 10 11  1  0
 10 12  1  0
 13 12  1  0
 13 14  1  0
 13 15  1  0
 15 16  1  0
 13 17  1  0
 16 17  1  0
  7 18  1  0
  4 19  1  0
 18 19  1  0
M  END
