piperidine-amides-34105-covalent
     RDKit          3D

 30 33  0  0  0  0  0  0  0  0999 V2000
    7.0720   -3.3110   19.3150 C   0  0  0  0  0  0  0  0  0  0  0  0
    6.3670   -4.1470   20.3000 C   0  0  0  0  0  0  0  0  0  0  0  0
    5.3610   -4.8080   19.9680 O   0  0  0  0  0  0  0  0  0  0  0  0
    6.8470   -4.2420   21.6090 N   0  0  0  0  0  0  0  0  0  0  0  0
    6.6080   -5.4430   22.3860 C   0  0  0  0  0  0  0  0  0  0  0  0
    6.0250   -5.0240   23.7500 C   0  0  0  0  0  0  0  0  0  0  0  0
    6.0970   -3.5120   23.8230 C   0  0  0  0  0  0  0  0  0  0  0  0
    5.7730   -3.0120   25.1650 C   0  0  0  0  0  0  0  0  0  0  0  0
    4.6260   -3.2150   25.6220 O   0  0  0  0  0  0  0  0  0  0  0  0
    6.7770   -2.3070   25.8680 N   0  0  0  0  0  0  0  0  0  0  0  0
    7.9470   -2.9900   26.2720 C   0  0  0  0  0  0  0  0  0  0  0  0
    7.4870   -4.0530   27.2170 C   0  0  0  0  0  0  0  0  0  0  0  0
    8.1360   -5.2270   27.5270 C   0  0  0  0  0  0  0  0  0  0  0  0
    7.6110   -6.1400   28.4090 C   0  0  0  0  0  0  0  0  0  0  0  0
    6.4070   -5.9690   29.0570 C   0  0  0  0  0  0  0  0  0  0  0  0
    5.6880   -4.8650   28.8360 C   0  0  0  0  0  0  0  0  0  0  0  0
    6.1490   -3.8020   27.9010 C   0  0  0  0  0  0  0  0  0  0  0  0
    6.5620   -1.2820   26.8650 C   0  0  0  0  0  0  0  0  0  0  0  0
    5.5900   -0.1420   26.4040 C   0  0  0  0  0  0  0  0  0  0  0  0
    5.7400    0.5670   27.7480 C   0  0  0  0  0  0  0  0  0  0  0  0
    6.2470    0.7380   29.0910 N   0  0  0  0  0  0  0  0  0  0  0  0
    6.9420   -0.3890   28.9620 C   0  0  0  0  0  0  0  0  0  0  0  0
    6.1670    0.2740   28.2450 C   0  0  0  0  0  0  0  0  0  0  0  0
    6.7080    0.4640   29.7090 C   0  0  0  0  0  0  0  0  0  0  0  0
    6.2930    1.8050   30.7780 Cl  0  0  0  0  0  0  0  0  0  0  0  0
    7.7100   -0.7590   30.0910 C   0  0  0  0  0  0  0  0  0  0  0  0
    7.9250   -1.8450   28.9630 C   0  0  0  0  0  0  0  0  0  0  0  0
    7.1570   -1.3110   28.0950 C   0  0  0  0  0  0  0  0  0  0  0  0
    7.4360   -2.9850   23.4450 C   0  0  0  0  0  0  0  0  0  0  0  0
    7.7150   -3.2360   22.1370 C   0  0  0  0  0  0  0  0  0  0  0  0
  1  2  1  0
  2  3  2  0
  2  4  1  0
  4  5  1  0
  5  6  1  0
  6  7  1  0
  7  8  1  0
  8  9  2  0
  8 10  1  0
 10 11  1  0
 11 12  1  0
 12 13  2  0
 13 14  1  0
 14 15  2  0
 15 16  1  0
 12 17  1  0
 16 17  2  0
 10 18  1  0
 18 19  2  0
 19 20  1  0
 20 21  2  0
 21 22  1  0
 22 23  1  0
 23 24  2  0
 24 25  1  0
 24 26  1  0
 26 27  2  0
 18 28  1  0
 22 28  2  0
 27 28  1  0
  7 29  1  0
  4 30  1  0
 29 30  1  0
M  END
