piperidine-amides-14781-covalent
     RDKit          3D

 22 23  0  0  0  0  0  0  0  0999 V2000
    7.0700   -3.2650   19.2230 C   0  0  0  0  0  0  0  0  0  0  0  0
    6.3310   -4.0320   20.2310 C   0  0  0  0  0  0  0  0  0  0  0  0
    5.2710   -4.5760   19.8860 O   0  0  0  0  0  0  0  0  0  0  0  0
    6.8370   -4.1900   21.5450 N   0  0  0  0  0  0  0  0  0  0  0  0
    6.5170   -5.3800   22.2810 C   0  0  0  0  0  0  0  0  0  0  0  0
    5.7390   -4.9990   23.5050 C   0  0  0  0  0  0  0  0  0  0  0  0
    6.5350   -3.8890   24.1470 C   0  0  0  0  0  0  0  0  0  0  0  0
    5.7980   -3.3400   25.3340 C   0  0  0  0  0  0  0  0  0  0  0  0
    4.5750   -3.2680   25.2320 O   0  0  0  0  0  0  0  0  0  0  0  0
    6.5410   -2.9400   26.4440 N   0  0  0  0  0  0  0  0  0  0  0  0
    6.3460   -3.4350   27.7740 C   0  0  0  0  0  0  0  0  0  0  0  0
    5.2530   -4.2700   27.9930 C   0  0  0  0  0  0  0  0  0  0  0  0
    5.3840   -5.6560   27.9940 C   0  0  0  0  0  0  0  0  0  0  0  0
    4.3260   -6.5440   28.2190 C   0  0  0  0  0  0  0  0  0  0  0  0
    2.9940   -5.8900   28.4690 C   0  0  0  0  0  0  0  0  0  0  0  0
    1.9480   -6.7490   28.6920 O   0  0  0  0  0  0  0  0  0  0  0  0
    2.4380   -8.0500   28.6280 C   0  0  0  0  0  0  0  0  0  0  0  0
    2.8350   -4.5410   28.4720 C   0  0  0  0  0  0  0  0  0  0  0  0
    1.2390   -3.8870   28.7720 Cl  0  0  0  0  0  0  0  0  0  0  0  0
    4.0160   -3.6810   28.2220 C   0  0  0  0  0  0  0  0  0  0  0  0
    6.8920   -2.7620   23.2790 C   0  0  0  0  0  0  0  0  0  0  0  0
    7.6370   -3.1720   22.1990 C   0  0  0  0  0  0  0  0  0  0  0  0
  1  2  1  0
  2  3  2  0
  2  4  1  0
  4  5  1  0
  5  6  1  0
  6  7  1  0
  7  8  1  0
  8  9  2  0
  8 10  1  0
 10 11  1  0
 11 12  1  0
 12 13  2  0
 13 14  1  0
 14 15  2  0
 15 16  1  0
 16 17  1  0
 15 18  1  0
 18 19  1  0
 12 20  1  0
 18 20  2  0
  7 21  1  0
  4 22  1  0
 21 22  1  0
M  END
