piperidine-amides-35173-covalent
     RDKit          3D

 32 34  0  0  0  0  0  0  0  0999 V2000
    7.1030   -3.2550   19.1420 C   0  0  0  0  0  0  0  0  0  0  0  0
    6.3300   -4.0050   20.1670 C   0  0  0  0  0  0  0  0  0  0  0  0
    5.2380   -4.4590   19.8340 O   0  0  0  0  0  0  0  0  0  0  0  0
    6.8600   -4.2260   21.4310 N   0  0  0  0  0  0  0  0  0  0  0  0
    7.6390   -3.2070   22.0960 C   0  0  0  0  0  0  0  0  0  0  0  0
    6.9170   -2.7480   23.3240 C   0  0  0  0  0  0  0  0  0  0  0  0
    6.5770   -3.9740   24.1610 C   0  0  0  0  0  0  0  0  0  0  0  0
    5.7560   -3.4970   25.2780 C   0  0  0  0  0  0  0  0  0  0  0  0
    4.5290   -3.4060   25.1400 O   0  0  0  0  0  0  0  0  0  0  0  0
    6.3390   -3.1330   26.4930 N   0  0  0  0  0  0  0  0  0  0  0  0
    6.6430   -1.7350   26.5800 C   0  0  0  0  0  0  0  0  0  0  0  0
    5.8750   -3.8020   27.6570 C   0  0  1  0  0  0  0  0  0  0  0  0
    6.6980   -3.9060   28.7380 C   0  0  0  0  0  0  0  0  0  0  0  0
    5.6780   -2.8790   28.7410 C   0  0  0  0  0  0  0  0  0  0  0  0
    6.5790   -1.9470   29.2030 C   0  0  0  0  0  0  0  0  0  0  0  0
    6.4470   -0.9350   30.3240 C   0  0  0  0  0  0  0  0  0  0  0  0
    5.0700   -1.1470   30.8690 C   0  0  0  0  0  0  0  0  0  0  0  0
    4.8210   -0.0560   32.1430 S   0  0  0  0  0  0  0  0  0  0  0  0
    3.5490   -0.7370   33.2280 C   0  0  0  0  0  0  0  0  0  0  0  0
    2.2270   -0.0910   33.0610 C   0  0  0  0  0  0  0  0  0  0  0  0
    1.0860   -0.5370   33.8710 C   0  0  0  0  0  0  0  0  0  0  0  0
    1.1730   -1.6420   34.8930 C   0  0  0  0  0  0  0  0  0  0  0  0
   -0.0220   -2.0530   35.6830 C   0  0  0  0  0  0  0  0  0  0  0  0
   -0.9380   -0.9170   36.0640 C   0  0  0  0  0  0  0  0  0  0  0  0
   -0.8120   -3.1790   35.1270 C   0  0  0  0  0  0  0  0  0  0  0  0
    2.4030   -2.2390   35.0480 C   0  0  0  0  0  0  0  0  0  0  0  0
    3.6930   -1.8690   34.2610 C   0  0  0  0  0  0  0  0  0  0  0  0
    4.1570   -2.0660   30.4250 C   0  0  0  0  0  0  0  0  0  0  0  0
    2.9340   -2.1580   31.0080 F   0  0  0  0  0  0  0  0  0  0  0  0
    4.4670   -2.8930   29.3990 C   0  0  0  0  0  0  0  0  0  0  0  0
    5.9120   -5.0650   23.4610 C   0  0  0  0  0  0  0  0  0  0  0  0
    6.5430   -5.3990   22.1650 C   0  0  0  0  0  0  0  0  0  0  0  0
  1  2  1  0
  2  3  2  0
  2  4  1  0
  4  5  1  0
  5  6  1  0
  6  7  1  0
  7  8  1  0
  8  9  2  0
  8 10  1  0
 10 11  1  0
 10 12  1  0
 12 13  1  1
 12 14  1  0
 14 15  2  0
 15 16  1  0
 16 17  2  0
 17 18  1  0
 18 19  1  0
 19 20  2  0
 20 21  1  0
 21 22  2  0
 22 23  1  0
 23 24  1  0
 23 25  1  0
 22 26  1  0
 19 27  1  0
 26 27  2  0
 17 28  1  0
 28 29  1  0
 14 30  1  0
 28 30  2  0
  7 31  1  0
  4 32  1  0
 31 32  1  0
M  END
