piperidine-amides-27679-covalent
     RDKit          3D

 23 24  0  0  0  0  0  0  0  0999 V2000
    7.1230   -3.3030   19.2960 C   0  0  0  0  0  0  0  0  0  0  0  0
    6.3430   -4.0410   20.3060 C   0  0  0  0  0  0  0  0  0  0  0  0
    5.2910   -4.5970   19.9020 O   0  0  0  0  0  0  0  0  0  0  0  0
    6.7800   -4.1390   21.6370 N   0  0  0  0  0  0  0  0  0  0  0  0
    6.5910   -5.3640   22.4040 C   0  0  0  0  0  0  0  0  0  0  0  0
    5.9510   -5.0380   23.7270 C   0  0  0  0  0  0  0  0  0  0  0  0
    6.0460   -3.5730   24.0150 C   0  0  0  0  0  0  0  0  0  0  0  0
    5.5310   -3.2290   25.3660 C   0  0  0  0  0  0  0  0  0  0  0  0
    4.4370   -2.6300   25.4030 O   0  0  0  0  0  0  0  0  0  0  0  0
    6.1590   -3.5100   26.6010 N   0  0  0  0  0  0  0  0  0  0  0  0
    6.4680   -2.3780   27.4490 C   0  0  0  0  0  0  0  0  0  0  0  0
    5.9780   -4.8640   27.1330 C   0  0  1  0  0  0  0  0  0  0  0  0
    6.5580   -5.0680   28.3650 C   0  0  0  0  0  0  0  0  0  0  0  0
    4.5380   -5.2590   27.2860 C   0  0  0  0  0  0  0  0  0  0  0  0
    4.4250   -6.2780   26.3950 C   0  0  0  0  0  0  0  0  0  0  0  0
    3.2370   -6.9160   26.2440 C   0  0  0  0  0  0  0  0  0  0  0  0
    2.1070   -6.5800   26.9610 C   0  0  0  0  0  0  0  0  0  0  0  0
    0.6050   -7.4480   26.7130 Cl  0  0  0  0  0  0  0  0  0  0  0  0
    2.1030   -5.4450   27.9990 C   0  0  0  0  0  0  0  0  0  0  0  0
    0.7220   -4.9540   28.9490 Cl  0  0  0  0  0  0  0  0  0  0  0  0
    3.5130   -4.8000   28.0780 C   0  0  0  0  0  0  0  0  0  0  0  0
    7.4620   -3.0760   23.7300 C   0  0  0  0  0  0  0  0  0  0  0  0
    7.5220   -3.0050   22.2120 C   0  0  0  0  0  0  0  0  0  0  0  0
  1  2  1  0
  2  3  2  0
  2  4  1  0
  4  5  1  0
  5  6  1  0
  6  7  1  0
  7  8  1  0
  8  9  2  0
  8 10  1  0
 10 11  1  0
 10 12  1  0
 12 13  1  1
 12 14  1  0
 14 15  2  0
 15 16  1  0
 16 17  2  0
 17 18  1  0
 17 19  1  0
 19 20  1  0
 14 21  1  0
 19 21  2  0
  7 22  1  0
  4 23  1  0
 22 23  1  0
M  END
