piperidine-amides-7000-covalent
     RDKit          3D

 22 24  0  0  0  0  0  0  0  0999 V2000
    7.0770   -3.2840   19.3090 C   0  0  0  0  0  0  0  0  0  0  0  0
    6.3810   -4.1090   20.3110 C   0  0  0  0  0  0  0  0  0  0  0  0
    5.3880   -4.7920   19.9710 O   0  0  0  0  0  0  0  0  0  0  0  0
    6.8430   -4.1690   21.6400 N   0  0  0  0  0  0  0  0  0  0  0  0
    6.6580   -5.3940   22.3900 C   0  0  0  0  0  0  0  0  0  0  0  0
    5.8790   -4.9990   23.6450 C   0  0  0  0  0  0  0  0  0  0  0  0
    5.8310   -3.4900   23.5990 C   0  0  0  0  0  0  0  0  0  0  0  0
    5.0260   -2.9310   24.7120 C   0  0  0  0  0  0  0  0  0  0  0  0
    3.8010   -3.1560   24.7120 O   0  0  0  0  0  0  0  0  0  0  0  0
    5.6010   -2.1680   25.7450 N   0  0  0  0  0  0  0  0  0  0  0  0
    6.5900   -2.7780   26.5350 C   0  0  0  0  0  0  0  0  0  0  0  0
    6.0100   -4.0050   27.2090 C   0  0  0  0  0  0  0  0  0  0  0  0
    6.4950   -4.4190   28.4350 C   0  0  0  0  0  0  0  0  0  0  0  0
    6.0050   -5.5240   29.0880 C   0  0  0  0  0  0  0  0  0  0  0  0
    4.9890   -6.2860   28.5530 C   0  0  0  0  0  0  0  0  0  0  0  0
    4.2190   -7.6610   29.1580 S   0  0  0  0  0  0  0  0  0  0  0  0
    3.1850   -7.7250   27.7320 C   0  0  0  0  0  0  0  0  0  0  0  0
    3.3070   -6.6870   26.5890 C   0  0  0  0  0  0  0  0  0  0  0  0
    4.4470   -5.8820   27.2500 C   0  0  0  0  0  0  0  0  0  0  0  0
    5.0070   -4.6910   26.5810 C   0  0  0  0  0  0  0  0  0  0  0  0
    7.2420   -2.9580   23.5570 C   0  0  0  0  0  0  0  0  0  0  0  0
    7.6430   -3.0900   22.2120 C   0  0  0  0  0  0  0  0  0  0  0  0
  1  2  1  0
  2  3  2  0
  2  4  1  0
  4  5  1  0
  5  6  1  0
  6  7  1  0
  7  8  1  0
  8  9  2  0
  8 10  1  0
 10 11  1  0
 11 12  1  0
 12 13  2  0
 13 14  1  0
 14 15  2  0
 15 16  1  0
 16 17  1  0
 17 18  2  0
 15 19  1  0
 18 19  1  0
 12 20  1  0
 19 20  2  0
  7 21  1  0
  4 22  1  0
 21 22  1  0
M  END
