piperidine-amides-32885-covalent
     RDKit          3D

 28 30  0  0  0  0  0  0  0  0999 V2000
    7.0480   -3.3330   19.3570 C   0  0  0  0  0  0  0  0  0  0  0  0
    6.3650   -4.1990   20.3570 C   0  0  0  0  0  0  0  0  0  0  0  0
    5.3780   -4.8610   19.9870 O   0  0  0  0  0  0  0  0  0  0  0  0
    6.8670   -4.2960   21.6800 N   0  0  0  0  0  0  0  0  0  0  0  0
    6.7740   -5.5610   22.3750 C   0  0  0  0  0  0  0  0  0  0  0  0
    6.1790   -5.2960   23.7590 C   0  0  0  0  0  0  0  0  0  0  0  0
    6.2390   -3.8280   23.9600 C   0  0  0  0  0  0  0  0  0  0  0  0
    5.7190   -3.3700   25.2880 C   0  0  0  0  0  0  0  0  0  0  0  0
    4.5280   -3.0340   25.2580 O   0  0  0  0  0  0  0  0  0  0  0  0
    6.4600   -3.3140   26.4930 N   0  0  0  0  0  0  0  0  0  0  0  0
    7.0730   -4.3410   27.1270 C   0  0  0  0  0  0  0  0  0  0  0  0
    6.3670   -5.2940   28.0230 C   0  0  0  0  0  0  0  0  0  0  0  0
    5.9960   -6.3490   28.9140 C   0  0  0  0  0  0  0  0  0  0  0  0
    5.1380   -7.3380   28.4490 O   0  0  0  0  0  0  0  0  0  0  0  0
    6.4060   -6.4670   30.2240 O   0  0  0  0  0  0  0  0  0  0  0  0
    5.8130   -7.4230   31.1010 C   0  0  0  0  0  0  0  0  0  0  0  0
    7.6480   -6.0730   28.3340 N   0  0  0  0  0  0  0  0  0  0  0  0
    8.7260   -5.6430   27.7460 C   0  0  0  0  0  0  0  0  0  0  0  0
    8.2450   -4.7050   27.1260 N   0  0  0  0  0  0  0  0  0  0  0  0
    7.1750   -5.2510   27.8990 C   0  0  0  0  0  0  0  0  0  0  0  0
    6.3120   -3.9780   28.4630 C   0  0  0  0  0  0  0  0  0  0  0  0
    5.7290   -2.9700   27.6130 C   0  0  1  0  0  0  0  0  0  0  0  0
    5.6390   -1.5350   28.0230 C   0  0  0  0  0  0  0  0  0  0  0  0
    5.8810   -0.5940   27.0810 F   0  0  0  0  0  0  0  0  0  0  0  0
    4.4510   -1.1800   28.5990 F   0  0  0  0  0  0  0  0  0  0  0  0
    6.6340   -1.3610   28.9740 F   0  0  0  0  0  0  0  0  0  0  0  0
    7.5570   -3.2260   23.6130 C   0  0  0  0  0  0  0  0  0  0  0  0
    7.7080   -3.2500   22.2410 C   0  0  0  0  0  0  0  0  0  0  0  0
  1  2  1  0
  2  3  2  0
  2  4  1  0
  4  5  1  0
  5  6  1  0
  6  7  1  0
  7  8  1  0
  8  9  2  0
  8 10  1  0
 10 11  1  0
 11 12  2  0
 12 13  1  0
 13 14  2  0
 13 15  1  0
 15 16  1  0
 12 17  1  0
 17 18  2  0
 11 19  1  0
 18 19  1  0
 19 20  1  0
 20 21  1  0
 10 22  1  0
 21 22  1  0
 22 23  1  1
 23 24  1  0
 23 25  1  0
 23 26  1  0
  7 27  1  0
  4 28  1  0
 27 28  1  0
M  END
