piperidine-amides-9101-covalent
     RDKit          3D

 21 22  0  0  0  0  0  0  0  0999 V2000
    7.0740   -3.2770   19.2220 C   0  0  0  0  0  0  0  0  0  0  0  0
    6.3290   -4.0240   20.2440 C   0  0  0  0  0  0  0  0  0  0  0  0
    5.3030   -4.6380   19.9150 O   0  0  0  0  0  0  0  0  0  0  0  0
    6.7760   -4.0900   21.5720 N   0  0  0  0  0  0  0  0  0  0  0  0
    7.7260   -3.1310   22.0990 C   0  0  0  0  0  0  0  0  0  0  0  0
    7.5030   -3.0950   23.5740 C   0  0  0  0  0  0  0  0  0  0  0  0
    6.1130   -3.5290   23.8890 C   0  0  0  0  0  0  0  0  0  0  0  0
    5.7400   -3.2090   25.2820 C   0  0  0  0  0  0  0  0  0  0  0  0
    4.5810   -3.4760   25.7180 O   0  0  0  0  0  0  0  0  0  0  0  0
    6.6510   -2.5900   26.1640 N   0  0  0  0  0  0  0  0  0  0  0  0
    6.2150   -1.5380   27.1000 C   0  0  0  0  0  0  0  0  0  0  0  0
    5.9480   -0.2970   26.3250 C   0  0  0  0  0  0  0  0  0  0  0  0
    6.3670   -0.2740   24.9150 C   0  0  0  0  0  0  0  0  0  0  0  0
    6.1040    0.9730   24.1350 C   0  0  0  0  0  0  0  0  0  0  0  0
    5.4340    2.1110   24.8460 C   0  0  0  0  0  0  0  0  0  0  0  0
    5.2450    3.2700   23.9360 C   0  0  0  0  0  0  0  0  0  0  0  0
    5.0950    1.8870   26.2560 N   0  0  0  0  0  0  0  0  0  0  0  0
    5.3270    0.7540   26.9800 C   0  0  0  0  0  0  0  0  0  0  0  0
    4.8580    0.6470   28.6640 Cl  0  0  0  0  0  0  0  0  0  0  0  0
    5.9350   -5.0020   23.6120 C   0  0  0  0  0  0  0  0  0  0  0  0
    6.6330   -5.3400   22.3050 C   0  0  0  0  0  0  0  0  0  0  0  0
  1  2  1  0
  2  3  2  0
  2  4  1  0
  4  5  1  0
  5  6  1  0
  6  7  1  0
  7  8  1  0
  8  9  2  0
  8 10  1  0
 10 11  1  0
 11 12  1  0
 12 13  2  0
 13 14  1  0
 14 15  2  0
 15 16  1  0
 15 17  1  0
 12 18  1  0
 17 18  2  0
 18 19  1  0
  7 20  1  0
  4 21  1  0
 20 21  1  0
M  END
