piperidine-amides-24638-covalent
     RDKit          3D

 24 26  0  0  0  0  0  0  0  0999 V2000
    7.0310   -3.3860   19.4470 C   0  0  0  0  0  0  0  0  0  0  0  0
    6.3400   -4.2630   20.4080 C   0  0  0  0  0  0  0  0  0  0  0  0
    5.4040   -4.9890   20.0130 O   0  0  0  0  0  0  0  0  0  0  0  0
    6.7510   -4.3130   21.7560 N   0  0  0  0  0  0  0  0  0  0  0  0
    6.6190   -5.5690   22.4890 C   0  0  0  0  0  0  0  0  0  0  0  0
    6.1530   -5.2600   23.9320 C   0  0  0  0  0  0  0  0  0  0  0  0
    6.1870   -3.7590   24.0520 C   0  0  0  0  0  0  0  0  0  0  0  0
    5.7390   -3.1700   25.3510 C   0  0  0  0  0  0  0  0  0  0  0  0
    5.4820   -1.9530   25.3150 O   0  0  0  0  0  0  0  0  0  0  0  0
    5.5270   -3.8540   26.5840 N   0  0  0  0  0  0  0  0  0  0  0  0
    6.3220   -3.5290   27.7180 C   0  0  0  0  0  0  0  0  0  0  0  0
    6.6330   -4.8170   28.4610 C   0  0  0  0  0  0  0  0  0  0  0  0
    5.4400   -5.1540   29.1780 N   0  0  0  0  0  0  0  0  0  0  0  0
    5.4070   -6.2120   30.1700 C   0  0  0  0  0  0  0  0  0  0  0  0
    6.3960   -6.9810   30.1320 O   0  0  0  0  0  0  0  0  0  0  0  0
    4.3080   -6.2060   30.9910 C   0  0  1  0  0  0  0  0  0  0  0  0
    3.2170   -6.9150   30.4780 C   0  0  0  0  0  0  0  0  0  0  0  0
    2.8020   -7.7930   31.4140 C   0  0  0  0  0  0  0  0  0  0  0  0
    3.7750   -7.7220   32.5480 C   0  0  0  0  0  0  0  0  0  0  0  0
    4.6850   -6.7480   32.2140 O   0  0  0  0  0  0  0  0  0  0  0  0
    4.2520   -4.8460   28.4820 C   0  0  0  0  0  0  0  0  0  0  0  0
    4.5100   -3.6670   27.5940 C   0  0  0  0  0  0  0  0  0  0  0  0
    7.5480   -3.2540   23.6700 C   0  0  0  0  0  0  0  0  0  0  0  0
    7.6370   -3.2850   22.2730 C   0  0  0  0  0  0  0  0  0  0  0  0
  1  2  1  0
  2  3  2  0
  2  4  1  0
  4  5  1  0
  5  6  1  0
  6  7  1  0
  7  8  1  0
  8  9  2  0
  8 10  1  0
 10 11  1  0
 11 12  1  0
 12 13  1  0
 13 14  1  0
 14 15  2  0
 16 14  1  6
 16 17  1  0
 17 18  1  0
 18 19  1  0
 16 20  1  0
 19 20  1  0
 13 21  1  0
 10 22  1  0
 21 22  1  0
  7 23  1  0
  4 24  1  0
 23 24  1  0
M  END
