piperidine-amides-1355-covalent
     RDKit          3D

 22 24  0  0  0  0  0  0  0  0999 V2000
    7.1080   -3.2640   19.2420 C   0  0  0  0  0  0  0  0  0  0  0  0
    6.3350   -4.0520   20.2470 C   0  0  0  0  0  0  0  0  0  0  0  0
    5.2650   -4.5820   19.8990 O   0  0  0  0  0  0  0  0  0  0  0  0
    6.8600   -4.2290   21.5450 N   0  0  0  0  0  0  0  0  0  0  0  0
    6.5970   -5.4230   22.3030 C   0  0  0  0  0  0  0  0  0  0  0  0
    5.8370   -4.9810   23.5580 C   0  0  0  0  0  0  0  0  0  0  0  0
    6.5500   -3.7960   24.1310 C   0  0  0  0  0  0  0  0  0  0  0  0
    5.8060   -3.1980   25.2670 C   0  0  0  0  0  0  0  0  0  0  0  0
    4.7080   -2.7090   24.9840 O   0  0  0  0  0  0  0  0  0  0  0  0
    6.3300   -3.2000   26.5680 N   0  0  0  0  0  0  0  0  0  0  0  0
    5.9970   -4.0890   27.6320 C   0  0  0  0  0  0  0  0  0  0  0  0
    4.7160   -4.3360   28.0690 C   0  0  0  0  0  0  0  0  0  0  0  0
    4.5160   -5.2860   29.0770 C   0  0  0  0  0  0  0  0  0  0  0  0
    3.3970   -5.3940   29.9060 C   0  0  0  0  0  0  0  0  0  0  0  0
    3.2870   -6.4460   30.9480 C   0  0  0  0  0  0  0  0  0  0  0  0
    4.3880   -7.4550   31.1580 C   0  0  0  0  0  0  0  0  0  0  0  0
    5.5160   -7.2070   30.1880 C   0  0  0  0  0  0  0  0  0  0  0  0
    5.6200   -6.2510   29.2420 N   0  0  0  0  0  0  0  0  0  0  0  0
    3.7980   -3.1870   28.0830 C   0  0  0  0  0  0  0  0  0  0  0  0
    3.6790   -4.1810   27.1660 C   0  0  0  0  0  0  0  0  0  0  0  0
    6.8540   -2.6950   23.1620 C   0  0  0  0  0  0  0  0  0  0  0  0
    7.6530   -3.2170   22.1870 C   0  0  0  0  0  0  0  0  0  0  0  0
  1  2  1  0
  2  3  2  0
  2  4  1  0
  4  5  1  0
  5  6  1  0
  6  7  1  0
  7  8  1  0
  8  9  2  0
  8 10  1  0
 10 11  1  0
 12 11  1  0
 12 13  1  0
 13 14  2  0
 14 15  1  0
 15 16  2  0
 16 17  1  0
 13 18  1  0
 17 18  2  0
 12 19  1  0
 12 20  1  0
 19 20  1  0
  7 21  1  0
  4 22  1  0
 21 22  1  0
M  END
