piperidine-amides-29055-covalent
     RDKit          3D

 27 30  0  0  0  0  0  0  0  0999 V2000
    7.0900   -3.3300   19.2860 C   0  0  0  0  0  0  0  0  0  0  0  0
    6.4130   -4.1710   20.2700 C   0  0  0  0  0  0  0  0  0  0  0  0
    5.3500   -4.7250   19.9460 O   0  0  0  0  0  0  0  0  0  0  0  0
    6.9990   -4.3900   21.5390 N   0  0  0  0  0  0  0  0  0  0  0  0
    7.7350   -3.3160   22.1420 C   0  0  0  0  0  0  0  0  0  0  0  0
    6.8950   -2.7150   23.2120 C   0  0  0  0  0  0  0  0  0  0  0  0
    6.5940   -3.8240   24.1880 C   0  0  0  0  0  0  0  0  0  0  0  0
    5.9610   -3.2370   25.3990 C   0  0  0  0  0  0  0  0  0  0  0  0
    4.7550   -2.9820   25.3310 O   0  0  0  0  0  0  0  0  0  0  0  0
    6.7890   -3.0260   26.4860 N   0  0  0  0  0  0  0  0  0  0  0  0
    7.5190   -4.1470   26.9730 C   0  0  0  0  0  0  0  0  0  0  0  0
    6.7250   -5.1560   27.5270 C   0  0  0  0  0  0  0  0  0  0  0  0
    7.0530   -5.8110   28.6750 C   0  0  0  0  0  0  0  0  0  0  0  0
    6.1630   -6.7430   29.0560 C   0  0  0  0  0  0  0  0  0  0  0  0
    5.1990   -6.5890   27.9550 C   0  0  0  0  0  0  0  0  0  0  0  0
    5.6110   -5.5980   27.0600 O   0  0  0  0  0  0  0  0  0  0  0  0
    6.6720   -1.8040   27.2360 C   0  0  0  0  0  0  0  0  0  0  0  0
    5.9250   -0.6920   26.5270 C   0  0  0  0  0  0  0  0  0  0  0  0
    5.7770    0.6200   27.3020 C   0  0  0  0  0  0  0  0  0  0  0  0
    6.3940    0.6850   28.7170 C   0  0  0  0  0  0  0  0  0  0  0  0
    6.4400    1.6760   29.6620 C   0  0  0  0  0  0  0  0  0  0  0  0
    7.1170    1.2220   30.7630 N   0  0  0  0  0  0  0  0  0  0  0  0
    7.4560   -0.0360   30.4410 N   0  0  0  0  0  0  0  0  0  0  0  0
    7.0240   -0.3470   29.2280 C   0  0  0  0  0  0  0  0  0  0  0  0
    7.1960   -1.6350   28.5170 C   0  0  0  0  0  0  0  0  0  0  0  0
    5.7030   -4.8750   23.5050 C   0  0  0  0  0  0  0  0  0  0  0  0
    6.5350   -5.4450   22.3740 C   0  0  0  0  0  0  0  0  0  0  0  0
  1  2  1  0
  2  3  2  0
  2  4  1  0
  4  5  1  0
  5  6  1  0
  6  7  1  0
  7  8  1  0
  8  9  2  0
  8 10  1  0
 10 11  1  0
 11 12  1  0
 12 13  2  0
 13 14  1  0
 14 15  2  0
 12 16  1  0
 15 16  1  0
 10 17  1  0
 17 18  1  0
 18 19  2  0
 19 20  1  0
 20 21  2  0
 21 22  1  0
 22 23  1  0
 20 24  1  0
 23 24  2  0
 17 25  2  0
 24 25  1  0
  7 26  1  0
  4 27  1  0
 26 27  1  0
M  END
