piperidine-amides-8700-covalent
     RDKit          3D

 23 24  0  0  0  0  0  0  0  0999 V2000
    7.1750   -3.2940   19.2120 C   0  0  0  0  0  0  0  0  0  0  0  0
    6.3830   -4.0300   20.1900 C   0  0  0  0  0  0  0  0  0  0  0  0
    5.2780   -4.4850   19.8580 O   0  0  0  0  0  0  0  0  0  0  0  0
    6.9350   -4.2600   21.4700 N   0  0  0  0  0  0  0  0  0  0  0  0
    7.7420   -3.2310   22.0540 C   0  0  0  0  0  0  0  0  0  0  0  0
    6.9510   -2.5700   23.1220 C   0  0  0  0  0  0  0  0  0  0  0  0
    6.5410   -3.7000   24.0170 C   0  0  0  0  0  0  0  0  0  0  0  0
    5.8060   -3.1490   25.1840 C   0  0  0  0  0  0  0  0  0  0  0  0
    4.6000   -2.9380   25.0450 O   0  0  0  0  0  0  0  0  0  0  0  0
    6.5430   -2.9090   26.3230 N   0  0  0  0  0  0  0  0  0  0  0  0
    6.3530   -3.6570   27.5030 C   0  0  0  0  0  0  0  0  0  0  0  0
    5.4890   -4.7530   27.4260 C   0  0  0  0  0  0  0  0  0  0  0  0
    4.5770   -5.2240   26.4990 C   0  0  0  0  0  0  0  0  0  0  0  0
    3.9770   -6.4520   27.0570 N   0  0  0  0  0  0  0  0  0  0  0  0
    4.4920   -6.7340   28.2720 N   0  0  0  0  0  0  0  0  0  0  0  0
    4.2700   -7.6970   29.1510 C   0  0  0  0  0  0  0  0  0  0  0  0
    4.1770   -7.4610   30.6310 C   0  0  0  0  0  0  0  0  0  0  0  0
    5.5740   -7.5990   31.2860 C   0  0  0  0  0  0  0  0  0  0  0  0
    3.4850   -6.3170   30.9600 C   0  0  0  0  0  0  0  0  0  0  0  0
    5.3780   -5.6600   28.3700 C   0  0  0  0  0  0  0  0  0  0  0  0
    6.2990   -5.4170   29.5580 C   0  0  0  0  0  0  0  0  0  0  0  0
    5.6340   -4.6540   23.2800 C   0  0  0  0  0  0  0  0  0  0  0  0
    6.3840   -5.2880   22.3130 C   0  0  0  0  0  0  0  0  0  0  0  0
  1  2  1  0
  2  3  2  0
  2  4  1  0
  4  5  1  0
  5  6  1  0
  6  7  1  0
  7  8  1  0
  8  9  2  0
  8 10  1  0
 10 11  1  0
 11 12  1  0
 12 13  1  0
 13 14  2  0
 14 15  1  0
 15 16  1  0
 16 17  1  0
 17 18  1  0
 17 19  1  0
 12 20  2  0
 15 20  1  0
 20 21  1  0
  7 22  1  0
  4 23  1  0
 22 23  1  0
M  END
