piperidine-amides-1552-covalent
     RDKit          3D

 21 23  0  0  0  0  0  0  0  0999 V2000
    7.1590   -3.3040   19.2560 C   0  0  0  0  0  0  0  0  0  0  0  0
    6.3630   -4.0710   20.2480 C   0  0  0  0  0  0  0  0  0  0  0  0
    5.2880   -4.5850   19.9000 O   0  0  0  0  0  0  0  0  0  0  0  0
    6.8930   -4.2330   21.5400 N   0  0  0  0  0  0  0  0  0  0  0  0
    7.7250   -3.2180   22.1300 C   0  0  0  0  0  0  0  0  0  0  0  0
    6.8970   -2.6350   23.2630 C   0  0  0  0  0  0  0  0  0  0  0  0
    6.4990   -3.7840   24.1250 C   0  0  0  0  0  0  0  0  0  0  0  0
    5.8890   -3.3070   25.3820 C   0  0  0  0  0  0  0  0  0  0  0  0
    4.7080   -3.6100   25.5920 O   0  0  0  0  0  0  0  0  0  0  0  0
    6.6710   -2.5350   26.2490 N   0  0  0  0  0  0  0  0  0  0  0  0
    6.2300   -1.5960   27.2120 C   0  0  0  0  0  0  0  0  0  0  0  0
    5.7710   -0.3380   26.9100 C   0  0  2  0  0  0  0  0  0  0  0  0
    5.9340    0.7630   27.7750 C   0  0  0  0  0  0  0  0  0  0  0  0
    4.7140    1.2240   28.0920 C   0  0  0  0  0  0  0  0  0  0  0  0
    4.4340    2.4080   28.9510 C   0  0  0  0  0  0  0  0  0  0  0  0
    4.6200    3.7050   28.5060 C   0  0  0  0  0  0  0  0  0  0  0  0
    3.1770    3.0500   28.7740 C   0  0  0  0  0  0  0  0  0  0  0  0
    3.7850    0.4690   27.5280 N   0  0  0  0  0  0  0  0  0  0  0  0
    4.2810   -0.4700   26.8510 O   0  0  0  0  0  0  0  0  0  0  0  0
    5.5410   -4.7290   23.3790 C   0  0  0  0  0  0  0  0  0  0  0  0
    6.3730   -5.3290   22.3080 C   0  0  0  0  0  0  0  0  0  0  0  0
  1  2  1  0
  2  3  2  0
  2  4  1  0
  4  5  1  0
  5  6  1  0
  6  7  1  0
  7  8  1  0
  8  9  2  0
  8 10  1  0
 10 11  1  0
 12 11  1  1
 12 13  1  0
 13 14  1  0
 14 15  1  0
 15 16  1  0
 15 17  1  0
 16 17  1  0
 14 18  2  0
 12 19  1  0
 18 19  1  0
  7 20  1  0
  4 21  1  0
 20 21  1  0
M  END
