piperidine-amides-25062-covalent
     RDKit          3D

 24 25  0  0  0  0  0  0  0  0999 V2000
    7.0860   -3.2600   19.2080 C   0  0  0  0  0  0  0  0  0  0  0  0
    6.3230   -4.0560   20.2030 C   0  0  0  0  0  0  0  0  0  0  0  0
    5.2450   -4.5270   19.8560 O   0  0  0  0  0  0  0  0  0  0  0  0
    6.8550   -4.2910   21.4610 N   0  0  0  0  0  0  0  0  0  0  0  0
    7.5170   -3.2310   22.1680 C   0  0  0  0  0  0  0  0  0  0  0  0
    6.6200   -2.8180   23.2850 C   0  0  0  0  0  0  0  0  0  0  0  0
    6.3010   -4.0730   24.0960 C   0  0  0  0  0  0  0  0  0  0  0  0
    5.6220   -3.6560   25.3320 C   0  0  0  0  0  0  0  0  0  0  0  0
    4.3860   -3.6210   25.4420 O   0  0  0  0  0  0  0  0  0  0  0  0
    6.4140   -3.2720   26.4030 N   0  0  0  0  0  0  0  0  0  0  0  0
    6.5200   -1.8410   26.5510 C   0  0  0  0  0  0  0  0  0  0  0  0
    7.4790   -4.1640   26.7410 C   0  0  0  0  0  0  0  0  0  0  0  0
    8.6120   -3.8050   26.0680 C   0  0  0  0  0  0  0  0  0  0  0  0
    8.6680   -2.9180   25.0580 C   0  0  0  0  0  0  0  0  0  0  0  0
    9.8320   -2.6200   24.4540 C   0  0  0  0  0  0  0  0  0  0  0  0
   11.1560   -3.2160   24.8230 C   0  0  0  0  0  0  0  0  0  0  0  0
   12.2970   -2.8520   24.1440 O   0  0  0  0  0  0  0  0  0  0  0  0
   12.5270   -1.5240   23.7560 C   0  0  0  0  0  0  0  0  0  0  0  0
   13.0040   -1.4880   22.4420 F   0  0  0  0  0  0  0  0  0  0  0  0
   11.3360   -0.8150   23.6980 F   0  0  0  0  0  0  0  0  0  0  0  0
   11.3240   -4.2340   25.9320 C   0  0  0  0  0  0  0  0  0  0  0  0
    9.9360   -4.4380   26.4740 C   0  0  0  0  0  0  0  0  0  0  0  0
    5.5660   -5.0980   23.2890 C   0  0  0  0  0  0  0  0  0  0  0  0
    6.4900   -5.5040   22.1570 C   0  0  0  0  0  0  0  0  0  0  0  0
  1  2  1  0
  2  3  2  0
  2  4  1  0
  4  5  1  0
  5  6  1  0
  6  7  1  0
  7  8  1  0
  8  9  2  0
  8 10  1  0
 10 11  1  0
 10 12  1  0
 12 13  1  0
 13 14  2  0
 14 15  1  0
 15 16  2  0
 16 17  1  0
 17 18  1  0
 18 19  1  0
 18 20  1  0
 16 21  1  0
 13 22  1  0
 21 22  2  0
  7 23  1  0
  4 24  1  0
 23 24  1  0
M  END
