piperidine-amides-33974-covalent
     RDKit          3D

 31 34  0  0  0  0  0  0  0  0999 V2000
    7.1140   -3.3150   19.3060 C   0  0  0  0  0  0  0  0  0  0  0  0
    6.4200   -4.1780   20.2710 C   0  0  0  0  0  0  0  0  0  0  0  0
    5.3580   -4.7580   19.9570 O   0  0  0  0  0  0  0  0  0  0  0  0
    6.9790   -4.4110   21.5270 N   0  0  0  0  0  0  0  0  0  0  0  0
    7.7410   -3.3740   22.1890 C   0  0  0  0  0  0  0  0  0  0  0  0
    6.9000   -2.8860   23.3660 C   0  0  0  0  0  0  0  0  0  0  0  0
    6.7000   -4.0690   24.2920 C   0  0  0  0  0  0  0  0  0  0  0  0
    5.9450   -3.6240   25.4640 C   0  0  0  0  0  0  0  0  0  0  0  0
    4.9400   -2.9020   25.2790 O   0  0  0  0  0  0  0  0  0  0  0  0
    6.3640   -4.0380   26.7440 N   0  0  0  0  0  0  0  0  0  0  0  0
    5.7350   -5.1690   27.3260 C   0  0  0  0  0  0  0  0  0  0  0  0
    6.0850   -5.2300   28.7890 C   0  0  2  0  0  0  0  0  0  0  0  0
    5.9380   -6.3930   29.4900 C   0  0  0  0  0  0  0  0  0  0  0  0
    5.1270   -4.2340   29.3550 C   0  0  0  0  0  0  0  0  0  0  0  0
    4.2750   -4.4940   30.4180 O   0  0  0  0  0  0  0  0  0  0  0  0
    5.2070   -3.0200   28.6300 N   0  0  0  0  0  0  0  0  0  0  0  0
    4.2610   -2.0110   28.5260 C   0  0  0  0  0  0  0  0  0  0  0  0
    4.6240   -1.1520   29.5380 C   0  0  0  0  0  0  0  0  0  0  0  0
    5.3330    0.1680   29.2590 C   0  0  0  0  0  0  0  0  0  0  0  0
    5.5340    0.7760   30.6590 C   0  0  0  0  0  0  0  0  0  0  0  0
    5.2430    0.4440   32.1130 C   0  0  0  0  0  0  0  0  0  0  0  0
    4.5900   -0.8380   31.9200 C   0  0  0  0  0  0  0  0  0  0  0  0
    4.2870   -1.5940   30.8160 C   0  0  0  0  0  0  0  0  0  0  0  0
    6.5860   -2.7290   28.4140 C   0  0  0  0  0  0  0  0  0  0  0  0
    7.1080   -1.6790   29.5890 C   0  0  0  0  0  0  0  0  0  0  0  0
    8.5490   -1.3070   29.5030 C   0  0  0  0  0  0  0  0  0  0  0  0
    7.4260   -2.0440   28.9720 C   0  0  0  0  0  0  0  0  0  0  0  0
    7.9520   -2.5950   28.0340 C   0  0  0  0  0  0  0  0  0  0  0  0
    7.4680   -3.3360   27.2380 C   0  0  0  0  0  0  0  0  0  0  0  0
    5.9790   -5.1850   23.5610 C   0  0  0  0  0  0  0  0  0  0  0  0
    6.5880   -5.5540   22.2730 C   0  0  0  0  0  0  0  0  0  0  0  0
  1  2  1  0
  2  3  2  0
  2  4  1  0
  4  5  1  0
  5  6  1  0
  6  7  1  0
  7  8  1  0
  8  9  2  0
  8 10  1  0
 10 11  1  0
 11 12  1  0
 12 13  1  1
 12 14  1  0
 14 15  2  0
 14 16  1  0
 16 17  1  0
 17 18  1  0
 18 19  2  0
 19 20  1  0
 20 21  2  0
 21 22  1  0
 18 23  1  0
 22 23  2  0
 16 24  1  0
 24 25  1  0
 25 26  2  0
 26 27  1  0
 27 28  2  0
 10 29  1  0
 24 29  2  0
 28 29  1  0
  7 30  1  0
  4 31  1  0
 30 31  1  0
M  END
