piperidine-amides-106-covalent
     RDKit          3D

 20 21  0  0  0  0  0  0  0  0999 V2000
    7.1210   -3.3390   19.1930 C   0  0  0  0  0  0  0  0  0  0  0  0
    6.3700   -4.0740   20.1840 C   0  0  0  0  0  0  0  0  0  0  0  0
    5.2230   -4.4930   19.8620 O   0  0  0  0  0  0  0  0  0  0  0  0
    6.8870   -4.4130   21.4420 N   0  0  0  0  0  0  0  0  0  0  0  0
    7.5920   -3.3520   22.1910 C   0  0  0  0  0  0  0  0  0  0  0  0
    6.3740   -2.7900   23.0040 C   0  0  0  0  0  0  0  0  0  0  0  0
    5.8640   -3.9910   23.7610 C   0  0  0  0  0  0  0  0  0  0  0  0
    5.1000   -3.5730   25.0740 C   0  0  0  0  0  0  0  0  0  0  0  0
    3.8990   -3.4090   24.9400 O   0  0  0  0  0  0  0  0  0  0  0  0
    6.0230   -3.5330   25.8900 N   0  0  0  0  0  0  0  0  0  0  0  0
    7.1020   -3.4880   26.6330 C   0  0  0  0  0  0  0  0  0  0  0  0
    7.4860   -3.7210   27.9050 C   0  0  0  0  0  0  0  0  0  0  0  0
    8.4570   -4.7210   28.1710 C   0  0  0  0  0  0  0  0  0  0  0  0
    6.2720   -3.9890   28.7960 C   0  0  0  0  0  0  0  0  0  0  0  0
    8.3140   -2.6150   28.5670 C   0  0  0  0  0  0  0  0  0  0  0  0
    7.7580   -2.1660   26.3410 C   0  0  0  0  0  0  0  0  0  0  0  0
    8.6880   -2.2470   25.2640 C   0  0  0  0  0  0  0  0  0  0  0  0
    8.2390   -3.6450   25.7540 C   0  0  0  0  0  0  0  0  0  0  0  0
    5.2940   -5.0420   22.8840 C   0  0  0  0  0  0  0  0  0  0  0  0
    6.3260   -5.5350   22.1350 C   0  0  0  0  0  0  0  0  0  0  0  0
  1  2  1  0
  2  3  2  0
  2  4  1  0
  4  5  1  0
  5  6  1  0
  6  7  1  0
  7  8  1  0
  8  9  2  0
  8 10  1  0
 11 10  1  0
 11 12  1  0
 12 13  1  0
 12 14  1  0
 12 15  1  0
 11 16  1  0
 16 17  1  0
 11 18  1  0
 17 18  1  0
  7 19  1  0
  4 20  1  0
 19 20  1  0
M  END
