piperidine-amides-12440-covalent
     RDKit          3D

 24 25  0  0  0  0  0  0  0  0999 V2000
    7.1090   -3.2860   19.1780 C   0  0  0  0  0  0  0  0  0  0  0  0
    6.3560   -4.0200   20.1900 C   0  0  0  0  0  0  0  0  0  0  0  0
    5.2890   -4.5510   19.8900 O   0  0  0  0  0  0  0  0  0  0  0  0
    6.8900   -4.1820   21.5160 N   0  0  0  0  0  0  0  0  0  0  0  0
    6.5240   -5.3320   22.2870 C   0  0  0  0  0  0  0  0  0  0  0  0
    5.7630   -4.8910   23.5060 C   0  0  0  0  0  0  0  0  0  0  0  0
    6.5630   -3.8080   24.2280 C   0  0  0  0  0  0  0  0  0  0  0  0
    5.7420   -3.2930   25.3550 C   0  0  0  0  0  0  0  0  0  0  0  0
    4.5070   -3.1660   25.2580 O   0  0  0  0  0  0  0  0  0  0  0  0
    6.3740   -2.9330   26.5710 N   0  0  0  0  0  0  0  0  0  0  0  0
    6.2090   -3.7950   27.7220 C   0  0  0  0  0  0  0  0  0  0  0  0
    4.8360   -3.5690   28.3020 C   0  0  2  0  0  0  0  0  0  0  0  0
    4.4330   -2.2600   28.4670 C   0  0  0  0  0  0  0  0  0  0  0  0
    3.2500   -1.9980   29.1550 C   0  0  0  0  0  0  0  0  0  0  0  0
    2.5240   -3.0860   29.5790 C   0  0  0  0  0  0  0  0  0  0  0  0
    3.1450   -4.3730   29.6470 N   0  0  0  0  0  0  0  0  0  0  0  0
    2.7280   -5.5060   28.8670 C   0  0  0  0  0  0  0  0  0  0  0  0
    2.0440   -6.4190   29.6460 C   0  0  0  0  0  0  0  0  0  0  0  0
    1.0860   -7.1880   29.0970 F   0  0  0  0  0  0  0  0  0  0  0  0
    1.4930   -5.7850   30.7300 F   0  0  0  0  0  0  0  0  0  0  0  0
    3.0510   -7.2520   30.1550 F   0  0  0  0  0  0  0  0  0  0  0  0
    4.5640   -4.1140   29.6400 C   0  0  0  0  0  0  0  0  0  0  0  0
    7.1160   -2.7010   23.4070 C   0  0  0  0  0  0  0  0  0  0  0  0
    7.6160   -3.1110   22.0990 C   0  0  0  0  0  0  0  0  0  0  0  0
  1  2  1  0
  2  3  2  0
  2  4  1  0
  4  5  1  0
  5  6  1  0
  6  7  1  0
  7  8  1  0
  8  9  2  0
  8 10  1  0
 10 11  1  0
 12 11  1  1
 12 13  1  0
 13 14  1  0
 14 15  1  0
 15 16  1  0
 16 17  1  0
 17 18  1  0
 18 19  1  0
 18 20  1  0
 18 21  1  0
 12 22  1  0
 16 22  1  0
  7 23  1  0
  4 24  1  0
 23 24  1  0
M  END
