piperidine-amides-19591-covalent
     RDKit          3D

 22 24  0  0  0  0  0  0  0  0999 V2000
    7.1140   -3.4270   19.3610 C   0  0  0  0  0  0  0  0  0  0  0  0
    6.4300   -4.2050   20.3570 C   0  0  0  0  0  0  0  0  0  0  0  0
    5.3800   -4.8200   19.9920 O   0  0  0  0  0  0  0  0  0  0  0  0
    6.9280   -4.3540   21.6730 N   0  0  0  0  0  0  0  0  0  0  0  0
    6.5870   -5.5910   22.3810 C   0  0  0  0  0  0  0  0  0  0  0  0
    5.5070   -4.9810   23.3440 C   0  0  0  0  0  0  0  0  0  0  0  0
    6.1830   -3.8800   24.1450 C   0  0  0  0  0  0  0  0  0  0  0  0
    5.1200   -3.4390   25.2420 C   0  0  0  0  0  0  0  0  0  0  0  0
    4.0750   -3.1290   24.7010 O   0  0  0  0  0  0  0  0  0  0  0  0
    5.6110   -3.5070   26.4040 N   0  0  0  0  0  0  0  0  0  0  0  0
    6.4570   -3.5900   27.4150 C   0  0  0  0  0  0  0  0  0  0  0  0
    6.8390   -4.5830   28.2530 C   0  0  0  0  0  0  0  0  0  0  0  0
    5.7870   -4.6120   29.0840 C   0  0  0  0  0  0  0  0  0  0  0  0
    4.5700   -4.5630   28.2970 C   0  0  1  0  0  0  0  0  0  0  0  0
    3.3610   -4.7160   29.0130 N   0  0  0  0  0  0  0  0  0  0  0  0
    2.1170   -4.1900   28.8210 N   0  0  0  0  0  0  0  0  0  0  0  0
    1.4300   -4.6830   29.7870 C   0  0  0  0  0  0  0  0  0  0  0  0
    2.1340   -5.5000   30.6050 C   0  0  0  0  0  0  0  0  0  0  0  0
    3.4650   -5.5260   30.0750 N   0  0  0  0  0  0  0  0  0  0  0  0
    4.5980   -3.3110   27.4260 C   0  0  0  0  0  0  0  0  0  0  0  0
    6.9150   -2.8280   23.4780 C   0  0  0  0  0  0  0  0  0  0  0  0
    7.7810   -3.4650   22.3520 C   0  0  0  0  0  0  0  0  0  0  0  0
  1  2  1  0
  2  3  2  0
  2  4  1  0
  4  5  1  0
  5  6  1  0
  6  7  1  0
  7  8  1  0
  8  9  2  0
  8 10  1  0
 10 11  1  0
 11 12  1  0
 12 13  1  0
 13 14  1  0
 14 15  1  1
 15 16  1  0
 16 17  2  0
 17 18  1  0
 15 19  1  0
 18 19  2  0
 10 20  1  0
 14 20  1  0
  7 21  1  0
  4 22  1  0
 21 22  1  0
M  END
