piperidine-amides-503-covalent
     RDKit          3D

 27 29  0  0  0  0  0  0  0  0999 V2000
    7.1650   -3.2900   19.3430 C   0  0  0  0  0  0  0  0  0  0  0  0
    6.3700   -4.0150   20.3130 C   0  0  0  0  0  0  0  0  0  0  0  0
    5.3410   -4.6450   19.9180 O   0  0  0  0  0  0  0  0  0  0  0  0
    6.7300   -4.0580   21.6710 N   0  0  0  0  0  0  0  0  0  0  0  0
    6.5490   -5.3550   22.3660 C   0  0  0  0  0  0  0  0  0  0  0  0
    5.7240   -4.9240   23.6550 C   0  0  0  0  0  0  0  0  0  0  0  0
    5.9500   -3.4390   23.8710 C   0  0  0  0  0  0  0  0  0  0  0  0
    5.3160   -2.8980   25.2360 C   0  0  0  0  0  0  0  0  0  0  0  0
    4.7470   -1.8360   25.0650 O   0  0  0  0  0  0  0  0  0  0  0  0
    5.5630   -3.7300   26.1530 N   0  0  0  0  0  0  0  0  0  0  0  0
    5.8380   -4.6600   27.0950 C   0  0  2  0  0  0  0  0  0  0  0  0
    6.5000   -5.8030   27.0900 C   0  0  0  0  0  0  0  0  0  0  0  0
    7.7410   -5.4100   26.7510 C   0  0  0  0  0  0  0  0  0  0  0  0
    8.2030   -4.9970   25.4270 C   0  0  0  0  0  0  0  0  0  0  0  0
    9.6540   -4.5740   25.3810 C   0  0  0  0  0  0  0  0  0  0  0  0
   10.3600   -4.6380   26.5590 C   0  0  0  0  0  0  0  0  0  0  0  0
   10.1230   -4.9930   27.8970 C   0  0  0  0  0  0  0  0  0  0  0  0
    8.7100   -5.3700   27.8210 C   0  0  0  0  0  0  0  0  0  0  0  0
    4.4960   -5.0670   27.6780 C   0  0  0  0  0  0  0  0  0  0  0  0
    3.7890   -4.1970   28.2440 O   0  0  0  0  0  0  0  0  0  0  0  0
    4.1180   -6.4540   27.5490 N   0  0  0  0  0  0  0  0  0  0  0  0
    4.0660   -7.0730   28.8400 C   0  0  0  0  0  0  0  0  0  0  0  0
    2.7640   -7.4370   28.9690 C   0  0  0  0  0  0  0  0  0  0  0  0
    2.0690   -7.2650   27.8320 C   0  0  0  0  0  0  0  0  0  0  0  0
    2.8560   -6.7040   26.8490 C   0  0  0  0  0  0  0  0  0  0  0  0
    7.2790   -2.8330   23.5820 C   0  0  0  0  0  0  0  0  0  0  0  0
    7.6770   -3.0930   22.1690 C   0  0  0  0  0  0  0  0  0  0  0  0
  1  2  1  0
  2  3  2  0
  2  4  1  0
  4  5  1  0
  5  6  1  0
  6  7  1  0
  7  8  1  0
  8  9  2  0
  8 10  1  0
 10 11  1  0
 11 12  1  6
 12 13  1  0
 13 14  2  0
 14 15  1  0
 15 16  2  0
 16 17  1  0
 13 18  1  0
 17 18  2  0
 11 19  1  0
 19 20  2  0
 19 21  1  0
 21 22  1  0
 22 23  1  0
 23 24  1  0
 21 25  1  0
 24 25  1  0
  7 26  1  0
  4 27  1  0
 26 27  1  0
M  END
