piperidine-amides-11031-covalent
     RDKit          3D

 21 22  0  0  0  0  0  0  0  0999 V2000
    7.0340   -3.3520   19.3640 C   0  0  0  0  0  0  0  0  0  0  0  0
    6.3630   -4.1900   20.3630 C   0  0  0  0  0  0  0  0  0  0  0  0
    5.3980   -4.8830   19.9930 O   0  0  0  0  0  0  0  0  0  0  0  0
    6.8010   -4.2650   21.7040 N   0  0  0  0  0  0  0  0  0  0  0  0
    6.6780   -5.4910   22.4700 C   0  0  0  0  0  0  0  0  0  0  0  0
    6.0580   -5.1110   23.7920 C   0  0  0  0  0  0  0  0  0  0  0  0
    6.0880   -3.6290   24.0100 C   0  0  0  0  0  0  0  0  0  0  0  0
    5.5770   -3.1870   25.3420 C   0  0  0  0  0  0  0  0  0  0  0  0
    4.3290   -3.0420   25.4910 O   0  0  0  0  0  0  0  0  0  0  0  0
    6.3700   -2.9150   26.4890 N   0  0  0  0  0  0  0  0  0  0  0  0
    6.7140   -1.5180   26.8870 C   0  0  0  0  0  0  0  0  0  0  0  0
    5.5800   -0.6040   26.6180 C   0  0  0  0  0  0  0  0  0  0  0  0
    5.6650    0.7100   27.2840 C   0  0  0  0  0  0  0  0  0  0  0  0
    6.1390    0.6380   28.6550 N   0  0  0  0  0  0  0  0  0  0  0  0
    5.0220    1.2580   29.4370 C   0  0  0  0  0  0  0  0  0  0  0  0
    3.6570    0.6310   29.2370 C   0  0  0  0  0  0  0  0  0  0  0  0
    2.4310    1.4250   29.5090 C   0  0  0  0  0  0  0  0  0  0  0  0
    6.4480   -0.5770   29.1260 C   0  0  0  0  0  0  0  0  0  0  0  0
    7.1230   -1.5330   28.3480 C   0  0  0  0  0  0  0  0  0  0  0  0
    7.4680   -3.0390   23.7110 C   0  0  0  0  0  0  0  0  0  0  0  0
    7.6580   -3.1910   22.1940 C   0  0  0  0  0  0  0  0  0  0  0  0
  1  2  1  0
  2  3  2  0
  2  4  1  0
  4  5  1  0
  5  6  1  0
  6  7  1  0
  7  8  1  0
  8  9  2  0
  8 10  1  0
 10 11  1  0
 11 12  1  0
 12 13  1  0
 13 14  1  0
 14 15  1  0
 15 16  1  0
 16 17  2  3
 14 18  1  0
 11 19  1  0
 18 19  1  0
  7 20  1  0
  4 21  1  0
 20 21  1  0
M  END
