piperidine-amides-5016-covalent
     RDKit          3D

 23 24  0  0  0  0  0  0  0  0999 V2000
    7.2010   -3.2860   19.1930 C   0  0  0  0  0  0  0  0  0  0  0  0
    6.4730   -4.0810   20.2000 C   0  0  0  0  0  0  0  0  0  0  0  0
    5.3400   -4.4890   19.8780 O   0  0  0  0  0  0  0  0  0  0  0  0
    7.0790   -4.4210   21.4160 N   0  0  0  0  0  0  0  0  0  0  0  0
    6.5250   -5.4660   22.1870 C   0  0  0  0  0  0  0  0  0  0  0  0
    5.8690   -4.9710   23.3900 C   0  0  0  0  0  0  0  0  0  0  0  0
    5.8460   -3.4940   23.5930 C   0  0  0  0  0  0  0  0  0  0  0  0
    5.9100   -3.2460   25.0280 C   0  0  0  0  0  0  0  0  0  0  0  0
    5.1830   -2.3510   25.5040 O   0  0  0  0  0  0  0  0  0  0  0  0
    6.7370   -4.0190   25.8440 N   0  0  0  0  0  0  0  0  0  0  0  0
    6.1170   -4.4200   27.0880 C   0  0  1  0  0  0  0  0  0  0  0  0
    6.6460   -5.6580   27.7000 C   0  0  0  0  0  0  0  0  0  0  0  0
    5.6970   -6.4300   28.4320 N   0  0  0  0  0  0  0  0  0  0  0  0
    5.5210   -6.0540   29.8080 C   0  0  0  0  0  0  0  0  0  0  0  0
    4.9030   -7.0910   30.4470 C   0  0  0  0  0  0  0  0  0  0  0  0
    3.7430   -7.5450   29.8840 C   0  0  0  0  0  0  0  0  0  0  0  0
    3.4570   -7.0440   28.6620 C   0  0  0  0  0  0  0  0  0  0  0  0
    4.4690   -6.7840   27.7740 C   0  0  0  0  0  0  0  0  0  0  0  0
    5.7900   -3.3930   27.9420 C   0  0  0  0  0  0  0  0  0  0  0  0
    6.4240   -3.3540   29.1530 C   0  0  0  0  0  0  0  0  0  0  0  0
    4.4310   -3.3790   28.1870 C   0  0  0  0  0  0  0  0  0  0  0  0
    6.9120   -2.6560   22.9680 C   0  0  0  0  0  0  0  0  0  0  0  0
    7.8560   -3.4580   22.1520 C   0  0  0  0  0  0  0  0  0  0  0  0
  1  2  1  0
  2  3  2  0
  2  4  1  0
  4  5  1  0
  5  6  1  0
  6  7  1  0
  7  8  1  0
  8  9  2  0
  8 10  1  0
 10 11  1  0
 11 12  1  1
 12 13  1  0
 13 14  1  0
 14 15  1  0
 15 16  1  0
 16 17  1  0
 13 18  1  0
 17 18  1  0
 11 19  1  0
 19 20  1  0
 19 21  1  0
  7 22  1  0
  4 23  1  0
 22 23  1  0
M  END
