piperidine-amides-24862-covalent
     RDKit          3D

 24 25  0  0  0  0  0  0  0  0999 V2000
    7.0280   -3.3630   19.3630 C   0  0  0  0  0  0  0  0  0  0  0  0
    6.3610   -4.2520   20.3250 C   0  0  0  0  0  0  0  0  0  0  0  0
    5.3410   -4.8810   19.9830 O   0  0  0  0  0  0  0  0  0  0  0  0
    6.8890   -4.4480   21.6070 N   0  0  0  0  0  0  0  0  0  0  0  0
    6.4530   -5.5900   22.3730 C   0  0  0  0  0  0  0  0  0  0  0  0
    5.6440   -5.0470   23.5660 C   0  0  0  0  0  0  0  0  0  0  0  0
    6.5140   -4.0270   24.2870 C   0  0  0  0  0  0  0  0  0  0  0  0
    5.7820   -3.4220   25.4240 C   0  0  0  0  0  0  0  0  0  0  0  0
    4.5880   -3.0830   25.2510 O   0  0  0  0  0  0  0  0  0  0  0  0
    6.4460   -3.2570   26.6680 N   0  0  0  0  0  0  0  0  0  0  0  0
    7.3530   -4.2950   27.0980 C   0  0  0  0  0  0  0  0  0  0  0  0
    6.7200   -1.9330   27.2180 C   0  0  0  0  0  0  0  0  0  0  0  0
    8.0400   -1.8940   26.9780 C   0  0  0  0  0  0  0  0  0  0  0  0
    8.8940   -1.6230   27.8620 O   0  0  0  0  0  0  0  0  0  0  0  0
    8.4420   -2.1880   25.7280 O   0  0  0  0  0  0  0  0  0  0  0  0
    8.8910   -1.7720   24.5420 C   0  0  0  0  0  0  0  0  0  0  0  0
    8.0010   -0.9660   23.8310 C   0  0  0  0  0  0  0  0  0  0  0  0
    5.9820   -0.8290   26.5350 C   0  0  0  0  0  0  0  0  0  0  0  0
    5.1310    0.1000   27.4060 C   0  0  0  0  0  0  0  0  0  0  0  0
    6.5440   -0.0950   27.9000 C   0  0  0  0  0  0  0  0  0  0  0  0
    6.8050   -0.5360   29.3110 C   0  0  0  0  0  0  0  0  0  0  0  0
    6.4280   -1.7370   28.5430 C   0  0  0  0  0  0  0  0  0  0  0  0
    6.8280   -2.9250   23.3350 C   0  0  0  0  0  0  0  0  0  0  0  0
    7.5160   -3.3490   22.2490 C   0  0  0  0  0  0  0  0  0  0  0  0
  1  2  1  0
  2  3  2  0
  2  4  1  0
  4  5  1  0
  5  6  1  0
  6  7  1  0
  7  8  1  0
  8  9  2  0
  8 10  1  0
 10 11  1  0
 10 12  1  0
 12 13  1  0
 13 14  2  0
 13 15  1  0
 15 16  1  0
 16 17  1  0
 12 18  1  0
 18 19  1  0
 19 20  1  0
 20 21  1  0
 12 22  1  0
 21 22  1  0
  7 23  1  0
  4 24  1  0
 23 24  1  0
M  END
