piperidine-amides-21507-covalent
     RDKit          3D

 23 25  0  0  0  0  0  0  0  0999 V2000
    6.9640   -3.3490   19.3390 C   0  0  0  0  0  0  0  0  0  0  0  0
    6.2890   -4.1980   20.3340 C   0  0  0  0  0  0  0  0  0  0  0  0
    5.2880   -4.8390   19.9480 O   0  0  0  0  0  0  0  0  0  0  0  0
    6.7610   -4.3010   21.6330 N   0  0  0  0  0  0  0  0  0  0  0  0
    6.3370   -5.4100   22.4790 C   0  0  0  0  0  0  0  0  0  0  0  0
    5.5000   -4.8710   23.6220 C   0  0  0  0  0  0  0  0  0  0  0  0
    6.1990   -3.7040   24.2540 C   0  0  0  0  0  0  0  0  0  0  0  0
    5.5180   -3.0780   25.4570 C   0  0  0  0  0  0  0  0  0  0  0  0
    4.3310   -2.7120   25.4540 O   0  0  0  0  0  0  0  0  0  0  0  0
    6.2850   -2.9900   26.6230 N   0  0  0  0  0  0  0  0  0  0  0  0
    5.7660   -2.8670   27.9790 C   0  0  0  0  0  0  0  0  0  0  0  0
    5.3860   -4.1870   28.5990 C   0  0  0  0  0  0  0  0  0  0  0  0
    6.3190   -5.1450   28.6520 C   0  0  0  0  0  0  0  0  0  0  0  0
    7.2570   -5.0520   27.6890 C   0  0  0  0  0  0  0  0  0  0  0  0
    8.2340   -5.9900   27.5720 C   0  0  0  0  0  0  0  0  0  0  0  0
    9.1510   -5.8880   26.5660 C   0  0  0  0  0  0  0  0  0  0  0  0
    9.9720   -6.9320   26.6080 F   0  0  0  0  0  0  0  0  0  0  0  0
    9.1850   -4.8920   25.6880 C   0  0  0  0  0  0  0  0  0  0  0  0
    8.1600   -3.8880   25.8100 C   0  0  0  0  0  0  0  0  0  0  0  0
    8.3230   -2.8150   24.7400 C   0  0  0  0  0  0  0  0  0  0  0  0
    7.2330   -4.0120   26.7740 C   0  0  0  0  0  0  0  0  0  0  0  0
    6.5120   -2.6800   23.1980 C   0  0  0  0  0  0  0  0  0  0  0  0
    7.4230   -3.1710   22.2840 C   0  0  0  0  0  0  0  0  0  0  0  0
  1  2  1  0
  2  3  2  0
  2  4  1  0
  4  5  1  0
  5  6  1  0
  6  7  1  0
  7  8  1  0
  8  9  2  0
  8 10  1  0
 10 11  1  0
 11 12  1  0
 12 13  1  0
 13 14  1  0
 14 15  2  0
 15 16  1  0
 16 17  1  0
 16 18  2  0
 18 19  1  0
 19 20  1  0
 10 21  1  0
 14 21  1  0
 19 21  2  0
  7 22  1  0
  4 23  1  0
 22 23  1  0
M  END
