piperidine-amides-29685-covalent
     RDKit          3D

 27 30  0  0  0  0  0  0  0  0999 V2000
    7.0230   -3.3760   19.3930 C   0  0  0  0  0  0  0  0  0  0  0  0
    6.3840   -4.2510   20.3650 C   0  0  0  0  0  0  0  0  0  0  0  0
    5.4080   -4.9160   20.0060 O   0  0  0  0  0  0  0  0  0  0  0  0
    6.9100   -4.3930   21.7070 N   0  0  0  0  0  0  0  0  0  0  0  0
    7.6280   -3.3210   22.3460 C   0  0  0  0  0  0  0  0  0  0  0  0
    6.7950   -2.7060   23.4440 C   0  0  0  0  0  0  0  0  0  0  0  0
    6.2280   -3.7840   24.3760 C   0  0  0  0  0  0  0  0  0  0  0  0
    5.2240   -3.1720   25.3370 C   0  0  0  0  0  0  0  0  0  0  0  0
    4.4130   -2.3180   24.9540 O   0  0  0  0  0  0  0  0  0  0  0  0
    5.1880   -3.5680   26.7180 N   0  0  0  0  0  0  0  0  0  0  0  0
    4.6670   -2.6760   27.7020 C   0  0  0  0  0  0  0  0  0  0  0  0
    4.6560   -3.4270   29.0230 C   0  0  0  0  0  0  0  0  0  0  0  0
    5.4270   -4.4820   29.3280 N   0  0  0  0  0  0  0  0  0  0  0  0
    4.7160   -5.6080   29.5560 C   0  0  0  0  0  0  0  0  0  0  0  0
    4.9660   -6.4490   30.6820 C   0  0  0  0  0  0  0  0  0  0  0  0
    4.2170   -7.5920   30.8830 C   0  0  0  0  0  0  0  0  0  0  0  0
    3.1930   -7.9070   29.9340 C   0  0  0  0  0  0  0  0  0  0  0  0
    2.9220   -7.1530   28.8600 C   0  0  0  0  0  0  0  0  0  0  0  0
    2.0060   -7.3480   27.9230 N   0  0  0  0  0  0  0  0  0  0  0  0
    2.1410   -6.2150   26.9920 C   0  0  0  0  0  0  0  0  0  0  0  0
    1.3170   -6.1050   25.8850 O   0  0  0  0  0  0  0  0  0  0  0  0
    3.2550   -5.3400   27.5040 N   0  0  0  0  0  0  0  0  0  0  0  0
    3.7120   -5.9370   28.6450 C   0  0  0  0  0  0  0  0  0  0  0  0
    6.3690   -4.6800   28.3940 C   0  0  0  0  0  0  0  0  0  0  0  0
    6.2460   -4.3110   27.0700 C   0  0  0  0  0  0  0  0  0  0  0  0
    5.5660   -4.9160   23.6080 C   0  0  0  0  0  0  0  0  0  0  0  0
    6.4250   -5.4520   22.5020 C   0  0  0  0  0  0  0  0  0  0  0  0
  1  2  1  0
  2  3  2  0
  2  4  1  0
  4  5  1  0
  5  6  1  0
  6  7  1  0
  7  8  1  0
  8  9  2  0
  8 10  1  0
 10 11  1  0
 11 12  1  0
 12 13  1  0
 13 14  1  0
 14 15  2  0
 15 16  1  0
 16 17  2  0
 17 18  1  0
 18 19  1  0
 19 20  1  0
 20 21  2  0
 20 22  1  0
 14 23  1  0
 18 23  2  0
 22 23  1  0
 13 24  1  0
 10 25  1  0
 24 25  1  0
  7 26  1  0
  4 27  1  0
 26 27  1  0
M  END
