piperidine-amides-26027-covalent
     RDKit          3D

 24 26  0  0  0  0  0  0  0  0999 V2000
    7.0960   -3.3480   19.3050 C   0  0  0  0  0  0  0  0  0  0  0  0
    6.4160   -4.1790   20.2990 C   0  0  0  0  0  0  0  0  0  0  0  0
    5.3780   -4.7810   19.9700 O   0  0  0  0  0  0  0  0  0  0  0  0
    6.9480   -4.3590   21.5870 N   0  0  0  0  0  0  0  0  0  0  0  0
    6.7040   -5.5440   22.3790 C   0  0  0  0  0  0  0  0  0  0  0  0
    6.6320   -5.0750   23.8110 C   0  0  0  0  0  0  0  0  0  0  0  0
    6.0990   -3.6730   23.9230 C   0  0  0  0  0  0  0  0  0  0  0  0
    5.8220   -3.1600   25.2890 C   0  0  0  0  0  0  0  0  0  0  0  0
    5.0490   -2.1670   25.4110 O   0  0  0  0  0  0  0  0  0  0  0  0
    6.2840   -3.6990   26.5090 N   0  0  0  0  0  0  0  0  0  0  0  0
    6.6670   -5.0890   26.4550 C   0  0  2  0  0  0  0  0  0  0  0  0
    5.2930   -5.5630   26.3140 C   0  0  0  0  0  0  0  0  0  0  0  0
    4.4760   -4.6430   27.1340 C   0  0  0  0  0  0  0  0  0  0  0  0
    5.3870   -3.4970   27.5750 C   0  0  1  0  0  0  0  0  0  0  0  0
    5.9150   -3.8180   28.9590 C   0  0  0  0  0  0  0  0  0  0  0  0
    6.7530   -5.0630   28.9220 C   0  0  1  0  0  0  0  0  0  0  0  0
    6.0730   -6.2660   29.0760 C   0  0  0  0  0  0  0  0  0  0  0  0
    5.0960   -6.4130   30.0900 C   0  0  0  0  0  0  0  0  0  0  0  0
    5.5790   -6.6670   31.3140 F   0  0  0  0  0  0  0  0  0  0  0  0
    4.1180   -7.3410   29.8530 F   0  0  0  0  0  0  0  0  0  0  0  0
    4.4530   -5.1900   30.1790 F   0  0  0  0  0  0  0  0  0  0  0  0
    7.2430   -5.6280   27.5950 C   0  0  0  0  0  0  0  0  0  0  0  0
    6.9000   -2.6290   23.1980 C   0  0  0  0  0  0  0  0  0  0  0  0
    7.7650   -3.3330   22.2020 C   0  0  0  0  0  0  0  0  0  0  0  0
  1  2  1  0
  2  3  2  0
  2  4  1  0
  4  5  1  0
  5  6  1  0
  6  7  1  0
  7  8  1  0
  8  9  2  0
  8 10  1  0
 10 11  1  0
 11 12  1  1
 12 13  1  0
 10 14  1  0
 14 13  1  6
 14 15  1  0
 15 16  1  0
 16 17  1  6
 17 18  1  0
 18 19  1  0
 18 20  1  0
 18 21  1  0
 11 22  1  0
 16 22  1  0
  7 23  1  0
  4 24  1  0
 23 24  1  0
M  END
