piperidine-amides-9879-covalent
     RDKit          3D

 27 29  0  0  0  0  0  0  0  0999 V2000
    7.0150   -3.3430   19.3490 C   0  0  0  0  0  0  0  0  0  0  0  0
    6.3670   -4.1870   20.3630 C   0  0  0  0  0  0  0  0  0  0  0  0
    5.3690   -4.8490   19.9770 O   0  0  0  0  0  0  0  0  0  0  0  0
    6.8710   -4.2700   21.6710 N   0  0  0  0  0  0  0  0  0  0  0  0
    7.7280   -3.2320   22.2130 C   0  0  0  0  0  0  0  0  0  0  0  0
    7.4480   -3.0900   23.6790 C   0  0  0  0  0  0  0  0  0  0  0  0
    6.0650   -3.5690   23.9950 C   0  0  0  0  0  0  0  0  0  0  0  0
    5.6540   -3.2220   25.3780 C   0  0  0  0  0  0  0  0  0  0  0  0
    4.4350   -3.2960   25.6540 O   0  0  0  0  0  0  0  0  0  0  0  0
    6.5480   -2.8190   26.3920 N   0  0  0  0  0  0  0  0  0  0  0  0
    6.5090   -1.4960   26.9770 C   0  0  0  0  0  0  0  0  0  0  0  0
    7.1460   -1.3860   28.3630 C   0  0  0  0  0  0  0  0  0  0  0  0
    7.1830   -0.1980   29.0450 C   0  0  0  0  0  0  0  0  0  0  0  0
    7.9010   -0.0350   30.6270 Cl  0  0  0  0  0  0  0  0  0  0  0  0
    6.6260    0.8940   28.4430 C   0  0  0  0  0  0  0  0  0  0  0  0
    6.0460    0.8270   27.1950 C   0  0  0  0  0  0  0  0  0  0  0  0
    5.9610   -0.3210   26.4270 C   0  0  0  0  0  0  0  0  0  0  0  0
    5.3480   -0.2870   25.1650 O   0  0  0  0  0  0  0  0  0  0  0  0
    5.4970    0.8830   24.3790 C   0  0  0  0  0  0  0  0  0  0  0  0
    4.6000    2.0750   24.7500 C   0  0  0  0  0  0  0  0  0  0  0  0
    4.8210    3.2920   23.8490 C   0  0  0  0  0  0  0  0  0  0  0  0
    5.8330    3.1940   22.7610 C   0  0  0  0  0  0  0  0  0  0  0  0
    6.6540    1.9740   22.4890 C   0  0  0  0  0  0  0  0  0  0  0  0
    7.5500    1.9670   21.4820 F   0  0  0  0  0  0  0  0  0  0  0  0
    6.4270    0.8970   23.3240 C   0  0  0  0  0  0  0  0  0  0  0  0
    6.0170   -5.0740   23.7850 C   0  0  0  0  0  0  0  0  0  0  0  0
    6.7100   -5.4680   22.4800 C   0  0  0  0  0  0  0  0  0  0  0  0
  1  2  1  0
  2  3  2  0
  2  4  1  0
  4  5  1  0
  5  6  1  0
  6  7  1  0
  7  8  1  0
  8  9  2  0
  8 10  1  0
 10 11  1  0
 11 12  2  0
 12 13  1  0
 13 14  1  0
 13 15  2  0
 15 16  1  0
 11 17  1  0
 16 17  2  0
 17 18  1  0
 18 19  1  0
 19 20  2  0
 20 21  1  0
 21 22  2  0
 22 23  1  0
 23 24  1  0
 19 25  1  0
 23 25  2  0
  7 26  1  0
  4 27  1  0
 26 27  1  0
M  END
