piperidine-amides-1964-covalent
     RDKit          3D

 22 23  0  0  0  0  0  0  0  0999 V2000
    7.0760   -3.2630   19.2630 C   0  0  0  0  0  0  0  0  0  0  0  0
    6.3480   -4.0540   20.2900 C   0  0  0  0  0  0  0  0  0  0  0  0
    5.3260   -4.6320   19.9200 O   0  0  0  0  0  0  0  0  0  0  0  0
    6.8390   -4.1560   21.6000 N   0  0  0  0  0  0  0  0  0  0  0  0
    7.6930   -3.1430   22.1810 C   0  0  0  0  0  0  0  0  0  0  0  0
    7.3140   -2.8930   23.6160 C   0  0  0  0  0  0  0  0  0  0  0  0
    6.0070   -3.6270   23.9050 C   0  0  0  0  0  0  0  0  0  0  0  0
    5.5480   -3.2920   25.2740 C   0  0  0  0  0  0  0  0  0  0  0  0
    4.3830   -2.9090   25.4330 O   0  0  0  0  0  0  0  0  0  0  0  0
    6.3930   -3.3870   26.3940 N   0  0  0  0  0  0  0  0  0  0  0  0
    5.9590   -4.1450   27.5560 C   0  0  0  0  0  0  0  0  0  0  0  0
    5.9510   -5.6310   27.2100 C   0  0  0  0  0  0  0  0  0  0  0  0
    4.8280   -6.4150   27.1290 C   0  0  0  0  0  0  0  0  0  0  0  0
    4.4960   -6.6880   25.8590 C   0  0  0  0  0  0  0  0  0  0  0  0
    3.4480   -7.4310   25.6050 C   0  0  0  0  0  0  0  0  0  0  0  0
    3.2890   -7.5950   24.3110 N   0  0  0  0  0  0  0  0  0  0  0  0
    2.5220   -8.0440   26.5590 C   0  0  0  0  0  0  0  0  0  0  0  0
    2.9710   -7.6860   27.9600 C   0  0  0  0  0  0  0  0  0  0  0  0
    4.1770   -6.8320   28.4510 C   0  0  0  0  0  0  0  0  0  0  0  0
    4.6440   -6.4650   30.0890 Cl  0  0  0  0  0  0  0  0  0  0  0  0
    6.0270   -5.0800   23.6300 C   0  0  0  0  0  0  0  0  0  0  0  0
    6.6420   -5.3930   22.3070 C   0  0  0  0  0  0  0  0  0  0  0  0
  1  2  1  0
  2  3  2  0
  2  4  1  0
  4  5  1  0
  5  6  1  0
  6  7  1  0
  7  8  1  0
  8  9  2  0
  8 10  1  0
 10 11  1  0
 11 12  1  0
 12 13  1  0
 13 14  2  0
 14 15  1  0
 15 16  1  0
 15 17  2  0
 17 18  1  0
 13 19  1  0
 18 19  2  0
 19 20  1  0
  7 21  1  0
  4 22  1  0
 21 22  1  0
M  END
