piperidine-amides-14005-covalent
     RDKit          3D

 25 27  0  0  0  0  0  0  0  0999 V2000
    7.1360   -3.2750   19.1990 C   0  0  0  0  0  0  0  0  0  0  0  0
    6.3750   -4.0510   20.2170 C   0  0  0  0  0  0  0  0  0  0  0  0
    5.2960   -4.5720   19.8940 O   0  0  0  0  0  0  0  0  0  0  0  0
    6.9310   -4.2210   21.4990 N   0  0  0  0  0  0  0  0  0  0  0  0
    7.7070   -3.1900   22.1310 C   0  0  0  0  0  0  0  0  0  0  0  0
    6.8350   -2.6310   23.2520 C   0  0  0  0  0  0  0  0  0  0  0  0
    6.5620   -3.7560   24.1920 C   0  0  0  0  0  0  0  0  0  0  0  0
    5.7780   -3.3200   25.3640 C   0  0  0  0  0  0  0  0  0  0  0  0
    4.5500   -3.2840   25.2180 O   0  0  0  0  0  0  0  0  0  0  0  0
    6.4220   -2.9760   26.5510 N   0  0  0  0  0  0  0  0  0  0  0  0
    6.3880   -1.7240   27.2140 C   0  0  0  0  0  0  0  0  0  0  0  0
    6.1750   -1.6030   28.5680 C   0  0  2  0  0  0  0  0  0  0  0  0
    5.4850   -2.6800   29.1510 C   0  0  0  0  0  0  0  0  0  0  0  0
    4.3780   -2.4170   29.9250 C   0  0  0  0  0  0  0  0  0  0  0  0
    3.5350   -1.2430   29.6040 C   0  0  0  0  0  0  0  0  0  0  0  0
    4.2700   -0.0950   28.9140 C   0  0  0  0  0  0  0  0  0  0  0  0
    5.7600   -0.4110   29.0820 C   0  0  1  0  0  0  0  0  0  0  0  0
    6.2200   -0.0870   30.3440 C   0  0  0  0  0  0  0  0  0  0  0  0
    5.3310    0.3220   31.4510 C   0  0  0  0  0  0  0  0  0  0  0  0
    6.1020    0.6340   32.7630 C   0  0  0  0  0  0  0  0  0  0  0  0
    7.4330    0.6480   33.2310 C   0  0  0  0  0  0  0  0  0  0  0  0
    8.1260    0.2010   31.9290 C   0  0  0  0  0  0  0  0  0  0  0  0
    7.5220   -0.1290   30.6210 C   0  0  0  0  0  0  0  0  0  0  0  0
    5.8020   -4.8910   23.5310 C   0  0  0  0  0  0  0  0  0  0  0  0
    6.5000   -5.3570   22.3030 C   0  0  0  0  0  0  0  0  0  0  0  0
  1  2  1  0
  2  3  2  0
  2  4  1  0
  4  5  1  0
  5  6  1  0
  6  7  1  0
  7  8  1  0
  8  9  2  0
  8 10  1  0
 10 11  1  0
 12 11  1  6
 12 13  1  0
 13 14  1  0
 14 15  1  0
 15 16  1  0
 12 17  1  0
 16 17  1  0
 17 18  1  1
 18 19  2  0
 19 20  1  0
 20 21  2  0
 21 22  1  0
 18 23  1  0
 22 23  2  0
  7 24  1  0
  4 25  1  0
 24 25  1  0
M  END
