piperidine-amides-27731-covalent
     RDKit          3D

 26 28  0  0  0  0  0  0  0  0999 V2000
    7.0930   -3.3260   19.3150 C   0  0  0  0  0  0  0  0  0  0  0  0
    6.3500   -4.0970   20.3350 C   0  0  0  0  0  0  0  0  0  0  0  0
    5.3050   -4.6460   19.9300 O   0  0  0  0  0  0  0  0  0  0  0  0
    6.8260   -4.2490   21.6610 N   0  0  0  0  0  0  0  0  0  0  0  0
    7.6110   -3.2200   22.2780 C   0  0  0  0  0  0  0  0  0  0  0  0
    7.1840   -2.9430   23.6500 C   0  0  0  0  0  0  0  0  0  0  0  0
    5.9630   -3.6960   23.9900 C   0  0  0  0  0  0  0  0  0  0  0  0
    5.3730   -3.3930   25.3320 C   0  0  0  0  0  0  0  0  0  0  0  0
    4.1540   -3.1570   25.3410 O   0  0  0  0  0  0  0  0  0  0  0  0
    6.0730   -3.3500   26.5610 N   0  0  0  0  0  0  0  0  0  0  0  0
    6.3210   -2.0290   27.2190 C   0  0  0  0  0  0  0  0  0  0  0  0
    5.4150   -1.7170   28.3660 C   0  0  0  0  0  0  0  0  0  0  0  0
    3.9870   -2.0410   28.4170 N   0  0  0  0  0  0  0  0  0  0  0  0
    3.5570   -1.6010   29.5760 N   0  0  0  0  0  0  0  0  0  0  0  0
    4.6170   -1.0180   30.2700 C   0  0  0  0  0  0  0  0  0  0  0  0
    4.5530   -0.4510   31.5030 C   0  0  0  0  0  0  0  0  0  0  0  0
    5.7370    0.0800   32.0050 C   0  0  0  0  0  0  0  0  0  0  0  0
    6.8850   -0.0120   31.2290 C   0  0  0  0  0  0  0  0  0  0  0  0
    6.8140   -0.6160   29.9960 C   0  0  0  0  0  0  0  0  0  0  0  0
    5.6550   -1.1030   29.5550 N   0  0  0  0  0  0  0  0  0  0  0  0
    6.0890   -4.5600   27.4630 C   0  0  1  0  0  0  0  0  0  0  0  0
    6.6730   -4.3190   28.7050 C   0  0  0  0  0  0  0  0  0  0  0  0
    4.8880   -5.1270   27.7510 C   0  0  0  0  0  0  0  0  0  0  0  0
    4.9280   -6.5880   28.1320 C   0  0  0  0  0  0  0  0  0  0  0  0
    6.1710   -5.1930   23.7220 C   0  0  0  0  0  0  0  0  0  0  0  0
    6.6400   -5.4850   22.4070 C   0  0  0  0  0  0  0  0  0  0  0  0
  1  2  1  0
  2  3  2  0
  2  4  1  0
  4  5  1  0
  5  6  1  0
  6  7  1  0
  7  8  1  0
  8  9  2  0
  8 10  1  0
 10 11  1  0
 11 12  1  0
 12 13  2  0
 13 14  1  0
 14 15  2  0
 15 16  1  0
 16 17  2  0
 17 18  1  0
 18 19  2  0
 12 20  1  0
 15 20  1  0
 19 20  1  0
 10 21  1  0
 21 22  1  1
 21 23  1  0
 23 24  1  0
  7 25  1  0
  4 26  1  0
 25 26  1  0
M  END
