piperidine-amides-1976-covalent
     RDKit          3D

 24 25  0  0  0  0  0  0  0  0999 V2000
    7.0980   -3.2810   19.2560 C   0  0  0  0  0  0  0  0  0  0  0  0
    6.3910   -4.0870   20.2850 C   0  0  0  0  0  0  0  0  0  0  0  0
    5.3610   -4.6620   19.9340 O   0  0  0  0  0  0  0  0  0  0  0  0
    6.9260   -4.2040   21.5770 N   0  0  0  0  0  0  0  0  0  0  0  0
    7.7820   -3.1810   22.1540 C   0  0  0  0  0  0  0  0  0  0  0  0
    7.3980   -2.9110   23.5850 C   0  0  0  0  0  0  0  0  0  0  0  0
    6.0810   -3.6280   23.8440 C   0  0  0  0  0  0  0  0  0  0  0  0
    5.5370   -3.2580   25.1620 C   0  0  0  0  0  0  0  0  0  0  0  0
    4.3170   -3.3880   25.3250 O   0  0  0  0  0  0  0  0  0  0  0  0
    6.3170   -2.7660   26.2290 N   0  0  0  0  0  0  0  0  0  0  0  0
    5.5860   -2.4420   27.4370 C   0  0  2  0  0  0  0  0  0  0  0  0
    4.9770   -1.0470   27.4380 C   0  0  0  0  0  0  0  0  0  0  0  0
    4.8720   -0.3960   28.6510 O   0  0  0  0  0  0  0  0  0  0  0  0
    4.5570   -0.5030   26.2500 O   0  0  0  0  0  0  0  0  0  0  0  0
    3.4690   -1.0160   25.5850 C   0  0  0  0  0  0  0  0  0  0  0  0
    6.2430   -2.9600   28.7000 C   0  0  0  0  0  0  0  0  0  0  0  0
    5.1760   -3.7510   28.9410 C   0  0  2  0  0  0  0  0  0  0  0  0
    5.3570   -5.2600   28.9510 C   0  0  0  0  0  0  0  0  0  0  0  0
    6.5080   -5.7210   29.0510 O   0  0  0  0  0  0  0  0  0  0  0  0
    4.2850   -6.1150   28.8570 O   0  0  0  0  0  0  0  0  0  0  0  0
    4.3990   -7.5150   28.8560 C   0  0  0  0  0  0  0  0  0  0  0  0
    4.4220   -3.4230   27.7150 C   0  0  0  0  0  0  0  0  0  0  0  0
    6.1100   -5.0810   23.6170 C   0  0  0  0  0  0  0  0  0  0  0  0
    6.6950   -5.4300   22.2950 C   0  0  0  0  0  0  0  0  0  0  0  0
  1  2  1  0
  2  3  2  0
  2  4  1  0
  4  5  1  0
  5  6  1  0
  6  7  1  0
  7  8  1  0
  8  9  2  0
  8 10  1  0
 11 10  1  6
 11 12  1  0
 12 13  2  0
 12 14  1  0
 14 15  1  0
 11 16  1  0
 16 17  1  0
 17 18  1  6
 18 19  2  0
 18 20  1  0
 20 21  1  0
 11 22  1  0
 17 22  1  0
  7 23  1  0
  4 24  1  0
 23 24  1  0
M  END
