piperidine-amides-25847-covalent
     RDKit          3D

 25 27  0  0  0  0  0  0  0  0999 V2000
    7.1050   -3.3210   19.2560 C   0  0  0  0  0  0  0  0  0  0  0  0
    6.3500   -4.0940   20.2710 C   0  0  0  0  0  0  0  0  0  0  0  0
    5.2960   -4.6080   19.9100 O   0  0  0  0  0  0  0  0  0  0  0  0
    6.8870   -4.2550   21.5460 N   0  0  0  0  0  0  0  0  0  0  0  0
    6.5830   -5.3930   22.3710 C   0  0  0  0  0  0  0  0  0  0  0  0
    5.8230   -4.9270   23.5780 C   0  0  0  0  0  0  0  0  0  0  0  0
    6.5140   -3.7010   24.1780 C   0  0  0  0  0  0  0  0  0  0  0  0
    5.6410   -3.1740   25.2390 C   0  0  0  0  0  0  0  0  0  0  0  0
    4.4690   -2.8730   24.9760 O   0  0  0  0  0  0  0  0  0  0  0  0
    6.1150   -3.0130   26.5490 N   0  0  0  0  0  0  0  0  0  0  0  0
    6.1530   -1.6800   27.1490 C   0  0  0  0  0  0  0  0  0  0  0  0
    6.1870   -0.5090   26.2530 C   0  0  0  0  0  0  0  0  0  0  0  0
    6.2020    0.0050   24.9860 C   0  0  0  0  0  0  0  0  0  0  0  0
    6.2260    0.8270   26.5920 C   0  0  0  0  0  0  0  0  0  0  0  0
    6.2430    1.1510   27.8940 C   0  0  0  0  0  0  0  0  0  0  0  0
    6.2080    0.1190   29.0220 C   0  0  0  0  0  0  0  0  0  0  0  0
    6.1460   -1.3690   28.6400 C   0  0  0  0  0  0  0  0  0  0  0  0
    6.0700   -2.2480   29.7720 N   0  0  0  0  0  0  0  0  0  0  0  0
    6.0830   -1.4520   30.8450 O   0  0  0  0  0  0  0  0  0  0  0  0
    5.1530   -3.2220   29.7530 O   0  0  0  0  0  0  0  0  0  0  0  0
    6.0200   -4.1480   27.4400 C   0  0  0  0  0  0  0  0  0  0  0  0
    4.8000   -4.5880   27.8590 C   0  0  0  0  0  0  0  0  0  0  0  0
    5.5760   -5.6110   27.0100 C   0  0  0  0  0  0  0  0  0  0  0  0
    6.9680   -2.6620   23.2410 C   0  0  0  0  0  0  0  0  0  0  0  0
    7.7290   -3.2280   22.1170 C   0  0  0  0  0  0  0  0  0  0  0  0
  1  2  1  0
  2  3  2  0
  2  4  1  0
  4  5  1  0
  5  6  1  0
  6  7  1  0
  7  8  1  0
  8  9  2  0
  8 10  1  0
 10 11  1  0
 11 12  2  0
 12 13  1  0
 12 14  1  0
 14 15  2  0
 15 16  1  0
 11 17  1  0
 16 17  2  0
 17 18  1  0
 18 19  2  0
 18 20  1  0
 10 21  1  0
 21 22  1  0
 21 23  1  0
 22 23  1  0
  7 24  1  0
  4 25  1  0
 24 25  1  0
M  CHG  2  18   1  20  -1
M  END
