piperidine-amides-35127-covalent
     RDKit          3D

 30 32  0  0  0  0  0  0  0  0999 V2000
    7.2270   -4.0060   19.6890 C   0  0  0  0  0  0  0  0  0  0  0  0
    6.0320   -3.9900   20.4340 C   0  0  0  0  0  0  0  0  0  0  0  0
    5.0310   -4.1300   19.7330 O   0  0  0  0  0  0  0  0  0  0  0  0
    6.1690   -3.9440   21.8140 N   0  0  0  0  0  0  0  0  0  0  0  0
    7.2700   -3.1420   22.3310 C   0  0  0  0  0  0  0  0  0  0  0  0
    7.0810   -2.8570   23.7990 C   0  0  0  0  0  0  0  0  0  0  0  0
    5.8060   -3.5610   24.2430 C   0  0  0  0  0  0  0  0  0  0  0  0
    5.4350   -3.2000   25.6240 C   0  0  0  0  0  0  0  0  0  0  0  0
    4.2360   -3.2120   25.9070 O   0  0  0  0  0  0  0  0  0  0  0  0
    6.3660   -2.8340   26.6170 N   0  0  0  0  0  0  0  0  0  0  0  0
    6.8820   -1.4930   26.4900 C   0  0  0  0  0  0  0  0  0  0  0  0
    6.2620   -3.4710   27.9090 C   0  0  0  0  0  0  0  0  0  0  0  0
    5.8800   -2.6100   28.9030 C   0  0  0  0  0  0  0  0  0  0  0  0
    6.6680   -1.5460   29.0510 C   0  0  0  0  0  0  0  0  0  0  0  0
    6.4250   -0.6250   29.9690 C   0  0  0  0  0  0  0  0  0  0  0  0
    5.2910   -0.6260   30.9350 C   0  0  0  0  0  0  0  0  0  0  0  0
    4.9190    0.5560   32.1600 Cl  0  0  0  0  0  0  0  0  0  0  0  0
    4.4530   -1.8710   30.6990 C   0  0  0  0  0  0  0  0  0  0  0  0
    4.6420   -3.0050   29.6660 C   0  0  0  0  0  0  0  0  0  0  0  0
    3.7510   -4.0580   29.6310 O   0  0  0  0  0  0  0  0  0  0  0  0
    3.9820   -5.1330   30.5020 C   0  0  0  0  0  0  0  0  0  0  0  0
    5.1110   -6.0750   30.2510 C   0  0  0  0  0  0  0  0  0  0  0  0
    5.3430   -7.2160   31.2070 C   0  0  0  0  0  0  0  0  0  0  0  0
    4.4100   -7.3230   32.3540 C   0  0  0  0  0  0  0  0  0  0  0  0
    4.6650   -8.3610   33.1790 F   0  0  0  0  0  0  0  0  0  0  0  0
    3.2920   -6.3180   32.5240 C   0  0  0  0  0  0  0  0  0  0  0  0
    2.2190   -6.5010   33.9130 Cl  0  0  0  0  0  0  0  0  0  0  0  0
    3.1510   -5.2950   31.5930 C   0  0  0  0  0  0  0  0  0  0  0  0
    5.9530   -5.0140   23.9720 C   0  0  0  0  0  0  0  0  0  0  0  0
    6.0620   -5.2630   22.4760 C   0  0  0  0  0  0  0  0  0  0  0  0
  1  2  1  0
  2  3  2  0
  2  4  1  0
  4  5  1  0
  5  6  1  0
  6  7  1  0
  7  8  1  0
  8  9  2  0
  8 10  1  0
 10 11  1  0
 10 12  1  0
 12 13  1  0
 13 14  2  0
 14 15  1  0
 15 16  2  0
 16 17  1  0
 16 18  1  0
 13 19  1  0
 18 19  2  0
 19 20  1  0
 20 21  1  0
 21 22  2  0
 22 23  1  0
 23 24  2  0
 24 25  1  0
 24 26  1  0
 26 27  1  0
 21 28  1  0
 26 28  2  0
  7 29  1  0
  4 30  1  0
 29 30  1  0
M  END
