piperidine-amides-14103-covalent
     RDKit          3D

 25 27  0  0  0  0  0  0  0  0999 V2000
    7.1180   -3.3260   19.2960 C   0  0  0  0  0  0  0  0  0  0  0  0
    6.3390   -4.1160   20.2810 C   0  0  0  0  0  0  0  0  0  0  0  0
    5.2820   -4.6590   19.9220 O   0  0  0  0  0  0  0  0  0  0  0  0
    6.8550   -4.2750   21.5800 N   0  0  0  0  0  0  0  0  0  0  0  0
    6.5700   -5.4200   22.4050 C   0  0  0  0  0  0  0  0  0  0  0  0
    5.7020   -4.9100   23.5630 C   0  0  0  0  0  0  0  0  0  0  0  0
    6.4830   -3.8520   24.2750 C   0  0  0  0  0  0  0  0  0  0  0  0
    5.7610   -3.2750   25.4380 C   0  0  0  0  0  0  0  0  0  0  0  0
    4.5270   -3.2820   25.3490 O   0  0  0  0  0  0  0  0  0  0  0  0
    6.4260   -2.7400   26.5540 N   0  0  0  0  0  0  0  0  0  0  0  0
    6.3580   -1.3630   26.9240 C   0  0  0  0  0  0  0  0  0  0  0  0
    5.9330   -0.3360   26.0980 C   0  0  0  0  0  0  0  0  0  0  0  0
    5.8630    1.0290   26.4850 C   0  0  0  0  0  0  0  0  0  0  0  0
    6.2200    1.4560   27.7380 C   0  0  0  0  0  0  0  0  0  0  0  0
    6.6760    0.4420   28.6610 C   0  0  0  0  0  0  0  0  0  0  0  0
    6.7350   -0.9920   28.2220 C   0  0  0  0  0  0  0  0  0  0  0  0
    7.2270   -1.7330   29.4190 C   0  0  0  0  0  0  0  0  0  0  0  0
    7.0470   -1.1870   30.6450 N   0  0  0  0  0  0  0  0  0  0  0  0
    5.7900   -0.6870   30.8440 C   0  0  0  0  0  0  0  0  0  0  0  0
    5.9000    0.2190   32.0420 C   0  0  0  0  0  0  0  0  0  0  0  0
    7.3090    0.6550   31.6900 C   0  0  0  0  0  0  0  0  0  0  0  0
    7.9300   -0.2340   30.8890 C   0  0  0  0  0  0  0  0  0  0  0  0
    9.1560    0.0050   30.5480 O   0  0  0  0  0  0  0  0  0  0  0  0
    6.9320   -2.7150   23.4260 C   0  0  0  0  0  0  0  0  0  0  0  0
    7.6410   -3.2120   22.1920 C   0  0  0  0  0  0  0  0  0  0  0  0
  1  2  1  0
  2  3  2  0
  2  4  1  0
  4  5  1  0
  5  6  1  0
  6  7  1  0
  7  8  1  0
  8  9  2  0
  8 10  1  0
 10 11  1  0
 11 12  2  0
 12 13  1  0
 13 14  2  0
 14 15  1  0
 11 16  1  0
 15 16  2  0
 16 17  1  0
 17 18  1  0
 18 19  1  0
 19 20  1  0
 20 21  1  0
 18 22  1  0
 21 22  1  0
 22 23  2  0
  7 24  1  0
  4 25  1  0
 24 25  1  0
M  END
