piperidine-amides-24305-covalent
     RDKit          3D

 24 26  0  0  0  0  0  0  0  0999 V2000
    7.0240   -3.3560   19.3870 C   0  0  0  0  0  0  0  0  0  0  0  0
    6.3740   -4.2500   20.3530 C   0  0  0  0  0  0  0  0  0  0  0  0
    5.3770   -4.9160   19.9990 O   0  0  0  0  0  0  0  0  0  0  0  0
    6.8860   -4.4040   21.6530 N   0  0  0  0  0  0  0  0  0  0  0  0
    6.5130   -5.5580   22.4220 C   0  0  0  0  0  0  0  0  0  0  0  0
    5.4640   -5.0400   23.4080 C   0  0  0  0  0  0  0  0  0  0  0  0
    6.1690   -4.1070   24.3740 C   0  0  0  0  0  0  0  0  0  0  0  0
    5.1310   -3.3870   25.1750 C   0  0  0  0  0  0  0  0  0  0  0  0
    4.1150   -3.0170   24.5700 O   0  0  0  0  0  0  0  0  0  0  0  0
    5.2740   -3.1210   26.5740 N   0  0  0  0  0  0  0  0  0  0  0  0
    6.5510   -3.2190   27.1360 C   0  0  0  0  0  0  0  0  0  0  0  0
    6.4900   -4.4580   27.9910 C   0  0  0  0  0  0  0  0  0  0  0  0
    5.2420   -4.5110   28.3930 C   0  0  0  0  0  0  0  0  0  0  0  0
    4.6020   -3.4210   27.8560 C   0  0  1  0  0  0  0  0  0  0  0  0
    4.6500   -2.1750   28.4960 C   0  0  0  0  0  0  0  0  0  0  0  0
    5.3340   -2.1540   29.6180 N   0  0  0  0  0  0  0  0  0  0  0  0
    5.2280   -0.8180   30.0300 C   0  0  0  0  0  0  0  0  0  0  0  0
    5.8260   -0.4250   31.1580 N   0  0  0  0  0  0  0  0  0  0  0  0
    7.1240   -0.2390   30.8550 C   0  0  0  0  0  0  0  0  0  0  0  0
    5.0130    0.5480   31.8690 C   0  0  0  0  0  0  0  0  0  0  0  0
    4.4340   -0.1150   29.0590 N   0  0  0  0  0  0  0  0  0  0  0  0
    4.0830   -1.0040   28.0990 O   0  0  0  0  0  0  0  0  0  0  0  0
    7.0740   -3.1040   23.7380 C   0  0  0  0  0  0  0  0  0  0  0  0
    7.4980   -3.3190   22.3420 C   0  0  0  0  0  0  0  0  0  0  0  0
  1  2  1  0
  2  3  2  0
  2  4  1  0
  4  5  1  0
  5  6  1  0
  6  7  1  0
  7  8  1  0
  8  9  2  0
  8 10  1  0
 10 11  1  0
 11 12  1  0
 12 13  1  0
 10 14  1  0
 13 14  1  0
 14 15  1  1
 15 16  2  0
 16 17  1  0
 17 18  1  0
 18 19  1  0
 18 20  1  0
 17 21  2  0
 15 22  1  0
 21 22  1  0
  7 23  1  0
  4 24  1  0
 23 24  1  0
M  END
