piperidine-amides-35455-covalent
     RDKit          3D

 34 37  0  0  0  0  0  0  0  0999 V2000
    7.0360   -3.3640   19.3690 C   0  0  0  0  0  0  0  0  0  0  0  0
    6.3930   -4.2410   20.3780 C   0  0  0  0  0  0  0  0  0  0  0  0
    5.4150   -4.8910   20.0000 O   0  0  0  0  0  0  0  0  0  0  0  0
    6.9270   -4.3430   21.6770 N   0  0  0  0  0  0  0  0  0  0  0  0
    6.7210   -5.5450   22.4670 C   0  0  0  0  0  0  0  0  0  0  0  0
    6.1730   -5.2130   23.8420 C   0  0  0  0  0  0  0  0  0  0  0  0
    6.1990   -3.7000   24.0030 C   0  0  0  0  0  0  0  0  0  0  0  0
    5.6340   -3.2690   25.2990 C   0  0  0  0  0  0  0  0  0  0  0  0
    4.7850   -2.3740   25.2570 O   0  0  0  0  0  0  0  0  0  0  0  0
    5.9410   -3.7910   26.5710 N   0  0  0  0  0  0  0  0  0  0  0  0
    4.7930   -4.4800   27.0930 C   0  0  0  0  0  0  0  0  0  0  0  0
    5.0140   -4.9780   28.4990 C   0  0  0  0  0  0  0  0  0  0  0  0
    5.6650   -3.9250   29.2540 N   0  0  0  0  0  0  0  0  0  0  0  0
    4.6790   -3.1230   29.9980 C   0  0  0  0  0  0  0  0  0  0  0  0
    5.0130   -1.8380   29.7560 C   0  0  0  0  0  0  0  0  0  0  0  0
    4.2700   -0.9330   30.3240 C   0  0  0  0  0  0  0  0  0  0  0  0
    3.1150   -1.1330   31.1940 C   0  0  0  0  0  0  0  0  0  0  0  0
    2.8360   -2.6020   31.3930 C   0  0  0  0  0  0  0  0  0  0  0  0
    3.5840   -3.8510   30.8220 C   0  0  0  0  0  0  0  0  0  0  0  0
    3.3760   -5.5440   30.9720 S   0  0  0  0  0  0  0  0  0  0  0  0
    4.5190   -6.2860   30.3690 O   0  0  0  0  0  0  0  0  0  0  0  0
    2.0370   -5.9850   30.4470 O   0  0  0  0  0  0  0  0  0  0  0  0
    3.4790   -5.6420   32.7610 C   0  0  0  0  0  0  0  0  0  0  0  0
    2.6110   -4.7490   33.5940 C   0  0  0  0  0  0  0  0  0  0  0  0
    2.6360   -4.7710   35.1060 C   0  0  0  0  0  0  0  0  0  0  0  0
    3.5550   -5.7130   35.7730 C   0  0  0  0  0  0  0  0  0  0  0  0
    3.6810   -5.8400   37.2680 C   0  0  0  0  0  0  0  0  0  0  0  0
    4.3910   -6.5730   34.9060 C   0  0  0  0  0  0  0  0  0  0  0  0
    4.3500   -6.5360   33.3920 C   0  0  0  0  0  0  0  0  0  0  0  0
    5.2590   -7.4720   32.5800 C   0  0  0  0  0  0  0  0  0  0  0  0
    6.8170   -3.3430   28.6370 C   0  0  0  0  0  0  0  0  0  0  0  0
    6.4160   -2.7480   27.4720 C   0  0  0  0  0  0  0  0  0  0  0  0
    7.4570   -3.0780   23.6640 C   0  0  0  0  0  0  0  0  0  0  0  0
    7.7600   -3.3080   22.2350 C   0  0  0  0  0  0  0  0  0  0  0  0
  1  2  1  0
  2  3  2  0
  2  4  1  0
  4  5  1  0
  5  6  1  0
  6  7  1  0
  7  8  1  0
  8  9  2  0
  8 10  1  0
 10 11  1  0
 11 12  1  0
 12 13  1  0
 13 14  1  0
 14 15  2  0
 15 16  1  0
 16 17  2  0
 17 18  1  0
 14 19  1  0
 18 19  2  0
 20 19  1  0
 20 21  2  0
 20 22  2  0
 20 23  1  0
 23 24  2  0
 24 25  1  0
 25 26  2  0
 26 27  1  0
 26 28  1  0
 23 29  1  0
 28 29  2  0
 29 30  1  0
 13 31  1  0
 10 32  1  0
 31 32  1  0
  7 33  1  0
  4 34  1  0
 33 34  1  0
M  END
