piperidine-amides-14546-covalent
     RDKit          3D

 23 24  0  0  0  0  0  0  0  0999 V2000
    7.0580   -3.3010   19.2500 C   0  0  0  0  0  0  0  0  0  0  0  0
    6.2900   -4.0490   20.2490 C   0  0  0  0  0  0  0  0  0  0  0  0
    5.2450   -4.6070   19.8900 O   0  0  0  0  0  0  0  0  0  0  0  0
    6.7490   -4.1620   21.5820 N   0  0  0  0  0  0  0  0  0  0  0  0
    7.6020   -3.1360   22.1200 C   0  0  0  0  0  0  0  0  0  0  0  0
    7.2260   -2.8540   23.5400 C   0  0  0  0  0  0  0  0  0  0  0  0
    5.9400   -3.6100   23.7900 C   0  0  0  0  0  0  0  0  0  0  0  0
    5.3850   -3.3420   25.1690 C   0  0  0  0  0  0  0  0  0  0  0  0
    4.2790   -2.8050   25.1880 O   0  0  0  0  0  0  0  0  0  0  0  0
    6.1020   -3.7060   26.3140 N   0  0  0  0  0  0  0  0  0  0  0  0
    5.4530   -4.3850   27.3960 C   0  0  0  0  0  0  0  0  0  0  0  0
    5.3230   -3.7460   28.6680 C   0  0  0  0  0  0  0  0  0  0  0  0
    5.3500   -2.2570   28.5130 N   0  0  0  0  0  0  0  0  0  0  0  0
    6.4100   -1.5000   27.9950 C   0  0  0  0  0  0  0  0  0  0  0  0
    7.2040   -2.3870   27.3590 C   0  0  0  0  0  0  0  0  0  0  0  0
    7.3800   -3.4540   28.3410 C   0  0  0  0  0  0  0  0  0  0  0  0
    8.1890   -4.6570   27.9350 C   0  0  0  0  0  0  0  0  0  0  0  0
    8.7920   -4.7710   26.5990 C   0  0  0  0  0  0  0  0  0  0  0  0
    9.6910   -6.1360   26.1510 Cl  0  0  0  0  0  0  0  0  0  0  0  0
    8.5140   -3.5800   25.7560 N   0  0  0  0  0  0  0  0  0  0  0  0
    7.7470   -2.3930   26.0820 C   0  0  0  0  0  0  0  0  0  0  0  0
    5.9870   -5.0620   23.5750 C   0  0  0  0  0  0  0  0  0  0  0  0
    6.5530   -5.3730   22.3560 C   0  0  0  0  0  0  0  0  0  0  0  0
  1  2  1  0
  2  3  2  0
  2  4  1  0
  4  5  1  0
  5  6  1  0
  6  7  1  0
  7  8  1  0
  8  9  2  0
  8 10  1  0
 10 11  1  0
 11 12  1  0
 12 13  1  0
 13 14  1  0
 14 15  1  0
 15 16  2  0
 16 17  1  0
 17 18  2  0
 18 19  1  0
 18 20  1  0
 15 21  1  0
 20 21  2  0
  7 22  1  0
  4 23  1  0
 22 23  1  0
M  END
