piperidine-amides-12385-covalent
     RDKit          3D

 24 25  0  0  0  0  0  0  0  0999 V2000
    7.0700   -3.3480   19.2750 C   0  0  0  0  0  0  0  0  0  0  0  0
    6.3830   -4.1640   20.2710 C   0  0  0  0  0  0  0  0  0  0  0  0
    5.3540   -4.7590   19.9640 O   0  0  0  0  0  0  0  0  0  0  0  0
    6.9330   -4.3260   21.5890 N   0  0  0  0  0  0  0  0  0  0  0  0
    7.7020   -3.2600   22.1820 C   0  0  0  0  0  0  0  0  0  0  0  0
    6.9790   -2.6820   23.3600 C   0  0  0  0  0  0  0  0  0  0  0  0
    6.5670   -3.8270   24.2640 C   0  0  0  0  0  0  0  0  0  0  0  0
    5.7640   -3.2860   25.3900 C   0  0  0  0  0  0  0  0  0  0  0  0
    4.5370   -3.0820   25.3000 O   0  0  0  0  0  0  0  0  0  0  0  0
    6.4220   -2.9930   26.6010 N   0  0  0  0  0  0  0  0  0  0  0  0
    6.3710   -1.6590   27.1360 C   0  0  0  0  0  0  0  0  0  0  0  0
    6.9760   -1.6000   28.5070 C   0  0  0  0  0  0  0  0  0  0  0  0
    7.0240   -0.4110   29.2010 C   0  0  0  0  0  0  0  0  0  0  0  0
    6.4970    0.7530   28.6120 C   0  0  0  0  0  0  0  0  0  0  0  0
    6.5550    1.9610   29.3370 N   0  0  0  0  0  0  0  0  0  0  0  0
    5.8400    2.1870   30.8690 S   0  0  0  0  0  0  0  0  0  0  0  0
    6.9280    2.4710   31.8470 O   0  0  0  0  0  0  0  0  0  0  0  0
    4.8860    3.3280   30.8670 O   0  0  0  0  0  0  0  0  0  0  0  0
    4.9570    0.7290   31.4720 C   0  0  0  0  0  0  0  0  0  0  0  0
    3.9610    0.3040   30.4980 C   0  0  0  0  0  0  0  0  0  0  0  0
    5.9430    0.7110   27.3590 C   0  0  0  0  0  0  0  0  0  0  0  0
    5.8950   -0.4740   26.6660 C   0  0  0  0  0  0  0  0  0  0  0  0
    5.9080   -4.9930   23.6140 C   0  0  0  0  0  0  0  0  0  0  0  0
    6.5190   -5.4420   22.3620 C   0  0  0  0  0  0  0  0  0  0  0  0
  1  2  1  0
  2  3  2  0
  2  4  1  0
  4  5  1  0
  5  6  1  0
  6  7  1  0
  7  8  1  0
  8  9  2  0
  8 10  1  0
 10 11  1  0
 11 12  2  0
 12 13  1  0
 13 14  2  0
 14 15  1  0
 16 15  1  0
 16 17  2  0
 16 18  2  0
 16 19  1  0
 19 20  1  0
 14 21  1  0
 11 22  1  0
 21 22  2  0
  7 23  1  0
  4 24  1  0
 23 24  1  0
M  END
