piperidine-amides-10447-covalent
     RDKit          3D

 24 25  0  0  0  0  0  0  0  0999 V2000
    7.1190   -3.2520   19.2080 C   0  0  0  0  0  0  0  0  0  0  0  0
    6.3760   -3.9910   20.2310 C   0  0  0  0  0  0  0  0  0  0  0  0
    5.2890   -4.5170   19.8730 O   0  0  0  0  0  0  0  0  0  0  0  0
    6.8940   -4.1370   21.5200 N   0  0  0  0  0  0  0  0  0  0  0  0
    6.5560   -5.2850   22.3090 C   0  0  0  0  0  0  0  0  0  0  0  0
    5.7270   -4.7960   23.4600 C   0  0  0  0  0  0  0  0  0  0  0  0
    6.3430   -3.5970   24.1680 C   0  0  0  0  0  0  0  0  0  0  0  0
    5.3310   -2.9610   25.0590 C   0  0  0  0  0  0  0  0  0  0  0  0
    4.2490   -2.6040   24.5500 O   0  0  0  0  0  0  0  0  0  0  0  0
    5.4950   -2.7300   26.4450 N   0  0  0  0  0  0  0  0  0  0  0  0
    5.9290   -3.7800   27.3240 C   0  0  1  0  0  0  0  0  0  0  0  0
    5.5530   -3.5830   28.7570 C   0  0  0  0  0  0  0  0  0  0  0  0
    5.5450   -5.1240   26.9100 C   0  0  1  0  0  0  0  0  0  0  0  0
    4.7750   -5.4410   25.7650 O   0  0  0  0  0  0  0  0  0  0  0  0
    4.2170   -6.6580   25.5890 C   0  0  0  0  0  0  0  0  0  0  0  0
    6.7970   -5.3400   26.6400 C   0  0  0  0  0  0  0  0  0  0  0  0
    7.2530   -5.0420   25.4040 C   0  0  0  0  0  0  0  0  0  0  0  0
    8.5180   -5.1700   24.9950 C   0  0  0  0  0  0  0  0  0  0  0  0
    9.6050   -5.6790   25.8920 C   0  0  0  0  0  0  0  0  0  0  0  0
    9.0410   -5.9840   27.2450 C   0  0  0  0  0  0  0  0  0  0  0  0
    7.6100   -5.8090   27.5850 C   0  0  0  0  0  0  0  0  0  0  0  0
    6.8870   -6.1390   29.0810 Cl  0  0  0  0  0  0  0  0  0  0  0  0
    6.8300   -2.5570   23.1850 C   0  0  0  0  0  0  0  0  0  0  0  0
    7.6480   -3.0870   22.2070 C   0  0  0  0  0  0  0  0  0  0  0  0
  1  2  1  0
  2  3  2  0
  2  4  1  0
  4  5  1  0
  5  6  1  0
  6  7  1  0
  7  8  1  0
  8  9  2  0
  8 10  1  0
 10 11  1  0
 11 12  1  1
 11 13  1  0
 13 14  1  6
 14 15  1  0
 13 16  1  0
 16 17  2  0
 17 18  1  0
 18 19  2  0
 19 20  1  0
 16 21  1  0
 20 21  2  0
 21 22  1  0
  7 23  1  0
  4 24  1  0
 23 24  1  0
M  END
