piperidine-amides-2330-covalent
     RDKit          3D

 27 29  0  0  0  0  0  0  0  0999 V2000
    7.0050   -3.3450   19.3400 C   0  0  0  0  0  0  0  0  0  0  0  0
    6.3630   -4.1960   20.3810 C   0  0  0  0  0  0  0  0  0  0  0  0
    5.4330   -4.9060   20.0000 O   0  0  0  0  0  0  0  0  0  0  0  0
    6.8300   -4.1940   21.7070 N   0  0  0  0  0  0  0  0  0  0  0  0
    7.7310   -3.1750   22.2000 C   0  0  0  0  0  0  0  0  0  0  0  0
    7.4110   -2.8820   23.6290 C   0  0  0  0  0  0  0  0  0  0  0  0
    6.0160   -3.4240   23.9120 C   0  0  0  0  0  0  0  0  0  0  0  0
    5.6180   -3.0740   25.2980 C   0  0  0  0  0  0  0  0  0  0  0  0
    4.4160   -3.0260   25.5890 O   0  0  0  0  0  0  0  0  0  0  0  0
    6.5870   -2.8060   26.2810 N   0  0  0  0  0  0  0  0  0  0  0  0
    6.5140   -1.6550   27.1700 C   0  0  0  0  0  0  0  0  0  0  0  0
    5.8370   -0.4480   26.6030 C   0  0  0  0  0  0  0  0  0  0  0  0
    5.6520    0.7250   27.2150 C   0  0  0  0  0  0  0  0  0  0  0  0
    6.1520    0.7480   28.4580 C   0  0  0  0  0  0  0  0  0  0  0  0
    6.0120    1.9110   29.1720 C   0  0  0  0  0  0  0  0  0  0  0  0
    6.9560    2.5620   29.9050 O   0  0  0  0  0  0  0  0  0  0  0  0
    4.8120    2.4520   29.1400 N   0  0  0  0  0  0  0  0  0  0  0  0
    4.1510    2.6300   30.4510 C   0  0  0  0  0  0  0  0  0  0  0  0
    3.9880    4.1160   30.5270 C   0  0  0  0  0  0  0  0  0  0  0  0
    3.7200    4.2240   32.0050 C   0  0  0  0  0  0  0  0  0  0  0  0
    2.4950    3.6050   32.2280 O   0  0  0  0  0  0  0  0  0  0  0  0
    2.2160    2.2630   31.9450 C   0  0  0  0  0  0  0  0  0  0  0  0
    2.8890    1.8920   30.6640 C   0  0  0  0  0  0  0  0  0  0  0  0
    6.7850   -0.3400   29.0240 C   0  0  0  0  0  0  0  0  0  0  0  0
    7.1070   -1.7470   28.5450 C   0  0  0  0  0  0  0  0  0  0  0  0
    5.9690   -4.9450   23.7160 C   0  0  0  0  0  0  0  0  0  0  0  0
    6.6400   -5.3560   22.5690 C   0  0  0  0  0  0  0  0  0  0  0  0
  1  2  1  0
  2  3  2  0
  2  4  1  0
  4  5  1  0
  5  6  1  0
  6  7  1  0
  7  8  1  0
  8  9  2  0
  8 10  1  0
 10 11  1  0
 11 12  2  0
 12 13  1  0
 13 14  2  0
 14 15  1  0
 15 16  2  0
 15 17  1  0
 17 18  1  0
 18 19  1  0
 19 20  1  0
 20 21  1  0
 21 22  1  0
 18 23  1  0
 22 23  1  0
 14 24  1  0
 11 25  1  0
 24 25  2  0
  7 26  1  0
  4 27  1  0
 26 27  1  0
M  END
