piperidine-amides-7270-covalent
     RDKit          3D

 21 22  0  0  0  0  0  0  0  0999 V2000
    7.1330   -3.2910   19.2420 C   0  0  0  0  0  0  0  0  0  0  0  0
    6.3920   -4.0420   20.2600 C   0  0  0  0  0  0  0  0  0  0  0  0
    5.3030   -4.5570   19.8950 O   0  0  0  0  0  0  0  0  0  0  0  0
    6.9130   -4.2080   21.5500 N   0  0  0  0  0  0  0  0  0  0  0  0
    6.6280   -5.3790   22.3530 C   0  0  0  0  0  0  0  0  0  0  0  0
    6.0790   -4.9290   23.6870 C   0  0  0  0  0  0  0  0  0  0  0  0
    6.1100   -3.4300   23.8270 C   0  0  0  0  0  0  0  0  0  0  0  0
    5.7470   -3.0220   25.1950 C   0  0  0  0  0  0  0  0  0  0  0  0
    4.5330   -2.8580   25.4410 O   0  0  0  0  0  0  0  0  0  0  0  0
    6.6860   -2.7950   26.2140 N   0  0  0  0  0  0  0  0  0  0  0  0
    6.3550   -3.0800   27.5840 C   0  0  0  0  0  0  0  0  0  0  0  0
    5.1370   -3.9510   27.6900 C   0  0  1  0  0  0  0  0  0  0  0  0
    4.3670   -4.0400   26.7050 O   0  0  0  0  0  0  0  0  0  0  0  0
    5.1810   -5.2080   28.1440 C   0  0  0  0  0  0  0  0  0  0  0  0
    6.0720   -5.7210   29.0480 C   0  0  0  0  0  0  0  0  0  0  0  0
    5.9750   -7.0470   29.4200 C   0  0  0  0  0  0  0  0  0  0  0  0
    5.0010   -7.8800   28.9010 C   0  0  0  0  0  0  0  0  0  0  0  0
    4.0880   -7.4240   27.9960 C   0  0  0  0  0  0  0  0  0  0  0  0
    4.2110   -6.0030   27.6170 C   0  0  0  0  0  0  0  0  0  0  0  0
    7.4470   -2.8850   23.5030 C   0  0  0  0  0  0  0  0  0  0  0  0
    7.7420   -3.1010   22.0490 C   0  0  0  0  0  0  0  0  0  0  0  0
  1  2  1  0
  2  3  2  0
  2  4  1  0
  4  5  1  0
  5  6  1  0
  6  7  1  0
  7  8  1  0
  8  9  2  0
  8 10  1  0
 10 11  1  0
 11 12  1  0
 12 13  1  6
 12 14  1  0
 14 15  2  0
 15 16  1  0
 16 17  2  0
 17 18  1  0
 14 19  1  0
 18 19  2  0
  7 20  1  0
  4 21  1  0
 20 21  1  0
M  END
