piperidine-amides-1612-covalent
     RDKit          3D

 20 21  0  0  0  0  0  0  0  0999 V2000
    7.1230   -3.2710   19.2350 C   0  0  0  0  0  0  0  0  0  0  0  0
    6.3630   -4.0680   20.2370 C   0  0  0  0  0  0  0  0  0  0  0  0
    5.2870   -4.5880   19.8980 O   0  0  0  0  0  0  0  0  0  0  0  0
    6.9100   -4.2670   21.5230 N   0  0  0  0  0  0  0  0  0  0  0  0
    6.5870   -5.4090   22.3330 C   0  0  0  0  0  0  0  0  0  0  0  0
    5.6640   -4.8970   23.4420 C   0  0  0  0  0  0  0  0  0  0  0  0
    6.3810   -3.8150   24.1860 C   0  0  0  0  0  0  0  0  0  0  0  0
    5.5600   -3.2750   25.2950 C   0  0  0  0  0  0  0  0  0  0  0  0
    4.5180   -3.8860   25.5460 O   0  0  0  0  0  0  0  0  0  0  0  0
    5.9450   -2.1270   25.9920 N   0  0  0  0  0  0  0  0  0  0  0  0
    6.7110   -2.0500   27.1750 C   0  0  0  0  0  0  0  0  0  0  0  0
    6.3500   -1.4090   28.3350 C   0  0  2  0  0  0  0  0  0  0  0  0
    5.6670   -2.2050   29.2570 C   0  0  0  0  0  0  0  0  0  0  0  0
    5.4850   -0.2090   28.0000 C   0  0  0  0  0  0  0  0  0  0  0  0
    5.1550    0.5390   29.2390 C   0  0  0  0  0  0  0  0  0  0  0  0
    6.1180    0.5550   30.4190 C   0  0  0  0  0  0  0  0  0  0  0  0
    7.3950   -0.2460   30.1910 C   0  0  0  0  0  0  0  0  0  0  0  0
    7.4580   -0.8440   28.9430 C   0  0  0  0  0  0  0  0  0  0  0  0
    6.8490   -2.6740   23.3500 C   0  0  0  0  0  0  0  0  0  0  0  0
    7.6330   -3.1910   22.1630 C   0  0  0  0  0  0  0  0  0  0  0  0
  1  2  1  0
  2  3  2  0
  2  4  1  0
  4  5  1  0
  5  6  1  0
  6  7  1  0
  7  8  1  0
  8  9  2  0
  8 10  1  0
 10 11  1  0
 12 11  1  0
 12 13  1  1
 12 14  1  0
 14 15  1  0
 15 16  2  0
 16 17  1  0
 12 18  1  0
 17 18  1  0
  7 19  1  0
  4 20  1  0
 19 20  1  0
M  END
