piperidine-amides-9338-covalent
     RDKit          3D

 19 19  0  0  0  0  0  0  0  0999 V2000
    7.1580   -3.3060   19.2070 C   0  0  0  0  0  0  0  0  0  0  0  0
    6.3660   -4.0070   20.2100 C   0  0  0  0  0  0  0  0  0  0  0  0
    5.2890   -4.5350   19.8830 O   0  0  0  0  0  0  0  0  0  0  0  0
    6.8470   -4.1360   21.5150 N   0  0  0  0  0  0  0  0  0  0  0  0
    7.7480   -3.1700   22.0980 C   0  0  0  0  0  0  0  0  0  0  0  0
    7.0120   -2.6290   23.2800 C   0  0  0  0  0  0  0  0  0  0  0  0
    6.5400   -3.7260   24.1760 C   0  0  0  0  0  0  0  0  0  0  0  0
    5.7590   -3.2020   25.3130 C   0  0  0  0  0  0  0  0  0  0  0  0
    4.7350   -2.4860   25.1070 O   0  0  0  0  0  0  0  0  0  0  0  0
    6.0920   -3.4540   26.6520 N   0  0  0  0  0  0  0  0  0  0  0  0
    5.8740   -4.8010   27.2230 C   0  0  1  0  0  0  0  0  0  0  0  0
    6.3030   -4.7950   28.6180 C   0  0  0  0  0  0  0  0  0  0  0  0
    6.2550   -6.1230   29.2310 C   0  0  0  0  0  0  0  0  0  0  0  0
    7.3260   -6.6620   28.9870 O   0  0  0  0  0  0  0  0  0  0  0  0
    4.4640   -5.2930   27.1840 C   0  0  0  0  0  0  0  0  0  0  0  0
    4.5940   -6.7320   26.7190 C   0  0  0  0  0  0  0  0  0  0  0  0
    3.6150   -4.4680   26.2060 C   0  0  0  0  0  0  0  0  0  0  0  0
    5.7260   -4.7470   23.3950 C   0  0  0  0  0  0  0  0  0  0  0  0
    6.4340   -5.2610   22.3060 C   0  0  0  0  0  0  0  0  0  0  0  0
  1  2  1  0
  2  3  2  0
  2  4  1  0
  4  5  1  0
  5  6  1  0
  6  7  1  0
  7  8  1  0
  8  9  2  0
  8 10  1  0
 10 11  1  0
 11 12  1  1
 12 13  1  0
 13 14  1  0
 11 15  1  0
 15 16  1  0
 15 17  1  0
  7 18  1  0
  4 19  1  0
 18 19  1  0
M  END
