piperidine-amides-5123-covalent
     RDKit          3D

 22 22  0  0  0  0  0  0  0  0999 V2000
    7.1070   -3.3100   19.2900 C   0  0  0  0  0  0  0  0  0  0  0  0
    6.3720   -4.0760   20.3210 C   0  0  0  0  0  0  0  0  0  0  0  0
    5.3230   -4.6300   19.9300 O   0  0  0  0  0  0  0  0  0  0  0  0
    6.8590   -4.2080   21.6390 N   0  0  0  0  0  0  0  0  0  0  0  0
    7.6540   -3.1820   22.2490 C   0  0  0  0  0  0  0  0  0  0  0  0
    7.2590   -2.8900   23.6260 C   0  0  0  0  0  0  0  0  0  0  0  0
    6.0030   -3.5740   23.9960 C   0  0  0  0  0  0  0  0  0  0  0  0
    5.5200   -3.2250   25.3670 C   0  0  0  0  0  0  0  0  0  0  0  0
    4.3640   -2.7690   25.4420 O   0  0  0  0  0  0  0  0  0  0  0  0
    6.2710   -3.3730   26.5520 N   0  0  0  0  0  0  0  0  0  0  0  0
    6.1780   -4.5560   27.4610 C   0  0  0  0  0  0  0  0  0  0  0  0
    4.8600   -4.7840   28.0720 C   0  0  0  0  0  0  0  0  0  0  0  0
    3.6940   -4.8600   27.1960 C   0  0  0  0  0  0  0  0  0  0  0  0
    2.9280   -6.0040   27.1810 C   0  0  0  0  0  0  0  0  0  0  0  0
    1.7560   -6.0320   26.4480 C   0  0  0  0  0  0  0  0  0  0  0  0
    1.0670   -7.2020   26.5200 C   0  0  0  0  0  0  0  0  0  0  0  0
    1.7310   -8.3550   26.2130 C   0  0  0  0  0  0  0  0  0  0  0  0
    1.8390   -8.7570   24.9100 C   0  0  0  0  0  0  0  0  0  0  0  0
    0.8510   -8.3600   24.0060 C   0  0  0  0  0  0  0  0  0  0  0  0
    1.0420   -8.0840   22.5610 C   0  0  0  0  0  0  0  0  0  0  0  0
    6.0500   -5.0490   23.7830 C   0  0  0  0  0  0  0  0  0  0  0  0
    6.5950   -5.4070   22.4180 C   0  0  0  0  0  0  0  0  0  0  0  0
  1  2  1  0
  2  3  2  0
  2  4  1  0
  4  5  1  0
  5  6  1  0
  6  7  1  0
  7  8  1  0
  8  9  2  0
  8 10  1  0
 10 11  1  0
 11 12  1  0
 12 13  1  0
 13 14  1  0
 14 15  1  0
 15 16  1  0
 16 17  1  0
 17 18  1  0
 18 19  1  0
 19 20  2  3
  7 21  1  0
  4 22  1  0
 21 22  1  0
M  END
