piperidine-amides-28848-covalent
     RDKit          3D

 26 28  0  0  0  0  0  0  0  0999 V2000
    7.0550   -3.3500   19.3220 C   0  0  0  0  0  0  0  0  0  0  0  0
    6.4160   -4.2010   20.3220 C   0  0  0  0  0  0  0  0  0  0  0  0
    5.4000   -4.8340   19.9830 O   0  0  0  0  0  0  0  0  0  0  0  0
    6.9850   -4.3280   21.6240 N   0  0  0  0  0  0  0  0  0  0  0  0
    6.5150   -5.3740   22.4740 C   0  0  0  0  0  0  0  0  0  0  0  0
    5.6510   -4.7750   23.5520 C   0  0  0  0  0  0  0  0  0  0  0  0
    6.4580   -3.7010   24.2690 C   0  0  0  0  0  0  0  0  0  0  0  0
    5.7020   -3.1680   25.4560 C   0  0  0  0  0  0  0  0  0  0  0  0
    4.5210   -2.9170   25.2370 O   0  0  0  0  0  0  0  0  0  0  0  0
    6.3210   -2.9890   26.7060 N   0  0  0  0  0  0  0  0  0  0  0  0
    6.4260   -4.1370   27.5570 C   0  0  0  0  0  0  0  0  0  0  0  0
    6.0450   -1.7730   27.4290 C   0  0  0  0  0  0  0  0  0  0  0  0
    5.7640   -0.6510   26.6930 C   0  0  0  0  0  0  0  0  0  0  0  0
    5.7080    0.5770   27.3560 C   0  0  0  0  0  0  0  0  0  0  0  0
    5.8330    0.6540   28.7720 N   0  0  0  0  0  0  0  0  0  0  0  0
    4.9740    1.4920   29.6060 C   0  0  0  0  0  0  0  0  0  0  0  0
    5.8690    2.6280   30.1350 C   0  0  0  0  0  0  0  0  0  0  0  0
    6.3100    2.4190   31.5340 C   0  0  0  0  0  0  0  0  0  0  0  0
    5.0420    2.7130   32.2290 N   0  0  0  0  0  0  0  0  0  0  0  0
    4.7160    3.9240   32.9570 C   0  0  0  0  0  0  0  0  0  0  0  0
    4.0560    1.9890   31.6420 C   0  0  0  0  0  0  0  0  0  0  0  0
    4.3060    0.9050   30.8260 C   0  0  0  0  0  0  0  0  0  0  0  0
    6.7780   -0.3130   29.2450 C   0  0  0  0  0  0  0  0  0  0  0  0
    6.9230   -1.5620   28.4300 C   0  0  0  0  0  0  0  0  0  0  0  0
    6.8050   -2.5990   23.2730 C   0  0  0  0  0  0  0  0  0  0  0  0
    7.6890   -3.2430   22.2320 C   0  0  0  0  0  0  0  0  0  0  0  0
  1  2  1  0
  2  3  2  0
  2  4  1  0
  4  5  1  0
  5  6  1  0
  6  7  1  0
  7  8  1  0
  8  9  2  0
  8 10  1  0
 10 11  1  0
 10 12  1  0
 12 13  1  0
 13 14  1  0
 14 15  1  0
 15 16  1  0
 16 17  1  0
 17 18  1  0
 18 19  1  0
 19 20  1  0
 19 21  1  0
 16 22  1  0
 21 22  1  0
 15 23  1  0
 12 24  1  0
 23 24  1  0
  7 25  1  0
  4 26  1  0
 25 26  1  0
M  END
