piperidine-amides-1906-covalent
     RDKit          3D

 16 16  0  0  0  0  0  0  0  0999 V2000
    7.0360   -3.2690   19.2300 C   0  0  0  0  0  0  0  0  0  0  0  0
    6.3070   -4.0430   20.2760 C   0  0  0  0  0  0  0  0  0  0  0  0
    5.2840   -4.6190   19.9100 O   0  0  0  0  0  0  0  0  0  0  0  0
    6.7860   -4.1350   21.5920 N   0  0  0  0  0  0  0  0  0  0  0  0
    7.6590   -3.1220   22.1330 C   0  0  0  0  0  0  0  0  0  0  0  0
    7.3790   -2.9600   23.5930 C   0  0  0  0  0  0  0  0  0  0  0  0
    6.0870   -3.7040   23.9280 C   0  0  0  0  0  0  0  0  0  0  0  0
    5.6510   -3.3130   25.2880 C   0  0  0  0  0  0  0  0  0  0  0  0
    4.4430   -3.2710   25.5480 O   0  0  0  0  0  0  0  0  0  0  0  0
    6.5820   -2.9850   26.2860 N   0  0  0  0  0  0  0  0  0  0  0  0
    6.2230   -3.1860   27.6760 C   0  0  0  0  0  0  0  0  0  0  0  0
    6.5680   -4.6100   28.0600 C   0  0  0  0  0  0  0  0  0  0  0  0
    5.9120   -5.3880   28.9610 C   0  0  0  0  0  0  0  0  0  0  0  0
    6.3650   -6.6500   29.0820 C   0  0  0  0  0  0  0  0  0  0  0  0
    6.3120   -5.2130   23.7360 C   0  0  0  0  0  0  0  0  0  0  0  0
    6.5540   -5.4150   22.2420 C   0  0  0  0  0  0  0  0  0  0  0  0
  1  2  1  0
  2  3  2  0
  2  4  1  0
  4  5  1  0
  5  6  1  0
  6  7  1  0
  7  8  1  0
  8  9  2  0
  8 10  1  0
 10 11  1  0
 11 12  1  0
 12 13  3  0
 13 14  1  0
  7 15  1  0
  4 16  1  0
 15 16  1  0
M  END
