piperidine-amides-10530-covalent
     RDKit          3D

 23 25  0  0  0  0  0  0  0  0999 V2000
    7.1160   -3.3020   19.2770 C   0  0  0  0  0  0  0  0  0  0  0  0
    6.3480   -4.0380   20.2840 C   0  0  0  0  0  0  0  0  0  0  0  0
    5.2760   -4.5680   19.8940 O   0  0  0  0  0  0  0  0  0  0  0  0
    6.8330   -4.1690   21.5870 N   0  0  0  0  0  0  0  0  0  0  0  0
    7.7310   -3.1780   22.1410 C   0  0  0  0  0  0  0  0  0  0  0  0
    7.3520   -2.9950   23.5700 C   0  0  0  0  0  0  0  0  0  0  0  0
    6.0040   -3.6040   23.7990 C   0  0  0  0  0  0  0  0  0  0  0  0
    5.5880   -3.4230   25.1980 C   0  0  0  0  0  0  0  0  0  0  0  0
    4.3680   -3.4800   25.4570 O   0  0  0  0  0  0  0  0  0  0  0  0
    6.4870   -3.1860   26.2420 N   0  0  0  0  0  0  0  0  0  0  0  0
    5.9800   -2.7950   27.5200 C   0  0  1  0  0  0  0  0  0  0  0  0
    6.6130   -3.5870   28.6480 C   0  0  0  0  0  0  0  0  0  0  0  0
    6.0850   -1.3290   27.7010 C   0  0  1  0  0  0  0  0  0  0  0  0
    4.9800   -0.5400   27.3360 C   0  0  0  0  0  0  0  0  0  0  0  0
    4.3910   -0.1280   28.4460 O   0  0  0  0  0  0  0  0  0  0  0  0
    5.3190   -0.1150   29.3220 C   0  0  0  0  0  0  0  0  0  0  0  0
    5.3230    0.5290   30.5550 C   0  0  0  0  0  0  0  0  0  0  0  0
    6.3560    0.5200   31.4650 C   0  0  0  0  0  0  0  0  0  0  0  0
    7.6490   -0.2040   31.2380 C   0  0  0  0  0  0  0  0  0  0  0  0
    7.6010   -0.8960   29.8830 C   0  0  0  0  0  0  0  0  0  0  0  0
    6.4140   -0.8280   28.9520 C   0  0  0  0  0  0  0  0  0  0  0  0
    5.9820   -5.0810   23.5000 C   0  0  0  0  0  0  0  0  0  0  0  0
    6.6790   -5.4140   22.3520 C   0  0  0  0  0  0  0  0  0  0  0  0
  1  2  1  0
  2  3  2  0
  2  4  1  0
  4  5  1  0
  5  6  1  0
  6  7  1  0
  7  8  1  0
  8  9  2  0
  8 10  1  0
 10 11  1  0
 11 12  1  1
 11 13  1  0
 13 14  1  1
 14 15  1  0
 15 16  1  0
 16 17  1  0
 17 18  2  0
 18 19  1  0
 19 20  2  0
 13 21  1  0
 16 21  2  0
 20 21  1  0
  7 22  1  0
  4 23  1  0
 22 23  1  0
M  END
