piperidine-amides-8667-covalent
     RDKit          3D

 23 24  0  0  0  0  0  0  0  0999 V2000
    7.0630   -3.2700   19.2240 C   0  0  0  0  0  0  0  0  0  0  0  0
    6.3420   -4.0210   20.2590 C   0  0  0  0  0  0  0  0  0  0  0  0
    5.3250   -4.6480   19.9170 O   0  0  0  0  0  0  0  0  0  0  0  0
    6.8060   -4.0640   21.6000 N   0  0  0  0  0  0  0  0  0  0  0  0
    7.7120   -3.0700   22.0900 C   0  0  0  0  0  0  0  0  0  0  0  0
    7.5400   -3.0180   23.5680 C   0  0  0  0  0  0  0  0  0  0  0  0
    6.0850   -3.3700   23.7680 C   0  0  0  0  0  0  0  0  0  0  0  0
    5.6300   -3.1030   25.1790 C   0  0  0  0  0  0  0  0  0  0  0  0
    4.4130   -3.1100   25.3540 O   0  0  0  0  0  0  0  0  0  0  0  0
    6.5720   -2.8630   26.1800 N   0  0  0  0  0  0  0  0  0  0  0  0
    7.0970   -3.9290   26.9530 C   0  0  2  0  0  0  0  0  0  0  0  0
    7.9250   -4.7560   26.2070 C   0  0  0  0  0  0  0  0  0  0  0  0
    8.2430   -5.8430   26.6720 O   0  0  0  0  0  0  0  0  0  0  0  0
    9.5520   -6.1060   26.7400 C   0  0  0  0  0  0  0  0  0  0  0  0
    5.9020   -4.7360   27.3920 C   0  0  0  0  0  0  0  0  0  0  0  0
    5.5360   -5.8360   26.4820 C   0  0  0  0  0  0  0  0  0  0  0  0
    4.3600   -6.7970   26.7090 C   0  0  0  0  0  0  0  0  0  0  0  0
    3.5400   -6.5920   27.9360 C   0  0  0  0  0  0  0  0  0  0  0  0
    3.9000   -5.4580   28.8860 C   0  0  0  0  0  0  0  0  0  0  0  0
    2.9710   -5.1610   30.3430 Cl  0  0  0  0  0  0  0  0  0  0  0  0
    5.1280   -4.5600   28.5250 C   0  0  0  0  0  0  0  0  0  0  0  0
    5.8170   -4.8460   23.4730 C   0  0  0  0  0  0  0  0  0  0  0  0
    6.6170   -5.2420   22.4100 C   0  0  0  0  0  0  0  0  0  0  0  0
  1  2  1  0
  2  3  2  0
  2  4  1  0
  4  5  1  0
  5  6  1  0
  6  7  1  0
  7  8  1  0
  8  9  2  0
  8 10  1  0
 10 11  1  0
 11 12  1  6
 12 13  1  0
 13 14  1  0
 11 15  1  0
 15 16  2  0
 16 17  1  0
 17 18  2  0
 18 19  1  0
 19 20  1  0
 15 21  1  0
 19 21  2  0
  7 22  1  0
  4 23  1  0
 22 23  1  0
M  END
