piperidine-amides-14434-covalent
     RDKit          3D

 23 24  0  0  0  0  0  0  0  0999 V2000
    7.0820   -3.2530   19.2040 C   0  0  0  0  0  0  0  0  0  0  0  0
    6.3490   -3.9840   20.2430 C   0  0  0  0  0  0  0  0  0  0  0  0
    5.3220   -4.6000   19.9040 O   0  0  0  0  0  0  0  0  0  0  0  0
    6.8120   -4.0190   21.5880 N   0  0  0  0  0  0  0  0  0  0  0  0
    7.7500   -3.0280   22.0420 C   0  0  0  0  0  0  0  0  0  0  0  0
    7.6010   -2.8990   23.5140 C   0  0  0  0  0  0  0  0  0  0  0  0
    6.2000   -3.3820   23.7680 C   0  0  0  0  0  0  0  0  0  0  0  0
    5.7770   -3.1090   25.1760 C   0  0  0  0  0  0  0  0  0  0  0  0
    5.6410   -1.9400   25.5150 O   0  0  0  0  0  0  0  0  0  0  0  0
    5.5480   -4.2020   25.9760 N   0  0  0  0  0  0  0  0  0  0  0  0
    6.0020   -4.3600   27.3040 C   0  0  0  0  0  0  0  0  0  0  0  0
    5.9530   -5.7080   27.6910 C   0  0  2  0  0  0  0  0  0  0  0  0
    4.8960   -6.4180   27.1440 C   0  0  0  0  0  0  0  0  0  0  0  0
    4.7780   -6.5260   25.7550 C   0  0  0  0  0  0  0  0  0  0  0  0
    3.6290   -7.3000   25.1510 C   0  0  0  0  0  0  0  0  0  0  0  0
    2.5660   -7.9810   26.0360 C   0  0  0  0  0  0  0  0  0  0  0  0
    2.7670   -7.8120   27.4820 C   0  0  0  0  0  0  0  0  0  0  0  0
    3.9460   -7.0260   27.9380 C   0  0  0  0  0  0  0  0  0  0  0  0
    6.0100   -5.8060   29.0520 C   0  0  0  0  0  0  0  0  0  0  0  0
    6.1310   -7.1100   29.4700 F   0  0  0  0  0  0  0  0  0  0  0  0
    4.8680   -5.2600   29.6380 F   0  0  0  0  0  0  0  0  0  0  0  0
    6.1170   -4.8860   23.5710 C   0  0  0  0  0  0  0  0  0  0  0  0
    6.6820   -5.2370   22.3550 C   0  0  0  0  0  0  0  0  0  0  0  0
  1  2  1  0
  2  3  2  0
  2  4  1  0
  4  5  1  0
  5  6  1  0
  6  7  1  0
  7  8  1  0
  8  9  2  0
  8 10  1  0
 10 11  1  0
 12 11  1  1
 12 13  1  0
 13 14  2  0
 14 15  1  0
 15 16  2  0
 16 17  1  0
 13 18  1  0
 17 18  2  0
 12 19  1  0
 19 20  1  0
 19 21  1  0
  7 22  1  0
  4 23  1  0
 22 23  1  0
M  END
