piperidine-amides-29559-covalent
     RDKit          3D

 24 26  0  0  0  0  0  0  0  0999 V2000
    7.0470   -3.3380   19.3750 C   0  0  0  0  0  0  0  0  0  0  0  0
    6.3790   -4.2020   20.3400 C   0  0  0  0  0  0  0  0  0  0  0  0
    5.3930   -4.8530   19.9880 O   0  0  0  0  0  0  0  0  0  0  0  0
    6.8900   -4.3390   21.6830 N   0  0  0  0  0  0  0  0  0  0  0  0
    6.6560   -5.5590   22.4060 C   0  0  0  0  0  0  0  0  0  0  0  0
    6.2050   -5.2330   23.8040 C   0  0  0  0  0  0  0  0  0  0  0  0
    6.2200   -3.7180   23.9520 C   0  0  0  0  0  0  0  0  0  0  0  0
    5.7400   -3.2410   25.2970 C   0  0  0  0  0  0  0  0  0  0  0  0
    4.9110   -2.3190   25.3930 O   0  0  0  0  0  0  0  0  0  0  0  0
    6.1820   -3.8420   26.5060 N   0  0  0  0  0  0  0  0  0  0  0  0
    6.3240   -3.0300   27.6740 C   0  0  0  0  0  0  0  0  0  0  0  0
    6.2350   -4.0050   28.8340 C   0  0  0  0  0  0  0  0  0  0  0  0
    5.2170   -4.9040   28.9110 N   0  0  0  0  0  0  0  0  0  0  0  0
    4.5370   -4.9060   30.0690 C   0  0  0  0  0  0  0  0  0  0  0  0
    4.6530   -5.9920   30.7890 N   0  0  0  0  0  0  0  0  0  0  0  0
    3.9830   -6.1600   32.0460 C   0  0  0  0  0  0  0  0  0  0  0  0
    3.9530   -7.4990   33.2230 S   0  0  0  0  0  0  0  0  0  0  0  0
    5.5770   -8.2920   33.2000 C   0  0  0  0  0  0  0  0  0  0  0  0
    3.2610   -5.0240   32.2890 N   0  0  0  0  0  0  0  0  0  0  0  0
    3.4930   -3.9410   30.9870 S   0  0  0  0  0  0  0  0  0  0  0  0
    4.6680   -5.1690   27.6470 C   0  0  0  0  0  0  0  0  0  0  0  0
    5.6860   -5.1350   26.7510 C   0  0  0  0  0  0  0  0  0  0  0  0
    7.6290   -3.2550   23.6350 C   0  0  0  0  0  0  0  0  0  0  0  0
    7.6310   -3.2040   22.2350 C   0  0  0  0  0  0  0  0  0  0  0  0
  1  2  1  0
  2  3  2  0
  2  4  1  0
  4  5  1  0
  5  6  1  0
  6  7  1  0
  7  8  1  0
  8  9  2  0
  8 10  1  0
 10 11  1  0
 11 12  1  0
 12 13  1  0
 13 14  1  0
 14 15  2  0
 15 16  1  0
 16 17  1  0
 17 18  1  0
 16 19  2  0
 14 20  1  0
 19 20  1  0
 13 21  1  0
 10 22  1  0
 21 22  1  0
  7 23  1  0
  4 24  1  0
 23 24  1  0
M  END
