piperidine-amides-34190-covalent
     RDKit          3D

 30 32  0  0  0  0  0  0  0  0999 V2000
    7.0680   -3.3590   19.4270 C   0  0  0  0  0  0  0  0  0  0  0  0
    6.3790   -4.2230   20.3960 C   0  0  0  0  0  0  0  0  0  0  0  0
    5.4190   -4.9310   20.0090 O   0  0  0  0  0  0  0  0  0  0  0  0
    6.8110   -4.2870   21.7380 N   0  0  0  0  0  0  0  0  0  0  0  0
    6.7240   -5.5810   22.3990 C   0  0  0  0  0  0  0  0  0  0  0  0
    6.3580   -5.3710   23.8840 C   0  0  0  0  0  0  0  0  0  0  0  0
    6.2290   -3.8860   24.0770 C   0  0  0  0  0  0  0  0  0  0  0  0
    5.5890   -3.4760   25.3670 C   0  0  0  0  0  0  0  0  0  0  0  0
    4.4420   -3.0110   25.2280 O   0  0  0  0  0  0  0  0  0  0  0  0
    6.1300   -3.5640   26.6990 N   0  0  0  0  0  0  0  0  0  0  0  0
    6.2460   -4.8460   27.3300 C   0  0  0  0  0  0  0  0  0  0  0  0
    5.0890   -4.9310   28.1960 C   0  0  1  0  0  0  0  0  0  0  0  0
    5.2560   -5.3760   29.4810 C   0  0  0  0  0  0  0  0  0  0  0  0
    4.2740   -4.7820   30.2710 C   0  0  0  0  0  0  0  0  0  0  0  0
    4.1250   -3.5050   29.6700 N   0  0  0  0  0  0  0  0  0  0  0  0
    4.2070   -2.2630   30.2860 C   0  0  0  0  0  0  0  0  0  0  0  0
    3.1950   -1.4190   30.6190 O   0  0  0  0  0  0  0  0  0  0  0  0
    5.5370   -1.9740   30.5400 O   0  0  0  0  0  0  0  0  0  0  0  0
    6.2760   -0.9440   29.8960 C   0  0  0  0  0  0  0  0  0  0  0  0
    7.5410   -1.4910   29.2660 C   0  0  0  0  0  0  0  0  0  0  0  0
    7.5940   -0.5010   30.4210 C   0  0  0  0  0  0  0  0  0  0  0  0
    5.7740   -0.0030   29.0600 C   0  0  0  0  0  0  0  0  0  0  0  0
    4.4810   -3.7250   28.3110 C   0  0  2  0  0  0  0  0  0  0  0  0
    3.2950   -3.5470   27.5750 C   0  0  0  0  0  0  0  0  0  0  0  0
    3.0390   -2.4050   26.8610 O   0  0  0  0  0  0  0  0  0  0  0  0
    2.2970   -4.5090   27.5250 O   0  0  0  0  0  0  0  0  0  0  0  0
    2.4020   -5.7000   26.7680 C   0  0  0  0  0  0  0  0  0  0  0  0
    5.5190   -2.7470   27.6860 C   0  0  0  0  0  0  0  0  0  0  0  0
    7.5030   -3.1550   23.7660 C   0  0  0  0  0  0  0  0  0  0  0  0
    7.7040   -3.2510   22.2420 C   0  0  0  0  0  0  0  0  0  0  0  0
  1  2  1  0
  2  3  2  0
  2  4  1  0
  4  5  1  0
  5  6  1  0
  6  7  1  0
  7  8  1  0
  8  9  2  0
  8 10  1  0
 10 11  1  0
 12 11  1  1
 12 13  1  0
 13 14  1  0
 14 15  1  0
 15 16  1  0
 16 17  2  0
 16 18  1  0
 19 18  1  0
 19 20  1  0
 19 21  1  0
 19 22  1  0
 12 23  1  0
 15 23  1  0
 23 24  1  6
 24 25  2  0
 24 26  1  0
 26 27  1  0
 10 28  1  0
 23 28  1  0
  7 29  1  0
  4 30  1  0
 29 30  1  0
M  END
