piperidine-amides-536-covalent
     RDKit          3D

 27 29  0  0  0  0  0  0  0  0999 V2000
    7.2100   -4.0650   19.6650 C   0  0  0  0  0  0  0  0  0  0  0  0
    6.0720   -4.0270   20.4190 C   0  0  0  0  0  0  0  0  0  0  0  0
    5.0210   -4.1240   19.7220 O   0  0  0  0  0  0  0  0  0  0  0  0
    6.1610   -4.0410   21.8160 N   0  0  0  0  0  0  0  0  0  0  0  0
    7.3210   -3.2070   22.3070 C   0  0  0  0  0  0  0  0  0  0  0  0
    6.9570   -2.7820   23.8000 C   0  0  0  0  0  0  0  0  0  0  0  0
    5.9460   -3.8020   24.2270 C   0  0  0  0  0  0  0  0  0  0  0  0
    5.1710   -3.5880   25.5920 C   0  0  0  0  0  0  0  0  0  0  0  0
    4.0270   -3.9890   25.4880 O   0  0  0  0  0  0  0  0  0  0  0  0
    5.8830   -3.0590   26.4730 N   0  0  0  0  0  0  0  0  0  0  0  0
    6.4610   -2.4410   27.5080 C   0  0  2  0  0  0  0  0  0  0  0  0
    6.9130   -2.7750   28.7440 C   0  0  0  0  0  0  0  0  0  0  0  0
    6.0120   -2.3560   29.7240 O   0  0  0  0  0  0  0  0  0  0  0  0
    6.2740   -1.1390   30.3220 C   0  0  0  0  0  0  0  0  0  0  0  0
    7.6580   -0.6630   30.3960 C   0  0  0  0  0  0  0  0  0  0  0  0
    7.8220    0.6980   31.0870 C   0  0  0  0  0  0  0  0  0  0  0  0
    6.6650    1.3410   31.5670 C   0  0  0  0  0  0  0  0  0  0  0  0
    5.2780    1.1030   31.6180 C   0  0  0  0  0  0  0  0  0  0  0  0
    5.2290   -0.2540   30.9160 C   0  0  0  0  0  0  0  0  0  0  0  0
    5.3990   -1.3590   27.7980 C   0  0  0  0  0  0  0  0  0  0  0  0
    6.3660   -0.4630   27.4850 C   0  0  0  0  0  0  0  0  0  0  0  0
    6.0310    0.8590   27.5500 C   0  0  0  0  0  0  0  0  0  0  0  0
    4.7660    1.2130   27.9220 C   0  0  0  0  0  0  0  0  0  0  0  0
    3.8060    0.2580   28.2340 C   0  0  0  0  0  0  0  0  0  0  0  0
    4.1130   -1.1050   28.1780 C   0  0  0  0  0  0  0  0  0  0  0  0
    6.2450   -5.1940   23.8980 C   0  0  0  0  0  0  0  0  0  0  0  0
    6.1030   -5.3430   22.4450 C   0  0  0  0  0  0  0  0  0  0  0  0
  1  2  1  0
  2  3  2  0
  2  4  1  0
  4  5  1  0
  5  6  1  0
  6  7  1  0
  7  8  1  0
  8  9  2  0
  8 10  1  0
 10 11  1  0
 11 12  1  1
 12 13  1  0
 13 14  1  0
 14 15  2  0
 15 16  1  0
 16 17  2  0
 17 18  1  0
 14 19  1  0
 18 19  2  0
 11 20  1  0
 20 21  2  0
 21 22  1  0
 22 23  2  0
 23 24  1  0
 20 25  1  0
 24 25  2  0
  7 26  1  0
  4 27  1  0
 26 27  1  0
M  END
