piperidine-amides-33999-covalent
     RDKit          3D

 30 33  0  0  0  0  0  0  0  0999 V2000
    7.0350   -3.3380   19.3570 C   0  0  0  0  0  0  0  0  0  0  0  0
    6.3800   -4.2040   20.3500 C   0  0  0  0  0  0  0  0  0  0  0  0
    5.4040   -4.9060   19.9990 O   0  0  0  0  0  0  0  0  0  0  0  0
    6.8580   -4.2840   21.6690 N   0  0  0  0  0  0  0  0  0  0  0  0
    6.7170   -5.5450   22.3810 C   0  0  0  0  0  0  0  0  0  0  0  0
    6.1720   -5.2480   23.7870 C   0  0  0  0  0  0  0  0  0  0  0  0
    6.1620   -3.7470   23.9120 C   0  0  0  0  0  0  0  0  0  0  0  0
    5.7700   -3.2940   25.2620 C   0  0  0  0  0  0  0  0  0  0  0  0
    5.2750   -2.1550   25.3670 O   0  0  0  0  0  0  0  0  0  0  0  0
    5.9100   -4.1230   26.3960 N   0  0  0  0  0  0  0  0  0  0  0  0
    6.2360   -3.5160   27.6200 C   0  0  0  0  0  0  0  0  0  0  0  0
    5.6850   -4.4500   28.6280 C   0  0  1  0  0  0  0  0  0  0  0  0
    5.0210   -3.8340   29.6300 C   0  0  0  0  0  0  0  0  0  0  0  0
    4.2190   -4.6440   30.3930 C   0  0  0  0  0  0  0  0  0  0  0  0
    3.0730   -5.0740   29.7410 C   0  0  0  0  0  0  0  0  0  0  0  0
    3.4110   -5.6750   28.5640 C   0  0  0  0  0  0  0  0  0  0  0  0
    4.7270   -5.3140   27.9070 C   0  0  2  0  0  0  0  0  0  0  0  0
    4.6760   -6.6950   28.5430 C   0  0  0  0  0  0  0  0  0  0  0  0
    5.8120   -6.6730   29.5080 N   0  0  0  0  0  0  0  0  0  0  0  0
    5.2940   -6.9890   30.8750 C   0  0  0  0  0  0  0  0  0  0  0  0
    4.0280   -7.3170   30.9160 O   0  0  0  0  0  0  0  0  0  0  0  0
    6.1360   -6.9370   32.0080 O   0  0  0  0  0  0  0  0  0  0  0  0
    5.4970   -6.9160   33.2700 C   0  0  0  0  0  0  0  0  0  0  0  0
    4.5550   -7.9300   33.5050 C   0  0  0  0  0  0  0  0  0  0  0  0
    4.1200   -6.4140   33.5340 C   0  0  0  0  0  0  0  0  0  0  0  0
    6.4300   -6.8400   34.5110 C   0  0  0  0  0  0  0  0  0  0  0  0
    6.6060   -5.5700   28.9700 C   0  0  0  0  0  0  0  0  0  0  0  0
    4.9090   -5.1550   26.5060 C   0  0  0  0  0  0  0  0  0  0  0  0
    7.4370   -3.0860   23.5310 C   0  0  0  0  0  0  0  0  0  0  0  0
    7.7400   -3.2680   22.2250 C   0  0  0  0  0  0  0  0  0  0  0  0
  1  2  1  0
  2  3  2  0
  2  4  1  0
  4  5  1  0
  5  6  1  0
  6  7  1  0
  7  8  1  0
  8  9  2  0
  8 10  1  0
 10 11  1  0
 12 11  1  6
 12 13  1  0
 13 14  1  0
 14 15  1  0
 15 16  1  0
 12 17  1  0
 17 16  1  6
 17 18  1  0
 18 19  1  0
 19 20  1  0
 20 21  2  0
 20 22  1  0
 23 22  1  0
 23 24  1  0
 23 25  1  0
 23 26  1  0
 12 27  1  0
 19 27  1  0
 10 28  1  0
 17 28  1  0
  7 29  1  0
  4 30  1  0
 29 30  1  0
M  END
