piperidine-amides-23959-covalent
     RDKit          3D

 24 26  0  0  0  0  0  0  0  0999 V2000
    7.0970   -3.3900   19.3450 C   0  0  0  0  0  0  0  0  0  0  0  0
    6.4190   -4.2280   20.3410 C   0  0  0  0  0  0  0  0  0  0  0  0
    5.3470   -4.7600   19.9670 O   0  0  0  0  0  0  0  0  0  0  0  0
    6.9880   -4.4830   21.6200 N   0  0  0  0  0  0  0  0  0  0  0  0
    6.4770   -5.5640   22.3790 C   0  0  0  0  0  0  0  0  0  0  0  0
    5.9270   -5.1720   23.6730 C   0  0  0  0  0  0  0  0  0  0  0  0
    6.5630   -4.0190   24.3580 C   0  0  0  0  0  0  0  0  0  0  0  0
    5.7130   -3.5380   25.5070 C   0  0  0  0  0  0  0  0  0  0  0  0
    4.8370   -2.6820   25.2940 O   0  0  0  0  0  0  0  0  0  0  0  0
    5.8640   -4.0410   26.8200 N   0  0  0  0  0  0  0  0  0  0  0  0
    6.9630   -4.7220   27.2990 C   0  0  0  0  0  0  0  0  0  0  0  0
    6.7890   -5.9020   28.0530 C   0  0  0  0  0  0  0  0  0  0  0  0
    5.9080   -5.8600   29.0360 N   0  0  0  0  0  0  0  0  0  0  0  0
    5.7140   -6.9710   29.9500 C   0  0  0  0  0  0  0  0  0  0  0  0
    5.9660   -8.2140   29.4370 O   0  0  0  0  0  0  0  0  0  0  0  0
    5.3210   -6.8490   31.2630 C   0  0  0  0  0  0  0  0  0  0  0  0
    3.7910   -6.8200   31.3070 C   0  0  0  0  0  0  0  0  0  0  0  0
    3.6490   -6.6950   32.7970 C   0  0  0  0  0  0  0  0  0  0  0  0
    5.1430   -6.6940   33.1270 C   0  0  0  0  0  0  0  0  0  0  0  0
    6.0340   -6.7790   32.2710 O   0  0  0  0  0  0  0  0  0  0  0  0
    5.1880   -4.6400   29.1330 C   0  0  0  0  0  0  0  0  0  0  0  0
    4.9030   -3.8120   27.8570 C   0  0  0  0  0  0  0  0  0  0  0  0
    6.7990   -2.8490   23.3790 C   0  0  0  0  0  0  0  0  0  0  0  0
    7.6740   -3.3640   22.2930 C   0  0  0  0  0  0  0  0  0  0  0  0
  1  2  1  0
  2  3  2  0
  2  4  1  0
  4  5  1  0
  5  6  1  0
  6  7  1  0
  7  8  1  0
  8  9  2  0
  8 10  1  0
 10 11  1  0
 11 12  1  0
 12 13  1  0
 13 14  1  0
 14 15  2  0
 14 16  1  0
 16 17  2  0
 17 18  1  0
 18 19  2  0
 16 20  1  0
 19 20  1  0
 13 21  1  0
 10 22  1  0
 21 22  1  0
  7 23  1  0
  4 24  1  0
 23 24  1  0
M  END
