piperidine-amides-12203-covalent
     RDKit          3D

 25 27  0  0  0  0  0  0  0  0999 V2000
    7.0180   -3.3490   19.3420 C   0  0  0  0  0  0  0  0  0  0  0  0
    6.3530   -4.1860   20.3370 C   0  0  0  0  0  0  0  0  0  0  0  0
    5.3950   -4.8780   19.9950 O   0  0  0  0  0  0  0  0  0  0  0  0
    6.8340   -4.2380   21.6990 N   0  0  0  0  0  0  0  0  0  0  0  0
    6.6260   -5.4400   22.4720 C   0  0  0  0  0  0  0  0  0  0  0  0
    5.9770   -5.0940   23.7850 C   0  0  0  0  0  0  0  0  0  0  0  0
    6.1300   -3.5960   23.9640 C   0  0  0  0  0  0  0  0  0  0  0  0
    5.6910   -3.1540   25.3230 C   0  0  0  0  0  0  0  0  0  0  0  0
    4.4890   -3.0860   25.6370 O   0  0  0  0  0  0  0  0  0  0  0  0
    6.6710   -2.7990   26.2850 N   0  0  0  0  0  0  0  0  0  0  0  0
    6.5090   -1.5880   27.0690 C   0  0  0  0  0  0  0  0  0  0  0  0
    6.0550   -0.4100   26.2690 C   0  0  0  0  0  0  0  0  0  0  0  0
    5.8660    0.7800   26.9060 C   0  0  0  0  0  0  0  0  0  0  0  0
    5.4520    1.8430   26.1700 F   0  0  0  0  0  0  0  0  0  0  0  0
    6.0990    0.8550   28.2740 C   0  0  0  0  0  0  0  0  0  0  0  0
    6.5170   -0.1840   29.0890 C   0  0  0  0  0  0  0  0  0  0  0  0
    6.6640    0.1510   30.4760 N   0  0  0  0  0  0  0  0  0  0  0  0
    5.7070    1.1620   30.9270 C   0  0  0  0  0  0  0  0  0  0  0  0
    5.3840    0.6840   32.1600 C   0  0  0  0  0  0  0  0  0  0  0  0
    6.4360    0.3830   32.8000 O   0  0  0  0  0  0  0  0  0  0  0  0
    7.7970    0.3090   32.5060 C   0  0  0  0  0  0  0  0  0  0  0  0
    7.8980    0.2890   31.0970 C   0  0  0  0  0  0  0  0  0  0  0  0
    6.7310   -1.4310   28.4680 C   0  0  0  0  0  0  0  0  0  0  0  0
    7.5300   -3.1440   23.6180 C   0  0  0  0  0  0  0  0  0  0  0  0
    7.6570   -3.1650   22.2250 C   0  0  0  0  0  0  0  0  0  0  0  0
  1  2  1  0
  2  3  2  0
  2  4  1  0
  4  5  1  0
  5  6  1  0
  6  7  1  0
  7  8  1  0
  8  9  2  0
  8 10  1  0
 10 11  1  0
 11 12  2  0
 12 13  1  0
 13 14  1  0
 13 15  2  0
 15 16  1  0
 16 17  1  0
 17 18  1  0
 18 19  1  0
 19 20  1  0
 20 21  1  0
 17 22  1  0
 21 22  1  0
 11 23  1  0
 16 23  2  0
  7 24  1  0
  4 25  1  0
 24 25  1  0
M  END
