piperidine-amides-783-covalent
     RDKit          3D

 25 27  0  0  0  0  0  0  0  0999 V2000
    7.1080   -3.3620   19.2680 C   0  0  0  0  0  0  0  0  0  0  0  0
    6.3570   -4.0500   20.2830 C   0  0  0  0  0  0  0  0  0  0  0  0
    5.2930   -4.6440   19.9260 O   0  0  0  0  0  0  0  0  0  0  0  0
    6.7920   -4.1420   21.6160 N   0  0  0  0  0  0  0  0  0  0  0  0
    6.5960   -5.4320   22.3030 C   0  0  0  0  0  0  0  0  0  0  0  0
    5.6590   -4.9100   23.4420 C   0  0  0  0  0  0  0  0  0  0  0  0
    6.5280   -3.9410   24.2070 C   0  0  0  0  0  0  0  0  0  0  0  0
    5.8720   -3.6550   25.6290 C   0  0  0  0  0  0  0  0  0  0  0  0
    5.1440   -4.5840   25.9200 O   0  0  0  0  0  0  0  0  0  0  0  0
    6.2110   -2.5320   26.1240 N   0  0  0  0  0  0  0  0  0  0  0  0
    6.3360   -1.3090   26.7260 C   0  0  0  0  0  0  0  0  0  0  0  0
    6.1530   -0.0220   26.2060 C   0  0  0  0  0  0  0  0  0  0  0  0
    6.4500    0.4360   27.5110 N   0  0  0  0  0  0  0  0  0  0  0  0
    6.7100   -0.4200   28.4060 N   0  0  0  0  0  0  0  0  0  0  0  0
    6.9350    0.3280   29.5310 C   0  0  0  0  0  0  0  0  0  0  0  0
    6.5560    1.7550   29.6650 C   0  0  0  0  0  0  0  0  0  0  0  0
    6.8760    2.4570   31.0010 C   0  0  0  0  0  0  0  0  0  0  0  0
    7.5050    1.6990   32.0020 C   0  0  0  0  0  0  0  0  0  0  0  0
    7.7490    2.7480   33.4090 Cl  0  0  0  0  0  0  0  0  0  0  0  0
    7.9740    0.3900   32.1820 C   0  0  0  0  0  0  0  0  0  0  0  0
    7.5890   -0.1450   30.8080 C   0  0  0  0  0  0  0  0  0  0  0  0
    6.7300   -1.8570   28.1860 C   0  0  0  0  0  0  0  0  0  0  0  0
    7.0170   -1.3570   29.4070 C   0  0  0  0  0  0  0  0  0  0  0  0
    6.9750   -2.7270   23.4180 C   0  0  0  0  0  0  0  0  0  0  0  0
    7.5510   -3.0760   22.2380 C   0  0  0  0  0  0  0  0  0  0  0  0
  1  2  1  0
  2  3  2  0
  2  4  1  0
  4  5  1  0
  5  6  1  0
  6  7  1  0
  7  8  1  0
  8  9  2  0
  8 10  1  0
 10 11  1  0
 11 12  1  0
 12 13  2  0
 13 14  1  0
 14 15  1  0
 15 16  2  0
 16 17  1  0
 17 18  2  0
 18 19  1  0
 18 20  1  0
 15 21  1  0
 20 21  2  0
 11 22  2  0
 14 22  1  0
 22 23  1  0
  7 24  1  0
  4 25  1  0
 24 25  1  0
M  END
