piperidine-amides-19566-covalent
     RDKit          3D

 22 23  0  0  0  0  0  0  0  0999 V2000
    7.0720   -3.4160   19.3660 C   0  0  0  0  0  0  0  0  0  0  0  0
    6.4090   -4.2030   20.3830 C   0  0  0  0  0  0  0  0  0  0  0  0
    5.4030   -4.8830   20.0030 O   0  0  0  0  0  0  0  0  0  0  0  0
    6.8500   -4.2870   21.7310 N   0  0  0  0  0  0  0  0  0  0  0  0
    7.8630   -3.3180   22.2180 C   0  0  0  0  0  0  0  0  0  0  0  0
    6.9900   -2.5170   23.2420 C   0  0  0  0  0  0  0  0  0  0  0  0
    6.1090   -3.5380   23.9210 C   0  0  0  0  0  0  0  0  0  0  0  0
    5.4150   -2.9160   25.2140 C   0  0  0  0  0  0  0  0  0  0  0  0
    4.4680   -2.2300   24.8690 O   0  0  0  0  0  0  0  0  0  0  0  0
    5.9920   -3.2810   26.2830 N   0  0  0  0  0  0  0  0  0  0  0  0
    6.4360   -4.0870   27.2840 C   0  0  0  0  0  0  0  0  0  0  0  0
    6.8810   -5.3800   27.3650 C   0  0  0  0  0  0  0  0  0  0  0  0
    7.0860   -5.7480   28.7070 C   0  0  0  0  0  0  0  0  0  0  0  0
    5.8690   -5.5670   29.3810 O   0  0  0  0  0  0  0  0  0  0  0  0
    6.2340   -2.0730   27.1550 C   0  0  0  0  0  0  0  0  0  0  0  0
    5.9210   -0.6630   26.5040 C   0  0  0  0  0  0  0  0  0  0  0  0
    6.1570    0.4860   27.4020 C   0  0  0  0  0  0  0  0  0  0  0  0
    6.6230    0.5930   28.7730 C   0  0  0  0  0  0  0  0  0  0  0  0
    6.6360   -0.8490   28.5410 C   0  0  0  0  0  0  0  0  0  0  0  0
    6.6740   -1.9390   28.4460 N   0  0  0  0  0  0  0  0  0  0  0  0
    6.6360   -4.9380   23.8840 C   0  0  0  0  0  0  0  0  0  0  0  0
    6.4600   -5.3730   22.5820 C   0  0  0  0  0  0  0  0  0  0  0  0
  1  2  1  0
  2  3  2  0
  2  4  1  0
  4  5  1  0
  5  6  1  0
  6  7  1  0
  7  8  1  0
  8  9  2  0
  8 10  1  0
 10 11  1  0
 11 12  1  0
 12 13  1  0
 13 14  1  0
 10 15  1  0
 15 16  2  0
 16 17  1  0
 17 18  2  0
 18 19  1  0
 15 20  1  0
 19 20  2  0
  7 21  1  0
  4 22  1  0
 21 22  1  0
M  END
