piperidine-amides-11255-covalent
     RDKit          3D

 19 19  0  0  0  0  0  0  0  0999 V2000
    7.1350   -3.2810   19.2060 C   0  0  0  0  0  0  0  0  0  0  0  0
    6.3330   -3.9610   20.2190 C   0  0  0  0  0  0  0  0  0  0  0  0
    5.2880   -4.5450   19.8840 O   0  0  0  0  0  0  0  0  0  0  0  0
    6.7600   -3.9970   21.5500 N   0  0  0  0  0  0  0  0  0  0  0  0
    7.7150   -3.0420   22.0650 C   0  0  0  0  0  0  0  0  0  0  0  0
    7.5410   -3.0710   23.5530 C   0  0  0  0  0  0  0  0  0  0  0  0
    6.1110   -3.3240   23.9110 C   0  0  0  0  0  0  0  0  0  0  0  0
    5.8200   -3.0670   25.3440 C   0  0  0  0  0  0  0  0  0  0  0  0
    4.6510   -3.2460   25.8000 O   0  0  0  0  0  0  0  0  0  0  0  0
    6.8090   -2.5930   26.2460 N   0  0  0  0  0  0  0  0  0  0  0  0
    7.1330   -3.3100   27.5050 C   0  0  0  0  0  0  0  0  0  0  0  0
    6.4500   -4.6180   27.4440 C   0  0  2  0  0  0  0  0  0  0  0  0
    6.6460   -5.5850   28.5420 C   0  0  0  0  0  0  0  0  0  0  0  0
    6.8030   -5.3570   26.1890 C   0  0  0  0  0  0  0  0  0  0  0  0
    8.2470   -5.7970   26.1880 C   0  0  0  0  0  0  0  0  0  0  0  0
    9.0510   -4.8890   26.8520 O   0  0  0  0  0  0  0  0  0  0  0  0
    9.0260   -5.3120   28.1470 C   0  0  0  0  0  0  0  0  0  0  0  0
    5.7120   -4.7260   23.4600 C   0  0  0  0  0  0  0  0  0  0  0  0
    6.4460   -5.1610   22.3460 C   0  0  0  0  0  0  0  0  0  0  0  0
  1  2  1  0
  2  3  2  0
  2  4  1  0
  4  5  1  0
  5  6  1  0
  6  7  1  0
  7  8  1  0
  8  9  2  0
  8 10  1  0
 10 11  1  0
 11 12  1  0
 12 13  1  1
 12 14  1  0
 14 15  1  0
 15 16  1  0
 16 17  1  0
  7 18  1  0
  4 19  1  0
 18 19  1  0
M  END
