piperidine-amides-3612-covalent
     RDKit          3D

 19 19  0  0  0  0  0  0  0  0999 V2000
    7.1150   -3.2540   19.1980 C   0  0  0  0  0  0  0  0  0  0  0  0
    6.3550   -3.9970   20.2260 C   0  0  0  0  0  0  0  0  0  0  0  0
    5.2770   -4.5260   19.8690 O   0  0  0  0  0  0  0  0  0  0  0  0
    6.8330   -4.1550   21.5470 N   0  0  0  0  0  0  0  0  0  0  0  0
    7.6750   -3.1480   22.0880 C   0  0  0  0  0  0  0  0  0  0  0  0
    7.5110   -3.0030   23.5150 C   0  0  0  0  0  0  0  0  0  0  0  0
    6.2200   -3.5020   24.0120 C   0  0  0  0  0  0  0  0  0  0  0  0
    6.0680   -3.2320   25.4760 C   0  0  0  0  0  0  0  0  0  0  0  0
    4.9220   -3.0940   25.9520 O   0  0  0  0  0  0  0  0  0  0  0  0
    7.2100   -3.1140   26.3040 N   0  0  0  0  0  0  0  0  0  0  0  0
    7.4160   -3.6110   27.6150 C   0  0  0  0  0  0  0  0  0  0  0  0
    7.3840   -5.0250   27.9560 C   0  0  0  0  0  0  0  0  0  0  0  0
    7.2900   -5.3460   29.1760 O   0  0  0  0  0  0  0  0  0  0  0  0
    6.2210   -5.7000   27.2100 C   0  0  0  0  0  0  0  0  0  0  0  0
    5.5100   -6.6090   27.9700 C   0  0  0  0  0  0  0  0  0  0  0  0
    8.6750   -5.7060   27.3510 C   0  0  0  0  0  0  0  0  0  0  0  0
    9.0420   -5.2970   25.9620 C   0  0  0  0  0  0  0  0  0  0  0  0
    6.0160   -4.9960   23.6990 C   0  0  0  0  0  0  0  0  0  0  0  0
    6.6020   -5.3400   22.3360 C   0  0  0  0  0  0  0  0  0  0  0  0
  1  2  1  0
  2  3  2  0
  2  4  1  0
  4  5  1  0
  5  6  1  0
  6  7  1  0
  7  8  1  0
  8  9  2  0
  8 10  1  0
 10 11  1  0
 11 12  1  0
 12 13  1  0
 12 14  1  0
 14 15  1  0
 12 16  1  0
 16 17  1  0
  7 18  1  0
  4 19  1  0
 18 19  1  0
M  END
