piperidine-amides-29045-covalent
     RDKit          3D

 26 28  0  0  0  0  0  0  0  0999 V2000
    7.0720   -3.3640   19.3560 C   0  0  0  0  0  0  0  0  0  0  0  0
    6.3720   -4.1800   20.3420 C   0  0  0  0  0  0  0  0  0  0  0  0
    5.3620   -4.8110   19.9780 O   0  0  0  0  0  0  0  0  0  0  0  0
    6.8860   -4.2770   21.6570 N   0  0  0  0  0  0  0  0  0  0  0  0
    6.6640   -5.5010   22.3830 C   0  0  0  0  0  0  0  0  0  0  0  0
    6.2110   -5.2050   23.7920 C   0  0  0  0  0  0  0  0  0  0  0  0
    6.1520   -3.7000   23.9270 C   0  0  0  0  0  0  0  0  0  0  0  0
    5.6050   -3.2330   25.2440 C   0  0  0  0  0  0  0  0  0  0  0  0
    4.8930   -2.2370   25.1960 O   0  0  0  0  0  0  0  0  0  0  0  0
    5.8820   -3.9270   26.4070 N   0  0  0  0  0  0  0  0  0  0  0  0
    5.0230   -4.9660   26.7890 C   0  0  0  0  0  0  0  0  0  0  0  0
    5.2820   -5.5260   28.0380 C   0  0  0  0  0  0  0  0  0  0  0  0
    5.4840   -4.6920   29.0970 C   0  0  0  0  0  0  0  0  0  0  0  0
    4.5140   -3.7030   29.1400 O   0  0  0  0  0  0  0  0  0  0  0  0
    4.2820   -2.5320   29.7520 C   0  0  0  0  0  0  0  0  0  0  0  0
    2.9020   -2.2990   30.2670 C   0  0  0  0  0  0  0  0  0  0  0  0
    2.5430   -0.9730   30.9920 C   0  0  0  0  0  0  0  0  0  0  0  0
    3.6110    0.0540   31.1560 C   0  0  0  0  0  0  0  0  0  0  0  0
    3.1560    1.1890   31.8210 F   0  0  0  0  0  0  0  0  0  0  0  0
    4.9960   -0.2120   30.6210 C   0  0  0  0  0  0  0  0  0  0  0  0
    5.2650   -1.5610   29.9120 C   0  0  0  0  0  0  0  0  0  0  0  0
    6.5840   -1.6750   29.4650 F   0  0  0  0  0  0  0  0  0  0  0  0
    6.6980   -4.1880   28.4020 C   0  0  0  0  0  0  0  0  0  0  0  0
    6.3210   -3.1980   27.5250 C   0  0  0  0  0  0  0  0  0  0  0  0
    7.4580   -3.0600   23.6440 C   0  0  0  0  0  0  0  0  0  0  0  0
    7.7420   -3.2440   22.1930 C   0  0  0  0  0  0  0  0  0  0  0  0
  1  2  1  0
  2  3  2  0
  2  4  1  0
  4  5  1  0
  5  6  1  0
  6  7  1  0
  7  8  1  0
  8  9  2  0
  8 10  1  0
 10 11  1  0
 11 12  1  0
 12 13  1  0
 13 14  1  0
 14 15  1  0
 15 16  2  0
 16 17  1  0
 17 18  2  0
 18 19  1  0
 18 20  1  0
 15 21  1  0
 20 21  2  0
 21 22  1  0
 13 23  1  0
 10 24  1  0
 23 24  1  0
  7 25  1  0
  4 26  1  0
 25 26  1  0
M  END
