piperidine-amides-27716-covalent
     RDKit          3D

 26 29  0  0  0  0  0  0  0  0999 V2000
    7.0780   -3.3440   19.2430 C   0  0  0  0  0  0  0  0  0  0  0  0
    6.4110   -4.1400   20.2950 C   0  0  0  0  0  0  0  0  0  0  0  0
    5.3830   -4.7640   19.9610 O   0  0  0  0  0  0  0  0  0  0  0  0
    6.9620   -4.2050   21.5800 N   0  0  0  0  0  0  0  0  0  0  0  0
    6.6210   -5.2700   22.4630 C   0  0  0  0  0  0  0  0  0  0  0  0
    6.2590   -4.8380   23.8260 C   0  0  0  0  0  0  0  0  0  0  0  0
    6.7700   -3.5070   24.2600 C   0  0  0  0  0  0  0  0  0  0  0  0
    5.9300   -2.9480   25.3550 C   0  0  0  0  0  0  0  0  0  0  0  0
    4.9990   -2.1840   25.0550 O   0  0  0  0  0  0  0  0  0  0  0  0
    6.1430   -3.3030   26.6980 N   0  0  0  0  0  0  0  0  0  0  0  0
    6.4160   -2.4070   27.7740 C   0  0  0  0  0  0  0  0  0  0  0  0
    6.6090   -3.4510   28.7580 C   0  0  0  0  0  0  0  0  0  0  0  0
    5.9950   -4.7150   28.4050 C   0  0  0  0  0  0  0  0  0  0  0  0
    5.7320   -5.9260   29.2370 C   0  0  0  0  0  0  0  0  0  0  0  0
    5.0280   -7.1170   28.7770 C   0  0  0  0  0  0  0  0  0  0  0  0
    4.7060   -6.8240   27.5550 C   0  0  0  0  0  0  0  0  0  0  0  0
    3.9790   -7.4350   26.5000 N   0  0  0  0  0  0  0  0  0  0  0  0
    2.6710   -7.9200   26.8670 C   0  0  0  0  0  0  0  0  0  0  0  0
    1.8240   -6.8500   26.8560 C   0  0  0  0  0  0  0  0  0  0  0  0
    1.8460   -6.1550   25.7060 O   0  0  0  0  0  0  0  0  0  0  0  0
    3.0880   -5.7240   25.2350 C   0  0  0  0  0  0  0  0  0  0  0  0
    3.9370   -6.9300   25.1020 C   0  0  0  0  0  0  0  0  0  0  0  0
    5.3060   -5.7170   27.6660 C   0  0  0  0  0  0  0  0  0  0  0  0
    5.6060   -4.6000   26.9610 C   0  0  0  0  0  0  0  0  0  0  0  0
    7.0110   -2.5370   23.2070 C   0  0  0  0  0  0  0  0  0  0  0  0
    7.8030   -3.1420   22.0900 C   0  0  0  0  0  0  0  0  0  0  0  0
  1  2  1  0
  2  3  2  0
  2  4  1  0
  4  5  1  0
  5  6  1  0
  6  7  1  0
  7  8  1  0
  8  9  2  0
  8 10  1  0
 10 11  1  0
 11 12  1  0
 12 13  1  0
 13 14  1  0
 14 15  2  0
 15 16  1  0
 16 17  1  0
 17 18  1  0
 18 19  1  0
 19 20  1  0
 20 21  1  0
 17 22  1  0
 21 22  1  0
 16 23  2  0
 10 24  1  0
 13 24  2  0
 23 24  1  0
  7 25  1  0
  4 26  1  0
 25 26  1  0
M  END
