piperidine-amides-27219-covalent
     RDKit          3D

 25 26  0  0  0  0  0  0  0  0999 V2000
    7.0470   -3.3380   19.3410 C   0  0  0  0  0  0  0  0  0  0  0  0
    6.3890   -4.1800   20.3420 C   0  0  0  0  0  0  0  0  0  0  0  0
    5.3530   -4.7910   19.9640 O   0  0  0  0  0  0  0  0  0  0  0  0
    6.9240   -4.3290   21.6250 N   0  0  0  0  0  0  0  0  0  0  0  0
    6.5850   -5.4650   22.4460 C   0  0  0  0  0  0  0  0  0  0  0  0
    5.6310   -4.9830   23.5070 C   0  0  0  0  0  0  0  0  0  0  0  0
    5.9460   -3.5570   23.9050 C   0  0  0  0  0  0  0  0  0  0  0  0
    5.3130   -3.1160   25.2020 C   0  0  0  0  0  0  0  0  0  0  0  0
    4.4520   -2.2260   25.0790 O   0  0  0  0  0  0  0  0  0  0  0  0
    5.5240   -3.5530   26.5420 N   0  0  0  0  0  0  0  0  0  0  0  0
    4.6770   -2.9880   27.5600 C   0  0  0  0  0  0  0  0  0  0  0  0
    4.6330   -3.8250   28.8430 C   0  0  1  0  0  0  0  0  0  0  0  0
    3.7540   -3.4820   29.8380 C   0  0  0  0  0  0  0  0  0  0  0  0
    4.4550   -5.2210   28.3940 N   0  0  0  0  0  0  0  0  0  0  0  0
    5.2310   -5.6710   27.4000 C   0  0  0  0  0  0  0  0  0  0  0  0
    5.1280   -6.9180   27.0260 O   0  0  0  0  0  0  0  0  0  0  0  0
    6.0890   -4.8230   26.7840 C   0  0  1  0  0  0  0  0  0  0  0  0
    6.7110   -5.2540   25.7000 C   0  0  0  0  0  0  0  0  0  0  0  0
    7.9090   -5.7310   25.9920 C   0  0  0  0  0  0  0  0  0  0  0  0
    7.9150   -6.4070   27.1580 O   0  0  0  0  0  0  0  0  0  0  0  0
    8.8910   -5.5480   25.3280 O   0  0  0  0  0  0  0  0  0  0  0  0
   10.0630   -5.7000   26.0000 C   0  0  0  0  0  0  0  0  0  0  0  0
   10.7110   -4.4530   26.3660 C   0  0  0  0  0  0  0  0  0  0  0  0
    7.4400   -3.2410   23.7370 C   0  0  0  0  0  0  0  0  0  0  0  0
    7.6940   -3.2330   22.2330 C   0  0  0  0  0  0  0  0  0  0  0  0
  1  2  1  0
  2  3  2  0
  2  4  1  0
  4  5  1  0
  5  6  1  0
  6  7  1  0
  7  8  1  0
  8  9  2  0
  8 10  1  0
 10 11  1  0
 11 12  1  0
 12 13  1  1
 12 14  1  0
 14 15  1  0
 15 16  2  0
 10 17  1  0
 15 17  1  0
 17 18  1  6
 18 19  1  0
 19 20  2  0
 19 21  1  0
 21 22  1  0
 22 23  1  0
  7 24  1  0
  4 25  1  0
 24 25  1  0
M  END
