piperidine-amides-25881-covalent
     RDKit          3D

 25 27  0  0  0  0  0  0  0  0999 V2000
    7.0440   -3.3230   19.3460 C   0  0  0  0  0  0  0  0  0  0  0  0
    6.3720   -4.1820   20.3580 C   0  0  0  0  0  0  0  0  0  0  0  0
    5.3930   -4.8230   19.9770 O   0  0  0  0  0  0  0  0  0  0  0  0
    6.8730   -4.2720   21.6650 N   0  0  0  0  0  0  0  0  0  0  0  0
    6.7100   -5.4660   22.4600 C   0  0  0  0  0  0  0  0  0  0  0  0
    5.9880   -5.1370   23.7420 C   0  0  0  0  0  0  0  0  0  0  0  0
    6.1030   -3.6390   24.0160 C   0  0  0  0  0  0  0  0  0  0  0  0
    5.6840   -3.3970   25.4150 C   0  0  0  0  0  0  0  0  0  0  0  0
    4.4750   -3.4450   25.6770 O   0  0  0  0  0  0  0  0  0  0  0  0
    6.6000   -3.1000   26.4490 N   0  0  0  0  0  0  0  0  0  0  0  0
    7.6120   -4.0910   26.7700 C   0  0  0  0  0  0  0  0  0  0  0  0
    6.2690   -2.0370   27.3630 C   0  0  0  0  0  0  0  0  0  0  0  0
    6.0860   -0.7940   26.7420 C   0  0  0  0  0  0  0  0  0  0  0  0
    5.7070    0.2690   27.5100 C   0  0  0  0  0  0  0  0  0  0  0  0
    6.0400    0.1090   28.8820 N   0  0  0  0  0  0  0  0  0  0  0  0
    4.9880    0.1030   29.8730 C   0  0  0  0  0  0  0  0  0  0  0  0
    3.4840    0.2030   29.6020 C   0  0  0  0  0  0  0  0  0  0  0  0
    2.5140    0.1900   30.6360 N   0  0  0  0  0  0  0  0  0  0  0  0
    3.0000    0.0770   31.9780 C   0  0  0  0  0  0  0  0  0  0  0  0
    4.4620   -0.0210   32.2500 C   0  0  0  0  0  0  0  0  0  0  0  0
    5.4520   -0.0110   31.2570 N   0  0  0  0  0  0  0  0  0  0  0  0
    6.9570   -0.9300   29.2410 C   0  0  0  0  0  0  0  0  0  0  0  0
    7.5540   -1.6830   28.0950 C   0  0  0  0  0  0  0  0  0  0  0  0
    7.3810   -3.0190   23.6260 C   0  0  0  0  0  0  0  0  0  0  0  0
    7.7280   -3.2180   22.1960 C   0  0  0  0  0  0  0  0  0  0  0  0
  1  2  1  0
  2  3  2  0
  2  4  1  0
  4  5  1  0
  5  6  1  0
  6  7  1  0
  7  8  1  0
  8  9  2  0
  8 10  1  0
 10 11  1  0
 10 12  1  0
 12 13  1  0
 13 14  1  0
 14 15  1  0
 15 16  1  0
 16 17  2  0
 17 18  1  0
 18 19  2  0
 19 20  1  0
 16 21  1  0
 20 21  2  0
 15 22  1  0
 12 23  1  0
 22 23  1  0
  7 24  1  0
  4 25  1  0
 24 25  1  0
M  END
