piperidine-amides-11339-covalent
     RDKit          3D

 25 26  0  0  0  0  0  0  0  0999 V2000
    7.0910   -3.2860   19.2280 C   0  0  0  0  0  0  0  0  0  0  0  0
    6.3640   -4.0380   20.2560 C   0  0  0  0  0  0  0  0  0  0  0  0
    5.3440   -4.6710   19.9320 O   0  0  0  0  0  0  0  0  0  0  0  0
    6.8240   -4.0900   21.5840 N   0  0  0  0  0  0  0  0  0  0  0  0
    7.7410   -3.0900   22.1050 C   0  0  0  0  0  0  0  0  0  0  0  0
    7.4840   -3.0320   23.5770 C   0  0  0  0  0  0  0  0  0  0  0  0
    6.1190   -3.5480   23.8780 C   0  0  0  0  0  0  0  0  0  0  0  0
    5.6430   -3.2480   25.2460 C   0  0  0  0  0  0  0  0  0  0  0  0
    4.4190   -3.4150   25.5290 O   0  0  0  0  0  0  0  0  0  0  0  0
    6.4960   -2.7850   26.2750 N   0  0  0  0  0  0  0  0  0  0  0  0
    6.4900   -1.3710   26.7160 C   0  0  0  0  0  0  0  0  0  0  0  0
    5.4080   -1.1930   27.7220 C   0  0  2  0  0  0  0  0  0  0  0  0
    5.0610   -2.3700   28.9110 S   0  0  0  0  0  0  0  0  0  0  0  0
    6.3900   -3.5280   28.6510 C   0  0  0  0  0  0  0  0  0  0  0  0
    3.7510   -3.0310   28.7380 O   0  0  0  0  0  0  0  0  0  0  0  0
    5.1820   -1.8390   30.3260 O   0  0  0  0  0  0  0  0  0  0  0  0
    4.1380   -0.6340   27.1080 C   0  0  0  0  0  0  0  0  0  0  0  0
    4.3750    0.2660   25.9060 C   0  0  0  0  0  0  0  0  0  0  0  0
    5.1400    1.4090   26.4030 N   0  0  1  0  0  0  0  0  0  0  0  0
    6.0780    1.7250   25.3430 C   0  0  0  0  0  0  0  0  0  0  0  0
    4.2710    2.4540   26.4550 O   0  0  0  0  0  0  0  0  0  0  0  0
    5.7350    1.2880   27.5990 C   0  0  0  0  0  0  0  0  0  0  0  0
    5.5740    0.1420   28.3990 C   0  0  0  0  0  0  0  0  0  0  0  0
    5.9860   -5.0580   23.6390 C   0  0  0  0  0  0  0  0  0  0  0  0
    6.6690   -5.3490   22.2930 C   0  0  0  0  0  0  0  0  0  0  0  0
  1  2  1  0
  2  3  2  0
  2  4  1  0
  4  5  1  0
  5  6  1  0
  6  7  1  0
  7  8  1  0
  8  9  2  0
  8 10  1  0
 10 11  1  0
 12 11  1  6
 12 13  1  0
 13 14  1  0
 13 15  2  0
 13 16  2  0
 12 17  1  0
 17 18  1  0
 18 19  1  0
 19 20  1  6
 19 21  1  0
 19 22  1  0
 12 23  1  0
 22 23  1  0
  7 24  1  0
  4 25  1  0
 24 25  1  0
M  CHG  2  19   1  21  -1
M  END
