piperidine-amides-26948-covalent
     RDKit          3D

 25 27  0  0  0  0  0  0  0  0999 V2000
    7.1990   -3.2820   19.1100 C   0  0  0  0  0  0  0  0  0  0  0  0
    6.4030   -3.9550   20.1350 C   0  0  0  0  0  0  0  0  0  0  0  0
    5.2680   -4.3930   19.8140 O   0  0  0  0  0  0  0  0  0  0  0  0
    6.9560   -4.1400   21.3890 N   0  0  0  0  0  0  0  0  0  0  0  0
    7.8130   -3.1200   21.9560 C   0  0  0  0  0  0  0  0  0  0  0  0
    7.0730   -2.5410   23.1030 C   0  0  0  0  0  0  0  0  0  0  0  0
    6.5990   -3.6470   23.9830 C   0  0  0  0  0  0  0  0  0  0  0  0
    5.6920   -3.1140   24.9880 C   0  0  0  0  0  0  0  0  0  0  0  0
    4.8180   -2.2800   24.6790 O   0  0  0  0  0  0  0  0  0  0  0  0
    5.7960   -3.5500   26.2830 N   0  0  0  0  0  0  0  0  0  0  0  0
    5.8540   -4.9730   26.5630 C   0  0  0  0  0  0  0  0  0  0  0  0
    6.1610   -4.9040   27.9830 C   0  0  2  0  0  0  0  0  0  0  0  0
    6.3790   -5.8790   28.9050 C   0  0  0  0  0  0  0  0  0  0  0  0
    5.9780   -5.2780   30.0880 O   0  0  0  0  0  0  0  0  0  0  0  0
    5.3990   -4.1210   29.7500 C   0  0  0  0  0  0  0  0  0  0  0  0
    5.0890   -4.2350   28.4540 C   0  0  2  0  0  0  0  0  0  0  0  0
    3.8270   -4.7690   28.2810 C   0  0  0  0  0  0  0  0  0  0  0  0
    3.0600   -4.4140   27.3510 O   0  0  0  0  0  0  0  0  0  0  0  0
    3.4380   -5.6980   29.1650 N   0  0  0  0  0  0  0  0  0  0  0  0
    2.4740   -5.5070   30.0950 C   0  0  0  0  0  0  0  0  0  0  0  0
    3.4540   -6.9480   28.7020 C   0  0  0  0  0  0  0  0  0  0  0  0
    4.1820   -7.9060   29.6360 C   0  0  0  0  0  0  0  0  0  0  0  0
    5.3120   -3.1670   27.6230 C   0  0  0  0  0  0  0  0  0  0  0  0
    5.8570   -4.7400   23.2600 C   0  0  0  0  0  0  0  0  0  0  0  0
    6.5980   -5.2690   22.2380 C   0  0  0  0  0  0  0  0  0  0  0  0
  1  2  1  0
  2  3  2  0
  2  4  1  0
  4  5  1  0
  5  6  1  0
  6  7  1  0
  7  8  1  0
  8  9  2  0
  8 10  1  0
 10 11  1  0
 12 11  1  6
 12 13  1  0
 13 14  1  0
 14 15  1  0
 12 16  1  0
 15 16  1  0
 16 17  1  1
 17 18  2  0
 17 19  1  0
 19 20  1  0
 19 21  1  0
 21 22  1  0
 10 23  1  0
 16 23  1  0
  7 24  1  0
  4 25  1  0
 24 25  1  0
M  END
