piperidine-amides-25576-covalent
     RDKit          3D

 25 27  0  0  0  0  0  0  0  0999 V2000
    7.0840   -3.3030   19.2600 C   0  0  0  0  0  0  0  0  0  0  0  0
    6.3140   -4.0580   20.2780 C   0  0  0  0  0  0  0  0  0  0  0  0
    5.2690   -4.5820   19.8980 O   0  0  0  0  0  0  0  0  0  0  0  0
    6.8030   -4.1980   21.5790 N   0  0  0  0  0  0  0  0  0  0  0  0
    6.5620   -5.3710   22.3710 C   0  0  0  0  0  0  0  0  0  0  0  0
    5.8520   -4.9700   23.6350 C   0  0  0  0  0  0  0  0  0  0  0  0
    6.5160   -3.7350   24.2710 C   0  0  0  0  0  0  0  0  0  0  0  0
    5.6020   -3.2140   25.3160 C   0  0  0  0  0  0  0  0  0  0  0  0
    4.4740   -2.8400   24.9760 O   0  0  0  0  0  0  0  0  0  0  0  0
    5.9680   -3.1400   26.6850 N   0  0  0  0  0  0  0  0  0  0  0  0
    6.5670   -1.9030   27.1380 C   0  0  0  0  0  0  0  0  0  0  0  0
    6.1410   -4.3570   27.4210 C   0  0  0  0  0  0  0  0  0  0  0  0
    5.1360   -4.7450   28.2500 C   0  0  0  0  0  0  0  0  0  0  0  0
    5.2060   -5.7060   29.2260 C   0  0  0  0  0  0  0  0  0  0  0  0
    4.1410   -6.0550   30.0260 C   0  0  0  0  0  0  0  0  0  0  0  0
    2.7640   -5.4370   29.9430 C   0  0  0  0  0  0  0  0  0  0  0  0
    1.8140   -5.8840   30.7950 N   0  0  0  0  0  0  0  0  0  0  0  0
    0.6120   -5.8850   30.2370 C   0  0  0  0  0  0  0  0  0  0  0  0
   -0.2330   -7.0980   30.4370 C   0  0  0  0  0  0  0  0  0  0  0  0
    0.7720   -7.8690   31.2600 C   0  0  0  0  0  0  0  0  0  0  0  0
    2.0890   -7.1370   31.4020 C   0  0  0  0  0  0  0  0  0  0  0  0
    2.6330   -4.3810   28.8990 C   0  0  0  0  0  0  0  0  0  0  0  0
    3.7890   -4.0210   28.0490 C   0  0  0  0  0  0  0  0  0  0  0  0
    6.7630   -2.6410   23.2420 C   0  0  0  0  0  0  0  0  0  0  0  0
    7.5500   -3.1300   22.2250 C   0  0  0  0  0  0  0  0  0  0  0  0
  1  2  1  0
  2  3  2  0
  2  4  1  0
  4  5  1  0
  5  6  1  0
  6  7  1  0
  7  8  1  0
  8  9  2  0
  8 10  1  0
 10 11  1  0
 10 12  1  0
 12 13  1  0
 13 14  2  0
 14 15  1  0
 15 16  2  0
 16 17  1  0
 17 18  1  0
 18 19  1  0
 19 20  1  0
 17 21  1  0
 20 21  1  0
 16 22  1  0
 13 23  1  0
 22 23  2  0
  7 24  1  0
  4 25  1  0
 24 25  1  0
M  END
