piperidine-amides-33551-covalent
     RDKit          3D

 30 33  0  0  0  0  0  0  0  0999 V2000
    7.0700   -3.4080   19.4310 C   0  0  0  0  0  0  0  0  0  0  0  0
    6.3990   -4.2710   20.4140 C   0  0  0  0  0  0  0  0  0  0  0  0
    5.4000   -4.9120   20.0030 O   0  0  0  0  0  0  0  0  0  0  0  0
    6.9030   -4.4050   21.7400 N   0  0  0  0  0  0  0  0  0  0  0  0
    6.4960   -5.5300   22.5200 C   0  0  0  0  0  0  0  0  0  0  0  0
    6.1000   -5.1810   23.8910 C   0  0  0  0  0  0  0  0  0  0  0  0
    6.0800   -3.7230   24.1460 C   0  0  0  0  0  0  0  0  0  0  0  0
    5.4500   -3.2410   25.4410 C   0  0  0  0  0  0  0  0  0  0  0  0
    4.8740   -2.1450   25.3930 O   0  0  0  0  0  0  0  0  0  0  0  0
    5.4130   -3.9020   26.7010 N   0  0  0  0  0  0  0  0  0  0  0  0
    4.2320   -4.2140   27.4110 C   0  0  0  0  0  0  0  0  0  0  0  0
    4.3050   -4.8290   28.7450 C   0  0  0  0  0  0  0  0  0  0  0  0
    5.4320   -5.3390   29.2440 N   0  0  0  0  0  0  0  0  0  0  0  0
    5.6530   -6.7170   29.6530 C   0  0  0  0  0  0  0  0  0  0  0  0
    5.0910   -6.9410   30.9140 C   0  0  0  0  0  0  0  0  0  0  0  0
    5.8860   -6.9030   31.9570 N   0  0  0  0  0  0  0  0  0  0  0  0
    5.0360   -7.1520   33.0890 C   0  0  0  0  0  0  0  0  0  0  0  0
    5.7090   -7.1450   34.4350 C   0  0  0  0  0  0  0  0  0  0  0  0
    4.6460   -7.7960   35.3050 C   0  0  0  0  0  0  0  0  0  0  0  0
    4.8820   -8.0000   36.7790 C   0  0  0  0  0  0  0  0  0  0  0  0
    6.2470   -7.4970   37.2470 C   0  0  0  0  0  0  0  0  0  0  0  0
    6.6970   -7.6030   38.7120 C   0  0  0  0  0  0  0  0  0  0  0  0
    7.2200   -6.8660   36.2690 C   0  0  0  0  0  0  0  0  0  0  0  0
    6.9440   -6.7020   34.9110 C   0  0  0  0  0  0  0  0  0  0  0  0
    3.7580   -7.3330   32.6020 N   0  0  0  0  0  0  0  0  0  0  0  0
    3.7820   -7.2020   31.2470 O   0  0  0  0  0  0  0  0  0  0  0  0
    6.5830   -4.8640   28.4750 C   0  0  0  0  0  0  0  0  0  0  0  0
    6.4110   -3.5990   27.6510 C   0  0  0  0  0  0  0  0  0  0  0  0
    7.4130   -3.1300   23.8000 C   0  0  0  0  0  0  0  0  0  0  0  0
    7.6510   -3.3120   22.3110 C   0  0  0  0  0  0  0  0  0  0  0  0
  1  2  1  0
  2  3  2  0
  2  4  1  0
  4  5  1  0
  5  6  1  0
  6  7  1  0
  7  8  1  0
  8  9  2  0
  8 10  1  0
 10 11  1  0
 11 12  1  0
 12 13  1  0
 13 14  1  0
 14 15  1  0
 15 16  2  0
 16 17  1  0
 17 18  1  0
 18 19  2  0
 19 20  1  0
 20 21  2  0
 21 22  1  0
 21 23  1  0
 18 24  1  0
 23 24  2  0
 17 25  2  0
 15 26  1  0
 25 26  1  0
 13 27  1  0
 10 28  1  0
 27 28  1  0
  7 29  1  0
  4 30  1  0
 29 30  1  0
M  END
