piperidine-amides-25574-covalent
     RDKit          3D

 25 27  0  0  0  0  0  0  0  0999 V2000
    6.9940   -3.3740   19.4480 C   0  0  0  0  0  0  0  0  0  0  0  0
    6.3650   -4.2910   20.4390 C   0  0  0  0  0  0  0  0  0  0  0  0
    5.4300   -4.9750   20.0110 O   0  0  0  0  0  0  0  0  0  0  0  0
    6.8410   -4.3810   21.7640 N   0  0  0  0  0  0  0  0  0  0  0  0
    6.6910   -5.5930   22.5480 C   0  0  0  0  0  0  0  0  0  0  0  0
    6.0970   -5.2690   23.8990 C   0  0  0  0  0  0  0  0  0  0  0  0
    5.9870   -3.7560   23.9850 C   0  0  0  0  0  0  0  0  0  0  0  0
    5.3930   -3.2160   25.2520 C   0  0  0  0  0  0  0  0  0  0  0  0
    4.7750   -2.1580   25.1420 O   0  0  0  0  0  0  0  0  0  0  0  0
    5.4270   -3.7700   26.5670 N   0  0  0  0  0  0  0  0  0  0  0  0
    6.4650   -3.2860   27.3820 C   0  0  0  0  0  0  0  0  0  0  0  0
    6.8130   -4.4360   28.3230 C   0  0  0  0  0  0  0  0  0  0  0  0
    5.9900   -4.8730   29.2720 C   0  0  0  0  0  0  0  0  0  0  0  0
    4.8640   -5.6430   29.0060 N   0  0  0  0  0  0  0  0  0  0  0  0
    4.2590   -6.4780   30.0190 C   0  0  0  0  0  0  0  0  0  0  0  0
    2.9130   -6.8070   29.9910 C   0  0  0  0  0  0  0  0  0  0  0  0
    2.1410   -7.6830   31.0050 C   0  0  0  0  0  0  0  0  0  0  0  0
    3.0440   -8.1850   32.1060 C   0  0  0  0  0  0  0  0  0  0  0  0
    2.4550   -9.0550   33.1800 C   0  0  0  0  0  0  0  0  0  0  0  0
    4.4990   -7.8560   32.1730 C   0  0  0  0  0  0  0  0  0  0  0  0
    5.1280   -7.0190   31.1580 C   0  0  0  0  0  0  0  0  0  0  0  0
    3.9150   -5.0170   28.1780 C   0  0  0  0  0  0  0  0  0  0  0  0
    4.4320   -3.7480   27.5930 C   0  0  0  0  0  0  0  0  0  0  0  0
    7.3340   -3.1180   23.6790 C   0  0  0  0  0  0  0  0  0  0  0  0
    7.6540   -3.2970   22.3430 C   0  0  0  0  0  0  0  0  0  0  0  0
  1  2  1  0
  2  3  2  0
  2  4  1  0
  4  5  1  0
  5  6  1  0
  6  7  1  0
  7  8  1  0
  8  9  2  0
  8 10  1  0
 10 11  1  0
 11 12  1  0
 12 13  1  0
 13 14  1  0
 14 15  1  0
 15 16  2  0
 16 17  1  0
 17 18  2  0
 18 19  1  0
 18 20  1  0
 15 21  1  0
 20 21  2  0
 14 22  1  0
 10 23  1  0
 22 23  1  0
  7 24  1  0
  4 25  1  0
 24 25  1  0
M  END
