piperidine-amides-16105-covalent
     RDKit          3D

 19 20  0  0  0  0  0  0  0  0999 V2000
    7.1000   -3.2620   19.2060 C   0  0  0  0  0  0  0  0  0  0  0  0
    6.3630   -4.0430   20.2330 C   0  0  0  0  0  0  0  0  0  0  0  0
    5.3060   -4.5690   19.8900 O   0  0  0  0  0  0  0  0  0  0  0  0
    6.8990   -4.1930   21.5130 N   0  0  0  0  0  0  0  0  0  0  0  0
    7.6380   -3.1400   22.1600 C   0  0  0  0  0  0  0  0  0  0  0  0
    6.8350   -2.6250   23.3160 C   0  0  0  0  0  0  0  0  0  0  0  0
    6.5380   -3.7930   24.2510 C   0  0  0  0  0  0  0  0  0  0  0  0
    5.7810   -3.2540   25.4010 C   0  0  0  0  0  0  0  0  0  0  0  0
    4.5570   -3.0970   25.2840 O   0  0  0  0  0  0  0  0  0  0  0  0
    6.4030   -2.9170   26.6220 N   0  0  0  0  0  0  0  0  0  0  0  0
    6.2990   -3.8900   27.6920 C   0  0  0  0  0  0  0  0  0  0  0  0
    6.5300   -1.5290   26.9460 C   0  0  0  0  0  0  0  0  0  0  0  0
    5.9100   -1.2510   28.1350 C   0  0  1  0  0  0  0  0  0  0  0  0
    6.6930   -1.5860   29.2250 C   0  0  0  0  0  0  0  0  0  0  0  0
    6.6160   -0.5800   30.0910 C   0  0  0  0  0  0  0  0  0  0  0  0
    5.7740    0.4680   29.5090 C   0  0  0  0  0  0  0  0  0  0  0  0
    5.4010   -0.0480   28.2850 O   0  0  0  0  0  0  0  0  0  0  0  0
    5.8270   -4.9150   23.5580 C   0  0  0  0  0  0  0  0  0  0  0  0
    6.5250   -5.3450   22.3000 C   0  0  0  0  0  0  0  0  0  0  0  0
  1  2  1  0
  2  3  2  0
  2  4  1  0
  4  5  1  0
  5  6  1  0
  6  7  1  0
  7  8  1  0
  8  9  2  0
  8 10  1  0
 10 11  1  0
 10 12  1  0
 13 12  1  6
 13 14  1  0
 14 15  1  0
 15 16  1  0
 13 17  1  0
 16 17  1  0
  7 18  1  0
  4 19  1  0
 18 19  1  0
M  END
