piperidine-amides-11137-covalent
     RDKit          3D

 20 21  0  0  0  0  0  0  0  0999 V2000
    7.1610   -3.3070   19.2300 C   0  0  0  0  0  0  0  0  0  0  0  0
    6.3850   -4.0450   20.2220 C   0  0  0  0  0  0  0  0  0  0  0  0
    5.2960   -4.5370   19.8860 O   0  0  0  0  0  0  0  0  0  0  0  0
    6.8770   -4.2680   21.5200 N   0  0  0  0  0  0  0  0  0  0  0  0
    6.5300   -5.4430   22.2580 C   0  0  0  0  0  0  0  0  0  0  0  0
    5.7980   -4.9170   23.4640 C   0  0  0  0  0  0  0  0  0  0  0  0
    6.4750   -3.7480   24.1470 C   0  0  0  0  0  0  0  0  0  0  0  0
    5.5440   -3.0940   25.0910 C   0  0  0  0  0  0  0  0  0  0  0  0
    4.2980   -3.1020   24.8640 O   0  0  0  0  0  0  0  0  0  0  0  0
    5.9470   -2.4560   26.2720 N   0  0  0  0  0  0  0  0  0  0  0  0
    5.5160   -3.0430   27.5450 C   0  0  0  0  0  0  0  0  0  0  0  0
    6.5920   -3.9410   27.8800 C   0  0  0  0  0  0  0  0  0  0  0  0
    6.5470   -5.4130   27.8310 C   0  0  0  0  0  0  0  0  0  0  0  0
    4.9910   -6.3990   27.3090 Br  0  0  0  0  0  0  0  0  0  0  0  0
    7.8990   -5.8240   28.2520 C   0  0  0  0  0  0  0  0  0  0  0  0
    8.6270   -4.6640   28.5160 N   0  0  0  0  0  0  0  0  0  0  0  0
    7.8530   -3.6270   28.2980 N   0  0  0  0  0  0  0  0  0  0  0  0
    8.1900   -2.3430   28.4490 C   0  0  0  0  0  0  0  0  0  0  0  0
    6.9220   -2.6860   23.1840 C   0  0  0  0  0  0  0  0  0  0  0  0
    7.6130   -3.2110   22.1330 C   0  0  0  0  0  0  0  0  0  0  0  0
  1  2  1  0
  2  3  2  0
  2  4  1  0
  4  5  1  0
  5  6  1  0
  6  7  1  0
  7  8  1  0
  8  9  2  0
  8 10  1  0
 10 11  1  0
 11 12  1  0
 12 13  2  0
 13 14  1  0
 13 15  1  0
 15 16  2  0
 12 17  1  0
 16 17  1  0
 17 18  1  0
  7 19  1  0
  4 20  1  0
 19 20  1  0
M  END
