piperidine-amides-24942-covalent
     RDKit          3D

 24 25  0  0  0  0  0  0  0  0999 V2000
    7.0360   -3.3570   19.3320 C   0  0  0  0  0  0  0  0  0  0  0  0
    6.3820   -4.2250   20.3210 C   0  0  0  0  0  0  0  0  0  0  0  0
    5.3770   -4.8940   19.9910 O   0  0  0  0  0  0  0  0  0  0  0  0
    6.9100   -4.3460   21.6140 N   0  0  0  0  0  0  0  0  0  0  0  0
    6.6830   -5.5570   22.3790 C   0  0  0  0  0  0  0  0  0  0  0  0
    5.9100   -5.1830   23.6620 C   0  0  0  0  0  0  0  0  0  0  0  0
    6.6860   -4.0920   24.3760 C   0  0  0  0  0  0  0  0  0  0  0  0
    5.9400   -3.6770   25.5860 C   0  0  0  0  0  0  0  0  0  0  0  0
    4.8340   -3.1130   25.4190 O   0  0  0  0  0  0  0  0  0  0  0  0
    6.4630   -3.9190   26.8960 N   0  0  0  0  0  0  0  0  0  0  0  0
    7.1720   -5.1070   27.2440 C   0  0  0  0  0  0  0  0  0  0  0  0
    6.2560   -6.0750   27.8980 C   0  0  0  0  0  0  0  0  0  0  0  0
    5.4590   -5.4640   28.9550 N   0  0  0  0  0  0  0  0  0  0  0  0
    4.6350   -6.3530   29.7790 C   0  0  0  0  0  0  0  0  0  0  0  0
    3.8360   -7.0680   29.1080 O   0  0  0  0  0  0  0  0  0  0  0  0
    4.8220   -6.2930   31.1420 C   0  0  0  0  0  0  0  0  0  0  0  0
    3.8920   -5.6120   31.8710 O   0  0  0  0  0  0  0  0  0  0  0  0
    5.8910   -6.8850   31.8210 O   0  0  0  0  0  0  0  0  0  0  0  0
    5.5520   -7.9130   32.6560 C   0  0  0  0  0  0  0  0  0  0  0  0
    5.7200   -7.5730   33.9790 C   0  0  0  0  0  0  0  0  0  0  0  0
    5.0180   -4.1800   28.9110 C   0  0  0  0  0  0  0  0  0  0  0  0
    5.9920   -3.3260   28.1220 C   0  0  0  0  0  0  0  0  0  0  0  0
    6.8530   -2.9110   23.5100 C   0  0  0  0  0  0  0  0  0  0  0  0
    7.5040   -3.2240   22.2540 C   0  0  0  0  0  0  0  0  0  0  0  0
  1  2  1  0
  2  3  2  0
  2  4  1  0
  4  5  1  0
  5  6  1  0
  6  7  1  0
  7  8  1  0
  8  9  2  0
  8 10  1  0
 10 11  1  0
 11 12  1  0
 12 13  1  0
 13 14  1  0
 14 15  2  0
 14 16  1  0
 16 17  2  0
 16 18  1  0
 18 19  1  0
 19 20  1  0
 13 21  1  0
 10 22  1  0
 21 22  1  0
  7 23  1  0
  4 24  1  0
 23 24  1  0
M  END
