piperidine-amides-2897-covalent
     RDKit          3D

 24 26  0  0  0  0  0  0  0  0999 V2000
    7.1800   -3.2870   19.2140 C   0  0  0  0  0  0  0  0  0  0  0  0
    6.3610   -4.0040   20.1810 C   0  0  0  0  0  0  0  0  0  0  0  0
    5.2720   -4.4740   19.8560 O   0  0  0  0  0  0  0  0  0  0  0  0
    6.8710   -4.2160   21.4970 N   0  0  0  0  0  0  0  0  0  0  0  0
    7.7230   -3.2160   22.0860 C   0  0  0  0  0  0  0  0  0  0  0  0
    7.0740   -2.6670   23.3080 C   0  0  0  0  0  0  0  0  0  0  0  0
    6.4930   -3.8350   24.0770 C   0  0  0  0  0  0  0  0  0  0  0  0
    5.7560   -3.3030   25.2400 C   0  0  0  0  0  0  0  0  0  0  0  0
    4.5600   -2.9590   25.1880 O   0  0  0  0  0  0  0  0  0  0  0  0
    6.4650   -3.1970   26.4420 N   0  0  0  0  0  0  0  0  0  0  0  0
    6.5670   -1.9290   27.1070 C   0  0  0  0  0  0  0  0  0  0  0  0
    6.4250   -2.2870   28.5500 C   0  0  0  0  0  0  0  0  0  0  0  0
    5.9200   -3.5240   28.7600 C   0  0  0  0  0  0  0  0  0  0  0  0
    6.8420   -4.6270   28.6510 N   0  0  0  0  0  0  0  0  0  0  0  0
    6.0020   -5.7040   28.8960 C   0  0  0  0  0  0  0  0  0  0  0  0
    6.3850   -7.0030   28.9000 C   0  0  0  0  0  0  0  0  0  0  0  0
    5.3550   -7.9480   29.1710 C   0  0  0  0  0  0  0  0  0  0  0  0
    4.0620   -7.6090   29.4180 C   0  0  0  0  0  0  0  0  0  0  0  0
    3.7210   -6.2840   29.4060 C   0  0  0  0  0  0  0  0  0  0  0  0
    4.7240   -5.3450   29.1370 C   0  0  0  0  0  0  0  0  0  0  0  0
    4.6820   -4.0260   29.0560 N   0  0  0  0  0  0  0  0  0  0  0  0
    3.4020   -3.3440   29.2770 C   0  0  0  0  0  0  0  0  0  0  0  0
    5.6210   -4.7690   23.2560 C   0  0  0  0  0  0  0  0  0  0  0  0
    6.4400   -5.3300   22.2850 C   0  0  0  0  0  0  0  0  0  0  0  0
  1  2  1  0
  2  3  2  0
  2  4  1  0
  4  5  1  0
  5  6  1  0
  6  7  1  0
  7  8  1  0
  8  9  2  0
  8 10  1  0
 10 11  1  0
 11 12  1  0
 12 13  1  0
 13 14  2  0
 14 15  1  0
 15 16  2  0
 16 17  1  0
 17 18  2  0
 18 19  1  0
 15 20  1  0
 19 20  2  0
 13 21  1  0
 20 21  1  0
 21 22  1  0
  7 23  1  0
  4 24  1  0
 23 24  1  0
M  END
