piperidine-amides-14337-covalent
     RDKit          3D

 23 24  0  0  0  0  0  0  0  0999 V2000
    7.0250   -3.3390   19.3990 C   0  0  0  0  0  0  0  0  0  0  0  0
    6.3710   -4.1900   20.3940 C   0  0  0  0  0  0  0  0  0  0  0  0
    5.4270   -4.9040   19.9980 O   0  0  0  0  0  0  0  0  0  0  0  0
    6.8150   -4.2220   21.7520 N   0  0  0  0  0  0  0  0  0  0  0  0
    7.7180   -3.2040   22.2400 C   0  0  0  0  0  0  0  0  0  0  0  0
    7.5110   -3.0400   23.7170 C   0  0  0  0  0  0  0  0  0  0  0  0
    6.1140   -3.5480   23.9520 C   0  0  0  0  0  0  0  0  0  0  0  0
    5.5460   -3.1900   25.3130 C   0  0  0  0  0  0  0  0  0  0  0  0
    4.3200   -3.2100   25.3740 O   0  0  0  0  0  0  0  0  0  0  0  0
    6.3730   -2.8760   26.4020 N   0  0  0  0  0  0  0  0  0  0  0  0
    6.7480   -1.5380   26.8030 C   0  0  2  0  0  0  0  0  0  0  0  0
    7.1110   -1.4640   28.1540 C   0  0  0  0  0  0  0  0  0  0  0  0
    6.3830   -0.6330   28.9560 C   0  0  0  0  0  0  0  0  0  0  0  0
    6.2080    0.7050   28.6410 C   0  0  0  0  0  0  0  0  0  0  0  0
    5.6270    0.7160   27.2490 C   0  0  0  0  0  0  0  0  0  0  0  0
    5.6890   -0.6090   26.4280 C   0  0  1  0  0  0  0  0  0  0  0  0
    5.5390   -0.2990   25.2050 O   0  0  0  0  0  0  0  0  0  0  0  0
    5.1630    0.9890   24.8920 C   0  0  0  0  0  0  0  0  0  0  0  0
    6.2210    1.9920   24.4910 C   0  0  0  0  0  0  0  0  0  0  0  0
    6.7140    1.8070   23.3480 O   0  0  0  0  0  0  0  0  0  0  0  0
    8.0190    1.2910   23.1260 C   0  0  0  0  0  0  0  0  0  0  0  0
    6.1060   -5.0570   23.8030 C   0  0  0  0  0  0  0  0  0  0  0  0
    6.6230   -5.4070   22.5580 C   0  0  0  0  0  0  0  0  0  0  0  0
  1  2  1  0
  2  3  2  0
  2  4  1  0
  4  5  1  0
  5  6  1  0
  6  7  1  0
  7  8  1  0
  8  9  2  0
  8 10  1  0
 11 10  1  1
 11 12  1  0
 12 13  1  0
 13 14  1  0
 14 15  1  0
 11 16  1  0
 15 16  1  0
 16 17  1  6
 17 18  1  0
 18 19  1  0
 19 20  1  0
 20 21  1  0
  7 22  1  0
  4 23  1  0
 22 23  1  0
M  END
