piperidine-amides-11824-covalent
     RDKit          3D

 27 29  0  0  0  0  0  0  0  0999 V2000
    7.0540   -3.3420   19.2990 C   0  0  0  0  0  0  0  0  0  0  0  0
    6.3480   -4.1510   20.2880 C   0  0  0  0  0  0  0  0  0  0  0  0
    5.3410   -4.7730   19.9620 O   0  0  0  0  0  0  0  0  0  0  0  0
    6.8520   -4.2640   21.6290 N   0  0  0  0  0  0  0  0  0  0  0  0
    7.7480   -3.2570   22.1460 C   0  0  0  0  0  0  0  0  0  0  0  0
    7.5480   -3.0770   23.6170 C   0  0  0  0  0  0  0  0  0  0  0  0
    6.1390   -3.5410   23.9320 C   0  0  0  0  0  0  0  0  0  0  0  0
    5.8410   -3.2210   25.3460 C   0  0  0  0  0  0  0  0  0  0  0  0
    4.6990   -3.3240   25.8400 O   0  0  0  0  0  0  0  0  0  0  0  0
    6.9240   -2.7740   26.1340 N   0  0  0  0  0  0  0  0  0  0  0  0
    6.7570   -1.6460   27.0220 C   0  0  0  0  0  0  0  0  0  0  0  0
    7.2760   -1.6530   28.4270 C   0  0  0  0  0  0  0  0  0  0  0  0
    7.1100   -0.5650   29.2740 C   0  0  0  0  0  0  0  0  0  0  0  0
    6.4380    0.6050   28.8420 C   0  0  0  0  0  0  0  0  0  0  0  0
    5.9260    0.7100   27.5630 C   0  0  0  0  0  0  0  0  0  0  0  0
    6.0510   -0.3700   26.6110 C   0  0  0  0  0  0  0  0  0  0  0  0
    5.5060   -0.1100   25.4110 N   0  0  0  0  0  0  0  0  0  0  0  0
    5.3080    1.2130   24.8570 C   0  0  0  0  0  0  0  0  0  0  0  0
    5.7730    2.3430   25.3290 O   0  0  0  0  0  0  0  0  0  0  0  0
    4.5470    1.3820   23.7180 C   0  0  0  0  0  0  0  0  0  0  0  0
    4.5830    2.6140   23.0650 C   0  0  0  0  0  0  0  0  0  0  0  0
    3.8350    3.8540   23.1350 C   0  0  0  0  0  0  0  0  0  0  0  0
    4.2190    4.8440   22.2800 C   0  0  0  0  0  0  0  0  0  0  0  0
    5.2890    4.4940   21.4630 C   0  0  0  0  0  0  0  0  0  0  0  0
    5.8280    2.8810   21.7750 S   0  0  0  0  0  0  0  0  0  0  0  0
    6.0040   -5.0310   23.7220 C   0  0  0  0  0  0  0  0  0  0  0  0
    6.6440   -5.4690   22.3970 C   0  0  0  0  0  0  0  0  0  0  0  0
  1  2  1  0
  2  3  2  0
  2  4  1  0
  4  5  1  0
  5  6  1  0
  6  7  1  0
  7  8  1  0
  8  9  2  0
  8 10  1  0
 10 11  1  0
 11 12  2  0
 12 13  1  0
 13 14  2  0
 14 15  1  0
 11 16  1  0
 15 16  2  0
 16 17  1  0
 17 18  1  0
 18 19  2  0
 18 20  1  0
 20 21  1  0
 21 22  2  0
 22 23  1  0
 23 24  2  0
 21 25  1  0
 24 25  1  0
  7 26  1  0
  4 27  1  0
 26 27  1  0
M  END
