piperidine-amides-10335-covalent
     RDKit          3D

 25 27  0  0  0  0  0  0  0  0999 V2000
    7.0690   -3.2880   19.2390 C   0  0  0  0  0  0  0  0  0  0  0  0
    6.3640   -4.0590   20.2720 C   0  0  0  0  0  0  0  0  0  0  0  0
    5.3100   -4.6440   19.9170 O   0  0  0  0  0  0  0  0  0  0  0  0
    6.8810   -4.1610   21.5680 N   0  0  0  0  0  0  0  0  0  0  0  0
    7.7540   -3.1390   22.1160 C   0  0  0  0  0  0  0  0  0  0  0  0
    7.4290   -2.9230   23.5690 C   0  0  0  0  0  0  0  0  0  0  0  0
    6.0900   -3.5040   23.9260 C   0  0  0  0  0  0  0  0  0  0  0  0
    5.7410   -3.1890   25.3270 C   0  0  0  0  0  0  0  0  0  0  0  0
    4.6680   -3.6480   25.7720 O   0  0  0  0  0  0  0  0  0  0  0  0
    6.5340   -2.3880   26.1750 N   0  0  0  0  0  0  0  0  0  0  0  0
    6.0010   -1.8870   27.4180 C   0  0  0  0  0  0  0  0  0  0  0  0
    6.2190   -0.3930   27.6360 C   0  0  2  0  0  0  0  0  0  0  0  0
    5.8540    0.2800   28.7750 C   0  0  0  0  0  0  0  0  0  0  0  0
    5.6020    1.5740   28.4620 C   0  0  0  0  0  0  0  0  0  0  0  0
    5.2030    2.3740   29.4220 O   0  0  0  0  0  0  0  0  0  0  0  0
    5.8190    1.7910   27.1650 N   0  0  0  0  0  0  0  0  0  0  0  0
    6.7450    2.6780   26.8020 C   0  0  0  0  0  0  0  0  0  0  0  0
    7.5300    3.4550   27.6420 C   0  0  0  0  0  0  0  0  0  0  0  0
    8.4820    4.3500   27.1830 C   0  0  0  0  0  0  0  0  0  0  0  0
    8.7850    4.5930   25.7130 C   0  0  0  0  0  0  0  0  0  0  0  0
    7.8890    3.7150   24.8440 C   0  0  0  0  0  0  0  0  0  0  0  0
    6.8800    2.7700   25.4360 C   0  0  0  0  0  0  0  0  0  0  0  0
    5.8660    0.4490   26.5200 C   0  0  0  0  0  0  0  0  0  0  0  0
    6.0300   -4.9670   23.6750 C   0  0  0  0  0  0  0  0  0  0  0  0
    6.6160   -5.3510   22.3330 C   0  0  0  0  0  0  0  0  0  0  0  0
  1  2  1  0
  2  3  2  0
  2  4  1  0
  4  5  1  0
  5  6  1  0
  6  7  1  0
  7  8  1  0
  8  9  2  0
  8 10  1  0
 10 11  1  0
 12 11  1  6
 12 13  1  0
 13 14  1  0
 14 15  2  0
 14 16  1  0
 16 17  1  0
 17 18  2  0
 18 19  1  0
 19 20  2  0
 20 21  1  0
 17 22  1  0
 21 22  2  0
 12 23  1  0
 16 23  1  0
  7 24  1  0
  4 25  1  0
 24 25  1  0
M  END
