piperidine-amides-11002-covalent
     RDKit          3D

 21 22  0  0  0  0  0  0  0  0999 V2000
    7.1580   -3.3040   19.2310 C   0  0  0  0  0  0  0  0  0  0  0  0
    6.3670   -4.0260   20.2230 C   0  0  0  0  0  0  0  0  0  0  0  0
    5.2900   -4.5460   19.8890 O   0  0  0  0  0  0  0  0  0  0  0  0
    6.8460   -4.1830   21.5270 N   0  0  0  0  0  0  0  0  0  0  0  0
    7.7250   -3.2040   22.1140 C   0  0  0  0  0  0  0  0  0  0  0  0
    6.9730   -2.6910   23.2980 C   0  0  0  0  0  0  0  0  0  0  0  0
    6.5390   -3.8090   24.1920 C   0  0  0  0  0  0  0  0  0  0  0  0
    5.8080   -3.3190   25.3840 C   0  0  0  0  0  0  0  0  0  0  0  0
    4.5400   -3.3020   25.4050 O   0  0  0  0  0  0  0  0  0  0  0  0
    6.4820   -2.8600   26.5360 N   0  0  0  0  0  0  0  0  0  0  0  0
    6.1190   -1.6050   27.2300 C   0  0  0  0  0  0  0  0  0  0  0  0
    6.0920   -0.4790   26.2650 C   0  0  0  0  0  0  0  0  0  0  0  0
    6.0410    0.7540   26.8040 N   0  0  0  0  0  0  0  0  0  0  0  0
    6.0210    1.8210   25.9050 C   0  0  0  0  0  0  0  0  0  0  0  0
    5.9710    3.2360   26.4260 C   0  0  0  0  0  0  0  0  0  0  0  0
    5.4240    3.7900   27.6020 N   0  0  0  0  0  0  0  0  0  0  0  0
    6.5790    4.1170   25.5650 O   0  0  0  0  0  0  0  0  0  0  0  0
    6.0510    1.5170   24.4590 C   0  0  0  0  0  0  0  0  0  0  0  0
    6.1090   -0.3050   24.5550 S   0  0  0  0  0  0  0  0  0  0  0  0
    5.7000   -4.8030   23.4510 C   0  0  0  0  0  0  0  0  0  0  0  0
    6.2830   -5.2440   22.2910 C   0  0  0  0  0  0  0  0  0  0  0  0
  1  2  1  0
  2  3  2  0
  2  4  1  0
  4  5  1  0
  5  6  1  0
  6  7  1  0
  7  8  1  0
  8  9  2  0
  8 10  1  0
 10 11  1  0
 11 12  1  0
 12 13  2  0
 13 14  1  0
 14 15  1  0
 15 16  1  0
 15 17  2  0
 14 18  2  0
 12 19  1  0
 18 19  1  0
  7 20  1  0
  4 21  1  0
 20 21  1  0
M  END
