piperidine-amides-13347-covalent
     RDKit          3D

 32 35  0  0  0  0  0  0  0  0999 V2000
    7.0460   -3.3400   19.2600 C   0  0  0  0  0  0  0  0  0  0  0  0
    6.3110   -4.1410   20.2610 C   0  0  0  0  0  0  0  0  0  0  0  0
    5.2370   -4.6600   19.9140 O   0  0  0  0  0  0  0  0  0  0  0  0
    6.8480   -4.3270   21.5410 N   0  0  0  0  0  0  0  0  0  0  0  0
    7.4710   -3.2200   22.1640 C   0  0  0  0  0  0  0  0  0  0  0  0
    7.6460   -3.3010   23.6200 C   0  0  0  0  0  0  0  0  0  0  0  0
    6.6900   -4.1320   24.4220 C   0  0  0  0  0  0  0  0  0  0  0  0
    5.8950   -3.3100   25.4110 C   0  0  0  0  0  0  0  0  0  0  0  0
    4.8270   -2.7920   25.0330 O   0  0  0  0  0  0  0  0  0  0  0  0
    6.3180   -3.2060   26.7720 N   0  0  0  0  0  0  0  0  0  0  0  0
    6.5620   -1.9960   27.6340 C   0  0  0  0  0  0  0  0  0  0  0  0
    6.4560   -0.8890   26.6220 C   0  0  0  0  0  0  0  0  0  0  0  0
    6.1830   -0.8290   25.1440 C   0  0  0  0  0  0  0  0  0  0  0  0
    4.7230   -0.7010   24.9600 N   0  0  0  0  0  0  0  0  0  0  0  0
    6.5230    0.6910   26.4340 C   0  0  0  0  0  0  0  0  0  0  0  0
    6.7150    1.8780   27.1800 C   0  0  0  0  0  0  0  0  0  0  0  0
    6.3220    0.2640   25.3530 N   0  0  0  0  0  0  0  0  0  0  0  0
    6.4770   -0.6400   26.5610 C   0  0  0  0  0  0  0  0  0  0  0  0
    6.6790   -0.6360   27.6830 C   0  0  0  0  0  0  0  0  0  0  0  0
    6.8700   -0.6350   28.7400 C   0  0  0  0  0  0  0  0  0  0  0  0
    7.0020    0.4410   28.9360 N   0  0  0  0  0  0  0  0  0  0  0  0
    6.7570    0.7730   27.3970 N   0  0  0  0  0  0  0  0  0  0  0  0
    6.5290    1.0520   25.9830 C   0  0  0  0  0  0  0  0  0  0  0  0
    7.7890    1.5140   25.3000 C   0  0  0  0  0  0  0  0  0  0  0  0
    6.3270   -4.3210   27.6280 C   0  0  0  0  0  0  0  0  0  0  0  0
    7.3060   -5.4310   27.4690 C   0  0  0  0  0  0  0  0  0  0  0  0
    7.6150   -6.0500   28.6620 C   0  0  0  0  0  0  0  0  0  0  0  0
    6.4900   -5.9550   29.4860 O   0  0  0  0  0  0  0  0  0  0  0  0
    5.3190   -6.2180   28.7260 C   0  0  0  0  0  0  0  0  0  0  0  0
    5.0000   -5.0520   27.8380 C   0  0  0  0  0  0  0  0  0  0  0  0
    5.8110   -5.0450   23.5690 C   0  0  0  0  0  0  0  0  0  0  0  0
    6.5660   -5.5010   22.3370 C   0  0  0  0  0  0  0  0  0  0  0  0
  1  2  1  0
  2  3  2  0
  2  4  1  0
  4  5  1  0
  5  6  1  0
  6  7  1  0
  7  8  1  0
  8  9  2  0
  8 10  1  0
 10 11  1  0
 11 12  2  0
 12 13  1  0
 13 14  1  0
 12 15  1  0
 15 16  1  0
 15 17  2  0
 17 18  1  0
 11 19  1  0
 18 19  2  0
 19 20  1  0
 20 21  2  0
 18 22  1  0
 21 22  1  0
 22 23  1  0
 23 24  1  0
 10 25  1  0
 25 26  1  0
 26 27  1  0
 27 28  1  0
 28 29  1  0
 25 30  1  0
 29 30  1  0
  7 31  1  0
  4 32  1  0
 31 32  1  0
M  END
