piperidine-amides-13798-covalent
     RDKit          3D

 26 27  0  0  0  0  0  0  0  0999 V2000
    7.0340   -3.3390   19.3200 C   0  0  0  0  0  0  0  0  0  0  0  0
    6.3550   -4.1900   20.3360 C   0  0  0  0  0  0  0  0  0  0  0  0
    5.3810   -4.8750   19.9860 O   0  0  0  0  0  0  0  0  0  0  0  0
    6.8590   -4.2190   21.6600 N   0  0  0  0  0  0  0  0  0  0  0  0
    7.7430   -3.1770   22.1440 C   0  0  0  0  0  0  0  0  0  0  0  0
    7.5290   -3.0430   23.6490 C   0  0  0  0  0  0  0  0  0  0  0  0
    6.1630   -3.5640   23.9060 C   0  0  0  0  0  0  0  0  0  0  0  0
    5.6680   -3.2380   25.2610 C   0  0  0  0  0  0  0  0  0  0  0  0
    4.4630   -3.4180   25.4710 O   0  0  0  0  0  0  0  0  0  0  0  0
    6.5530   -2.7400   26.2180 N   0  0  0  0  0  0  0  0  0  0  0  0
    6.3890   -1.5940   27.0390 C   0  0  0  0  0  0  0  0  0  0  0  0
    5.9430   -0.3470   26.6230 C   0  0  0  0  0  0  0  0  0  0  0  0
    5.7950    0.7630   27.4990 C   0  0  0  0  0  0  0  0  0  0  0  0
    6.0940    0.6730   28.8540 C   0  0  0  0  0  0  0  0  0  0  0  0
    5.9780    1.6470   29.7970 N   0  0  0  0  0  0  0  0  0  0  0  0
    7.2920    2.7260   29.6740 S   0  0  0  0  0  0  0  0  0  0  0  0
    7.8510    2.8510   28.2690 O   0  0  0  0  0  0  0  0  0  0  0  0
    6.8880    4.0570   30.2260 O   0  0  0  0  0  0  0  0  0  0  0  0
    8.4710    1.9330   30.7820 C   0  0  0  0  0  0  0  0  0  0  0  0
    7.9610    1.9870   32.2290 C   0  0  0  0  0  0  0  0  0  0  0  0
    8.2160    0.5480   32.6840 C   0  0  0  0  0  0  0  0  0  0  0  0
    6.5410   -0.4990   29.3490 C   0  0  0  0  0  0  0  0  0  0  0  0
    6.6910   -1.6480   28.4590 C   0  0  0  0  0  0  0  0  0  0  0  0
    7.1080   -2.8710   28.8430 F   0  0  0  0  0  0  0  0  0  0  0  0
    6.0040   -5.0280   23.6450 C   0  0  0  0  0  0  0  0  0  0  0  0
    6.6650   -5.3820   22.4910 C   0  0  0  0  0  0  0  0  0  0  0  0
  1  2  1  0
  2  3  2  0
  2  4  1  0
  4  5  1  0
  5  6  1  0
  6  7  1  0
  7  8  1  0
  8  9  2  0
  8 10  1  0
 10 11  1  0
 11 12  2  0
 12 13  1  0
 13 14  2  0
 14 15  1  0
 16 15  1  0
 16 17  2  0
 16 18  2  0
 16 19  1  0
 19 20  1  0
 20 21  1  0
 14 22  1  0
 11 23  1  0
 22 23  2  0
 23 24  1  0
  7 25  1  0
  4 26  1  0
 25 26  1  0
M  END
