piperidine-amides-28745-covalent
     RDKit          3D

 26 28  0  0  0  0  0  0  0  0999 V2000
    7.1190   -3.3900   19.3840 C   0  0  0  0  0  0  0  0  0  0  0  0
    6.4400   -4.2500   20.3370 C   0  0  0  0  0  0  0  0  0  0  0  0
    5.3800   -4.7950   19.9820 O   0  0  0  0  0  0  0  0  0  0  0  0
    7.0490   -4.4900   21.5990 N   0  0  0  0  0  0  0  0  0  0  0  0
    6.5580   -5.5650   22.3890 C   0  0  0  0  0  0  0  0  0  0  0  0
    5.6170   -4.9880   23.4020 C   0  0  0  0  0  0  0  0  0  0  0  0
    6.3460   -3.9330   24.2180 C   0  0  0  0  0  0  0  0  0  0  0  0
    5.4020   -3.3460   25.2180 C   0  0  0  0  0  0  0  0  0  0  0  0
    4.6280   -2.5050   24.7840 O   0  0  0  0  0  0  0  0  0  0  0  0
    5.4320   -3.7680   26.5280 N   0  0  0  0  0  0  0  0  0  0  0  0
    4.2650   -4.0590   27.2490 C   0  0  0  0  0  0  0  0  0  0  0  0
    4.5180   -4.6880   28.4640 C   0  0  0  0  0  0  0  0  0  0  0  0
    5.6310   -4.2920   29.1340 C   0  0  0  0  0  0  0  0  0  0  0  0
    6.0020   -5.2630   30.0030 F   0  0  0  0  0  0  0  0  0  0  0  0
    5.4770   -3.0310   29.7050 C   0  0  0  0  0  0  0  0  0  0  0  0
    4.1940   -2.9120   30.4770 C   0  0  0  0  0  0  0  0  0  0  0  0
    3.9350   -1.5450   31.1530 C   0  0  0  0  0  0  0  0  0  0  0  0
    2.7050   -1.3080   31.9440 C   0  0  0  0  0  0  0  0  0  0  0  0
    4.9530   -0.4410   31.0030 C   0  0  0  0  0  0  0  0  0  0  0  0
    6.2180   -0.7440   30.1670 C   0  0  0  0  0  0  0  0  0  0  0  0
    7.1060    0.3330   30.0810 F   0  0  0  0  0  0  0  0  0  0  0  0
    6.4000   -1.9770   29.5860 C   0  0  0  0  0  0  0  0  0  0  0  0
    6.7400   -4.3060   28.3870 C   0  0  0  0  0  0  0  0  0  0  0  0
    6.4430   -3.2500   27.3400 C   0  0  0  0  0  0  0  0  0  0  0  0
    6.8960   -2.8140   23.3160 C   0  0  0  0  0  0  0  0  0  0  0  0
    7.7650   -3.4600   22.2710 C   0  0  0  0  0  0  0  0  0  0  0  0
  1  2  1  0
  2  3  2  0
  2  4  1  0
  4  5  1  0
  5  6  1  0
  6  7  1  0
  7  8  1  0
  8  9  2  0
  8 10  1  0
 10 11  1  0
 11 12  1  0
 12 13  1  0
 13 14  1  0
 13 15  1  0
 15 16  2  0
 16 17  1  0
 17 18  1  0
 17 19  2  0
 19 20  1  0
 20 21  1  0
 15 22  1  0
 20 22  2  0
 13 23  1  0
 10 24  1  0
 23 24  1  0
  7 25  1  0
  4 26  1  0
 25 26  1  0
M  END
