piperidine-amides-19884-covalent
     RDKit          3D

 22 24  0  0  0  0  0  0  0  0999 V2000
    7.0860   -3.3470   19.3880 C   0  0  0  0  0  0  0  0  0  0  0  0
    6.3740   -4.1910   20.3750 C   0  0  0  0  0  0  0  0  0  0  0  0
    5.3730   -4.7850   19.9710 O   0  0  0  0  0  0  0  0  0  0  0  0
    6.8700   -4.3280   21.6770 N   0  0  0  0  0  0  0  0  0  0  0  0
    6.5230   -5.4540   22.4910 C   0  0  0  0  0  0  0  0  0  0  0  0
    5.5900   -4.9900   23.5810 C   0  0  0  0  0  0  0  0  0  0  0  0
    6.1510   -3.7460   24.2980 C   0  0  0  0  0  0  0  0  0  0  0  0
    5.0490   -3.1790   25.1620 C   0  0  0  0  0  0  0  0  0  0  0  0
    4.0000   -2.8230   24.6280 O   0  0  0  0  0  0  0  0  0  0  0  0
    5.1950   -3.0430   26.5740 N   0  0  0  0  0  0  0  0  0  0  0  0
    4.1540   -3.5100   27.5400 C   0  0  0  0  0  0  0  0  0  0  0  0
    4.7850   -4.7230   28.2660 C   0  0  2  0  0  0  0  0  0  0  0  0
    4.4540   -5.3020   29.4590 C   0  0  0  0  0  0  0  0  0  0  0  0
    5.4720   -6.1450   29.6020 C   0  0  0  0  0  0  0  0  0  0  0  0
    6.3580   -5.6430   28.7150 C   0  0  0  0  0  0  0  0  0  0  0  0
    6.1610   -4.2000   28.2620 C   0  0  2  0  0  0  0  0  0  0  0  0
    5.4640   -4.8600   27.0710 C   0  0  0  0  0  0  0  0  0  0  0  0
    3.9980   -4.8810   27.2040 N   0  0  0  0  0  0  0  0  0  0  0  0
    6.1360   -5.4220   26.0340 O   0  0  0  0  0  0  0  0  0  0  0  0
    6.4190   -3.5380   26.9680 C   0  0  0  0  0  0  0  0  0  0  0  0
    6.7940   -2.7350   23.4190 C   0  0  0  0  0  0  0  0  0  0  0  0
    7.6240   -3.2660   22.2910 C   0  0  0  0  0  0  0  0  0  0  0  0
  1  2  1  0
  2  3  2  0
  2  4  1  0
  4  5  1  0
  5  6  1  0
  6  7  1  0
  7  8  1  0
  8  9  2  0
  8 10  1  0
 10 11  1  0
 12 11  1  1
 12 13  1  0
 13 14  1  0
 14 15  1  0
 12 16  1  0
 15 16  1  0
 16 17  1  6
 17 18  1  0
 17 19  2  0
 10 20  1  0
 16 20  1  0
  7 21  1  0
  4 22  1  0
 21 22  1  0
M  END
