piperidine-amides-2888-covalent
     RDKit          3D

 24 25  0  0  0  0  0  0  0  0999 V2000
    7.0210   -3.3500   19.3300 C   0  0  0  0  0  0  0  0  0  0  0  0
    6.3340   -4.1650   20.3270 C   0  0  0  0  0  0  0  0  0  0  0  0
    5.3760   -4.8550   19.9840 O   0  0  0  0  0  0  0  0  0  0  0  0
    6.7910   -4.2010   21.6910 N   0  0  0  0  0  0  0  0  0  0  0  0
    7.6990   -3.1800   22.1600 C   0  0  0  0  0  0  0  0  0  0  0  0
    7.4920   -2.9780   23.6210 C   0  0  0  0  0  0  0  0  0  0  0  0
    6.1260   -3.5530   23.9160 C   0  0  0  0  0  0  0  0  0  0  0  0
    5.6790   -3.1670   25.2810 C   0  0  0  0  0  0  0  0  0  0  0  0
    4.4840   -3.1940   25.6280 O   0  0  0  0  0  0  0  0  0  0  0  0
    6.6590   -2.7530   26.2090 N   0  0  0  0  0  0  0  0  0  0  0  0
    6.4650   -1.5310   26.9580 C   0  0  0  0  0  0  0  0  0  0  0  0
    6.9830   -1.5750   28.3760 C   0  0  0  0  0  0  0  0  0  0  0  0
    6.8630   -0.4810   29.2200 C   0  0  0  0  0  0  0  0  0  0  0  0
    6.2470    0.6980   28.7560 C   0  0  0  0  0  0  0  0  0  0  0  0
    6.0890    1.8170   29.5620 C   0  0  0  0  0  0  0  0  0  0  0  0
    7.3010    2.5800   29.8100 C   0  0  0  0  0  0  0  0  0  0  0  0
    7.2640    3.8450   30.3550 C   0  0  0  0  0  0  0  0  0  0  0  0
    6.6410    4.8610   29.8130 O   0  0  0  0  0  0  0  0  0  0  0  0
    7.9200    4.0940   31.5530 O   0  0  0  0  0  0  0  0  0  0  0  0
    7.3170    3.6620   32.7510 C   0  0  0  0  0  0  0  0  0  0  0  0
    5.7700    0.7630   27.4610 C   0  0  0  0  0  0  0  0  0  0  0  0
    5.8660   -0.3510   26.5230 C   0  0  0  0  0  0  0  0  0  0  0  0
    6.0380   -5.0590   23.6940 C   0  0  0  0  0  0  0  0  0  0  0  0
    6.6420   -5.4010   22.4760 C   0  0  0  0  0  0  0  0  0  0  0  0
  1  2  1  0
  2  3  2  0
  2  4  1  0
  4  5  1  0
  5  6  1  0
  6  7  1  0
  7  8  1  0
  8  9  2  0
  8 10  1  0
 10 11  1  0
 11 12  2  0
 12 13  1  0
 13 14  2  0
 14 15  1  0
 15 16  1  0
 16 17  1  0
 17 18  2  0
 17 19  1  0
 19 20  1  0
 14 21  1  0
 11 22  1  0
 21 22  2  0
  7 23  1  0
  4 24  1  0
 23 24  1  0
M  END
