piperidine-amides-3967-covalent
     RDKit          3D

 29 31  0  0  0  0  0  0  0  0999 V2000
    7.0820   -3.2740   19.2910 C   0  0  0  0  0  0  0  0  0  0  0  0
    6.3570   -4.0560   20.3140 C   0  0  0  0  0  0  0  0  0  0  0  0
    5.3170   -4.6420   19.9210 O   0  0  0  0  0  0  0  0  0  0  0  0
    6.8180   -4.1930   21.6580 N   0  0  0  0  0  0  0  0  0  0  0  0
    7.6380   -3.1710   22.2210 C   0  0  0  0  0  0  0  0  0  0  0  0
    7.2950   -2.9100   23.6050 C   0  0  0  0  0  0  0  0  0  0  0  0
    6.0300   -3.5670   23.9440 C   0  0  0  0  0  0  0  0  0  0  0  0
    5.5690   -3.3180   25.3620 C   0  0  0  0  0  0  0  0  0  0  0  0
    4.3880   -3.5850   25.6460 O   0  0  0  0  0  0  0  0  0  0  0  0
    6.3900   -2.7830   26.3840 N   0  0  0  0  0  0  0  0  0  0  0  0
    6.5540   -1.4270   26.7610 C   0  0  0  0  0  0  0  0  0  0  0  0
    6.1590   -0.8610   28.0610 C   0  0  0  0  0  0  0  0  0  0  0  0
    7.2020   -1.1160   29.1010 C   0  0  0  0  0  0  0  0  0  0  0  0
    7.1930   -0.7460   30.4000 C   0  0  0  0  0  0  0  0  0  0  0  0
    5.9340    0.0360   30.8440 C   0  0  0  0  0  0  0  0  0  0  0  0
    5.8090    0.5740   32.5120 Cl  0  0  0  0  0  0  0  0  0  0  0  0
    4.8300    0.3260   29.8200 C   0  0  0  0  0  0  0  0  0  0  0  0
    4.9290   -0.1390   28.3360 C   0  0  0  0  0  0  0  0  0  0  0  0
    3.9740    0.0970   27.3560 O   0  0  0  0  0  0  0  0  0  0  0  0
    3.6940    1.4410   26.9690 C   0  0  0  0  0  0  0  0  0  0  0  0
    2.3860    1.9780   27.5220 C   0  0  0  0  0  0  0  0  0  0  0  0
    1.9450    3.4080   27.2040 C   0  0  0  0  0  0  0  0  0  0  0  0
    2.9190    4.1260   26.3420 C   0  0  0  0  0  0  0  0  0  0  0  0
    2.4950    5.4090   26.0700 F   0  0  0  0  0  0  0  0  0  0  0  0
    4.1110    3.5760   25.8620 C   0  0  0  0  0  0  0  0  0  0  0  0
    5.1300    4.5780   24.8550 Cl  0  0  0  0  0  0  0  0  0  0  0  0
    4.4760    2.2760   26.1710 C   0  0  0  0  0  0  0  0  0  0  0  0
    6.0580   -5.0470   23.6720 C   0  0  0  0  0  0  0  0  0  0  0  0
    6.5980   -5.4040   22.4190 C   0  0  0  0  0  0  0  0  0  0  0  0
  1  2  1  0
  2  3  2  0
  2  4  1  0
  4  5  1  0
  5  6  1  0
  6  7  1  0
  7  8  1  0
  8  9  2  0
  8 10  1  0
 10 11  1  0
 11 12  1  0
 12 13  2  0
 13 14  1  0
 14 15  2  0
 15 16  1  0
 15 17  1  0
 12 18  1  0
 17 18  2  0
 18 19  1  0
 19 20  1  0
 20 21  2  0
 21 22  1  0
 22 23  2  0
 23 24  1  0
 23 25  1  0
 25 26  1  0
 20 27  1  0
 25 27  2  0
  7 28  1  0
  4 29  1  0
 28 29  1  0
M  END
