piperidine-amides-6515-covalent
     RDKit          3D

 24 26  0  0  0  0  0  0  0  0999 V2000
    7.0420   -3.3390   19.3390 C   0  0  0  0  0  0  0  0  0  0  0  0
    6.3700   -4.1820   20.3390 C   0  0  0  0  0  0  0  0  0  0  0  0
    5.4030   -4.8980   19.9960 O   0  0  0  0  0  0  0  0  0  0  0  0
    6.8330   -4.2210   21.6670 N   0  0  0  0  0  0  0  0  0  0  0  0
    7.6830   -3.1410   22.1330 C   0  0  0  0  0  0  0  0  0  0  0  0
    7.4920   -3.0520   23.6460 C   0  0  0  0  0  0  0  0  0  0  0  0
    6.0880   -3.5500   23.8970 C   0  0  0  0  0  0  0  0  0  0  0  0
    5.6530   -3.1840   25.2590 C   0  0  0  0  0  0  0  0  0  0  0  0
    4.4350   -3.2240   25.5280 O   0  0  0  0  0  0  0  0  0  0  0  0
    6.6220   -2.8030   26.2070 N   0  0  0  0  0  0  0  0  0  0  0  0
    6.4960   -1.6040   26.9970 C   0  0  0  0  0  0  0  0  0  0  0  0
    7.0230   -1.5890   28.4140 C   0  0  0  0  0  0  0  0  0  0  0  0
    6.9310   -0.4780   29.2080 C   0  0  0  0  0  0  0  0  0  0  0  0
    6.3360    0.6580   28.6950 C   0  0  0  0  0  0  0  0  0  0  0  0
    5.8360    0.6770   27.3870 C   0  0  0  0  0  0  0  0  0  0  0  0
    5.8620   -0.3540   26.4810 C   0  0  0  0  0  0  0  0  0  0  0  0
    5.1940    1.9950   26.9290 C   0  0  0  0  0  0  0  0  0  0  0  0
    4.7070    2.1480   25.8100 O   0  0  0  0  0  0  0  0  0  0  0  0
    5.1580    3.0160   27.7820 N   0  0  0  0  0  0  0  0  0  0  0  0
    3.9870    3.5590   28.3810 C   0  0  0  0  0  0  0  0  0  0  0  0
    6.2240    3.0850   28.7810 C   0  0  0  0  0  0  0  0  0  0  0  0
    6.2240    1.7950   29.4760 C   0  0  0  0  0  0  0  0  0  0  0  0
    6.0640   -5.0420   23.7200 C   0  0  0  0  0  0  0  0  0  0  0  0
    6.5320   -5.3630   22.4710 C   0  0  0  0  0  0  0  0  0  0  0  0
  1  2  1  0
  2  3  2  0
  2  4  1  0
  4  5  1  0
  5  6  1  0
  6  7  1  0
  7  8  1  0
  8  9  2  0
  8 10  1  0
 10 11  1  0
 11 12  2  0
 12 13  1  0
 13 14  2  0
 14 15  1  0
 11 16  1  0
 15 16  2  0
 15 17  1  0
 17 18  2  0
 17 19  1  0
 19 20  1  0
 19 21  1  0
 14 22  1  0
 21 22  1  0
  7 23  1  0
  4 24  1  0
 23 24  1  0
M  END
