piperidine-amides-28114-covalent
     RDKit          3D

 26 29  0  0  0  0  0  0  0  0999 V2000
    7.0590   -3.3460   19.2980 C   0  0  0  0  0  0  0  0  0  0  0  0
    6.4000   -4.1900   20.3170 C   0  0  0  0  0  0  0  0  0  0  0  0
    5.3510   -4.7600   19.9590 O   0  0  0  0  0  0  0  0  0  0  0  0
    6.9640   -4.3800   21.5880 N   0  0  0  0  0  0  0  0  0  0  0  0
    6.5860   -5.5210   22.3470 C   0  0  0  0  0  0  0  0  0  0  0  0
    5.9600   -5.1870   23.6270 C   0  0  0  0  0  0  0  0  0  0  0  0
    6.4880   -3.9900   24.3220 C   0  0  0  0  0  0  0  0  0  0  0  0
    5.5210   -3.5470   25.3640 C   0  0  0  0  0  0  0  0  0  0  0  0
    4.6950   -2.6670   25.0760 O   0  0  0  0  0  0  0  0  0  0  0  0
    5.5520   -4.1220   26.6490 N   0  0  0  0  0  0  0  0  0  0  0  0
    6.8560   -4.3540   27.2010 C   0  0  0  0  0  0  0  0  0  0  0  0
    6.6420   -5.0650   28.4280 C   0  0  0  0  0  0  0  0  0  0  0  0
    5.3240   -4.6580   28.8070 C   0  0  0  0  0  0  0  0  0  0  0  0
    4.6800   -3.8750   27.8320 C   0  0  2  0  0  0  0  0  0  0  0  0
    3.3620   -4.1260   27.4820 C   0  0  0  0  0  0  0  0  0  0  0  0
    2.9110   -5.2130   26.6810 N   0  0  0  0  0  0  0  0  0  0  0  0
    1.6270   -5.0880   26.5900 N   0  0  0  0  0  0  0  0  0  0  0  0
    1.1370   -3.9010   27.3320 C   0  0  0  0  0  0  0  0  0  0  0  0
    2.2880   -3.3810   27.8440 N   0  0  0  0  0  0  0  0  0  0  0  0
    2.3740   -2.1980   28.6630 C   0  0  0  0  0  0  0  0  0  0  0  0
    1.5780   -2.2660   29.7780 C   0  0  0  0  0  0  0  0  0  0  0  0
    0.3840   -2.9510   29.5360 C   0  0  0  0  0  0  0  0  0  0  0  0
   -0.3560   -2.4150   28.3660 C   0  0  0  0  0  0  0  0  0  0  0  0
   -0.1790   -3.5520   27.3890 C   0  0  0  0  0  0  0  0  0  0  0  0
    6.8240   -2.8720   23.3150 C   0  0  0  0  0  0  0  0  0  0  0  0
    7.6750   -3.3370   22.2950 C   0  0  0  0  0  0  0  0  0  0  0  0
  1  2  1  0
  2  3  2  0
  2  4  1  0
  4  5  1  0
  5  6  1  0
  6  7  1  0
  7  8  1  0
  8  9  2  0
  8 10  1  0
 10 11  1  0
 11 12  1  0
 12 13  1  0
 10 14  1  0
 13 14  1  0
 14 15  1  6
 15 16  2  0
 16 17  1  0
 17 18  2  0
 15 19  1  0
 18 19  1  0
 19 20  1  0
 20 21  1  0
 21 22  1  0
 22 23  1  0
 18 24  1  0
 23 24  1  0
  7 25  1  0
  4 26  1  0
 25 26  1  0
M  END
