piperidine-amides-13392-covalent
     RDKit          3D

 23 24  0  0  0  0  0  0  0  0999 V2000
    7.0850   -3.3480   19.3700 C   0  0  0  0  0  0  0  0  0  0  0  0
    6.3530   -4.1700   20.3690 C   0  0  0  0  0  0  0  0  0  0  0  0
    5.3770   -4.8410   19.9870 O   0  0  0  0  0  0  0  0  0  0  0  0
    6.8180   -4.1910   21.7000 N   0  0  0  0  0  0  0  0  0  0  0  0
    7.7120   -3.1750   22.2300 C   0  0  0  0  0  0  0  0  0  0  0  0
    7.5240   -3.0750   23.7460 C   0  0  0  0  0  0  0  0  0  0  0  0
    6.1680   -3.6080   24.0500 C   0  0  0  0  0  0  0  0  0  0  0  0
    5.6080   -3.2470   25.3790 C   0  0  0  0  0  0  0  0  0  0  0  0
    4.3820   -3.3520   25.4770 O   0  0  0  0  0  0  0  0  0  0  0  0
    6.4130   -2.8140   26.4460 N   0  0  0  0  0  0  0  0  0  0  0  0
    6.6530   -1.4700   26.8770 C   0  0  1  0  0  0  0  0  0  0  0  0
    5.9210   -0.4250   26.3420 C   0  0  0  0  0  0  0  0  0  0  0  0
    4.8900    0.0700   27.1030 C   0  0  0  0  0  0  0  0  0  0  0  0
    4.9680   -0.4150   28.3640 O   0  0  0  0  0  0  0  0  0  0  0  0
    6.2040   -0.3930   28.9510 C   0  0  1  0  0  0  0  0  0  0  0  0
    6.6960    1.0070   28.8830 C   0  0  0  0  0  0  0  0  0  0  0  0
    6.2310   -0.6790   30.3030 C   0  0  0  0  0  0  0  0  0  0  0  0
    7.3360   -0.2890   31.0360 O   0  0  0  0  0  0  0  0  0  0  0  0
    5.2160   -1.3150   30.9590 O   0  0  0  0  0  0  0  0  0  0  0  0
    4.6830   -0.4890   31.9110 C   0  0  0  0  0  0  0  0  0  0  0  0
    6.9350   -1.3630   28.2700 C   0  0  0  0  0  0  0  0  0  0  0  0
    6.0610   -5.0760   23.8330 C   0  0  0  0  0  0  0  0  0  0  0  0
    6.6340   -5.4110   22.4700 C   0  0  0  0  0  0  0  0  0  0  0  0
  1  2  1  0
  2  3  2  0
  2  4  1  0
  4  5  1  0
  5  6  1  0
  6  7  1  0
  7  8  1  0
  8  9  2  0
  8 10  1  0
 11 10  1  1
 11 12  1  0
 12 13  1  0
 13 14  1  0
 14 15  1  0
 15 16  1  1
 15 17  1  0
 17 18  2  0
 17 19  1  0
 19 20  1  0
 11 21  1  0
 15 21  1  0
  7 22  1  0
  4 23  1  0
 22 23  1  0
M  END
