piperidine-amides-24303-covalent
     RDKit          3D

 24 26  0  0  0  0  0  0  0  0999 V2000
    7.1020   -3.2770   19.2160 C   0  0  0  0  0  0  0  0  0  0  0  0
    6.3790   -4.0620   20.2290 C   0  0  0  0  0  0  0  0  0  0  0  0
    5.3220   -4.6560   19.9250 O   0  0  0  0  0  0  0  0  0  0  0  0
    6.8860   -4.2040   21.5230 N   0  0  0  0  0  0  0  0  0  0  0  0
    7.6380   -3.1260   22.1310 C   0  0  0  0  0  0  0  0  0  0  0  0
    6.7750   -2.5900   23.2700 C   0  0  0  0  0  0  0  0  0  0  0  0
    6.6180   -3.7440   24.2320 C   0  0  0  0  0  0  0  0  0  0  0  0
    5.7800   -3.3010   25.3660 C   0  0  0  0  0  0  0  0  0  0  0  0
    4.5450   -3.2360   25.1980 O   0  0  0  0  0  0  0  0  0  0  0  0
    6.3910   -2.9370   26.5940 N   0  0  0  0  0  0  0  0  0  0  0  0
    6.7990   -1.5750   26.7480 C   0  0  0  0  0  0  0  0  0  0  0  0
    6.1370   -3.6940   27.8130 C   0  0  0  0  0  0  0  0  0  0  0  0
    5.3300   -4.7730   27.5370 C   0  0  0  0  0  0  0  0  0  0  0  0
    5.6970   -5.7370   26.5620 N   0  0  0  0  0  0  0  0  0  0  0  0
    4.7260   -6.6660   26.5210 N   0  0  0  0  0  0  0  0  0  0  0  0
    3.8010   -6.2960   27.4270 C   0  0  0  0  0  0  0  0  0  0  0  0
    4.1630   -5.1720   28.0250 N   0  0  0  0  0  0  0  0  0  0  0  0
    3.3880   -4.5920   28.9840 C   0  0  0  0  0  0  0  0  0  0  0  0
    3.0320   -5.3390   30.0850 C   0  0  0  0  0  0  0  0  0  0  0  0
    2.2950   -6.4610   29.9310 O   0  0  0  0  0  0  0  0  0  0  0  0
    2.4390   -7.4990   29.0690 C   0  0  0  0  0  0  0  0  0  0  0  0
    2.6680   -7.0210   27.6550 C   0  0  0  0  0  0  0  0  0  0  0  0
    6.0030   -4.9490   23.6390 C   0  0  0  0  0  0  0  0  0  0  0  0
    6.5020   -5.3150   22.3150 C   0  0  0  0  0  0  0  0  0  0  0  0
  1  2  1  0
  2  3  2  0
  2  4  1  0
  4  5  1  0
  5  6  1  0
  6  7  1  0
  7  8  1  0
  8  9  2  0
  8 10  1  0
 10 11  1  0
 10 12  1  0
 12 13  1  0
 13 14  2  0
 14 15  1  0
 15 16  2  0
 13 17  1  0
 16 17  1  0
 17 18  1  0
 18 19  1  0
 19 20  1  0
 20 21  1  0
 16 22  1  0
 21 22  1  0
  7 23  1  0
  4 24  1  0
 23 24  1  0
M  END
