piperidine-amides-10715-covalent
     RDKit          3D

 22 23  0  0  0  0  0  0  0  0999 V2000
    7.1330   -3.3060   19.2150 C   0  0  0  0  0  0  0  0  0  0  0  0
    6.3560   -4.0300   20.2200 C   0  0  0  0  0  0  0  0  0  0  0  0
    5.2940   -4.5830   19.8950 O   0  0  0  0  0  0  0  0  0  0  0  0
    6.8320   -4.1490   21.5290 N   0  0  0  0  0  0  0  0  0  0  0  0
    7.6530   -3.1370   22.1450 C   0  0  0  0  0  0  0  0  0  0  0  0
    6.8380   -2.6390   23.3000 C   0  0  0  0  0  0  0  0  0  0  0  0
    6.5220   -3.7590   24.2350 C   0  0  0  0  0  0  0  0  0  0  0  0
    5.7390   -3.3050   25.4120 C   0  0  0  0  0  0  0  0  0  0  0  0
    4.6270   -2.7300   25.2360 O   0  0  0  0  0  0  0  0  0  0  0  0
    6.1680   -3.4550   26.7610 N   0  0  0  0  0  0  0  0  0  0  0  0
    6.2480   -4.7840   27.4180 C   0  0  0  0  0  0  0  0  0  0  0  0
    4.9920   -5.0670   28.1060 C   0  0  0  0  0  0  0  0  0  0  0  0
    4.4270   -6.4300   28.0670 C   0  0  0  0  0  0  0  0  0  0  0  0
    3.3870   -6.3970   27.3760 O   0  0  0  0  0  0  0  0  0  0  0  0
    2.3270   -7.1860   27.8400 C   0  0  0  0  0  0  0  0  0  0  0  0
    2.5350   -8.0430   29.0470 C   0  0  0  0  0  0  0  0  0  0  0  0
    1.2350   -8.6900   29.1950 C   0  0  0  0  0  0  0  0  0  0  0  0
    0.7740   -9.5950   30.1100 C   0  0  0  0  0  0  0  0  0  0  0  0
    0.4160   -8.1930   28.1330 N   0  0  0  0  0  0  0  0  0  0  0  0
    1.0060   -7.3100   27.3090 N   0  0  0  0  0  0  0  0  0  0  0  0
    5.7860   -4.8850   23.5420 C   0  0  0  0  0  0  0  0  0  0  0  0
    6.5490   -5.3300   22.3150 C   0  0  0  0  0  0  0  0  0  0  0  0
  1  2  1  0
  2  3  2  0
  2  4  1  0
  4  5  1  0
  5  6  1  0
  6  7  1  0
  7  8  1  0
  8  9  2  0
  8 10  1  0
 10 11  1  0
 11 12  1  0
 12 13  1  0
 13 14  1  0
 14 15  1  0
 15 16  2  0
 16 17  1  0
 17 18  1  0
 17 19  2  0
 15 20  1  0
 19 20  1  0
  7 21  1  0
  4 22  1  0
 21 22  1  0
M  END
