piperidine-amides-23354-covalent
     RDKit          3D

 24 26  0  0  0  0  0  0  0  0999 V2000
    7.1140   -3.3430   19.3080 C   0  0  0  0  0  0  0  0  0  0  0  0
    6.4490   -4.1860   20.3120 C   0  0  0  0  0  0  0  0  0  0  0  0
    5.3860   -4.7600   19.9660 O   0  0  0  0  0  0  0  0  0  0  0  0
    7.0350   -4.3820   21.5890 N   0  0  0  0  0  0  0  0  0  0  0  0
    6.7230   -5.5710   22.3090 C   0  0  0  0  0  0  0  0  0  0  0  0
    6.0850   -5.2550   23.5620 C   0  0  0  0  0  0  0  0  0  0  0  0
    6.0830   -3.8020   23.7440 C   0  0  0  0  0  0  0  0  0  0  0  0
    5.4780   -3.3940   25.0360 C   0  0  0  0  0  0  0  0  0  0  0  0
    4.3730   -2.8250   25.0280 O   0  0  0  0  0  0  0  0  0  0  0  0
    6.0810   -3.6160   26.2600 N   0  0  0  0  0  0  0  0  0  0  0  0
    6.2330   -2.5620   27.2080 C   0  0  0  0  0  0  0  0  0  0  0  0
    6.4390   -2.8930   28.6140 C   0  0  2  0  0  0  0  0  0  0  0  0
    7.2910   -1.7560   29.2230 C   0  0  0  0  0  0  0  0  0  0  0  0
    6.9160   -4.2310   28.9170 C   0  0  0  0  0  0  0  0  0  0  0  0
    6.1060   -5.1110   28.1230 C   0  0  0  0  0  0  0  0  0  0  0  0
    5.9350   -6.1670   29.1220 C   0  0  0  0  0  0  0  0  0  0  0  0
    5.0170   -7.2020   28.4960 C   0  0  0  0  0  0  0  0  0  0  0  0
    4.6040   -8.3100   29.2090 O   0  0  0  0  0  0  0  0  0  0  0  0
    3.3610   -8.1610   29.8960 C   0  0  0  0  0  0  0  0  0  0  0  0
    4.4630   -7.0850   27.0590 C   0  0  0  0  0  0  0  0  0  0  0  0
    4.8480   -5.8390   26.2320 C   0  0  0  0  0  0  0  0  0  0  0  0
    5.7060   -4.8430   26.8800 C   0  0  0  0  0  0  0  0  0  0  0  0
    7.4210   -3.1930   23.5160 C   0  0  0  0  0  0  0  0  0  0  0  0
    7.8090   -3.3080   22.1920 C   0  0  0  0  0  0  0  0  0  0  0  0
  1  2  1  0
  2  3  2  0
  2  4  1  0
  4  5  1  0
  5  6  1  0
  6  7  1  0
  7  8  1  0
  8  9  2  0
  8 10  1  0
 10 11  1  0
 11 12  1  0
 12 13  1  6
 12 14  1  0
 14 15  1  0
 15 16  2  0
 16 17  1  0
 17 18  1  0
 18 19  1  0
 17 20  2  0
 20 21  1  0
 10 22  1  0
 15 22  1  0
 21 22  2  0
  7 23  1  0
  4 24  1  0
 23 24  1  0
M  END
