piperidine-amides-8492-covalent
     RDKit          3D

 24 25  0  0  0  0  0  0  0  0999 V2000
    7.0730   -3.3550   19.3920 C   0  0  0  0  0  0  0  0  0  0  0  0
    6.3510   -4.1990   20.3370 C   0  0  0  0  0  0  0  0  0  0  0  0
    5.3020   -4.7340   19.9460 O   0  0  0  0  0  0  0  0  0  0  0  0
    6.8720   -4.4460   21.6320 N   0  0  0  0  0  0  0  0  0  0  0  0
    7.5170   -3.3740   22.3350 C   0  0  0  0  0  0  0  0  0  0  0  0
    6.6100   -2.8570   23.4250 C   0  0  0  0  0  0  0  0  0  0  0  0
    6.3520   -3.9840   24.4210 C   0  0  0  0  0  0  0  0  0  0  0  0
    5.5080   -3.4990   25.5850 C   0  0  0  0  0  0  0  0  0  0  0  0
    4.2940   -3.4590   25.4170 O   0  0  0  0  0  0  0  0  0  0  0  0
    6.1090   -3.1120   26.7840 N   0  0  0  0  0  0  0  0  0  0  0  0
    7.0640   -2.0710   26.8110 C   0  0  0  0  0  0  0  0  0  0  0  0
    8.1360   -2.4830   25.9960 C   0  0  0  0  0  0  0  0  0  0  0  0
    8.5630   -3.6550   26.0180 O   0  0  0  0  0  0  0  0  0  0  0  0
    8.7730   -1.6510   25.1180 O   0  0  0  0  0  0  0  0  0  0  0  0
    9.7810   -1.9060   24.2230 C   0  0  0  0  0  0  0  0  0  0  0  0
    6.3350   -0.8570   26.2210 C   0  0  0  0  0  0  0  0  0  0  0  0
    6.0240    0.2730   27.1760 C   0  0  0  0  0  0  0  0  0  0  0  0
    6.2170    0.1920   28.8870 S   0  0  0  0  0  0  0  0  0  0  0  0
    4.9130    0.3960   29.5810 O   0  0  0  0  0  0  0  0  0  0  0  0
    7.2690    1.1350   29.3880 O   0  0  0  0  0  0  0  0  0  0  0  0
    6.7540   -1.4390   29.2570 C   0  0  0  0  0  0  0  0  0  0  0  0
    7.6070   -1.9030   28.1310 C   0  0  0  0  0  0  0  0  0  0  0  0
    5.7490   -5.1440   23.7010 C   0  0  0  0  0  0  0  0  0  0  0  0
    6.3410   -5.5740   22.3440 C   0  0  0  0  0  0  0  0  0  0  0  0
  1  2  1  0
  2  3  2  0
  2  4  1  0
  4  5  1  0
  5  6  1  0
  6  7  1  0
  7  8  1  0
  8  9  2  0
  8 10  1  0
 10 11  1  0
 11 12  1  0
 12 13  2  0
 12 14  1  0
 14 15  1  0
 11 16  1  0
 16 17  1  0
 18 17  1  0
 18 19  2  0
 18 20  2  0
 18 21  1  0
 11 22  1  0
 21 22  1  0
  7 23  1  0
  4 24  1  0
 23 24  1  0
M  END
