piperidine-amides-30562-covalent
     RDKit          3D

 23 25  0  0  0  0  0  0  0  0999 V2000
    6.9610   -3.3650   19.4580 C   0  0  0  0  0  0  0  0  0  0  0  0
    6.3060   -4.2600   20.4270 C   0  0  0  0  0  0  0  0  0  0  0  0
    5.3960   -4.9900   20.0030 O   0  0  0  0  0  0  0  0  0  0  0  0
    6.6640   -4.3610   21.7970 N   0  0  0  0  0  0  0  0  0  0  0  0
    6.2600   -5.4540   22.6340 C   0  0  0  0  0  0  0  0  0  0  0  0
    6.0540   -4.8290   24.0030 C   0  0  0  0  0  0  0  0  0  0  0  0
    5.6090   -3.3760   23.9230 C   0  0  0  0  0  0  0  0  0  0  0  0
    5.0420   -2.7160   25.2040 C   0  0  0  0  0  0  0  0  0  0  0  0
    3.8010   -2.5220   25.2610 O   0  0  0  0  0  0  0  0  0  0  0  0
    5.7550   -2.3250   26.3960 N   0  0  0  0  0  0  0  0  0  0  0  0
    5.0410   -2.1200   27.6850 C   0  0  0  0  0  0  0  0  0  0  0  0
    4.6180   -3.4210   28.2860 C   0  0  0  0  0  0  0  0  0  0  0  0
    5.6530   -4.4180   28.5270 C   0  0  0  0  0  0  0  0  0  0  0  0
    6.7120   -4.3600   27.5070 C   0  0  0  0  0  0  0  0  0  0  0  0
    7.7040   -5.3630   27.4810 C   0  0  0  0  0  0  0  0  0  0  0  0
    8.6190   -5.1240   26.4130 C   0  0  0  0  0  0  0  0  0  0  0  0
    9.7570   -6.3900   26.3670 Br  0  0  0  0  0  0  0  0  0  0  0  0
    8.7180   -4.1610   25.5140 C   0  0  0  0  0  0  0  0  0  0  0  0
    7.8110   -3.2200   25.5280 C   0  0  0  0  0  0  0  0  0  0  0  0
    7.7860   -2.0530   24.5790 C   0  0  0  0  0  0  0  0  0  0  0  0
    6.7270   -3.2660   26.4970 C   0  0  0  0  0  0  0  0  0  0  0  0
    6.6310   -2.5500   23.0830 C   0  0  0  0  0  0  0  0  0  0  0  0
    7.3890   -3.2660   22.4370 C   0  0  0  0  0  0  0  0  0  0  0  0
  1  2  1  0
  2  3  2  0
  2  4  1  0
  4  5  1  0
  5  6  1  0
  6  7  1  0
  7  8  1  0
  8  9  2  0
  8 10  1  0
 10 11  1  0
 11 12  1  0
 12 13  1  0
 13 14  1  0
 14 15  2  0
 15 16  1  0
 16 17  1  0
 16 18  2  0
 18 19  1  0
 19 20  1  0
 10 21  1  0
 14 21  1  0
 19 21  2  0
  7 22  1  0
  4 23  1  0
 22 23  1  0
M  END
