piperidine-amides-12119-covalent
     RDKit          3D

 25 27  0  0  0  0  0  0  0  0999 V2000
    7.1290   -3.2700   19.2270 C   0  0  0  0  0  0  0  0  0  0  0  0
    6.3670   -4.0320   20.2130 C   0  0  0  0  0  0  0  0  0  0  0  0
    5.3070   -4.5650   19.8930 O   0  0  0  0  0  0  0  0  0  0  0  0
    6.8820   -4.2020   21.5410 N   0  0  0  0  0  0  0  0  0  0  0  0
    7.7110   -3.1800   22.1260 C   0  0  0  0  0  0  0  0  0  0  0  0
    7.0800   -2.6590   23.3760 C   0  0  0  0  0  0  0  0  0  0  0  0
    6.5510   -3.8430   24.1680 C   0  0  0  0  0  0  0  0  0  0  0  0
    5.7850   -3.3430   25.3350 C   0  0  0  0  0  0  0  0  0  0  0  0
    4.5440   -3.2240   25.3200 O   0  0  0  0  0  0  0  0  0  0  0  0
    6.4970   -2.9940   26.5040 N   0  0  0  0  0  0  0  0  0  0  0  0
    6.4510   -1.6300   26.9740 C   0  0  0  0  0  0  0  0  0  0  0  0
    5.7290   -1.6790   28.2940 C   0  0  0  0  0  0  0  0  0  0  0  0
    5.2480   -2.8950   28.7780 C   0  0  0  0  0  0  0  0  0  0  0  0
    4.5710   -2.9750   29.9930 C   0  0  0  0  0  0  0  0  0  0  0  0
    4.3860   -1.8310   30.7130 C   0  0  0  0  0  0  0  0  0  0  0  0
    4.8810   -0.5680   30.2230 C   0  0  0  0  0  0  0  0  0  0  0  0
    4.7090    0.5770   30.9130 N   0  0  0  0  0  0  0  0  0  0  0  0
    5.1070    1.9070   30.5400 C   0  0  0  0  0  0  0  0  0  0  0  0
    4.0910    2.8350   30.6990 C   0  0  0  0  0  0  0  0  0  0  0  0
    3.2160    2.4450   31.7070 O   0  0  0  0  0  0  0  0  0  0  0  0
    3.7920    1.5780   32.6440 C   0  0  0  0  0  0  0  0  0  0  0  0
    4.0860    0.2620   32.0720 C   0  0  0  0  0  0  0  0  0  0  0  0
    5.5310   -0.5530   29.0360 N   0  0  0  0  0  0  0  0  0  0  0  0
    5.7030   -4.8070   23.3520 C   0  0  0  0  0  0  0  0  0  0  0  0
    6.5010   -5.3280   22.3420 C   0  0  0  0  0  0  0  0  0  0  0  0
  1  2  1  0
  2  3  2  0
  2  4  1  0
  4  5  1  0
  5  6  1  0
  6  7  1  0
  7  8  1  0
  8  9  2  0
  8 10  1  0
 10 11  1  0
 11 12  1  0
 12 13  2  0
 13 14  1  0
 14 15  2  0
 15 16  1  0
 16 17  1  0
 17 18  1  0
 18 19  1  0
 19 20  1  0
 20 21  1  0
 17 22  1  0
 21 22  1  0
 12 23  1  0
 16 23  2  0
  7 24  1  0
  4 25  1  0
 24 25  1  0
M  END
