piperidine-amides-33846-covalent
     RDKit          3D

 29 30  0  0  0  0  0  0  0  0999 V2000
    7.0600   -3.3990   19.3910 C   0  0  0  0  0  0  0  0  0  0  0  0
    6.4010   -4.2360   20.4060 C   0  0  0  0  0  0  0  0  0  0  0  0
    5.4100   -4.8950   20.0040 O   0  0  0  0  0  0  0  0  0  0  0  0
    6.8970   -4.3390   21.7460 N   0  0  0  0  0  0  0  0  0  0  0  0
    6.5360   -5.4870   22.5110 C   0  0  0  0  0  0  0  0  0  0  0  0
    5.8480   -5.0960   23.7290 C   0  0  0  0  0  0  0  0  0  0  0  0
    5.8490   -3.6340   23.8390 C   0  0  0  0  0  0  0  0  0  0  0  0
    5.0390   -3.0880   25.0020 C   0  0  0  0  0  0  0  0  0  0  0  0
    3.9490   -2.5620   24.7410 O   0  0  0  0  0  0  0  0  0  0  0  0
    5.4030   -3.1240   26.3610 N   0  0  0  0  0  0  0  0  0  0  0  0
    5.9830   -4.2540   27.0320 C   0  0  0  0  0  0  0  0  0  0  0  0
    5.3550   -5.5370   27.2220 C   0  0  0  0  0  0  0  0  0  0  0  0
    5.4000   -5.7590   28.7450 C   0  0  0  0  0  0  0  0  0  0  0  0
    6.2620   -4.8330   29.2970 O   0  0  0  0  0  0  0  0  0  0  0  0
    4.8020   -6.6010   29.4250 O   0  0  0  0  0  0  0  0  0  0  0  0
    4.8680   -7.9100   29.2540 C   0  0  0  0  0  0  0  0  0  0  0  0
    5.5890   -1.7640   27.0080 C   0  0  0  0  0  0  0  0  0  0  0  0
    5.6440   -1.9020   28.5130 C   0  0  0  0  0  0  0  0  0  0  0  0
    5.8840   -0.5020   29.1080 C   0  0  0  0  0  0  0  0  0  0  0  0
    6.0350    0.8430   28.4480 C   0  0  0  0  0  0  0  0  0  0  0  0
    5.9320    0.8070   26.9380 C   0  0  0  0  0  0  0  0  0  0  0  0
    6.0410    1.9640   26.1840 O   0  0  0  0  0  0  0  0  0  0  0  0
    5.9750    3.2650   26.7910 C   0  0  0  0  0  0  0  0  0  0  0  0
    5.8930    4.1890   25.7650 F   0  0  0  0  0  0  0  0  0  0  0  0
    4.9340    3.3600   27.6340 F   0  0  0  0  0  0  0  0  0  0  0  0
    7.1060    3.5430   27.5820 F   0  0  0  0  0  0  0  0  0  0  0  0
    5.7130   -0.5470   26.3080 C   0  0  0  0  0  0  0  0  0  0  0  0
    7.2270   -3.0660   23.7000 C   0  0  0  0  0  0  0  0  0  0  0  0
    7.6110   -3.2280   22.3550 C   0  0  0  0  0  0  0  0  0  0  0  0
  1  2  1  0
  2  3  2  0
  2  4  1  0
  4  5  1  0
  5  6  1  0
  6  7  1  0
  7  8  1  0
  8  9  2  0
  8 10  1  0
 10 11  1  0
 11 12  1  0
 12 13  1  0
 13 14  2  0
 13 15  1  0
 15 16  1  0
 10 17  1  0
 17 18  2  0
 18 19  1  0
 19 20  2  0
 20 21  1  0
 21 22  1  0
 22 23  1  0
 23 24  1  0
 23 25  1  0
 23 26  1  0
 17 27  1  0
 21 27  2  0
  7 28  1  0
  4 29  1  0
 28 29  1  0
M  END
