piperidine-amides-23843-covalent
     RDKit          3D

 24 26  0  0  0  0  0  0  0  0999 V2000
    7.0820   -3.3530   19.3740 C   0  0  0  0  0  0  0  0  0  0  0  0
    6.4380   -4.2340   20.3590 C   0  0  0  0  0  0  0  0  0  0  0  0
    5.3900   -4.8210   19.9830 O   0  0  0  0  0  0  0  0  0  0  0  0
    7.0100   -4.4600   21.6430 N   0  0  0  0  0  0  0  0  0  0  0  0
    6.5280   -5.5340   22.4190 C   0  0  0  0  0  0  0  0  0  0  0  0
    6.1180   -5.1630   23.7790 C   0  0  0  0  0  0  0  0  0  0  0  0
    6.4430   -3.7950   24.2630 C   0  0  0  0  0  0  0  0  0  0  0  0
    5.3200   -3.2760   25.1310 C   0  0  0  0  0  0  0  0  0  0  0  0
    4.3390   -2.7650   24.5750 O   0  0  0  0  0  0  0  0  0  0  0  0
    5.3040   -3.3390   26.5420 N   0  0  0  0  0  0  0  0  0  0  0  0
    4.2360   -3.7400   27.3770 C   0  0  0  0  0  0  0  0  0  0  0  0
    4.4630   -4.6470   28.5140 C   0  0  0  0  0  0  0  0  0  0  0  0
    5.6930   -4.1620   29.2720 C   0  0  0  0  0  0  0  0  0  0  0  0
    5.1650   -2.9560   29.9220 N   0  0  0  0  0  0  0  0  0  0  0  0
    5.6900   -1.7080   29.8350 N   0  0  0  0  0  0  0  0  0  0  0  0
    4.9260   -0.8730   30.5750 C   0  0  0  0  0  0  0  0  0  0  0  0
    5.1420    0.6300   30.7720 C   0  0  0  0  0  0  0  0  0  0  0  0
    3.7900   -1.6200   31.2100 C   0  0  0  0  0  0  0  0  0  0  0  0
    4.0390   -3.0290   30.7050 C   0  0  0  0  0  0  0  0  0  0  0  0
    3.2280   -4.2690   30.9980 C   0  0  0  0  0  0  0  0  0  0  0  0
    6.7090   -3.9390   28.4070 C   0  0  0  0  0  0  0  0  0  0  0  0
    6.5140   -3.0630   27.1720 C   0  0  0  0  0  0  0  0  0  0  0  0
    6.7690   -2.8430   23.1500 C   0  0  0  0  0  0  0  0  0  0  0  0
    7.7440   -3.4350   22.3510 C   0  0  0  0  0  0  0  0  0  0  0  0
  1  2  1  0
  2  3  2  0
  2  4  1  0
  4  5  1  0
  5  6  1  0
  6  7  1  0
  7  8  1  0
  8  9  2  0
  8 10  1  0
 10 11  1  0
 11 12  1  0
 12 13  1  0
 13 14  1  0
 14 15  1  0
 15 16  2  0
 16 17  1  0
 16 18  1  0
 14 19  1  0
 18 19  2  0
 19 20  1  0
 13 21  1  0
 10 22  1  0
 21 22  1  0
  7 23  1  0
  4 24  1  0
 23 24  1  0
M  END
