piperidine-amides-19295-covalent
     RDKit          3D

 22 24  0  0  0  0  0  0  0  0999 V2000
    7.0740   -3.4460   19.4440 C   0  0  0  0  0  0  0  0  0  0  0  0
    6.4010   -4.2720   20.4170 C   0  0  0  0  0  0  0  0  0  0  0  0
    5.3770   -4.9030   20.0060 O   0  0  0  0  0  0  0  0  0  0  0  0
    6.8490   -4.4710   21.7500 N   0  0  0  0  0  0  0  0  0  0  0  0
    6.3550   -5.6620   22.4520 C   0  0  0  0  0  0  0  0  0  0  0  0
    5.4010   -4.9380   23.4780 C   0  0  0  0  0  0  0  0  0  0  0  0
    6.2850   -3.9990   24.2760 C   0  0  0  0  0  0  0  0  0  0  0  0
    5.5110   -3.4630   25.6000 C   0  0  0  0  0  0  0  0  0  0  0  0
    4.6260   -2.7130   25.2110 O   0  0  0  0  0  0  0  0  0  0  0  0
    5.9620   -3.9310   26.7710 N   0  0  0  0  0  0  0  0  0  0  0  0
    6.2220   -4.9020   27.7980 C   0  0  0  0  0  0  0  0  0  0  0  0
    5.5920   -5.2220   28.9840 C   0  0  0  0  0  0  0  0  0  0  0  0
    5.0400   -4.0080   29.0660 O   0  0  0  0  0  0  0  0  0  0  0  0
    5.5970   -3.8060   27.8340 C   0  0  0  0  0  0  0  0  0  0  0  0
    6.4840   -2.6450   27.3380 N   0  0  0  0  0  0  0  0  0  0  0  0
    5.8890   -2.9890   28.3980 C   0  0  0  0  0  0  0  0  0  0  0  0
    5.6960   -3.9910   27.4140 C   0  0  0  0  0  0  0  0  0  0  0  0
    6.4540   -2.7840   27.1870 C   0  0  0  0  0  0  0  0  0  0  0  0
    6.6020   -3.1180   26.3320 C   0  0  0  0  0  0  0  0  0  0  0  0
    6.2690   -2.7590   27.7360 C   0  0  0  0  0  0  0  0  0  0  0  0
    6.9200   -2.9420   23.3970 C   0  0  0  0  0  0  0  0  0  0  0  0
    7.7160   -3.5690   22.4600 C   0  0  0  0  0  0  0  0  0  0  0  0
  1  2  1  0
  2  3  2  0
  2  4  1  0
  4  5  1  0
  5  6  1  0
  6  7  1  0
  7  8  1  0
  8  9  2  0
  8 10  1  0
 10 11  1  0
 11 12  1  0
 12 13  1  0
 13 14  1  0
 14 15  2  0
 15 16  1  0
 16 17  2  0
 17 18  1  0
 17 19  1  0
 10 20  1  0
 14 20  1  0
 19 20  2  0
  7 21  1  0
  4 22  1  0
 21 22  1  0
M  END
