piperidine-amides-30728-covalent
     RDKit          3D

 28 31  0  0  0  0  0  0  0  0999 V2000
    7.0370   -3.4050   19.4600 C   0  0  0  0  0  0  0  0  0  0  0  0
    6.3520   -4.2630   20.4310 C   0  0  0  0  0  0  0  0  0  0  0  0
    5.4200   -4.9720   20.0190 O   0  0  0  0  0  0  0  0  0  0  0  0
    6.7590   -4.3280   21.7880 N   0  0  0  0  0  0  0  0  0  0  0  0
    6.5960   -5.5590   22.5670 C   0  0  0  0  0  0  0  0  0  0  0  0
    6.0970   -5.1940   23.9610 C   0  0  0  0  0  0  0  0  0  0  0  0
    5.9950   -3.7140   24.1240 C   0  0  0  0  0  0  0  0  0  0  0  0
    5.4850   -3.1230   25.4170 C   0  0  0  0  0  0  0  0  0  0  0  0
    5.0720   -1.9380   25.3630 O   0  0  0  0  0  0  0  0  0  0  0  0
    5.3480   -3.6850   26.7330 N   0  0  0  0  0  0  0  0  0  0  0  0
    5.2320   -2.7760   27.8690 C   0  0  0  0  0  0  0  0  0  0  0  0
    4.6180   -3.6340   28.8860 C   0  0  0  0  0  0  0  0  0  0  0  0
    4.9420   -5.0560   29.0860 C   0  0  0  0  0  0  0  0  0  0  0  0
    4.1070   -5.7380   30.1550 C   0  0  0  0  0  0  0  0  0  0  0  0
    2.6400   -5.3640   30.2620 C   0  0  0  0  0  0  0  0  0  0  0  0
    2.1620   -6.1880   31.3720 N   0  0  0  0  0  0  0  0  0  0  0  0
    3.2830   -6.9630   31.8470 C   0  0  0  0  0  0  0  0  0  0  0  0
    3.1470   -7.8450   32.9060 C   0  0  0  0  0  0  0  0  0  0  0  0
    2.0270   -8.1650   33.6770 C   0  0  0  0  0  0  0  0  0  0  0  0
    1.4400   -9.5320   33.4210 C   0  0  0  0  0  0  0  0  0  0  0  0
    4.5000   -8.5030   33.1660 C   0  0  0  0  0  0  0  0  0  0  0  0
    5.4740   -7.9750   32.1980 C   0  0  0  0  0  0  0  0  0  0  0  0
    5.8240   -7.3040   31.2970 C   0  0  0  0  0  0  0  0  0  0  0  0
    4.4720   -6.6780   31.0850 C   0  0  0  0  0  0  0  0  0  0  0  0
    5.8970   -5.6670   28.3120 C   0  0  0  0  0  0  0  0  0  0  0  0
    6.1460   -4.7110   27.1530 C   0  0  0  0  0  0  0  0  0  0  0  0
    7.2450   -3.0010   23.7550 C   0  0  0  0  0  0  0  0  0  0  0  0
    7.6810   -3.3570   22.3550 C   0  0  0  0  0  0  0  0  0  0  0  0
  1  2  1  0
  2  3  2  0
  2  4  1  0
  4  5  1  0
  5  6  1  0
  6  7  1  0
  7  8  1  0
  8  9  2  0
  8 10  1  0
 10 11  1  0
 11 12  1  0
 12 13  2  0
 13 14  1  0
 14 15  2  0
 15 16  1  0
 16 17  1  0
 17 18  1  0
 18 19  1  0
 19 20  1  0
 18 21  2  0
 21 22  1  0
 22 23  2  0
 14 24  1  0
 17 24  2  0
 23 24  1  0
 13 25  1  0
 10 26  1  0
 25 26  1  0
  7 27  1  0
  4 28  1  0
 27 28  1  0
M  END
