piperidine-amides-31450-covalent
     RDKit          3D

 28 30  0  0  0  0  0  0  0  0999 V2000
    7.1320   -3.3610   19.4610 C   0  0  0  0  0  0  0  0  0  0  0  0
    6.4580   -4.2170   20.4130 C   0  0  0  0  0  0  0  0  0  0  0  0
    5.4570   -4.8940   20.0050 O   0  0  0  0  0  0  0  0  0  0  0  0
    6.9020   -4.3490   21.7540 N   0  0  0  0  0  0  0  0  0  0  0  0
    7.8500   -3.3460   22.2770 C   0  0  0  0  0  0  0  0  0  0  0  0
    6.9340   -2.6480   23.3410 C   0  0  0  0  0  0  0  0  0  0  0  0
    6.5300   -3.7310   24.3210 C   0  0  0  0  0  0  0  0  0  0  0  0
    5.6100   -3.0700   25.4470 C   0  0  0  0  0  0  0  0  0  0  0  0
    4.5730   -2.6680   24.9340 O   0  0  0  0  0  0  0  0  0  0  0  0
    6.1610   -3.1230   26.6040 N   0  0  0  0  0  0  0  0  0  0  0  0
    6.5570   -3.6420   27.8080 C   0  0  0  0  0  0  0  0  0  0  0  0
    7.0530   -4.8450   28.2660 C   0  0  0  0  0  0  0  0  0  0  0  0
    7.3750   -5.7490   27.2270 C   0  0  0  0  0  0  0  0  0  0  0  0
    6.6080   -1.7220   27.0220 C   0  0  0  0  0  0  0  0  0  0  0  0
    7.1230   -1.7590   28.4910 C   0  0  0  0  0  0  0  0  0  0  0  0
    6.1130   -0.9370   28.9820 C   0  0  0  0  0  0  0  0  0  0  0  0
    6.1820    0.4330   28.7000 N   0  0  0  0  0  0  0  0  0  0  0  0
    5.4530    1.4210   29.4780 C   0  0  0  0  0  0  0  0  0  0  0  0
    4.0890    0.9050   29.9470 C   0  0  0  0  0  0  0  0  0  0  0  0
    3.9450   -0.1000   31.1290 C   0  0  0  0  0  0  0  0  0  0  0  0
    2.6890   -0.5010   31.4720 C   0  0  0  0  0  0  0  0  0  0  0  0
    1.5740   -0.0570   30.8210 C   0  0  0  0  0  0  0  0  0  0  0  0
    1.6790    0.8200   29.7870 C   0  0  0  0  0  0  0  0  0  0  0  0
    2.9050    1.3040   29.3420 C   0  0  0  0  0  0  0  0  0  0  0  0
    5.8880    0.5840   27.2910 C   0  0  0  0  0  0  0  0  0  0  0  0
    5.6820   -0.7560   26.6330 C   0  0  0  0  0  0  0  0  0  0  0  0
    5.8230   -4.9730   23.7700 C   0  0  0  0  0  0  0  0  0  0  0  0
    6.5300   -5.5030   22.5180 C   0  0  0  0  0  0  0  0  0  0  0  0
  1  2  1  0
  2  3  2  0
  2  4  1  0
  4  5  1  0
  5  6  1  0
  6  7  1  0
  7  8  1  0
  8  9  2  0
  8 10  1  0
 10 11  1  0
 11 12  1  0
 12 13  1  0
 10 14  1  0
 14 15  1  0
 15 16  1  0
 16 17  1  0
 17 18  1  0
 18 19  1  0
 19 20  2  0
 20 21  1  0
 21 22  2  0
 22 23  1  0
 19 24  1  0
 23 24  2  0
 17 25  1  0
 14 26  1  0
 25 26  1  0
  7 27  1  0
  4 28  1  0
 27 28  1  0
M  END
