piperidine-amides-17204-covalent
     RDKit          3D

 20 21  0  0  0  0  0  0  0  0999 V2000
    7.1210   -3.3060   19.2820 C   0  0  0  0  0  0  0  0  0  0  0  0
    6.3740   -4.0770   20.2920 C   0  0  0  0  0  0  0  0  0  0  0  0
    5.3090   -4.6220   19.9130 O   0  0  0  0  0  0  0  0  0  0  0  0
    6.8550   -4.2450   21.6150 N   0  0  0  0  0  0  0  0  0  0  0  0
    7.5850   -3.1640   22.2070 C   0  0  0  0  0  0  0  0  0  0  0  0
    7.3510   -3.0140   23.6320 C   0  0  0  0  0  0  0  0  0  0  0  0
    6.1610   -3.7500   24.0620 C   0  0  0  0  0  0  0  0  0  0  0  0
    5.7510   -3.4190   25.4620 C   0  0  0  0  0  0  0  0  0  0  0  0
    4.5360   -3.2410   25.6800 O   0  0  0  0  0  0  0  0  0  0  0  0
    6.6510   -3.2840   26.5450 N   0  0  0  0  0  0  0  0  0  0  0  0
    6.4910   -2.2090   27.4630 C   0  0  0  0  0  0  0  0  0  0  0  0
    7.3370   -1.1980   27.7390 C   0  0  0  0  0  0  0  0  0  0  0  0
    6.1570   -0.8530   26.7580 C   0  0  0  0  0  0  0  0  0  0  0  0
    7.2300   -4.5150   27.0620 C   0  0  0  0  0  0  0  0  0  0  0  0
    8.5450   -5.0350   26.4600 C   0  0  0  0  0  0  0  0  0  0  0  0
    6.2450   -5.6850   27.1400 C   0  0  0  0  0  0  0  0  0  0  0  0
    7.8780   -4.4450   28.3860 C   0  0  0  0  0  0  0  0  0  0  0  0
    8.2540   -3.1140   28.5040 O   0  0  0  0  0  0  0  0  0  0  0  0
    6.2340   -5.2340   23.8030 C   0  0  0  0  0  0  0  0  0  0  0  0
    6.6030   -5.4800   22.3420 C   0  0  0  0  0  0  0  0  0  0  0  0
  1  2  1  0
  2  3  2  0
  2  4  1  0
  4  5  1  0
  5  6  1  0
  6  7  1  0
  7  8  1  0
  8  9  2  0
  8 10  1  0
 10 11  1  0
 11 12  1  0
 11 13  1  0
 12 13  1  0
 14 10  1  0
 14 15  1  0
 14 16  1  0
 14 17  1  0
 17 18  1  0
  7 19  1  0
  4 20  1  0
 19 20  1  0
M  END
