piperidine-amides-14549-covalent
     RDKit          3D

 23 24  0  0  0  0  0  0  0  0999 V2000
    7.1020   -3.2930   19.2200 C   0  0  0  0  0  0  0  0  0  0  0  0
    6.3360   -4.0250   20.2280 C   0  0  0  0  0  0  0  0  0  0  0  0
    5.2700   -4.5620   19.8840 O   0  0  0  0  0  0  0  0  0  0  0  0
    6.8280   -4.1570   21.5460 N   0  0  0  0  0  0  0  0  0  0  0  0
    7.6760   -3.1340   22.1020 C   0  0  0  0  0  0  0  0  0  0  0  0
    7.0310   -2.5700   23.3240 C   0  0  0  0  0  0  0  0  0  0  0  0
    6.6670   -3.7620   24.1660 C   0  0  0  0  0  0  0  0  0  0  0  0
    5.8160   -3.3060   25.3080 C   0  0  0  0  0  0  0  0  0  0  0  0
    4.6440   -3.0510   25.0390 O   0  0  0  0  0  0  0  0  0  0  0  0
    6.3860   -3.2010   26.5740 N   0  0  0  0  0  0  0  0  0  0  0  0
    5.7770   -3.8320   27.6940 C   0  0  1  0  0  0  0  0  0  0  0  0
    6.6090   -4.5450   28.5660 C   0  0  0  0  0  0  0  0  0  0  0  0
    5.1750   -2.7290   28.4870 C   0  0  0  0  0  0  0  0  0  0  0  0
    3.9780   -2.0190   28.2880 N   0  0  0  0  0  0  0  0  0  0  0  0
    3.8100   -1.1190   29.2160 N   0  0  0  0  0  0  0  0  0  0  0  0
    4.8190   -1.1360   30.0800 C   0  0  0  0  0  0  0  0  0  0  0  0
    5.0310   -0.2750   31.2960 C   0  0  1  0  0  0  0  0  0  0  0  0
    4.3220   -0.9020   32.5190 C   0  0  0  0  0  0  0  0  0  0  0  0
    6.3410    0.1120   31.4760 C   0  0  0  0  0  0  0  0  0  0  0  0
    7.0140    0.2830   32.8130 C   0  0  0  0  0  0  0  0  0  0  0  0
    5.6410   -2.1280   29.6130 N   0  0  0  0  0  0  0  0  0  0  0  0
    5.9320   -4.8590   23.4980 C   0  0  0  0  0  0  0  0  0  0  0  0
    6.5510   -5.3140   22.3560 C   0  0  0  0  0  0  0  0  0  0  0  0
  1  2  1  0
  2  3  2  0
  2  4  1  0
  4  5  1  0
  5  6  1  0
  6  7  1  0
  7  8  1  0
  8  9  2  0
  8 10  1  0
 10 11  1  0
 11 12  1  1
 11 13  1  0
 13 14  2  0
 14 15  1  0
 15 16  1  0
 16 17  1  0
 17 18  1  1
 17 19  1  0
 19 20  1  0
 13 21  1  0
 16 21  2  0
  7 22  1  0
  4 23  1  0
 22 23  1  0
M  END
