piperidine-amides-14057-covalent
     RDKit          3D

 25 26  0  0  0  0  0  0  0  0999 V2000
    7.0810   -3.2940   19.2730 C   0  0  0  0  0  0  0  0  0  0  0  0
    6.2610   -4.0760   20.2440 C   0  0  0  0  0  0  0  0  0  0  0  0
    5.1930   -4.5660   19.8640 O   0  0  0  0  0  0  0  0  0  0  0  0
    6.7200   -4.2900   21.5550 N   0  0  0  0  0  0  0  0  0  0  0  0
    6.6070   -5.5790   22.2050 C   0  0  0  0  0  0  0  0  0  0  0  0
    6.1110   -5.3830   23.6480 C   0  0  0  0  0  0  0  0  0  0  0  0
    5.9570   -3.9250   23.8930 C   0  0  0  0  0  0  0  0  0  0  0  0
    5.4040   -3.5910   25.2390 C   0  0  0  0  0  0  0  0  0  0  0  0
    4.1780   -3.4520   25.2750 O   0  0  0  0  0  0  0  0  0  0  0  0
    6.1900   -3.4300   26.3990 N   0  0  0  0  0  0  0  0  0  0  0  0
    7.2150   -4.2420   26.9350 C   0  0  1  0  0  0  0  0  0  0  0  0
    7.2440   -5.6160   26.9400 C   0  0  0  0  0  0  0  0  0  0  0  0
    8.5270   -3.7770   26.3020 C   0  0  0  0  0  0  0  0  0  0  0  0
    9.6330   -4.5770   26.4390 C   0  0  0  0  0  0  0  0  0  0  0  0
   10.9140   -4.1970   25.8770 C   0  0  0  0  0  0  0  0  0  0  0  0
   10.9920   -2.9000   25.1260 C   0  0  0  0  0  0  0  0  0  0  0  0
   12.3830   -2.5630   24.5610 C   0  0  0  0  0  0  0  0  0  0  0  0
   12.6680   -2.9220   23.2960 F   0  0  0  0  0  0  0  0  0  0  0  0
   12.6330   -1.2080   24.6320 F   0  0  0  0  0  0  0  0  0  0  0  0
   13.3400   -3.1310   25.3670 F   0  0  0  0  0  0  0  0  0  0  0  0
    9.7870   -2.1420   25.0260 N   0  0  0  0  0  0  0  0  0  0  0  0
    8.5950   -2.5510   25.6040 C   0  0  0  0  0  0  0  0  0  0  0  0
    7.1610   -1.5450   25.4740 Cl  0  0  0  0  0  0  0  0  0  0  0  0
    7.1730   -3.1310   23.5880 C   0  0  0  0  0  0  0  0  0  0  0  0
    7.5730   -3.2830   22.1440 C   0  0  0  0  0  0  0  0  0  0  0  0
  1  2  1  0
  2  3  2  0
  2  4  1  0
  4  5  1  0
  5  6  1  0
  6  7  1  0
  7  8  1  0
  8  9  2  0
  8 10  1  0
 10 11  1  0
 11 12  1  6
 11 13  1  0
 13 14  2  0
 14 15  1  0
 15 16  2  0
 16 17  1  0
 17 18  1  0
 17 19  1  0
 17 20  1  0
 16 21  1  0
 13 22  1  0
 21 22  2  0
 22 23  1  0
  7 24  1  0
  4 25  1  0
 24 25  1  0
M  END
