piperidine-amides-4306-covalent
     RDKit          3D

 26 27  0  0  0  0  0  0  0  0999 V2000
    7.0870   -3.2910   19.1870 C   0  0  0  0  0  0  0  0  0  0  0  0
    6.3470   -4.0500   20.2140 C   0  0  0  0  0  0  0  0  0  0  0  0
    5.2520   -4.5480   19.8740 O   0  0  0  0  0  0  0  0  0  0  0  0
    6.8810   -4.2590   21.5060 N   0  0  0  0  0  0  0  0  0  0  0  0
    7.6060   -3.2110   22.1120 C   0  0  0  0  0  0  0  0  0  0  0  0
    7.2610   -3.1060   23.5010 C   0  0  0  0  0  0  0  0  0  0  0  0
    5.9180   -3.5930   23.8060 C   0  0  0  0  0  0  0  0  0  0  0  0
    5.6890   -3.5310   25.2780 C   0  0  0  0  0  0  0  0  0  0  0  0
    4.6380   -3.0160   25.7050 O   0  0  0  0  0  0  0  0  0  0  0  0
    6.6320   -4.0430   26.1890 N   0  0  0  0  0  0  0  0  0  0  0  0
    6.3800   -4.5280   27.4870 C   0  0  1  0  0  0  0  0  0  0  0  0
    7.3610   -5.3230   28.2380 C   0  0  0  0  0  0  0  0  0  0  0  0
    6.0230   -3.3430   28.3510 C   0  0  0  0  0  0  0  0  0  0  0  0
    6.5740   -2.0890   28.0830 C   0  0  0  0  0  0  0  0  0  0  0  0
    6.1740   -0.8820   29.0010 C   0  0  0  0  0  0  0  0  0  0  0  0
    5.2010   -1.1610   30.1250 C   0  0  0  0  0  0  0  0  0  0  0  0
    4.8820   -0.0450   30.9050 O   0  0  0  0  0  0  0  0  0  0  0  0
    4.6900   -0.1610   32.2540 C   0  0  0  0  0  0  0  0  0  0  0  0
    3.8450    0.7630   33.0990 C   0  0  0  0  0  0  0  0  0  0  0  0
    2.9130    0.3260   33.9860 O   0  0  0  0  0  0  0  0  0  0  0  0
    3.9850    2.1720   33.0110 O   0  0  0  0  0  0  0  0  0  0  0  0
    4.5350    2.7920   34.0970 C   0  0  0  0  0  0  0  0  0  0  0  0
    4.7040   -2.5870   30.2600 C   0  0  0  0  0  0  0  0  0  0  0  0
    5.1550   -3.6190   29.3460 C   0  0  0  0  0  0  0  0  0  0  0  0
    5.6020   -4.9560   23.2500 C   0  0  0  0  0  0  0  0  0  0  0  0
    6.5140   -5.4030   22.2940 C   0  0  0  0  0  0  0  0  0  0  0  0
  1  2  1  0
  2  3  2  0
  2  4  1  0
  4  5  1  0
  5  6  1  0
  6  7  1  0
  7  8  1  0
  8  9  2  0
  8 10  1  0
 10 11  1  0
 11 12  1  1
 11 13  1  0
 13 14  2  0
 14 15  1  0
 15 16  2  0
 16 17  1  0
 17 18  1  0
 18 19  1  0
 19 20  2  0
 19 21  1  0
 21 22  1  0
 16 23  1  0
 13 24  1  0
 23 24  2  0
  7 25  1  0
  4 26  1  0
 25 26  1  0
M  END
