piperidine-amides-16126-covalent
     RDKit          3D

 19 20  0  0  0  0  0  0  0  0999 V2000
    7.1220   -3.3590   19.3300 C   0  0  0  0  0  0  0  0  0  0  0  0
    6.4150   -4.2100   20.3120 C   0  0  0  0  0  0  0  0  0  0  0  0
    5.3610   -4.7350   19.9540 O   0  0  0  0  0  0  0  0  0  0  0  0
    6.9970   -4.4240   21.5630 N   0  0  0  0  0  0  0  0  0  0  0  0
    6.6650   -5.5590   22.3760 C   0  0  0  0  0  0  0  0  0  0  0  0
    5.8180   -5.1020   23.5310 C   0  0  0  0  0  0  0  0  0  0  0  0
    6.4500   -3.9000   24.2460 C   0  0  0  0  0  0  0  0  0  0  0  0
    5.4370   -3.4450   25.2110 C   0  0  0  0  0  0  0  0  0  0  0  0
    4.5680   -2.6390   24.8690 O   0  0  0  0  0  0  0  0  0  0  0  0
    5.4590   -3.9260   26.5150 N   0  0  0  0  0  0  0  0  0  0  0  0
    6.7550   -4.2030   26.9900 C   0  0  0  0  0  0  0  0  0  0  0  0
    6.8020   -5.5410   27.6740 C   0  0  1  0  0  0  0  0  0  0  0  0
    7.9320   -6.0560   28.1970 C   0  0  0  0  0  0  0  0  0  0  0  0
    5.9140   -5.4550   28.7170 O   0  0  0  0  0  0  0  0  0  0  0  0
    5.0500   -4.3900   28.8220 C   0  0  2  0  0  0  0  0  0  0  0  0
    3.9920   -4.4440   27.9560 C   0  0  0  0  0  0  0  0  0  0  0  0
    5.0580   -3.3870   27.7970 C   0  0  0  0  0  0  0  0  0  0  0  0
    6.8570   -2.8060   23.3150 C   0  0  0  0  0  0  0  0  0  0  0  0
    7.6920   -3.3320   22.2030 C   0  0  0  0  0  0  0  0  0  0  0  0
  1  2  1  0
  2  3  2  0
  2  4  1  0
  4  5  1  0
  5  6  1  0
  6  7  1  0
  7  8  1  0
  8  9  2  0
  8 10  1  0
 10 11  1  0
 11 12  1  0
 12 13  1  1
 12 14  1  0
 14 15  1  0
 15 16  1  6
 10 17  1  0
 15 17  1  0
  7 18  1  0
  4 19  1  0
 18 19  1  0
M  END
