piperidine-amides-17115-covalent
     RDKit          3D

 20 21  0  0  0  0  0  0  0  0999 V2000
    7.0730   -3.3400   19.2770 C   0  0  0  0  0  0  0  0  0  0  0  0
    6.4010   -4.1490   20.3010 C   0  0  0  0  0  0  0  0  0  0  0  0
    5.3630   -4.7580   19.9610 O   0  0  0  0  0  0  0  0  0  0  0  0
    6.9520   -4.2720   21.5940 N   0  0  0  0  0  0  0  0  0  0  0  0
    6.6340   -5.4290   22.3690 C   0  0  0  0  0  0  0  0  0  0  0  0
    6.1670   -5.1070   23.7120 C   0  0  0  0  0  0  0  0  0  0  0  0
    6.3010   -3.6720   24.0140 C   0  0  0  0  0  0  0  0  0  0  0  0
    5.7910   -3.2910   25.3670 C   0  0  0  0  0  0  0  0  0  0  0  0
    4.7350   -2.6310   25.4030 O   0  0  0  0  0  0  0  0  0  0  0  0
    6.3710   -3.6240   26.6120 N   0  0  0  0  0  0  0  0  0  0  0  0
    5.6070   -3.7310   27.7780 C   0  0  0  0  0  0  0  0  0  0  0  0
    5.8600   -4.9210   28.5300 C   0  0  1  0  0  0  0  0  0  0  0  0
    5.2880   -5.9690   28.0900 O   0  0  0  0  0  0  0  0  0  0  0  0
    5.1410   -6.9640   29.0260 C   0  0  0  0  0  0  0  0  0  0  0  0
    7.2630   -5.2860   28.5840 C   0  0  0  0  0  0  0  0  0  0  0  0
    7.8790   -5.5030   27.2100 C   0  0  0  0  0  0  0  0  0  0  0  0
    7.7380   -4.0360   26.9080 C   0  0  1  0  0  0  0  0  0  0  0  0
    8.5810   -4.3600   25.6680 C   0  0  0  0  0  0  0  0  0  0  0  0
    7.6400   -3.1050   23.6480 C   0  0  0  0  0  0  0  0  0  0  0  0
    7.7490   -3.1790   22.1420 C   0  0  0  0  0  0  0  0  0  0  0  0
  1  2  1  0
  2  3  2  0
  2  4  1  0
  4  5  1  0
  5  6  1  0
  6  7  1  0
  7  8  1  0
  8  9  2  0
  8 10  1  0
 10 11  1  0
 11 12  1  0
 12 13  1  6
 13 14  1  0
 12 15  1  0
 15 16  1  0
 10 17  1  0
 16 17  1  0
 17 18  1  6
  7 19  1  0
  4 20  1  0
 19 20  1  0
M  END
