piperidine-amides-13344-covalent
     RDKit          3D

 18 19  0  0  0  0  0  0  0  0999 V2000
    7.0850   -3.3750   19.3360 C   0  0  0  0  0  0  0  0  0  0  0  0
    6.3760   -4.1680   20.3590 C   0  0  0  0  0  0  0  0  0  0  0  0
    5.3460   -4.7490   19.9650 O   0  0  0  0  0  0  0  0  0  0  0  0
    6.8800   -4.3000   21.6720 N   0  0  0  0  0  0  0  0  0  0  0  0
    7.6500   -3.2420   22.2510 C   0  0  0  0  0  0  0  0  0  0  0  0
    7.2530   -2.9710   23.6240 C   0  0  0  0  0  0  0  0  0  0  0  0
    6.0310   -3.7120   23.9930 C   0  0  0  0  0  0  0  0  0  0  0  0
    5.5850   -3.4190   25.3880 C   0  0  0  0  0  0  0  0  0  0  0  0
    4.3650   -3.5140   25.6380 O   0  0  0  0  0  0  0  0  0  0  0  0
    6.4560   -3.0030   26.4100 N   0  0  0  0  0  0  0  0  0  0  0  0
    6.8330   -1.5830   26.5870 C   0  0  2  0  0  0  0  0  0  0  0  0
    7.0800   -1.3060   27.8730 C   0  0  1  0  0  0  0  0  0  0  0  0
    6.5160   -0.0930   28.4640 C   0  0  0  0  0  0  0  0  0  0  0  0
    5.7890   -0.7350   27.3130 C   0  0  0  0  0  0  0  0  0  0  0  0
    4.6900   -1.4850   27.5760 F   0  0  0  0  0  0  0  0  0  0  0  0
    5.6440    0.4310   26.6070 F   0  0  0  0  0  0  0  0  0  0  0  0
    6.1190   -5.1820   23.6990 C   0  0  0  0  0  0  0  0  0  0  0  0
    6.5210   -5.4720   22.4200 C   0  0  0  0  0  0  0  0  0  0  0  0
  1  2  1  0
  2  3  2  0
  2  4  1  0
  4  5  1  0
  5  6  1  0
  6  7  1  0
  7  8  1  0
  8  9  2  0
  8 10  1  0
 11 10  1  1
 11 12  1  0
 12 13  1  6
 11 14  1  0
 12 14  1  0
 14 15  1  0
 14 16  1  0
  7 17  1  0
  4 18  1  0
 17 18  1  0
M  END
