piperidine-amides-13290-covalent
     RDKit          3D

 25 27  0  0  0  0  0  0  0  0999 V2000
    7.0510   -3.3270   19.3020 C   0  0  0  0  0  0  0  0  0  0  0  0
    6.3750   -4.1550   20.3270 C   0  0  0  0  0  0  0  0  0  0  0  0
    5.3670   -4.7960   19.9640 O   0  0  0  0  0  0  0  0  0  0  0  0
    6.8860   -4.2370   21.6310 N   0  0  0  0  0  0  0  0  0  0  0  0
    6.6080   -5.3720   22.4480 C   0  0  0  0  0  0  0  0  0  0  0  0
    6.0460   -5.0070   23.7500 C   0  0  0  0  0  0  0  0  0  0  0  0
    6.1040   -3.5540   24.0200 C   0  0  0  0  0  0  0  0  0  0  0  0
    5.7270   -3.2280   25.4200 C   0  0  0  0  0  0  0  0  0  0  0  0
    4.5100   -3.1720   25.6840 O   0  0  0  0  0  0  0  0  0  0  0  0
    6.6940   -2.9930   26.4200 N   0  0  0  0  0  0  0  0  0  0  0  0
    6.8560   -1.7010   27.1600 C   0  0  1  0  0  0  0  0  0  0  0  0
    6.0340   -0.5340   26.6930 C   0  0  0  0  0  0  0  0  0  0  0  0
    5.3880   -0.1320   27.9190 C   0  0  1  0  0  0  0  0  0  0  0  0
    5.2050   -1.3630   28.4420 C   0  0  0  0  0  0  0  0  0  0  0  0
    6.5000   -1.7930   28.5960 C   0  0  2  0  0  0  0  0  0  0  0  0
    7.0050   -0.7490   29.3080 C   0  0  0  0  0  0  0  0  0  0  0  0
    6.2930    0.3560   28.8520 C   0  0  1  0  0  0  0  0  0  0  0  0
    7.0810    1.0670   28.2180 O   0  0  0  0  0  0  0  0  0  0  0  0
    6.5270    2.2190   27.7410 C   0  0  0  0  0  0  0  0  0  0  0  0
    5.5510    0.9910   29.8600 C   0  0  0  0  0  0  0  0  0  0  0  0
    6.3310    1.8770   30.5320 F   0  0  0  0  0  0  0  0  0  0  0  0
    4.9720    0.1330   30.7080 F   0  0  0  0  0  0  0  0  0  0  0  0
    4.5810    1.7670   29.2440 F   0  0  0  0  0  0  0  0  0  0  0  0
    7.3750   -2.8970   23.6360 C   0  0  0  0  0  0  0  0  0  0  0  0
    7.7310   -3.1810   22.1960 C   0  0  0  0  0  0  0  0  0  0  0  0
  1  2  1  0
  2  3  2  0
  2  4  1  0
  4  5  1  0
  5  6  1  0
  6  7  1  0
  7  8  1  0
  8  9  2  0
  8 10  1  0
 11 10  1  6
 11 12  1  0
 13 12  1  6
 13 14  1  0
 11 15  1  0
 14 15  1  0
 15 16  1  1
 13 17  1  0
 16 17  1  0
 17 18  1  6
 18 19  1  0
 17 20  1  0
 20 21  1  0
 20 22  1  0
 20 23  1  0
  7 24  1  0
  4 25  1  0
 24 25  1  0
M  END
