piperidine-amides-31914-covalent
     RDKit          3D

 28 30  0  0  0  0  0  0  0  0999 V2000
    7.0510   -3.4220   19.3330 C   0  0  0  0  0  0  0  0  0  0  0  0
    6.4180   -4.2420   20.3350 C   0  0  0  0  0  0  0  0  0  0  0  0
    5.3650   -4.8610   19.9910 O   0  0  0  0  0  0  0  0  0  0  0  0
    6.9510   -4.4320   21.6290 N   0  0  0  0  0  0  0  0  0  0  0  0
    6.6420   -5.6890   22.3210 C   0  0  0  0  0  0  0  0  0  0  0  0
    5.5750   -5.1270   23.3240 C   0  0  0  0  0  0  0  0  0  0  0  0
    6.2620   -4.0750   24.1790 C   0  0  0  0  0  0  0  0  0  0  0  0
    5.1860   -3.4760   25.1920 C   0  0  0  0  0  0  0  0  0  0  0  0
    4.5810   -2.5720   24.6430 O   0  0  0  0  0  0  0  0  0  0  0  0
    5.1860   -4.0510   26.3290 N   0  0  0  0  0  0  0  0  0  0  0  0
    4.6990   -4.5140   27.5220 C   0  0  0  0  0  0  0  0  0  0  0  0
    5.0900   -4.5380   28.8350 C   0  0  0  0  0  0  0  0  0  0  0  0
    6.4150   -4.9810   28.8730 C   0  0  0  0  0  0  0  0  0  0  0  0
    6.7940   -5.5030   27.5510 C   0  0  0  0  0  0  0  0  0  0  0  0
    6.5060   -4.1460   26.8200 C   0  0  2  0  0  0  0  0  0  0  0  0
    6.5090   -3.3870   27.9450 C   0  0  0  0  0  0  0  0  0  0  0  0
    7.7180   -2.8700   28.0440 C   0  0  0  0  0  0  0  0  0  0  0  0
    8.6520   -3.7750   27.9710 N   0  0  0  0  0  0  0  0  0  0  0  0
    9.6090   -3.7640   28.8700 C   0  0  0  0  0  0  0  0  0  0  0  0
   10.6360   -4.8310   28.6140 C   0  0  0  0  0  0  0  0  0  0  0  0
   12.0430   -4.8950   29.6340 C   0  0  0  0  0  0  0  0  0  0  0  0
   13.4450   -4.6300   29.1680 O   0  0  0  0  0  0  0  0  0  0  0  0
   11.6440   -5.8000   32.0980 O   0  0  0  0  0  0  0  0  0  0  0  0
   11.8920   -6.1860   34.1920 C   0  0  0  0  0  0  0  0  0  0  0  0
   10.1270   -5.4420   27.5520 N   0  0  0  0  0  0  0  0  0  0  0  0
    8.9550   -4.8080   27.1680 N   0  0  0  0  0  0  0  0  0  0  0  0
    7.0210   -2.9590   23.4390 C   0  0  0  0  0  0  0  0  0  0  0  0
    7.6930   -3.4260   22.3390 C   0  0  0  0  0  0  0  0  0  0  0  0
  1  2  1  0
  2  3  2  0
  2  4  1  0
  4  5  1  0
  5  6  1  0
  6  7  1  0
  7  8  1  0
  8  9  2  0
  8 10  1  0
 10 11  1  0
 11 12  1  0
 12 13  1  0
 13 14  1  0
 10 15  1  0
 14 15  1  0
 15 16  1  1
 16 17  1  0
 17 18  1  0
 18 19  1  0
 19 20  2  0
 20 21  1  0
 21 22  2  0
 21 23  1  0
 23 24  1  0
 20 25  1  0
 18 26  1  0
 25 26  2  0
  7 27  1  0
  4 28  1  0
 27 28  1  0
M  END
