piperidine-amides-33401-covalent
     RDKit          3D

 28 28  0  0  0  0  0  0  0  0999 V2000
    7.1500   -3.2630   19.2010 C   0  0  0  0  0  0  0  0  0  0  0  0
    6.4000   -4.0140   20.2180 C   0  0  0  0  0  0  0  0  0  0  0  0
    5.3010   -4.5120   19.8750 O   0  0  0  0  0  0  0  0  0  0  0  0
    6.9300   -4.2170   21.5120 N   0  0  0  0  0  0  0  0  0  0  0  0
    7.6950   -3.1930   22.1180 C   0  0  0  0  0  0  0  0  0  0  0  0
    7.2910   -3.0360   23.4870 C   0  0  0  0  0  0  0  0  0  0  0  0
    5.9260   -3.5020   23.6990 C   0  0  0  0  0  0  0  0  0  0  0  0
    5.4290   -3.1200   25.0650 C   0  0  0  0  0  0  0  0  0  0  0  0
    4.2560   -2.7230   25.1840 O   0  0  0  0  0  0  0  0  0  0  0  0
    6.2450   -3.2010   26.2020 N   0  0  0  0  0  0  0  0  0  0  0  0
    6.6900   -4.4340   26.7420 C   0  0  0  0  0  0  0  0  0  0  0  0
    5.7680   -5.5670   26.8830 C   0  0  0  0  0  0  0  0  0  0  0  0
    4.5930   -5.7290   26.2170 N   0  0  0  0  0  0  0  0  0  0  0  0
    4.3370   -6.4570   25.0010 C   0  0  0  0  0  0  0  0  0  0  0  0
    4.1340   -6.5570   27.2940 C   0  0  0  0  0  0  0  0  0  0  0  0
    2.7890   -6.6690   27.5930 O   0  0  0  0  0  0  0  0  0  0  0  0
    4.8880   -7.2270   28.0110 O   0  0  0  0  0  0  0  0  0  0  0  0
    5.4370   -6.6690   29.1890 C   0  0  0  0  0  0  0  0  0  0  0  0
    6.7450   -6.0220   28.8600 C   0  0  0  0  0  0  0  0  0  0  0  0
    5.7330   -7.6110   30.3680 C   0  0  0  0  0  0  0  0  0  0  0  0
    4.4440   -5.6520   29.6500 C   0  0  0  0  0  0  0  0  0  0  0  0
    6.6590   -2.0080   26.8820 C   0  0  0  0  0  0  0  0  0  0  0  0
    5.6120   -0.9210   27.1890 C   0  0  0  0  0  0  0  0  0  0  0  0
    4.4020   -1.5370   27.4330 F   0  0  0  0  0  0  0  0  0  0  0  0
    5.4470    0.0690   26.2980 F   0  0  0  0  0  0  0  0  0  0  0  0
    5.9650   -0.2240   28.3610 F   0  0  0  0  0  0  0  0  0  0  0  0
    5.7890   -4.9700   23.3970 C   0  0  0  0  0  0  0  0  0  0  0  0
    6.5990   -5.3700   22.3170 C   0  0  0  0  0  0  0  0  0  0  0  0
  1  2  1  0
  2  3  2  0
  2  4  1  0
  4  5  1  0
  5  6  1  0
  6  7  1  0
  7  8  1  0
  8  9  2  0
  8 10  1  0
 10 11  1  0
 11 12  1  0
 12 13  1  0
 13 14  1  0
 13 15  1  0
 15 16  2  0
 15 17  1  0
 18 17  1  0
 18 19  1  0
 18 20  1  0
 18 21  1  0
 10 22  1  0
 22 23  1  0
 23 24  1  0
 23 25  1  0
 23 26  1  0
  7 27  1  0
  4 28  1  0
 27 28  1  0
M  END
