piperidine-amides-3486-covalent
     RDKit          3D

 20 21  0  0  0  0  0  0  0  0999 V2000
    7.0560   -3.3720   19.3700 C   0  0  0  0  0  0  0  0  0  0  0  0
    6.3330   -4.2110   20.3130 C   0  0  0  0  0  0  0  0  0  0  0  0
    5.3210   -4.8070   19.9640 O   0  0  0  0  0  0  0  0  0  0  0  0
    6.8450   -4.3790   21.6430 N   0  0  0  0  0  0  0  0  0  0  0  0
    7.5620   -3.2810   22.2460 C   0  0  0  0  0  0  0  0  0  0  0  0
    7.2890   -3.1600   23.7280 C   0  0  0  0  0  0  0  0  0  0  0  0
    5.9580   -3.7970   24.0530 C   0  0  0  0  0  0  0  0  0  0  0  0
    5.4930   -3.4740   25.4460 C   0  0  0  0  0  0  0  0  0  0  0  0
    4.2790   -3.3650   25.7090 O   0  0  0  0  0  0  0  0  0  0  0  0
    6.4210   -3.2760   26.5070 N   0  0  0  0  0  0  0  0  0  0  0  0
    6.9170   -1.9390   26.7860 C   0  0  0  0  0  0  0  0  0  0  0  0
    8.2680   -2.1110   26.1310 C   0  0  0  0  0  0  0  0  0  0  0  0
    8.4520   -1.8430   24.7890 C   0  0  0  0  0  0  0  0  0  0  0  0
    7.2510   -1.8930   28.2510 C   0  0  0  0  0  0  0  0  0  0  0  0
    6.9450   -0.8440   29.0920 C   0  0  0  0  0  0  0  0  0  0  0  0
    6.2880    0.2880   28.5120 C   0  0  0  0  0  0  0  0  0  0  0  0
    5.9390    0.3040   27.2020 C   0  0  0  0  0  0  0  0  0  0  0  0
    6.2190   -0.7820   26.3690 C   0  0  0  0  0  0  0  0  0  0  0  0
    5.8710   -5.2290   23.7000 C   0  0  0  0  0  0  0  0  0  0  0  0
    6.4510   -5.5210   22.3890 C   0  0  0  0  0  0  0  0  0  0  0  0
  1  2  1  0
  2  3  2  0
  2  4  1  0
  4  5  1  0
  5  6  1  0
  6  7  1  0
  7  8  1  0
  8  9  2  0
  8 10  1  0
 11 10  1  0
 11 12  1  0
 12 13  1  0
 11 14  1  0
 14 15  1  0
 15 16  1  0
 16 17  1  0
 11 18  1  0
 17 18  1  0
  7 19  1  0
  4 20  1  0
 19 20  1  0
M  END
