piperidine-amides-13082-covalent
     RDKit          3D

 20 21  0  0  0  0  0  0  0  0999 V2000
    7.0580   -3.3340   19.3520 C   0  0  0  0  0  0  0  0  0  0  0  0
    6.4140   -4.1910   20.3760 C   0  0  0  0  0  0  0  0  0  0  0  0
    5.4190   -4.8430   19.9920 O   0  0  0  0  0  0  0  0  0  0  0  0
    6.9270   -4.2930   21.6910 N   0  0  0  0  0  0  0  0  0  0  0  0
    7.6840   -3.2300   22.2870 C   0  0  0  0  0  0  0  0  0  0  0  0
    7.3030   -2.9490   23.6730 C   0  0  0  0  0  0  0  0  0  0  0  0
    6.0770   -3.6690   24.0680 C   0  0  0  0  0  0  0  0  0  0  0  0
    5.5810   -3.3060   25.4330 C   0  0  0  0  0  0  0  0  0  0  0  0
    4.3520   -3.4050   25.6130 O   0  0  0  0  0  0  0  0  0  0  0  0
    6.3940   -2.8780   26.5060 N   0  0  0  0  0  0  0  0  0  0  0  0
    6.6780   -1.4510   26.8670 C   0  0  2  0  0  0  0  0  0  0  0  0
    7.1240   -1.3820   28.2900 C   0  0  0  0  0  0  0  0  0  0  0  0
    6.5260   -0.4040   29.1570 C   0  0  0  0  0  0  0  0  0  0  0  0
    5.9500    0.6850   28.5650 C   0  0  0  0  0  0  0  0  0  0  0  0
    5.7400    0.7170   27.1910 C   0  0  0  0  0  0  0  0  0  0  0  0
    5.6960   -0.4460   26.4500 C   0  0  2  0  0  0  0  0  0  0  0  0
    4.4450   -0.8470   26.0650 C   0  0  0  0  0  0  0  0  0  0  0  0
    3.6730    0.0860   25.7530 O   0  0  0  0  0  0  0  0  0  0  0  0
    6.1050   -5.1290   23.7790 C   0  0  0  0  0  0  0  0  0  0  0  0
    6.6170   -5.4460   22.5070 C   0  0  0  0  0  0  0  0  0  0  0  0
  1  2  1  0
  2  3  2  0
  2  4  1  0
  4  5  1  0
  5  6  1  0
  6  7  1  0
  7  8  1  0
  8  9  2  0
  8 10  1  0
 11 10  1  1
 11 12  1  0
 12 13  1  0
 13 14  1  0
 14 15  1  0
 11 16  1  0
 15 16  1  0
 16 17  1  1
 17 18  1  0
  7 19  1  0
  4 20  1  0
 19 20  1  0
M  END
