piperidine-amides-35499-covalent
     RDKit          3D

 26 27  0  0  0  0  0  0  0  0999 V2000
    7.0910   -3.2520   19.1630 C   0  0  0  0  0  0  0  0  0  0  0  0
    6.3100   -3.9860   20.1910 C   0  0  0  0  0  0  0  0  0  0  0  0
    5.2360   -4.4670   19.8410 O   0  0  0  0  0  0  0  0  0  0  0  0
    6.8060   -4.1670   21.4790 N   0  0  0  0  0  0  0  0  0  0  0  0
    7.5980   -3.1670   22.1610 C   0  0  0  0  0  0  0  0  0  0  0  0
    6.8860   -2.7170   23.4050 C   0  0  0  0  0  0  0  0  0  0  0  0
    6.4450   -3.9540   24.1740 C   0  0  0  0  0  0  0  0  0  0  0  0
    5.7040   -3.5250   25.3880 C   0  0  0  0  0  0  0  0  0  0  0  0
    4.4610   -3.4970   25.3950 O   0  0  0  0  0  0  0  0  0  0  0  0
    6.3900   -3.1330   26.5520 N   0  0  0  0  0  0  0  0  0  0  0  0
    6.6710   -1.7210   26.7230 C   0  0  0  0  0  0  0  0  0  0  0  0
    5.6400   -0.9080   25.9630 C   0  0  0  0  0  0  0  0  0  0  0  0
    4.3510   -0.9770   26.4170 C   0  0  0  0  0  0  0  0  0  0  0  0
    3.3560   -0.3320   25.8690 C   0  0  0  0  0  0  0  0  0  0  0  0
    3.6340    0.4200   24.8260 C   0  0  0  0  0  0  0  0  0  0  0  0
    2.1870    1.3790   24.0080 Br  0  0  0  0  0  0  0  0  0  0  0  0
    4.9770    0.6260   24.1800 C   0  0  0  0  0  0  0  0  0  0  0  0
    5.1900    1.7720   22.6490 Br  0  0  0  0  0  0  0  0  0  0  0  0
    6.1880   -0.1150   24.7880 C   0  0  0  0  0  0  0  0  0  0  0  0
    6.2060   -3.8730   27.7920 C   0  0  0  0  0  0  0  0  0  0  0  0
    6.0120   -5.3640   27.7690 C   0  0  1  0  0  0  0  0  0  0  0  0
    5.4630   -5.7130   29.0090 O   0  0  0  0  0  0  0  0  0  0  0  0
    5.0830   -5.7890   26.6830 C   0  0  0  0  0  0  0  0  0  0  0  0
    4.4020   -6.8180   26.8760 O   0  0  0  0  0  0  0  0  0  0  0  0
    5.7470   -4.9870   23.3790 C   0  0  0  0  0  0  0  0  0  0  0  0
    6.5150   -5.3930   22.1790 C   0  0  0  0  0  0  0  0  0  0  0  0
  1  2  1  0
  2  3  2  0
  2  4  1  0
  4  5  1  0
  5  6  1  0
  6  7  1  0
  7  8  1  0
  8  9  2  0
  8 10  1  0
 10 11  1  0
 11 12  1  0
 12 13  2  0
 13 14  1  0
 14 15  2  0
 15 16  1  0
 15 17  1  0
 17 18  1  0
 12 19  1  0
 17 19  2  0
 10 20  1  0
 20 21  1  0
 21 22  1  1
 21 23  1  0
 23 24  1  0
  7 25  1  0
  4 26  1  0
 25 26  1  0
M  END
