piperidine-amides-2829-covalent
     RDKit          3D

 24 25  0  0  0  0  0  0  0  0999 V2000
    6.9360   -3.3440   19.4720 C   0  0  0  0  0  0  0  0  0  0  0  0
    6.2620   -4.2290   20.4300 C   0  0  0  0  0  0  0  0  0  0  0  0
    5.3570   -4.9410   19.9990 O   0  0  0  0  0  0  0  0  0  0  0  0
    6.6140   -4.3500   21.8440 N   0  0  0  0  0  0  0  0  0  0  0  0
    7.4350   -3.3490   22.5030 C   0  0  0  0  0  0  0  0  0  0  0  0
    7.3000   -3.3640   24.0210 C   0  0  0  0  0  0  0  0  0  0  0  0
    6.2770   -4.4140   24.4480 C   0  0  0  0  0  0  0  0  0  0  0  0
    6.0760   -4.4890   25.9840 C   0  0  0  0  0  0  0  0  0  0  0  0
    5.2990   -3.6520   26.5020 O   0  0  0  0  0  0  0  0  0  0  0  0
    6.7430   -5.4790   26.8960 N   0  0  0  0  0  0  0  0  0  0  0  0
    5.9990   -6.3150   27.9590 C   0  0  0  0  0  0  0  0  0  0  0  0
    6.9080   -7.1050   29.0250 C   0  0  0  0  0  0  0  0  0  0  0  0
    6.6970   -8.4630   29.8070 C   0  0  2  0  0  0  0  0  0  0  0  0
    5.8930   -8.3070   30.7570 O   0  0  0  0  0  0  0  0  0  0  0  0
    7.8250   -9.8070   29.9780 C   0  0  0  0  0  0  0  0  0  0  0  0
    7.6900  -10.8430   29.6170 C   0  0  0  0  0  0  0  0  0  0  0  0
    8.5580  -11.8670   29.6540 C   0  0  0  0  0  0  0  0  0  0  0  0
    9.6870  -12.1680   30.0480 C   0  0  0  0  0  0  0  0  0  0  0  0
   10.4820  -13.6720   29.8760 Cl  0  0  0  0  0  0  0  0  0  0  0  0
   10.0620  -11.2470   30.5360 C   0  0  0  0  0  0  0  0  0  0  0  0
   11.6430  -11.3130   31.2760 Cl  0  0  0  0  0  0  0  0  0  0  0  0
    9.0870  -10.2350   30.3980 C   0  0  0  0  0  0  0  0  0  0  0  0
    6.4790   -5.6980   23.8210 C   0  0  0  0  0  0  0  0  0  0  0  0
    6.5540   -5.6770   22.4210 C   0  0  0  0  0  0  0  0  0  0  0  0
  1  2  1  0
  2  3  2  0
  2  4  1  0
  4  5  1  0
  5  6  1  0
  6  7  1  0
  7  8  1  0
  8  9  2  0
  8 10  1  0
 10 11  1  0
 11 12  1  0
 12 13  1  0
 13 14  1  1
 13 15  1  0
 15 16  2  0
 16 17  1  0
 17 18  2  0
 18 19  1  0
 18 20  1  0
 20 21  1  0
 15 22  1  0
 20 22  2  0
  7 23  1  0
  4 24  1  0
 23 24  1  0
M  END
