piperidine-amides-3464-covalent
     RDKit          3D

 20 20  0  0  0  0  0  0  0  0999 V2000
    7.0950   -3.2820   19.2640 C   0  0  0  0  0  0  0  0  0  0  0  0
    6.3340   -4.0450   20.2520 C   0  0  0  0  0  0  0  0  0  0  0  0
    5.3090   -4.6370   19.9170 O   0  0  0  0  0  0  0  0  0  0  0  0
    6.8030   -4.1460   21.6110 N   0  0  0  0  0  0  0  0  0  0  0  0
    7.6450   -3.1020   22.1410 C   0  0  0  0  0  0  0  0  0  0  0  0
    7.3810   -2.9340   23.6050 C   0  0  0  0  0  0  0  0  0  0  0  0
    6.0370   -3.5820   23.8770 C   0  0  0  0  0  0  0  0  0  0  0  0
    5.5760   -3.2760   25.2550 C   0  0  0  0  0  0  0  0  0  0  0  0
    4.3860   -3.0370   25.5310 O   0  0  0  0  0  0  0  0  0  0  0  0
    6.5450   -3.2540   26.2780 N   0  0  0  0  0  0  0  0  0  0  0  0
    6.1580   -3.4170   27.6590 C   0  0  0  0  0  0  0  0  0  0  0  0
    5.9720   -4.8780   28.0440 C   0  0  0  0  0  0  0  0  0  0  0  0
    6.7940   -5.5340   28.9320 C   0  0  0  0  0  0  0  0  0  0  0  0
    5.8340   -5.7840   26.7980 C   0  0  0  0  0  0  0  0  0  0  0  0
    4.5470   -4.8520   28.7200 C   0  0  0  0  0  0  0  0  0  0  0  0
    4.6360   -5.9940   29.6280 C   0  0  0  0  0  0  0  0  0  0  0  0
    4.3210   -7.3110   29.4050 C   0  0  0  0  0  0  0  0  0  0  0  0
    3.7790   -8.0590   30.3320 O   0  0  0  0  0  0  0  0  0  0  0  0
    6.2120   -5.0820   23.6790 C   0  0  0  0  0  0  0  0  0  0  0  0
    6.4640   -5.3660   22.3300 C   0  0  0  0  0  0  0  0  0  0  0  0
  1  2  1  0
  2  3  2  0
  2  4  1  0
  4  5  1  0
  5  6  1  0
  6  7  1  0
  7  8  1  0
  8  9  2  0
  8 10  1  0
 10 11  1  0
 12 11  1  0
 12 13  1  0
 12 14  1  0
 12 15  1  0
 15 16  1  0
 16 17  1  0
 17 18  1  0
  7 19  1  0
  4 20  1  0
 19 20  1  0
M  END
