piperidine-amides-24745-covalent
     RDKit          3D

 24 25  0  0  0  0  0  0  0  0999 V2000
    7.0440   -3.2980   19.3420 C   0  0  0  0  0  0  0  0  0  0  0  0
    6.3390   -4.1310   20.3310 C   0  0  0  0  0  0  0  0  0  0  0  0
    5.3730   -4.8410   19.9760 O   0  0  0  0  0  0  0  0  0  0  0  0
    6.7550   -4.1680   21.6730 N   0  0  0  0  0  0  0  0  0  0  0  0
    6.6030   -5.4070   22.4150 C   0  0  0  0  0  0  0  0  0  0  0  0
    6.0960   -5.0830   23.8370 C   0  0  0  0  0  0  0  0  0  0  0  0
    6.0070   -3.5770   23.9490 C   0  0  0  0  0  0  0  0  0  0  0  0
    5.5570   -3.0750   25.2750 C   0  0  0  0  0  0  0  0  0  0  0  0
    5.0730   -1.9280   25.3030 O   0  0  0  0  0  0  0  0  0  0  0  0
    5.6240   -3.8350   26.4740 N   0  0  0  0  0  0  0  0  0  0  0  0
    4.3740   -4.1190   27.1150 C   0  0  0  0  0  0  0  0  0  0  0  0
    4.5420   -4.3820   28.6120 C   0  0  0  0  0  0  0  0  0  0  0  0
    5.7120   -4.8600   29.0940 C   0  0  0  0  0  0  0  0  0  0  0  0
    5.7610   -6.2060   29.3590 C   0  0  0  0  0  0  0  0  0  0  0  0
    5.1990   -6.4730   30.6450 N   0  0  0  0  0  0  0  0  0  0  0  0
    5.6330   -7.4970   31.4550 C   0  0  0  0  0  0  0  0  0  0  0  0
    3.9770   -5.8050   30.9540 C   0  0  0  0  0  0  0  0  0  0  0  0
    3.4410   -5.9710   32.3690 C   0  0  0  0  0  0  0  0  0  0  0  0
    2.7830   -4.8480   31.5970 C   0  0  0  0  0  0  0  0  0  0  0  0
    3.0850   -3.4710   32.0920 C   0  0  0  0  0  0  0  0  0  0  0  0
    6.8090   -4.6050   28.3360 C   0  0  0  0  0  0  0  0  0  0  0  0
    6.3810   -3.4700   27.6330 C   0  0  0  0  0  0  0  0  0  0  0  0
    7.3860   -3.0040   23.6690 C   0  0  0  0  0  0  0  0  0  0  0  0
    7.6390   -3.1390   22.1960 C   0  0  0  0  0  0  0  0  0  0  0  0
  1  2  1  0
  2  3  2  0
  2  4  1  0
  4  5  1  0
  5  6  1  0
  6  7  1  0
  7  8  1  0
  8  9  2  0
  8 10  1  0
 10 11  1  0
 11 12  1  0
 12 13  1  0
 13 14  1  0
 14 15  1  0
 15 16  1  0
 15 17  1  0
 17 18  1  0
 18 19  1  0
 19 20  1  0
 13 21  1  0
 10 22  1  0
 21 22  1  0
  7 23  1  0
  4 24  1  0
 23 24  1  0
M  END
