piperidine-amides-10457-covalent
     RDKit          3D

 24 25  0  0  0  0  0  0  0  0999 V2000
    7.0560   -3.2620   19.2340 C   0  0  0  0  0  0  0  0  0  0  0  0
    6.3110   -4.0190   20.2460 C   0  0  0  0  0  0  0  0  0  0  0  0
    5.2350   -4.5410   19.8710 O   0  0  0  0  0  0  0  0  0  0  0  0
    6.8060   -4.1820   21.5410 N   0  0  0  0  0  0  0  0  0  0  0  0
    6.5390   -5.3950   22.2770 C   0  0  0  0  0  0  0  0  0  0  0  0
    5.8780   -5.0120   23.5690 C   0  0  0  0  0  0  0  0  0  0  0  0
    6.6170   -3.8860   24.2440 C   0  0  0  0  0  0  0  0  0  0  0  0
    5.8720   -3.4290   25.4510 C   0  0  0  0  0  0  0  0  0  0  0  0
    4.7880   -2.8250   25.2690 O   0  0  0  0  0  0  0  0  0  0  0  0
    6.3080   -3.6380   26.7870 N   0  0  0  0  0  0  0  0  0  0  0  0
    6.1060   -4.9100   27.4770 C   0  0  2  0  0  0  0  0  0  0  0  0
    4.6510   -5.2490   27.3890 C   0  0  0  0  0  0  0  0  0  0  0  0
    6.5770   -4.9310   28.8890 C   0  0  0  0  0  0  0  0  0  0  0  0
    6.6290   -6.1550   29.6600 O   0  0  0  0  0  0  0  0  0  0  0  0
    5.5050   -6.7890   30.0810 C   0  0  0  0  0  0  0  0  0  0  0  0
    4.6230   -7.1110   29.0650 C   0  0  0  0  0  0  0  0  0  0  0  0
    3.4310   -7.7260   29.2350 C   0  0  0  0  0  0  0  0  0  0  0  0
    3.0080   -8.0810   30.4580 C   0  0  0  0  0  0  0  0  0  0  0  0
    3.8360   -7.8220   31.6820 C   0  0  0  0  0  0  0  0  0  0  0  0
    5.2020   -7.1170   31.4420 C   0  0  0  0  0  0  0  0  0  0  0  0
    6.0000   -6.8190   32.1830 O   0  0  0  0  0  0  0  0  0  0  0  0
    5.8630   -7.0550   33.5580 C   0  0  0  0  0  0  0  0  0  0  0  0
    6.8200   -2.7230   23.3140 C   0  0  0  0  0  0  0  0  0  0  0  0
    7.5700   -3.1400   22.2370 C   0  0  0  0  0  0  0  0  0  0  0  0
  1  2  1  0
  2  3  2  0
  2  4  1  0
  4  5  1  0
  5  6  1  0
  6  7  1  0
  7  8  1  0
  8  9  2  0
  8 10  1  0
 10 11  1  0
 11 12  1  1
 11 13  1  0
 13 14  1  0
 14 15  1  0
 15 16  2  0
 16 17  1  0
 17 18  2  0
 18 19  1  0
 15 20  1  0
 19 20  2  0
 20 21  1  0
 21 22  1  0
  7 23  1  0
  4 24  1  0
 23 24  1  0
M  END
