piperidine-amides-29454-covalent
     RDKit          3D

 26 28  0  0  0  0  0  0  0  0999 V2000
    7.0120   -3.3570   19.3990 C   0  0  0  0  0  0  0  0  0  0  0  0
    6.3570   -4.2350   20.3700 C   0  0  0  0  0  0  0  0  0  0  0  0
    5.3730   -4.8900   19.9860 O   0  0  0  0  0  0  0  0  0  0  0  0
    6.8610   -4.3580   21.6890 N   0  0  0  0  0  0  0  0  0  0  0  0
    6.6320   -5.5790   22.4290 C   0  0  0  0  0  0  0  0  0  0  0  0
    5.8360   -5.2920   23.6780 C   0  0  0  0  0  0  0  0  0  0  0  0
    5.9140   -3.8030   23.8640 C   0  0  0  0  0  0  0  0  0  0  0  0
    5.3750   -3.3280   25.2010 C   0  0  0  0  0  0  0  0  0  0  0  0
    4.4290   -2.5560   25.1140 O   0  0  0  0  0  0  0  0  0  0  0  0
    5.8980   -3.7370   26.4290 N   0  0  0  0  0  0  0  0  0  0  0  0
    5.7420   -2.9240   27.5950 C   0  0  0  0  0  0  0  0  0  0  0  0
    5.6170   -3.6880   28.7380 C   0  0  0  0  0  0  0  0  0  0  0  0
    5.4770   -4.9980   28.4240 C   0  0  2  0  0  0  0  0  0  0  0  0
    4.7890   -5.8350   29.3330 C   0  0  0  0  0  0  0  0  0  0  0  0
    4.1840   -6.9790   28.8670 F   0  0  0  0  0  0  0  0  0  0  0  0
    3.8840   -5.1690   30.0960 F   0  0  0  0  0  0  0  0  0  0  0  0
    5.7640   -6.3580   30.2140 F   0  0  0  0  0  0  0  0  0  0  0  0
    6.7120   -5.4250   27.7900 N   0  0  0  0  0  0  0  0  0  0  0  0
    7.6920   -6.4990   28.2370 N   0  0  0  0  0  0  0  0  0  0  0  0
    8.6450   -6.3980   27.2230 C   0  0  0  0  0  0  0  0  0  0  0  0
    7.5970   -5.5480   27.1100 C   0  0  0  0  0  0  0  0  0  0  0  0
    6.7400   -5.8740   28.2620 C   0  0  0  0  0  0  0  0  0  0  0  0
    6.1610   -7.0570   27.9420 N   0  0  0  0  0  0  0  0  0  0  0  0
    7.0410   -4.5960   26.4300 C   0  0  0  0  0  0  0  0  0  0  0  0
    7.2390   -3.2540   23.6360 C   0  0  0  0  0  0  0  0  0  0  0  0
    7.6330   -3.3060   22.3260 C   0  0  0  0  0  0  0  0  0  0  0  0
  1  2  1  0
  2  3  2  0
  2  4  1  0
  4  5  1  0
  5  6  1  0
  6  7  1  0
  7  8  1  0
  8  9  2  0
  8 10  1  0
 10 11  1  0
 11 12  1  0
 12 13  1  0
 13 14  1  1
 14 15  1  0
 14 16  1  0
 14 17  1  0
 13 18  1  0
 18 19  1  0
 19 20  2  0
 20 21  1  0
 21 22  1  0
 22 23  3  0
 10 24  1  0
 18 24  1  0
 21 24  2  0
  7 25  1  0
  4 26  1  0
 25 26  1  0
M  END
