piperidine-amides-3127-covalent
     RDKit          3D

 23 24  0  0  0  0  0  0  0  0999 V2000
    7.0410   -3.3450   19.2960 C   0  0  0  0  0  0  0  0  0  0  0  0
    6.3490   -4.1550   20.2920 C   0  0  0  0  0  0  0  0  0  0  0  0
    5.3620   -4.8100   19.9710 O   0  0  0  0  0  0  0  0  0  0  0  0
    6.8450   -4.2340   21.6390 N   0  0  0  0  0  0  0  0  0  0  0  0
    7.7170   -3.1880   22.1280 C   0  0  0  0  0  0  0  0  0  0  0  0
    7.5620   -3.0620   23.6020 C   0  0  0  0  0  0  0  0  0  0  0  0
    6.2030   -3.6360   23.9360 C   0  0  0  0  0  0  0  0  0  0  0  0
    5.9120   -3.2720   25.3440 C   0  0  0  0  0  0  0  0  0  0  0  0
    4.7900   -3.4090   25.8740 O   0  0  0  0  0  0  0  0  0  0  0  0
    6.9970   -2.7290   26.0760 N   0  0  0  0  0  0  0  0  0  0  0  0
    6.7820   -1.6110   26.9700 C   0  0  0  0  0  0  0  0  0  0  0  0
    7.2690   -1.6500   28.3900 C   0  0  0  0  0  0  0  0  0  0  0  0
    7.0740   -0.5930   29.2570 C   0  0  0  0  0  0  0  0  0  0  0  0
    6.4060    0.5670   28.8300 C   0  0  0  0  0  0  0  0  0  0  0  0
    5.9240    0.6900   27.5390 C   0  0  0  0  0  0  0  0  0  0  0  0
    6.0640   -0.3460   26.5280 C   0  0  0  0  0  0  0  0  0  0  0  0
    5.6040   -0.2560   25.2280 C   0  0  0  0  0  0  0  0  0  0  0  0
    5.1910   -1.2060   24.4310 O   0  0  0  0  0  0  0  0  0  0  0  0
    5.5930    1.0150   24.7780 N   0  0  0  0  0  0  0  0  0  0  0  0
    4.4450    1.3470   23.9860 C   0  0  0  0  0  0  0  0  0  0  0  0
    4.2000    2.7110   24.0900 C   0  0  0  0  0  0  0  0  0  0  0  0
    6.0160   -5.0490   23.6430 C   0  0  0  0  0  0  0  0  0  0  0  0
    6.6510   -5.4120   22.4540 C   0  0  0  0  0  0  0  0  0  0  0  0
  1  2  1  0
  2  3  2  0
  2  4  1  0
  4  5  1  0
  5  6  1  0
  6  7  1  0
  7  8  1  0
  8  9  2  0
  8 10  1  0
 10 11  1  0
 11 12  2  0
 12 13  1  0
 13 14  2  0
 14 15  1  0
 11 16  1  0
 15 16  2  0
 16 17  1  0
 17 18  2  0
 17 19  1  0
 19 20  1  0
 20 21  1  0
  7 22  1  0
  4 23  1  0
 22 23  1  0
M  END
