piperidine-amides-11761-covalent
     RDKit          3D

 27 29  0  0  0  0  0  0  0  0999 V2000
    7.0760   -3.3730   19.3330 C   0  0  0  0  0  0  0  0  0  0  0  0
    6.3500   -4.1650   20.3110 C   0  0  0  0  0  0  0  0  0  0  0  0
    5.3390   -4.7740   19.9680 O   0  0  0  0  0  0  0  0  0  0  0  0
    6.8520   -4.2750   21.6520 N   0  0  0  0  0  0  0  0  0  0  0  0
    7.6130   -3.2070   22.2430 C   0  0  0  0  0  0  0  0  0  0  0  0
    6.8620   -2.6320   23.4070 C   0  0  0  0  0  0  0  0  0  0  0  0
    6.5580   -3.7710   24.3620 C   0  0  0  0  0  0  0  0  0  0  0  0
    5.7000   -3.2850   25.4920 C   0  0  0  0  0  0  0  0  0  0  0  0
    4.4560   -3.2870   25.3970 O   0  0  0  0  0  0  0  0  0  0  0  0
    6.2780   -2.8010   26.7040 N   0  0  0  0  0  0  0  0  0  0  0  0
    6.1930   -1.3640   26.9230 C   0  0  0  0  0  0  0  0  0  0  0  0
    6.1830   -0.3620   25.8040 C   0  0  0  0  0  0  0  0  0  0  0  0
    6.1060    1.0060   26.0540 C   0  0  0  0  0  0  0  0  0  0  0  0
    6.0940    2.2850   24.6240 Br  0  0  0  0  0  0  0  0  0  0  0  0
    6.0370    1.4970   27.3560 C   0  0  0  0  0  0  0  0  0  0  0  0
    6.0320    0.7070   28.4430 C   0  0  0  0  0  0  0  0  0  0  0  0
    6.1010   -0.7060   28.2850 C   0  0  0  0  0  0  0  0  0  0  0  0
    6.0720   -1.1680   29.5040 N   0  0  0  0  0  0  0  0  0  0  0  0
    4.8400   -1.2060   30.2750 C   0  0  0  0  0  0  0  0  0  0  0  0
    4.8640   -0.1260   31.1170 C   0  0  0  0  0  0  0  0  0  0  0  0
    5.9240   -0.0560   31.9190 N   0  0  0  0  0  0  0  0  0  0  0  0
    5.9040    0.0900   33.2600 C   0  0  0  0  0  0  0  0  0  0  0  0
    7.2560   -0.2130   31.3410 C   0  0  0  0  0  0  0  0  0  0  0  0
    7.2480   -0.5600   29.9960 C   0  0  1  0  0  0  0  0  0  0  0  0
    8.2630   -1.3340   29.5120 C   0  0  0  0  0  0  0  0  0  0  0  0
    5.7910   -4.8910   23.6790 C   0  0  0  0  0  0  0  0  0  0  0  0
    6.5750   -5.4240   22.4710 C   0  0  0  0  0  0  0  0  0  0  0  0
  1  2  1  0
  2  3  2  0
  2  4  1  0
  4  5  1  0
  5  6  1  0
  6  7  1  0
  7  8  1  0
  8  9  2  0
  8 10  1  0
 10 11  1  0
 11 12  2  0
 12 13  1  0
 13 14  1  0
 13 15  2  0
 15 16  1  0
 11 17  1  0
 16 17  2  0
 17 18  1  0
 18 19  1  0
 19 20  1  0
 20 21  1  0
 21 22  1  0
 21 23  1  0
 18 24  1  0
 23 24  1  0
 24 25  1  1
  7 26  1  0
  4 27  1  0
 26 27  1  0
M  END
