piperidine-amides-12567-covalent
     RDKit          3D

 23 24  0  0  0  0  0  0  0  0999 V2000
    7.0910   -3.2860   19.2580 C   0  0  0  0  0  0  0  0  0  0  0  0
    6.3650   -4.0920   20.2650 C   0  0  0  0  0  0  0  0  0  0  0  0
    5.2930   -4.6160   19.9000 O   0  0  0  0  0  0  0  0  0  0  0  0
    6.8900   -4.2930   21.5430 N   0  0  0  0  0  0  0  0  0  0  0  0
    7.5730   -3.2190   22.1920 C   0  0  0  0  0  0  0  0  0  0  0  0
    6.9940   -2.8230   23.4740 C   0  0  0  0  0  0  0  0  0  0  0  0
    6.4430   -3.9370   24.2640 C   0  0  0  0  0  0  0  0  0  0  0  0
    5.7190   -3.4350   25.4630 C   0  0  0  0  0  0  0  0  0  0  0  0
    4.4730   -3.3420   25.4550 O   0  0  0  0  0  0  0  0  0  0  0  0
    6.4300   -3.0680   26.6140 N   0  0  0  0  0  0  0  0  0  0  0  0
    6.3950   -1.7030   27.2000 C   0  0  0  0  0  0  0  0  0  0  0  0
    7.0190   -1.6430   28.5310 C   0  0  0  0  0  0  0  0  0  0  0  0
    7.0960   -0.4290   29.2990 C   0  0  0  0  0  0  0  0  0  0  0  0
    7.6350   -0.1940   30.5390 C   0  0  0  0  0  0  0  0  0  0  0  0
    6.4660    0.7890   28.5930 C   0  0  0  0  0  0  0  0  0  0  0  0
    5.8950    0.6850   27.3460 C   0  0  0  0  0  0  0  0  0  0  0  0
    5.3530    1.8030   26.7800 C   0  0  0  0  0  0  0  0  0  0  0  0
    4.9160    1.7770   25.4460 F   0  0  0  0  0  0  0  0  0  0  0  0
    6.3050    2.7830   26.8450 F   0  0  0  0  0  0  0  0  0  0  0  0
    4.2250    2.1100   27.4970 F   0  0  0  0  0  0  0  0  0  0  0  0
    5.8490   -0.5260   26.6420 C   0  0  0  0  0  0  0  0  0  0  0  0
    5.6280   -4.8700   23.4140 C   0  0  0  0  0  0  0  0  0  0  0  0
    6.4980   -5.4200   22.3560 C   0  0  0  0  0  0  0  0  0  0  0  0
  1  2  1  0
  2  3  2  0
  2  4  1  0
  4  5  1  0
  5  6  1  0
  6  7  1  0
  7  8  1  0
  8  9  2  0
  8 10  1  0
 10 11  1  0
 11 12  2  0
 12 13  1  0
 13 14  1  0
 13 15  2  0
 15 16  1  0
 16 17  1  0
 17 18  1  0
 17 19  1  0
 17 20  1  0
 11 21  1  0
 16 21  2  0
  7 22  1  0
  4 23  1  0
 22 23  1  0
M  END
