piperidine-amides-31576-covalent
     RDKit          3D

 27 29  0  0  0  0  0  0  0  0999 V2000
    7.1850   -3.2760   19.3450 C   0  0  0  0  0  0  0  0  0  0  0  0
    6.4360   -4.0510   20.3020 C   0  0  0  0  0  0  0  0  0  0  0  0
    5.3620   -4.6210   19.9210 O   0  0  0  0  0  0  0  0  0  0  0  0
    6.8900   -4.2240   21.6240 N   0  0  0  0  0  0  0  0  0  0  0  0
    6.5830   -5.4900   22.3100 C   0  0  0  0  0  0  0  0  0  0  0  0
    5.5600   -4.9220   23.3540 C   0  0  0  0  0  0  0  0  0  0  0  0
    6.3290   -3.8930   24.1530 C   0  0  0  0  0  0  0  0  0  0  0  0
    5.4490   -3.4250   25.4000 C   0  0  0  0  0  0  0  0  0  0  0  0
    4.3290   -3.9050   25.3130 O   0  0  0  0  0  0  0  0  0  0  0  0
    6.1100   -2.6640   26.1770 N   0  0  0  0  0  0  0  0  0  0  0  0
    6.7740   -1.5430   26.5740 C   0  0  0  0  0  0  0  0  0  0  0  0
    6.0120   -3.3110   27.4340 C   0  0  0  0  0  0  0  0  0  0  0  0
    5.2920   -2.6440   28.4650 C   0  0  0  0  0  0  0  0  0  0  0  0
    4.0190   -2.9000   28.8380 N   0  0  0  0  0  0  0  0  0  0  0  0
    3.6990   -2.0710   29.8350 N   0  0  0  0  0  0  0  0  0  0  0  0
    4.7710   -1.3110   30.0670 C   0  0  0  0  0  0  0  0  0  0  0  0
    5.7570   -1.6480   29.2410 N   0  0  0  0  0  0  0  0  0  0  0  0
    6.9280   -0.8320   29.4850 C   0  0  0  0  0  0  0  0  0  0  0  0
    6.5910    0.0410   30.5310 C   0  0  0  0  0  0  0  0  0  0  0  0
    5.5610    0.9560   30.2130 C   0  0  0  0  0  0  0  0  0  0  0  0
    5.0080   -0.2330   31.0280 C   0  0  1  0  0  0  0  0  0  0  0  0
    3.7740    0.1460   31.9210 C   0  0  0  0  0  0  0  0  0  0  0  0
    4.1830    0.5940   33.1810 F   0  0  0  0  0  0  0  0  0  0  0  0
    2.9060   -0.8570   32.1730 F   0  0  0  0  0  0  0  0  0  0  0  0
    3.0810    1.2470   31.3780 F   0  0  0  0  0  0  0  0  0  0  0  0
    6.7920   -2.7120   23.2750 C   0  0  0  0  0  0  0  0  0  0  0  0
    7.6560   -3.2180   22.3350 C   0  0  0  0  0  0  0  0  0  0  0  0
  1  2  1  0
  2  3  2  0
  2  4  1  0
  4  5  1  0
  5  6  1  0
  6  7  1  0
  7  8  1  0
  8  9  2  0
  8 10  1  0
 10 11  1  0
 10 12  1  0
 12 13  1  0
 13 14  2  0
 14 15  1  0
 15 16  2  0
 13 17  1  0
 16 17  1  0
 17 18  1  0
 18 19  1  0
 19 20  1  0
 16 21  1  0
 20 21  1  0
 21 22  1  6
 22 23  1  0
 22 24  1  0
 22 25  1  0
  7 26  1  0
  4 27  1  0
 26 27  1  0
M  END
