piperidine-amides-1811-covalent
     RDKit          3D

 19 20  0  0  0  0  0  0  0  0999 V2000
    7.0540   -3.3340   19.3470 C   0  0  0  0  0  0  0  0  0  0  0  0
    6.3950   -4.1930   20.3630 C   0  0  0  0  0  0  0  0  0  0  0  0
    5.4180   -4.8480   19.9880 O   0  0  0  0  0  0  0  0  0  0  0  0
    6.9140   -4.2610   21.6620 N   0  0  0  0  0  0  0  0  0  0  0  0
    7.7320   -3.1900   22.2090 C   0  0  0  0  0  0  0  0  0  0  0  0
    7.4210   -2.9690   23.6650 C   0  0  0  0  0  0  0  0  0  0  0  0
    6.0800   -3.6190   23.9790 C   0  0  0  0  0  0  0  0  0  0  0  0
    5.6460   -3.2610   25.3490 C   0  0  0  0  0  0  0  0  0  0  0  0
    4.4430   -3.3990   25.6370 O   0  0  0  0  0  0  0  0  0  0  0  0
    6.5390   -2.7390   26.3160 N   0  0  0  0  0  0  0  0  0  0  0  0
    6.0380   -1.6990   27.2040 C   0  0  0  0  0  0  0  0  0  0  0  0
    4.8190   -2.3010   27.8800 C   0  0  0  0  0  0  0  0  0  0  0  0
    4.6420   -2.3310   29.2310 C   0  0  0  0  0  0  0  0  0  0  0  0
    7.1100   -1.3700   28.2020 C   0  0  0  0  0  0  0  0  0  0  0  0
    6.5090   -0.2670   28.6580 C   0  0  0  0  0  0  0  0  0  0  0  0
    5.4650    0.4360   27.8290 C   0  0  0  0  0  0  0  0  0  0  0  0
    5.7480   -0.3480   26.5580 C   0  0  0  0  0  0  0  0  0  0  0  0
    6.0790   -5.0800   23.7710 C   0  0  0  0  0  0  0  0  0  0  0  0
    6.6190   -5.4400   22.4330 C   0  0  0  0  0  0  0  0  0  0  0  0
  1  2  1  0
  2  3  2  0
  2  4  1  0
  4  5  1  0
  5  6  1  0
  6  7  1  0
  7  8  1  0
  8  9  2  0
  8 10  1  0
 11 10  1  0
 11 12  1  0
 12 13  1  0
 11 14  1  0
 14 15  1  0
 15 16  1  0
 11 17  1  0
 16 17  1  0
  7 18  1  0
  4 19  1  0
 18 19  1  0
M  END
