piperidine-amides-6275-covalent
     RDKit          3D

 25 27  0  0  0  0  0  0  0  0999 V2000
    7.0820   -3.2780   19.2590 C   0  0  0  0  0  0  0  0  0  0  0  0
    6.3680   -4.0830   20.2640 C   0  0  0  0  0  0  0  0  0  0  0  0
    5.3470   -4.7320   19.9460 O   0  0  0  0  0  0  0  0  0  0  0  0
    6.8450   -4.1690   21.5800 N   0  0  0  0  0  0  0  0  0  0  0  0
    7.6870   -3.1000   22.0930 C   0  0  0  0  0  0  0  0  0  0  0  0
    7.5100   -3.0470   23.6130 C   0  0  0  0  0  0  0  0  0  0  0  0
    6.1240   -3.5840   23.8760 C   0  0  0  0  0  0  0  0  0  0  0  0
    5.6480   -3.2360   25.2250 C   0  0  0  0  0  0  0  0  0  0  0  0
    4.4200   -3.2880   25.4400 O   0  0  0  0  0  0  0  0  0  0  0  0
    6.5590   -2.8520   26.2340 N   0  0  0  0  0  0  0  0  0  0  0  0
    6.5180   -1.5240   26.7770 C   0  0  0  0  0  0  0  0  0  0  0  0
    5.1070   -1.2710   27.2770 C   0  0  1  0  0  0  0  0  0  0  0  0
    4.4170   -2.2340   27.9700 C   0  0  0  0  0  0  0  0  0  0  0  0
    3.9930   -1.7620   29.1560 C   0  0  0  0  0  0  0  0  0  0  0  0
    4.4400   -0.4840   29.3570 C   0  0  0  0  0  0  0  0  0  0  0  0
    3.4630    0.4940   29.2970 C   0  0  0  0  0  0  0  0  0  0  0  0
    3.8560    1.9520   29.1360 C   0  0  0  0  0  0  0  0  0  0  0  0
    3.4560    1.6020   30.5560 C   0  0  0  0  0  0  0  0  0  0  0  0
    4.3860    2.0820   31.6370 C   0  0  0  0  0  0  0  0  0  0  0  0
    3.8120    0.7880   32.0190 C   0  0  0  0  0  0  0  0  0  0  0  0
    4.6180   -0.3250   31.7100 C   0  0  0  0  0  0  0  0  0  0  0  0
    5.2210   -0.4040   30.4810 C   0  0  0  0  0  0  0  0  0  0  0  0
    5.2150   -0.2100   28.2600 O   0  0  0  0  0  0  0  0  0  0  0  0
    6.1030   -5.0870   23.6950 C   0  0  0  0  0  0  0  0  0  0  0  0
    6.6290   -5.3920   22.3150 C   0  0  0  0  0  0  0  0  0  0  0  0
  1  2  1  0
  2  3  2  0
  2  4  1  0
  4  5  1  0
  5  6  1  0
  6  7  1  0
  7  8  1  0
  8  9  2  0
  8 10  1  0
 10 11  1  0
 12 11  1  1
 12 13  1  0
 13 14  1  0
 14 15  1  0
 15 16  1  0
 16 17  1  0
 17 18  1  0
 18 19  1  0
 19 20  1  0
 20 21  1  0
 15 22  1  0
 21 22  1  0
 12 23  1  0
 15 23  1  0
  7 24  1  0
  4 25  1  0
 24 25  1  0
M  END
