piperidine-amides-498-covalent
     RDKit          3D

 27 29  0  0  0  0  0  0  0  0999 V2000
    7.1680   -3.2970   19.3720 C   0  0  0  0  0  0  0  0  0  0  0  0
    6.4280   -4.0890   20.3330 C   0  0  0  0  0  0  0  0  0  0  0  0
    5.3720   -4.6850   19.9380 O   0  0  0  0  0  0  0  0  0  0  0  0
    6.8610   -4.2510   21.6660 N   0  0  0  0  0  0  0  0  0  0  0  0
    7.8420   -3.2140   22.1580 C   0  0  0  0  0  0  0  0  0  0  0  0
    7.5680   -3.0360   23.7110 C   0  0  0  0  0  0  0  0  0  0  0  0
    6.2750   -3.7400   23.9520 C   0  0  0  0  0  0  0  0  0  0  0  0
    5.3520   -3.1090   25.0670 C   0  0  0  0  0  0  0  0  0  0  0  0
    4.3460   -2.6780   24.5330 O   0  0  0  0  0  0  0  0  0  0  0  0
    5.8340   -3.1840   26.2370 N   0  0  0  0  0  0  0  0  0  0  0  0
    6.0960   -3.1110   27.5620 C   0  0  0  0  0  0  0  0  0  0  0  0
    5.4680   -2.6450   28.6800 C   0  0  0  0  0  0  0  0  0  0  0  0
    6.0080   -1.5350   29.3370 C   0  0  0  0  0  0  0  0  0  0  0  0
    5.4500   -0.8730   30.5660 C   0  0  0  0  0  0  0  0  0  0  0  0
    4.1220   -1.5510   31.1070 C   0  0  0  0  0  0  0  0  0  0  0  0
    3.7030   -2.6630   30.3390 C   0  0  0  0  0  0  0  0  0  0  0  0
    4.3910   -3.0990   29.2320 C   0  0  0  0  0  0  0  0  0  0  0  0
    3.2800   -4.1660   29.1750 C   0  0  0  0  0  0  0  0  0  0  0  0
    2.5950   -5.0290   29.5770 N   0  0  0  0  0  0  0  0  0  0  0  0
    1.7690   -5.3560   28.5650 C   0  0  0  0  0  0  0  0  0  0  0  0
    1.1730   -6.5750   28.7810 C   0  0  0  0  0  0  0  0  0  0  0  0
    2.0470   -7.6290   28.9070 C   0  0  0  0  0  0  0  0  0  0  0  0
    1.5810   -8.5530   29.7910 C   0  0  0  0  0  0  0  0  0  0  0  0
    3.3140   -7.2100   29.2320 C   0  0  0  0  0  0  0  0  0  0  0  0
    3.3780   -6.1300   30.1160 C   0  0  0  0  0  0  0  0  0  0  0  0
    6.2790   -5.1990   23.7800 C   0  0  0  0  0  0  0  0  0  0  0  0
    6.7320   -5.4930   22.3940 C   0  0  0  0  0  0  0  0  0  0  0  0
  1  2  1  0
  2  3  2  0
  2  4  1  0
  4  5  1  0
  5  6  1  0
  6  7  1  0
  7  8  1  0
  8  9  2  0
  8 10  1  0
 10 11  1  0
 11 12  1  0
 12 13  2  0
 13 14  1  0
 14 15  2  0
 15 16  1  0
 12 17  1  0
 16 17  2  0
 17 18  1  0
 18 19  1  0
 19 20  1  0
 20 21  1  0
 21 22  1  0
 22 23  1  0
 22 24  1  0
 19 25  1  0
 24 25  1  0
  7 26  1  0
  4 27  1  0
 26 27  1  0
M  END
