piperidine-amides-32552-covalent
     RDKit          3D

 28 29  0  0  0  0  0  0  0  0999 V2000
    7.1110   -3.3220   19.2760 C   0  0  0  0  0  0  0  0  0  0  0  0
    6.3940   -4.1670   20.2640 C   0  0  0  0  0  0  0  0  0  0  0  0
    5.3190   -4.6970   19.9380 O   0  0  0  0  0  0  0  0  0  0  0  0
    6.9870   -4.4020   21.5150 N   0  0  0  0  0  0  0  0  0  0  0  0
    6.6610   -5.5760   22.2670 C   0  0  0  0  0  0  0  0  0  0  0  0
    5.6840   -5.1020   23.3350 C   0  0  0  0  0  0  0  0  0  0  0  0
    6.3870   -4.0630   24.1500 C   0  0  0  0  0  0  0  0  0  0  0  0
    5.5170   -3.5900   25.2360 C   0  0  0  0  0  0  0  0  0  0  0  0
    4.4300   -3.1230   24.8960 O   0  0  0  0  0  0  0  0  0  0  0  0
    5.9190   -3.6690   26.5560 N   0  0  0  0  0  0  0  0  0  0  0  0
    5.2690   -4.4110   27.5650 C   0  0  0  0  0  0  0  0  0  0  0  0
    5.6740   -4.1150   28.8160 C   0  0  1  0  0  0  0  0  0  0  0  0
    6.4080   -5.2880   29.2680 O   0  0  0  0  0  0  0  0  0  0  0  0
    5.6210   -6.3860   29.5840 C   0  0  0  0  0  0  0  0  0  0  0  0
    5.2140   -7.1670   28.5280 C   0  0  0  0  0  0  0  0  0  0  0  0
    6.5720   -3.0160   28.5490 C   0  0  2  0  0  0  0  0  0  0  0  0
    6.4690   -1.6970   29.3370 C   0  0  0  0  0  0  0  0  0  0  0  0
    5.1430   -1.3050   29.6980 N   0  0  0  0  0  0  0  0  0  0  0  0
    4.9370   -0.7910   30.9990 C   0  0  0  0  0  0  0  0  0  0  0  0
    4.3980   -1.5470   32.0170 O   0  0  0  0  0  0  0  0  0  0  0  0
    5.3020    0.4750   31.3290 O   0  0  0  0  0  0  0  0  0  0  0  0
    6.4690    1.0290   31.7220 C   0  0  0  0  0  0  0  0  0  0  0  0
    7.6080    0.2790   31.1340 C   0  0  0  0  0  0  0  0  0  0  0  0
    6.6600    2.4050   31.8800 C   0  0  0  0  0  0  0  0  0  0  0  0
    6.8330    0.3610   33.0580 C   0  0  0  0  0  0  0  0  0  0  0  0
    6.5050   -2.4990   27.1790 C   0  0  0  0  0  0  0  0  0  0  0  0
    6.9380   -2.8940   23.3960 C   0  0  0  0  0  0  0  0  0  0  0  0
    7.7380   -3.3660   22.1960 C   0  0  0  0  0  0  0  0  0  0  0  0
  1  2  1  0
  2  3  2  0
  2  4  1  0
  4  5  1  0
  5  6  1  0
  6  7  1  0
  7  8  1  0
  8  9  2  0
  8 10  1  0
 10 11  1  0
 11 12  1  0
 12 13  1  6
 13 14  1  0
 14 15  1  0
 12 16  1  0
 16 17  1  1
 17 18  1  0
 18 19  1  0
 19 20  2  0
 19 21  1  0
 22 21  1  0
 22 23  1  0
 22 24  1  0
 22 25  1  0
 10 26  1  0
 16 26  1  0
  7 27  1  0
  4 28  1  0
 27 28  1  0
M  END
