piperidine-amides-8590-covalent
     RDKit          3D

 24 26  0  0  0  0  0  0  0  0999 V2000
    7.0810   -3.3360   19.3210 C   0  0  0  0  0  0  0  0  0  0  0  0
    6.4190   -4.1830   20.3060 C   0  0  0  0  0  0  0  0  0  0  0  0
    5.3740   -4.7730   19.9690 O   0  0  0  0  0  0  0  0  0  0  0  0
    7.0010   -4.3650   21.5880 N   0  0  0  0  0  0  0  0  0  0  0  0
    7.6700   -3.2490   22.1910 C   0  0  0  0  0  0  0  0  0  0  0  0
    6.7660   -2.6840   23.2350 C   0  0  0  0  0  0  0  0  0  0  0  0
    6.5570   -3.7830   24.2470 C   0  0  0  0  0  0  0  0  0  0  0  0
    5.7730   -3.2380   25.3990 C   0  0  0  0  0  0  0  0  0  0  0  0
    4.5860   -2.9960   25.1870 O   0  0  0  0  0  0  0  0  0  0  0  0
    6.4300   -3.0470   26.6040 N   0  0  0  0  0  0  0  0  0  0  0  0
    6.4540   -1.7930   27.2800 C   0  0  0  0  0  0  0  0  0  0  0  0
    6.9950   -1.4900   28.5580 C   0  0  0  0  0  0  0  0  0  0  0  0
    6.9930   -0.2690   29.1860 C   0  0  0  0  0  0  0  0  0  0  0  0
    6.4300    0.8200   28.5830 C   0  0  0  0  0  0  0  0  0  0  0  0
    6.5500    2.0390   29.4550 C   0  0  0  0  0  0  0  0  0  0  0  0
    7.3670    2.9900   28.9460 N   0  0  0  0  0  0  0  0  0  0  0  0
    8.2420    3.7190   29.6420 C   0  0  0  0  0  0  0  0  0  0  0  0
    9.0580    4.7170   28.9170 C   0  0  0  0  0  0  0  0  0  0  0  0
    8.5350    4.5010   27.5710 N   0  0  0  0  0  0  0  0  0  0  0  0
    7.5170    3.4610   27.5810 C   0  0  0  0  0  0  0  0  0  0  0  0
    5.8630    0.7050   27.3390 C   0  0  0  0  0  0  0  0  0  0  0  0
    5.8580   -0.5110   26.6960 C   0  0  0  0  0  0  0  0  0  0  0  0
    5.7620   -4.8760   23.5900 C   0  0  0  0  0  0  0  0  0  0  0  0
    6.4650   -5.4370   22.3820 C   0  0  0  0  0  0  0  0  0  0  0  0
  1  2  1  0
  2  3  2  0
  2  4  1  0
  4  5  1  0
  5  6  1  0
  6  7  1  0
  7  8  1  0
  8  9  2  0
  8 10  1  0
 10 11  1  0
 11 12  2  0
 12 13  1  0
 13 14  2  0
 14 15  1  0
 15 16  1  0
 16 17  1  0
 17 18  2  0
 18 19  1  0
 16 20  1  0
 19 20  2  0
 14 21  1  0
 11 22  1  0
 21 22  2  0
  7 23  1  0
  4 24  1  0
 23 24  1  0
M  END
