piperidine-amides-27882-covalent
     RDKit          3D

 26 28  0  0  0  0  0  0  0  0999 V2000
    7.1130   -3.2490   19.1010 C   0  0  0  0  0  0  0  0  0  0  0  0
    6.3650   -3.9600   20.1600 C   0  0  0  0  0  0  0  0  0  0  0  0
    5.2650   -4.4540   19.8400 O   0  0  0  0  0  0  0  0  0  0  0  0
    6.9030   -4.1210   21.4380 N   0  0  0  0  0  0  0  0  0  0  0  0
    6.5390   -5.2470   22.2140 C   0  0  0  0  0  0  0  0  0  0  0  0
    6.0340   -4.8950   23.5430 C   0  0  0  0  0  0  0  0  0  0  0  0
    6.6620   -3.7020   24.1710 C   0  0  0  0  0  0  0  0  0  0  0  0
    5.8290   -3.2360   25.2990 C   0  0  0  0  0  0  0  0  0  0  0  0
    4.9890   -2.3320   25.1370 O   0  0  0  0  0  0  0  0  0  0  0  0
    6.0060   -3.8610   26.5240 N   0  0  0  0  0  0  0  0  0  0  0  0
    5.1540   -3.4800   27.6760 C   0  0  0  0  0  0  0  0  0  0  0  0
    5.5850   -4.0650   28.9650 C   0  0  0  0  0  0  0  0  0  0  0  0
    6.3530   -5.2960   28.9970 C   0  0  0  0  0  0  0  0  0  0  0  0
    5.5970   -6.3620   29.3980 C   0  0  0  0  0  0  0  0  0  0  0  0
    4.3640   -6.3900   29.5450 O   0  0  0  0  0  0  0  0  0  0  0  0
    6.4670   -7.4270   29.6230 N   0  0  0  0  0  0  0  0  0  0  0  0
    6.3520   -8.1920   30.8380 C   0  0  0  0  0  0  0  0  0  0  0  0
    7.1510   -9.3910   30.9390 C   0  0  0  0  0  0  0  0  0  0  0  0
    7.0980  -10.2090   32.0680 C   0  0  0  0  0  0  0  0  0  0  0  0
    6.2600   -9.8760   33.1260 N   0  0  0  0  0  0  0  0  0  0  0  0
    5.4760   -8.7360   33.0500 C   0  0  0  0  0  0  0  0  0  0  0  0
    5.5210   -7.8930   31.9160 C   0  0  0  0  0  0  0  0  0  0  0  0
    7.0340   -5.6270   27.8870 C   0  0  0  0  0  0  0  0  0  0  0  0
    6.7080   -5.0600   26.5400 C   0  0  0  0  0  0  0  0  0  0  0  0
    6.9530   -2.6010   23.1560 C   0  0  0  0  0  0  0  0  0  0  0  0
    7.7000   -3.0910   22.0700 C   0  0  0  0  0  0  0  0  0  0  0  0
  1  2  1  0
  2  3  2  0
  2  4  1  0
  4  5  1  0
  5  6  1  0
  6  7  1  0
  7  8  1  0
  8  9  2  0
  8 10  1  0
 10 11  1  0
 11 12  1  0
 12 13  1  0
 13 14  1  0
 14 15  2  0
 14 16  1  0
 16 17  1  0
 17 18  2  0
 18 19  1  0
 19 20  2  0
 20 21  1  0
 17 22  1  0
 21 22  2  0
 13 23  1  0
 10 24  1  0
 23 24  1  0
  7 25  1  0
  4 26  1  0
 25 26  1  0
M  END
