piperidine-amides-15178-covalent
     RDKit          3D

 20 21  0  0  0  0  0  0  0  0999 V2000
    7.1300   -3.3360   19.3380 C   0  0  0  0  0  0  0  0  0  0  0  0
    6.4020   -4.1670   20.2980 C   0  0  0  0  0  0  0  0  0  0  0  0
    5.3500   -4.7580   19.9640 O   0  0  0  0  0  0  0  0  0  0  0  0
    6.9300   -4.3530   21.5800 N   0  0  0  0  0  0  0  0  0  0  0  0
    7.6890   -3.3000   22.2110 C   0  0  0  0  0  0  0  0  0  0  0  0
    6.7630   -2.6960   23.2590 C   0  0  0  0  0  0  0  0  0  0  0  0
    6.5370   -3.7920   24.2690 C   0  0  0  0  0  0  0  0  0  0  0  0
    5.7660   -3.2680   25.4110 C   0  0  0  0  0  0  0  0  0  0  0  0
    4.5440   -3.0650   25.2470 O   0  0  0  0  0  0  0  0  0  0  0  0
    6.3970   -3.0110   26.6500 N   0  0  0  0  0  0  0  0  0  0  0  0
    6.4150   -1.6570   27.1430 C   0  0  0  0  0  0  0  0  0  0  0  0
    6.9740   -1.4400   28.4800 C   0  0  0  0  0  0  0  0  0  0  0  0
    6.8030   -0.0590   28.6000 N   0  0  0  0  0  0  0  0  0  0  0  0
    6.2360    0.3680   27.4660 N   0  0  0  0  0  0  0  0  0  0  0  0
    6.0890    1.7180   27.6080 C   0  0  0  0  0  0  0  0  0  0  0  0
    5.0540    2.2650   28.3330 C   0  0  0  0  0  0  0  0  0  0  0  0
    5.8580   -0.5320   26.2840 C   0  0  0  0  0  0  0  0  0  0  0  0
    5.4960    0.7410   25.9160 C   0  0  0  0  0  0  0  0  0  0  0  0
    5.7220   -4.9130   23.6090 C   0  0  0  0  0  0  0  0  0  0  0  0
    6.5190   -5.4340   22.4390 C   0  0  0  0  0  0  0  0  0  0  0  0
  1  2  1  0
  2  3  2  0
  2  4  1  0
  4  5  1  0
  5  6  1  0
  6  7  1  0
  7  8  1  0
  8  9  2  0
  8 10  1  0
 10 11  1  0
 11 12  1  0
 12 13  2  0
 13 14  1  0
 14 15  1  0
 15 16  1  0
 11 17  2  0
 14 17  1  0
 17 18  1  0
  7 19  1  0
  4 20  1  0
 19 20  1  0
M  END
