piperidine-amides-31663-covalent
     RDKit          3D

 28 30  0  0  0  0  0  0  0  0999 V2000
    7.1110   -4.0010   19.5930 C   0  0  0  0  0  0  0  0  0  0  0  0
    5.8690   -3.8980   20.1820 C   0  0  0  0  0  0  0  0  0  0  0  0
    4.8760   -3.8550   19.4260 O   0  0  0  0  0  0  0  0  0  0  0  0
    5.7850   -3.9570   21.5400 N   0  0  0  0  0  0  0  0  0  0  0  0
    6.9170   -3.2290   22.1300 C   0  0  0  0  0  0  0  0  0  0  0  0
    6.1390   -2.5970   23.3140 C   0  0  0  0  0  0  0  0  0  0  0  0
    5.8020   -3.7930   24.1570 C   0  0  0  0  0  0  0  0  0  0  0  0
    5.3720   -3.2760   25.5610 C   0  0  0  0  0  0  0  0  0  0  0  0
    4.2480   -3.6080   25.9040 O   0  0  0  0  0  0  0  0  0  0  0  0
    6.3870   -2.6410   25.8910 N   0  0  0  0  0  0  0  0  0  0  0  0
    7.1680   -1.5520   26.0310 C   0  0  0  0  0  0  0  0  0  0  0  0
    7.2470   -3.7060   26.2310 C   0  0  0  0  0  0  0  0  0  0  0  0
    8.5480   -3.8710   25.6460 C   0  0  1  0  0  0  0  0  0  0  0  0
    8.5280   -5.2150   25.2480 O   0  0  0  0  0  0  0  0  0  0  0  0
    8.9620   -3.1730   24.3770 C   0  0  0  0  0  0  0  0  0  0  0  0
    8.9630   -1.7560   24.1180 N   0  0  0  0  0  0  0  0  0  0  0  0
    8.8620   -1.3200   22.7120 C   0  0  0  0  0  0  0  0  0  0  0  0
   10.1610   -1.4530   22.2240 C   0  0  0  0  0  0  0  0  0  0  0  0
   11.1330   -1.4450   23.2110 C   0  0  0  0  0  0  0  0  0  0  0  0
   12.0030   -2.2570   22.3030 C   0  0  0  0  0  0  0  0  0  0  0  0
   13.3440   -2.5810   22.9830 C   0  0  0  0  0  0  0  0  0  0  0  0
   13.5190   -2.0810   24.2530 C   0  0  0  0  0  0  0  0  0  0  0  0
   12.5970   -1.3240   24.9550 C   0  0  0  0  0  0  0  0  0  0  0  0
   11.3670   -0.9920   24.4470 C   0  0  0  0  0  0  0  0  0  0  0  0
   10.4630   -0.2580   25.1650 C   0  0  0  0  0  0  0  0  0  0  0  0
    9.1260   -0.6360   25.0500 C   0  0  0  0  0  0  0  0  0  0  0  0
    5.0110   -4.8960   23.5690 C   0  0  0  0  0  0  0  0  0  0  0  0
    5.4860   -5.1910   22.2030 C   0  0  0  0  0  0  0  0  0  0  0  0
  1  2  1  0
  2  3  2  0
  2  4  1  0
  4  5  1  0
  5  6  1  0
  6  7  1  0
  7  8  1  0
  8  9  2  0
  8 10  1  0
 10 11  1  0
 10 12  1  0
 12 13  1  0
 13 14  1  6
 13 15  1  0
 15 16  1  0
 16 17  1  0
 17 18  1  0
 18 19  1  0
 19 20  1  0
 20 21  2  0
 21 22  1  0
 22 23  2  0
 19 24  2  0
 23 24  1  0
 24 25  1  0
 16 26  1  0
 25 26  1  0
  7 27  1  0
  4 28  1  0
 27 28  1  0
M  END
