piperidine-amides-28021-covalent
     RDKit          3D

 20 21  0  0  0  0  0  0  0  0999 V2000
    7.1160   -3.2700   19.1160 C   0  0  0  0  0  0  0  0  0  0  0  0
    6.3740   -4.0190   20.1580 C   0  0  0  0  0  0  0  0  0  0  0  0
    5.2570   -4.4670   19.8430 O   0  0  0  0  0  0  0  0  0  0  0  0
    6.9390   -4.2590   21.4080 N   0  0  0  0  0  0  0  0  0  0  0  0
    6.4910   -5.3780   22.1680 C   0  0  0  0  0  0  0  0  0  0  0  0
    5.9330   -5.0080   23.4660 C   0  0  0  0  0  0  0  0  0  0  0  0
    6.5140   -3.7710   24.0260 C   0  0  0  0  0  0  0  0  0  0  0  0
    5.6550   -3.1760   25.0540 C   0  0  0  0  0  0  0  0  0  0  0  0
    4.4300   -3.3930   25.0410 O   0  0  0  0  0  0  0  0  0  0  0  0
    6.2300   -2.3700   26.0220 N   0  0  0  0  0  0  0  0  0  0  0  0
    6.9840   -1.1700   25.7220 C   0  0  0  0  0  0  0  0  0  0  0  0
    6.1450   -2.7690   27.3310 C   0  0  0  0  0  0  0  0  0  0  0  0
    5.8140   -4.1330   27.5790 C   0  0  0  0  0  0  0  0  0  0  0  0
    5.1570   -5.1530   26.9750 C   0  0  0  0  0  0  0  0  0  0  0  0
    5.0560   -6.3500   27.6180 C   0  0  0  0  0  0  0  0  0  0  0  0
    5.6570   -6.3640   28.8420 C   0  0  0  0  0  0  0  0  0  0  0  0
    5.7770   -7.7200   30.1170 Br  0  0  0  0  0  0  0  0  0  0  0  0
    6.3660   -4.7050   29.0310 S   0  0  0  0  0  0  0  0  0  0  0  0
    6.9460   -2.7170   23.0700 C   0  0  0  0  0  0  0  0  0  0  0  0
    7.7160   -3.2750   22.1120 C   0  0  0  0  0  0  0  0  0  0  0  0
  1  2  1  0
  2  3  2  0
  2  4  1  0
  4  5  1  0
  5  6  1  0
  6  7  1  0
  7  8  1  0
  8  9  2  0
  8 10  1  0
 10 11  1  0
 10 12  1  0
 12 13  1  0
 13 14  2  0
 14 15  1  0
 15 16  2  0
 16 17  1  0
 13 18  1  0
 16 18  1  0
  7 19  1  0
  4 20  1  0
 19 20  1  0
M  END
