piperidine-amides-27864-covalent
     RDKit          3D

 26 28  0  0  0  0  0  0  0  0999 V2000
    7.0340   -3.3880   19.3760 C   0  0  0  0  0  0  0  0  0  0  0  0
    6.4010   -4.2710   20.3810 C   0  0  0  0  0  0  0  0  0  0  0  0
    5.3810   -4.8770   19.9930 O   0  0  0  0  0  0  0  0  0  0  0  0
    6.9530   -4.4560   21.6660 N   0  0  0  0  0  0  0  0  0  0  0  0
    6.5890   -5.6020   22.4330 C   0  0  0  0  0  0  0  0  0  0  0  0
    5.9870   -5.2590   23.7280 C   0  0  0  0  0  0  0  0  0  0  0  0
    5.6760   -3.8170   23.8810 C   0  0  0  0  0  0  0  0  0  0  0  0
    5.1020   -3.4700   25.2260 C   0  0  0  0  0  0  0  0  0  0  0  0
    4.2370   -2.5860   25.2490 O   0  0  0  0  0  0  0  0  0  0  0  0
    5.5070   -4.0790   26.4300 N   0  0  0  0  0  0  0  0  0  0  0  0
    6.8970   -4.3820   26.4510 C   0  0  0  0  0  0  0  0  0  0  0  0
    7.2350   -5.5530   27.2800 C   0  0  0  0  0  0  0  0  0  0  0  0
    7.0990   -5.3990   28.6970 C   0  0  0  0  0  0  0  0  0  0  0  0
    5.8360   -5.4180   29.1940 C   0  0  0  0  0  0  0  0  0  0  0  0
    5.4910   -6.3530   30.1610 C   0  0  0  0  0  0  0  0  0  0  0  0
    4.2370   -6.4060   30.6850 C   0  0  0  0  0  0  0  0  0  0  0  0
    3.2980   -5.5240   30.2520 C   0  0  0  0  0  0  0  0  0  0  0  0
    3.6070   -4.6000   29.3060 C   0  0  0  0  0  0  0  0  0  0  0  0
    4.8810   -4.5170   28.7470 C   0  0  0  0  0  0  0  0  0  0  0  0
    5.1390   -3.4630   27.7050 C   0  0  2  0  0  0  0  0  0  0  0  0
    3.8780   -2.6250   27.6610 C   0  0  0  0  0  0  0  0  0  0  0  0
    2.8670   -3.1480   26.8750 O   0  0  0  0  0  0  0  0  0  0  0  0
    3.7010   -1.5230   28.2910 O   0  0  0  0  0  0  0  0  0  0  0  0
    2.7980   -1.4490   29.3770 C   0  0  0  0  0  0  0  0  0  0  0  0
    6.7170   -2.8700   23.4360 C   0  0  0  0  0  0  0  0  0  0  0  0
    7.6630   -3.4070   22.3780 C   0  0  0  0  0  0  0  0  0  0  0  0
  1  2  1  0
  2  3  2  0
  2  4  1  0
  4  5  1  0
  5  6  1  0
  6  7  1  0
  7  8  1  0
  8  9  2  0
  8 10  1  0
 10 11  1  0
 11 12  1  0
 12 13  1  0
 13 14  1  0
 14 15  1  0
 15 16  2  0
 16 17  1  0
 17 18  2  0
 14 19  2  0
 18 19  1  0
 10 20  1  0
 19 20  1  0
 20 21  1  6
 21 22  2  0
 21 23  1  0
 23 24  1  0
  7 25  1  0
  4 26  1  0
 25 26  1  0
M  END
