piperidine-amides-11600-covalent
     RDKit          3D

 32 35  0  0  0  0  0  0  0  0999 V2000
    7.1630   -3.2950   19.1780 C   0  0  0  0  0  0  0  0  0  0  0  0
    6.3710   -4.0080   20.1770 C   0  0  0  0  0  0  0  0  0  0  0  0
    5.2700   -4.4860   19.8600 O   0  0  0  0  0  0  0  0  0  0  0  0
    6.8730   -4.2160   21.4620 N   0  0  0  0  0  0  0  0  0  0  0  0
    6.4950   -5.3690   22.2320 C   0  0  0  0  0  0  0  0  0  0  0  0
    5.7420   -4.8010   23.4050 C   0  0  0  0  0  0  0  0  0  0  0  0
    6.5340   -3.7590   24.1540 C   0  0  0  0  0  0  0  0  0  0  0  0
    5.8040   -3.3380   25.3590 C   0  0  0  0  0  0  0  0  0  0  0  0
    4.5400   -3.4060   25.4000 O   0  0  0  0  0  0  0  0  0  0  0  0
    6.4660   -2.8390   26.4890 N   0  0  0  0  0  0  0  0  0  0  0  0
    6.0640   -3.2780   27.8350 C   0  0  0  0  0  0  0  0  0  0  0  0
    5.4910   -2.0820   28.5140 C   0  0  1  0  0  0  0  0  0  0  0  0
    4.4630   -1.2910   27.7670 C   0  0  0  0  0  0  0  0  0  0  0  0
    3.2710   -1.2800   28.6830 C   0  0  0  0  0  0  0  0  0  0  0  0
    2.1380   -0.6040   28.2980 O   0  0  0  0  0  0  0  0  0  0  0  0
    3.4490   -1.9910   29.8810 N   0  0  0  0  0  0  0  0  0  0  0  0
    2.5430   -3.1320   29.7770 C   0  0  0  0  0  0  0  0  0  0  0  0
    4.7730   -2.5360   29.7600 C   0  0  2  0  0  0  0  0  0  0  0  0
    5.7760   -1.6280   30.0440 C   0  0  0  0  0  0  0  0  0  0  0  0
    7.0380   -1.5660   29.4610 C   0  0  0  0  0  0  0  0  0  0  0  0
    7.8110   -0.5990   29.9390 N   0  0  0  0  0  0  0  0  0  0  0  0
    7.1070    0.0310   30.8600 N   0  0  0  0  0  0  0  0  0  0  0  0
    7.5520    1.1420   31.6520 C   0  0  0  0  0  0  0  0  0  0  0  0
    8.3420    0.8410   32.9320 C   0  0  0  0  0  0  0  0  0  0  0  0
    9.7140    1.2340   33.2790 C   0  0  0  0  0  0  0  0  0  0  0  0
   10.6020    1.2380   34.0120 C   0  0  0  0  0  0  0  0  0  0  0  0
   10.2040    0.4870   35.2120 C   0  0  0  0  0  0  0  0  0  0  0  0
    8.9230   -0.0940   35.3260 C   0  0  0  0  0  0  0  0  0  0  0  0
    7.8690    0.0420   34.1640 C   0  0  0  0  0  0  0  0  0  0  0  0
    5.8770   -0.5720   30.9330 C   0  0  0  0  0  0  0  0  0  0  0  0
    7.0360   -2.6730   23.3070 C   0  0  0  0  0  0  0  0  0  0  0  0
    7.6730   -3.2050   22.0660 C   0  0  0  0  0  0  0  0  0  0  0  0
  1  2  1  0
  2  3  2  0
  2  4  1  0
  4  5  1  0
  5  6  1  0
  6  7  1  0
  7  8  1  0
  8  9  2  0
  8 10  1  0
 10 11  1  0
 12 11  1  6
 12 13  1  0
 13 14  1  0
 14 15  2  0
 14 16  1  0
 16 17  1  0
 12 18  1  0
 16 18  1  0
 18 19  1  1
 19 20  1  0
 20 21  2  0
 21 22  1  0
 22 23  1  0
 23 24  1  0
 24 25  2  0
 25 26  1  0
 26 27  2  0
 27 28  1  0
 24 29  1  0
 28 29  2  0
 19 30  2  0
 22 30  1  0
  7 31  1  0
  4 32  1  0
 31 32  1  0
M  END
