piperidine-amides-3253-covalent
     RDKit          3D

 22 23  0  0  0  0  0  0  0  0999 V2000
    7.0940   -3.2720   19.2390 C   0  0  0  0  0  0  0  0  0  0  0  0
    6.3460   -4.0520   20.2240 C   0  0  0  0  0  0  0  0  0  0  0  0
    5.3060   -4.6210   19.9090 O   0  0  0  0  0  0  0  0  0  0  0  0
    6.8590   -4.1960   21.5540 N   0  0  0  0  0  0  0  0  0  0  0  0
    7.5550   -3.1090   22.1760 C   0  0  0  0  0  0  0  0  0  0  0  0
    6.7360   -2.5780   23.3150 C   0  0  0  0  0  0  0  0  0  0  0  0
    6.5010   -3.7070   24.3100 C   0  0  0  0  0  0  0  0  0  0  0  0
    5.2890   -3.4310   25.1210 C   0  0  0  0  0  0  0  0  0  0  0  0
    4.1650   -3.8310   24.7850 O   0  0  0  0  0  0  0  0  0  0  0  0
    5.3780   -2.6850   26.3160 N   0  0  0  0  0  0  0  0  0  0  0  0
    6.1990   -3.1460   27.3920 C   0  0  2  0  0  0  0  0  0  0  0  0
    5.9470   -4.6140   27.6980 C   0  0  0  0  0  0  0  0  0  0  0  0
    5.9360   -2.2700   28.5650 C   0  0  0  0  0  0  0  0  0  0  0  0
    7.0290   -1.6420   29.2160 C   0  0  0  0  0  0  0  0  0  0  0  0
    6.8220   -0.8140   30.3080 C   0  0  0  0  0  0  0  0  0  0  0  0
    5.4650   -0.6090   30.7590 C   0  0  0  0  0  0  0  0  0  0  0  0
    4.4030   -1.2000   30.1500 C   0  0  0  0  0  0  0  0  0  0  0  0
    3.1390   -1.0080   30.5690 F   0  0  0  0  0  0  0  0  0  0  0  0
    4.6720   -2.0110   29.0720 C   0  0  0  0  0  0  0  0  0  0  0  0
    3.5550   -2.5780   28.4980 F   0  0  0  0  0  0  0  0  0  0  0  0
    6.4740   -5.1050   23.7760 C   0  0  0  0  0  0  0  0  0  0  0  0
    6.4500   -5.3100   22.3240 C   0  0  0  0  0  0  0  0  0  0  0  0
  1  2  1  0
  2  3  2  0
  2  4  1  0
  4  5  1  0
  5  6  1  0
  6  7  1  0
  7  8  1  0
  8  9  2  0
  8 10  1  0
 10 11  1  0
 11 12  1  1
 11 13  1  0
 13 14  2  0
 14 15  1  0
 15 16  2  0
 16 17  1  0
 17 18  1  0
 13 19  1  0
 17 19  2  0
 19 20  1  0
  7 21  1  0
  4 22  1  0
 21 22  1  0
M  END
