piperidine-amides-10078-covalent
     RDKit          3D

 25 27  0  0  0  0  0  0  0  0999 V2000
    7.0890   -3.3080   19.2680 C   0  0  0  0  0  0  0  0  0  0  0  0
    6.3740   -4.1010   20.2740 C   0  0  0  0  0  0  0  0  0  0  0  0
    5.2920   -4.6250   19.9100 O   0  0  0  0  0  0  0  0  0  0  0  0
    6.9180   -4.2970   21.5420 N   0  0  0  0  0  0  0  0  0  0  0  0
    6.5870   -5.4600   22.3260 C   0  0  0  0  0  0  0  0  0  0  0  0
    5.8500   -4.9890   23.5480 C   0  0  0  0  0  0  0  0  0  0  0  0
    6.6010   -3.8920   24.2590 C   0  0  0  0  0  0  0  0  0  0  0  0
    5.8120   -3.4330   25.4180 C   0  0  0  0  0  0  0  0  0  0  0  0
    4.5640   -3.3900   25.3110 O   0  0  0  0  0  0  0  0  0  0  0  0
    6.4010   -3.0610   26.6360 N   0  0  0  0  0  0  0  0  0  0  0  0
    6.3600   -1.7160   27.1590 C   0  0  0  0  0  0  0  0  0  0  0  0
    6.9710   -1.3150   28.4890 C   0  0  0  0  0  0  0  0  0  0  0  0
    6.9040   -0.0130   28.9680 C   0  0  0  0  0  0  0  0  0  0  0  0
    7.4520    0.4250   30.1890 O   0  0  0  0  0  0  0  0  0  0  0  0
    8.3890   -0.2810   30.8220 C   0  0  0  0  0  0  0  0  0  0  0  0
    6.2850    1.0280   28.2930 C   0  0  0  0  0  0  0  0  0  0  0  0
    6.2060    2.3360   28.7610 O   0  0  0  0  0  0  0  0  0  0  0  0
    5.6820    0.8380   27.0660 C   0  0  0  0  0  0  0  0  0  0  0  0
    5.0260    1.7960   26.2780 C   0  0  0  0  0  0  0  0  0  0  0  0
    4.3470    1.6230   24.9170 C   0  0  0  0  0  0  0  0  0  0  0  0
    4.4290    0.1960   24.4000 C   0  0  0  0  0  0  0  0  0  0  0  0
    5.1060   -0.8710   25.1790 C   0  0  0  0  0  0  0  0  0  0  0  0
    5.7290   -0.5480   26.5070 C   0  0  0  0  0  0  0  0  0  0  0  0
    6.9400   -2.7440   23.3860 C   0  0  0  0  0  0  0  0  0  0  0  0
    7.6590   -3.2280   22.1580 C   0  0  0  0  0  0  0  0  0  0  0  0
  1  2  1  0
  2  3  2  0
  2  4  1  0
  4  5  1  0
  5  6  1  0
  6  7  1  0
  7  8  1  0
  8  9  2  0
  8 10  1  0
 10 11  1  0
 11 12  2  0
 12 13  1  0
 13 14  1  0
 14 15  1  0
 13 16  2  0
 16 17  1  0
 16 18  1  0
 18 19  1  0
 19 20  2  0
 20 21  1  0
 21 22  2  0
 11 23  1  0
 18 23  2  0
 22 23  1  0
  7 24  1  0
  4 25  1  0
 24 25  1  0
M  END
