piperidine-amides-3479-covalent
     RDKit          3D

 21 21  0  0  0  0  0  0  0  0999 V2000
    7.1220   -3.3160   19.3330 C   0  0  0  0  0  0  0  0  0  0  0  0
    6.3440   -4.0870   20.2910 C   0  0  0  0  0  0  0  0  0  0  0  0
    5.3180   -4.6570   19.9290 O   0  0  0  0  0  0  0  0  0  0  0  0
    6.8090   -4.2290   21.6470 N   0  0  0  0  0  0  0  0  0  0  0  0
    6.4580   -5.4320   22.3560 C   0  0  0  0  0  0  0  0  0  0  0  0
    6.2180   -5.1160   23.8140 C   0  0  0  0  0  0  0  0  0  0  0  0
    6.1220   -3.6050   23.9660 C   0  0  0  0  0  0  0  0  0  0  0  0
    5.4880   -3.2390   25.2720 C   0  0  0  0  0  0  0  0  0  0  0  0
    4.3130   -2.8390   25.3180 O   0  0  0  0  0  0  0  0  0  0  0  0
    6.2040   -3.3360   26.4930 N   0  0  0  0  0  0  0  0  0  0  0  0
    6.1290   -4.5580   27.2710 C   0  0  0  0  0  0  0  0  0  0  0  0
    4.9400   -4.5800   28.1380 C   0  0  0  0  0  0  0  0  0  0  0  0
    4.7800   -3.4780   28.9430 C   0  0  0  0  0  0  0  0  0  0  0  0
    5.3810   -5.6950   29.1180 C   0  0  0  0  0  0  0  0  0  0  0  0
    3.7230   -4.9830   27.7280 N   0  0  0  0  0  0  0  0  0  0  0  0
    2.6880   -6.0000   28.6270 S   0  0  0  0  0  0  0  0  0  0  0  0
    3.2910   -7.6980   28.5960 C   0  0  0  0  0  0  0  0  0  0  0  0
    2.6370   -5.4640   30.0190 O   0  0  0  0  0  0  0  0  0  0  0  0
    1.3050   -5.9260   28.0850 O   0  0  0  0  0  0  0  0  0  0  0  0
    7.4500   -3.0960   23.5990 C   0  0  0  0  0  0  0  0  0  0  0  0
    7.5710   -3.1890   22.2270 C   0  0  0  0  0  0  0  0  0  0  0  0
  1  2  1  0
  2  3  2  0
  2  4  1  0
  4  5  1  0
  5  6  1  0
  6  7  1  0
  7  8  1  0
  8  9  2  0
  8 10  1  0
 10 11  1  0
 11 12  1  0
 12 13  1  0
 12 14  1  0
 12 15  1  0
 16 15  1  0
 16 17  1  0
 16 18  2  0
 16 19  2  0
  7 20  1  0
  4 21  1  0
 20 21  1  0
M  END
