piperidine-amides-25319-covalent
     RDKit          3D

 24 26  0  0  0  0  0  0  0  0999 V2000
    7.0380   -3.3600   19.3680 C   0  0  0  0  0  0  0  0  0  0  0  0
    6.3630   -4.2700   20.3320 C   0  0  0  0  0  0  0  0  0  0  0  0
    5.3350   -4.8200   19.9610 O   0  0  0  0  0  0  0  0  0  0  0  0
    6.9270   -4.5040   21.5870 N   0  0  0  0  0  0  0  0  0  0  0  0
    6.6730   -5.7140   22.3380 C   0  0  0  0  0  0  0  0  0  0  0  0
    6.1960   -5.4050   23.7420 C   0  0  0  0  0  0  0  0  0  0  0  0
    5.7440   -3.9490   23.8620 C   0  0  0  0  0  0  0  0  0  0  0  0
    5.3160   -3.6460   25.2600 C   0  0  0  0  0  0  0  0  0  0  0  0
    4.2770   -2.9820   25.3900 O   0  0  0  0  0  0  0  0  0  0  0  0
    5.9690   -4.0460   26.4620 N   0  0  0  0  0  0  0  0  0  0  0  0
    5.1540   -3.7450   27.6170 C   0  0  0  0  0  0  0  0  0  0  0  0
    5.8290   -4.4000   28.7810 C   0  0  0  0  0  0  0  0  0  0  0  0
    6.7930   -5.3220   28.5650 C   0  0  0  0  0  0  0  0  0  0  0  0
    7.6900   -4.9980   27.6080 C   0  0  0  0  0  0  0  0  0  0  0  0
    7.3420   -3.9410   26.7850 C   0  0  0  0  0  0  0  0  0  0  0  0
    7.5190   -2.4920   27.2240 C   0  0  0  0  0  0  0  0  0  0  0  0
    7.0170   -2.0010   25.9070 C   0  0  0  0  0  0  0  0  0  0  0  0
    8.2780   -2.1590   25.1300 C   0  0  0  0  0  0  0  0  0  0  0  0
    8.3070   -1.3230   24.0450 F   0  0  0  0  0  0  0  0  0  0  0  0
    9.3310   -1.9110   25.8660 F   0  0  0  0  0  0  0  0  0  0  0  0
    8.1790   -3.6070   24.7860 C   0  0  0  0  0  0  0  0  0  0  0  0
    8.3920   -4.5710   25.8960 C   0  0  0  0  0  0  0  0  0  0  0  0
    6.5990   -2.9050   23.2290 C   0  0  0  0  0  0  0  0  0  0  0  0
    7.5940   -3.4320   22.2700 C   0  0  0  0  0  0  0  0  0  0  0  0
  1  2  1  0
  2  3  2  0
  2  4  1  0
  4  5  1  0
  5  6  1  0
  6  7  1  0
  7  8  1  0
  8  9  2  0
  8 10  1  0
 10 11  1  0
 11 12  1  0
 12 13  1  0
 13 14  1  0
 15 10  1  0
 14 15  1  0
 15 16  1  0
 16 17  1  0
 17 18  1  0
 18 19  1  0
 18 20  1  0
 18 21  1  0
 15 22  1  0
 21 22  1  0
  7 23  1  0
  4 24  1  0
 23 24  1  0
M  END
