piperidine-amides-24722-covalent
     RDKit          3D

 24 26  0  0  0  0  0  0  0  0999 V2000
    7.0660   -3.3760   19.3940 C   0  0  0  0  0  0  0  0  0  0  0  0
    6.3730   -4.2190   20.3760 C   0  0  0  0  0  0  0  0  0  0  0  0
    5.4000   -4.9160   20.0040 O   0  0  0  0  0  0  0  0  0  0  0  0
    6.8220   -4.2850   21.7110 N   0  0  0  0  0  0  0  0  0  0  0  0
    6.5510   -5.4940   22.4750 C   0  0  0  0  0  0  0  0  0  0  0  0
    6.2870   -5.1060   23.9530 C   0  0  0  0  0  0  0  0  0  0  0  0
    6.3140   -3.5950   24.0340 C   0  0  0  0  0  0  0  0  0  0  0  0
    6.0450   -3.0140   25.3810 C   0  0  0  0  0  0  0  0  0  0  0  0
    5.8640   -1.7900   25.4330 O   0  0  0  0  0  0  0  0  0  0  0  0
    5.9210   -3.7800   26.5620 N   0  0  0  0  0  0  0  0  0  0  0  0
    4.6120   -4.2360   26.7750 C   0  0  0  0  0  0  0  0  0  0  0  0
    4.6990   -5.7270   26.8780 C   0  0  0  0  0  0  0  0  0  0  0  0
    4.4790   -6.0900   28.2370 N   0  0  0  0  0  0  0  0  0  0  0  0
    3.8530   -7.3380   28.6530 C   0  0  0  0  0  0  0  0  0  0  0  0
    5.3820   -5.5060   29.1000 C   0  0  0  0  0  0  0  0  0  0  0  0
    4.5310   -4.6000   29.7540 C   0  0  0  0  0  0  0  0  0  0  0  0
    3.8760   -5.0830   30.8660 C   0  0  0  0  0  0  0  0  0  0  0  0
    4.3940   -6.1130   31.5520 O   0  0  0  0  0  0  0  0  0  0  0  0
    5.3470   -6.9680   31.1260 C   0  0  0  0  0  0  0  0  0  0  0  0
    5.9520   -6.5200   29.8120 C   0  0  0  0  0  0  0  0  0  0  0  0
    6.4740   -4.8710   28.5590 C   0  0  0  0  0  0  0  0  0  0  0  0
    6.3530   -3.5420   27.9210 C   0  0  0  0  0  0  0  0  0  0  0  0
    7.6380   -3.1230   23.5500 C   0  0  0  0  0  0  0  0  0  0  0  0
    7.6900   -3.2540   22.2000 C   0  0  0  0  0  0  0  0  0  0  0  0
  1  2  1  0
  2  3  2  0
  2  4  1  0
  4  5  1  0
  5  6  1  0
  6  7  1  0
  7  8  1  0
  8  9  2  0
  8 10  1  0
 10 11  1  0
 11 12  1  0
 12 13  1  0
 13 14  1  0
 15 13  1  0
 15 16  1  0
 16 17  1  0
 17 18  1  0
 18 19  1  0
 15 20  1  0
 19 20  1  0
 15 21  1  0
 10 22  1  0
 21 22  1  0
  7 23  1  0
  4 24  1  0
 23 24  1  0
M  END
