piperidine-amides-367-covalent
     RDKit          3D

 28 30  0  0  0  0  0  0  0  0999 V2000
    7.1490   -3.2660   19.3040 C   0  0  0  0  0  0  0  0  0  0  0  0
    6.3570   -4.0210   20.2550 C   0  0  0  0  0  0  0  0  0  0  0  0
    5.2770   -4.5640   19.8750 O   0  0  0  0  0  0  0  0  0  0  0  0
    6.7700   -4.2020   21.5800 N   0  0  0  0  0  0  0  0  0  0  0  0
    7.6080   -3.1190   22.1460 C   0  0  0  0  0  0  0  0  0  0  0  0
    7.2830   -3.3020   23.6660 C   0  0  0  0  0  0  0  0  0  0  0  0
    5.8600   -3.7530   23.7040 C   0  0  0  0  0  0  0  0  0  0  0  0
    5.1390   -3.3320   25.0510 C   0  0  0  0  0  0  0  0  0  0  0  0
    4.1620   -2.6310   24.8480 O   0  0  0  0  0  0  0  0  0  0  0  0
    5.7950   -3.8550   25.9890 N   0  0  0  0  0  0  0  0  0  0  0  0
    6.5290   -4.3750   26.9860 C   0  0  2  0  0  0  0  0  0  0  0  0
    6.7730   -5.5700   27.6220 C   0  0  0  0  0  0  0  0  0  0  0  0
    5.7400   -5.8910   28.5340 C   0  0  0  0  0  0  0  0  0  0  0  0
    5.3970   -5.0750   29.6960 C   0  0  0  0  0  0  0  0  0  0  0  0
    4.2430   -5.5770   30.5780 C   0  0  0  0  0  0  0  0  0  0  0  0
    3.6100   -6.7590   30.2100 C   0  0  0  0  0  0  0  0  0  0  0  0
    3.7190   -7.7110   29.1900 C   0  0  0  0  0  0  0  0  0  0  0  0
    4.8840   -7.1080   28.3960 C   0  0  0  0  0  0  0  0  0  0  0  0
    6.3280   -3.2880   28.0820 C   0  0  0  0  0  0  0  0  0  0  0  0
    5.0200   -3.6590   28.0750 C   0  0  0  0  0  0  0  0  0  0  0  0
    4.1500   -3.0170   28.9290 C   0  0  0  0  0  0  0  0  0  0  0  0
    4.5390   -2.0180   29.7900 C   0  0  0  0  0  0  0  0  0  0  0  0
    3.6150   -1.4190   30.6270 O   0  0  0  0  0  0  0  0  0  0  0  0
    3.1800   -2.1490   31.7660 C   0  0  0  0  0  0  0  0  0  0  0  0
    5.8750   -1.6290   29.8010 C   0  0  0  0  0  0  0  0  0  0  0  0
    6.8330   -2.3140   28.8810 C   0  0  0  0  0  0  0  0  0  0  0  0
    5.6060   -5.2060   23.3780 C   0  0  0  0  0  0  0  0  0  0  0  0
    6.5390   -5.4800   22.2040 C   0  0  0  0  0  0  0  0  0  0  0  0
  1  2  1  0
  2  3  2  0
  2  4  1  0
  4  5  1  0
  5  6  1  0
  6  7  1  0
  7  8  1  0
  8  9  2  0
  8 10  1  0
 10 11  1  0
 11 12  1  1
 12 13  1  0
 13 14  2  0
 14 15  1  0
 15 16  2  0
 16 17  1  0
 13 18  1  0
 17 18  2  0
 11 19  1  0
 19 20  2  0
 20 21  1  0
 21 22  2  0
 22 23  1  0
 23 24  1  0
 22 25  1  0
 19 26  1  0
 25 26  2  0
  7 27  1  0
  4 28  1  0
 27 28  1  0
M  END
