piperidine-amides-11668-covalent
     RDKit          3D

 29 31  0  0  0  0  0  0  0  0999 V2000
    7.0980   -3.3300   19.3180 C   0  0  0  0  0  0  0  0  0  0  0  0
    6.3930   -4.1660   20.2820 C   0  0  0  0  0  0  0  0  0  0  0  0
    5.3590   -4.7490   19.9560 O   0  0  0  0  0  0  0  0  0  0  0  0
    6.9380   -4.3580   21.5940 N   0  0  0  0  0  0  0  0  0  0  0  0
    6.5190   -5.4810   22.3920 C   0  0  0  0  0  0  0  0  0  0  0  0
    5.7530   -4.9930   23.5900 C   0  0  0  0  0  0  0  0  0  0  0  0
    6.5370   -3.8470   24.2180 C   0  0  0  0  0  0  0  0  0  0  0  0
    5.7380   -3.2490   25.3230 C   0  0  0  0  0  0  0  0  0  0  0  0
    4.5430   -2.9240   25.1790 O   0  0  0  0  0  0  0  0  0  0  0  0
    6.3500   -3.0410   26.5820 N   0  0  0  0  0  0  0  0  0  0  0  0
    6.3250   -1.7160   27.1690 C   0  0  0  0  0  0  0  0  0  0  0  0
    7.0270   -1.6370   28.4970 C   0  0  0  0  0  0  0  0  0  0  0  0
    7.1090   -0.4560   29.2110 C   0  0  0  0  0  0  0  0  0  0  0  0
    6.5290    0.7290   28.7170 C   0  0  0  0  0  0  0  0  0  0  0  0
    6.6140    1.9080   29.4280 C   0  0  0  0  0  0  0  0  0  0  0  0
    6.1620    1.9260   30.8340 C   0  0  0  0  0  0  0  0  0  0  0  0
    6.1860    3.0270   31.6790 C   0  0  0  0  0  0  0  0  0  0  0  0
    6.6480    4.2540   31.2750 C   0  0  0  0  0  0  0  0  0  0  0  0
    6.6100    5.2590   32.2240 O   0  0  0  0  0  0  0  0  0  0  0  0
    5.3730    5.9100   32.2400 C   0  0  0  0  0  0  0  0  0  0  0  0
    4.2350    4.9820   32.2820 C   0  0  0  0  0  0  0  0  0  0  0  0
    5.1900    6.8830   33.4050 C   0  0  0  0  0  0  0  0  0  0  0  0
    7.1390    4.4360   29.9140 C   0  0  0  0  0  0  0  0  0  0  0  0
    7.0940    3.2320   29.0540 C   0  0  0  0  0  0  0  0  0  0  0  0
    5.8690    0.6980   27.4980 C   0  0  0  0  0  0  0  0  0  0  0  0
    5.7420   -0.5530   26.6640 C   0  0  0  0  0  0  0  0  0  0  0  0
    5.0960   -0.6060   25.4580 F   0  0  0  0  0  0  0  0  0  0  0  0
    6.9420   -2.7680   23.2820 C   0  0  0  0  0  0  0  0  0  0  0  0
    7.6530   -3.2800   22.2080 C   0  0  0  0  0  0  0  0  0  0  0  0
  1  2  1  0
  2  3  2  0
  2  4  1  0
  4  5  1  0
  5  6  1  0
  6  7  1  0
  7  8  1  0
  8  9  2  0
  8 10  1  0
 10 11  1  0
 11 12  2  0
 12 13  1  0
 13 14  2  0
 14 15  1  0
 15 16  2  0
 16 17  1  0
 17 18  2  0
 18 19  1  0
 19 20  1  0
 20 21  1  0
 20 22  1  0
 18 23  1  0
 15 24  1  0
 23 24  2  0
 14 25  1  0
 11 26  1  0
 25 26  2  0
 26 27  1  0
  7 28  1  0
  4 29  1  0
 28 29  1  0
M  END
