piperidine-amides-13765-covalent
     RDKit          3D

 27 29  0  0  0  0  0  0  0  0999 V2000
    7.0950   -3.3160   19.2950 C   0  0  0  0  0  0  0  0  0  0  0  0
    6.3740   -4.1590   20.2890 C   0  0  0  0  0  0  0  0  0  0  0  0
    5.3270   -4.7370   19.9490 O   0  0  0  0  0  0  0  0  0  0  0  0
    6.9310   -4.3190   21.5770 N   0  0  0  0  0  0  0  0  0  0  0  0
    7.7580   -3.2950   22.1730 C   0  0  0  0  0  0  0  0  0  0  0  0
    6.9660   -2.7290   23.3400 C   0  0  0  0  0  0  0  0  0  0  0  0
    6.5980   -3.8680   24.2250 C   0  0  0  0  0  0  0  0  0  0  0  0
    5.9910   -3.3660   25.4650 C   0  0  0  0  0  0  0  0  0  0  0  0
    4.7510   -3.3600   25.5290 O   0  0  0  0  0  0  0  0  0  0  0  0
    6.8330   -2.9180   26.4830 N   0  0  0  0  0  0  0  0  0  0  0  0
    6.7070   -1.7230   27.2390 C   0  0  0  0  0  0  0  0  0  0  0  0
    7.2200   -1.5980   28.5160 C   0  0  0  0  0  0  0  0  0  0  0  0
    7.1170   -0.4390   29.3100 C   0  0  0  0  0  0  0  0  0  0  0  0
    6.4800    0.6930   28.8560 C   0  0  0  0  0  0  0  0  0  0  0  0
    5.9090    0.6440   27.5030 C   0  0  0  0  0  0  0  0  0  0  0  0
    6.0320   -0.6200   26.6680 C   0  0  0  0  0  0  0  0  0  0  0  0
    5.4550   -0.5970   25.3610 N   0  0  0  0  0  0  0  0  0  0  0  0
    5.3660    0.6970   24.7890 C   0  0  0  0  0  0  0  0  0  0  0  0
    6.3950    1.2140   24.1080 C   0  0  0  0  0  0  0  0  0  0  0  0
    6.2760    2.5520   23.5360 C   0  0  0  0  0  0  0  0  0  0  0  0
    4.9080    3.2000   23.8220 C   0  0  0  0  0  0  0  0  0  0  0  0
    4.7910    4.4550   23.2880 F   0  0  0  0  0  0  0  0  0  0  0  0
    3.7580    2.7690   24.5150 C   0  0  0  0  0  0  0  0  0  0  0  0
    4.1960    1.3510   24.9870 C   0  0  0  0  0  0  0  0  0  0  0  0
    3.1740    0.7570   25.7080 F   0  0  0  0  0  0  0  0  0  0  0  0
    5.7440   -4.9160   23.5800 C   0  0  0  0  0  0  0  0  0  0  0  0
    6.5610   -5.4470   22.4010 C   0  0  0  0  0  0  0  0  0  0  0  0
  1  2  1  0
  2  3  2  0
  2  4  1  0
  4  5  1  0
  5  6  1  0
  6  7  1  0
  7  8  1  0
  8  9  2  0
  8 10  1  0
 10 11  1  0
 11 12  2  0
 12 13  1  0
 13 14  2  0
 14 15  1  0
 11 16  1  0
 15 16  2  0
 16 17  1  0
 17 18  1  0
 18 19  2  0
 19 20  1  0
 20 21  2  0
 21 22  1  0
 21 23  1  0
 18 24  1  0
 23 24  2  0
 24 25  1  0
  7 26  1  0
  4 27  1  0
 26 27  1  0
M  END
