piperidine-amides-23648-covalent
     RDKit          3D

 22 23  0  0  0  0  0  0  0  0999 V2000
    7.0960   -3.3820   19.2960 C   0  0  0  0  0  0  0  0  0  0  0  0
    6.4080   -4.1790   20.3190 C   0  0  0  0  0  0  0  0  0  0  0  0
    5.3630   -4.7790   19.9670 O   0  0  0  0  0  0  0  0  0  0  0  0
    6.9530   -4.2950   21.6200 N   0  0  0  0  0  0  0  0  0  0  0  0
    6.6490   -5.4530   22.4020 C   0  0  0  0  0  0  0  0  0  0  0  0
    6.1630   -5.1200   23.7340 C   0  0  0  0  0  0  0  0  0  0  0  0
    6.1720   -3.6670   23.9660 C   0  0  0  0  0  0  0  0  0  0  0  0
    5.6320   -3.2150   25.2840 C   0  0  0  0  0  0  0  0  0  0  0  0
    4.7090   -2.3830   25.2910 O   0  0  0  0  0  0  0  0  0  0  0  0
    6.0790   -3.6890   26.5160 N   0  0  0  0  0  0  0  0  0  0  0  0
    6.0640   -2.8980   27.6950 C   0  0  0  0  0  0  0  0  0  0  0  0
    5.8110   -3.6990   28.8400 C   0  0  1  0  0  0  0  0  0  0  0  0
    4.5770   -3.1540   29.5790 C   0  0  0  0  0  0  0  0  0  0  0  0
    5.6170   -5.0500   28.4220 C   0  0  2  0  0  0  0  0  0  0  0  0
    6.6230   -6.0210   28.9930 C   0  0  0  0  0  0  0  0  0  0  0  0
    5.6110   -6.8320   30.1130 S   0  0  0  0  0  0  0  0  0  0  0  0
    5.3230   -8.2170   29.5010 N   0  0  0  0  0  0  0  0  0  0  0  0
    6.2480   -6.9820   31.4740 O   0  0  0  0  0  0  0  0  0  0  0  0
    4.3790   -6.0150   30.2850 O   0  0  0  0  0  0  0  0  0  0  0  0
    5.7800   -5.0700   26.8950 C   0  0  0  0  0  0  0  0  0  0  0  0
    7.5630   -3.1310   23.6830 C   0  0  0  0  0  0  0  0  0  0  0  0
    7.7840   -3.2460   22.1980 C   0  0  0  0  0  0  0  0  0  0  0  0
  1  2  1  0
  2  3  2  0
  2  4  1  0
  4  5  1  0
  5  6  1  0
  6  7  1  0
  7  8  1  0
  8  9  2  0
  8 10  1  0
 10 11  1  0
 11 12  1  0
 12 13  1  6
 12 14  1  0
 14 15  1  1
 15 16  1  0
 16 17  1  0
 16 18  2  0
 16 19  2  0
 10 20  1  0
 14 20  1  0
  7 21  1  0
  4 22  1  0
 21 22  1  0
M  END
