piperidine-amides-33074-covalent
     RDKit          3D

 28 31  0  0  0  0  0  0  0  0999 V2000
    7.1240   -3.3440   19.3480 C   0  0  0  0  0  0  0  0  0  0  0  0
    6.4630   -4.2020   20.3410 C   0  0  0  0  0  0  0  0  0  0  0  0
    5.4080   -4.7820   19.9790 O   0  0  0  0  0  0  0  0  0  0  0  0
    7.0490   -4.4000   21.6210 N   0  0  0  0  0  0  0  0  0  0  0  0
    6.6450   -5.5450   22.3750 C   0  0  0  0  0  0  0  0  0  0  0  0
    6.0640   -5.1880   23.6640 C   0  0  0  0  0  0  0  0  0  0  0  0
    6.0010   -3.7320   23.8520 C   0  0  0  0  0  0  0  0  0  0  0  0
    5.1970   -3.3160   25.0480 C   0  0  0  0  0  0  0  0  0  0  0  0
    4.0130   -3.0000   24.8630 O   0  0  0  0  0  0  0  0  0  0  0  0
    5.6490   -3.2650   26.3680 N   0  0  0  0  0  0  0  0  0  0  0  0
    4.7790   -3.3400   27.4930 C   0  0  0  0  0  0  0  0  0  0  0  0
    5.2880   -3.6880   28.7990 C   0  0  0  0  0  0  0  0  0  0  0  0
    6.5820   -4.3990   28.4860 C   0  0  0  0  0  0  0  0  0  0  0  0
    7.0170   -5.5560   29.2110 N   0  0  0  0  0  0  0  0  0  0  0  0
    8.3110   -5.8220   28.4680 C   0  0  0  0  0  0  0  0  0  0  0  0
    8.5810   -4.9560   27.4670 N   0  0  0  0  0  0  0  0  0  0  0  0
    7.5410   -4.0770   27.4500 C   0  0  0  0  0  0  0  0  0  0  0  0
    6.9680   -2.9060   26.7510 C   0  0  2  0  0  0  0  0  0  0  0  0
    6.8550   -1.7660   27.7970 C   0  0  0  0  0  0  0  0  0  0  0  0
    7.7770   -1.5220   28.9720 C   0  0  0  0  0  0  0  0  0  0  0  0
    7.4570   -0.3110   29.8640 C   0  0  0  0  0  0  0  0  0  0  0  0
    8.4030    0.1610   31.2680 Cl  0  0  0  0  0  0  0  0  0  0  0  0
    6.2510    0.5750   29.5430 C   0  0  0  0  0  0  0  0  0  0  0  0
    5.4580    0.2000   28.3630 C   0  0  0  0  0  0  0  0  0  0  0  0
    5.7650   -0.8930   27.5690 C   0  0  0  0  0  0  0  0  0  0  0  0
    4.8750   -1.0510   26.4970 F   0  0  0  0  0  0  0  0  0  0  0  0
    7.3020   -3.0520   23.6430 C   0  0  0  0  0  0  0  0  0  0  0  0
    7.7790   -3.3060   22.2320 C   0  0  0  0  0  0  0  0  0  0  0  0
  1  2  1  0
  2  3  2  0
  2  4  1  0
  4  5  1  0
  5  6  1  0
  6  7  1  0
  7  8  1  0
  8  9  2  0
  8 10  1  0
 10 11  1  0
 11 12  1  0
 12 13  1  0
 13 14  1  0
 14 15  2  0
 15 16  1  0
 13 17  2  0
 16 17  1  0
 10 18  1  0
 17 18  1  0
 18 19  1  1
 19 20  2  0
 20 21  1  0
 21 22  1  0
 21 23  2  0
 23 24  1  0
 19 25  1  0
 24 25  2  0
 25 26  1  0
  7 27  1  0
  4 28  1  0
 27 28  1  0
M  END
