piperidine-amides-12711-covalent
     RDKit          3D

 22 23  0  0  0  0  0  0  0  0999 V2000
    7.0670   -3.3200   19.2290 C   0  0  0  0  0  0  0  0  0  0  0  0
    6.3780   -4.1040   20.2800 C   0  0  0  0  0  0  0  0  0  0  0  0
    5.3230   -4.6650   19.9280 O   0  0  0  0  0  0  0  0  0  0  0  0
    6.9150   -4.2470   21.5770 N   0  0  0  0  0  0  0  0  0  0  0  0
    6.5700   -5.3760   22.3750 C   0  0  0  0  0  0  0  0  0  0  0  0
    6.0280   -4.9990   23.6770 C   0  0  0  0  0  0  0  0  0  0  0  0
    6.1420   -3.5480   23.9300 C   0  0  0  0  0  0  0  0  0  0  0  0
    5.6790   -3.2000   25.2980 C   0  0  0  0  0  0  0  0  0  0  0  0
    4.4520   -3.1310   25.4780 O   0  0  0  0  0  0  0  0  0  0  0  0
    6.5610   -2.9380   26.3620 N   0  0  0  0  0  0  0  0  0  0  0  0
    6.2640   -3.2870   27.7760 C   0  0  0  0  0  0  0  0  0  0  0  0
    5.0700   -4.1690   27.9330 C   0  0  0  0  0  0  0  0  0  0  0  0
    3.6990   -3.8380   27.6240 C   0  0  0  0  0  0  0  0  0  0  0  0
    2.6760   -4.7240   27.8100 C   0  0  0  0  0  0  0  0  0  0  0  0
    2.9210   -5.9970   28.3120 C   0  0  0  0  0  0  0  0  0  0  0  0
    1.4270   -7.1710   28.5420 Br  0  0  0  0  0  0  0  0  0  0  0  0
    4.2050   -6.3900   28.6310 C   0  0  0  0  0  0  0  0  0  0  0  0
    4.4190   -7.6530   29.1290 F   0  0  0  0  0  0  0  0  0  0  0  0
    5.2910   -5.5630   28.4750 C   0  0  0  0  0  0  0  0  0  0  0  0
    6.5270   -6.0200   28.8140 F   0  0  0  0  0  0  0  0  0  0  0  0
    7.4440   -2.9630   23.5310 C   0  0  0  0  0  0  0  0  0  0  0  0
    7.7030   -3.1800   22.1690 C   0  0  0  0  0  0  0  0  0  0  0  0
  1  2  1  0
  2  3  2  0
  2  4  1  0
  4  5  1  0
  5  6  1  0
  6  7  1  0
  7  8  1  0
  8  9  2  0
  8 10  1  0
 10 11  1  0
 11 12  1  0
 12 13  2  0
 13 14  1  0
 14 15  2  0
 15 16  1  0
 15 17  1  0
 17 18  1  0
 12 19  1  0
 17 19  2  0
 19 20  1  0
  7 21  1  0
  4 22  1  0
 21 22  1  0
M  END
