piperidine-amides-7224-covalent
     RDKit          3D

 21 22  0  0  0  0  0  0  0  0999 V2000
    7.0540   -3.2930   19.2890 C   0  0  0  0  0  0  0  0  0  0  0  0
    6.3330   -4.0690   20.3100 C   0  0  0  0  0  0  0  0  0  0  0  0
    5.2920   -4.6560   19.9170 O   0  0  0  0  0  0  0  0  0  0  0  0
    6.8060   -4.1750   21.6250 N   0  0  0  0  0  0  0  0  0  0  0  0
    6.6720   -5.4090   22.3630 C   0  0  0  0  0  0  0  0  0  0  0  0
    6.0560   -5.0940   23.6970 C   0  0  0  0  0  0  0  0  0  0  0  0
    6.0320   -3.6100   23.9530 C   0  0  0  0  0  0  0  0  0  0  0  0
    5.6130   -3.3080   25.3460 C   0  0  0  0  0  0  0  0  0  0  0  0
    4.3930   -3.1470   25.5530 O   0  0  0  0  0  0  0  0  0  0  0  0
    6.4980   -3.1830   26.4360 N   0  0  0  0  0  0  0  0  0  0  0  0
    6.2150   -3.7590   27.7420 C   0  0  0  0  0  0  0  0  0  0  0  0
    5.8500   -5.2500   27.7250 C   0  0  0  0  0  0  0  0  0  0  0  0
    5.2690   -5.5640   29.0480 N   0  0  0  0  0  0  0  0  0  0  0  0
    5.9050   -6.5490   29.7320 N   0  0  0  0  0  0  0  0  0  0  0  0
    5.2270   -6.6730   30.8820 C   0  0  0  0  0  0  0  0  0  0  0  0
    5.6200   -7.5980   31.8190 C   0  0  0  0  0  0  0  0  0  0  0  0
    4.2160   -5.7860   30.8820 C   0  0  0  0  0  0  0  0  0  0  0  0
    4.2110   -5.0580   29.7280 C   0  0  0  0  0  0  0  0  0  0  0  0
    3.3250   -4.0610   29.3850 C   0  0  0  0  0  0  0  0  0  0  0  0
    7.4050   -3.0060   23.6640 C   0  0  0  0  0  0  0  0  0  0  0  0
    7.6530   -3.1240   22.1590 C   0  0  0  0  0  0  0  0  0  0  0  0
  1  2  1  0
  2  3  2  0
  2  4  1  0
  4  5  1  0
  5  6  1  0
  6  7  1  0
  7  8  1  0
  8  9  2  0
  8 10  1  0
 10 11  1  0
 11 12  1  0
 12 13  1  0
 13 14  1  0
 14 15  2  0
 15 16  1  0
 15 17  1  0
 13 18  1  0
 17 18  2  0
 18 19  1  0
  7 20  1  0
  4 21  1  0
 20 21  1  0
M  END
