piperidine-amides-30040-covalent
     RDKit          3D

 27 29  0  0  0  0  0  0  0  0999 V2000
    7.0330   -3.3490   19.3980 C   0  0  0  0  0  0  0  0  0  0  0  0
    6.3660   -4.2230   20.3630 C   0  0  0  0  0  0  0  0  0  0  0  0
    5.4040   -4.8980   19.9960 O   0  0  0  0  0  0  0  0  0  0  0  0
    6.8460   -4.3290   21.7200 N   0  0  0  0  0  0  0  0  0  0  0  0
    7.7130   -3.2900   22.2580 C   0  0  0  0  0  0  0  0  0  0  0  0
    7.4710   -3.0570   23.7260 C   0  0  0  0  0  0  0  0  0  0  0  0
    6.1570   -3.7250   24.0460 C   0  0  0  0  0  0  0  0  0  0  0  0
    5.5890   -3.3680   25.3960 C   0  0  0  0  0  0  0  0  0  0  0  0
    4.6350   -2.5720   25.4670 O   0  0  0  0  0  0  0  0  0  0  0  0
    6.0660   -3.8970   26.6280 N   0  0  0  0  0  0  0  0  0  0  0  0
    6.0360   -2.9910   27.7670 C   0  0  0  0  0  0  0  0  0  0  0  0
    5.3860   -3.6730   28.9580 C   0  0  0  0  0  0  0  0  0  0  0  0
    5.4870   -4.9800   29.2500 N   0  0  0  0  0  0  0  0  0  0  0  0
    4.2760   -5.4270   29.6380 C   0  0  0  0  0  0  0  0  0  0  0  0
    4.0120   -6.4080   30.6000 C   0  0  0  0  0  0  0  0  0  0  0  0
    4.9420   -6.8530   31.5570 C   0  0  0  0  0  0  0  0  0  0  0  0
    4.6980   -7.8790   32.5910 C   0  0  0  0  0  0  0  0  0  0  0  0
    5.6290   -8.2920   33.5160 C   0  0  0  0  0  0  0  0  0  0  0  0
    3.4700   -8.4310   32.6040 C   0  0  0  0  0  0  0  0  0  0  0  0
    2.5170   -8.0500   31.7020 C   0  0  0  0  0  0  0  0  0  0  0  0
    2.7730   -7.0420   30.6960 C   0  0  0  0  0  0  0  0  0  0  0  0
    1.9850   -6.6270   29.8400 O   0  0  0  0  0  0  0  0  0  0  0  0
    2.0670   -7.3850   28.7040 C   0  0  0  0  0  0  0  0  0  0  0  0
    6.0990   -5.6590   28.1710 C   0  0  0  0  0  0  0  0  0  0  0  0
    5.8630   -5.3080   26.7460 C   0  0  0  0  0  0  0  0  0  0  0  0
    6.1980   -5.2060   23.8560 C   0  0  0  0  0  0  0  0  0  0  0  0
    6.6500   -5.5580   22.4490 C   0  0  0  0  0  0  0  0  0  0  0  0
  1  2  1  0
  2  3  2  0
  2  4  1  0
  4  5  1  0
  5  6  1  0
  6  7  1  0
  7  8  1  0
  8  9  2  0
  8 10  1  0
 10 11  1  0
 11 12  1  0
 12 13  1  0
 13 14  1  0
 14 15  1  0
 15 16  2  0
 16 17  1  0
 17 18  1  0
 17 19  2  0
 19 20  1  0
 15 21  1  0
 20 21  2  0
 21 22  1  0
 22 23  1  0
 13 24  1  0
 10 25  1  0
 24 25  1  0
  7 26  1  0
  4 27  1  0
 26 27  1  0
M  END
