piperidine-amides-3311-covalent
     RDKit          3D

 22 23  0  0  0  0  0  0  0  0999 V2000
    7.0720   -3.3590   19.3070 C   0  0  0  0  0  0  0  0  0  0  0  0
    6.3870   -4.1770   20.2980 C   0  0  0  0  0  0  0  0  0  0  0  0
    5.3770   -4.8040   19.9780 O   0  0  0  0  0  0  0  0  0  0  0  0
    6.9250   -4.2910   21.6260 N   0  0  0  0  0  0  0  0  0  0  0  0
    7.7380   -3.2110   22.1550 C   0  0  0  0  0  0  0  0  0  0  0  0
    7.5130   -3.0020   23.6330 C   0  0  0  0  0  0  0  0  0  0  0  0
    6.1790   -3.6260   23.9860 C   0  0  0  0  0  0  0  0  0  0  0  0
    5.7080   -3.1900   25.3280 C   0  0  0  0  0  0  0  0  0  0  0  0
    4.4980   -3.2600   25.6420 O   0  0  0  0  0  0  0  0  0  0  0  0
    6.6450   -2.6530   26.2540 N   0  0  0  0  0  0  0  0  0  0  0  0
    6.1520   -1.8490   27.3550 C   0  0  0  0  0  0  0  0  0  0  0  0
    5.0090   -2.6610   27.9130 C   0  0  0  0  0  0  0  0  0  0  0  0
    5.1300   -4.0250   27.7090 O   0  0  0  0  0  0  0  0  0  0  0  0
    3.9090   -2.2560   28.5800 N   0  0  0  0  0  0  0  0  0  0  0  0
    3.1180   -3.3080   28.8480 C   0  0  0  0  0  0  0  0  0  0  0  0
    2.4110   -3.8920   27.7890 C   0  0  0  0  0  0  0  0  0  0  0  0
    5.6780   -0.5620   26.7340 C   0  0  0  0  0  0  0  0  0  0  0  0
    5.9270    0.4940   27.6740 C   0  0  0  0  0  0  0  0  0  0  0  0
    6.5850   -0.0110   28.7420 C   0  0  0  0  0  0  0  0  0  0  0  0
    6.8970   -1.3130   28.4140 C   0  0  0  0  0  0  0  0  0  0  0  0
    6.0960   -5.0840   23.7550 C   0  0  0  0  0  0  0  0  0  0  0  0
    6.5710   -5.4170   22.4170 C   0  0  0  0  0  0  0  0  0  0  0  0
  1  2  1  0
  2  3  2  0
  2  4  1  0
  4  5  1  0
  5  6  1  0
  6  7  1  0
  7  8  1  0
  8  9  2  0
  8 10  1  0
 10 11  1  0
 11 12  1  0
 12 13  2  0
 12 14  1  0
 14 15  1  0
 15 16  1  0
 11 17  1  0
 17 18  1  0
 18 19  1  0
 11 20  1  0
 19 20  1  0
  7 21  1  0
  4 22  1  0
 21 22  1  0
M  END
