piperidine-amides-32631-covalent
     RDKit          3D

 29 31  0  0  0  0  0  0  0  0999 V2000
    7.1290   -3.2990   19.2440 C   0  0  0  0  0  0  0  0  0  0  0  0
    6.3500   -4.0550   20.2590 C   0  0  0  0  0  0  0  0  0  0  0  0
    5.3010   -4.6220   19.9130 O   0  0  0  0  0  0  0  0  0  0  0  0
    6.8580   -4.1400   21.5700 N   0  0  0  0  0  0  0  0  0  0  0  0
    7.6490   -3.0780   22.1380 C   0  0  0  0  0  0  0  0  0  0  0  0
    6.8480   -2.5410   23.3240 C   0  0  0  0  0  0  0  0  0  0  0  0
    6.6290   -3.6870   24.2500 C   0  0  0  0  0  0  0  0  0  0  0  0
    5.7750   -3.3380   25.4170 C   0  0  0  0  0  0  0  0  0  0  0  0
    4.5570   -3.3080   25.1960 O   0  0  0  0  0  0  0  0  0  0  0  0
    6.3240   -3.0460   26.6830 N   0  0  0  0  0  0  0  0  0  0  0  0
    6.6940   -1.7220   27.0480 C   0  0  0  0  0  0  0  0  0  0  0  0
    5.8100   -0.7990   27.5370 C   0  0  0  0  0  0  0  0  0  0  0  0
    5.5570    0.3680   26.7630 C   0  0  0  0  0  0  0  0  0  0  0  0
    4.6900    1.3760   27.1390 C   0  0  0  0  0  0  0  0  0  0  0  0
    3.9670    1.2650   28.4180 C   0  0  0  0  0  0  0  0  0  0  0  0
    4.1730    0.0590   29.3100 C   0  0  0  0  0  0  0  0  0  0  0  0
    5.1620   -0.9440   28.7330 C   0  0  0  0  0  0  0  0  0  0  0  0
    6.1160   -4.0400   27.7010 C   0  0  0  0  0  0  0  0  0  0  0  0
    5.6010   -5.4010   27.3680 C   0  0  1  0  0  0  0  0  0  0  0  0
    6.4940   -6.1800   27.0160 O   0  0  0  0  0  0  0  0  0  0  0  0
    5.0450   -5.6210   28.7620 C   0  0  0  0  0  0  0  0  0  0  0  0
    4.2180   -5.0190   29.5300 C   0  0  0  0  0  0  0  0  0  0  0  0
    3.6720   -5.1450   30.7600 N   0  0  0  0  0  0  0  0  0  0  0  0
    4.4390   -6.2940   30.8550 N   0  0  0  0  0  0  0  0  0  0  0  0
    4.4020   -7.0450   31.9470 C   0  0  0  0  0  0  0  0  0  0  0  0
    5.6680   -7.6770   32.4710 C   0  0  0  0  0  0  0  0  0  0  0  0
    5.2610   -6.6150   29.7120 C   0  0  0  0  0  0  0  0  0  0  0  0
    5.9120   -4.8660   23.6070 C   0  0  0  0  0  0  0  0  0  0  0  0
    6.4200   -5.2280   22.3700 C   0  0  0  0  0  0  0  0  0  0  0  0
  1  2  1  0
  2  3  2  0
  2  4  1  0
  4  5  1  0
  5  6  1  0
  6  7  1  0
  7  8  1  0
  8  9  2  0
  8 10  1  0
 10 11  1  0
 11 12  1  0
 12 13  2  0
 13 14  1  0
 14 15  2  0
 15 16  1  0
 12 17  1  0
 16 17  2  0
 10 18  1  0
 18 19  1  0
 19 20  1  1
 19 21  1  0
 21 22  1  0
 22 23  2  0
 23 24  1  0
 24 25  1  0
 25 26  1  0
 21 27  2  0
 24 27  1  0
  7 28  1  0
  4 29  1  0
 28 29  1  0
M  END
