piperidine-amides-4133-covalent
     RDKit          3D

 28 31  0  0  0  0  0  0  0  0999 V2000
    7.1160   -3.2980   19.2560 C   0  0  0  0  0  0  0  0  0  0  0  0
    6.3960   -4.1020   20.2560 C   0  0  0  0  0  0  0  0  0  0  0  0
    5.3050   -4.6060   19.9040 O   0  0  0  0  0  0  0  0  0  0  0  0
    6.9420   -4.3530   21.5360 N   0  0  0  0  0  0  0  0  0  0  0  0
    7.5630   -3.2520   22.1850 C   0  0  0  0  0  0  0  0  0  0  0  0
    6.9270   -2.8540   23.4340 C   0  0  0  0  0  0  0  0  0  0  0  0
    6.3470   -3.9510   24.2350 C   0  0  0  0  0  0  0  0  0  0  0  0
    5.6780   -3.4110   25.4630 C   0  0  0  0  0  0  0  0  0  0  0  0
    4.4320   -3.3290   25.5380 O   0  0  0  0  0  0  0  0  0  0  0  0
    6.4510   -2.9850   26.5580 N   0  0  0  0  0  0  0  0  0  0  0  0
    6.4500   -1.7520   27.2550 C   0  0  0  0  0  0  0  0  0  0  0  0
    7.0010   -1.5900   28.5700 C   0  0  0  0  0  0  0  0  0  0  0  0
    6.9580   -0.2420   29.2570 C   0  0  0  0  0  0  0  0  0  0  0  0
    6.4120    0.9100   28.7150 C   0  0  0  0  0  0  0  0  0  0  0  0
    5.8070    0.7900   27.2950 C   0  0  0  0  0  0  0  0  0  0  0  0
    5.8470   -0.5520   26.6050 C   0  0  0  0  0  0  0  0  0  0  0  0
    5.2970    2.0730   26.9020 N   0  0  0  0  0  0  0  0  0  0  0  0
    4.2930    2.1250   26.0070 C   0  0  0  0  0  0  0  0  0  0  0  0
    4.6250    1.7820   24.6970 O   0  0  0  0  0  0  0  0  0  0  0  0
    2.9350    2.5600   26.5250 C   0  0  0  0  0  0  0  0  0  0  0  0
    3.0460    4.0460   26.8340 C   0  0  0  0  0  0  0  0  0  0  0  0
    2.3760    4.3150   28.1780 C   0  0  0  0  0  0  0  0  0  0  0  0
    2.0580    2.9360   28.6110 C   0  0  0  0  0  0  0  0  0  0  0  0
    2.8020    1.9570   27.9430 C   0  0  0  0  0  0  0  0  0  0  0  0
    5.6070    2.9370   28.0710 C   0  0  0  0  0  0  0  0  0  0  0  0
    6.2980    2.1910   29.1990 C   0  0  0  0  0  0  0  0  0  0  0  0
    5.5130   -4.8830   23.4080 C   0  0  0  0  0  0  0  0  0  0  0  0
    6.3780   -5.4230   22.2890 C   0  0  0  0  0  0  0  0  0  0  0  0
  1  2  1  0
  2  3  2  0
  2  4  1  0
  4  5  1  0
  5  6  1  0
  6  7  1  0
  7  8  1  0
  8  9  2  0
  8 10  1  0
 10 11  1  0
 11 12  2  0
 12 13  1  0
 13 14  2  0
 14 15  1  0
 11 16  1  0
 15 16  2  0
 15 17  1  0
 17 18  1  0
 18 19  2  0
 18 20  1  0
 20 21  1  0
 21 22  1  0
 22 23  1  0
 20 24  1  0
 23 24  1  0
 17 25  1  0
 14 26  1  0
 25 26  1  0
  7 27  1  0
  4 28  1  0
 27 28  1  0
M  END
