piperidine-amides-10414-covalent
     RDKit          3D

 24 26  0  0  0  0  0  0  0  0999 V2000
    7.0580   -3.2750   19.2540 C   0  0  0  0  0  0  0  0  0  0  0  0
    6.3350   -4.0330   20.2850 C   0  0  0  0  0  0  0  0  0  0  0  0
    5.2890   -4.6200   19.9070 O   0  0  0  0  0  0  0  0  0  0  0  0
    6.8160   -4.1220   21.5980 N   0  0  0  0  0  0  0  0  0  0  0  0
    7.7390   -3.1500   22.1460 C   0  0  0  0  0  0  0  0  0  0  0  0
    7.4460   -3.0200   23.6080 C   0  0  0  0  0  0  0  0  0  0  0  0
    6.1010   -3.6090   23.9260 C   0  0  0  0  0  0  0  0  0  0  0  0
    5.6730   -3.2650   25.2990 C   0  0  0  0  0  0  0  0  0  0  0  0
    4.4500   -3.1380   25.5070 O   0  0  0  0  0  0  0  0  0  0  0  0
    6.5660   -3.0690   26.3710 N   0  0  0  0  0  0  0  0  0  0  0  0
    6.1730   -3.2730   27.7490 C   0  0  0  0  0  0  0  0  0  0  0  0
    6.3180   -4.7070   28.2620 C   0  0  0  0  0  0  0  0  0  0  0  0
    5.5010   -5.3330   29.1760 C   0  0  0  0  0  0  0  0  0  0  0  0
    4.2820   -4.8130   29.5940 C   0  0  0  0  0  0  0  0  0  0  0  0
    3.1660   -5.6180   29.7150 N   0  0  0  0  0  0  0  0  0  0  0  0
    2.0860   -4.9050   30.1370 N   0  0  0  0  0  0  0  0  0  0  0  0
    2.5730   -3.6030   30.2790 C   0  0  0  0  0  0  0  0  0  0  0  0
    3.8570   -3.5720   29.9590 N   0  0  0  0  0  0  0  0  0  0  0  0
    4.5390   -2.2840   30.0490 C   0  0  0  0  0  0  0  0  0  0  0  0
    3.9620   -1.9700   31.2690 C   0  0  0  0  0  0  0  0  0  0  0  0
    2.6250   -1.2590   31.2560 C   0  0  0  0  0  0  0  0  0  0  0  0
    1.7910   -2.4150   30.7230 C   0  0  0  0  0  0  0  0  0  0  0  0
    6.0800   -5.1260   23.6720 C   0  0  0  0  0  0  0  0  0  0  0  0
    6.7050   -5.3940   22.3070 C   0  0  0  0  0  0  0  0  0  0  0  0
  1  2  1  0
  2  3  2  0
  2  4  1  0
  4  5  1  0
  5  6  1  0
  6  7  1  0
  7  8  1  0
  8  9  2  0
  8 10  1  0
 10 11  1  0
 11 12  1  0
 12 13  1  0
 13 14  1  0
 14 15  2  0
 15 16  1  0
 16 17  2  0
 14 18  1  0
 17 18  1  0
 18 19  1  0
 19 20  1  0
 20 21  1  0
 17 22  1  0
 21 22  1  0
  7 23  1  0
  4 24  1  0
 23 24  1  0
M  END
