piperidine-amides-19870-covalent
     RDKit          3D

 22 24  0  0  0  0  0  0  0  0999 V2000
    7.0900   -3.3080   19.2200 C   0  0  0  0  0  0  0  0  0  0  0  0
    6.3840   -4.1040   20.2560 C   0  0  0  0  0  0  0  0  0  0  0  0
    5.3360   -4.6550   19.9250 O   0  0  0  0  0  0  0  0  0  0  0  0
    6.9350   -4.2450   21.5270 N   0  0  0  0  0  0  0  0  0  0  0  0
    6.6730   -5.4110   22.3310 C   0  0  0  0  0  0  0  0  0  0  0  0
    5.9620   -4.9830   23.5820 C   0  0  0  0  0  0  0  0  0  0  0  0
    6.6880   -3.7830   24.1980 C   0  0  0  0  0  0  0  0  0  0  0  0
    5.8840   -3.3200   25.3430 C   0  0  0  0  0  0  0  0  0  0  0  0
    5.0150   -2.4520   25.1910 O   0  0  0  0  0  0  0  0  0  0  0  0
    6.0940   -3.8890   26.6010 N   0  0  0  0  0  0  0  0  0  0  0  0
    6.3570   -3.1620   27.7310 C   0  0  0  0  0  0  0  0  0  0  0  0
    5.9200   -4.2910   28.6310 C   0  0  1  0  0  0  0  0  0  0  0  0
    4.6440   -4.1230   29.0910 C   0  0  0  0  0  0  0  0  0  0  0  0
    4.2770   -5.2510   29.6200 C   0  0  0  0  0  0  0  0  0  0  0  0
    5.3040   -5.9990   29.2770 C   0  0  0  0  0  0  0  0  0  0  0  0
    6.0470   -5.7400   27.9750 C   0  0  1  0  0  0  0  0  0  0  0  0
    5.2060   -4.8250   27.1140 C   0  0  2  0  0  0  0  0  0  0  0  0
    4.4220   -5.8760   26.3650 C   0  0  0  0  0  0  0  0  0  0  0  0
    3.5420   -5.6060   25.4610 N   0  0  0  0  0  0  0  0  0  0  0  0
    4.7370   -7.1570   26.7610 O   0  0  0  0  0  0  0  0  0  0  0  0
    7.0360   -2.7000   23.2750 C   0  0  0  0  0  0  0  0  0  0  0  0
    7.7370   -3.1760   22.0660 C   0  0  0  0  0  0  0  0  0  0  0  0
  1  2  1  0
  2  3  2  0
  2  4  1  0
  4  5  1  0
  5  6  1  0
  6  7  1  0
  7  8  1  0
  8  9  2  0
  8 10  1  0
 10 11  1  0
 12 11  1  6
 12 13  1  0
 13 14  1  0
 14 15  1  0
 12 16  1  0
 16 15  1  1
 10 17  1  0
 16 17  1  0
 17 18  1  6
 18 19  1  0
 18 20  2  0
  7 21  1  0
  4 22  1  0
 21 22  1  0
M  END
