piperidine-amides-18905-covalent
     RDKit          3D

 21 22  0  0  0  0  0  0  0  0999 V2000
    7.1090   -3.3650   19.4690 C   0  0  0  0  0  0  0  0  0  0  0  0
    6.4350   -4.2280   20.4110 C   0  0  0  0  0  0  0  0  0  0  0  0
    5.4310   -4.9000   20.0000 O   0  0  0  0  0  0  0  0  0  0  0  0
    6.8720   -4.3700   21.7490 N   0  0  0  0  0  0  0  0  0  0  0  0
    6.3950   -5.5600   22.4760 C   0  0  0  0  0  0  0  0  0  0  0  0
    5.3980   -4.8480   23.4720 C   0  0  0  0  0  0  0  0  0  0  0  0
    6.2380   -3.9070   24.3140 C   0  0  0  0  0  0  0  0  0  0  0  0
    5.3850   -3.4820   25.6040 C   0  0  0  0  0  0  0  0  0  0  0  0
    4.4920   -2.7260   25.2570 O   0  0  0  0  0  0  0  0  0  0  0  0
    5.8430   -4.0340   26.6740 N   0  0  0  0  0  0  0  0  0  0  0  0
    6.3730   -4.9300   27.5340 C   0  0  0  0  0  0  0  0  0  0  0  0
    6.1570   -5.5000   28.7230 C   0  0  0  0  0  0  0  0  0  0  0  0
    5.6390   -4.5430   29.5690 O   0  0  0  0  0  0  0  0  0  0  0  0
    4.9300   -3.5740   28.9130 C   0  0  1  0  0  0  0  0  0  0  0  0
    4.6400   -2.6030   30.0010 C   0  0  0  0  0  0  0  0  0  0  0  0
    5.1750   -1.2870   29.4110 C   0  0  0  0  0  0  0  0  0  0  0  0
    3.9700   -1.8510   28.8290 C   0  0  0  0  0  0  0  0  0  0  0  0
    3.6650   -2.7880   30.9430 O   0  0  0  0  0  0  0  0  0  0  0  0
    5.8670   -3.1230   27.8020 C   0  0  0  0  0  0  0  0  0  0  0  0
    6.9940   -2.8790   23.6400 C   0  0  0  0  0  0  0  0  0  0  0  0
    7.7560   -3.5100   22.4330 C   0  0  0  0  0  0  0  0  0  0  0  0
  1  2  1  0
  2  3  2  0
  2  4  1  0
  4  5  1  0
  5  6  1  0
  6  7  1  0
  7  8  1  0
  8  9  2  0
  8 10  1  0
 10 11  1  0
 11 12  1  0
 12 13  1  0
 13 14  1  0
 14 15  1  1
 15 16  1  0
 15 17  1  0
 15 18  1  0
 10 19  1  0
 14 19  1  0
  7 20  1  0
  4 21  1  0
 20 21  1  0
M  END
