piperidine-amides-4425-covalent
     RDKit          3D

 25 26  0  0  0  0  0  0  0  0999 V2000
    7.0990   -3.3050   19.2740 C   0  0  0  0  0  0  0  0  0  0  0  0
    6.3960   -4.0770   20.3080 C   0  0  0  0  0  0  0  0  0  0  0  0
    5.3490   -4.6680   19.9420 O   0  0  0  0  0  0  0  0  0  0  0  0
    6.9100   -4.1930   21.6360 N   0  0  0  0  0  0  0  0  0  0  0  0
    6.5750   -5.3590   22.3830 C   0  0  0  0  0  0  0  0  0  0  0  0
    5.9320   -5.0170   23.6390 C   0  0  0  0  0  0  0  0  0  0  0  0
    6.0690   -3.5850   23.8960 C   0  0  0  0  0  0  0  0  0  0  0  0
    5.5690   -3.1870   25.2590 C   0  0  0  0  0  0  0  0  0  0  0  0
    4.4690   -2.6160   25.3430 O   0  0  0  0  0  0  0  0  0  0  0  0
    6.2810   -3.4370   26.4450 N   0  0  0  0  0  0  0  0  0  0  0  0
    5.8920   -4.2540   27.5370 C   0  0  0  0  0  0  0  0  0  0  0  0
    5.8960   -5.7210   27.4610 C   0  0  1  0  0  0  0  0  0  0  0  0
    6.4230   -6.3090   28.7770 C   0  0  0  0  0  0  0  0  0  0  0  0
    7.5970   -6.9440   28.5730 O   0  0  0  0  0  0  0  0  0  0  0  0
    5.6070   -6.0670   29.9620 N   0  0  0  0  0  0  0  0  0  0  0  0
    4.7520   -4.9240   29.8320 C   0  0  0  0  0  0  0  0  0  0  0  0
    5.4000   -7.1180   30.8900 C   0  0  0  0  0  0  0  0  0  0  0  0
    4.6380   -6.4650   27.1450 C   0  0  0  0  0  0  0  0  0  0  0  0
    3.7050   -6.9530   28.2630 C   0  0  0  0  0  0  0  0  0  0  0  0
    2.4280   -7.7130   28.0510 C   0  0  0  0  0  0  0  0  0  0  0  0
    2.0780   -7.9970   26.6050 C   0  0  0  0  0  0  0  0  0  0  0  0
    3.0070   -7.5150   25.4790 C   0  0  0  0  0  0  0  0  0  0  0  0
    4.2420   -6.7690   25.8520 C   0  0  0  0  0  0  0  0  0  0  0  0
    7.4550   -3.1110   23.6080 C   0  0  0  0  0  0  0  0  0  0  0  0
    7.6520   -3.0870   22.2250 C   0  0  0  0  0  0  0  0  0  0  0  0
  1  2  1  0
  2  3  2  0
  2  4  1  0
  4  5  1  0
  5  6  1  0
  6  7  1  0
  7  8  1  0
  8  9  2  0
  8 10  1  0
 10 11  1  0
 12 11  1  1
 12 13  1  0
 13 14  2  0
 13 15  1  0
 15 16  1  0
 15 17  1  0
 12 18  1  0
 18 19  2  0
 19 20  1  0
 20 21  2  0
 21 22  1  0
 18 23  1  0
 22 23  2  0
  7 24  1  0
  4 25  1  0
 24 25  1  0
M  END
