piperidine-amides-24555-covalent
     RDKit          3D

 24 25  0  0  0  0  0  0  0  0999 V2000
    7.0390   -3.2920   19.3030 C   0  0  0  0  0  0  0  0  0  0  0  0
    6.3400   -4.1150   20.3080 C   0  0  0  0  0  0  0  0  0  0  0  0
    5.3490   -4.7920   19.9630 O   0  0  0  0  0  0  0  0  0  0  0  0
    6.7800   -4.1940   21.6400 N   0  0  0  0  0  0  0  0  0  0  0  0
    6.6810   -5.4830   22.2950 C   0  0  0  0  0  0  0  0  0  0  0  0
    6.1880   -5.2400   23.7240 C   0  0  0  0  0  0  0  0  0  0  0  0
    6.0720   -3.7470   23.8850 C   0  0  0  0  0  0  0  0  0  0  0  0
    5.5090   -3.3950   25.2120 C   0  0  0  0  0  0  0  0  0  0  0  0
    4.2700   -3.4280   25.3300 O   0  0  0  0  0  0  0  0  0  0  0  0
    6.3310   -3.0200   26.3050 N   0  0  0  0  0  0  0  0  0  0  0  0
    6.1540   -3.7010   27.5710 C   0  0  0  0  0  0  0  0  0  0  0  0
    5.8640   -5.1830   27.3710 C   0  0  0  0  0  0  0  0  0  0  0  0
    4.5810   -5.4180   27.9290 O   0  0  0  0  0  0  0  0  0  0  0  0
    6.6380   -1.6030   26.3600 C   0  0  0  0  0  0  0  0  0  0  0  0
    6.0400   -0.8410   27.3370 C   0  0  0  0  0  0  0  0  0  0  0  0
    4.9870    0.0480   27.2090 C   0  0  0  0  0  0  0  0  0  0  0  0
    4.7120    0.5860   28.4440 N   0  0  0  0  0  0  0  0  0  0  0  0
    5.5680    0.0590   29.3470 N   0  0  0  0  0  0  0  0  0  0  0  0
    5.8020    0.1990   30.7810 C   0  0  0  0  0  0  0  0  0  0  0  0
    7.2210    0.7010   30.9620 C   0  0  0  0  0  0  0  0  0  0  0  0
    6.4080   -0.8510   28.6080 C   0  0  0  0  0  0  0  0  0  0  0  0
    7.4510   -1.5740   29.3770 C   0  0  0  0  0  0  0  0  0  0  0  0
    7.3940   -3.0880   23.6070 C   0  0  0  0  0  0  0  0  0  0  0  0
    7.6320   -3.1650   22.2230 C   0  0  0  0  0  0  0  0  0  0  0  0
  1  2  1  0
  2  3  2  0
  2  4  1  0
  4  5  1  0
  5  6  1  0
  6  7  1  0
  7  8  1  0
  8  9  2  0
  8 10  1  0
 10 11  1  0
 11 12  1  0
 12 13  1  0
 10 14  1  0
 14 15  1  0
 15 16  1  0
 16 17  2  0
 17 18  1  0
 18 19  1  0
 19 20  1  0
 15 21  2  0
 18 21  1  0
 21 22  1  0
  7 23  1  0
  4 24  1  0
 23 24  1  0
M  END
