piperidine-amides-11134-covalent
     RDKit          3D

 20 21  0  0  0  0  0  0  0  0999 V2000
    7.1540   -3.2750   19.1510 C   0  0  0  0  0  0  0  0  0  0  0  0
    6.4090   -3.9960   20.1810 C   0  0  0  0  0  0  0  0  0  0  0  0
    5.3280   -4.5390   19.8880 O   0  0  0  0  0  0  0  0  0  0  0  0
    6.9310   -4.1270   21.4770 N   0  0  0  0  0  0  0  0  0  0  0  0
    7.7920   -3.1100   22.0280 C   0  0  0  0  0  0  0  0  0  0  0  0
    7.0590   -2.6080   23.2290 C   0  0  0  0  0  0  0  0  0  0  0  0
    6.5920   -3.7310   24.1050 C   0  0  0  0  0  0  0  0  0  0  0  0
    5.7980   -3.2230   25.2370 C   0  0  0  0  0  0  0  0  0  0  0  0
    4.6990   -2.6290   25.0310 O   0  0  0  0  0  0  0  0  0  0  0  0
    6.1900   -3.3840   26.5730 N   0  0  0  0  0  0  0  0  0  0  0  0
    5.5690   -4.4820   27.3250 C   0  0  2  0  0  0  0  0  0  0  0  0
    4.2740   -3.9570   27.8350 C   0  0  0  0  0  0  0  0  0  0  0  0
    3.8680   -2.6910   27.5980 C   0  0  0  0  0  0  0  0  0  0  0  0
    4.3940   -2.9310   29.0290 C   0  0  0  0  0  0  0  0  0  0  0  0
    6.1510   -5.1140   28.4250 C   0  0  0  0  0  0  0  0  0  0  0  0
    6.8110   -6.3190   28.0470 F   0  0  0  0  0  0  0  0  0  0  0  0
    5.1720   -5.3390   29.3120 F   0  0  0  0  0  0  0  0  0  0  0  0
    7.1570   -4.3290   28.9610 F   0  0  0  0  0  0  0  0  0  0  0  0
    5.7640   -4.7270   23.3520 C   0  0  0  0  0  0  0  0  0  0  0  0
    6.4430   -5.2060   22.2640 C   0  0  0  0  0  0  0  0  0  0  0  0
  1  2  1  0
  2  3  2  0
  2  4  1  0
  4  5  1  0
  5  6  1  0
  6  7  1  0
  7  8  1  0
  8  9  2  0
  8 10  1  0
 11 10  1  1
 11 12  1  0
 12 13  1  0
 12 14  1  0
 13 14  1  0
 11 15  1  0
 15 16  1  0
 15 17  1  0
 15 18  1  0
  7 19  1  0
  4 20  1  0
 19 20  1  0
M  END
