piperidine-amides-30254-covalent
     RDKit          3D

 27 29  0  0  0  0  0  0  0  0999 V2000
    7.1290   -3.3340   19.3230 C   0  0  0  0  0  0  0  0  0  0  0  0
    6.4260   -4.1830   20.2730 C   0  0  0  0  0  0  0  0  0  0  0  0
    5.3670   -4.7240   19.9570 O   0  0  0  0  0  0  0  0  0  0  0  0
    7.0170   -4.4430   21.5530 N   0  0  0  0  0  0  0  0  0  0  0  0
    7.7710   -3.4180   22.2170 C   0  0  0  0  0  0  0  0  0  0  0  0
    6.9570   -2.8210   23.3150 C   0  0  0  0  0  0  0  0  0  0  0  0
    6.3510   -3.9420   24.1500 C   0  0  0  0  0  0  0  0  0  0  0  0
    5.2310   -3.3860   24.9340 C   0  0  0  0  0  0  0  0  0  0  0  0
    4.1760   -3.0000   24.4140 O   0  0  0  0  0  0  0  0  0  0  0  0
    5.3460   -3.2860   26.3160 N   0  0  0  0  0  0  0  0  0  0  0  0
    6.5740   -2.8270   26.8180 C   0  0  0  0  0  0  0  0  0  0  0  0
    6.7280   -3.6520   28.0510 C   0  0  0  0  0  0  0  0  0  0  0  0
    5.7210   -3.6050   28.8700 C   0  0  0  0  0  0  0  0  0  0  0  0
    5.3340   -2.2790   29.2110 C   0  0  0  0  0  0  0  0  0  0  0  0
    6.2460   -1.4910   29.8990 C   0  0  0  0  0  0  0  0  0  0  0  0
    5.8580   -0.6900   31.0310 N   0  0  0  0  0  0  0  0  0  0  0  0
    7.0840   -0.1360   31.3720 C   0  0  0  0  0  0  0  0  0  0  0  0
    7.1620    0.7200   32.4500 C   0  0  0  0  0  0  0  0  0  0  0  0
    7.3630    2.0710   32.2580 C   0  0  0  0  0  0  0  0  0  0  0  0
    5.8730    0.5140   33.2320 C   0  0  0  0  0  0  0  0  0  0  0  0
    8.2270    0.2790   33.4080 C   0  0  0  0  0  0  0  0  0  0  0  0
    8.0460   -0.5640   30.5360 C   0  0  0  0  0  0  0  0  0  0  0  0
    7.4960   -1.4260   29.5980 O   0  0  0  0  0  0  0  0  0  0  0  0
    4.6940   -4.3200   28.3170 C   0  0  0  0  0  0  0  0  0  0  0  0
    4.2040   -3.7300   27.0530 C   0  0  0  0  0  0  0  0  0  0  0  0
    5.7520   -5.1090   23.4240 C   0  0  0  0  0  0  0  0  0  0  0  0
    6.6250   -5.5900   22.2970 C   0  0  0  0  0  0  0  0  0  0  0  0
  1  2  1  0
  2  3  2  0
  2  4  1  0
  4  5  1  0
  5  6  1  0
  6  7  1  0
  7  8  1  0
  8  9  2  0
  8 10  1  0
 10 11  1  0
 11 12  1  0
 12 13  1  0
 13 14  1  0
 14 15  1  0
 15 16  2  0
 16 17  1  0
 17 18  1  0
 18 19  1  0
 18 20  1  0
 18 21  1  0
 17 22  2  0
 15 23  1  0
 22 23  1  0
 13 24  1  0
 10 25  1  0
 24 25  1  0
  7 26  1  0
  4 27  1  0
 26 27  1  0
M  END
