piperidine-amides-14280-covalent
     RDKit          3D

 24 25  0  0  0  0  0  0  0  0999 V2000
    7.0670   -3.3180   19.3180 C   0  0  0  0  0  0  0  0  0  0  0  0
    6.3750   -4.1700   20.3210 C   0  0  0  0  0  0  0  0  0  0  0  0
    5.3770   -4.8260   19.9760 O   0  0  0  0  0  0  0  0  0  0  0  0
    6.8910   -4.2530   21.6330 N   0  0  0  0  0  0  0  0  0  0  0  0
    7.7570   -3.2310   22.1840 C   0  0  0  0  0  0  0  0  0  0  0  0
    7.0240   -2.6330   23.3760 C   0  0  0  0  0  0  0  0  0  0  0  0
    6.5660   -3.7910   24.1880 C   0  0  0  0  0  0  0  0  0  0  0  0
    5.8070   -3.3490   25.3790 C   0  0  0  0  0  0  0  0  0  0  0  0
    4.5720   -3.3720   25.2880 O   0  0  0  0  0  0  0  0  0  0  0  0
    6.4830   -2.9260   26.5310 N   0  0  0  0  0  0  0  0  0  0  0  0
    6.4150   -1.6390   27.1300 C   0  0  0  0  0  0  0  0  0  0  0  0
    5.8570   -0.5370   26.5070 C   0  0  0  0  0  0  0  0  0  0  0  0
    5.7730    0.7470   27.0850 C   0  0  0  0  0  0  0  0  0  0  0  0
    6.2510    1.0040   28.3400 C   0  0  0  0  0  0  0  0  0  0  0  0
    6.1100    2.6430   29.0120 S   0  0  0  0  0  0  0  0  0  0  0  0
    4.5190    2.8020   29.8390 C   0  0  0  0  0  0  0  0  0  0  0  0
    6.8260   -0.0120   29.0510 C   0  0  0  0  0  0  0  0  0  0  0  0
    7.3840    0.1730   30.4540 C   0  0  0  0  0  0  0  0  0  0  0  0
    8.6310   -0.3920   30.5890 O   0  0  0  0  0  0  0  0  0  0  0  0
    6.7290    0.8640   31.4630 O   0  0  0  0  0  0  0  0  0  0  0  0
    6.5160    0.2610   32.7130 C   0  0  0  0  0  0  0  0  0  0  0  0
    6.9410   -1.4000   28.4790 C   0  0  0  0  0  0  0  0  0  0  0  0
    5.7850   -4.8360   23.4470 C   0  0  0  0  0  0  0  0  0  0  0  0
    6.5900   -5.3730   22.4710 C   0  0  0  0  0  0  0  0  0  0  0  0
  1  2  1  0
  2  3  2  0
  2  4  1  0
  4  5  1  0
  5  6  1  0
  6  7  1  0
  7  8  1  0
  8  9  2  0
  8 10  1  0
 10 11  1  0
 11 12  2  0
 12 13  1  0
 13 14  2  0
 14 15  1  0
 15 16  1  0
 14 17  1  0
 17 18  1  0
 18 19  2  0
 18 20  1  0
 20 21  1  0
 11 22  1  0
 17 22  2  0
  7 23  1  0
  4 24  1  0
 23 24  1  0
M  END
