piperidine-amides-29175-covalent
     RDKit          3D

 22 23  0  0  0  0  0  0  0  0999 V2000
    7.0670   -3.3160   19.2870 C   0  0  0  0  0  0  0  0  0  0  0  0
    6.3880   -4.1290   20.2970 C   0  0  0  0  0  0  0  0  0  0  0  0
    5.3590   -4.7390   19.9560 O   0  0  0  0  0  0  0  0  0  0  0  0
    6.9260   -4.2460   21.6060 N   0  0  0  0  0  0  0  0  0  0  0  0
    7.6690   -3.1580   22.1680 C   0  0  0  0  0  0  0  0  0  0  0  0
    6.9250   -2.6510   23.3530 C   0  0  0  0  0  0  0  0  0  0  0  0
    6.6450   -3.8590   24.2200 C   0  0  0  0  0  0  0  0  0  0  0  0
    5.8130   -3.4240   25.3870 C   0  0  0  0  0  0  0  0  0  0  0  0
    4.6260   -3.2080   25.1470 O   0  0  0  0  0  0  0  0  0  0  0  0
    6.4180   -3.2740   26.6370 N   0  0  0  0  0  0  0  0  0  0  0  0
    6.6100   -1.9530   27.1510 C   0  0  0  0  0  0  0  0  0  0  0  0
    6.4550   -4.3710   27.5700 C   0  0  0  0  0  0  0  0  0  0  0  0
    5.8240   -5.5240   27.1920 C   0  0  0  0  0  0  0  0  0  0  0  0
    4.4380   -5.6390   27.2530 C   0  0  0  0  0  0  0  0  0  0  0  0
    4.0440   -6.8660   26.5450 C   0  0  0  0  0  0  0  0  0  0  0  0
    2.5880   -7.3340   26.4030 C   0  0  0  0  0  0  0  0  0  0  0  0
    1.5450   -6.4620   27.0330 C   0  0  0  0  0  0  0  0  0  0  0  0
    1.9940   -5.1990   27.7540 C   0  0  0  0  0  0  0  0  0  0  0  0
    3.4980   -4.8080   27.8470 C   0  0  0  0  0  0  0  0  0  0  0  0
    3.9610   -3.1940   28.7780 Br  0  0  0  0  0  0  0  0  0  0  0  0
    5.7920   -4.8410   23.4290 C   0  0  0  0  0  0  0  0  0  0  0  0
    6.6180   -5.3730   22.4540 C   0  0  0  0  0  0  0  0  0  0  0  0
  1  2  1  0
  2  3  2  0
  2  4  1  0
  4  5  1  0
  5  6  1  0
  6  7  1  0
  7  8  1  0
  8  9  2  0
  8 10  1  0
 10 11  1  0
 10 12  1  0
 12 13  1  0
 13 14  1  0
 14 15  2  0
 15 16  1  0
 16 17  2  0
 17 18  1  0
 14 19  1  0
 18 19  2  0
 19 20  1  0
  7 21  1  0
  4 22  1  0
 21 22  1  0
M  END
