piperidine-amides-13009-covalent
     RDKit          3D

 23 25  0  0  0  0  0  0  0  0999 V2000
    7.0680   -3.3560   19.2980 C   0  0  0  0  0  0  0  0  0  0  0  0
    6.3420   -4.1360   20.3250 C   0  0  0  0  0  0  0  0  0  0  0  0
    5.3030   -4.7050   19.9400 O   0  0  0  0  0  0  0  0  0  0  0  0
    6.8360   -4.2670   21.6340 N   0  0  0  0  0  0  0  0  0  0  0  0
    7.6510   -3.2400   22.1980 C   0  0  0  0  0  0  0  0  0  0  0  0
    7.2830   -2.9380   23.5700 C   0  0  0  0  0  0  0  0  0  0  0  0
    6.0160   -3.5790   23.9720 C   0  0  0  0  0  0  0  0  0  0  0  0
    5.6340   -3.2030   25.3550 C   0  0  0  0  0  0  0  0  0  0  0  0
    4.4280   -3.2550   25.6620 O   0  0  0  0  0  0  0  0  0  0  0  0
    6.5950   -2.8010   26.2920 N   0  0  0  0  0  0  0  0  0  0  0  0
    6.4830   -1.5580   27.0970 C   0  0  0  0  0  0  0  0  0  0  0  0
    7.0380   -1.5850   28.4700 C   0  0  0  0  0  0  0  0  0  0  0  0
    6.9540   -0.4030   29.2890 C   0  0  0  0  0  0  0  0  0  0  0  0
    6.3390    0.6490   28.6640 C   0  0  0  0  0  0  0  0  0  0  0  0
    5.7960    0.7590   27.3910 C   0  0  0  0  0  0  0  0  0  0  0  0
    5.8570   -0.3510   26.5710 C   0  0  0  0  0  0  0  0  0  0  0  0
    5.3120    1.9820   27.2500 O   0  0  0  0  0  0  0  0  0  0  0  0
    5.5800    2.6060   28.4810 C   0  0  0  0  0  0  0  0  0  0  0  0
    5.2160    3.9570   28.7550 O   0  0  0  0  0  0  0  0  0  0  0  0
    6.2020    1.8390   29.3680 N   0  0  0  0  0  0  0  0  0  0  0  0
    5.5280    1.5320   30.6710 C   0  0  0  0  0  0  0  0  0  0  0  0
    6.0630   -5.0740   23.7630 C   0  0  0  0  0  0  0  0  0  0  0  0
    6.6300   -5.4570   22.4380 C   0  0  0  0  0  0  0  0  0  0  0  0
  1  2  1  0
  2  3  2  0
  2  4  1  0
  4  5  1  0
  5  6  1  0
  6  7  1  0
  7  8  1  0
  8  9  2  0
  8 10  1  0
 10 11  1  0
 11 12  2  0
 12 13  1  0
 13 14  2  0
 14 15  1  0
 11 16  1  0
 15 16  2  0
 15 17  1  0
 17 18  1  0
 18 19  2  0
 14 20  1  0
 18 20  1  0
 20 21  1  0
  7 22  1  0
  4 23  1  0
 22 23  1  0
M  END
