piperidine-amides-6804-covalent
     RDKit          3D

 23 24  0  0  0  0  0  0  0  0999 V2000
    7.0610   -3.2690   19.2340 C   0  0  0  0  0  0  0  0  0  0  0  0
    6.2840   -4.0450   20.2260 C   0  0  0  0  0  0  0  0  0  0  0  0
    5.2360   -4.6290   19.8940 O   0  0  0  0  0  0  0  0  0  0  0  0
    6.7180   -4.1760   21.5430 N   0  0  0  0  0  0  0  0  0  0  0  0
    7.5580   -3.1330   22.0850 C   0  0  0  0  0  0  0  0  0  0  0  0
    7.5270   -3.2920   23.5940 C   0  0  0  0  0  0  0  0  0  0  0  0
    6.1410   -3.7230   23.9550 C   0  0  0  0  0  0  0  0  0  0  0  0
    5.8900   -3.4830   25.3950 C   0  0  0  0  0  0  0  0  0  0  0  0
    4.6960   -3.4010   25.7630 O   0  0  0  0  0  0  0  0  0  0  0  0
    6.9620   -3.3340   26.3260 N   0  0  0  0  0  0  0  0  0  0  0  0
    8.2110   -4.0420   26.1800 C   0  0  0  0  0  0  0  0  0  0  0  0
    9.1480   -3.1290   25.3990 C   0  0  0  0  0  0  0  0  0  0  0  0
    8.7740   -2.0370   24.6190 C   0  0  0  0  0  0  0  0  0  0  0  0
    9.6230   -1.1980   23.8920 C   0  0  0  0  0  0  0  0  0  0  0  0
   11.0130   -1.4390   23.9280 N   0  0  0  0  0  0  0  0  0  0  0  0
   11.5350   -2.4570   24.6480 C   0  0  0  0  0  0  0  0  0  0  0  0
   12.8900   -2.6080   24.6410 C   0  0  0  0  0  0  0  0  0  0  0  0
   13.3250   -3.4670   25.6320 F   0  0  0  0  0  0  0  0  0  0  0  0
   13.3460   -2.9150   23.3760 F   0  0  0  0  0  0  0  0  0  0  0  0
   13.3540   -1.3700   25.0270 F   0  0  0  0  0  0  0  0  0  0  0  0
   10.6390   -3.3860   25.4370 C   0  0  0  0  0  0  0  0  0  0  0  0
    5.8610   -5.1240   23.5280 C   0  0  0  0  0  0  0  0  0  0  0  0
    6.6070   -5.4360   22.2630 C   0  0  0  0  0  0  0  0  0  0  0  0
  1  2  1  0
  2  3  2  0
  2  4  1  0
  4  5  1  0
  5  6  1  0
  6  7  1  0
  7  8  1  0
  8  9  2  0
  8 10  1  0
 10 11  1  0
 11 12  1  0
 12 13  2  0
 13 14  1  0
 14 15  2  0
 15 16  1  0
 16 17  1  0
 17 18  1  0
 17 19  1  0
 17 20  1  0
 12 21  1  0
 16 21  2  0
  7 22  1  0
  4 23  1  0
 22 23  1  0
M  END
