piperidine-amides-7294-covalent
     RDKit          3D

 20 20  0  0  0  0  0  0  0  0999 V2000
    7.0470   -3.3050   19.3230 C   0  0  0  0  0  0  0  0  0  0  0  0
    6.3530   -4.0990   20.3470 C   0  0  0  0  0  0  0  0  0  0  0  0
    5.3460   -4.7410   19.9550 O   0  0  0  0  0  0  0  0  0  0  0  0
    6.8210   -4.1590   21.6690 N   0  0  0  0  0  0  0  0  0  0  0  0
    7.6910   -3.1350   22.2120 C   0  0  0  0  0  0  0  0  0  0  0  0
    7.4050   -3.0050   23.6800 C   0  0  0  0  0  0  0  0  0  0  0  0
    6.0890   -3.6440   24.0280 C   0  0  0  0  0  0  0  0  0  0  0  0
    5.6750   -3.3170   25.4300 C   0  0  0  0  0  0  0  0  0  0  0  0
    4.7010   -2.5420   25.5530 O   0  0  0  0  0  0  0  0  0  0  0  0
    6.2720   -3.8020   26.6250 N   0  0  0  0  0  0  0  0  0  0  0  0
    5.9870   -5.1360   27.1390 C   0  0  1  0  0  0  0  0  0  0  0  0
    6.4730   -5.3620   28.5650 C   0  0  0  0  0  0  0  0  0  0  0  0
    5.7610   -6.1060   29.4820 C   0  0  0  0  0  0  0  0  0  0  0  0
    5.5680   -7.4670   29.3530 C   0  0  0  0  0  0  0  0  0  0  0  0
    4.5590   -5.4350   26.9300 C   0  0  0  0  0  0  0  0  0  0  0  0
    4.4130   -5.8150   25.6450 F   0  0  0  0  0  0  0  0  0  0  0  0
    4.0340   -6.4330   27.6810 F   0  0  0  0  0  0  0  0  0  0  0  0
    3.8040   -4.2780   27.0490 F   0  0  0  0  0  0  0  0  0  0  0  0
    6.1690   -5.1090   23.7120 C   0  0  0  0  0  0  0  0  0  0  0  0
    6.6410   -5.3580   22.4330 C   0  0  0  0  0  0  0  0  0  0  0  0
  1  2  1  0
  2  3  2  0
  2  4  1  0
  4  5  1  0
  5  6  1  0
  6  7  1  0
  7  8  1  0
  8  9  2  0
  8 10  1  0
 10 11  1  0
 11 12  1  1
 12 13  1  0
 13 14  1  0
 11 15  1  0
 15 16  1  0
 15 17  1  0
 15 18  1  0
  7 19  1  0
  4 20  1  0
 19 20  1  0
M  END
