piperidine-amides-7089-covalent
     RDKit          3D

 22 23  0  0  0  0  0  0  0  0999 V2000
    7.1260   -3.2920   19.2030 C   0  0  0  0  0  0  0  0  0  0  0  0
    6.4140   -4.0830   20.2160 C   0  0  0  0  0  0  0  0  0  0  0  0
    5.3440   -4.6650   19.9310 O   0  0  0  0  0  0  0  0  0  0  0  0
    6.9680   -4.2380   21.4870 N   0  0  0  0  0  0  0  0  0  0  0  0
    6.6600   -5.4170   22.2560 C   0  0  0  0  0  0  0  0  0  0  0  0
    5.7700   -4.9450   23.4050 C   0  0  0  0  0  0  0  0  0  0  0  0
    6.5350   -3.8470   24.1110 C   0  0  0  0  0  0  0  0  0  0  0  0
    5.7800   -3.4160   25.2910 C   0  0  0  0  0  0  0  0  0  0  0  0
    4.5930   -3.0500   25.1660 O   0  0  0  0  0  0  0  0  0  0  0  0
    6.4330   -3.4230   26.5310 N   0  0  0  0  0  0  0  0  0  0  0  0
    5.8630   -4.1020   27.6460 C   0  0  1  0  0  0  0  0  0  0  0  0
    6.1590   -5.5970   27.6100 C   0  0  0  0  0  0  0  0  0  0  0  0
    6.4020   -3.4630   28.8570 C   0  0  0  0  0  0  0  0  0  0  0  0
    5.7850   -2.3600   29.4070 C   0  0  0  0  0  0  0  0  0  0  0  0
    6.5590   -1.1590   29.4090 N   0  0  0  0  0  0  0  0  0  0  0  0
    7.9360   -0.9760   29.1750 C   0  0  0  0  0  0  0  0  0  0  0  0
    8.2410    0.0360   30.0810 C   0  0  0  0  0  0  0  0  0  0  0  0
    7.1550    0.3870   30.7830 O   0  0  0  0  0  0  0  0  0  0  0  0
    6.1210   -0.3450   30.3790 C   0  0  0  0  0  0  0  0  0  0  0  0
    4.8930   -0.1920   30.9450 O   0  0  0  0  0  0  0  0  0  0  0  0
    6.8850   -2.6910   23.2450 C   0  0  0  0  0  0  0  0  0  0  0  0
    7.7230   -3.1790   22.1250 C   0  0  0  0  0  0  0  0  0  0  0  0
  1  2  1  0
  2  3  2  0
  2  4  1  0
  4  5  1  0
  5  6  1  0
  6  7  1  0
  7  8  1  0
  8  9  2  0
  8 10  1  0
 10 11  1  0
 11 12  1  6
 11 13  1  0
 13 14  1  0
 14 15  1  0
 15 16  1  0
 16 17  1  0
 17 18  1  0
 15 19  1  0
 18 19  1  0
 19 20  2  0
  7 21  1  0
  4 22  1  0
 21 22  1  0
M  END
