piperidine-amides-29876-covalent
     RDKit          3D

 27 29  0  0  0  0  0  0  0  0999 V2000
    7.0740   -3.3790   19.3110 C   0  0  0  0  0  0  0  0  0  0  0  0
    6.3610   -4.1840   20.2930 C   0  0  0  0  0  0  0  0  0  0  0  0
    5.3330   -4.7700   19.9630 O   0  0  0  0  0  0  0  0  0  0  0  0
    6.8850   -4.3510   21.6170 N   0  0  0  0  0  0  0  0  0  0  0  0
    7.6940   -3.3140   22.2120 C   0  0  0  0  0  0  0  0  0  0  0  0
    6.9930   -2.7090   23.3880 C   0  0  0  0  0  0  0  0  0  0  0  0
    6.4930   -3.8330   24.2810 C   0  0  0  0  0  0  0  0  0  0  0  0
    5.6880   -3.2640   25.4060 C   0  0  0  0  0  0  0  0  0  0  0  0
    4.4900   -2.9400   25.2910 O   0  0  0  0  0  0  0  0  0  0  0  0
    6.3480   -3.1220   26.6500 N   0  0  0  0  0  0  0  0  0  0  0  0
    7.3860   -4.0710   26.7190 C   0  0  0  0  0  0  0  0  0  0  0  0
    8.4840   -4.1200   25.7050 C   0  0  0  0  0  0  0  0  0  0  0  0
    9.4290   -5.0870   25.8140 C   0  0  0  0  0  0  0  0  0  0  0  0
    9.3650   -6.0010   26.8370 C   0  0  0  0  0  0  0  0  0  0  0  0
    8.4150   -6.0240   27.8100 C   0  0  0  0  0  0  0  0  0  0  0  0
    7.3670   -5.0680   27.8290 C   0  0  0  0  0  0  0  0  0  0  0  0
    6.3640   -5.0020   28.7580 C   0  0  0  0  0  0  0  0  0  0  0  0
    5.3510   -4.0970   28.5220 C   0  0  0  0  0  0  0  0  0  0  0  0
    5.6050   -2.8850   27.8610 C   0  0  1  0  0  0  0  0  0  0  0  0
    6.2530   -1.8250   28.6420 C   0  0  0  0  0  0  0  0  0  0  0  0
    5.4280   -0.9240   29.3000 C   0  0  0  0  0  0  0  0  0  0  0  0
    4.7350    0.1100   28.7380 O   0  0  0  0  0  0  0  0  0  0  0  0
    5.3360   -1.1550   30.6430 O   0  0  0  0  0  0  0  0  0  0  0  0
    4.1490   -1.5630   31.3230 C   0  0  0  0  0  0  0  0  0  0  0  0
    3.0390   -0.6520   30.9170 C   0  0  0  0  0  0  0  0  0  0  0  0
    5.6500   -4.8660   23.5910 C   0  0  0  0  0  0  0  0  0  0  0  0
    6.4410   -5.4390   22.4320 C   0  0  0  0  0  0  0  0  0  0  0  0
  1  2  1  0
  2  3  2  0
  2  4  1  0
  4  5  1  0
  5  6  1  0
  6  7  1  0
  7  8  1  0
  8  9  2  0
  8 10  1  0
 10 11  1  0
 11 12  2  0
 12 13  1  0
 13 14  2  0
 14 15  1  0
 11 16  1  0
 15 16  2  0
 16 17  1  0
 17 18  1  0
 10 19  1  0
 18 19  1  0
 19 20  1  1
 20 21  1  0
 21 22  2  0
 21 23  1  0
 23 24  1  0
 24 25  1  0
  7 26  1  0
  4 27  1  0
 26 27  1  0
M  END
