piperidine-amides-1838-covalent
     RDKit          3D

 18 19  0  0  0  0  0  0  0  0999 V2000
    7.0560   -3.2970   19.2820 C   0  0  0  0  0  0  0  0  0  0  0  0
    6.3620   -4.1150   20.3110 C   0  0  0  0  0  0  0  0  0  0  0  0
    5.3450   -4.7010   19.9470 O   0  0  0  0  0  0  0  0  0  0  0  0
    6.8840   -4.2340   21.6140 N   0  0  0  0  0  0  0  0  0  0  0  0
    6.6820   -5.4380   22.3890 C   0  0  0  0  0  0  0  0  0  0  0  0
    6.0780   -5.1000   23.7280 C   0  0  0  0  0  0  0  0  0  0  0  0
    6.0060   -3.5830   23.9060 C   0  0  0  0  0  0  0  0  0  0  0  0
    5.5370   -3.2450   25.2700 C   0  0  0  0  0  0  0  0  0  0  0  0
    4.3450   -2.9580   25.4270 O   0  0  0  0  0  0  0  0  0  0  0  0
    6.3910   -3.2370   26.3880 N   0  0  0  0  0  0  0  0  0  0  0  0
    6.1480   -4.1740   27.4700 C   0  0  0  0  0  0  0  0  0  0  0  0
    4.6840   -4.0970   27.8510 C   0  0  2  0  0  0  0  0  0  0  0  0
    4.1720   -4.6320   28.9680 C   0  0  0  0  0  0  0  0  0  0  0  0
    3.3970   -5.4640   28.3050 C   0  0  1  0  0  0  0  0  0  0  0  0
    2.0380   -5.2830   28.5540 F   0  0  0  0  0  0  0  0  0  0  0  0
    3.7890   -5.0620   27.0360 C   0  0  0  0  0  0  0  0  0  0  0  0
    7.3580   -2.9630   23.6120 C   0  0  0  0  0  0  0  0  0  0  0  0
    7.6830   -3.1840   22.1730 C   0  0  0  0  0  0  0  0  0  0  0  0
  1  2  1  0
  2  3  2  0
  2  4  1  0
  4  5  1  0
  5  6  1  0
  6  7  1  0
  7  8  1  0
  8  9  2  0
  8 10  1  0
 10 11  1  0
 12 11  1  1
 12 13  1  0
 13 14  1  0
 14 15  1  6
 12 16  1  0
 14 16  1  0
  7 17  1  0
  4 18  1  0
 17 18  1  0
M  END
