piperidine-amides-12911-covalent
     RDKit          3D

 21 22  0  0  0  0  0  0  0  0999 V2000
    7.1170   -3.2590   19.1900 C   0  0  0  0  0  0  0  0  0  0  0  0
    6.3690   -4.0040   20.2290 C   0  0  0  0  0  0  0  0  0  0  0  0
    5.2970   -4.5380   19.8800 O   0  0  0  0  0  0  0  0  0  0  0  0
    6.8840   -4.1260   21.5260 N   0  0  0  0  0  0  0  0  0  0  0  0
    6.5360   -5.2450   22.3300 C   0  0  0  0  0  0  0  0  0  0  0  0
    6.1890   -4.9110   23.7190 C   0  0  0  0  0  0  0  0  0  0  0  0
    6.6610   -3.5990   24.2440 C   0  0  0  0  0  0  0  0  0  0  0  0
    5.8120   -3.1640   25.3840 C   0  0  0  0  0  0  0  0  0  0  0  0
    5.3710   -2.0030   25.3910 O   0  0  0  0  0  0  0  0  0  0  0  0
    5.4660   -4.0470   26.4190 N   0  0  0  0  0  0  0  0  0  0  0  0
    6.0930   -4.1040   27.7630 C   0  0  0  0  0  0  0  0  0  0  0  0
    6.1090   -5.5230   28.2270 C   0  0  1  0  0  0  0  0  0  0  0  0
    6.3230   -5.8410   29.4380 O   0  0  0  0  0  0  0  0  0  0  0  0
    4.9750   -6.3200   27.7810 C   0  0  0  0  0  0  0  0  0  0  0  0
    4.0850   -6.8880   28.6430 C   0  0  0  0  0  0  0  0  0  0  0  0
    3.0010   -7.6400   28.2840 C   0  0  0  0  0  0  0  0  0  0  0  0
    2.7900   -7.8420   26.9530 C   0  0  0  0  0  0  0  0  0  0  0  0
    3.6600   -7.2920   26.0510 C   0  0  0  0  0  0  0  0  0  0  0  0
    4.7420   -6.5390   26.4370 C   0  0  0  0  0  0  0  0  0  0  0  0
    6.7360   -2.5550   23.1710 C   0  0  0  0  0  0  0  0  0  0  0  0
    7.6590   -3.0840   22.1560 C   0  0  0  0  0  0  0  0  0  0  0  0
  1  2  1  0
  2  3  2  0
  2  4  1  0
  4  5  1  0
  5  6  1  0
  6  7  1  0
  7  8  1  0
  8  9  2  0
  8 10  1  0
 10 11  1  0
 11 12  1  0
 12 13  1  1
 12 14  1  0
 14 15  2  0
 15 16  1  0
 16 17  2  0
 17 18  1  0
 14 19  1  0
 18 19  2  0
  7 20  1  0
  4 21  1  0
 20 21  1  0
M  END
