piperidine-amides-26991-covalent
     RDKit          3D

 25 26  0  0  0  0  0  0  0  0999 V2000
    7.0400   -3.3350   19.3450 C   0  0  0  0  0  0  0  0  0  0  0  0
    6.3800   -4.1740   20.3570 C   0  0  0  0  0  0  0  0  0  0  0  0
    5.3580   -4.8010   19.9670 O   0  0  0  0  0  0  0  0  0  0  0  0
    6.8960   -4.2910   21.6600 N   0  0  0  0  0  0  0  0  0  0  0  0
    6.6220   -5.4660   22.4770 C   0  0  0  0  0  0  0  0  0  0  0  0
    6.1270   -5.0510   23.8520 C   0  0  0  0  0  0  0  0  0  0  0  0
    6.0520   -3.5570   23.9880 C   0  0  0  0  0  0  0  0  0  0  0  0
    5.5830   -3.0460   25.3060 C   0  0  0  0  0  0  0  0  0  0  0  0
    5.3760   -1.8230   25.3480 O   0  0  0  0  0  0  0  0  0  0  0  0
    5.2870   -3.7460   26.5060 N   0  0  0  0  0  0  0  0  0  0  0  0
    5.8250   -4.9960   26.9690 C   0  0  0  0  0  0  0  0  0  0  0  0
    6.4920   -4.6760   28.2930 C   0  0  0  0  0  0  0  0  0  0  0  0
    5.7160   -4.0500   29.1380 C   0  0  0  0  0  0  0  0  0  0  0  0
    5.9020   -2.7000   29.4200 C   0  0  0  0  0  0  0  0  0  0  0  0
    7.1300   -2.3090   29.2070 O   0  0  0  0  0  0  0  0  0  0  0  0
    4.9010   -1.8910   29.8360 N   0  0  0  0  0  0  0  0  0  0  0  0
    5.0580   -1.0590   30.8630 C   0  0  0  0  0  0  0  0  0  0  0  0
    4.3210    0.0940   30.6570 C   0  0  0  0  0  0  0  0  0  0  0  0
    4.9560    1.3130   30.7490 C   0  0  0  0  0  0  0  0  0  0  0  0
    4.9000    1.9040   32.1380 C   0  0  0  0  0  0  0  0  0  0  0  0
    6.2220    1.2190   30.2430 C   0  0  0  0  0  0  0  0  0  0  0  0
    4.4150   -4.0730   28.8030 C   0  0  0  0  0  0  0  0  0  0  0  0
    4.0790   -3.9440   27.3130 C   0  0  0  0  0  0  0  0  0  0  0  0
    7.3310   -2.9080   23.6210 C   0  0  0  0  0  0  0  0  0  0  0  0
    7.7080   -3.2270   22.1990 C   0  0  0  0  0  0  0  0  0  0  0  0
  1  2  1  0
  2  3  2  0
  2  4  1  0
  4  5  1  0
  5  6  1  0
  6  7  1  0
  7  8  1  0
  8  9  2  0
  8 10  1  0
 10 11  1  0
 11 12  1  0
 12 13  1  0
 13 14  1  0
 14 15  2  0
 14 16  1  0
 16 17  1  0
 17 18  1  0
 18 19  1  0
 19 20  1  0
 19 21  1  0
 13 22  1  0
 10 23  1  0
 22 23  1  0
  7 24  1  0
  4 25  1  0
 24 25  1  0
M  END
