piperidine-amides-35418-covalent
     RDKit          3D

 30 32  0  0  0  0  0  0  0  0999 V2000
    7.0250   -3.3520   19.4200 C   0  0  0  0  0  0  0  0  0  0  0  0
    6.3200   -4.1910   20.4230 C   0  0  0  0  0  0  0  0  0  0  0  0
    5.4130   -4.9080   19.9950 O   0  0  0  0  0  0  0  0  0  0  0  0
    6.7030   -4.1800   21.7710 N   0  0  0  0  0  0  0  0  0  0  0  0
    6.4660   -5.2940   22.6440 C   0  0  0  0  0  0  0  0  0  0  0  0
    5.7690   -4.8200   23.9010 C   0  0  0  0  0  0  0  0  0  0  0  0
    5.6940   -3.2690   23.9650 C   0  0  0  0  0  0  0  0  0  0  0  0
    4.9580   -2.8210   25.2300 C   0  0  0  0  0  0  0  0  0  0  0  0
    3.7340   -2.7320   25.1530 O   0  0  0  0  0  0  0  0  0  0  0  0
    5.5590   -2.5200   26.5020 N   0  0  0  0  0  0  0  0  0  0  0  0
    4.7020   -2.3300   27.6630 C   0  0  0  0  0  0  0  0  0  0  0  0
    4.6820   -3.5920   28.5380 C   0  0  2  0  0  0  0  0  0  0  0  0
    3.7670   -3.2750   29.6520 N   0  0  0  0  0  0  0  0  0  0  0  0
    2.9780   -4.4870   29.9060 C   0  0  0  0  0  0  0  0  0  0  0  0
    3.2050   -5.5880   29.3370 O   0  0  0  0  0  0  0  0  0  0  0  0
    1.9360   -4.4790   30.7920 O   0  0  0  0  0  0  0  0  0  0  0  0
    0.8210   -3.5960   30.6780 C   0  0  0  0  0  0  0  0  0  0  0  0
   -0.1060   -4.1830   31.5020 C   0  0  0  0  0  0  0  0  0  0  0  0
    0.3470   -2.9660   31.8880 C   0  0  0  0  0  0  0  0  0  0  0  0
   -0.1960   -3.7750   29.6280 C   0  0  0  0  0  0  0  0  0  0  0  0
    6.0480   -3.9710   29.1190 C   0  0  0  0  0  0  0  0  0  0  0  0
    6.7800   -4.1110   27.8570 C   0  0  0  0  0  0  0  0  0  0  0  0
    7.8280   -5.0510   27.7700 C   0  0  0  0  0  0  0  0  0  0  0  0
    8.5070   -5.1590   26.4780 C   0  0  0  0  0  0  0  0  0  0  0  0
    9.7520   -6.3360   26.3430 Br  0  0  0  0  0  0  0  0  0  0  0  0
    8.2190   -4.3830   25.3180 C   0  0  0  0  0  0  0  0  0  0  0  0
    7.1480   -3.4740   25.5170 C   0  0  0  0  0  0  0  0  0  0  0  0
    6.5310   -3.4200   26.7130 C   0  0  0  0  0  0  0  0  0  0  0  0
    7.0330   -2.6410   23.6290 C   0  0  0  0  0  0  0  0  0  0  0  0
    7.6210   -3.1510   22.2990 C   0  0  0  0  0  0  0  0  0  0  0  0
  1  2  1  0
  2  3  2  0
  2  4  1  0
  4  5  1  0
  5  6  1  0
  6  7  1  0
  7  8  1  0
  8  9  2  0
  8 10  1  0
 10 11  1  0
 11 12  1  0
 12 13  1  1
 13 14  1  0
 14 15  2  0
 14 16  1  0
 17 16  1  0
 17 18  1  0
 17 19  1  0
 17 20  1  0
 12 21  1  0
 21 22  1  0
 22 23  2  0
 23 24  1  0
 24 25  1  0
 24 26  2  0
 26 27  1  0
 10 28  1  0
 22 28  1  0
 27 28  2  0
  7 29  1  0
  4 30  1  0
 29 30  1  0
M  END
