piperidine-amides-25135-covalent
     RDKit          3D

 24 25  0  0  0  0  0  0  0  0999 V2000
    7.0260   -3.3840   19.4560 C   0  0  0  0  0  0  0  0  0  0  0  0
    6.3400   -4.2630   20.4390 C   0  0  0  0  0  0  0  0  0  0  0  0
    5.4090   -4.9390   20.0040 O   0  0  0  0  0  0  0  0  0  0  0  0
    6.7780   -4.3300   21.7760 N   0  0  0  0  0  0  0  0  0  0  0  0
    6.5100   -5.4930   22.5910 C   0  0  0  0  0  0  0  0  0  0  0  0
    5.8430   -5.0760   23.8880 C   0  0  0  0  0  0  0  0  0  0  0  0
    5.7690   -3.5440   23.9720 C   0  0  0  0  0  0  0  0  0  0  0  0
    5.0010   -3.0680   25.1910 C   0  0  0  0  0  0  0  0  0  0  0  0
    4.3500   -2.0320   25.1060 O   0  0  0  0  0  0  0  0  0  0  0  0
    5.0010   -3.7590   26.4250 N   0  0  0  0  0  0  0  0  0  0  0  0
    6.2460   -4.1860   26.6970 C   0  0  0  0  0  0  0  0  0  0  0  0
    6.4030   -4.0330   28.1750 C   0  0  0  0  0  0  0  0  0  0  0  0
    5.2810   -3.6500   28.7990 C   0  0  2  0  0  0  0  0  0  0  0  0
    5.3470   -2.5170   29.5490 C   0  0  0  0  0  0  0  0  0  0  0  0
    4.2380   -2.4130   30.3460 C   0  0  0  0  0  0  0  0  0  0  0  0
    4.2490   -1.1850   30.9320 O   0  0  0  0  0  0  0  0  0  0  0  0
    4.1290   -1.0940   32.2810 C   0  0  0  0  0  0  0  0  0  0  0  0
    4.6390   -4.7320   29.5910 C   0  0  0  0  0  0  0  0  0  0  0  0
    3.2700   -4.5910   29.6410 O   0  0  0  0  0  0  0  0  0  0  0  0
    5.2450   -5.7920   30.2220 O   0  0  0  0  0  0  0  0  0  0  0  0
    5.8960   -6.8490   29.5240 C   0  0  0  0  0  0  0  0  0  0  0  0
    4.3830   -3.2010   27.6210 C   0  0  0  0  0  0  0  0  0  0  0  0
    7.1310   -2.9270   23.7630 C   0  0  0  0  0  0  0  0  0  0  0  0
    7.5740   -3.2560   22.3380 C   0  0  0  0  0  0  0  0  0  0  0  0
  1  2  1  0
  2  3  2  0
  2  4  1  0
  4  5  1  0
  5  6  1  0
  6  7  1  0
  7  8  1  0
  8  9  2  0
  8 10  1  0
 10 11  1  0
 11 12  1  0
 12 13  1  0
 13 14  1  1
 14 15  1  0
 15 16  1  0
 16 17  1  0
 13 18  1  0
 18 19  2  0
 18 20  1  0
 20 21  1  0
 10 22  1  0
 13 22  1  0
  7 23  1  0
  4 24  1  0
 23 24  1  0
M  END
