piperidine-amides-33441-covalent
     RDKit          3D

 29 31  0  0  0  0  0  0  0  0999 V2000
    7.0060   -3.3780   19.4450 C   0  0  0  0  0  0  0  0  0  0  0  0
    6.3810   -4.2670   20.4470 C   0  0  0  0  0  0  0  0  0  0  0  0
    5.4390   -4.9810   20.0140 O   0  0  0  0  0  0  0  0  0  0  0  0
    6.8340   -4.3410   21.8050 N   0  0  0  0  0  0  0  0  0  0  0  0
    6.4450   -5.4660   22.5990 C   0  0  0  0  0  0  0  0  0  0  0  0
    5.8210   -5.0850   23.8700 C   0  0  0  0  0  0  0  0  0  0  0  0
    5.7910   -3.6210   24.0500 C   0  0  0  0  0  0  0  0  0  0  0  0
    5.1880   -3.0630   25.3590 C   0  0  0  0  0  0  0  0  0  0  0  0
    4.7070   -1.9270   25.3040 O   0  0  0  0  0  0  0  0  0  0  0  0
    5.1020   -3.7140   26.6300 N   0  0  0  0  0  0  0  0  0  0  0  0
    4.7990   -3.1640   27.8950 C   0  0  0  0  0  0  0  0  0  0  0  0
    5.4560   -3.7000   29.1200 C   0  0  0  0  0  0  0  0  0  0  0  0
    5.9980   -5.1580   28.9380 C   0  0  0  0  0  0  0  0  0  0  0  0
    5.3980   -6.1540   29.7190 C   0  0  0  0  0  0  0  0  0  0  0  0
    5.9390   -6.3030   30.9770 O   0  0  0  0  0  0  0  0  0  0  0  0
    4.1050   -5.3690   29.8510 C   0  0  0  0  0  0  0  0  0  0  0  0
    3.5690   -6.5700   29.3660 N   0  0  0  0  0  0  0  0  0  0  0  0
    2.3650   -6.8850   30.1620 C   0  0  0  0  0  0  0  0  0  0  0  0
    1.9860   -6.1330   31.2790 O   0  0  0  0  0  0  0  0  0  0  0  0
    1.6090   -7.8610   29.8580 O   0  0  0  0  0  0  0  0  0  0  0  0
    1.0730   -8.5600   30.9030 C   0  0  0  0  0  0  0  0  0  0  0  0
   -0.1770   -7.9090   31.4460 C   0  0  0  0  0  0  0  0  0  0  0  0
    2.0960   -8.7550   32.0070 C   0  0  0  0  0  0  0  0  0  0  0  0
    0.6860   -9.8420   30.2950 C   0  0  0  0  0  0  0  0  0  0  0  0
    4.6440   -7.3610   29.1770 C   0  0  0  0  0  0  0  0  0  0  0  0
    5.9490   -5.5780   27.6400 C   0  0  0  0  0  0  0  0  0  0  0  0
    6.1650   -4.5150   26.8190 C   0  0  0  0  0  0  0  0  0  0  0  0
    7.1460   -3.0420   23.7430 C   0  0  0  0  0  0  0  0  0  0  0  0
    7.5960   -3.2670   22.4240 C   0  0  0  0  0  0  0  0  0  0  0  0
  1  2  1  0
  2  3  2  0
  2  4  1  0
  4  5  1  0
  5  6  1  0
  6  7  1  0
  7  8  1  0
  8  9  2  0
  8 10  1  0
 10 11  1  0
 11 12  1  0
 12 13  1  0
 13 14  1  0
 14 15  1  0
 14 16  1  0
 16 17  1  0
 17 18  1  0
 18 19  2  0
 18 20  1  0
 21 20  1  0
 21 22  1  0
 21 23  1  0
 21 24  1  0
 14 25  1  0
 17 25  1  0
 13 26  1  0
 10 27  1  0
 26 27  1  0
  7 28  1  0
  4 29  1  0
 28 29  1  0
M  END
