piperidine-amides-8754-covalent
     RDKit          3D

 23 24  0  0  0  0  0  0  0  0999 V2000
    7.0770   -3.2750   19.2630 C   0  0  0  0  0  0  0  0  0  0  0  0
    6.3530   -4.0640   20.2580 C   0  0  0  0  0  0  0  0  0  0  0  0
    5.2930   -4.6040   19.9070 O   0  0  0  0  0  0  0  0  0  0  0  0
    6.8820   -4.2480   21.5650 N   0  0  0  0  0  0  0  0  0  0  0  0
    6.5240   -5.4290   22.2920 C   0  0  0  0  0  0  0  0  0  0  0  0
    5.7390   -5.0210   23.5030 C   0  0  0  0  0  0  0  0  0  0  0  0
    6.5360   -3.9300   24.1820 C   0  0  0  0  0  0  0  0  0  0  0  0
    5.7790   -3.4110   25.3770 C   0  0  0  0  0  0  0  0  0  0  0  0
    4.5820   -3.1810   25.1980 O   0  0  0  0  0  0  0  0  0  0  0  0
    6.4590   -3.2210   26.5840 N   0  0  0  0  0  0  0  0  0  0  0  0
    6.2920   -4.0640   27.7420 C   0  0  2  0  0  0  0  0  0  0  0  0
    6.1140   -5.4510   27.5240 C   0  0  0  0  0  0  0  0  0  0  0  0
    5.0090   -3.6780   28.3130 C   0  0  0  0  0  0  0  0  0  0  0  0
    4.8090   -2.6240   29.1930 C   0  0  0  0  0  0  0  0  0  0  0  0
    3.4550   -2.7520   29.7660 C   0  0  0  0  0  0  0  0  0  0  0  0
    2.8620   -1.7700   30.7870 C   0  0  0  0  0  0  0  0  0  0  0  0
    3.7370   -0.6290   31.2030 C   0  0  0  0  0  0  0  0  0  0  0  0
    3.1800    0.5590   32.3590 Cl  0  0  0  0  0  0  0  0  0  0  0  0
    5.1190   -0.5590   30.5740 C   0  0  0  0  0  0  0  0  0  0  0  0
    5.6590   -1.5880   29.5420 C   0  0  0  0  0  0  0  0  0  0  0  0
    7.2650   -1.3860   28.8940 Cl  0  0  0  0  0  0  0  0  0  0  0  0
    6.7150   -2.7670   23.2300 C   0  0  0  0  0  0  0  0  0  0  0  0
    7.5890   -3.1960   22.2540 C   0  0  0  0  0  0  0  0  0  0  0  0
  1  2  1  0
  2  3  2  0
  2  4  1  0
  4  5  1  0
  5  6  1  0
  6  7  1  0
  7  8  1  0
  8  9  2  0
  8 10  1  0
 10 11  1  0
 11 12  1  6
 11 13  1  0
 13 14  1  0
 14 15  2  0
 15 16  1  0
 16 17  2  0
 17 18  1  0
 17 19  1  0
 14 20  1  0
 19 20  2  0
 20 21  1  0
  7 22  1  0
  4 23  1  0
 22 23  1  0
M  END
