piperidine-amides-582-covalent
     RDKit          3D

 26 27  0  0  0  0  0  0  0  0999 V2000
    7.1170   -3.3540   19.2230 C   0  0  0  0  0  0  0  0  0  0  0  0
    6.4150   -4.0770   20.2560 C   0  0  0  0  0  0  0  0  0  0  0  0
    5.3210   -4.6360   19.9320 O   0  0  0  0  0  0  0  0  0  0  0  0
    6.9280   -4.2460   21.5620 N   0  0  0  0  0  0  0  0  0  0  0  0
    6.5110   -5.4440   22.3080 C   0  0  0  0  0  0  0  0  0  0  0  0
    5.5820   -4.7540   23.3760 C   0  0  0  0  0  0  0  0  0  0  0  0
    6.4460   -3.7130   24.0650 C   0  0  0  0  0  0  0  0  0  0  0  0
    5.7240   -3.1480   25.3560 C   0  0  0  0  0  0  0  0  0  0  0  0
    5.2350   -2.0520   25.1310 O   0  0  0  0  0  0  0  0  0  0  0  0
    5.8260   -3.9830   26.2980 N   0  0  0  0  0  0  0  0  0  0  0  0
    5.8050   -4.8700   27.3250 C   0  0  1  0  0  0  0  0  0  0  0  0
    6.3020   -6.1120   27.5760 C   0  0  0  0  0  0  0  0  0  0  0  0
    6.3470   -4.1100   28.4960 C   0  0  0  0  0  0  0  0  0  0  0  0
    5.3880   -3.8730   29.4900 O   0  0  0  0  0  0  0  0  0  0  0  0
    4.9470   -5.0750   30.0270 C   0  0  0  0  0  0  0  0  0  0  0  0
    5.8560   -6.2490   30.0370 C   0  0  0  0  0  0  0  0  0  0  0  0
    5.1890   -7.3570   30.6480 C   0  0  0  0  0  0  0  0  0  0  0  0
    3.8920   -7.6930   31.2630 C   0  0  0  0  0  0  0  0  0  0  0  0
    3.1050   -6.3430   31.1480 C   0  0  0  0  0  0  0  0  0  0  0  0
    3.6290   -5.0400   30.5340 C   0  0  0  0  0  0  0  0  0  0  0  0
    4.2950   -5.1360   27.4690 C   0  0  0  0  0  0  0  0  0  0  0  0
    3.4720   -4.3290   28.2080 O   0  0  0  0  0  0  0  0  0  0  0  0
    3.6380   -6.1970   26.8570 O   0  0  0  0  0  0  0  0  0  0  0  0
    3.5870   -7.3610   27.6010 C   0  0  0  0  0  0  0  0  0  0  0  0
    6.9800   -2.6180   23.1600 C   0  0  0  0  0  0  0  0  0  0  0  0
    7.7410   -3.2510   22.2230 C   0  0  0  0  0  0  0  0  0  0  0  0
  1  2  1  0
  2  3  2  0
  2  4  1  0
  4  5  1  0
  5  6  1  0
  6  7  1  0
  7  8  1  0
  8  9  2  0
  8 10  1  0
 10 11  1  0
 11 12  1  6
 11 13  1  0
 13 14  1  0
 14 15  1  0
 15 16  2  0
 16 17  1  0
 17 18  2  0
 18 19  1  0
 15 20  1  0
 19 20  2  0
 11 21  1  0
 21 22  2  0
 21 23  1  0
 23 24  1  0
  7 25  1  0
  4 26  1  0
 25 26  1  0
M  END
