piperidine-amides-35221-covalent
     RDKit          3D

 32 34  0  0  0  0  0  0  0  0999 V2000
    7.1240   -3.2950   19.2950 C   0  0  0  0  0  0  0  0  0  0  0  0
    6.3510   -4.0820   20.2850 C   0  0  0  0  0  0  0  0  0  0  0  0
    5.2950   -4.5830   19.9000 O   0  0  0  0  0  0  0  0  0  0  0  0
    6.8510   -4.2790   21.5720 N   0  0  0  0  0  0  0  0  0  0  0  0
    6.5500   -5.4770   22.3040 C   0  0  0  0  0  0  0  0  0  0  0  0
    5.9350   -5.1020   23.6200 C   0  0  0  0  0  0  0  0  0  0  0  0
    6.7610   -3.9890   24.2780 C   0  0  0  0  0  0  0  0  0  0  0  0
    6.0410   -3.5340   25.4760 C   0  0  0  0  0  0  0  0  0  0  0  0
    4.9340   -2.9830   25.3660 O   0  0  0  0  0  0  0  0  0  0  0  0
    6.6070   -3.7460   26.7450 N   0  0  0  0  0  0  0  0  0  0  0  0
    6.1010   -2.9650   27.8550 C   0  0  0  0  0  0  0  0  0  0  0  0
    6.5340   -1.5190   27.7340 C   0  0  0  0  0  0  0  0  0  0  0  0
    6.1980   -0.7120   26.6880 C   0  0  0  0  0  0  0  0  0  0  0  0
    6.3530   -0.7370   25.2220 N   0  0  0  0  0  0  0  0  0  0  0  0
    5.8610    0.3230   24.4650 C   0  0  0  0  0  0  0  0  0  0  0  0
    5.9150    0.4790   23.1110 C   0  0  0  0  0  0  0  0  0  0  0  0
    6.5640    1.7220   22.5280 C   0  0  0  0  0  0  0  0  0  0  0  0
    6.5500    1.7710   21.0230 C   0  0  0  0  0  0  0  0  0  0  0  0
    5.9390    0.6680   20.1940 C   0  0  0  0  0  0  0  0  0  0  0  0
    5.8930    0.6830   18.5060 S   0  0  0  0  0  0  0  0  0  0  0  0
    4.7130    2.0200   18.3620 C   0  0  0  0  0  0  0  0  0  0  0  0
    5.3820   -0.6090   17.9790 O   0  0  0  0  0  0  0  0  0  0  0  0
    7.2400    1.0630   17.9990 O   0  0  0  0  0  0  0  0  0  0  0  0
    5.3180   -0.5420   20.8310 C   0  0  0  0  0  0  0  0  0  0  0  0
    5.3040   -0.6420   22.3310 C   0  0  0  0  0  0  0  0  0  0  0  0
    5.3130    1.1670   25.4210 C   0  0  0  0  0  0  0  0  0  0  0  0
    5.5300    0.5510   26.5860 N   0  0  0  0  0  0  0  0  0  0  0  0
    7.0220   -5.0690   27.2100 C   0  0  0  0  0  0  0  0  0  0  0  0
    7.6590   -5.2590   28.4140 C   0  0  0  0  0  0  0  0  0  0  0  0
    5.8040   -5.9560   27.2130 C   0  0  0  0  0  0  0  0  0  0  0  0
    6.9410   -2.7630   23.3850 C   0  0  0  0  0  0  0  0  0  0  0  0
    7.6880   -3.2540   22.1670 C   0  0  0  0  0  0  0  0  0  0  0  0
  1  2  1  0
  2  3  2  0
  2  4  1  0
  4  5  1  0
  5  6  1  0
  6  7  1  0
  7  8  1  0
  8  9  2  0
  8 10  1  0
 10 11  1  0
 11 12  1  0
 12 13  1  0
 13 14  2  0
 14 15  1  0
 15 16  1  0
 16 17  2  0
 17 18  1  0
 18 19  2  0
 19 20  1  0
 20 21  1  0
 20 22  2  0
 20 23  2  0
 19 24  1  0
 16 25  1  0
 24 25  2  0
 15 26  2  0
 13 27  1  0
 26 27  1  0
 10 28  1  0
 28 29  1  0
 28 30  1  0
  7 31  1  0
  4 32  1  0
 31 32  1  0
M  END
