piperidine-amides-31614-covalent
     RDKit          3D

 28 30  0  0  0  0  0  0  0  0999 V2000
    7.0680   -3.3660   19.4900 C   0  0  0  0  0  0  0  0  0  0  0  0
    6.3950   -4.2430   20.4230 C   0  0  0  0  0  0  0  0  0  0  0  0
    5.4090   -4.9260   19.9970 O   0  0  0  0  0  0  0  0  0  0  0  0
    6.8190   -4.3890   21.7620 N   0  0  0  0  0  0  0  0  0  0  0  0
    6.4190   -5.6170   22.4810 C   0  0  0  0  0  0  0  0  0  0  0  0
    5.4350   -4.9970   23.5530 C   0  0  0  0  0  0  0  0  0  0  0  0
    6.3270   -4.2330   24.5050 C   0  0  0  0  0  0  0  0  0  0  0  0
    5.5430   -3.1000   25.3300 C   0  0  0  0  0  0  0  0  0  0  0  0
    5.4080   -2.1450   24.5950 O   0  0  0  0  0  0  0  0  0  0  0  0
    5.1900   -3.4010   26.5470 N   0  0  0  0  0  0  0  0  0  0  0  0
    4.3250   -3.5510   27.5720 C   0  0  0  0  0  0  0  0  0  0  0  0
    4.2110   -4.2470   28.7260 C   0  0  0  0  0  0  0  0  0  0  0  0
    5.5260   -4.6440   29.1270 N   0  0  0  0  0  0  0  0  0  0  0  0
    5.7580   -5.8950   29.5520 C   0  0  0  0  0  0  0  0  0  0  0  0
    6.8290   -6.7550   29.3310 O   0  0  0  0  0  0  0  0  0  0  0  0
    4.6760   -6.4610   30.4030 C   0  0  0  0  0  0  0  0  0  0  0  0
    5.5160   -7.3000   31.3690 C   0  0  0  0  0  0  0  0  0  0  0  0
    4.6210   -7.9240   32.2800 C   0  0  0  0  0  0  0  0  0  0  0  0
    3.2000   -7.8030   32.3010 C   0  0  0  0  0  0  0  0  0  0  0  0
    3.0350   -8.7330   33.5060 C   0  0  0  0  0  0  0  0  0  0  0  0
    2.4330   -6.9410   31.2920 C   0  0  0  0  0  0  0  0  0  0  0  0
    1.1800   -6.8510   31.3290 O   0  0  0  0  0  0  0  0  0  0  0  0
    0.4190   -6.0180   30.4640 C   0  0  0  0  0  0  0  0  0  0  0  0
    3.3330   -6.2940   30.3560 C   0  0  0  0  0  0  0  0  0  0  0  0
    6.5110   -4.4340   28.1430 C   0  0  0  0  0  0  0  0  0  0  0  0
    6.3630   -3.2620   27.3700 C   0  0  0  0  0  0  0  0  0  0  0  0
    7.5940   -3.6800   23.9080 C   0  0  0  0  0  0  0  0  0  0  0  0
    7.4880   -3.3080   22.4530 C   0  0  0  0  0  0  0  0  0  0  0  0
  1  2  1  0
  2  3  2  0
  2  4  1  0
  4  5  1  0
  5  6  1  0
  6  7  1  0
  7  8  1  0
  8  9  2  0
  8 10  1  0
 10 11  1  0
 11 12  1  0
 12 13  1  0
 13 14  1  0
 14 15  2  0
 14 16  1  0
 16 17  2  0
 17 18  1  0
 18 19  2  0
 19 20  1  0
 19 21  1  0
 21 22  1  0
 22 23  1  0
 16 24  1  0
 21 24  2  0
 13 25  1  0
 10 26  1  0
 25 26  1  0
  7 27  1  0
  4 28  1  0
 27 28  1  0
M  END
