piperidine-amides-34207-covalent
     RDKit          3D

 30 33  0  0  0  0  0  0  0  0999 V2000
    7.0330   -3.3260   19.3420 C   0  0  0  0  0  0  0  0  0  0  0  0
    6.3730   -4.1820   20.3440 C   0  0  0  0  0  0  0  0  0  0  0  0
    5.3940   -4.8800   19.9940 O   0  0  0  0  0  0  0  0  0  0  0  0
    6.8480   -4.2650   21.6720 N   0  0  0  0  0  0  0  0  0  0  0  0
    6.7120   -5.5420   22.3570 C   0  0  0  0  0  0  0  0  0  0  0  0
    6.1500   -5.2860   23.7640 C   0  0  0  0  0  0  0  0  0  0  0  0
    6.0500   -3.7920   23.9200 C   0  0  0  0  0  0  0  0  0  0  0  0
    5.5450   -3.4390   25.2650 C   0  0  0  0  0  0  0  0  0  0  0  0
    4.3200   -3.5810   25.4390 O   0  0  0  0  0  0  0  0  0  0  0  0
    6.3520   -2.9440   26.3220 N   0  0  0  0  0  0  0  0  0  0  0  0
    6.2380   -3.6390   27.5800 C   0  0  0  0  0  0  0  0  0  0  0  0
    5.0710   -3.0410   28.3480 C   0  0  0  0  0  0  0  0  0  0  0  0
    5.1460   -2.1830   29.4500 C   0  0  0  0  0  0  0  0  0  0  0  0
    4.0280   -1.6740   30.1030 C   0  0  0  0  0  0  0  0  0  0  0  0
    2.7410   -1.9860   29.7050 C   0  0  0  0  0  0  0  0  0  0  0  0
    2.5440   -2.8070   28.6540 C   0  0  0  0  0  0  0  0  0  0  0  0
    3.6710   -3.4100   27.8800 C   0  0  0  0  0  0  0  0  0  0  0  0
    6.3200   -1.5230   26.6190 C   0  0  0  0  0  0  0  0  0  0  0  0
    6.6130   -1.0140   28.0120 N   0  0  0  0  0  0  0  0  0  0  0  0
    6.4860    0.4360   27.9940 C   0  0  0  0  0  0  0  0  0  0  0  0
    6.6820    1.3290   29.1420 C   0  0  0  0  0  0  0  0  0  0  0  0
    6.5290    2.7250   28.9540 C   0  0  0  0  0  0  0  0  0  0  0  0
    6.2020    3.3340   27.7550 C   0  0  0  0  0  0  0  0  0  0  0  0
    6.1300    4.6350   27.8450 O   0  0  0  0  0  0  0  0  0  0  0  0
    7.3460    5.2340   27.6230 C   0  0  0  0  0  0  0  0  0  0  0  0
    5.9670    2.5190   26.5010 C   0  0  0  0  0  0  0  0  0  0  0  0
    6.1400    1.0360   26.7390 C   0  0  0  0  0  0  0  0  0  0  0  0
    5.9610   -0.1780   25.5710 S   0  0  0  0  0  0  0  0  0  0  0  0
    7.2900   -3.0440   23.5740 C   0  0  0  0  0  0  0  0  0  0  0  0
    7.6700   -3.2330   22.2840 C   0  0  0  0  0  0  0  0  0  0  0  0
  1  2  1  0
  2  3  2  0
  2  4  1  0
  4  5  1  0
  5  6  1  0
  6  7  1  0
  7  8  1  0
  8  9  2  0
  8 10  1  0
 10 11  1  0
 11 12  1  0
 12 13  2  0
 13 14  1  0
 14 15  2  0
 15 16  1  0
 12 17  1  0
 16 17  2  0
 10 18  1  0
 18 19  2  0
 19 20  1  0
 20 21  2  0
 21 22  1  0
 22 23  2  0
 23 24  1  0
 24 25  1  0
 23 26  1  0
 20 27  1  0
 26 27  2  0
 18 28  1  0
 27 28  1  0
  7 29  1  0
  4 30  1  0
 29 30  1  0
M  END
