piperidine-amides-13633-covalent
     RDKit          3D

 28 30  0  0  0  0  0  0  0  0999 V2000
    7.0600   -3.3270   19.3170 C   0  0  0  0  0  0  0  0  0  0  0  0
    6.3580   -4.1780   20.3150 C   0  0  0  0  0  0  0  0  0  0  0  0
    5.3480   -4.8120   19.9660 O   0  0  0  0  0  0  0  0  0  0  0  0
    6.8860   -4.2800   21.6170 N   0  0  0  0  0  0  0  0  0  0  0  0
    7.6690   -3.1990   22.1830 C   0  0  0  0  0  0  0  0  0  0  0  0
    7.5460   -3.2550   23.7090 C   0  0  0  0  0  0  0  0  0  0  0  0
    6.1660   -3.7230   24.0230 C   0  0  0  0  0  0  0  0  0  0  0  0
    5.6680   -3.2410   25.3280 C   0  0  0  0  0  0  0  0  0  0  0  0
    4.4410   -3.2440   25.4760 O   0  0  0  0  0  0  0  0  0  0  0  0
    6.5560   -2.8100   26.3150 N   0  0  0  0  0  0  0  0  0  0  0  0
    6.4730   -1.6080   27.0540 C   0  0  0  0  0  0  0  0  0  0  0  0
    6.9970   -1.5090   28.3300 C   0  0  0  0  0  0  0  0  0  0  0  0
    6.9670   -0.3760   29.1490 C   0  0  0  0  0  0  0  0  0  0  0  0
    6.3880    0.7990   28.7470 C   0  0  0  0  0  0  0  0  0  0  0  0
    5.7710    0.8910   27.4070 C   0  0  0  0  0  0  0  0  0  0  0  0
    5.1940    2.0250   26.9910 O   0  0  0  0  0  0  0  0  0  0  0  0
    5.3910    3.3410   27.2520 C   0  0  0  0  0  0  0  0  0  0  0  0
    4.2290    4.2050   27.5460 C   0  0  0  0  0  0  0  0  0  0  0  0
    2.9030    3.9690   27.6210 N   0  0  0  0  0  0  0  0  0  0  0  0
    2.2290    4.1150   28.7960 O   0  0  0  0  0  0  0  0  0  0  0  0
    2.2310    3.7320   26.4480 O   0  0  0  0  0  0  0  0  0  0  0  0
    4.6160    5.4510   27.7740 N   0  0  0  0  0  0  0  0  0  0  0  0
    5.9870    5.3540   27.6210 C   0  0  0  0  0  0  0  0  0  0  0  0
    6.4910    4.1060   27.3070 N   0  0  0  0  0  0  0  0  0  0  0  0
    7.7820    3.7640   27.1080 C   0  0  0  0  0  0  0  0  0  0  0  0
    5.8420   -0.3480   26.5910 C   0  0  0  0  0  0  0  0  0  0  0  0
    6.1670   -5.1710   23.8090 C   0  0  0  0  0  0  0  0  0  0  0  0
    6.6570   -5.4770   22.3840 C   0  0  0  0  0  0  0  0  0  0  0  0
  1  2  1  0
  2  3  2  0
  2  4  1  0
  4  5  1  0
  5  6  1  0
  6  7  1  0
  7  8  1  0
  8  9  2  0
  8 10  1  0
 10 11  1  0
 11 12  2  0
 12 13  1  0
 13 14  2  0
 14 15  1  0
 15 16  1  0
 16 17  1  0
 17 18  2  0
 18 19  1  0
 19 20  2  0
 19 21  1  0
 18 22  1  0
 22 23  2  0
 17 24  1  0
 23 24  1  0
 24 25  1  0
 11 26  1  0
 15 26  2  0
  7 27  1  0
  4 28  1  0
 27 28  1  0
M  CHG  2  19   1  21  -1
M  END
