piperidine-amides-1799-covalent
     RDKit          3D

 19 19  0  0  0  0  0  0  0  0999 V2000
    7.1250   -3.2580   19.1860 C   0  0  0  0  0  0  0  0  0  0  0  0
    6.3820   -4.0310   20.2140 C   0  0  0  0  0  0  0  0  0  0  0  0
    5.3110   -4.5360   19.8800 O   0  0  0  0  0  0  0  0  0  0  0  0
    6.9350   -4.1970   21.4820 N   0  0  0  0  0  0  0  0  0  0  0  0
    7.6990   -3.1670   22.1300 C   0  0  0  0  0  0  0  0  0  0  0  0
    6.9160   -2.6340   23.2870 C   0  0  0  0  0  0  0  0  0  0  0  0
    6.5430   -3.7870   24.2170 C   0  0  0  0  0  0  0  0  0  0  0  0
    5.7440   -3.2030   25.3100 C   0  0  0  0  0  0  0  0  0  0  0  0
    4.7900   -2.4640   25.0350 O   0  0  0  0  0  0  0  0  0  0  0  0
    6.0420   -3.4780   26.6520 N   0  0  0  0  0  0  0  0  0  0  0  0
    5.8990   -4.8450   27.0970 C   0  0  2  0  0  0  0  0  0  0  0  0
    4.4510   -5.2050   27.1420 C   0  0  0  0  0  0  0  0  0  0  0  0
    4.0120   -5.6430   25.9090 O   0  0  0  0  0  0  0  0  0  0  0  0
    6.4180   -5.0570   28.4690 C   0  0  1  0  0  0  0  0  0  0  0  0
    5.3200   -4.4540   28.9660 C   0  0  0  0  0  0  0  0  0  0  0  0
    6.4880   -6.5610   28.7070 C   0  0  0  0  0  0  0  0  0  0  0  0
    5.8450   -7.0720   29.9770 C   0  0  0  0  0  0  0  0  0  0  0  0
    5.8340   -4.9080   23.5150 C   0  0  0  0  0  0  0  0  0  0  0  0
    6.5480   -5.3440   22.2720 C   0  0  0  0  0  0  0  0  0  0  0  0
  1  2  1  0
  2  3  2  0
  2  4  1  0
  4  5  1  0
  5  6  1  0
  6  7  1  0
  7  8  1  0
  8  9  2  0
  8 10  1  0
 10 11  1  0
 11 12  1  1
 12 13  1  0
 11 14  1  0
 14 15  1  1
 14 16  1  0
 16 17  1  0
  7 18  1  0
  4 19  1  0
 18 19  1  0
M  END
