piperidine-amides-17104-covalent
     RDKit          3D

 20 21  0  0  0  0  0  0  0  0999 V2000
    7.0900   -3.3570   19.3470 C   0  0  0  0  0  0  0  0  0  0  0  0
    6.4370   -4.2220   20.3400 C   0  0  0  0  0  0  0  0  0  0  0  0
    5.3830   -4.8020   19.9760 O   0  0  0  0  0  0  0  0  0  0  0  0
    7.0100   -4.4360   21.6210 N   0  0  0  0  0  0  0  0  0  0  0  0
    6.5120   -5.4990   22.4100 C   0  0  0  0  0  0  0  0  0  0  0  0
    5.8810   -5.0820   23.6650 C   0  0  0  0  0  0  0  0  0  0  0  0
    6.3250   -3.7970   24.2740 C   0  0  0  0  0  0  0  0  0  0  0  0
    5.2610   -3.2780   25.1990 C   0  0  0  0  0  0  0  0  0  0  0  0
    4.2660   -2.7380   24.6980 O   0  0  0  0  0  0  0  0  0  0  0  0
    5.3420   -3.3790   26.6030 N   0  0  0  0  0  0  0  0  0  0  0  0
    6.5040   -3.3150   27.3310 C   0  0  0  0  0  0  0  0  0  0  0  0
    6.8340   -4.4370   28.2120 C   0  0  0  0  0  0  0  0  0  0  0  0
    5.6230   -4.5700   29.0470 C   0  0  0  0  0  0  0  0  0  0  0  0
    4.5640   -4.9130   28.2870 C   0  0  1  0  0  0  0  0  0  0  0  0
    3.4930   -5.3830   29.0190 O   0  0  0  0  0  0  0  0  0  0  0  0
    3.5050   -6.7650   29.1530 C   0  0  0  0  0  0  0  0  0  0  0  0
    4.2200   -3.6590   27.4580 C   0  0  1  0  0  0  0  0  0  0  0  0
    4.0890   -2.6000   28.5640 C   0  0  0  0  0  0  0  0  0  0  0  0
    6.7920   -2.7330   23.3050 C   0  0  0  0  0  0  0  0  0  0  0  0
    7.7220   -3.3780   22.3020 C   0  0  0  0  0  0  0  0  0  0  0  0
  1  2  1  0
  2  3  2  0
  2  4  1  0
  4  5  1  0
  5  6  1  0
  6  7  1  0
  7  8  1  0
  8  9  2  0
  8 10  1  0
 10 11  1  0
 11 12  1  0
 12 13  1  0
 13 14  1  0
 14 15  1  1
 15 16  1  0
 10 17  1  0
 14 17  1  0
 17 18  1  1
  7 19  1  0
  4 20  1  0
 19 20  1  0
M  END
