piperidine-amides-1359-covalent
     RDKit          3D

 22 23  0  0  0  0  0  0  0  0999 V2000
    7.0600   -3.3450   19.3540 C   0  0  0  0  0  0  0  0  0  0  0  0
    6.3330   -4.1760   20.3530 C   0  0  0  0  0  0  0  0  0  0  0  0
    5.3590   -4.8490   19.9780 O   0  0  0  0  0  0  0  0  0  0  0  0
    6.8040   -4.1960   21.6860 N   0  0  0  0  0  0  0  0  0  0  0  0
    7.7100   -3.1640   22.1560 C   0  0  0  0  0  0  0  0  0  0  0  0
    7.5040   -3.0290   23.6560 C   0  0  0  0  0  0  0  0  0  0  0  0
    6.1470   -3.5710   23.9090 C   0  0  0  0  0  0  0  0  0  0  0  0
    5.6570   -3.2320   25.2620 C   0  0  0  0  0  0  0  0  0  0  0  0
    4.4430   -3.3510   25.4610 O   0  0  0  0  0  0  0  0  0  0  0  0
    6.5670   -2.7940   26.2230 N   0  0  0  0  0  0  0  0  0  0  0  0
    6.4790   -1.6220   27.0220 C   0  0  0  0  0  0  0  0  0  0  0  0
    5.9410   -0.4130   26.6230 C   0  0  0  0  0  0  0  0  0  0  0  0
    5.8770    0.7290   27.4660 C   0  0  0  0  0  0  0  0  0  0  0  0
    6.3550    0.7210   28.7660 C   0  0  0  0  0  0  0  0  0  0  0  0
    6.2700    1.9370   29.6260 C   0  0  0  0  0  0  0  0  0  0  0  0
    5.1240    1.9500   30.6500 C   0  0  0  0  0  0  0  0  0  0  0  0
    5.7090    1.1510   31.8170 C   0  0  0  0  0  0  0  0  0  0  0  0
    4.9740    0.4370   32.6890 N   0  0  0  0  0  0  0  0  0  0  0  0
    6.8970   -0.4260   29.2250 C   0  0  0  0  0  0  0  0  0  0  0  0
    6.9780   -1.6210   28.3860 C   0  0  0  0  0  0  0  0  0  0  0  0
    6.0080   -5.0380   23.6560 C   0  0  0  0  0  0  0  0  0  0  0  0
    6.6680   -5.3850   22.4920 C   0  0  0  0  0  0  0  0  0  0  0  0
  1  2  1  0
  2  3  2  0
  2  4  1  0
  4  5  1  0
  5  6  1  0
  6  7  1  0
  7  8  1  0
  8  9  2  0
  8 10  1  0
 10 11  1  0
 11 12  2  0
 12 13  1  0
 13 14  2  0
 14 15  1  0
 15 16  1  0
 16 17  1  0
 17 18  3  0
 14 19  1  0
 11 20  1  0
 19 20  2  0
  7 21  1  0
  4 22  1  0
 21 22  1  0
M  END
