piperidine-amides-10972-covalent
     RDKit          3D

 21 22  0  0  0  0  0  0  0  0999 V2000
    7.1040   -3.2740   19.1970 C   0  0  0  0  0  0  0  0  0  0  0  0
    6.3540   -4.0230   20.2070 C   0  0  0  0  0  0  0  0  0  0  0  0
    5.2760   -4.5530   19.8840 O   0  0  0  0  0  0  0  0  0  0  0  0
    6.8420   -4.2130   21.5090 N   0  0  0  0  0  0  0  0  0  0  0  0
    6.5590   -5.3980   22.2800 C   0  0  0  0  0  0  0  0  0  0  0  0
    5.8140   -4.9050   23.4930 C   0  0  0  0  0  0  0  0  0  0  0  0
    6.5670   -3.8170   24.2060 C   0  0  0  0  0  0  0  0  0  0  0  0
    5.8410   -3.3080   25.3960 C   0  0  0  0  0  0  0  0  0  0  0  0
    4.5850   -3.1500   25.3490 O   0  0  0  0  0  0  0  0  0  0  0  0
    6.4980   -2.9650   26.5990 N   0  0  0  0  0  0  0  0  0  0  0  0
    6.2340   -3.6790   27.8740 C   0  0  0  0  0  0  0  0  0  0  0  0
    5.8490   -5.0840   27.6060 C   0  0  0  0  0  0  0  0  0  0  0  0
    4.5220   -5.5180   28.0940 C   0  0  1  0  0  0  0  0  0  0  0  0
    4.5190   -7.0080   28.3020 C   0  0  0  0  0  0  0  0  0  0  0  0
    4.6200   -7.3890   29.7690 C   0  0  0  0  0  0  0  0  0  0  0  0
    3.5990   -6.6220   30.5320 C   0  0  0  0  0  0  0  0  0  0  0  0
    3.0920   -7.1040   31.7130 O   0  0  0  0  0  0  0  0  0  0  0  0
    3.1860   -5.3750   29.9840 N   0  0  0  0  0  0  0  0  0  0  0  0
    4.1150   -4.7990   29.2090 C   0  0  0  0  0  0  0  0  0  0  0  0
    6.8810   -2.6580   23.3040 C   0  0  0  0  0  0  0  0  0  0  0  0
    7.6720   -3.2000   22.1410 C   0  0  0  0  0  0  0  0  0  0  0  0
  1  2  1  0
  2  3  2  0
  2  4  1  0
  4  5  1  0
  5  6  1  0
  6  7  1  0
  7  8  1  0
  8  9  2  0
  8 10  1  0
 10 11  1  0
 11 12  1  0
 13 12  1  1
 13 14  1  0
 14 15  1  0
 15 16  1  0
 16 17  2  0
 16 18  1  0
 13 19  1  0
 18 19  1  0
  7 20  1  0
  4 21  1  0
 20 21  1  0
M  END
