piperidine-amides-33267-covalent
     RDKit          3D

 28 30  0  0  0  0  0  0  0  0999 V2000
    7.1110   -3.3840   19.3520 C   0  0  0  0  0  0  0  0  0  0  0  0
    6.4120   -4.2120   20.3420 C   0  0  0  0  0  0  0  0  0  0  0  0
    5.3600   -4.7880   19.9700 O   0  0  0  0  0  0  0  0  0  0  0  0
    6.9700   -4.3800   21.6340 N   0  0  0  0  0  0  0  0  0  0  0  0
    6.6010   -5.5230   22.4140 C   0  0  0  0  0  0  0  0  0  0  0  0
    6.1440   -5.1760   23.7580 C   0  0  0  0  0  0  0  0  0  0  0  0
    6.1450   -3.7200   23.9800 C   0  0  0  0  0  0  0  0  0  0  0  0
    5.5260   -3.2740   25.2650 C   0  0  0  0  0  0  0  0  0  0  0  0
    4.7980   -2.2680   25.2350 O   0  0  0  0  0  0  0  0  0  0  0  0
    5.6820   -3.9120   26.5030 N   0  0  0  0  0  0  0  0  0  0  0  0
    4.6110   -4.5100   27.1960 C   0  0  0  0  0  0  0  0  0  0  0  0
    4.7900   -5.1640   28.4930 C   0  0  0  0  0  0  0  0  0  0  0  0
    5.8210   -4.4000   29.3090 C   0  0  0  0  0  0  0  0  0  0  0  0
    5.3650   -3.1730   29.7440 C   0  0  0  0  0  0  0  0  0  0  0  0
    6.0310   -1.9480   29.7590 N   0  0  0  0  0  0  0  0  0  0  0  0
    5.2710   -0.8900   30.2850 C   0  0  0  0  0  0  0  0  0  0  0  0
    5.7470    0.5180   30.4170 C   0  0  0  0  0  0  0  0  0  0  0  0
    3.8330   -1.2530   30.7550 C   0  0  0  0  0  0  0  0  0  0  0  0
    2.8560   -0.2620   31.3520 C   0  0  0  0  0  0  0  0  0  0  0  0
    1.9600    0.4310   30.5100 O   0  0  0  0  0  0  0  0  0  0  0  0
    2.7940    0.0020   32.6840 O   0  0  0  0  0  0  0  0  0  0  0  0
    3.8170    0.7350   33.3420 C   0  0  0  0  0  0  0  0  0  0  0  0
    5.0930   -0.1120   33.4990 C   0  0  0  0  0  0  0  0  0  0  0  0
    3.7040   -2.9350   30.4310 S   0  0  0  0  0  0  0  0  0  0  0  0
    6.8460   -4.2910   28.4590 C   0  0  0  0  0  0  0  0  0  0  0  0
    6.3810   -3.3210   27.5720 C   0  0  0  0  0  0  0  0  0  0  0  0
    7.4320   -3.0740   23.6540 C   0  0  0  0  0  0  0  0  0  0  0  0
    7.7330   -3.2860   22.2000 C   0  0  0  0  0  0  0  0  0  0  0  0
  1  2  1  0
  2  3  2  0
  2  4  1  0
  4  5  1  0
  5  6  1  0
  6  7  1  0
  7  8  1  0
  8  9  2  0
  8 10  1  0
 10 11  1  0
 11 12  1  0
 12 13  1  0
 13 14  1  0
 14 15  2  0
 15 16  1  0
 16 17  1  0
 16 18  2  0
 18 19  1  0
 19 20  2  0
 19 21  1  0
 21 22  1  0
 22 23  1  0
 14 24  1  0
 18 24  1  0
 13 25  1  0
 10 26  1  0
 25 26  1  0
  7 27  1  0
  4 28  1  0
 27 28  1  0
M  END
