piperidine-amides-13153-covalent
     RDKit          3D

 20 21  0  0  0  0  0  0  0  0999 V2000
    7.1500   -3.2710   19.1970 C   0  0  0  0  0  0  0  0  0  0  0  0
    6.4090   -4.0340   20.2280 C   0  0  0  0  0  0  0  0  0  0  0  0
    5.3180   -4.5310   19.8820 O   0  0  0  0  0  0  0  0  0  0  0  0
    6.9580   -4.2210   21.5020 N   0  0  0  0  0  0  0  0  0  0  0  0
    7.7160   -3.1770   22.1160 C   0  0  0  0  0  0  0  0  0  0  0  0
    7.2260   -2.8370   23.4400 C   0  0  0  0  0  0  0  0  0  0  0  0
    5.9700   -3.5340   23.7740 C   0  0  0  0  0  0  0  0  0  0  0  0
    5.5170   -3.1610   25.1310 C   0  0  0  0  0  0  0  0  0  0  0  0
    4.3120   -2.8900   25.2810 O   0  0  0  0  0  0  0  0  0  0  0  0
    6.3810   -3.1110   26.2350 N   0  0  0  0  0  0  0  0  0  0  0  0
    5.8090   -3.3200   27.5740 C   0  0  0  0  0  0  0  0  0  0  0  0
    6.8170   -3.3520   28.6450 C   0  0  0  0  0  0  0  0  0  0  0  0
    7.7020   -4.4310   28.6380 N   0  0  0  0  0  0  0  0  0  0  0  0
    7.1860   -5.6690   28.1580 C   0  0  0  0  0  0  0  0  0  0  0  0
    7.8480   -5.8140   26.9790 C   0  0  0  0  0  0  0  0  0  0  0  0
    8.7240   -4.8140   26.6380 C   0  0  2  0  0  0  0  0  0  0  0  0
    9.6420   -5.2720   25.8060 C   0  0  0  0  0  0  0  0  0  0  0  0
    8.9250   -4.2160   27.9780 C   0  0  0  0  0  0  0  0  0  0  0  0
    5.9530   -4.9980   23.5050 C   0  0  0  0  0  0  0  0  0  0  0  0
    6.5740   -5.3580   22.3040 C   0  0  0  0  0  0  0  0  0  0  0  0
  1  2  1  0
  2  3  2  0
  2  4  1  0
  4  5  1  0
  5  6  1  0
  6  7  1  0
  7  8  1  0
  8  9  2  0
  8 10  1  0
 10 11  1  0
 11 12  1  0
 12 13  1  0
 13 14  1  0
 14 15  1  0
 15 16  1  0
 16 17  1  1
 13 18  1  0
 16 18  1  0
  7 19  1  0
  4 20  1  0
 19 20  1  0
M  END
