piperidine-amides-265-covalent
     RDKit          3D

 38 43  0  0  0  0  0  0  0  0999 V2000
    7.1610   -3.2970   19.3600 C   0  0  0  0  0  0  0  0  0  0  0  0
    6.4170   -4.0900   20.3070 C   0  0  0  0  0  0  0  0  0  0  0  0
    5.3470   -4.6620   19.9270 O   0  0  0  0  0  0  0  0  0  0  0  0
    6.8720   -4.2830   21.6190 N   0  0  0  0  0  0  0  0  0  0  0  0
    7.6770   -3.2000   22.2380 C   0  0  0  0  0  0  0  0  0  0  0  0
    6.6630   -2.6980   23.3330 C   0  0  0  0  0  0  0  0  0  0  0  0
    6.5170   -3.8970   24.2210 C   0  0  0  0  0  0  0  0  0  0  0  0
    5.7070   -3.6270   25.5620 C   0  0  0  0  0  0  0  0  0  0  0  0
    5.0010   -4.5860   25.8110 O   0  0  0  0  0  0  0  0  0  0  0  0
    5.9570   -2.4810   26.0400 N   0  0  0  0  0  0  0  0  0  0  0  0
    6.0810   -1.2480   26.5960 C   0  0  0  0  0  0  0  0  0  0  0  0
    5.8980    0.0430   26.2510 C   0  0  0  0  0  0  0  0  0  0  0  0
    6.1140    1.1380   27.1070 C   0  0  0  0  0  0  0  0  0  0  0  0
    6.5730    1.1530   28.5090 C   0  0  0  0  0  0  0  0  0  0  0  0
    6.8070   -0.2950   28.9810 C   0  0  0  0  0  0  0  0  0  0  0  0
    6.5490   -1.3040   28.0460 C   0  0  0  0  0  0  0  0  0  0  0  0
    6.7570   -2.5710   28.5680 C   0  0  0  0  0  0  0  0  0  0  0  0
    5.7570   -1.6080   29.2310 C   0  0  0  0  0  0  0  0  0  0  0  0
    6.2130   -0.8530   30.5410 C   0  0  0  0  0  0  0  0  0  0  0  0
    7.5310   -0.5210   30.8580 C   0  0  0  0  0  0  0  0  0  0  0  0
    7.6070    0.1160   32.0290 N   0  0  0  0  0  0  0  0  0  0  0  0
    6.2740    0.1890   32.4720 C   0  0  0  0  0  0  0  0  0  0  0  0
    5.9160    0.7610   33.6220 C   0  0  0  0  0  0  0  0  0  0  0  0
    4.5740    0.7850   33.9800 C   0  0  0  0  0  0  0  0  0  0  0  0
    3.4240    0.2820   33.3070 C   0  0  0  0  0  0  0  0  0  0  0  0
    4.0100   -0.3220   32.0450 C   0  0  0  0  0  0  0  0  0  0  0  0
    5.4370   -0.3760   31.6090 C   0  0  0  0  0  0  0  0  0  0  0  0
    4.3660   -2.0800   29.3810 C   0  0  0  0  0  0  0  0  0  0  0  0
    3.8990   -3.5220   29.4850 C   0  0  0  0  0  0  0  0  0  0  0  0
    2.5640   -3.4790   29.6070 N   0  0  0  0  0  0  0  0  0  0  0  0
    2.1080   -2.1950   29.5940 C   0  0  0  0  0  0  0  0  0  0  0  0
    0.8410   -1.6540   29.6880 C   0  0  0  0  0  0  0  0  0  0  0  0
    0.6310   -0.2980   29.6470 C   0  0  0  0  0  0  0  0  0  0  0  0
    1.7110    0.5390   29.5090 C   0  0  0  0  0  0  0  0  0  0  0  0
    2.9860   -0.0100   29.4150 C   0  0  0  0  0  0  0  0  0  0  0  0
    3.2090   -1.3580   29.4550 C   0  0  0  0  0  0  0  0  0  0  0  0
    5.9330   -5.1270   23.5890 C   0  0  0  0  0  0  0  0  0  0  0  0
    6.6890   -5.5290   22.3380 C   0  0  0  0  0  0  0  0  0  0  0  0
  1  2  1  0
  2  3  2  0
  2  4  1  0
  4  5  1  0
  5  6  1  0
  6  7  1  0
  7  8  1  0
  8  9  2  0
  8 10  1  0
 10 11  1  0
 11 12  2  0
 12 13  1  0
 13 14  2  0
 14 15  1  0
 11 16  1  0
 15 16  2  0
 16 17  1  0
 17 18  1  0
 18 19  1  0
 19 20  2  0
 20 21  1  0
 21 22  1  0
 22 23  1  0
 23 24  2  0
 24 25  1  0
 25 26  2  0
 19 27  1  0
 22 27  2  0
 26 27  1  0
 18 28  1  0
 28 29  2  0
 29 30  1  0
 30 31  1  0
 31 32  1  0
 32 33  2  0
 33 34  1  0
 34 35  2  0
 28 36  1  0
 31 36  2  0
 35 36  1  0
  7 37  1  0
  4 38  1  0
 37 38  1  0
M  END
