piperidine-amides-4440-covalent
     RDKit          3D

 25 27  0  0  0  0  0  0  0  0999 V2000
    7.0980   -3.3500   19.2600 C   0  0  0  0  0  0  0  0  0  0  0  0
    6.4150   -4.1530   20.2840 C   0  0  0  0  0  0  0  0  0  0  0  0
    5.3460   -4.7090   19.9400 O   0  0  0  0  0  0  0  0  0  0  0  0
    6.9830   -4.3390   21.5670 N   0  0  0  0  0  0  0  0  0  0  0  0
    6.4790   -5.4070   22.3600 C   0  0  0  0  0  0  0  0  0  0  0  0
    5.8960   -4.9940   23.6340 C   0  0  0  0  0  0  0  0  0  0  0  0
    6.4780   -3.7840   24.2550 C   0  0  0  0  0  0  0  0  0  0  0  0
    5.5920   -3.2660   25.3450 C   0  0  0  0  0  0  0  0  0  0  0  0
    4.3930   -3.0480   25.1030 O   0  0  0  0  0  0  0  0  0  0  0  0
    6.0790   -3.0200   26.6390 N   0  0  0  0  0  0  0  0  0  0  0  0
    6.4810   -1.7910   27.2070 C   0  0  2  0  0  0  0  0  0  0  0  0
    6.6420   -1.7820   28.6670 C   0  0  0  0  0  0  0  0  0  0  0  0
    6.9000   -0.3690   29.2180 C   0  0  0  0  0  0  0  0  0  0  0  0
    5.9770    0.5520   28.7970 C   0  0  1  0  0  0  0  0  0  0  0  0
    6.3290    1.8500   29.2350 N   0  0  0  0  0  0  0  0  0  0  0  0
    6.6950    1.9510   30.5950 C   0  0  0  0  0  0  0  0  0  0  0  0
    6.7360    3.3730   31.0730 C   0  0  0  0  0  0  0  0  0  0  0  0
    5.3350    3.6370   30.4840 C   0  0  0  0  0  0  0  0  0  0  0  0
    4.2290    2.6230   30.6720 C   0  0  0  0  0  0  0  0  0  0  0  0
    5.4080    4.1130   29.0370 C   0  0  0  0  0  0  0  0  0  0  0  0
    6.0760    2.9200   28.3520 C   0  0  0  0  0  0  0  0  0  0  0  0
    5.6400    0.5320   27.3590 C   0  0  0  0  0  0  0  0  0  0  0  0
    5.5860   -0.7040   26.7150 C   0  0  0  0  0  0  0  0  0  0  0  0
    6.8860   -2.7210   23.3110 C   0  0  0  0  0  0  0  0  0  0  0  0
    7.6940   -3.2440   22.1640 C   0  0  0  0  0  0  0  0  0  0  0  0
  1  2  1  0
  2  3  2  0
  2  4  1  0
  4  5  1  0
  5  6  1  0
  6  7  1  0
  7  8  1  0
  8  9  2  0
  8 10  1  0
 11 10  1  1
 11 12  1  0
 12 13  1  0
 13 14  1  0
 14 15  1  6
 15 16  1  0
 16 17  1  0
 17 18  1  0
 18 19  1  0
 18 20  1  0
 15 21  1  0
 20 21  1  0
 14 22  1  0
 11 23  1  0
 22 23  1  0
  7 24  1  0
  4 25  1  0
 24 25  1  0
M  END
