piperidine-amides-14599-covalent
     RDKit          3D

 23 24  0  0  0  0  0  0  0  0999 V2000
    7.0720   -3.2990   19.2850 C   0  0  0  0  0  0  0  0  0  0  0  0
    6.3730   -4.1060   20.2840 C   0  0  0  0  0  0  0  0  0  0  0  0
    5.3290   -4.6810   19.9340 O   0  0  0  0  0  0  0  0  0  0  0  0
    6.9000   -4.2700   21.5960 N   0  0  0  0  0  0  0  0  0  0  0  0
    7.6770   -3.2260   22.2120 C   0  0  0  0  0  0  0  0  0  0  0  0
    6.8490   -2.5670   23.2730 C   0  0  0  0  0  0  0  0  0  0  0  0
    5.9660   -3.6490   23.8360 C   0  0  0  0  0  0  0  0  0  0  0  0
    5.6940   -3.3850   25.2890 C   0  0  0  0  0  0  0  0  0  0  0  0
    4.5950   -2.8970   25.5390 O   0  0  0  0  0  0  0  0  0  0  0  0
    6.6720   -3.6900   26.2330 N   0  0  0  0  0  0  0  0  0  0  0  0
    6.9100   -5.0200   26.7090 C   0  0  0  0  0  0  0  0  0  0  0  0
    7.0930   -5.1400   28.0960 C   0  0  0  0  0  0  0  0  0  0  0  0
    6.3360   -5.8890   28.7510 O   0  0  0  0  0  0  0  0  0  0  0  0
    5.0580   -5.5140   29.0390 C   0  0  0  0  0  0  0  0  0  0  0  0
    4.3460   -4.5270   28.3720 C   0  0  0  0  0  0  0  0  0  0  0  0
    2.9540   -4.2370   28.8150 C   0  0  0  0  0  0  0  0  0  0  0  0
    2.2650   -4.9710   29.9680 C   0  0  0  0  0  0  0  0  0  0  0  0
    3.0620   -6.0140   30.6480 C   0  0  0  0  0  0  0  0  0  0  0  0
    2.4250   -6.9460   31.9850 Cl  0  0  0  0  0  0  0  0  0  0  0  0
    4.4610   -6.2030   30.0950 C   0  0  0  0  0  0  0  0  0  0  0  0
    5.4420   -7.4190   30.8680 Cl  0  0  0  0  0  0  0  0  0  0  0  0
    6.4400   -5.0330   23.6990 C   0  0  0  0  0  0  0  0  0  0  0  0
    6.6120   -5.4410   22.3910 C   0  0  0  0  0  0  0  0  0  0  0  0
  1  2  1  0
  2  3  2  0
  2  4  1  0
  4  5  1  0
  5  6  1  0
  6  7  1  0
  7  8  1  0
  8  9  2  0
  8 10  1  0
 10 11  1  0
 11 12  1  0
 12 13  1  0
 13 14  1  0
 14 15  2  0
 15 16  1  0
 16 17  2  0
 17 18  1  0
 18 19  1  0
 14 20  1  0
 18 20  2  0
 20 21  1  0
  7 22  1  0
  4 23  1  0
 22 23  1  0
M  END
