piperidine-amides-27872-covalent
     RDKit          3D

 26 28  0  0  0  0  0  0  0  0999 V2000
    7.0690   -3.3510   19.3720 C   0  0  0  0  0  0  0  0  0  0  0  0
    6.4420   -4.2210   20.3900 C   0  0  0  0  0  0  0  0  0  0  0  0
    5.4450   -4.8740   20.0030 O   0  0  0  0  0  0  0  0  0  0  0  0
    6.9840   -4.3310   21.6930 N   0  0  0  0  0  0  0  0  0  0  0  0
    6.6400   -5.4560   22.5050 C   0  0  0  0  0  0  0  0  0  0  0  0
    5.9870   -5.0570   23.7530 C   0  0  0  0  0  0  0  0  0  0  0  0
    5.8970   -3.5860   23.8650 C   0  0  0  0  0  0  0  0  0  0  0  0
    4.9870   -3.0980   24.9660 C   0  0  0  0  0  0  0  0  0  0  0  0
    3.8030   -2.9620   24.6430 O   0  0  0  0  0  0  0  0  0  0  0  0
    5.3190   -2.7940   26.3040 N   0  0  0  0  0  0  0  0  0  0  0  0
    6.5470   -3.2210   26.8030 C   0  0  0  0  0  0  0  0  0  0  0  0
    6.0680   -4.3220   27.6920 C   0  0  1  0  0  0  0  0  0  0  0  0
    6.4100   -4.1970   29.0640 C   0  0  0  0  0  0  0  0  0  0  0  0
    6.4900   -3.0110   29.5290 O   0  0  0  0  0  0  0  0  0  0  0  0
    6.5860   -5.3170   29.8250 O   0  0  0  0  0  0  0  0  0  0  0  0
    6.5150   -6.6170   29.2380 C   0  0  0  0  0  0  0  0  0  0  0  0
    4.7050   -4.4290   27.9190 C   0  0  2  0  0  0  0  0  0  0  0  0
    4.2040   -5.5560   27.3310 C   0  0  0  0  0  0  0  0  0  0  0  0
    4.5710   -5.8680   26.0470 C   0  0  0  0  0  0  0  0  0  0  0  0
    4.1250   -6.9650   25.3510 C   0  0  0  0  0  0  0  0  0  0  0  0
    3.2410   -7.8240   25.9890 C   0  0  0  0  0  0  0  0  0  0  0  0
    2.7790   -7.5990   27.3640 C   0  0  0  0  0  0  0  0  0  0  0  0
    3.3360   -6.3660   28.0190 C   0  0  0  0  0  0  0  0  0  0  0  0
    4.2820   -3.2050   27.2120 C   0  0  0  0  0  0  0  0  0  0  0  0
    7.1620   -2.8850   23.6440 C   0  0  0  0  0  0  0  0  0  0  0  0
    7.7850   -3.2610   22.3070 C   0  0  0  0  0  0  0  0  0  0  0  0
  1  2  1  0
  2  3  2  0
  2  4  1  0
  4  5  1  0
  5  6  1  0
  6  7  1  0
  7  8  1  0
  8  9  2  0
  8 10  1  0
 10 11  1  0
 11 12  1  0
 12 13  1  1
 13 14  2  0
 13 15  1  0
 15 16  1  0
 12 17  1  0
 17 18  1  6
 18 19  2  0
 19 20  1  0
 20 21  2  0
 21 22  1  0
 18 23  1  0
 22 23  2  0
 10 24  1  0
 17 24  1  0
  7 25  1  0
  4 26  1  0
 25 26  1  0
M  END
