piperidine-amides-19877-covalent
     RDKit          3D

 22 24  0  0  0  0  0  0  0  0999 V2000
    7.0680   -3.3610   19.3300 C   0  0  0  0  0  0  0  0  0  0  0  0
    6.3560   -4.1770   20.3440 C   0  0  0  0  0  0  0  0  0  0  0  0
    5.3520   -4.7770   19.9660 O   0  0  0  0  0  0  0  0  0  0  0  0
    6.8630   -4.2820   21.6470 N   0  0  0  0  0  0  0  0  0  0  0  0
    6.6400   -5.4490   22.4580 C   0  0  0  0  0  0  0  0  0  0  0  0
    5.8970   -5.0500   23.7110 C   0  0  0  0  0  0  0  0  0  0  0  0
    6.4920   -3.7780   24.3370 C   0  0  0  0  0  0  0  0  0  0  0  0
    5.5240   -3.2980   25.3680 C   0  0  0  0  0  0  0  0  0  0  0  0
    4.3840   -3.0080   24.9940 O   0  0  0  0  0  0  0  0  0  0  0  0
    5.8260   -3.1610   26.7520 N   0  0  0  0  0  0  0  0  0  0  0  0
    4.9040   -2.4320   27.5940 C   0  0  0  0  0  0  0  0  0  0  0  0
    4.7620   -3.3550   28.7770 C   0  0  0  0  0  0  0  0  0  0  0  0
    5.5630   -4.4220   28.7250 C   0  0  1  0  0  0  0  0  0  0  0  0
    4.9550   -5.6120   28.9010 C   0  0  2  0  0  0  0  0  0  0  0  0
    5.8270   -6.6240   28.5030 C   0  0  0  0  0  0  0  0  0  0  0  0
    5.2110   -7.6880   28.9300 N   0  0  0  0  0  0  0  0  0  0  0  0
    3.8420   -7.3040   28.7600 C   0  0  0  0  0  0  0  0  0  0  0  0
    2.6810   -7.8930   29.2020 O   0  0  0  0  0  0  0  0  0  0  0  0
    3.8330   -6.0430   27.9970 C   0  0  0  0  0  0  0  0  0  0  0  0
    6.2970   -4.2950   27.4860 C   0  0  0  0  0  0  0  0  0  0  0  0
    6.8910   -2.7220   23.3870 C   0  0  0  0  0  0  0  0  0  0  0  0
    7.6410   -3.2110   22.2000 C   0  0  0  0  0  0  0  0  0  0  0  0
  1  2  1  0
  2  3  2  0
  2  4  1  0
  4  5  1  0
  5  6  1  0
  6  7  1  0
  7  8  1  0
  8  9  2  0
  8 10  1  0
 10 11  1  0
 11 12  1  0
 13 12  1  6
 13 14  1  0
 14 15  1  6
 15 16  1  0
 16 17  1  0
 17 18  2  0
 14 19  1  0
 17 19  1  0
 10 20  1  0
 13 20  1  0
  7 21  1  0
  4 22  1  0
 21 22  1  0
M  END
