piperidine-amides-14348-covalent
     RDKit          3D

 24 25  0  0  0  0  0  0  0  0999 V2000
    7.0580   -3.2840   19.2800 C   0  0  0  0  0  0  0  0  0  0  0  0
    6.3560   -4.0780   20.2930 C   0  0  0  0  0  0  0  0  0  0  0  0
    5.3510   -4.7170   19.9410 O   0  0  0  0  0  0  0  0  0  0  0  0
    6.8280   -4.1430   21.6300 N   0  0  0  0  0  0  0  0  0  0  0  0
    7.7360   -3.1350   22.1120 C   0  0  0  0  0  0  0  0  0  0  0  0
    7.5270   -3.0090   23.5770 C   0  0  0  0  0  0  0  0  0  0  0  0
    6.1360   -3.5400   23.7890 C   0  0  0  0  0  0  0  0  0  0  0  0
    5.6820   -3.2590   25.1800 C   0  0  0  0  0  0  0  0  0  0  0  0
    4.4700   -3.3070   25.3870 O   0  0  0  0  0  0  0  0  0  0  0  0
    6.6490   -2.9560   26.1260 N   0  0  0  0  0  0  0  0  0  0  0  0
    6.3640   -2.8540   27.5100 C   0  0  0  0  0  0  0  0  0  0  0  0
    6.1270   -4.0550   28.1790 C   0  0  0  0  0  0  0  0  0  0  0  0
    5.0040   -4.0780   28.9710 C   0  0  0  0  0  0  0  0  0  0  0  0
    4.4420   -5.3480   29.2530 N   0  0  0  0  0  0  0  0  0  0  0  0
    3.7650   -5.3460   30.4900 C   0  0  0  0  0  0  0  0  0  0  0  0
    2.6530   -4.5580   30.7460 O   0  0  0  0  0  0  0  0  0  0  0  0
    4.3010   -6.2500   31.5460 C   0  0  0  0  0  0  0  0  0  0  0  0
    3.9920   -6.2670   32.9170 O   0  0  0  0  0  0  0  0  0  0  0  0
    4.7250   -7.2860   33.5650 C   0  0  0  0  0  0  0  0  0  0  0  0
    5.5650   -7.9770   32.5660 C   0  0  0  0  0  0  0  0  0  0  0  0
    5.2930   -7.3030   31.2480 C   0  0  0  0  0  0  0  0  0  0  0  0
    6.0070   -7.7640   29.9490 C   0  0  0  0  0  0  0  0  0  0  0  0
    6.1220   -5.0470   23.6090 C   0  0  0  0  0  0  0  0  0  0  0  0
    6.6900   -5.3680   22.3850 C   0  0  0  0  0  0  0  0  0  0  0  0
  1  2  1  0
  2  3  2  0
  2  4  1  0
  4  5  1  0
  5  6  1  0
  6  7  1  0
  7  8  1  0
  8  9  2  0
  8 10  1  0
 10 11  1  0
 11 12  1  0
 12 13  1  0
 13 14  1  0
 14 15  1  0
 15 16  2  0
 15 17  1  0
 17 18  1  0
 18 19  1  0
 19 20  2  0
 17 21  2  0
 20 21  1  0
 21 22  1  0
  7 23  1  0
  4 24  1  0
 23 24  1  0
M  END
