piperidine-amides-30474-covalent
     RDKit          3D

 27 29  0  0  0  0  0  0  0  0999 V2000
    7.0540   -3.3580   19.3650 C   0  0  0  0  0  0  0  0  0  0  0  0
    6.3920   -4.2010   20.3600 C   0  0  0  0  0  0  0  0  0  0  0  0
    5.4230   -4.8950   20.0010 O   0  0  0  0  0  0  0  0  0  0  0  0
    6.8690   -4.2690   21.6870 N   0  0  0  0  0  0  0  0  0  0  0  0
    7.6970   -3.2060   22.2350 C   0  0  0  0  0  0  0  0  0  0  0  0
    7.4350   -3.1490   23.7210 C   0  0  0  0  0  0  0  0  0  0  0  0
    6.1020   -3.7380   24.0670 C   0  0  0  0  0  0  0  0  0  0  0  0
    5.5290   -3.2660   25.3630 C   0  0  0  0  0  0  0  0  0  0  0  0
    4.8870   -2.1820   25.3740 O   0  0  0  0  0  0  0  0  0  0  0  0
    5.5930   -3.9220   26.6150 N   0  0  0  0  0  0  0  0  0  0  0  0
    6.4130   -3.3840   27.6680 C   0  0  0  0  0  0  0  0  0  0  0  0
    6.7620   -4.5970   28.4320 C   0  0  0  0  0  0  0  0  0  0  0  0
    5.6150   -5.0760   29.1370 C   0  0  0  0  0  0  0  0  0  0  0  0
    5.6750   -6.5710   29.3180 C   0  0  0  0  0  0  0  0  0  0  0  0
    5.3090   -6.8490   30.7620 C   0  0  0  0  0  0  0  0  0  0  0  0
    5.9340   -7.9810   31.3930 N   0  0  0  0  0  0  0  0  0  0  0  0
    5.2830   -7.7810   32.6550 C   0  0  0  0  0  0  0  0  0  0  0  0
    5.5360   -8.6340   33.7040 C   0  0  0  0  0  0  0  0  0  0  0  0
    5.6930   -8.0250   34.9570 C   0  0  0  0  0  0  0  0  0  0  0  0
    7.0510   -8.0650   35.2970 O   0  0  0  0  0  0  0  0  0  0  0  0
    7.7130   -6.8590   35.6510 C   0  0  0  0  0  0  0  0  0  0  0  0
    4.4580   -6.7210   32.6530 N   0  0  0  0  0  0  0  0  0  0  0  0
    4.4880   -6.1480   31.4600 O   0  0  0  0  0  0  0  0  0  0  0  0
    4.4300   -4.6030   28.6370 C   0  0  0  0  0  0  0  0  0  0  0  0
    4.3420   -4.4480   27.1210 C   0  0  0  0  0  0  0  0  0  0  0  0
    6.1700   -5.2110   23.8290 C   0  0  0  0  0  0  0  0  0  0  0  0
    6.5650   -5.4680   22.4210 C   0  0  0  0  0  0  0  0  0  0  0  0
  1  2  1  0
  2  3  2  0
  2  4  1  0
  4  5  1  0
  5  6  1  0
  6  7  1  0
  7  8  1  0
  8  9  2  0
  8 10  1  0
 10 11  1  0
 11 12  1  0
 12 13  1  0
 13 14  1  0
 14 15  1  0
 15 16  2  0
 16 17  1  0
 17 18  1  0
 18 19  1  0
 19 20  1  0
 20 21  1  0
 17 22  2  0
 15 23  1  0
 22 23  1  0
 13 24  1  0
 10 25  1  0
 24 25  1  0
  7 26  1  0
  4 27  1  0
 26 27  1  0
M  END
