piperidine-amides-23365-covalent
     RDKit          3D

 24 26  0  0  0  0  0  0  0  0999 V2000
    6.9890   -3.4020   19.4230 C   0  0  0  0  0  0  0  0  0  0  0  0
    6.3680   -4.2780   20.4380 C   0  0  0  0  0  0  0  0  0  0  0  0
    5.4280   -4.9980   20.0190 O   0  0  0  0  0  0  0  0  0  0  0  0
    6.8320   -4.3310   21.7930 N   0  0  0  0  0  0  0  0  0  0  0  0
    6.5550   -5.4930   22.5930 C   0  0  0  0  0  0  0  0  0  0  0  0
    6.1090   -5.1870   23.9590 C   0  0  0  0  0  0  0  0  0  0  0  0
    6.2650   -3.7560   24.2470 C   0  0  0  0  0  0  0  0  0  0  0  0
    5.9710   -3.2480   25.6600 C   0  0  0  0  0  0  0  0  0  0  0  0
    5.9230   -2.0180   25.7830 O   0  0  0  0  0  0  0  0  0  0  0  0
    5.6730   -3.9910   26.8510 N   0  0  0  0  0  0  0  0  0  0  0  0
    6.4700   -4.1760   27.9950 C   0  0  0  0  0  0  0  0  0  0  0  0
    6.8170   -5.5070   28.4940 C   0  0  0  0  0  0  0  0  0  0  0  0
    5.7310   -5.8490   29.4760 C   0  0  0  0  0  0  0  0  0  0  0  0
    5.7810   -7.0300   30.1930 C   0  0  0  0  0  0  0  0  0  0  0  0
    4.6010   -7.2660   31.1960 C   0  0  0  0  0  0  0  0  0  0  0  0
    3.4800   -6.2450   31.3510 C   0  0  0  0  0  0  0  0  0  0  0  0
    3.6130   -5.0170   30.4630 C   0  0  0  0  0  0  0  0  0  0  0  0
    2.7170   -3.9490   30.4220 O   0  0  0  0  0  0  0  0  0  0  0  0
    1.3160   -4.1750   30.3050 C   0  0  0  0  0  0  0  0  0  0  0  0
    4.7770   -4.9020   29.5500 C   0  0  0  0  0  0  0  0  0  0  0  0
    4.5520   -3.5560   28.8330 C   0  0  0  0  0  0  0  0  0  0  0  0
    4.3680   -3.7380   27.3530 C   0  0  0  0  0  0  0  0  0  0  0  0
    7.5650   -3.2520   23.7160 C   0  0  0  0  0  0  0  0  0  0  0  0
    7.6010   -3.2160   22.3210 C   0  0  0  0  0  0  0  0  0  0  0  0
  1  2  1  0
  2  3  2  0
  2  4  1  0
  4  5  1  0
  5  6  1  0
  6  7  1  0
  7  8  1  0
  8  9  2  0
  8 10  1  0
 10 11  1  0
 11 12  1  0
 12 13  1  0
 13 14  1  0
 14 15  2  0
 15 16  1  0
 16 17  2  0
 17 18  1  0
 18 19  1  0
 13 20  2  0
 17 20  1  0
 20 21  1  0
 10 22  1  0
 21 22  1  0
  7 23  1  0
  4 24  1  0
 23 24  1  0
M  END
