piperidine-amides-24945-covalent
     RDKit          3D

 23 25  0  0  0  0  0  0  0  0999 V2000
    7.1120   -3.3000   19.2260 C   0  0  0  0  0  0  0  0  0  0  0  0
    6.4000   -4.0880   20.2410 C   0  0  0  0  0  0  0  0  0  0  0  0
    5.3580   -4.7160   19.9480 O   0  0  0  0  0  0  0  0  0  0  0  0
    6.9260   -4.1850   21.5340 N   0  0  0  0  0  0  0  0  0  0  0  0
    6.7560   -5.4320   22.2490 C   0  0  0  0  0  0  0  0  0  0  0  0
    5.9670   -5.0880   23.5050 C   0  0  0  0  0  0  0  0  0  0  0  0
    6.1960   -3.6090   23.6980 C   0  0  0  0  0  0  0  0  0  0  0  0
    5.6670   -3.1770   24.9870 C   0  0  0  0  0  0  0  0  0  0  0  0
    4.8060   -2.2790   25.0300 O   0  0  0  0  0  0  0  0  0  0  0  0
    6.1330   -3.8110   26.1250 N   0  0  0  0  0  0  0  0  0  0  0  0
    5.8890   -3.1840   27.3780 C   0  0  0  0  0  0  0  0  0  0  0  0
    5.0940   -4.2480   28.0450 C   0  0  2  0  0  0  0  0  0  0  0  0
    5.0650   -4.2930   29.3470 C   0  0  0  0  0  0  0  0  0  0  0  0
    3.9750   -5.5800   29.4920 S   0  0  0  0  0  0  0  0  0  0  0  0
    4.4720   -6.7780   30.2610 O   0  0  0  0  0  0  0  0  0  0  0  0
    2.5910   -5.0830   29.8200 O   0  0  0  0  0  0  0  0  0  0  0  0
    4.2030   -5.8260   27.7940 C   0  0  0  0  0  0  0  0  0  0  0  0
    5.5970   -5.5460   27.5840 C   0  0  2  0  0  0  0  0  0  0  0  0
    6.5700   -6.2750   28.2070 C   0  0  0  0  0  0  0  0  0  0  0  0
    6.4180   -7.0680   29.2920 N   0  0  0  0  0  0  0  0  0  0  0  0
    5.8520   -5.2550   26.1210 C   0  0  0  0  0  0  0  0  0  0  0  0
    7.6150   -3.2360   23.5290 C   0  0  0  0  0  0  0  0  0  0  0  0
    7.8270   -3.1590   22.0620 C   0  0  0  0  0  0  0  0  0  0  0  0
  1  2  1  0
  2  3  2  0
  2  4  1  0
  4  5  1  0
  5  6  1  0
  6  7  1  0
  7  8  1  0
  8  9  2  0
  8 10  1  0
 10 11  1  0
 12 11  1  1
 12 13  1  0
 14 13  1  0
 14 15  2  0
 14 16  2  0
 14 17  1  0
 12 18  1  0
 17 18  1  0
 18 19  1  1
 19 20  3  0
 10 21  1  0
 18 21  1  0
  7 22  1  0
  4 23  1  0
 22 23  1  0
M  END
