piperidine-amides-33557-covalent
     RDKit          3D

 30 33  0  0  0  0  0  0  0  0999 V2000
    7.1640   -3.3410   19.2700 C   0  0  0  0  0  0  0  0  0  0  0  0
    6.4150   -4.1150   20.2660 C   0  0  0  0  0  0  0  0  0  0  0  0
    5.3130   -4.5990   19.9080 O   0  0  0  0  0  0  0  0  0  0  0  0
    6.9710   -4.3580   21.5430 N   0  0  0  0  0  0  0  0  0  0  0  0
    6.3830   -5.3810   22.3200 C   0  0  0  0  0  0  0  0  0  0  0  0
    5.8210   -4.9030   23.5840 C   0  0  0  0  0  0  0  0  0  0  0  0
    6.5300   -3.7740   24.2410 C   0  0  0  0  0  0  0  0  0  0  0  0
    5.7510   -3.2580   25.4080 C   0  0  0  0  0  0  0  0  0  0  0  0
    4.5070   -3.3590   25.4030 O   0  0  0  0  0  0  0  0  0  0  0  0
    6.3840   -2.6520   26.5030 N   0  0  0  0  0  0  0  0  0  0  0  0
    6.2430   -2.9780   27.8390 C   0  0  0  0  0  0  0  0  0  0  0  0
    6.1060   -1.6970   28.5710 C   0  0  0  0  0  0  0  0  0  0  0  0
    6.8780   -1.7930   29.8460 C   0  0  0  0  0  0  0  0  0  0  0  0
    6.9660   -0.6470   30.6290 C   0  0  0  0  0  0  0  0  0  0  0  0
    7.4340    0.4520   29.9510 O   0  0  0  0  0  0  0  0  0  0  0  0
    6.7240    0.6310   28.7910 C   0  0  0  0  0  0  0  0  0  0  0  0
    6.9220   -0.6080   27.9640 C   0  0  0  0  0  0  0  0  0  0  0  0
    6.1600   -1.2700   26.7480 C   0  0  0  0  0  0  0  0  0  0  0  0
    6.0640   -0.2710   25.6250 C   0  0  0  0  0  0  0  0  0  0  0  0
    5.8080    1.1890   26.0260 C   0  0  0  0  0  0  0  0  0  0  0  0
    5.6550    1.6120   27.4890 C   0  0  0  0  0  0  0  0  0  0  0  0
    5.4080    2.9680   27.8560 N   0  0  0  0  0  0  0  0  0  0  0  0
    4.3360    3.6240   27.3680 C   0  0  0  0  0  0  0  0  0  0  0  0
    4.3230    4.9260   27.8770 N   0  0  0  0  0  0  0  0  0  0  0  0
    5.4930    4.9530   28.7060 C   0  0  0  0  0  0  0  0  0  0  0  0
    6.1210    3.7570   28.6690 N   0  0  0  0  0  0  0  0  0  0  0  0
    5.7710    0.5290   28.5120 C   0  0  0  0  0  0  0  0  0  0  0  0
    6.0240   -0.8850   28.0730 C   0  0  0  0  0  0  0  0  0  0  0  0
    6.8930   -2.6880   23.2840 C   0  0  0  0  0  0  0  0  0  0  0  0
    7.6930   -3.2970   22.1650 C   0  0  0  0  0  0  0  0  0  0  0  0
  1  2  1  0
  2  3  2  0
  2  4  1  0
  4  5  1  0
  5  6  1  0
  6  7  1  0
  7  8  1  0
  8  9  2  0
  8 10  1  0
 10 11  1  0
 11 12  1  0
 12 13  1  0
 13 14  1  0
 14 15  1  0
 15 16  1  0
 12 17  1  0
 16 17  1  0
 10 18  1  0
 18 19  2  0
 19 20  1  0
 20 21  2  0
 21 22  1  0
 22 23  1  0
 23 24  2  0
 24 25  1  0
 22 26  1  0
 25 26  2  0
 21 27  1  0
 18 28  1  0
 27 28  2  0
  7 29  1  0
  4 30  1  0
 29 30  1  0
M  END
