piperidine-amides-4836-covalent
     RDKit          3D

 23 24  0  0  0  0  0  0  0  0999 V2000
    7.0590   -3.3590   19.2640 C   0  0  0  0  0  0  0  0  0  0  0  0
    6.4020   -4.1840   20.3040 C   0  0  0  0  0  0  0  0  0  0  0  0
    5.3620   -4.7810   19.9650 O   0  0  0  0  0  0  0  0  0  0  0  0
    6.9680   -4.3150   21.5790 N   0  0  0  0  0  0  0  0  0  0  0  0
    7.6170   -3.1970   22.1700 C   0  0  0  0  0  0  0  0  0  0  0  0
    6.9690   -2.7680   23.3920 C   0  0  0  0  0  0  0  0  0  0  0  0
    6.5940   -3.8870   24.2750 C   0  0  0  0  0  0  0  0  0  0  0  0
    5.8340   -3.3390   25.4200 C   0  0  0  0  0  0  0  0  0  0  0  0
    4.6010   -3.2000   25.3040 O   0  0  0  0  0  0  0  0  0  0  0  0
    6.4970   -3.0000   26.6110 N   0  0  0  0  0  0  0  0  0  0  0  0
    6.4700   -1.6680   27.2710 C   0  0  0  0  0  0  0  0  0  0  0  0
    7.1110   -1.5810   28.5870 C   0  0  0  0  0  0  0  0  0  0  0  0
    7.1280   -0.3330   29.3100 C   0  0  0  0  0  0  0  0  0  0  0  0
    6.5250    0.7610   28.7150 C   0  0  0  0  0  0  0  0  0  0  0  0
    5.9070    0.7130   27.4650 C   0  0  0  0  0  0  0  0  0  0  0  0
    5.1860    2.1900   26.8450 Cl  0  0  0  0  0  0  0  0  0  0  0  0
    5.8690   -0.4600   26.7470 C   0  0  0  0  0  0  0  0  0  0  0  0
    5.2090   -0.3640   25.5160 O   0  0  0  0  0  0  0  0  0  0  0  0
    3.8700    0.0410   25.5070 C   0  0  0  0  0  0  0  0  0  0  0  0
    3.0730   -1.0330   25.0810 F   0  0  0  0  0  0  0  0  0  0  0  0
    3.6660    1.0980   24.6660 F   0  0  0  0  0  0  0  0  0  0  0  0
    5.9160   -5.0240   23.5820 C   0  0  0  0  0  0  0  0  0  0  0  0
    6.6140   -5.4270   22.4320 C   0  0  0  0  0  0  0  0  0  0  0  0
  1  2  1  0
  2  3  2  0
  2  4  1  0
  4  5  1  0
  5  6  1  0
  6  7  1  0
  7  8  1  0
  8  9  2  0
  8 10  1  0
 10 11  1  0
 11 12  2  0
 12 13  1  0
 13 14  2  0
 14 15  1  0
 15 16  1  0
 11 17  1  0
 15 17  2  0
 17 18  1  0
 18 19  1  0
 19 20  1  0
 19 21  1  0
  7 22  1  0
  4 23  1  0
 22 23  1  0
M  END
