piperidine-amides-34204-covalent
     RDKit          3D

 29 31  0  0  0  0  0  0  0  0999 V2000
    7.0830   -3.3680   19.4310 C   0  0  0  0  0  0  0  0  0  0  0  0
    6.3810   -4.2510   20.3680 C   0  0  0  0  0  0  0  0  0  0  0  0
    5.3770   -4.8870   19.9910 O   0  0  0  0  0  0  0  0  0  0  0  0
    6.8630   -4.4320   21.6710 N   0  0  0  0  0  0  0  0  0  0  0  0
    6.3550   -5.5320   22.4320 C   0  0  0  0  0  0  0  0  0  0  0  0
    5.4020   -4.8800   23.4340 C   0  0  0  0  0  0  0  0  0  0  0  0
    6.2460   -4.0520   24.3770 C   0  0  0  0  0  0  0  0  0  0  0  0
    5.3660   -3.3850   25.3780 C   0  0  0  0  0  0  0  0  0  0  0  0
    4.6590   -2.4570   24.9480 O   0  0  0  0  0  0  0  0  0  0  0  0
    5.2830   -3.7550   26.7640 N   0  0  0  0  0  0  0  0  0  0  0  0
    4.1790   -3.2370   27.4900 C   0  0  0  0  0  0  0  0  0  0  0  0
    3.9560   -4.1040   28.7130 C   0  0  0  0  0  0  0  0  0  0  0  0
    4.9230   -4.2570   29.6420 C   0  0  0  0  0  0  0  0  0  0  0  0
    5.8560   -5.1690   29.2490 N   0  0  0  0  0  0  0  0  0  0  0  0
    5.4250   -6.7820   29.2170 S   0  0  0  0  0  0  0  0  0  0  0  0
    4.5670   -7.0430   28.0060 O   0  0  0  0  0  0  0  0  0  0  0  0
    6.6860   -7.5740   29.1720 O   0  0  0  0  0  0  0  0  0  0  0  0
    4.5250   -7.3980   30.5730 C   0  0  0  0  0  0  0  0  0  0  0  0
    5.2510   -7.5220   31.7620 C   0  0  0  0  0  0  0  0  0  0  0  0
    4.6550   -7.9970   32.8890 C   0  0  0  0  0  0  0  0  0  0  0  0
    3.2110   -8.3880   32.8420 C   0  0  0  0  0  0  0  0  0  0  0  0
    2.7170   -8.8630   34.0560 O   0  0  0  0  0  0  0  0  0  0  0  0
    3.5180   -9.6030   34.9690 C   0  0  0  0  0  0  0  0  0  0  0  0
    2.4200   -8.2720   31.6270 C   0  0  0  0  0  0  0  0  0  0  0  0
    3.1730   -7.7460   30.4740 C   0  0  0  0  0  0  0  0  0  0  0  0
    6.7790   -4.7950   28.2810 C   0  0  0  0  0  0  0  0  0  0  0  0
    6.4450   -3.6640   27.5420 C   0  0  0  0  0  0  0  0  0  0  0  0
    7.0310   -2.9560   23.6510 C   0  0  0  0  0  0  0  0  0  0  0  0
    7.6190   -3.3950   22.3220 C   0  0  0  0  0  0  0  0  0  0  0  0
  1  2  1  0
  2  3  2  0
  2  4  1  0
  4  5  1  0
  5  6  1  0
  6  7  1  0
  7  8  1  0
  8  9  2  0
  8 10  1  0
 10 11  1  0
 11 12  1  0
 12 13  1  0
 13 14  1  0
 14 15  1  0
 15 16  2  0
 15 17  2  0
 15 18  1  0
 18 19  2  0
 19 20  1  0
 20 21  2  0
 21 22  1  0
 22 23  1  0
 21 24  1  0
 18 25  1  0
 24 25  2  0
 14 26  1  0
 10 27  1  0
 26 27  1  0
  7 28  1  0
  4 29  1  0
 28 29  1  0
M  END
