piperidine-amides-29407-covalent
     RDKit          3D

 25 26  0  0  0  0  0  0  0  0999 V2000
    7.0340   -3.3620   19.3700 C   0  0  0  0  0  0  0  0  0  0  0  0
    6.4020   -4.2440   20.3490 C   0  0  0  0  0  0  0  0  0  0  0  0
    5.3920   -4.8720   19.9890 O   0  0  0  0  0  0  0  0  0  0  0  0
    6.9620   -4.4150   21.6450 N   0  0  0  0  0  0  0  0  0  0  0  0
    6.5460   -5.5420   22.4160 C   0  0  0  0  0  0  0  0  0  0  0  0
    5.5690   -5.0650   23.4500 C   0  0  0  0  0  0  0  0  0  0  0  0
    6.2570   -4.0120   24.3030 C   0  0  0  0  0  0  0  0  0  0  0  0
    5.2620   -3.4190   25.2730 C   0  0  0  0  0  0  0  0  0  0  0  0
    4.3600   -2.7750   24.7580 O   0  0  0  0  0  0  0  0  0  0  0  0
    5.3890   -3.6050   26.6580 N   0  0  0  0  0  0  0  0  0  0  0  0
    6.4610   -3.0860   27.3190 C   0  0  0  0  0  0  0  0  0  0  0  0
    6.8000   -3.9250   28.3820 C   0  0  0  0  0  0  0  0  0  0  0  0
    5.8010   -4.1240   29.2320 C   0  0  0  0  0  0  0  0  0  0  0  0
    4.5760   -4.4010   28.6790 C   0  0  2  0  0  0  0  0  0  0  0  0
    4.4710   -5.7770   28.6710 O   0  0  0  0  0  0  0  0  0  0  0  0
    3.3200   -6.4290   29.7220 Si  0  0  0  0  0  4  0  0  0  0  0  0
    2.0640   -5.1110   30.1480 C   0  0  0  0  0  0  0  0  0  0  0  0
    2.4050   -7.8480   28.8890 C   0  0  0  0  0  0  0  0  0  0  0  0
    4.0930   -7.0830   31.2930 C   0  0  0  0  0  0  0  0  0  0  0  0
    5.5020   -7.4540   30.9120 C   0  0  0  0  0  0  0  0  0  0  0  0
    3.2760   -8.0990   31.7280 C   0  0  0  0  0  0  0  0  0  0  0  0
    3.9610   -6.0530   32.2060 C   0  0  0  0  0  0  0  0  0  0  0  0
    4.2380   -3.7360   27.4990 C   0  0  0  0  0  0  0  0  0  0  0  0
    6.8630   -2.8940   23.5010 C   0  0  0  0  0  0  0  0  0  0  0  0
    7.6640   -3.3570   22.3190 C   0  0  0  0  0  0  0  0  0  0  0  0
  1  2  1  0
  2  3  2  0
  2  4  1  0
  4  5  1  0
  5  6  1  0
  6  7  1  0
  7  8  1  0
  8  9  2  0
  8 10  1  0
 10 11  1  0
 11 12  1  0
 12 13  1  0
 13 14  1  0
 14 15  1  6
 16 15  1  0
 16 17  1  0
 16 18  1  0
 16 19  1  0
 19 20  1  0
 19 21  1  0
 19 22  1  0
 10 23  1  0
 14 23  1  0
  7 24  1  0
  4 25  1  0
 24 25  1  0
M  END
