piperidine-amides-14376-covalent
     RDKit          3D

 24 25  0  0  0  0  0  0  0  0999 V2000
    7.0240   -3.3600   19.3670 C   0  0  0  0  0  0  0  0  0  0  0  0
    6.3320   -4.1740   20.3720 C   0  0  0  0  0  0  0  0  0  0  0  0
    5.3870   -4.8830   19.9850 O   0  0  0  0  0  0  0  0  0  0  0  0
    6.7510   -4.1780   21.7320 N   0  0  0  0  0  0  0  0  0  0  0  0
    7.6960   -3.1890   22.1760 C   0  0  0  0  0  0  0  0  0  0  0  0
    7.4940   -3.0040   23.6370 C   0  0  0  0  0  0  0  0  0  0  0  0
    6.1040   -3.5280   23.8700 C   0  0  0  0  0  0  0  0  0  0  0  0
    5.6350   -3.1750   25.2550 C   0  0  0  0  0  0  0  0  0  0  0  0
    4.4240   -3.2070   25.4530 O   0  0  0  0  0  0  0  0  0  0  0  0
    6.6000   -2.8470   26.1970 N   0  0  0  0  0  0  0  0  0  0  0  0
    6.5350   -1.6860   27.0290 C   0  0  0  0  0  0  0  0  0  0  0  0
    6.9990   -1.6170   28.3620 C   0  0  0  0  0  0  0  0  0  0  0  0
    6.9340   -0.4740   29.1600 C   0  0  0  0  0  0  0  0  0  0  0  0
    6.3920    0.7470   28.7260 C   0  0  0  0  0  0  0  0  0  0  0  0
    6.3190    1.9080   29.5140 N   0  0  0  0  0  0  0  0  0  0  0  0
    5.0430    2.6070   29.6430 C   0  0  0  0  0  0  0  0  0  0  0  0
    4.4330    3.2130   28.5730 O   0  0  0  0  0  0  0  0  0  0  0  0
    4.5710    2.5290   31.1100 C   0  0  0  0  0  0  0  0  0  0  0  0
    5.3810    2.0440   32.0180 O   0  0  0  0  0  0  0  0  0  0  0  0
    4.9140    2.3560   33.2850 C   0  0  0  0  0  0  0  0  0  0  0  0
    5.8980    0.7890   27.4110 C   0  0  0  0  0  0  0  0  0  0  0  0
    5.9570   -0.4410   26.5160 C   0  0  0  0  0  0  0  0  0  0  0  0
    6.0910   -5.0420   23.7480 C   0  0  0  0  0  0  0  0  0  0  0  0
    6.6360   -5.3930   22.5100 C   0  0  0  0  0  0  0  0  0  0  0  0
  1  2  1  0
  2  3  2  0
  2  4  1  0
  4  5  1  0
  5  6  1  0
  6  7  1  0
  7  8  1  0
  8  9  2  0
  8 10  1  0
 10 11  1  0
 11 12  2  0
 12 13  1  0
 13 14  2  0
 14 15  1  0
 15 16  1  0
 16 17  2  0
 16 18  1  0
 18 19  1  0
 19 20  1  0
 14 21  1  0
 11 22  1  0
 21 22  2  0
  7 23  1  0
  4 24  1  0
 23 24  1  0
M  END
