piperidine-amides-32306-covalent
     RDKit          3D

 24 26  0  0  0  0  0  0  0  0999 V2000
    7.0300   -3.3490   19.3800 C   0  0  0  0  0  0  0  0  0  0  0  0
    6.3450   -4.2300   20.3670 C   0  0  0  0  0  0  0  0  0  0  0  0
    5.3610   -4.8830   19.9880 O   0  0  0  0  0  0  0  0  0  0  0  0
    6.8510   -4.3400   21.6870 N   0  0  0  0  0  0  0  0  0  0  0  0
    6.7610   -5.6080   22.3890 C   0  0  0  0  0  0  0  0  0  0  0  0
    6.1880   -5.3340   23.7770 C   0  0  0  0  0  0  0  0  0  0  0  0
    6.1690   -3.8630   23.8930 C   0  0  0  0  0  0  0  0  0  0  0  0
    5.5850   -3.3380   25.1510 C   0  0  0  0  0  0  0  0  0  0  0  0
    4.6960   -2.5000   25.0050 O   0  0  0  0  0  0  0  0  0  0  0  0
    5.9760   -3.7510   26.4240 N   0  0  0  0  0  0  0  0  0  0  0  0
    5.2800   -4.7600   27.1430 C   0  0  0  0  0  0  0  0  0  0  0  0
    4.8320   -4.6090   28.4260 C   0  0  0  0  0  0  0  0  0  0  0  0
    5.6470   -3.8980   29.2570 C   0  0  0  0  0  0  0  0  0  0  0  0
    5.0740   -2.8310   29.9160 C   0  0  0  0  0  0  0  0  0  0  0  0
    5.6170   -1.5800   30.0450 N   0  0  0  0  0  0  0  0  0  0  0  0
    5.0790   -0.5250   30.6840 C   0  0  0  0  0  0  0  0  0  0  0  0
    3.7320   -0.5820   31.3830 C   0  0  0  0  0  0  0  0  0  0  0  0
    2.8580    0.8160   32.3170 Br  0  0  0  0  0  0  0  0  0  0  0  0
    3.2200   -1.9940   31.1850 C   0  0  0  0  0  0  0  0  0  0  0  0
    3.7900   -3.0130   30.5400 N   0  0  0  0  0  0  0  0  0  0  0  0
    6.7640   -3.5860   28.6060 C   0  0  0  0  0  0  0  0  0  0  0  0
    6.4730   -2.7840   27.3900 C   0  0  0  0  0  0  0  0  0  0  0  0
    7.4840   -3.2180   23.6040 C   0  0  0  0  0  0  0  0  0  0  0  0
    7.6830   -3.2870   22.2430 C   0  0  0  0  0  0  0  0  0  0  0  0
  1  2  1  0
  2  3  2  0
  2  4  1  0
  4  5  1  0
  5  6  1  0
  6  7  1  0
  7  8  1  0
  8  9  2  0
  8 10  1  0
 10 11  1  0
 11 12  1  0
 12 13  1  0
 13 14  1  0
 14 15  2  0
 15 16  1  0
 16 17  2  0
 17 18  1  0
 17 19  1  0
 14 20  1  0
 19 20  2  0
 13 21  1  0
 10 22  1  0
 21 22  1  0
  7 23  1  0
  4 24  1  0
 23 24  1  0
M  END
