piperidine-amides-15460-covalent
     RDKit          3D

 18 18  0  0  0  0  0  0  0  0999 V2000
    7.1130   -3.2570   19.2770 C   0  0  0  0  0  0  0  0  0  0  0  0
    6.3280   -4.0230   20.2600 C   0  0  0  0  0  0  0  0  0  0  0  0
    5.2900   -4.6210   19.9090 O   0  0  0  0  0  0  0  0  0  0  0  0
    6.7530   -4.1250   21.5910 N   0  0  0  0  0  0  0  0  0  0  0  0
    6.5860   -5.3980   22.2710 C   0  0  0  0  0  0  0  0  0  0  0  0
    6.2280   -5.1220   23.7360 C   0  0  0  0  0  0  0  0  0  0  0  0
    6.0450   -3.6340   23.8740 C   0  0  0  0  0  0  0  0  0  0  0  0
    5.5040   -3.2730   25.1940 C   0  0  0  0  0  0  0  0  0  0  0  0
    4.2790   -3.0560   25.2780 O   0  0  0  0  0  0  0  0  0  0  0  0
    6.3400   -3.1720   26.3250 N   0  0  0  0  0  0  0  0  0  0  0  0
    6.7440   -1.8390   26.6820 C   0  0  0  0  0  0  0  0  0  0  0  0
    6.0100   -4.0840   27.4050 C   0  0  0  0  0  0  0  0  0  0  0  0
    4.7360   -3.7340   27.7460 C   0  0  0  0  0  0  0  0  0  0  0  0
    6.7840   -4.0260   28.6860 C   0  0  0  0  0  0  0  0  0  0  0  0
    6.0310   -5.4860   27.0440 C   0  0  0  0  0  0  0  0  0  0  0  0
    5.6690   -6.4630   27.9430 C   0  0  0  0  0  0  0  0  0  0  0  0
    7.3940   -2.9670   23.6460 C   0  0  0  0  0  0  0  0  0  0  0  0
    7.6680   -3.1610   22.1830 C   0  0  0  0  0  0  0  0  0  0  0  0
  1  2  1  0
  2  3  2  0
  2  4  1  0
  4  5  1  0
  5  6  1  0
  6  7  1  0
  7  8  1  0
  8  9  2  0
  8 10  1  0
 10 11  1  0
 10 12  1  0
 12 13  1  0
 12 14  1  0
 12 15  1  0
 15 16  3  0
  7 17  1  0
  4 18  1  0
 17 18  1  0
M  END
