piperidine-amides-295-covalent
     RDKit          3D

 33 36  0  0  0  0  0  0  0  0999 V2000
    7.0940   -3.2340   19.0710 C   0  0  0  0  0  0  0  0  0  0  0  0
    6.2750   -3.7770   20.1330 C   0  0  0  0  0  0  0  0  0  0  0  0
    5.2240   -4.4010   19.8100 O   0  0  0  0  0  0  0  0  0  0  0  0
    6.5750   -3.7060   21.5010 N   0  0  0  0  0  0  0  0  0  0  0  0
    5.9980   -4.7840   22.3010 C   0  0  0  0  0  0  0  0  0  0  0  0
    5.2200   -3.9230   23.3620 C   0  0  0  0  0  0  0  0  0  0  0  0
    6.3070   -3.2690   24.1790 C   0  0  0  0  0  0  0  0  0  0  0  0
    5.7310   -2.6620   25.5380 C   0  0  0  0  0  0  0  0  0  0  0  0
    4.9710   -1.7280   25.3390 O   0  0  0  0  0  0  0  0  0  0  0  0
    6.2320   -3.3590   26.4710 N   0  0  0  0  0  0  0  0  0  0  0  0
    6.7450   -4.2790   27.3140 C   0  0  2  0  0  0  0  0  0  0  0  0
    7.5930   -5.2570   27.0350 C   0  0  0  0  0  0  0  0  0  0  0  0
    7.0890   -5.6280   25.7660 C   0  0  0  0  0  0  0  0  0  0  0  0
    7.8640   -5.5660   24.5360 C   0  0  0  0  0  0  0  0  0  0  0  0
    7.1510   -6.0200   23.2410 C   0  0  0  0  0  0  0  0  0  0  0  0
    5.8080   -6.4430   23.3330 C   0  0  0  0  0  0  0  0  0  0  0  0
    4.8380   -6.5840   24.3460 C   0  0  0  0  0  0  0  0  0  0  0  0
    3.5350   -7.0090   24.3210 F   0  0  0  0  0  0  0  0  0  0  0  0
    5.6700   -6.1170   25.5500 C   0  0  0  0  0  0  0  0  0  0  0  0
    5.4760   -5.0640   27.7200 C   0  0  0  0  0  0  0  0  0  0  0  0
    5.2750   -5.1640   29.1370 N   0  0  0  0  0  0  0  0  0  0  0  0
    3.9970   -4.5220   29.4450 C   0  0  0  0  0  0  0  0  0  0  0  0
    3.6160   -3.3490   29.1880 O   0  0  0  0  0  0  0  0  0  0  0  0
    3.2240   -5.4530   30.1060 C   0  0  0  0  0  0  0  0  0  0  0  0
    1.9280   -5.3960   30.4540 C   0  0  0  0  0  0  0  0  0  0  0  0
    1.3150   -6.4530   31.1320 C   0  0  0  0  0  0  0  0  0  0  0  0
    1.8250   -7.7100   31.5810 C   0  0  0  0  0  0  0  0  0  0  0  0
    3.2650   -7.6370   31.1300 C   0  0  0  0  0  0  0  0  0  0  0  0
    3.9270   -6.5230   30.4100 C   0  0  0  0  0  0  0  0  0  0  0  0
    5.3330   -6.3430   29.9140 C   0  0  0  0  0  0  0  0  0  0  0  0
    6.3270   -7.0640   30.1360 O   0  0  0  0  0  0  0  0  0  0  0  0
    7.1200   -2.2700   23.3560 C   0  0  0  0  0  0  0  0  0  0  0  0
    7.6260   -2.8930   22.0680 C   0  0  0  0  0  0  0  0  0  0  0  0
  1  2  1  0
  2  3  2  0
  2  4  1  0
  4  5  1  0
  5  6  1  0
  6  7  1  0
  7  8  1  0
  8  9  2  0
  8 10  1  0
 10 11  1  0
 11 12  1  6
 12 13  1  0
 13 14  2  0
 14 15  1  0
 15 16  2  0
 16 17  1  0
 17 18  1  0
 13 19  1  0
 17 19  2  0
 11 20  1  0
 20 21  1  0
 21 22  1  0
 22 23  2  0
 22 24  1  0
 24 25  1  0
 25 26  2  0
 26 27  1  0
 27 28  2  0
 24 29  2  0
 28 29  1  0
 21 30  1  0
 29 30  1  0
 30 31  2  0
  7 32  1  0
  4 33  1  0
 32 33  1  0
M  END
