piperidine-amides-30035-covalent
     RDKit          3D

 27 29  0  0  0  0  0  0  0  0999 V2000
    7.0540   -3.3530   19.3890 C   0  0  0  0  0  0  0  0  0  0  0  0
    6.3820   -4.2300   20.3400 C   0  0  0  0  0  0  0  0  0  0  0  0
    5.3840   -4.8580   19.9850 O   0  0  0  0  0  0  0  0  0  0  0  0
    6.9020   -4.4080   21.6760 N   0  0  0  0  0  0  0  0  0  0  0  0
    7.6570   -3.3600   22.3190 C   0  0  0  0  0  0  0  0  0  0  0  0
    6.8800   -2.7710   23.4690 C   0  0  0  0  0  0  0  0  0  0  0  0
    6.3360   -3.8910   24.3460 C   0  0  0  0  0  0  0  0  0  0  0  0
    5.2980   -3.3480   25.2970 C   0  0  0  0  0  0  0  0  0  0  0  0
    4.3610   -2.6580   24.8690 O   0  0  0  0  0  0  0  0  0  0  0  0
    5.3480   -3.5890   26.7110 N   0  0  0  0  0  0  0  0  0  0  0  0
    4.1520   -3.8570   27.4580 C   0  0  0  0  0  0  0  0  0  0  0  0
    4.5540   -4.1570   28.9010 C   0  0  0  0  0  0  0  0  0  0  0  0
    5.7140   -4.7330   29.2390 N   0  0  0  0  0  0  0  0  0  0  0  0
    5.5630   -6.0730   29.2110 C   0  0  1  0  0  0  0  0  0  0  0  0
    5.2840   -6.8230   30.3570 C   0  0  0  0  0  0  0  0  0  0  0  0
    4.5110   -6.6560   28.2250 C   0  0  0  0  0  0  0  0  0  0  0  0
    4.8220   -6.7260   26.7970 C   0  0  0  0  0  0  0  0  0  0  0  0
    3.9610   -7.2230   25.8390 C   0  0  0  0  0  0  0  0  0  0  0  0
    2.7390   -7.6750   26.2660 C   0  0  0  0  0  0  0  0  0  0  0  0
    2.3550   -7.6470   27.5960 C   0  0  0  0  0  0  0  0  0  0  0  0
    3.2590   -7.1210   28.6220 C   0  0  0  0  0  0  0  0  0  0  0  0
    3.0720   -7.0220   29.8410 O   0  0  0  0  0  0  0  0  0  0  0  0
    2.5040   -8.1550   30.3370 C   0  0  0  0  0  0  0  0  0  0  0  0
    6.6860   -4.2660   28.3440 C   0  0  0  0  0  0  0  0  0  0  0  0
    6.4930   -3.1610   27.3510 C   0  0  0  0  0  0  0  0  0  0  0  0
    5.6860   -5.0240   23.6000 C   0  0  0  0  0  0  0  0  0  0  0  0
    6.5200   -5.5420   22.4440 C   0  0  0  0  0  0  0  0  0  0  0  0
  1  2  1  0
  2  3  2  0
  2  4  1  0
  4  5  1  0
  5  6  1  0
  6  7  1  0
  7  8  1  0
  8  9  2  0
  8 10  1  0
 10 11  1  0
 11 12  1  0
 12 13  1  0
 13 14  1  0
 14 15  1  1
 14 16  1  0
 16 17  2  0
 17 18  1  0
 18 19  2  0
 19 20  1  0
 16 21  1  0
 20 21  2  0
 21 22  1  0
 22 23  1  0
 13 24  1  0
 10 25  1  0
 24 25  1  0
  7 26  1  0
  4 27  1  0
 26 27  1  0
M  END
