piperidine-amides-30079-covalent
     RDKit          3D

 27 29  0  0  0  0  0  0  0  0999 V2000
    7.0820   -3.3360   19.3570 C   0  0  0  0  0  0  0  0  0  0  0  0
    6.3840   -4.1800   20.3140 C   0  0  0  0  0  0  0  0  0  0  0  0
    5.3790   -4.8030   19.9720 O   0  0  0  0  0  0  0  0  0  0  0  0
    6.9010   -4.3260   21.6450 N   0  0  0  0  0  0  0  0  0  0  0  0
    7.7360   -3.3080   22.2300 C   0  0  0  0  0  0  0  0  0  0  0  0
    7.1780   -2.8320   23.5410 C   0  0  0  0  0  0  0  0  0  0  0  0
    6.8000   -4.0220   24.4250 C   0  0  0  0  0  0  0  0  0  0  0  0
    5.8770   -3.5320   25.4890 C   0  0  0  0  0  0  0  0  0  0  0  0
    4.6810   -3.2850   25.2210 O   0  0  0  0  0  0  0  0  0  0  0  0
    6.2920   -3.3060   26.8360 N   0  0  0  0  0  0  0  0  0  0  0  0
    5.2470   -2.8680   27.7090 C   0  0  0  0  0  0  0  0  0  0  0  0
    5.1960   -3.9910   28.6770 C   0  0  1  0  0  0  0  0  0  0  0  0
    4.0650   -4.7590   28.4340 O   0  0  0  0  0  0  0  0  0  0  0  0
    3.4580   -5.6210   29.3010 C   0  0  0  0  0  0  0  0  0  0  0  0
    3.2910   -6.9480   28.8240 C   0  0  0  0  0  0  0  0  0  0  0  0
    2.6820   -7.8920   29.6360 C   0  0  0  0  0  0  0  0  0  0  0  0
    2.2290   -7.5170   30.9540 C   0  0  0  0  0  0  0  0  0  0  0  0
    2.4090   -6.2400   31.3710 C   0  0  0  0  0  0  0  0  0  0  0  0
    3.0080   -5.2990   30.5740 C   0  0  0  0  0  0  0  0  0  0  0  0
    6.3190   -4.7630   28.6530 C   0  0  0  0  0  0  0  0  0  0  0  0
    7.1910   -4.0850   27.6930 C   0  0  1  0  0  0  0  0  0  0  0  0
    7.9170   -4.9860   27.0420 C   0  0  0  0  0  0  0  0  0  0  0  0
    7.2310   -5.7370   26.1340 O   0  0  0  0  0  0  0  0  0  0  0  0
    9.2170   -5.4020   27.0260 O   0  0  0  0  0  0  0  0  0  0  0  0
    9.6810   -5.5320   25.7430 C   0  0  0  0  0  0  0  0  0  0  0  0
    5.9990   -5.0750   23.6720 C   0  0  0  0  0  0  0  0  0  0  0  0
    6.6980   -5.5300   22.3890 C   0  0  0  0  0  0  0  0  0  0  0  0
  1  2  1  0
  2  3  2  0
  2  4  1  0
  4  5  1  0
  5  6  1  0
  6  7  1  0
  7  8  1  0
  8  9  2  0
  8 10  1  0
 10 11  1  0
 11 12  1  0
 12 13  1  6
 13 14  1  0
 14 15  2  0
 15 16  1  0
 16 17  2  0
 17 18  1  0
 14 19  1  0
 18 19  2  0
 12 20  1  0
 10 21  1  0
 20 21  1  0
 21 22  1  6
 22 23  2  0
 22 24  1  0
 24 25  1  0
  7 26  1  0
  4 27  1  0
 26 27  1  0
M  END
