piperidine-amides-24088-covalent
     RDKit          3D

 24 26  0  0  0  0  0  0  0  0999 V2000
    7.0910   -3.2960   19.2110 C   0  0  0  0  0  0  0  0  0  0  0  0
    6.3580   -4.0630   20.2310 C   0  0  0  0  0  0  0  0  0  0  0  0
    5.2620   -4.5560   19.8840 O   0  0  0  0  0  0  0  0  0  0  0  0
    6.8990   -4.2880   21.5210 N   0  0  0  0  0  0  0  0  0  0  0  0
    6.5390   -5.4880   22.1980 C   0  0  0  0  0  0  0  0  0  0  0  0
    5.8710   -5.2170   23.4550 C   0  0  0  0  0  0  0  0  0  0  0  0
    5.9350   -3.7950   23.7890 C   0  0  0  0  0  0  0  0  0  0  0  0
    5.3690   -3.4870   25.1370 C   0  0  0  0  0  0  0  0  0  0  0  0
    4.3630   -2.7610   25.2030 O   0  0  0  0  0  0  0  0  0  0  0  0
    5.9030   -3.9720   26.3460 N   0  0  0  0  0  0  0  0  0  0  0  0
    6.4610   -5.1730   26.6950 C   0  0  0  0  0  0  0  0  0  0  0  0
    5.9810   -5.0440   28.0280 C   0  0  0  0  0  0  0  0  0  0  0  0
    5.2010   -3.7250   27.6150 C   0  0  1  0  0  0  0  0  0  0  0  0
    5.5490   -2.5130   28.1680 C   0  0  0  0  0  0  0  0  0  0  0  0
    6.8670   -2.5460   28.8830 C   0  0  0  0  0  0  0  0  0  0  0  0
    7.2250   -1.1890   29.4810 C   0  0  0  0  0  0  0  0  0  0  0  0
    6.1750   -0.0450   29.2400 C   0  0  0  0  0  0  0  0  0  0  0  0
    6.4550    1.1880   29.7560 F   0  0  0  0  0  0  0  0  0  0  0  0
    4.8580   -0.1300   28.4890 C   0  0  0  0  0  0  0  0  0  0  0  0
    4.0080    0.9820   28.3440 O   0  0  0  0  0  0  0  0  0  0  0  0
    3.3410    1.1540   27.1060 C   0  0  0  0  0  0  0  0  0  0  0  0
    4.5270   -1.4490   27.9200 C   0  0  0  0  0  0  0  0  0  0  0  0
    7.3240   -3.3070   23.5970 C   0  0  0  0  0  0  0  0  0  0  0  0
    7.5960   -3.2270   22.2270 C   0  0  0  0  0  0  0  0  0  0  0  0
  1  2  1  0
  2  3  2  0
  2  4  1  0
  4  5  1  0
  5  6  1  0
  6  7  1  0
  7  8  1  0
  8  9  2  0
  8 10  1  0
 10 11  1  0
 11 12  1  0
 10 13  1  0
 12 13  1  0
 13 14  1  1
 14 15  2  0
 15 16  1  0
 16 17  2  0
 17 18  1  0
 17 19  1  0
 19 20  1  0
 20 21  1  0
 14 22  1  0
 19 22  2  0
  7 23  1  0
  4 24  1  0
 23 24  1  0
M  END
