piperidine-amides-35265-covalent
     RDKit          3D

 28 30  0  0  0  0  0  0  0  0999 V2000
    7.0910   -3.3670   19.3270 C   0  0  0  0  0  0  0  0  0  0  0  0
    6.4040   -4.2060   20.3370 C   0  0  0  0  0  0  0  0  0  0  0  0
    5.3780   -4.7810   19.9710 O   0  0  0  0  0  0  0  0  0  0  0  0
    6.9610   -4.3580   21.6140 N   0  0  0  0  0  0  0  0  0  0  0  0
    7.7130   -3.3180   22.2460 C   0  0  0  0  0  0  0  0  0  0  0  0
    6.9380   -2.8110   23.4260 C   0  0  0  0  0  0  0  0  0  0  0  0
    6.4550   -3.9440   24.3530 C   0  0  0  0  0  0  0  0  0  0  0  0
    5.3780   -3.3460   25.1650 C   0  0  0  0  0  0  0  0  0  0  0  0
    4.2500   -3.2330   24.6750 O   0  0  0  0  0  0  0  0  0  0  0  0
    5.5780   -2.8890   26.4650 N   0  0  0  0  0  0  0  0  0  0  0  0
    5.4510   -3.8700   27.5270 C   0  0  0  0  0  0  0  0  0  0  0  0
    6.4430   -4.9690   27.2650 C   0  0  0  0  0  0  0  0  0  0  0  0
    7.0540   -5.7470   28.2200 C   0  0  0  0  0  0  0  0  0  0  0  0
    6.1470   -6.3230   27.4450 C   0  0  0  0  0  0  0  0  0  0  0  0
    5.5560   -1.5390   26.9010 C   0  0  0  0  0  0  0  0  0  0  0  0
    5.1150   -1.3580   28.1500 N   0  0  0  0  0  0  0  0  0  0  0  0
    5.1460    0.0540   28.4830 C   0  0  0  0  0  0  0  0  0  0  0  0
    4.6980    0.4970   29.8390 C   0  0  0  0  0  0  0  0  0  0  0  0
    5.3610   -0.4450   30.8330 C   0  0  0  0  0  0  0  0  0  0  0  0
    5.0370   -0.1690   32.2760 C   0  0  0  0  0  0  0  0  0  0  0  0
    4.1260    0.9650   32.5790 C   0  0  0  0  0  0  0  0  0  0  0  0
    3.5080    1.8540   31.5340 C   0  0  0  0  0  0  0  0  0  0  0  0
    2.3480    3.2910   32.0020 Br  0  0  0  0  0  0  0  0  0  0  0  0
    3.8500    1.5540   30.1240 C   0  0  0  0  0  0  0  0  0  0  0  0
    5.6180    1.0130   27.4710 C   0  0  0  0  0  0  0  0  0  0  0  0
    5.9830   -0.0210   26.1690 S   0  0  0  0  0  0  0  0  0  0  0  0
    5.8230   -5.0910   23.5850 C   0  0  0  0  0  0  0  0  0  0  0  0
    6.5950   -5.5120   22.3630 C   0  0  0  0  0  0  0  0  0  0  0  0
  1  2  1  0
  2  3  2  0
  2  4  1  0
  4  5  1  0
  5  6  1  0
  6  7  1  0
  7  8  1  0
  8  9  2  0
  8 10  1  0
 10 11  1  0
 11 12  1  0
 12 13  1  0
 12 14  1  0
 10 15  1  0
 15 16  2  0
 16 17  1  0
 17 18  1  0
 18 19  2  0
 19 20  1  0
 20 21  2  0
 21 22  1  0
 22 23  1  0
 18 24  1  0
 22 24  2  0
 17 25  2  0
 15 26  1  0
 25 26  1  0
  7 27  1  0
  4 28  1  0
 27 28  1  0
M  END
