piperidine-amides-10848-covalent
     RDKit          3D

 22 23  0  0  0  0  0  0  0  0999 V2000
    7.0920   -3.3060   19.2470 C   0  0  0  0  0  0  0  0  0  0  0  0
    6.3130   -4.0350   20.2540 C   0  0  0  0  0  0  0  0  0  0  0  0
    5.2800   -4.6230   19.9060 O   0  0  0  0  0  0  0  0  0  0  0  0
    6.7390   -4.1190   21.5860 N   0  0  0  0  0  0  0  0  0  0  0  0
    7.6560   -3.1500   22.1450 C   0  0  0  0  0  0  0  0  0  0  0  0
    7.4000   -3.1620   23.6200 C   0  0  0  0  0  0  0  0  0  0  0  0
    6.0440   -3.6820   23.9340 C   0  0  0  0  0  0  0  0  0  0  0  0
    5.6440   -3.4590   25.3470 C   0  0  0  0  0  0  0  0  0  0  0  0
    4.4340   -3.1950   25.6110 O   0  0  0  0  0  0  0  0  0  0  0  0
    6.5410   -3.4890   26.4450 N   0  0  0  0  0  0  0  0  0  0  0  0
    6.9820   -4.7690   27.0770 C   0  0  0  0  0  0  0  0  0  0  0  0
    5.8020   -5.5840   27.4160 C   0  0  0  0  0  0  0  0  0  0  0  0
    5.3900   -5.3160   28.6730 N   0  0  0  0  0  0  0  0  0  0  0  0
    4.3860   -4.3910   29.0310 C   0  0  0  0  0  0  0  0  0  0  0  0
    3.0820   -5.1390   29.1290 C   0  0  0  0  0  0  0  0  0  0  0  0
    3.2300   -5.8310   30.3010 O   0  0  0  0  0  0  0  0  0  0  0  0
    4.1500   -6.8350   30.1250 C   0  0  2  0  0  0  0  0  0  0  0  0
    4.2850   -7.3580   31.5100 C   0  0  0  0  0  0  0  0  0  0  0  0
    5.5620   -7.6190   31.9410 C   0  0  0  0  0  0  0  0  0  0  0  0
    5.3430   -6.5160   29.4920 C   0  0  0  0  0  0  0  0  0  0  0  0
    5.8890   -5.1720   23.5950 C   0  0  0  0  0  0  0  0  0  0  0  0
    6.5950   -5.4010   22.2460 C   0  0  0  0  0  0  0  0  0  0  0  0
  1  2  1  0
  2  3  2  0
  2  4  1  0
  4  5  1  0
  5  6  1  0
  6  7  1  0
  7  8  1  0
  8  9  2  0
  8 10  1  0
 10 11  1  0
 11 12  1  0
 12 13  1  0
 13 14  1  0
 14 15  1  0
 15 16  1  0
 16 17  1  0
 17 18  1  1
 18 19  1  0
 13 20  1  0
 17 20  1  0
  7 21  1  0
  4 22  1  0
 21 22  1  0
M  END
