piperidine-amides-23685-covalent
     RDKit          3D

 23 24  0  0  0  0  0  0  0  0999 V2000
    7.0990   -3.2790   19.2130 C   0  0  0  0  0  0  0  0  0  0  0  0
    6.3460   -4.0320   20.2300 C   0  0  0  0  0  0  0  0  0  0  0  0
    5.2510   -4.5210   19.8720 O   0  0  0  0  0  0  0  0  0  0  0  0
    6.8560   -4.2600   21.5320 N   0  0  0  0  0  0  0  0  0  0  0  0
    7.5720   -3.2270   22.1880 C   0  0  0  0  0  0  0  0  0  0  0  0
    7.2350   -3.1590   23.5970 C   0  0  0  0  0  0  0  0  0  0  0  0
    5.8980   -3.6700   23.9020 C   0  0  0  0  0  0  0  0  0  0  0  0
    5.4880   -3.4020   25.3250 C   0  0  0  0  0  0  0  0  0  0  0  0
    4.2810   -3.5110   25.6120 O   0  0  0  0  0  0  0  0  0  0  0  0
    6.3780   -3.0240   26.3560 N   0  0  0  0  0  0  0  0  0  0  0  0
    6.7340   -1.6680   26.5880 C   0  0  0  0  0  0  0  0  0  0  0  0
    5.7340   -0.6220   26.4290 C   0  0  0  0  0  0  0  0  0  0  0  0
    5.1730   -0.3030   25.0340 C   0  0  0  0  0  0  0  0  0  0  0  0
    4.2570    0.6970   25.1030 C   0  0  0  0  0  0  0  0  0  0  0  0
    4.2790    0.9810   26.6000 C   0  0  0  0  0  0  0  0  0  0  0  0
    5.1790    0.1530   27.2920 O   0  0  0  0  0  0  0  0  0  0  0  0
    6.4720   -3.7930   27.5840 C   0  0  0  0  0  0  0  0  0  0  0  0
    6.9890   -5.2320   27.3970 C   0  0  0  0  0  0  0  0  0  0  0  0
    7.7210   -5.5950   26.3070 F   0  0  0  0  0  0  0  0  0  0  0  0
    5.8000   -5.9500   27.3650 F   0  0  0  0  0  0  0  0  0  0  0  0
    7.6420   -5.5770   28.5700 F   0  0  0  0  0  0  0  0  0  0  0  0
    5.6950   -5.1230   23.5210 C   0  0  0  0  0  0  0  0  0  0  0  0
    6.5110   -5.4550   22.2710 C   0  0  0  0  0  0  0  0  0  0  0  0
  1  2  1  0
  2  3  2  0
  2  4  1  0
  4  5  1  0
  5  6  1  0
  6  7  1  0
  7  8  1  0
  8  9  2  0
  8 10  1  0
 10 11  1  0
 11 12  1  0
 12 13  2  0
 13 14  1  0
 14 15  2  0
 12 16  1  0
 15 16  1  0
 10 17  1  0
 17 18  1  0
 18 19  1  0
 18 20  1  0
 18 21  1  0
  7 22  1  0
  4 23  1  0
 22 23  1  0
M  END
