piperidine-amides-34177-covalent
     RDKit          3D

 25 28  0  0  0  0  0  0  0  0999 V2000
    7.0820   -3.3440   19.3300 C   0  0  0  0  0  0  0  0  0  0  0  0
    6.4200   -4.2180   20.3030 C   0  0  0  0  0  0  0  0  0  0  0  0
    5.3790   -4.8360   19.9810 O   0  0  0  0  0  0  0  0  0  0  0  0
    6.9810   -4.4140   21.5690 N   0  0  0  0  0  0  0  0  0  0  0  0
    6.5650   -5.5470   22.3510 C   0  0  0  0  0  0  0  0  0  0  0  0
    5.4570   -5.0240   23.2700 C   0  0  0  0  0  0  0  0  0  0  0  0
    6.0800   -3.9780   24.1770 C   0  0  0  0  0  0  0  0  0  0  0  0
    5.0550   -3.4280   25.1120 C   0  0  0  0  0  0  0  0  0  0  0  0
    3.9660   -3.0510   24.6580 O   0  0  0  0  0  0  0  0  0  0  0  0
    5.3640   -3.3440   26.4800 N   0  0  0  0  0  0  0  0  0  0  0  0
    4.5890   -3.9540   27.5280 C   0  0  0  0  0  0  0  0  0  0  0  0
    3.0930   -4.1370   27.6180 C   0  0  0  0  0  0  0  0  0  0  0  0
    1.8210   -3.5760   26.3170 Br  0  0  0  0  0  0  0  0  0  0  0  0
    2.6610   -4.7670   28.7500 C   0  0  0  0  0  0  0  0  0  0  0  0
    3.5450   -5.1930   29.7190 C   0  0  0  0  0  0  0  0  0  0  0  0
    4.9380   -5.0420   29.6750 C   0  0  0  0  0  0  0  0  0  0  0  0
    5.4530   -4.4190   28.5800 C   0  0  0  0  0  0  0  0  0  0  0  0
    6.8030   -4.0820   28.1840 C   0  0  1  0  0  0  0  0  0  0  0  0
    6.5670   -5.4110   28.8080 C   0  0  0  0  0  0  0  0  0  0  0  0
    8.0440   -6.0160   28.3260 S   0  0  0  0  0  0  0  0  0  0  0  0
    7.6350   -5.8850   26.7010 C   0  0  0  0  0  0  0  0  0  0  0  0
    7.1520   -4.6960   26.0020 C   0  0  0  0  0  0  0  0  0  0  0  0
    6.7320   -3.6390   26.8570 C   0  0  1  0  0  0  0  0  0  0  0  0
    6.6110   -2.8160   23.3330 C   0  0  0  0  0  0  0  0  0  0  0  0
    7.5720   -3.3100   22.2830 C   0  0  0  0  0  0  0  0  0  0  0  0
  1  2  1  0
  2  3  2  0
  2  4  1  0
  4  5  1  0
  5  6  1  0
  6  7  1  0
  7  8  1  0
  8  9  2  0
  8 10  1  0
 10 11  1  0
 11 12  2  0
 12 13  1  0
 12 14  1  0
 14 15  2  0
 15 16  1  0
 11 17  1  0
 16 17  2  0
 17 18  1  0
 18 19  1  6
 19 20  1  0
 20 21  1  0
 21 22  1  0
 10 23  1  0
 18 23  1  0
 23 22  1  6
  7 24  1  0
  4 25  1  0
 24 25  1  0
M  END
