piperidine-amides-11517-covalent
     RDKit          3D

 23 25  0  0  0  0  0  0  0  0999 V2000
    7.0000   -3.3740   19.3370 C   0  0  0  0  0  0  0  0  0  0  0  0
    6.3690   -4.2680   20.3400 C   0  0  0  0  0  0  0  0  0  0  0  0
    5.3910   -4.9700   20.0130 O   0  0  0  0  0  0  0  0  0  0  0  0
    6.8770   -4.2750   21.6400 N   0  0  0  0  0  0  0  0  0  0  0  0
    7.8590   -3.2980   22.0800 C   0  0  0  0  0  0  0  0  0  0  0  0
    7.7590   -3.0610   23.5840 C   0  0  0  0  0  0  0  0  0  0  0  0
    6.8310   -3.9850   24.3760 C   0  0  0  0  0  0  0  0  0  0  0  0
    6.1610   -3.2930   25.4840 C   0  0  0  0  0  0  0  0  0  0  0  0
    4.9040   -3.0850   25.4450 O   0  0  0  0  0  0  0  0  0  0  0  0
    6.8710   -2.8080   26.6450 N   0  0  0  0  0  0  0  0  0  0  0  0
    7.2340   -1.3730   26.8460 C   0  0  1  0  0  0  0  0  0  0  0  0
    6.6270   -0.4500   25.7900 C   0  0  0  0  0  0  0  0  0  0  0  0
    5.3680    0.0550   26.2080 N   0  0  0  0  0  0  0  0  0  0  0  0
    5.1410    1.0660   27.2350 C   0  0  0  0  0  0  0  0  0  0  0  0
    5.7040    0.4800   28.4930 C   0  0  0  0  0  0  0  0  0  0  0  0
    5.8770   -0.9730   27.9340 C   0  0  0  0  0  0  0  0  0  0  0  0
    4.7770   -0.1630   28.2370 C   0  0  0  0  0  0  0  0  0  0  0  0
    4.5140   -1.1860   28.6260 C   0  0  0  0  0  0  0  0  0  0  0  0
    6.2680   -0.9540   28.8130 C   0  0  0  0  0  0  0  0  0  0  0  0
    8.0440   -0.4150   28.3820 C   0  0  0  0  0  0  0  0  0  0  0  0
    6.9080   -0.7070   28.1480 C   0  0  0  0  0  0  0  0  0  0  0  0
    5.7810   -4.6350   23.4320 C   0  0  0  0  0  0  0  0  0  0  0  0
    6.3750   -5.2660   22.5630 C   0  0  0  0  0  0  0  0  0  0  0  0
  1  2  1  0
  2  3  2  0
  2  4  1  0
  4  5  1  0
  5  6  1  0
  6  7  1  0
  7  8  1  0
  8  9  2  0
  8 10  1  0
 11 10  1  1
 11 12  1  0
 12 13  1  0
 13 14  1  0
 14 15  1  0
 15 16  1  0
 16 17  1  0
 17 18  2  0
 18 19  1  0
 19 20  2  0
 11 21  1  0
 16 21  2  0
 20 21  1  0
  7 22  1  0
  4 23  1  0
 22 23  1  0
M  END
