piperidine-amides-29494-covalent
     RDKit          3D

 27 30  0  0  0  0  0  0  0  0999 V2000
    6.9800   -3.3980   19.4350 C   0  0  0  0  0  0  0  0  0  0  0  0
    6.3390   -4.2760   20.4160 C   0  0  0  0  0  0  0  0  0  0  0  0
    5.4230   -5.0050   20.0210 O   0  0  0  0  0  0  0  0  0  0  0  0
    6.7770   -4.3300   21.7990 N   0  0  0  0  0  0  0  0  0  0  0  0
    7.6400   -3.2830   22.3240 C   0  0  0  0  0  0  0  0  0  0  0  0
    7.4150   -3.0880   23.8000 C   0  0  0  0  0  0  0  0  0  0  0  0
    6.0690   -3.7120   24.1130 C   0  0  0  0  0  0  0  0  0  0  0  0
    5.4490   -3.2240   25.4170 C   0  0  0  0  0  0  0  0  0  0  0  0
    4.8540   -2.1370   25.4090 O   0  0  0  0  0  0  0  0  0  0  0  0
    5.4420   -3.9140   26.6810 N   0  0  0  0  0  0  0  0  0  0  0  0
    4.1720   -4.0600   27.3300 C   0  0  0  0  0  0  0  0  0  0  0  0
    4.3200   -5.0780   28.4560 C   0  0  0  0  0  0  0  0  0  0  0  0
    3.1840   -5.6670   29.0280 C   0  0  0  0  0  0  0  0  0  0  0  0
    3.2770   -6.6210   30.0570 C   0  0  0  0  0  0  0  0  0  0  0  0
    4.5160   -6.9840   30.5090 C   0  0  0  0  0  0  0  0  0  0  0  0
    5.6660   -6.3710   29.9150 C   0  0  0  0  0  0  0  0  0  0  0  0
    5.5680   -5.4430   28.9200 C   0  0  0  0  0  0  0  0  0  0  0  0
    6.6190   -4.8560   28.3360 C   0  0  0  0  0  0  0  0  0  0  0  0
    6.3740   -3.6310   27.6960 C   0  0  2  0  0  0  0  0  0  0  0  0
    5.9110   -2.5520   28.5840 C   0  0  0  0  0  0  0  0  0  0  0  0
    6.1620   -1.5210   27.9500 O   0  0  0  0  0  0  0  0  0  0  0  0
    5.4470   -2.0850   29.5540 N   0  0  0  0  0  0  0  0  0  0  0  0
    5.7820   -0.7070   29.6590 C   0  0  0  0  0  0  0  0  0  0  0  0
    6.8370   -0.4230   30.2170 C   0  0  0  0  0  0  0  0  0  0  0  0
    5.5430   -0.2510   31.0270 C   0  0  0  0  0  0  0  0  0  0  0  0
    6.0600   -5.1980   23.9800 C   0  0  0  0  0  0  0  0  0  0  0  0
    6.5870   -5.5350   22.5780 C   0  0  0  0  0  0  0  0  0  0  0  0
  1  2  1  0
  2  3  2  0
  2  4  1  0
  4  5  1  0
  5  6  1  0
  6  7  1  0
  7  8  1  0
  8  9  2  0
  8 10  1  0
 10 11  1  0
 11 12  1  0
 12 13  2  0
 13 14  1  0
 14 15  2  0
 15 16  1  0
 12 17  1  0
 16 17  2  0
 17 18  1  0
 10 19  1  0
 18 19  1  0
 19 20  1  1
 20 21  2  0
 20 22  1  0
 22 23  1  0
 23 24  1  0
 23 25  1  0
 24 25  1  0
  7 26  1  0
  4 27  1  0
 26 27  1  0
M  END
