piperidine-amides-14065-covalent
     RDKit          3D

 25 27  0  0  0  0  0  0  0  0999 V2000
    7.0870   -3.3060   19.2630 C   0  0  0  0  0  0  0  0  0  0  0  0
    6.3550   -4.1290   20.2660 C   0  0  0  0  0  0  0  0  0  0  0  0
    5.3060   -4.6980   19.9310 O   0  0  0  0  0  0  0  0  0  0  0  0
    6.9010   -4.2910   21.5510 N   0  0  0  0  0  0  0  0  0  0  0  0
    6.5590   -5.4060   22.3980 C   0  0  0  0  0  0  0  0  0  0  0  0
    5.6620   -4.8430   23.5070 C   0  0  0  0  0  0  0  0  0  0  0  0
    6.4820   -3.8370   24.2410 C   0  0  0  0  0  0  0  0  0  0  0  0
    5.7910   -3.2040   25.3840 C   0  0  0  0  0  0  0  0  0  0  0  0
    4.5710   -3.0260   25.2730 O   0  0  0  0  0  0  0  0  0  0  0  0
    6.5260   -2.8440   26.5170 N   0  0  0  0  0  0  0  0  0  0  0  0
    6.4810   -1.6300   27.2500 C   0  0  0  0  0  0  0  0  0  0  0  0
    7.0040   -1.4610   28.5060 C   0  0  0  0  0  0  0  0  0  0  0  0
    6.9230   -0.2370   29.1870 C   0  0  0  0  0  0  0  0  0  0  0  0
    6.3060    0.8700   28.6210 C   0  0  0  0  0  0  0  0  0  0  0  0
    6.1020    2.1060   29.0730 O   0  0  0  0  0  0  0  0  0  0  0  0
    7.1970    2.8270   29.1240 C   0  0  0  0  0  0  0  0  0  0  0  0
    7.8690    2.5730   30.4960 C   0  0  0  0  0  0  0  0  0  0  0  0
    9.1660    3.3800   30.6360 C   0  0  0  0  0  0  0  0  0  0  0  0
    9.6340    4.2090   29.6480 C   0  0  0  0  0  0  0  0  0  0  0  0
    8.9100    4.3770   28.3780 C   0  0  0  0  0  0  0  0  0  0  0  0
    7.6850    3.6860   28.1070 N   0  0  0  0  0  0  0  0  0  0  0  0
    5.7960    0.6680   27.3540 C   0  0  0  0  0  0  0  0  0  0  0  0
    5.8730   -0.5230   26.6850 C   0  0  0  0  0  0  0  0  0  0  0  0
    7.0050   -2.7250   23.4050 C   0  0  0  0  0  0  0  0  0  0  0  0
    7.6810   -3.2240   22.1600 C   0  0  0  0  0  0  0  0  0  0  0  0
  1  2  1  0
  2  3  2  0
  2  4  1  0
  4  5  1  0
  5  6  1  0
  6  7  1  0
  7  8  1  0
  8  9  2  0
  8 10  1  0
 10 11  1  0
 11 12  2  0
 12 13  1  0
 13 14  2  0
 14 15  1  0
 15 16  1  0
 16 17  2  0
 17 18  1  0
 18 19  2  0
 19 20  1  0
 16 21  1  0
 20 21  2  0
 14 22  1  0
 11 23  1  0
 22 23  2  0
  7 24  1  0
  4 25  1  0
 24 25  1  0
M  END
