piperidine-amides-2164-covalent
     RDKit          3D

 23 25  0  0  0  0  0  0  0  0999 V2000
    7.0750   -3.2680   19.2640 C   0  0  0  0  0  0  0  0  0  0  0  0
    6.3500   -4.0660   20.2910 C   0  0  0  0  0  0  0  0  0  0  0  0
    5.3270   -4.6420   19.9210 O   0  0  0  0  0  0  0  0  0  0  0  0
    6.8450   -4.1750   21.6000 N   0  0  0  0  0  0  0  0  0  0  0  0
    7.7210   -3.1770   22.1910 C   0  0  0  0  0  0  0  0  0  0  0  0
    7.3150   -2.8710   23.6070 C   0  0  0  0  0  0  0  0  0  0  0  0
    6.0360   -3.6360   23.9280 C   0  0  0  0  0  0  0  0  0  0  0  0
    5.6040   -3.3120   25.3020 C   0  0  0  0  0  0  0  0  0  0  0  0
    4.3940   -3.3760   25.5640 O   0  0  0  0  0  0  0  0  0  0  0  0
    6.5100   -2.9350   26.3130 N   0  0  0  0  0  0  0  0  0  0  0  0
    6.2490   -3.4160   27.6600 C   0  0  0  0  0  0  0  0  0  0  0  0
    5.3600   -2.3960   28.3610 C   0  0  2  0  0  0  0  0  0  0  0  0
    4.7790   -1.2950   27.7840 C   0  0  0  0  0  0  0  0  0  0  0  0
    3.7380   -0.7540   28.4680 C   0  0  0  0  0  0  0  0  0  0  0  0
    4.1100   -0.2250   29.6600 C   0  0  0  0  0  0  0  0  0  0  0  0
    5.4150   -0.2010   29.5760 N   0  0  0  0  0  0  0  0  0  0  0  0
    6.1480    0.6240   30.5580 C   0  0  0  0  0  0  0  0  0  0  0  0
    7.5910    0.2070   30.5820 C   0  0  0  0  0  0  0  0  0  0  0  0
    7.9280    0.0710   29.1160 C   0  0  0  0  0  0  0  0  0  0  0  0
    7.3580   -1.2710   28.7800 C   0  0  0  0  0  0  0  0  0  0  0  0
    6.0120   -1.4770   29.3880 C   0  0  2  0  0  0  0  0  0  0  0  0
    6.0720   -5.0880   23.6520 C   0  0  0  0  0  0  0  0  0  0  0  0
    6.6640   -5.4140   22.3300 C   0  0  0  0  0  0  0  0  0  0  0  0
  1  2  1  0
  2  3  2  0
  2  4  1  0
  4  5  1  0
  5  6  1  0
  6  7  1  0
  7  8  1  0
  8  9  2  0
  8 10  1  0
 10 11  1  0
 12 11  1  6
 12 13  1  0
 13 14  1  0
 14 15  1  0
 15 16  1  0
 16 17  1  0
 17 18  1  0
 18 19  1  0
 19 20  1  0
 12 21  1  0
 16 21  1  0
 21 20  1  6
  7 22  1  0
  4 23  1  0
 22 23  1  0
M  END
