piperidine-amides-30977-covalent
     RDKit          3D

 25 27  0  0  0  0  0  0  0  0999 V2000
    7.0980   -3.3190   19.2740 C   0  0  0  0  0  0  0  0  0  0  0  0
    6.3930   -4.1170   20.2810 C   0  0  0  0  0  0  0  0  0  0  0  0
    5.3600   -4.7240   19.9510 O   0  0  0  0  0  0  0  0  0  0  0  0
    6.8850   -4.2640   21.5920 N   0  0  0  0  0  0  0  0  0  0  0  0
    6.6860   -5.4670   22.3650 C   0  0  0  0  0  0  0  0  0  0  0  0
    5.9830   -5.0290   23.6250 C   0  0  0  0  0  0  0  0  0  0  0  0
    6.5780   -3.7790   24.2120 C   0  0  0  0  0  0  0  0  0  0  0  0
    5.7120   -3.2080   25.2640 C   0  0  0  0  0  0  0  0  0  0  0  0
    4.5840   -2.7230   24.9550 O   0  0  0  0  0  0  0  0  0  0  0  0
    6.0610   -3.1840   26.6200 N   0  0  0  0  0  0  0  0  0  0  0  0
    6.2370   -1.8670   27.2990 C   0  0  0  0  0  0  0  0  0  0  0  0
    6.9180   -1.8050   28.5980 C   0  0  0  0  0  0  0  0  0  0  0  0
    7.0830   -0.5160   29.2800 C   0  0  0  0  0  0  0  0  0  0  0  0
    6.5510    0.7410   28.6420 C   0  0  0  0  0  0  0  0  0  0  0  0
    6.7310    1.9390   29.3340 F   0  0  0  0  0  0  0  0  0  0  0  0
    5.8440    0.7380   27.2970 C   0  0  0  0  0  0  0  0  0  0  0  0
    5.2130    2.1670   26.5090 Cl  0  0  0  0  0  0  0  0  0  0  0  0
    5.7270   -0.6180   26.6860 C   0  0  0  0  0  0  0  0  0  0  0  0
    5.8250   -4.3940   27.3660 C   0  0  0  0  0  0  0  0  0  0  0  0
    5.0510   -5.5520   26.8990 N   0  0  0  0  0  0  0  0  0  0  0  0
    4.9740   -6.6560   27.8280 C   0  0  0  0  0  0  0  0  0  0  0  0
    5.7120   -6.4090   29.1180 C   0  0  0  0  0  0  0  0  0  0  0  0
    6.3560   -4.8440   28.9190 S   0  0  0  0  0  0  0  0  0  0  0  0
    6.8410   -2.6720   23.2380 C   0  0  0  0  0  0  0  0  0  0  0  0
    7.7340   -3.2420   22.1770 C   0  0  0  0  0  0  0  0  0  0  0  0
  1  2  1  0
  2  3  2  0
  2  4  1  0
  4  5  1  0
  5  6  1  0
  6  7  1  0
  7  8  1  0
  8  9  2  0
  8 10  1  0
 10 11  1  0
 11 12  2  0
 12 13  1  0
 13 14  2  0
 14 15  1  0
 14 16  1  0
 16 17  1  0
 11 18  1  0
 16 18  2  0
 10 19  1  0
 19 20  2  0
 20 21  1  0
 21 22  2  0
 19 23  1  0
 22 23  1  0
  7 24  1  0
  4 25  1  0
 24 25  1  0
M  END
