piperidine-amides-14690-covalent
     RDKit          3D

 22 23  0  0  0  0  0  0  0  0999 V2000
    7.0230   -3.3020   19.3440 C   0  0  0  0  0  0  0  0  0  0  0  0
    6.3360   -4.1160   20.3510 C   0  0  0  0  0  0  0  0  0  0  0  0
    5.3720   -4.7990   19.9670 O   0  0  0  0  0  0  0  0  0  0  0  0
    6.7650   -4.1570   21.7100 N   0  0  0  0  0  0  0  0  0  0  0  0
    7.6870   -3.1640   22.2000 C   0  0  0  0  0  0  0  0  0  0  0  0
    7.4490   -2.9880   23.6640 C   0  0  0  0  0  0  0  0  0  0  0  0
    6.0980   -3.6140   23.8830 C   0  0  0  0  0  0  0  0  0  0  0  0
    5.5550   -3.3630   25.2690 C   0  0  0  0  0  0  0  0  0  0  0  0
    4.3360   -3.3630   25.3630 O   0  0  0  0  0  0  0  0  0  0  0  0
    6.4240   -3.1520   26.3380 N   0  0  0  0  0  0  0  0  0  0  0  0
    6.2330   -3.7610   27.6260 C   0  0  2  0  0  0  0  0  0  0  0  0
    5.8450   -5.1140   27.6330 C   0  0  0  0  0  0  0  0  0  0  0  0
    5.1750   -2.9850   28.2940 C   0  0  0  0  0  0  0  0  0  0  0  0
    3.8290   -3.3400   28.1260 C   0  0  0  0  0  0  0  0  0  0  0  0
    2.7660   -2.5390   28.8160 C   0  0  0  0  0  0  0  0  0  0  0  0
    3.0780   -1.3350   29.7100 C   0  0  0  0  0  0  0  0  0  0  0  0
    2.0410   -0.6550   30.3070 F   0  0  0  0  0  0  0  0  0  0  0  0
    4.5030   -1.0120   29.8440 C   0  0  0  0  0  0  0  0  0  0  0  0
    5.4680   -1.8900   29.1030 C   0  0  0  0  0  0  0  0  0  0  0  0
    6.9360   -1.4390   29.3260 C   0  0  0  0  0  0  0  0  0  0  0  0
    6.2120   -5.1170   23.7270 C   0  0  0  0  0  0  0  0  0  0  0  0
    6.6540   -5.4050   22.4370 C   0  0  0  0  0  0  0  0  0  0  0  0
  1  2  1  0
  2  3  2  0
  2  4  1  0
  4  5  1  0
  5  6  1  0
  6  7  1  0
  7  8  1  0
  8  9  2  0
  8 10  1  0
 10 11  1  0
 11 12  1  6
 11 13  1  0
 13 14  2  0
 14 15  1  0
 15 16  2  0
 16 17  1  0
 16 18  1  0
 13 19  1  0
 18 19  2  0
 19 20  1  0
  7 21  1  0
  4 22  1  0
 21 22  1  0
M  END
