piperidine-amides-19250-covalent
     RDKit          3D

 22 23  0  0  0  0  0  0  0  0999 V2000
    7.0890   -3.3340   19.2130 C   0  0  0  0  0  0  0  0  0  0  0  0
    6.3680   -4.0320   20.2530 C   0  0  0  0  0  0  0  0  0  0  0  0
    5.2880   -4.6050   19.9140 O   0  0  0  0  0  0  0  0  0  0  0  0
    6.8310   -4.1620   21.5800 N   0  0  0  0  0  0  0  0  0  0  0  0
    7.6960   -3.1150   22.1710 C   0  0  0  0  0  0  0  0  0  0  0  0
    6.7660   -2.6300   23.3410 C   0  0  0  0  0  0  0  0  0  0  0  0
    6.4580   -3.8770   24.1400 C   0  0  0  0  0  0  0  0  0  0  0  0
    5.5970   -3.5600   25.4340 C   0  0  0  0  0  0  0  0  0  0  0  0
    4.5540   -4.1960   25.4010 O   0  0  0  0  0  0  0  0  0  0  0  0
    6.1900   -2.7180   26.1710 N   0  0  0  0  0  0  0  0  0  0  0  0
    6.7870   -1.5360   26.5040 C   0  0  0  0  0  0  0  0  0  0  0  0
    6.0940   -3.2650   27.4740 C   0  0  2  0  0  0  0  0  0  0  0  0
    5.7870   -4.6570   27.5920 C   0  0  0  0  0  0  0  0  0  0  0  0
    4.9420   -2.5310   28.1740 C   0  0  0  0  0  0  0  0  0  0  0  0
    5.7240   -2.0800   29.3610 C   0  0  0  0  0  0  0  0  0  0  0  0
    4.8360   -1.3360   30.2050 C   0  0  0  0  0  0  0  0  0  0  0  0
    3.4380   -0.9000   30.2510 C   0  0  0  0  0  0  0  0  0  0  0  0
    2.8690   -1.4930   28.9230 C   0  0  0  0  0  0  0  0  0  0  0  0
    3.5770   -2.3220   27.8370 C   0  0  0  0  0  0  0  0  0  0  0  0
    2.9760   -2.7960   26.6950 C   0  0  0  0  0  0  0  0  0  0  0  0
    5.8030   -5.0220   23.3720 C   0  0  0  0  0  0  0  0  0  0  0  0
    6.5810   -5.3650   22.3240 C   0  0  0  0  0  0  0  0  0  0  0  0
  1  2  1  0
  2  3  2  0
  2  4  1  0
  4  5  1  0
  5  6  1  0
  6  7  1  0
  7  8  1  0
  8  9  2  0
  8 10  1  0
 10 11  1  0
 10 12  1  0
 12 13  1  6
 12 14  1  0
 14 15  2  0
 15 16  1  0
 16 17  2  0
 17 18  1  0
 14 19  1  0
 18 19  2  0
 19 20  1  0
  7 21  1  0
  4 22  1  0
 21 22  1  0
M  END
