piperidine-amides-30337-covalent
     RDKit          3D

 28 31  0  0  0  0  0  0  0  0999 V2000
    7.0760   -3.3600   19.3120 C   0  0  0  0  0  0  0  0  0  0  0  0
    6.3570   -4.1460   20.3050 C   0  0  0  0  0  0  0  0  0  0  0  0
    5.3570   -4.7800   19.9690 O   0  0  0  0  0  0  0  0  0  0  0  0
    6.8440   -4.2250   21.6530 N   0  0  0  0  0  0  0  0  0  0  0  0
    6.7000   -5.4780   22.3610 C   0  0  0  0  0  0  0  0  0  0  0  0
    6.1500   -5.2340   23.7360 C   0  0  0  0  0  0  0  0  0  0  0  0
    6.1290   -3.7340   23.9350 C   0  0  0  0  0  0  0  0  0  0  0  0
    5.5710   -3.3510   25.2580 C   0  0  0  0  0  0  0  0  0  0  0  0
    4.3600   -3.5000   25.5180 O   0  0  0  0  0  0  0  0  0  0  0  0
    6.3900   -2.7570   26.2450 N   0  0  0  0  0  0  0  0  0  0  0  0
    5.8070   -1.5490   26.7900 C   0  0  0  0  0  0  0  0  0  0  0  0
    6.7770   -0.8020   27.3160 C   0  0  0  0  0  0  0  0  0  0  0  0
    6.2670   -0.1990   26.1250 C   0  0  0  0  0  0  0  0  0  0  0  0
    6.9750   -3.5890   27.3430 C   0  0  0  0  0  0  0  0  0  0  0  0
    6.8750   -2.6830   28.3820 C   0  0  0  0  0  0  0  0  0  0  0  0
    7.9650   -1.8880   28.9180 C   0  0  0  0  0  0  0  0  0  0  0  0
    7.8490   -0.9860   29.9360 C   0  0  0  0  0  0  0  0  0  0  0  0
    6.6410   -0.7660   30.5330 C   0  0  0  0  0  0  0  0  0  0  0  0
    5.5250   -1.4790   30.0960 C   0  0  0  0  0  0  0  0  0  0  0  0
    5.6420   -2.4640   28.9960 C   0  0  0  0  0  0  0  0  0  0  0  0
    6.3260   -4.8030   27.6100 C   0  0  0  0  0  0  0  0  0  0  0  0
    5.4530   -5.4430   26.7040 C   0  0  0  0  0  0  0  0  0  0  0  0
    4.7530   -6.7220   27.0010 C   0  0  0  0  0  0  0  0  0  0  0  0
    4.9930   -7.3680   28.3380 C   0  0  0  0  0  0  0  0  0  0  0  0
    5.9220   -6.6860   29.2750 C   0  0  0  0  0  0  0  0  0  0  0  0
    6.5600   -5.3980   28.8480 C   0  0  0  0  0  0  0  0  0  0  0  0
    7.4860   -3.1060   23.6870 C   0  0  0  0  0  0  0  0  0  0  0  0
    7.7470   -3.2230   22.2000 C   0  0  0  0  0  0  0  0  0  0  0  0
  1  2  1  0
  2  3  2  0
  2  4  1  0
  4  5  1  0
  5  6  1  0
  6  7  1  0
  7  8  1  0
  8  9  2  0
  8 10  1  0
 10 11  1  0
 11 12  1  0
 11 13  1  0
 12 13  1  0
 10 14  1  0
 14 15  1  0
 15 16  2  0
 16 17  1  0
 17 18  2  0
 18 19  1  0
 15 20  1  0
 19 20  2  0
 14 21  1  0
 21 22  2  0
 22 23  1  0
 23 24  2  0
 24 25  1  0
 21 26  1  0
 25 26  2  0
  7 27  1  0
  4 28  1  0
 27 28  1  0
M  END
