piperidine-amides-2291-covalent
     RDKit          3D

 27 29  0  0  0  0  0  0  0  0999 V2000
    7.1140   -3.3110   19.2540 C   0  0  0  0  0  0  0  0  0  0  0  0
    6.3480   -4.0620   20.2710 C   0  0  0  0  0  0  0  0  0  0  0  0
    5.2960   -4.5830   19.9060 O   0  0  0  0  0  0  0  0  0  0  0  0
    6.8650   -4.1990   21.5670 N   0  0  0  0  0  0  0  0  0  0  0  0
    7.5740   -3.1210   22.1940 C   0  0  0  0  0  0  0  0  0  0  0  0
    6.7350   -2.6150   23.3320 C   0  0  0  0  0  0  0  0  0  0  0  0
    6.4170   -3.7580   24.3050 C   0  0  0  0  0  0  0  0  0  0  0  0
    5.5010   -3.2300   25.3470 C   0  0  0  0  0  0  0  0  0  0  0  0
    4.3650   -2.8790   25.0100 O   0  0  0  0  0  0  0  0  0  0  0  0
    5.8710   -3.1190   26.7100 N   0  0  0  0  0  0  0  0  0  0  0  0
    6.1350   -4.3310   27.4470 C   0  0  0  0  0  0  0  0  0  0  0  0
    5.0070   -4.7080   28.3730 C   0  0  0  0  0  0  0  0  0  0  0  0
    3.7390   -4.1760   28.4330 C   0  0  0  0  0  0  0  0  0  0  0  0
    2.8160   -4.6350   29.3460 C   0  0  0  0  0  0  0  0  0  0  0  0
    3.1210   -5.6440   30.2360 C   0  0  0  0  0  0  0  0  0  0  0  0
    2.1460   -6.2170   31.2930 C   0  0  0  0  0  0  0  0  0  0  0  0
    2.6490   -7.3350   32.2030 C   0  0  0  0  0  0  0  0  0  0  0  0
    1.8980   -7.9300   33.1710 O   0  0  0  0  0  0  0  0  0  0  0  0
    1.4930   -9.2320   32.8830 C   0  0  0  0  0  0  0  0  0  0  0  0
    4.0460   -7.8950   32.1110 C   0  0  0  0  0  0  0  0  0  0  0  0
    4.4540   -8.8180   32.8590 O   0  0  0  0  0  0  0  0  0  0  0  0
    5.4560   -8.5790   33.8100 C   0  0  0  0  0  0  0  0  0  0  0  0
    4.8990   -7.2970   31.0850 C   0  0  0  0  0  0  0  0  0  0  0  0
    4.3600   -6.2340   30.2480 C   0  0  0  0  0  0  0  0  0  0  0  0
    5.3290   -5.7150   29.2510 C   0  0  0  0  0  0  0  0  0  0  0  0
    5.7180   -4.8910   23.5710 C   0  0  0  0  0  0  0  0  0  0  0  0
    6.4570   -5.3320   22.3290 C   0  0  0  0  0  0  0  0  0  0  0  0
  1  2  1  0
  2  3  2  0
  2  4  1  0
  4  5  1  0
  5  6  1  0
  6  7  1  0
  7  8  1  0
  8  9  2  0
  8 10  1  0
 10 11  1  0
 11 12  1  0
 12 13  2  0
 13 14  1  0
 14 15  2  0
 15 16  1  0
 16 17  2  0
 17 18  1  0
 18 19  1  0
 17 20  1  0
 20 21  1  0
 21 22  1  0
 20 23  2  0
 15 24  1  0
 23 24  1  0
 12 25  1  0
 24 25  2  0
  7 26  1  0
  4 27  1  0
 26 27  1  0
M  END
