piperidine-amides-31887-covalent
     RDKit          3D

 27 29  0  0  0  0  0  0  0  0999 V2000
    7.0970   -3.3560   19.2460 C   0  0  0  0  0  0  0  0  0  0  0  0
    6.3980   -4.0950   20.2720 C   0  0  0  0  0  0  0  0  0  0  0  0
    5.3060   -4.6500   19.9330 O   0  0  0  0  0  0  0  0  0  0  0  0
    6.8970   -4.2860   21.5820 N   0  0  0  0  0  0  0  0  0  0  0  0
    7.7410   -3.2430   22.1930 C   0  0  0  0  0  0  0  0  0  0  0  0
    6.6990   -2.6630   23.2120 C   0  0  0  0  0  0  0  0  0  0  0  0
    6.3170   -3.8060   24.1260 C   0  0  0  0  0  0  0  0  0  0  0  0
    5.3590   -3.2520   25.2670 C   0  0  0  0  0  0  0  0  0  0  0  0
    4.4000   -2.7010   24.7480 O   0  0  0  0  0  0  0  0  0  0  0  0
    5.8090   -3.5120   26.4290 N   0  0  0  0  0  0  0  0  0  0  0  0
    6.0360   -4.2050   27.5900 C   0  0  0  0  0  0  0  0  0  0  0  0
    6.2450   -5.5170   27.9500 C   0  0  0  0  0  0  0  0  0  0  0  0
    6.2220   -2.1510   26.7510 C   0  0  0  0  0  0  0  0  0  0  0  0
    5.9650   -1.6550   28.1140 C   0  0  0  0  0  0  0  0  0  0  0  0
    4.8180   -1.8880   28.9090 N   0  0  0  0  0  0  0  0  0  0  0  0
    4.8520   -1.2640   30.2220 C   0  0  0  0  0  0  0  0  0  0  0  0
    3.7260   -1.5400   31.0350 C   0  0  0  0  0  0  0  0  0  0  0  0
    3.3540   -1.1360   32.3800 C   0  0  0  0  0  0  0  0  0  0  0  0
    1.9290   -1.5250   33.3220 Cl  0  0  0  0  0  0  0  0  0  0  0  0
    4.6250   -0.2740   32.6620 C   0  0  0  0  0  0  0  0  0  0  0  0
    5.8690    0.0470   31.7960 C   0  0  0  0  0  0  0  0  0  0  0  0
    5.9110   -0.4810   30.5920 C   0  0  0  0  0  0  0  0  0  0  0  0
    6.9000   -0.3340   29.6620 C   0  0  0  0  0  0  0  0  0  0  0  0
    7.7410    0.4870   30.0380 O   0  0  0  0  0  0  0  0  0  0  0  0
    7.0280   -0.9310   28.4640 N   0  0  0  0  0  0  0  0  0  0  0  0
    5.7870   -5.0680   23.4370 C   0  0  0  0  0  0  0  0  0  0  0  0
    6.5680   -5.4440   22.3670 C   0  0  0  0  0  0  0  0  0  0  0  0
  1  2  1  0
  2  3  2  0
  2  4  1  0
  4  5  1  0
  5  6  1  0
  6  7  1  0
  7  8  1  0
  8  9  2  0
  8 10  1  0
 10 11  1  0
 11 12  1  0
 10 13  1  0
 13 14  1  0
 14 15  2  0
 15 16  1  0
 16 17  2  0
 17 18  1  0
 18 19  1  0
 18 20  2  0
 20 21  1  0
 16 22  1  0
 21 22  2  0
 22 23  1  0
 23 24  2  0
 14 25  1  0
 23 25  1  0
  7 26  1  0
  4 27  1  0
 26 27  1  0
M  END
