piperidine-amides-11991-covalent
     RDKit          3D

 26 28  0  0  0  0  0  0  0  0999 V2000
    7.1640   -4.0200   19.6420 C   0  0  0  0  0  0  0  0  0  0  0  0
    5.9390   -3.8380   20.2590 C   0  0  0  0  0  0  0  0  0  0  0  0
    4.9480   -3.9470   19.5580 O   0  0  0  0  0  0  0  0  0  0  0  0
    5.9790   -3.6510   21.6520 N   0  0  0  0  0  0  0  0  0  0  0  0
    7.1280   -2.9100   22.0850 C   0  0  0  0  0  0  0  0  0  0  0  0
    6.9620   -2.5070   23.5060 C   0  0  0  0  0  0  0  0  0  0  0  0
    6.6430   -3.7410   24.3330 C   0  0  0  0  0  0  0  0  0  0  0  0
    6.3340   -3.2790   25.6940 C   0  0  0  0  0  0  0  0  0  0  0  0
    5.1670   -3.0640   26.0830 O   0  0  0  0  0  0  0  0  0  0  0  0
    7.4480   -3.0610   26.5430 N   0  0  0  0  0  0  0  0  0  0  0  0
    7.4400   -3.5640   27.8940 C   0  0  0  0  0  0  0  0  0  0  0  0
    6.9940   -5.0000   27.8840 C   0  0  0  0  0  0  0  0  0  0  0  0
    5.9880   -5.4290   28.6730 N   0  0  0  0  0  0  0  0  0  0  0  0
    6.0350   -6.7500   28.8610 C   0  0  0  0  0  0  0  0  0  0  0  0
    5.0570   -7.4900   29.5160 C   0  0  0  0  0  0  0  0  0  0  0  0
    3.8270   -6.9750   29.3430 N   0  0  0  0  0  0  0  0  0  0  0  0
    2.9080   -6.8150   30.2930 C   0  0  0  0  0  0  0  0  0  0  0  0
    3.2180   -6.7940   31.4990 O   0  0  0  0  0  0  0  0  0  0  0  0
    1.4690   -6.6410   30.1260 C   0  0  0  0  0  0  0  0  0  0  0  0
    0.6810   -7.2560   29.1410 C   0  0  0  0  0  0  0  0  0  0  0  0
   -0.1450   -7.8680   30.0070 C   0  0  0  0  0  0  0  0  0  0  0  0
    0.5850   -7.3020   31.0150 C   0  0  0  0  0  0  0  0  0  0  0  0
    3.8290   -6.0590   28.1920 C   0  0  0  0  0  0  0  0  0  0  0  0
    4.6580   -4.9670   28.4500 C   0  0  0  0  0  0  0  0  0  0  0  0
    5.4500   -4.5020   23.8200 C   0  0  0  0  0  0  0  0  0  0  0  0
    5.6620   -4.8210   22.3910 C   0  0  0  0  0  0  0  0  0  0  0  0
  1  2  1  0
  2  3  2  0
  2  4  1  0
  4  5  1  0
  5  6  1  0
  6  7  1  0
  7  8  1  0
  8  9  2  0
  8 10  1  0
 10 11  1  0
 11 12  1  0
 12 13  1  0
 13 14  1  0
 14 15  1  0
 15 16  1  0
 16 17  1  0
 17 18  2  0
 17 19  1  0
 19 20  1  0
 20 21  1  0
 19 22  1  0
 21 22  1  0
 16 23  1  0
 13 24  1  0
 23 24  1  0
  7 25  1  0
  4 26  1  0
 25 26  1  0
M  END
