piperidine-amides-31039-covalent
     RDKit          3D

 28 31  0  0  0  0  0  0  0  0999 V2000
    7.0770   -3.3510   19.3170 C   0  0  0  0  0  0  0  0  0  0  0  0
    6.4100   -4.1890   20.3160 C   0  0  0  0  0  0  0  0  0  0  0  0
    5.3900   -4.8140   19.9810 O   0  0  0  0  0  0  0  0  0  0  0  0
    6.9290   -4.3460   21.6160 N   0  0  0  0  0  0  0  0  0  0  0  0
    6.7720   -5.6000   22.3370 C   0  0  0  0  0  0  0  0  0  0  0  0
    6.1670   -5.2430   23.6660 C   0  0  0  0  0  0  0  0  0  0  0  0
    6.1200   -3.7600   23.8040 C   0  0  0  0  0  0  0  0  0  0  0  0
    5.3790   -3.2690   24.9720 C   0  0  0  0  0  0  0  0  0  0  0  0
    4.4880   -2.3900   24.8190 O   0  0  0  0  0  0  0  0  0  0  0  0
    5.5610   -3.6900   26.2820 N   0  0  0  0  0  0  0  0  0  0  0  0
    4.2970   -4.0730   26.9520 C   0  0  0  0  0  0  0  0  0  0  0  0
    4.5870   -4.7010   28.2390 C   0  0  0  0  0  0  0  0  0  0  0  0
    5.6300   -3.9980   28.9170 C   0  0  0  0  0  0  0  0  0  0  0  0
    5.3210   -2.5810   29.2500 N   0  0  0  0  0  0  0  0  0  0  0  0
    4.0070   -2.5070   29.9590 C   0  0  0  0  0  0  0  0  0  0  0  0
    3.8510   -1.6020   31.0570 N   0  0  0  0  0  0  0  0  0  0  0  0
    4.8050   -0.7730   31.5470 C   0  0  0  0  0  0  0  0  0  0  0  0
    4.8040    0.1920   32.7040 C   0  0  0  0  0  0  0  0  0  0  0  0
    5.8200    1.0010   33.1450 C   0  0  0  0  0  0  0  0  0  0  0  0
    7.0270    0.9720   32.4810 C   0  0  0  0  0  0  0  0  0  0  0  0
    7.2180    0.0760   31.3050 C   0  0  0  0  0  0  0  0  0  0  0  0
    6.1250   -0.8490   30.7640 C   0  0  0  0  0  0  0  0  0  0  0  0
    6.3980   -1.7230   29.5830 C   0  0  0  0  0  0  0  0  0  0  0  0
    7.6320   -1.5330   29.0360 O   0  0  0  0  0  0  0  0  0  0  0  0
    6.7680   -3.9590   28.2280 C   0  0  0  0  0  0  0  0  0  0  0  0
    6.4470   -3.0230   27.1270 C   0  0  0  0  0  0  0  0  0  0  0  0
    7.4830   -3.1600   23.6320 C   0  0  0  0  0  0  0  0  0  0  0  0
    7.7810   -3.2960   22.1510 C   0  0  0  0  0  0  0  0  0  0  0  0
  1  2  1  0
  2  3  2  0
  2  4  1  0
  4  5  1  0
  5  6  1  0
  6  7  1  0
  7  8  1  0
  8  9  2  0
  8 10  1  0
 10 11  1  0
 11 12  1  0
 12 13  1  0
 13 14  1  0
 14 15  1  0
 15 16  2  0
 16 17  1  0
 17 18  2  0
 18 19  1  0
 19 20  2  0
 20 21  1  0
 17 22  1  0
 21 22  2  0
 14 23  1  0
 22 23  1  0
 23 24  2  0
 13 25  1  0
 10 26  1  0
 25 26  1  0
  7 27  1  0
  4 28  1  0
 27 28  1  0
M  END
