piperidine-amides-15316-covalent
     RDKit          3D

 17 19  0  0  0  0  0  0  0  0999 V2000
    7.0430   -3.3400   19.3440 C   0  0  0  0  0  0  0  0  0  0  0  0
    6.3760   -4.1890   20.3450 C   0  0  0  0  0  0  0  0  0  0  0  0
    5.4050   -4.8980   19.9980 O   0  0  0  0  0  0  0  0  0  0  0  0
    6.8430   -4.2410   21.6710 N   0  0  0  0  0  0  0  0  0  0  0  0
    6.6570   -5.4650   22.4470 C   0  0  0  0  0  0  0  0  0  0  0  0
    6.1690   -5.1260   23.8830 C   0  0  0  0  0  0  0  0  0  0  0  0
    6.1990   -3.6210   24.0700 C   0  0  0  0  0  0  0  0  0  0  0  0
    5.7900   -3.1740   25.4250 C   0  0  0  0  0  0  0  0  0  0  0  0
    5.1870   -2.0860   25.5000 O   0  0  0  0  0  0  0  0  0  0  0  0
    6.0100   -3.9360   26.5930 N   0  0  0  0  0  0  0  0  0  0  0  0
    4.8370   -4.5100   27.2040 C   0  0  0  0  0  0  0  0  0  0  0  0
    5.5580   -4.5580   28.4160 C   0  0  0  0  0  0  0  0  0  0  0  0
    5.8250   -5.5390   29.3400 C   0  0  0  0  0  0  0  0  0  0  0  0
    6.2220   -5.9110   28.1340 C   0  0  0  0  0  0  0  0  0  0  0  0
    6.5720   -3.6780   28.0110 C   0  0  0  0  0  0  0  0  0  0  0  0
    7.4780   -3.0160   23.6540 C   0  0  0  0  0  0  0  0  0  0  0  0
    7.7260   -3.2260   22.1970 C   0  0  0  0  0  0  0  0  0  0  0  0
  1  2  1  0
  2  3  2  0
  2  4  1  0
  4  5  1  0
  5  6  1  0
  6  7  1  0
  7  8  1  0
  8  9  2  0
  8 10  1  0
 10 11  1  0
 12 11  1  0
 12 13  1  0
 12 14  1  0
 13 14  1  0
 10 15  1  0
 12 15  1  0
  7 16  1  0
  4 17  1  0
 16 17  1  0
M  END
