piperidine-amides-3285-covalent
     RDKit          3D

 22 23  0  0  0  0  0  0  0  0999 V2000
    7.0600   -3.3110   19.2540 C   0  0  0  0  0  0  0  0  0  0  0  0
    6.3450   -4.0800   20.2670 C   0  0  0  0  0  0  0  0  0  0  0  0
    5.3340   -4.7070   19.9430 O   0  0  0  0  0  0  0  0  0  0  0  0
    6.8270   -4.1580   21.6220 N   0  0  0  0  0  0  0  0  0  0  0  0
    7.6920   -3.1270   22.1480 C   0  0  0  0  0  0  0  0  0  0  0  0
    7.4430   -2.9560   23.6170 C   0  0  0  0  0  0  0  0  0  0  0  0
    6.1070   -3.6120   23.9030 C   0  0  0  0  0  0  0  0  0  0  0  0
    5.6060   -3.3010   25.2760 C   0  0  0  0  0  0  0  0  0  0  0  0
    4.3950   -3.1140   25.5030 O   0  0  0  0  0  0  0  0  0  0  0  0
    6.5220   -3.2010   26.3470 N   0  0  0  0  0  0  0  0  0  0  0  0
    6.2160   -3.8220   27.6300 C   0  0  0  0  0  0  0  0  0  0  0  0
    5.6870   -5.2260   27.4060 C   0  0  0  0  0  0  0  0  0  0  0  0
    5.1980   -5.7110   28.6100 O   0  0  0  0  0  0  0  0  0  0  0  0
    3.9410   -6.1780   28.9130 C   0  0  0  0  0  0  0  0  0  0  0  0
    3.4270   -5.9560   30.2500 N   0  0  0  0  0  0  0  0  0  0  0  0
    2.1060   -6.4630   30.5430 C   0  0  0  0  0  0  0  0  0  0  0  0
    1.3720   -7.1270   29.5860 C   0  0  0  0  0  0  0  0  0  0  0  0
    1.9690   -7.2960   28.2840 C   0  0  0  0  0  0  0  0  0  0  0  0
    3.2080   -6.8390   27.9530 C   0  0  0  0  0  0  0  0  0  0  0  0
    3.7740   -7.1330   26.3090 Cl  0  0  0  0  0  0  0  0  0  0  0  0
    6.2950   -5.1090   23.7150 C   0  0  0  0  0  0  0  0  0  0  0  0
    6.4960   -5.3730   22.3560 C   0  0  0  0  0  0  0  0  0  0  0  0
  1  2  1  0
  2  3  2  0
  2  4  1  0
  4  5  1  0
  5  6  1  0
  6  7  1  0
  7  8  1  0
  8  9  2  0
  8 10  1  0
 10 11  1  0
 11 12  1  0
 12 13  1  0
 13 14  1  0
 14 15  2  0
 15 16  1  0
 16 17  2  0
 17 18  1  0
 14 19  1  0
 18 19  2  0
 19 20  1  0
  7 21  1  0
  4 22  1  0
 21 22  1  0
M  END
