piperidine-amides-10287-covalent
     RDKit          3D

 24 26  0  0  0  0  0  0  0  0999 V2000
    7.0460   -3.2880   19.2650 C   0  0  0  0  0  0  0  0  0  0  0  0
    6.3340   -4.0850   20.2710 C   0  0  0  0  0  0  0  0  0  0  0  0
    5.2570   -4.6090   19.8950 O   0  0  0  0  0  0  0  0  0  0  0  0
    6.8590   -4.2910   21.5530 N   0  0  0  0  0  0  0  0  0  0  0  0
    6.5460   -5.4780   22.2970 C   0  0  0  0  0  0  0  0  0  0  0  0
    5.6370   -5.0830   23.4280 C   0  0  0  0  0  0  0  0  0  0  0  0
    6.1930   -3.9640   24.2830 C   0  0  0  0  0  0  0  0  0  0  0  0
    5.1310   -3.4600   25.2050 C   0  0  0  0  0  0  0  0  0  0  0  0
    4.9860   -2.2250   25.3100 O   0  0  0  0  0  0  0  0  0  0  0  0
    4.2570   -4.2920   25.9610 N   0  0  0  0  0  0  0  0  0  0  0  0
    4.7760   -5.1280   27.0170 C   0  0  2  0  0  0  0  0  0  0  0  0
    4.3210   -6.5700   26.9980 C   0  0  0  0  0  0  0  0  0  0  0  0
    4.8010   -4.5130   28.3520 C   0  0  0  0  0  0  0  0  0  0  0  0
    6.0310   -4.1730   28.2950 C   0  0  0  0  0  0  0  0  0  0  0  0
    6.8170   -3.1820   28.7790 C   0  0  0  0  0  0  0  0  0  0  0  0
    8.1160   -3.1980   28.3930 C   0  0  0  0  0  0  0  0  0  0  0  0
    8.5680   -4.1840   27.5570 C   0  0  0  0  0  0  0  0  0  0  0  0
    7.7980   -5.2740   27.0130 C   0  0  0  0  0  0  0  0  0  0  0  0
    6.4210   -5.1890   27.4750 C   0  0  0  0  0  0  0  0  0  0  0  0
    8.5170   -6.0590   26.2260 C   0  0  0  0  0  0  0  0  0  0  0  0
    9.7310   -5.2440   26.0140 C   0  0  0  0  0  0  0  0  0  0  0  0
    9.7680   -4.3480   27.0570 C   0  0  0  0  0  0  0  0  0  0  0  0
    6.6630   -2.8120   23.3860 C   0  0  0  0  0  0  0  0  0  0  0  0
    7.6010   -3.2830   22.2780 C   0  0  0  0  0  0  0  0  0  0  0  0
  1  2  1  0
  2  3  2  0
  2  4  1  0
  4  5  1  0
  5  6  1  0
  6  7  1  0
  7  8  1  0
  8  9  2  0
  8 10  1  0
 10 11  1  0
 11 12  1  1
 11 13  1  0
 13 14  1  0
 14 15  2  0
 15 16  1  0
 16 17  2  0
 17 18  1  0
 14 19  1  0
 18 19  2  0
 18 20  1  0
 20 21  1  0
 17 22  1  0
 21 22  1  0
  7 23  1  0
  4 24  1  0
 23 24  1  0
M  END
