piperidine-amides-33493-covalent
     RDKit          3D

 30 32  0  0  0  0  0  0  0  0999 V2000
    7.1780   -3.2890   19.2230 C   0  0  0  0  0  0  0  0  0  0  0  0
    6.4070   -4.0210   20.2350 C   0  0  0  0  0  0  0  0  0  0  0  0
    5.3010   -4.4960   19.8750 O   0  0  0  0  0  0  0  0  0  0  0  0
    6.9350   -4.2380   21.5320 N   0  0  0  0  0  0  0  0  0  0  0  0
    7.6210   -3.1480   22.1400 C   0  0  0  0  0  0  0  0  0  0  0  0
    6.8980   -2.5240   23.2400 C   0  0  0  0  0  0  0  0  0  0  0  0
    6.2980   -3.4600   24.2110 C   0  0  0  0  0  0  0  0  0  0  0  0
    5.3150   -2.7440   25.0900 C   0  0  0  0  0  0  0  0  0  0  0  0
    4.1520   -2.5810   24.6890 O   0  0  0  0  0  0  0  0  0  0  0  0
    5.6680   -2.2810   26.3700 N   0  0  0  0  0  0  0  0  0  0  0  0
    6.6860   -1.3410   26.6500 C   0  0  0  0  0  0  0  0  0  0  0  0
    5.6480   -3.3500   27.3160 C   0  0  0  0  0  0  0  0  0  0  0  0
    6.6630   -4.3690   26.9290 C   0  0  0  0  0  0  0  0  0  0  0  0
    7.0740   -4.6440   25.6610 C   0  0  0  0  0  0  0  0  0  0  0  0
    8.1810   -5.7090   25.5210 C   0  0  0  0  0  0  0  0  0  0  0  0
    8.7340   -6.3700   26.7760 C   0  0  0  0  0  0  0  0  0  0  0  0
    8.0880   -5.8960   28.0570 C   0  0  0  0  0  0  0  0  0  0  0  0
    7.0520   -4.9030   28.2000 C   0  0  0  0  0  0  0  0  0  0  0  0
    6.4690   -4.4620   29.4050 O   0  0  0  0  0  0  0  0  0  0  0  0
    5.0950   -4.6990   29.6980 C   0  0  0  0  0  0  0  0  0  0  0  0
    4.0810   -3.6010   29.3290 C   0  0  0  0  0  0  0  0  0  0  0  0
    2.6810   -3.9160   29.6690 C   0  0  0  0  0  0  0  0  0  0  0  0
    2.3200   -5.1080   30.2740 C   0  0  0  0  0  0  0  0  0  0  0  0
    1.0450   -5.4880   30.6290 C   0  0  0  0  0  0  0  0  0  0  0  0
    3.2520   -6.0650   30.5920 C   0  0  0  0  0  0  0  0  0  0  0  0
    4.6040   -5.8710   30.3150 C   0  0  0  0  0  0  0  0  0  0  0  0
    5.5310   -6.8350   30.6420 O   0  0  0  0  0  0  0  0  0  0  0  0
    5.8430   -7.7490   29.6140 C   0  0  0  0  0  0  0  0  0  0  0  0
    5.6750   -4.6490   23.5610 C   0  0  0  0  0  0  0  0  0  0  0  0
    6.4320   -5.2290   22.4250 C   0  0  0  0  0  0  0  0  0  0  0  0
  1  2  1  0
  2  3  2  0
  2  4  1  0
  4  5  1  0
  5  6  1  0
  6  7  1  0
  7  8  1  0
  8  9  2  0
  8 10  1  0
 10 11  1  0
 10 12  1  0
 12 13  1  0
 13 14  2  0
 14 15  1  0
 15 16  2  0
 16 17  1  0
 13 18  1  0
 17 18  2  0
 18 19  1  0
 19 20  1  0
 20 21  2  0
 21 22  1  0
 22 23  2  0
 23 24  1  0
 23 25  1  0
 20 26  1  0
 25 26  2  0
 26 27  1  0
 27 28  1  0
  7 29  1  0
  4 30  1  0
 29 30  1  0
M  END
