piperidine-amides-24939-covalent
     RDKit          3D

 24 25  0  0  0  0  0  0  0  0999 V2000
    7.0480   -3.3390   19.3380 C   0  0  0  0  0  0  0  0  0  0  0  0
    6.3780   -4.2040   20.3170 C   0  0  0  0  0  0  0  0  0  0  0  0
    5.3580   -4.8410   19.9820 O   0  0  0  0  0  0  0  0  0  0  0  0
    6.8980   -4.3770   21.6130 N   0  0  0  0  0  0  0  0  0  0  0  0
    6.4700   -5.5140   22.3760 C   0  0  0  0  0  0  0  0  0  0  0  0
    5.4620   -4.9560   23.3850 C   0  0  0  0  0  0  0  0  0  0  0  0
    6.2560   -4.0780   24.3270 C   0  0  0  0  0  0  0  0  0  0  0  0
    5.3280   -3.3970   25.2760 C   0  0  0  0  0  0  0  0  0  0  0  0
    4.4900   -2.6140   24.7990 O   0  0  0  0  0  0  0  0  0  0  0  0
    5.3880   -3.6300   26.6870 N   0  0  0  0  0  0  0  0  0  0  0  0
    4.2680   -3.5200   27.5700 C   0  0  0  0  0  0  0  0  0  0  0  0
    4.7340   -3.4850   29.0370 C   0  0  0  0  0  0  0  0  0  0  0  0
    5.6550   -4.5590   29.3660 N   0  0  0  0  0  0  0  0  0  0  0  0
    5.3140   -5.8470   29.9520 C   0  0  0  0  0  0  0  0  0  0  0  0
    6.1090   -6.9430   29.7220 C   0  0  0  0  0  0  0  0  0  0  0  0
    4.2830   -5.9310   30.6860 O   0  0  0  0  0  0  0  0  0  0  0  0
    6.5660   -4.5880   28.3530 C   0  0  1  0  0  0  0  0  0  0  0  0
    6.1450   -5.6790   27.6240 C   0  0  0  0  0  0  0  0  0  0  0  0
    6.9810   -6.7360   27.4140 O   0  0  0  0  0  0  0  0  0  0  0  0
    4.8590   -5.7250   27.0950 O   0  0  0  0  0  0  0  0  0  0  0  0
    4.2370   -6.9980   26.9140 C   0  0  0  0  0  0  0  0  0  0  0  0
    6.5000   -3.3760   27.4740 C   0  0  0  0  0  0  0  0  0  0  0  0
    7.0860   -3.0380   23.6580 C   0  0  0  0  0  0  0  0  0  0  0  0
    7.5600   -3.3140   22.2930 C   0  0  0  0  0  0  0  0  0  0  0  0
  1  2  1  0
  2  3  2  0
  2  4  1  0
  4  5  1  0
  5  6  1  0
  6  7  1  0
  7  8  1  0
  8  9  2  0
  8 10  1  0
 10 11  1  0
 11 12  1  0
 12 13  1  0
 13 14  1  0
 14 15  1  0
 14 16  2  0
 13 17  1  0
 17 18  1  6
 18 19  2  0
 18 20  1  0
 20 21  1  0
 10 22  1  0
 17 22  1  0
  7 23  1  0
  4 24  1  0
 23 24  1  0
M  END
