piperidine-amides-35174-covalent
     RDKit          3D

 27 29  0  0  0  0  0  0  0  0999 V2000
    7.0950   -3.3610   19.3470 C   0  0  0  0  0  0  0  0  0  0  0  0
    6.4060   -4.1810   20.3700 C   0  0  0  0  0  0  0  0  0  0  0  0
    5.4180   -4.8170   19.9900 O   0  0  0  0  0  0  0  0  0  0  0  0
    6.9200   -4.2400   21.6780 N   0  0  0  0  0  0  0  0  0  0  0  0
    7.8110   -3.2100   22.1970 C   0  0  0  0  0  0  0  0  0  0  0  0
    7.5050   -2.9570   23.6430 C   0  0  0  0  0  0  0  0  0  0  0  0
    6.0950   -3.4630   23.8640 C   0  0  0  0  0  0  0  0  0  0  0  0
    5.4550   -2.8430   25.0410 C   0  0  0  0  0  0  0  0  0  0  0  0
    4.3410   -2.3420   24.8570 O   0  0  0  0  0  0  0  0  0  0  0  0
    5.9710   -2.8060   26.3460 N   0  0  0  0  0  0  0  0  0  0  0  0
    6.0960   -1.4410   26.9160 C   0  0  0  0  0  0  0  0  0  0  0  0
    5.5260   -0.3260   26.0700 C   0  0  0  0  0  0  0  0  0  0  0  0
    5.5500    0.9960   26.4630 C   0  0  0  0  0  0  0  0  0  0  0  0
    4.8060    2.3510   25.3370 Br  0  0  0  0  0  0  0  0  0  0  0  0
    6.0980    1.3530   27.6470 C   0  0  0  0  0  0  0  0  0  0  0  0
    6.6300    0.4290   28.4570 C   0  0  0  0  0  0  0  0  0  0  0  0
    6.6410   -1.0150   28.0990 C   0  0  0  0  0  0  0  0  0  0  0  0
    7.3310   -2.0470   29.2020 Cl  0  0  0  0  0  0  0  0  0  0  0  0
    5.2890   -3.8080   27.1060 C   0  0  2  0  0  0  0  0  0  0  0  0
    3.7840   -4.0240   27.0890 C   0  0  0  0  0  0  0  0  0  0  0  0
    3.2920   -3.4240   28.4030 C   0  0  0  0  0  0  0  0  0  0  0  0
    4.4520   -3.1100   29.1480 N   0  0  0  0  0  0  0  0  0  0  0  0
    4.5460   -1.8140   29.7320 C   0  0  0  0  0  0  0  0  0  0  0  0
    5.5440   -3.7060   28.5220 C   0  0  0  0  0  0  0  0  0  0  0  0
    6.6470   -4.1640   29.2160 O   0  0  0  0  0  0  0  0  0  0  0  0
    6.1180   -4.9720   23.8660 C   0  0  0  0  0  0  0  0  0  0  0  0
    6.6690   -5.3970   22.5250 C   0  0  0  0  0  0  0  0  0  0  0  0
  1  2  1  0
  2  3  2  0
  2  4  1  0
  4  5  1  0
  5  6  1  0
  6  7  1  0
  7  8  1  0
  8  9  2  0
  8 10  1  0
 10 11  1  0
 11 12  2  0
 12 13  1  0
 13 14  1  0
 13 15  2  0
 15 16  1  0
 11 17  1  0
 16 17  2  0
 17 18  1  0
 19 10  1  6
 19 20  1  0
 20 21  1  0
 21 22  1  0
 22 23  1  0
 19 24  1  0
 22 24  1  0
 24 25  2  0
  7 26  1  0
  4 27  1  0
 26 27  1  0
M  END
