piperidine-amides-25660-covalent
     RDKit          3D

 25 27  0  0  0  0  0  0  0  0999 V2000
    7.0200   -3.3470   19.3480 C   0  0  0  0  0  0  0  0  0  0  0  0
    6.3420   -4.2170   20.3440 C   0  0  0  0  0  0  0  0  0  0  0  0
    5.3430   -4.8200   19.9640 O   0  0  0  0  0  0  0  0  0  0  0  0
    6.8560   -4.3620   21.6340 N   0  0  0  0  0  0  0  0  0  0  0  0
    6.6300   -5.5500   22.4240 C   0  0  0  0  0  0  0  0  0  0  0  0
    5.7490   -5.2310   23.6050 C   0  0  0  0  0  0  0  0  0  0  0  0
    5.9410   -3.7650   23.9680 C   0  0  0  0  0  0  0  0  0  0  0  0
    5.4790   -3.5430   25.3630 C   0  0  0  0  0  0  0  0  0  0  0  0
    4.2600   -3.4790   25.5570 O   0  0  0  0  0  0  0  0  0  0  0  0
    6.3490   -3.3810   26.4710 N   0  0  0  0  0  0  0  0  0  0  0  0
    6.8080   -4.6040   27.1240 C   0  0  0  0  0  0  0  0  0  0  0  0
    5.6680   -5.5750   27.2760 C   0  0  0  0  0  0  0  0  0  0  0  0
    5.2930   -5.6710   28.6030 O   0  0  0  0  0  0  0  0  0  0  0  0
    6.3030   -2.0910   27.0110 C   0  0  0  0  0  0  0  0  0  0  0  0
    6.3530   -1.4840   28.3180 N   0  0  0  0  0  0  0  0  0  0  0  0
    6.2630   -0.0810   28.4100 C   0  0  0  0  0  0  0  0  0  0  0  0
    6.2850    0.6980   29.4880 C   0  0  0  0  0  0  0  0  0  0  0  0
    6.1860    2.1970   29.5290 C   0  0  0  0  0  0  0  0  0  0  0  0
    6.0490    2.7640   28.1180 C   0  0  0  0  0  0  0  0  0  0  0  0
    6.0300    1.8300   26.8930 C   0  0  0  0  0  0  0  0  0  0  0  0
    6.1490    0.3680   27.1990 C   0  0  0  0  0  0  0  0  0  0  0  0
    6.1800   -0.8040   26.4950 N   0  0  0  0  0  0  0  0  0  0  0  0
    6.0750   -0.6620   25.0660 C   0  0  0  0  0  0  0  0  0  0  0  0
    7.2760   -3.2510   23.6590 C   0  0  0  0  0  0  0  0  0  0  0  0
    7.6390   -3.2970   22.2260 C   0  0  0  0  0  0  0  0  0  0  0  0
  1  2  1  0
  2  3  2  0
  2  4  1  0
  4  5  1  0
  5  6  1  0
  6  7  1  0
  7  8  1  0
  8  9  2  0
  8 10  1  0
 10 11  1  0
 11 12  1  0
 12 13  1  0
 10 14  1  0
 14 15  2  0
 15 16  1  0
 16 17  2  0
 17 18  1  0
 18 19  2  0
 19 20  1  0
 16 21  1  0
 20 21  2  0
 14 22  1  0
 21 22  1  0
 22 23  1  0
  7 24  1  0
  4 25  1  0
 24 25  1  0
M  END
