piperidine-amides-19356-covalent
     RDKit          3D

 21 22  0  0  0  0  0  0  0  0999 V2000
    7.1710   -3.3920   19.4650 C   0  0  0  0  0  0  0  0  0  0  0  0
    6.4590   -4.2160   20.4060 C   0  0  0  0  0  0  0  0  0  0  0  0
    5.4350   -4.8600   19.9960 O   0  0  0  0  0  0  0  0  0  0  0  0
    6.9080   -4.3550   21.7410 N   0  0  0  0  0  0  0  0  0  0  0  0
    6.5830   -5.5720   22.5010 C   0  0  0  0  0  0  0  0  0  0  0  0
    5.6050   -4.9440   23.5670 C   0  0  0  0  0  0  0  0  0  0  0  0
    6.3390   -3.7990   24.2510 C   0  0  0  0  0  0  0  0  0  0  0  0
    5.4360   -3.1850   25.4200 C   0  0  0  0  0  0  0  0  0  0  0  0
    4.4630   -2.6700   24.8980 O   0  0  0  0  0  0  0  0  0  0  0  0
    5.8830   -3.3540   26.6160 N   0  0  0  0  0  0  0  0  0  0  0  0
    6.5040   -3.4810   27.8040 C   0  0  0  0  0  0  0  0  0  0  0  0
    6.7480   -4.5250   28.6340 C   0  0  0  0  0  0  0  0  0  0  0  0
    5.6170   -5.3160   28.7970 C   0  0  0  0  0  0  0  0  0  0  0  0
    5.3260   -6.5320   29.5810 C   0  0  0  0  0  0  0  0  0  0  0  0
    4.2460   -6.2240   30.4100 F   0  0  0  0  0  0  0  0  0  0  0  0
    4.9590   -7.4910   28.6490 F   0  0  0  0  0  0  0  0  0  0  0  0
    6.3840   -7.1020   30.2410 F   0  0  0  0  0  0  0  0  0  0  0  0
    4.5340   -4.7150   27.9570 C   0  0  0  0  0  0  0  0  0  0  0  0
    4.9470   -3.3830   27.7560 C   0  0  0  0  0  0  0  0  0  0  0  0
    6.7870   -2.6940   23.3110 C   0  0  0  0  0  0  0  0  0  0  0  0
    7.7660   -3.3530   22.3530 C   0  0  0  0  0  0  0  0  0  0  0  0
  1  2  1  0
  2  3  2  0
  2  4  1  0
  4  5  1  0
  5  6  1  0
  6  7  1  0
  7  8  1  0
  8  9  2  0
  8 10  1  0
 10 11  1  0
 11 12  1  0
 12 13  2  0
 13 14  1  0
 14 15  1  0
 14 16  1  0
 14 17  1  0
 13 18  1  0
 10 19  1  0
 18 19  1  0
  7 20  1  0
  4 21  1  0
 20 21  1  0
M  END
