piperidine-amides-14235-covalent
     RDKit          3D

 24 26  0  0  0  0  0  0  0  0999 V2000
    7.0540   -3.2830   19.3050 C   0  0  0  0  0  0  0  0  0  0  0  0
    6.3290   -4.1160   20.3110 C   0  0  0  0  0  0  0  0  0  0  0  0
    5.3220   -4.7460   19.9470 O   0  0  0  0  0  0  0  0  0  0  0  0
    6.8170   -4.2120   21.6330 N   0  0  0  0  0  0  0  0  0  0  0  0
    6.6910   -5.4340   22.4030 C   0  0  0  0  0  0  0  0  0  0  0  0
    6.0960   -5.1100   23.7870 C   0  0  0  0  0  0  0  0  0  0  0  0
    6.0480   -3.6290   23.9410 C   0  0  0  0  0  0  0  0  0  0  0  0
    5.5530   -3.1440   25.2560 C   0  0  0  0  0  0  0  0  0  0  0  0
    4.5730   -2.3960   25.2050 O   0  0  0  0  0  0  0  0  0  0  0  0
    6.1550   -3.5070   26.4680 N   0  0  0  0  0  0  0  0  0  0  0  0
    5.9820   -4.7130   27.2100 C   0  0  0  0  0  0  0  0  0  0  0  0
    4.8310   -5.1490   27.8150 C   0  0  0  0  0  0  0  0  0  0  0  0
    3.8760   -5.7170   26.9430 C   0  0  0  0  0  0  0  0  0  0  0  0
    3.7470   -7.1040   26.8520 C   0  0  0  0  0  0  0  0  0  0  0  0
    2.7590   -7.7960   25.9500 C   0  0  0  0  0  0  0  0  0  0  0  0
    1.8940   -7.0250   25.1320 N   0  0  0  0  0  0  0  0  0  0  0  0
    2.0150   -5.6050   25.2110 C   0  0  0  0  0  0  0  0  0  0  0  0
    3.0250   -4.9630   26.1360 C   0  0  0  0  0  0  0  0  0  0  0  0
    5.1890   -5.9830   28.8720 C   0  0  0  0  0  0  0  0  0  0  0  0
    3.8020   -6.2240   29.3260 C   0  0  0  0  0  0  0  0  0  0  0  0
    3.3450   -4.9670   28.6380 C   0  0  0  0  0  0  0  0  0  0  0  0
    4.2330   -3.9250   28.5900 C   0  0  0  0  0  0  0  0  0  0  0  0
    7.3310   -2.9390   23.6290 C   0  0  0  0  0  0  0  0  0  0  0  0
    7.6720   -3.1590   22.1800 C   0  0  0  0  0  0  0  0  0  0  0  0
  1  2  1  0
  2  3  2  0
  2  4  1  0
  4  5  1  0
  5  6  1  0
  6  7  1  0
  7  8  1  0
  8  9  2  0
  8 10  1  0
 10 11  1  0
 12 11  1  0
 12 13  1  0
 13 14  2  0
 14 15  1  0
 15 16  2  0
 16 17  1  0
 13 18  1  0
 17 18  2  0
 12 19  1  0
 19 20  1  0
 20 21  1  0
 12 22  1  0
 21 22  1  0
  7 23  1  0
  4 24  1  0
 23 24  1  0
M  END
