piperidine-amides-115-covalent
     RDKit          3D

 24 26  0  0  0  0  0  0  0  0999 V2000
    7.0920   -3.3710   19.2460 C   0  0  0  0  0  0  0  0  0  0  0  0
    6.4030   -4.0990   20.2880 C   0  0  0  0  0  0  0  0  0  0  0  0
    5.3490   -4.7250   19.9560 O   0  0  0  0  0  0  0  0  0  0  0  0
    6.8870   -4.1880   21.6140 N   0  0  0  0  0  0  0  0  0  0  0  0
    6.5470   -5.3930   22.3860 C   0  0  0  0  0  0  0  0  0  0  0  0
    5.5820   -4.7430   23.4460 C   0  0  0  0  0  0  0  0  0  0  0  0
    6.3420   -3.6140   24.1300 C   0  0  0  0  0  0  0  0  0  0  0  0
    5.4360   -3.1180   25.3350 C   0  0  0  0  0  0  0  0  0  0  0  0
    4.5940   -2.3400   24.9170 O   0  0  0  0  0  0  0  0  0  0  0  0
    5.7870   -3.6440   26.4370 N   0  0  0  0  0  0  0  0  0  0  0  0
    6.0370   -4.1330   27.6840 C   0  0  0  0  0  0  0  0  0  0  0  0
    5.7740   -5.1580   28.5470 C   0  0  0  0  0  0  0  0  0  0  0  0
    6.8290   -6.1350   28.7180 N   0  0  0  0  0  0  0  0  0  0  0  0
    6.3860   -7.0270   29.5890 N   0  0  0  0  0  0  0  0  0  0  0  0
    5.1420   -6.6760   29.9680 C   0  0  0  0  0  0  0  0  0  0  0  0
    4.2320   -7.3280   30.9170 C   0  0  0  0  0  0  0  0  0  0  0  0
    4.8770   -8.2110   31.7830 O   0  0  0  0  0  0  0  0  0  0  0  0
    2.9180   -7.0260   30.9140 N   0  0  0  0  0  0  0  0  0  0  0  0
    2.0110   -8.1670   30.8050 C   0  0  0  0  0  0  0  0  0  0  0  0
    2.5960   -5.8210   30.3930 C   0  0  0  0  0  0  0  0  0  0  0  0
    3.5190   -5.0980   29.6120 C   0  0  0  0  0  0  0  0  0  0  0  0
    4.7880   -5.5580   29.3240 N   0  0  0  0  0  0  0  0  0  0  0  0
    6.9510   -2.5790   23.3350 C   0  0  0  0  0  0  0  0  0  0  0  0
    7.7800   -3.2910   22.2320 C   0  0  0  0  0  0  0  0  0  0  0  0
  1  2  1  0
  2  3  2  0
  2  4  1  0
  4  5  1  0
  5  6  1  0
  6  7  1  0
  7  8  1  0
  8  9  2  0
  8 10  1  0
 10 11  1  0
 11 12  1  0
 12 13  2  0
 13 14  1  0
 14 15  2  0
 15 16  1  0
 16 17  2  0
 16 18  1  0
 18 19  1  0
 18 20  1  0
 20 21  2  0
 12 22  1  0
 15 22  1  0
 21 22  1  0
  7 23  1  0
  4 24  1  0
 23 24  1  0
M  END
