piperidine-amides-6764-covalent
     RDKit          3D

 23 24  0  0  0  0  0  0  0  0999 V2000
    7.1070   -3.2570   19.2050 C   0  0  0  0  0  0  0  0  0  0  0  0
    6.2630   -3.9750   20.1730 C   0  0  0  0  0  0  0  0  0  0  0  0
    5.1900   -4.5020   19.8310 O   0  0  0  0  0  0  0  0  0  0  0  0
    6.6720   -4.1190   21.4880 N   0  0  0  0  0  0  0  0  0  0  0  0
    7.5470   -3.1280   22.0500 C   0  0  0  0  0  0  0  0  0  0  0  0
    7.3320   -3.1340   23.5530 C   0  0  0  0  0  0  0  0  0  0  0  0
    5.9450   -3.6300   23.8420 C   0  0  0  0  0  0  0  0  0  0  0  0
    5.6620   -3.4490   25.2730 C   0  0  0  0  0  0  0  0  0  0  0  0
    4.5690   -2.9450   25.6160 O   0  0  0  0  0  0  0  0  0  0  0  0
    6.6490   -3.8460   26.2000 N   0  0  0  0  0  0  0  0  0  0  0  0
    6.3730   -4.7950   27.2500 C   0  0  0  0  0  0  0  0  0  0  0  0
    5.2490   -5.7380   26.8230 C   0  0  0  0  0  0  0  0  0  0  0  0
    4.6210   -5.8210   25.6240 C   0  0  0  0  0  0  0  0  0  0  0  0
    3.6790   -6.7850   25.6190 C   0  0  0  0  0  0  0  0  0  0  0  0
    3.6760   -7.3780   26.9040 N   0  0  0  0  0  0  0  0  0  0  0  0
    4.6330   -6.7170   27.5760 N   0  0  0  0  0  0  0  0  0  0  0  0
    4.8720   -7.1170   28.9580 C   0  0  0  0  0  0  0  0  0  0  0  0
    3.8740   -7.9330   29.4620 C   0  0  0  0  0  0  0  0  0  0  0  0
    2.6810   -7.2350   29.5940 F   0  0  0  0  0  0  0  0  0  0  0  0
    4.2760   -8.4800   30.6780 F   0  0  0  0  0  0  0  0  0  0  0  0
    3.6190   -8.9330   28.5220 F   0  0  0  0  0  0  0  0  0  0  0  0
    5.9200   -5.1240   23.4980 C   0  0  0  0  0  0  0  0  0  0  0  0
    6.5760   -5.3860   22.1760 C   0  0  0  0  0  0  0  0  0  0  0  0
  1  2  1  0
  2  3  2  0
  2  4  1  0
  4  5  1  0
  5  6  1  0
  6  7  1  0
  7  8  1  0
  8  9  2  0
  8 10  1  0
 10 11  1  0
 11 12  1  0
 12 13  2  0
 13 14  1  0
 14 15  2  0
 12 16  1  0
 15 16  1  0
 16 17  1  0
 17 18  1  0
 18 19  1  0
 18 20  1  0
 18 21  1  0
  7 22  1  0
  4 23  1  0
 22 23  1  0
M  END
