piperidine-amides-7262-covalent
     RDKit          3D

 21 22  0  0  0  0  0  0  0  0999 V2000
    7.1040   -3.3170   19.3250 C   0  0  0  0  0  0  0  0  0  0  0  0
    6.3540   -4.0890   20.3230 C   0  0  0  0  0  0  0  0  0  0  0  0
    5.2880   -4.6220   19.9150 O   0  0  0  0  0  0  0  0  0  0  0  0
    6.8440   -4.2550   21.6260 N   0  0  0  0  0  0  0  0  0  0  0  0
    7.6470   -3.2550   22.2880 C   0  0  0  0  0  0  0  0  0  0  0  0
    6.8550   -2.6750   23.4360 C   0  0  0  0  0  0  0  0  0  0  0  0
    6.1700   -3.7080   24.3080 C   0  0  0  0  0  0  0  0  0  0  0  0
    5.1640   -3.0570   25.2070 C   0  0  0  0  0  0  0  0  0  0  0  0
    4.3190   -2.3090   24.6870 O   0  0  0  0  0  0  0  0  0  0  0  0
    5.0950   -3.2360   26.6100 N   0  0  0  0  0  0  0  0  0  0  0  0
    6.1080   -4.0220   27.2020 C   0  0  1  0  0  0  0  0  0  0  0  0
    6.5240   -3.5600   28.5850 C   0  0  0  0  0  0  0  0  0  0  0  0
    5.7900   -5.4760   27.2000 C   0  0  0  0  0  0  0  0  0  0  0  0
    5.3300   -6.0900   28.3370 C   0  0  0  0  0  0  0  0  0  0  0  0
    6.1200   -6.6300   29.3100 C   0  0  0  0  0  0  0  0  0  0  0  0
    5.5270   -7.2000   30.3860 C   0  0  0  0  0  0  0  0  0  0  0  0
    4.1630   -7.2140   30.4570 C   0  0  0  0  0  0  0  0  0  0  0  0
    3.1940   -7.8900   31.7570 Cl  0  0  0  0  0  0  0  0  0  0  0  0
    3.7520   -6.4110   28.9700 S   0  0  0  0  0  0  0  0  0  0  0  0
    5.4350   -4.7730   23.4720 C   0  0  0  0  0  0  0  0  0  0  0  0
    6.3850   -5.3510   22.4230 C   0  0  0  0  0  0  0  0  0  0  0  0
  1  2  1  0
  2  3  2  0
  2  4  1  0
  4  5  1  0
  5  6  1  0
  6  7  1  0
  7  8  1  0
  8  9  2  0
  8 10  1  0
 10 11  1  0
 11 12  1  1
 11 13  1  0
 13 14  1  0
 14 15  2  0
 15 16  1  0
 16 17  2  0
 17 18  1  0
 14 19  1  0
 17 19  1  0
  7 20  1  0
  4 21  1  0
 20 21  1  0
M  END
