piperidine-amides-323-covalent
     RDKit          3D

 29 32  0  0  0  0  0  0  0  0999 V2000
    7.0460   -3.3740   19.2770 C   0  0  0  0  0  0  0  0  0  0  0  0
    6.3590   -4.1060   20.3170 C   0  0  0  0  0  0  0  0  0  0  0  0
    5.3560   -4.8030   19.9730 O   0  0  0  0  0  0  0  0  0  0  0  0
    6.7830   -4.1160   21.6600 N   0  0  0  0  0  0  0  0  0  0  0  0
    6.7330   -5.4140   22.3690 C   0  0  0  0  0  0  0  0  0  0  0  0
    5.7800   -5.0700   23.5770 C   0  0  0  0  0  0  0  0  0  0  0  0
    6.2080   -3.7260   24.1320 C   0  0  0  0  0  0  0  0  0  0  0  0
    5.8150   -3.6300   25.6660 C   0  0  0  0  0  0  0  0  0  0  0  0
    5.4020   -4.6970   26.0730 O   0  0  0  0  0  0  0  0  0  0  0  0
    6.0050   -2.4490   26.0660 N   0  0  0  0  0  0  0  0  0  0  0  0
    6.0870   -1.1470   26.4410 C   0  0  0  0  0  0  0  0  0  0  0  0
    6.0930    0.0910   25.8700 C   0  0  0  0  0  0  0  0  0  0  0  0
    6.1920    1.3430   26.5580 C   0  0  0  0  0  0  0  0  0  0  0  0
    6.3110    1.6340   28.0050 C   0  0  0  0  0  0  0  0  0  0  0  0
    6.4140    2.8840   28.6560 N   0  0  0  0  0  0  0  0  0  0  0  0
    5.8400    3.3150   29.9340 C   0  0  0  0  0  0  0  0  0  0  0  0
    4.5160    3.5270   29.5410 C   0  0  0  0  0  0  0  0  0  0  0  0
    4.3760    3.7700   28.2330 N   0  0  0  0  0  0  0  0  0  0  0  0
    3.7110    2.8210   27.3530 C   0  0  0  0  0  0  0  0  0  0  0  0
    5.3480    4.6060   27.5780 C   0  0  0  0  0  0  0  0  0  0  0  0
    6.7390    3.9770   27.9470 C   0  0  0  0  0  0  0  0  0  0  0  0
    6.2910    0.2480   28.6240 C   0  0  0  0  0  0  0  0  0  0  0  0
    6.3690    0.2130   29.9760 C   0  0  0  0  0  0  0  0  0  0  0  0
    6.3470   -0.8860   30.7080 C   0  0  0  0  0  0  0  0  0  0  0  0
    6.2400   -2.1470   30.0860 N   0  0  0  0  0  0  0  0  0  0  0  0
    6.1700   -2.1990   28.6690 C   0  0  0  0  0  0  0  0  0  0  0  0
    6.1860   -1.0530   27.9060 C   0  0  0  0  0  0  0  0  0  0  0  0
    7.5280   -3.1710   23.7210 C   0  0  0  0  0  0  0  0  0  0  0  0
    7.6750   -3.1500   22.2380 C   0  0  0  0  0  0  0  0  0  0  0  0
  1  2  1  0
  2  3  2  0
  2  4  1  0
  4  5  1  0
  5  6  1  0
  6  7  1  0
  7  8  1  0
  8  9  2  0
  8 10  1  0
 10 11  1  0
 11 12  2  0
 12 13  1  0
 13 14  2  0
 14 15  1  0
 15 16  1  0
 16 17  1  0
 17 18  1  0
 18 19  1  0
 18 20  1  0
 15 21  1  0
 20 21  1  0
 14 22  1  0
 22 23  1  0
 23 24  2  0
 24 25  1  0
 25 26  2  0
 11 27  1  0
 22 27  2  0
 26 27  1  0
  7 28  1  0
  4 29  1  0
 28 29  1  0
M  END
