piperidine-amides-29750-covalent
     RDKit          3D

 27 29  0  0  0  0  0  0  0  0999 V2000
    7.1200   -3.3140   19.2290 C   0  0  0  0  0  0  0  0  0  0  0  0
    6.3400   -4.0520   20.2130 C   0  0  0  0  0  0  0  0  0  0  0  0
    5.2700   -4.5590   19.8890 O   0  0  0  0  0  0  0  0  0  0  0  0
    6.8470   -4.2410   21.5370 N   0  0  0  0  0  0  0  0  0  0  0  0
    7.6800   -3.2430   22.1530 C   0  0  0  0  0  0  0  0  0  0  0  0
    6.9930   -2.6830   23.3600 C   0  0  0  0  0  0  0  0  0  0  0  0
    6.5690   -3.8330   24.2610 C   0  0  0  0  0  0  0  0  0  0  0  0
    5.7170   -3.2920   25.3500 C   0  0  0  0  0  0  0  0  0  0  0  0
    4.4790   -3.1740   25.2300 O   0  0  0  0  0  0  0  0  0  0  0  0
    6.3290   -2.9080   26.5640 N   0  0  0  0  0  0  0  0  0  0  0  0
    7.1000   -1.6920   26.5690 C   0  0  0  0  0  0  0  0  0  0  0  0
    6.1850   -0.4890   26.4650 C   0  0  0  0  0  0  0  0  0  0  0  0
    4.9840   -0.2970   27.1930 N   0  0  0  0  0  0  0  0  0  0  0  0
    4.4610    0.8830   26.8340 N   0  0  0  0  0  0  0  0  0  0  0  0
    5.3510    1.3930   25.8960 C   0  0  0  0  0  0  0  0  0  0  0  0
    5.1770    2.6120   25.2740 C   0  0  0  0  0  0  0  0  0  0  0  0
    6.1520    2.9860   24.3690 C   0  0  0  0  0  0  0  0  0  0  0  0
    7.2770    2.0570   24.1450 C   0  0  0  0  0  0  0  0  0  0  0  0
    7.4490    0.8190   24.7710 C   0  0  0  0  0  0  0  0  0  0  0  0
    6.3500    0.6110   25.6720 N   0  0  0  0  0  0  0  0  0  0  0  0
    6.7240   -3.9130   27.5190 C   0  0  1  0  0  0  0  0  0  0  0  0
    6.2210   -5.2120   27.6360 C   0  0  0  0  0  0  0  0  0  0  0  0
    7.4300   -5.0070   26.8890 C   0  0  0  0  0  0  0  0  0  0  0  0
    8.2750   -5.6630   27.7210 C   0  0  0  0  0  0  0  0  0  0  0  0
    9.4450   -5.9440   27.0830 C   0  0  0  0  0  0  0  0  0  0  0  0
    5.7380   -4.8700   23.5200 C   0  0  0  0  0  0  0  0  0  0  0  0
    6.5120   -5.3990   22.3090 C   0  0  0  0  0  0  0  0  0  0  0  0
  1  2  1  0
  2  3  2  0
  2  4  1  0
  4  5  1  0
  5  6  1  0
  6  7  1  0
  7  8  1  0
  8  9  2  0
  8 10  1  0
 10 11  1  0
 11 12  1  0
 12 13  2  0
 13 14  1  0
 14 15  2  0
 15 16  1  0
 16 17  2  0
 17 18  1  0
 18 19  2  0
 12 20  1  0
 15 20  1  0
 19 20  1  0
 10 21  1  0
 21 22  1  6
 21 23  1  0
 23 24  1  0
 24 25  1  0
  7 26  1  0
  4 27  1  0
 26 27  1  0
M  END
