piperidine-amides-5479-covalent
     RDKit          3D

 20 21  0  0  0  0  0  0  0  0999 V2000
    7.0880   -3.3040   19.2740 C   0  0  0  0  0  0  0  0  0  0  0  0
    6.2800   -4.0390   20.2510 C   0  0  0  0  0  0  0  0  0  0  0  0
    5.2380   -4.5990   19.8870 O   0  0  0  0  0  0  0  0  0  0  0  0
    6.6800   -4.1620   21.5820 N   0  0  0  0  0  0  0  0  0  0  0  0
    7.5710   -3.2080   22.1920 C   0  0  0  0  0  0  0  0  0  0  0  0
    7.2950   -3.2920   23.6590 C   0  0  0  0  0  0  0  0  0  0  0  0
    5.9150   -3.7530   23.9730 C   0  0  0  0  0  0  0  0  0  0  0  0
    5.6050   -3.5870   25.4150 C   0  0  0  0  0  0  0  0  0  0  0  0
    4.4080   -3.4290   25.7880 O   0  0  0  0  0  0  0  0  0  0  0  0
    6.6060   -3.5590   26.4190 N   0  0  0  0  0  0  0  0  0  0  0  0
    6.6870   -4.5440   27.5450 C   0  0  2  0  0  0  0  0  0  0  0  0
    7.5680   -5.6730   27.1700 C   0  0  0  0  0  0  0  0  0  0  0  0
    5.3500   -5.2010   27.9090 C   0  0  0  0  0  0  0  0  0  0  0  0
    4.7640   -4.4530   29.0570 C   0  0  0  0  0  0  0  0  0  0  0  0
    3.4260   -4.9700   29.5700 C   0  0  0  0  0  0  0  0  0  0  0  0
    2.8110   -6.1580   28.9100 N   0  0  0  0  0  0  0  0  0  0  0  0
    3.5430   -6.7610   27.7910 C   0  0  0  0  0  0  0  0  0  0  0  0
    4.7360   -6.2830   27.3470 C   0  0  0  0  0  0  0  0  0  0  0  0
    5.7150   -5.1850   23.5410 C   0  0  0  0  0  0  0  0  0  0  0  0
    6.5100   -5.4290   22.2690 C   0  0  0  0  0  0  0  0  0  0  0  0
  1  2  1  0
  2  3  2  0
  2  4  1  0
  4  5  1  0
  5  6  1  0
  6  7  1  0
  7  8  1  0
  8  9  2  0
  8 10  1  0
 10 11  1  0
 11 12  1  6
 11 13  1  0
 13 14  2  0
 14 15  1  0
 15 16  2  0
 16 17  1  0
 13 18  1  0
 17 18  2  0
  7 19  1  0
  4 20  1  0
 19 20  1  0
M  END
