piperidine-amides-32435-covalent
     RDKit          3D

 29 32  0  0  0  0  0  0  0  0999 V2000
    7.0300   -3.3630   19.4250 C   0  0  0  0  0  0  0  0  0  0  0  0
    6.3590   -4.2690   20.4000 C   0  0  0  0  0  0  0  0  0  0  0  0
    5.3870   -4.9320   20.0020 O   0  0  0  0  0  0  0  0  0  0  0  0
    6.8550   -4.4000   21.7290 N   0  0  0  0  0  0  0  0  0  0  0  0
    6.6390   -5.6260   22.4770 C   0  0  0  0  0  0  0  0  0  0  0  0
    6.2560   -5.2850   23.9390 C   0  0  0  0  0  0  0  0  0  0  0  0
    6.1330   -3.8060   24.0280 C   0  0  0  0  0  0  0  0  0  0  0  0
    5.7020   -3.1810   25.3210 C   0  0  0  0  0  0  0  0  0  0  0  0
    5.3260   -2.0180   25.1980 O   0  0  0  0  0  0  0  0  0  0  0  0
    5.6470   -3.8000   26.5860 N   0  0  0  0  0  0  0  0  0  0  0  0
    4.5950   -3.5260   27.5130 C   0  0  0  0  0  0  0  0  0  0  0  0
    4.6060   -3.8710   28.8540 C   0  0  0  0  0  0  0  0  0  0  0  0
    5.2050   -5.1720   28.9130 N   0  0  0  0  0  0  0  0  0  0  0  0
    4.5820   -6.2810   28.3710 C   0  0  0  0  0  0  0  0  0  0  0  0
    4.0920   -7.0080   29.4060 C   0  0  0  0  0  0  0  0  0  0  0  0
    4.7660   -7.4470   30.6330 C   0  0  0  0  0  0  0  0  0  0  0  0
    3.9010   -8.1300   31.3310 O   0  0  0  0  0  0  0  0  0  0  0  0
    2.7070   -8.1820   30.7000 C   0  0  0  0  0  0  0  0  0  0  0  0
    1.5710   -8.9470   31.3780 C   0  0  0  0  0  0  0  0  0  0  0  0
    0.7700   -9.7130   30.6320 C   0  0  0  0  0  0  0  0  0  0  0  0
   -0.3490  -10.5140   31.0840 C   0  0  0  0  0  0  0  0  0  0  0  0
   -0.4630  -10.3250   32.6040 C   0  0  0  0  0  0  0  0  0  0  0  0
    0.2170   -9.6060   33.6050 C   0  0  0  0  0  0  0  0  0  0  0  0
    1.3020   -8.9150   32.7110 C   0  0  0  0  0  0  0  0  0  0  0  0
    2.7530   -7.5180   29.5220 N   0  0  0  0  0  0  0  0  0  0  0  0
    6.5200   -5.1410   28.3830 C   0  0  0  0  0  0  0  0  0  0  0  0
    6.4070   -3.7280   27.7910 C   0  0  0  0  0  0  0  0  0  0  0  0
    7.4090   -3.1060   23.6260 C   0  0  0  0  0  0  0  0  0  0  0  0
    7.5990   -3.3010   22.2700 C   0  0  0  0  0  0  0  0  0  0  0  0
  1  2  1  0
  2  3  2  0
  2  4  1  0
  4  5  1  0
  5  6  1  0
  6  7  1  0
  7  8  1  0
  8  9  2  0
  8 10  1  0
 10 11  1  0
 11 12  1  0
 12 13  1  0
 13 14  1  0
 14 15  1  0
 15 16  2  0
 16 17  1  0
 17 18  1  0
 18 19  1  0
 19 20  2  0
 20 21  1  0
 21 22  2  0
 22 23  1  0
 19 24  1  0
 23 24  2  0
 15 25  1  0
 18 25  2  0
 13 26  1  0
 10 27  1  0
 26 27  1  0
  7 28  1  0
  4 29  1  0
 28 29  1  0
M  END
