piperidine-amides-12612-covalent
     RDKit          3D

 23 25  0  0  0  0  0  0  0  0999 V2000
    7.0930   -3.2880   19.2270 C   0  0  0  0  0  0  0  0  0  0  0  0
    6.3700   -4.0820   20.2460 C   0  0  0  0  0  0  0  0  0  0  0  0
    5.2930   -4.6000   19.8960 O   0  0  0  0  0  0  0  0  0  0  0  0
    6.9130   -4.2800   21.5190 N   0  0  0  0  0  0  0  0  0  0  0  0
    7.6300   -3.2160   22.1490 C   0  0  0  0  0  0  0  0  0  0  0  0
    7.0910   -2.7950   23.4360 C   0  0  0  0  0  0  0  0  0  0  0  0
    6.4960   -3.8850   24.2270 C   0  0  0  0  0  0  0  0  0  0  0  0
    5.7290   -3.3310   25.3670 C   0  0  0  0  0  0  0  0  0  0  0  0
    4.5220   -3.0740   25.1990 O   0  0  0  0  0  0  0  0  0  0  0  0
    6.3390   -3.0980   26.6120 N   0  0  0  0  0  0  0  0  0  0  0  0
    6.3630   -1.7690   27.2650 C   0  0  0  0  0  0  0  0  0  0  0  0
    5.7150   -0.5370   26.7390 C   0  0  0  0  0  0  0  0  0  0  0  0
    5.7640    0.7490   27.4320 C   0  0  0  0  0  0  0  0  0  0  0  0
    6.4400    0.8520   28.6350 C   0  0  0  0  0  0  0  0  0  0  0  0
    6.5230    1.9110   29.2830 O   0  0  0  0  0  0  0  0  0  0  0  0
    6.2940    1.7490   30.5570 C   0  0  0  0  0  0  0  0  0  0  0  0
    5.5310    2.6630   31.2160 C   0  0  0  0  0  0  0  0  0  0  0  0
    5.7830    2.8230   32.3770 C   0  0  0  0  0  0  0  0  0  0  0  0
    4.5220    2.1960   32.1670 C   0  0  0  0  0  0  0  0  0  0  0  0
    7.0780   -0.2310   29.2080 C   0  0  0  0  0  0  0  0  0  0  0  0
    7.0840   -1.5680   28.5890 C   0  0  0  0  0  0  0  0  0  0  0  0
    5.6730   -4.8460   23.4490 C   0  0  0  0  0  0  0  0  0  0  0  0
    6.4940   -5.4020   22.3260 C   0  0  0  0  0  0  0  0  0  0  0  0
  1  2  1  0
  2  3  2  0
  2  4  1  0
  4  5  1  0
  5  6  1  0
  6  7  1  0
  7  8  1  0
  8  9  2  0
  8 10  1  0
 10 11  1  0
 11 12  2  0
 12 13  1  0
 13 14  2  0
 14 15  1  0
 15 16  1  0
 16 17  1  0
 17 18  1  0
 17 19  1  0
 18 19  1  0
 14 20  1  0
 11 21  1  0
 20 21  2  0
  7 22  1  0
  4 23  1  0
 22 23  1  0
M  END
