piperidine-amides-15151-covalent
     RDKit          3D

 21 22  0  0  0  0  0  0  0  0999 V2000
    7.0700   -3.3130   19.2920 C   0  0  0  0  0  0  0  0  0  0  0  0
    6.3710   -4.1330   20.2790 C   0  0  0  0  0  0  0  0  0  0  0  0
    5.3270   -4.7140   19.9380 O   0  0  0  0  0  0  0  0  0  0  0  0
    6.9110   -4.2960   21.5730 N   0  0  0  0  0  0  0  0  0  0  0  0
    6.5580   -5.4600   22.3330 C   0  0  0  0  0  0  0  0  0  0  0  0
    5.7530   -5.0260   23.5180 C   0  0  0  0  0  0  0  0  0  0  0  0
    6.5690   -3.9370   24.1660 C   0  0  0  0  0  0  0  0  0  0  0  0
    5.8090   -3.3280   25.3030 C   0  0  0  0  0  0  0  0  0  0  0  0
    4.5830   -3.4110   25.2460 O   0  0  0  0  0  0  0  0  0  0  0  0
    6.5230   -2.7170   26.3220 N   0  0  0  0  0  0  0  0  0  0  0  0
    5.8330   -2.0260   27.3550 C   0  0  1  0  0  0  0  0  0  0  0  0
    6.4320   -2.0880   28.6120 C   0  0  0  0  0  0  0  0  0  0  0  0
    6.5770   -0.8290   29.1230 C   0  0  0  0  0  0  0  0  0  0  0  0
    5.6880   -0.3310   30.0580 C   0  0  0  0  0  0  0  0  0  0  0  0
    7.9140   -0.7210   29.9150 C   0  0  0  0  0  0  0  0  0  0  0  0
    6.5210   -0.0180   27.9920 O   0  0  0  0  0  0  0  0  0  0  0  0
    5.7900   -0.6390   26.9560 C   0  0  0  0  0  0  0  0  0  0  0  0
    4.4140   -0.0950   26.8320 C   0  0  0  0  0  0  0  0  0  0  0  0
    6.4390   -0.2670   25.6520 C   0  0  0  0  0  0  0  0  0  0  0  0
    6.9950   -2.8330   23.3050 C   0  0  0  0  0  0  0  0  0  0  0  0
    7.7030   -3.2670   22.2180 C   0  0  0  0  0  0  0  0  0  0  0  0
  1  2  1  0
  2  3  2  0
  2  4  1  0
  4  5  1  0
  5  6  1  0
  6  7  1  0
  7  8  1  0
  8  9  2  0
  8 10  1  0
 11 10  1  6
 11 12  1  0
 12 13  1  0
 13 14  1  0
 13 15  1  0
 13 16  1  0
 11 17  1  0
 16 17  1  0
 17 18  1  0
 17 19  1  0
  7 20  1  0
  4 21  1  0
 20 21  1  0
M  END
