piperidine-amides-27643-covalent
     RDKit          3D

 26 28  0  0  0  0  0  0  0  0999 V2000
    7.0990   -3.3290   19.2410 C   0  0  0  0  0  0  0  0  0  0  0  0
    6.4140   -4.1370   20.2510 C   0  0  0  0  0  0  0  0  0  0  0  0
    5.3190   -4.6560   19.9210 O   0  0  0  0  0  0  0  0  0  0  0  0
    7.0070   -4.3470   21.4930 N   0  0  0  0  0  0  0  0  0  0  0  0
    6.6850   -5.5230   22.2590 C   0  0  0  0  0  0  0  0  0  0  0  0
    6.0060   -5.0810   23.5250 C   0  0  0  0  0  0  0  0  0  0  0  0
    6.7390   -3.9590   24.2170 C   0  0  0  0  0  0  0  0  0  0  0  0
    5.9590   -3.5440   25.3780 C   0  0  0  0  0  0  0  0  0  0  0  0
    4.9420   -2.8490   25.1860 O   0  0  0  0  0  0  0  0  0  0  0  0
    6.3240   -3.9200   26.6690 N   0  0  0  0  0  0  0  0  0  0  0  0
    6.9750   -5.1960   26.8590 C   0  0  0  0  0  0  0  0  0  0  0  0
    6.9330   -5.2700   28.3360 C   0  0  0  0  0  0  0  0  0  0  0  0
    6.1340   -4.2880   28.8120 C   0  0  0  0  0  0  0  0  0  0  0  0
    5.6990   -3.3570   27.8760 C   0  0  1  0  0  0  0  0  0  0  0  0
    6.0830   -2.0400   28.0700 C   0  0  0  0  0  0  0  0  0  0  0  0
    6.1920   -1.2640   26.9320 C   0  0  0  0  0  0  0  0  0  0  0  0
    4.1830   -3.3180   27.6630 C   0  0  0  0  0  0  0  0  0  0  0  0
    3.2770   -2.5760   28.6160 C   0  0  0  0  0  0  0  0  0  0  0  0
    2.1750   -2.1710   27.6330 C   0  0  0  0  0  0  0  0  0  0  0  0
    1.0490   -3.1340   27.3310 C   0  0  0  0  0  0  0  0  0  0  0  0
   -0.1050   -2.8580   26.3690 C   0  0  0  0  0  0  0  0  0  0  0  0
   -0.1570   -1.6420   25.7060 C   0  0  0  0  0  0  0  0  0  0  0  0
    0.9450   -0.6320   25.9650 C   0  0  0  0  0  0  0  0  0  0  0  0
    2.0580   -0.9900   26.9400 C   0  0  0  0  0  0  0  0  0  0  0  0
    7.0050   -2.8320   23.2940 C   0  0  0  0  0  0  0  0  0  0  0  0
    7.7100   -3.2510   22.0860 C   0  0  0  0  0  0  0  0  0  0  0  0
  1  2  1  0
  2  3  2  0
  2  4  1  0
  4  5  1  0
  5  6  1  0
  6  7  1  0
  7  8  1  0
  8  9  2  0
  8 10  1  0
 10 11  1  0
 11 12  1  0
 12 13  1  0
 10 14  1  0
 13 14  1  0
 14 15  1  1
 15 16  1  0
 14 17  1  0
 17 18  1  0
 18 19  1  0
 19 20  2  0
 20 21  1  0
 21 22  2  0
 22 23  1  0
 19 24  1  0
 23 24  2  0
  7 25  1  0
  4 26  1  0
 25 26  1  0
M  END
