piperidine-amides-1644-covalent
     RDKit          3D

 21 22  0  0  0  0  0  0  0  0999 V2000
    7.1520   -3.2700   19.2290 C   0  0  0  0  0  0  0  0  0  0  0  0
    6.3280   -4.0110   20.2170 C   0  0  0  0  0  0  0  0  0  0  0  0
    5.2410   -4.4950   19.8640 O   0  0  0  0  0  0  0  0  0  0  0  0
    6.8360   -4.1960   21.5140 N   0  0  0  0  0  0  0  0  0  0  0  0
    6.5760   -5.3980   22.2500 C   0  0  0  0  0  0  0  0  0  0  0  0
    5.7940   -4.9620   23.4900 C   0  0  0  0  0  0  0  0  0  0  0  0
    6.5680   -3.8630   24.1500 C   0  0  0  0  0  0  0  0  0  0  0  0
    5.8690   -3.3010   25.3280 C   0  0  0  0  0  0  0  0  0  0  0  0
    4.7350   -2.8420   25.1310 O   0  0  0  0  0  0  0  0  0  0  0  0
    6.4800   -3.3240   26.5840 N   0  0  0  0  0  0  0  0  0  0  0  0
    6.3400   -4.3250   27.5790 C   0  0  0  0  0  0  0  0  0  0  0  0
    6.0490   -5.6390   27.2970 C   0  0  2  0  0  0  0  0  0  0  0  0
    5.2760   -5.9290   26.1760 C   0  0  0  0  0  0  0  0  0  0  0  0
    5.4500   -6.3500   28.4780 C   0  0  0  0  0  0  0  0  0  0  0  0
    4.0180   -6.7390   28.3250 C   0  0  0  0  0  0  0  0  0  0  0  0
    3.2630   -7.4720   29.4410 C   0  0  0  0  0  0  0  0  0  0  0  0
    4.1340   -7.7310   30.6600 C   0  0  0  0  0  0  0  0  0  0  0  0
    5.4500   -7.3430   30.7280 C   0  0  0  0  0  0  0  0  0  0  0  0
    6.1400   -6.6360   29.6230 C   0  0  0  0  0  0  0  0  0  0  0  0
    6.9170   -2.7230   23.2370 C   0  0  0  0  0  0  0  0  0  0  0  0
    7.6270   -3.1960   22.1710 C   0  0  0  0  0  0  0  0  0  0  0  0
  1  2  1  0
  2  3  2  0
  2  4  1  0
  4  5  1  0
  5  6  1  0
  6  7  1  0
  7  8  1  0
  8  9  2  0
  8 10  1  0
 10 11  1  0
 11 12  1  0
 12 13  1  6
 12 14  1  0
 14 15  2  0
 15 16  1  0
 16 17  2  0
 17 18  1  0
 14 19  1  0
 18 19  2  0
  7 20  1  0
  4 21  1  0
 20 21  1  0
M  END
