piperidine-amides-10675-covalent
     RDKit          3D

 23 24  0  0  0  0  0  0  0  0999 V2000
    7.0680   -3.3470   19.2780 C   0  0  0  0  0  0  0  0  0  0  0  0
    6.4100   -4.1640   20.2970 C   0  0  0  0  0  0  0  0  0  0  0  0
    5.3610   -4.7720   19.9580 O   0  0  0  0  0  0  0  0  0  0  0  0
    6.9830   -4.2760   21.5640 N   0  0  0  0  0  0  0  0  0  0  0  0
    7.7320   -3.1960   22.1580 C   0  0  0  0  0  0  0  0  0  0  0  0
    6.9370   -2.6760   23.3130 C   0  0  0  0  0  0  0  0  0  0  0  0
    6.6190   -3.7780   24.2700 C   0  0  0  0  0  0  0  0  0  0  0  0
    5.8330   -3.2260   25.3930 C   0  0  0  0  0  0  0  0  0  0  0  0
    4.6520   -2.8810   25.1630 O   0  0  0  0  0  0  0  0  0  0  0  0
    6.3360   -3.0770   26.7020 N   0  0  0  0  0  0  0  0  0  0  0  0
    6.4000   -1.7820   27.3410 C   0  0  0  0  0  0  0  0  0  0  0  0
    5.8480   -0.5860   26.5880 C   0  0  0  0  0  0  0  0  0  0  0  0
    5.8920    0.6400   27.1870 C   0  0  0  0  0  0  0  0  0  0  0  0
    6.4400    0.7240   28.4510 C   0  0  0  0  0  0  0  0  0  0  0  0
    6.9630   -0.3380   29.1890 C   0  0  0  0  0  0  0  0  0  0  0  0
    7.4550   -0.0550   30.4080 N   0  0  0  0  0  0  0  0  0  0  0  0
    6.8230    0.7040   31.3210 C   0  0  0  0  0  0  0  0  0  0  0  0
    6.3600    2.0150   31.1400 O   0  0  0  0  0  0  0  0  0  0  0  0
    6.6650    0.1270   32.4280 O   0  0  0  0  0  0  0  0  0  0  0  0
    7.6870    0.2240   33.4040 C   0  0  0  0  0  0  0  0  0  0  0  0
    6.9410   -1.6020   28.6200 C   0  0  0  0  0  0  0  0  0  0  0  0
    5.8400   -4.8870   23.6330 C   0  0  0  0  0  0  0  0  0  0  0  0
    6.5100   -5.3930   22.3770 C   0  0  0  0  0  0  0  0  0  0  0  0
  1  2  1  0
  2  3  2  0
  2  4  1  0
  4  5  1  0
  5  6  1  0
  6  7  1  0
  7  8  1  0
  8  9  2  0
  8 10  1  0
 10 11  1  0
 11 12  2  0
 12 13  1  0
 13 14  2  0
 14 15  1  0
 15 16  1  0
 16 17  1  0
 17 18  2  0
 17 19  1  0
 19 20  1  0
 11 21  1  0
 15 21  2  0
  7 22  1  0
  4 23  1  0
 22 23  1  0
M  END
