piperidine-amides-31400-covalent
     RDKit          3D

 26 28  0  0  0  0  0  0  0  0999 V2000
    7.0420   -3.4230   19.3880 C   0  0  0  0  0  0  0  0  0  0  0  0
    6.4100   -4.2550   20.3860 C   0  0  0  0  0  0  0  0  0  0  0  0
    5.3850   -4.9070   20.0050 O   0  0  0  0  0  0  0  0  0  0  0  0
    6.8960   -4.4310   21.7090 N   0  0  0  0  0  0  0  0  0  0  0  0
    6.4270   -5.5930   22.4750 C   0  0  0  0  0  0  0  0  0  0  0  0
    5.4160   -4.8410   23.4230 C   0  0  0  0  0  0  0  0  0  0  0  0
    6.2610   -3.9430   24.3000 C   0  0  0  0  0  0  0  0  0  0  0  0
    5.3900   -3.0620   25.3110 C   0  0  0  0  0  0  0  0  0  0  0  0
    5.0270   -2.0620   24.7300 O   0  0  0  0  0  0  0  0  0  0  0  0
    5.2370   -3.5730   26.4740 N   0  0  0  0  0  0  0  0  0  0  0  0
    4.6190   -4.0490   27.5700 C   0  0  0  0  0  0  0  0  0  0  0  0
    4.6230   -3.7500   28.8990 C   0  0  0  0  0  0  0  0  0  0  0  0
    5.6730   -4.5660   29.4530 N   0  0  0  0  0  0  0  0  0  0  0  0
    5.4500   -5.8370   29.8470 C   0  0  0  0  0  0  0  0  0  0  0  0
    6.2890   -6.8050   30.4110 O   0  0  0  0  0  0  0  0  0  0  0  0
    4.0430   -6.2730   29.6550 C   0  0  2  0  0  0  0  0  0  0  0  0
    3.5500   -5.3150   30.8050 C   0  0  0  0  0  0  0  0  0  0  0  0
    3.8530   -6.1310   31.9080 C   0  0  0  0  0  0  0  0  0  0  0  0
    3.1380   -7.7240   31.5840 S   0  0  0  0  0  0  0  0  0  0  0  0
    1.6430   -7.7180   31.6540 O   0  0  0  0  0  0  0  0  0  0  0  0
    3.7370   -8.7630   32.4810 O   0  0  0  0  0  0  0  0  0  0  0  0
    3.6680   -7.7290   29.8890 C   0  0  0  0  0  0  0  0  0  0  0  0
    6.6990   -4.6000   28.4490 C   0  0  0  0  0  0  0  0  0  0  0  0
    6.3520   -3.5070   27.3420 C   0  0  0  0  0  0  0  0  0  0  0  0
    7.1280   -2.9520   23.4850 C   0  0  0  0  0  0  0  0  0  0  0  0
    7.7660   -3.4890   22.3960 C   0  0  0  0  0  0  0  0  0  0  0  0
  1  2  1  0
  2  3  2  0
  2  4  1  0
  4  5  1  0
  5  6  1  0
  6  7  1  0
  7  8  1  0
  8  9  2  0
  8 10  1  0
 10 11  1  0
 11 12  1  0
 12 13  1  0
 13 14  1  0
 14 15  2  0
 16 14  1  1
 16 17  1  0
 17 18  1  0
 19 18  1  0
 19 20  2  0
 19 21  2  0
 16 22  1  0
 19 22  1  0
 13 23  1  0
 10 24  1  0
 23 24  1  0
  7 25  1  0
  4 26  1  0
 25 26  1  0
M  END
