piperidine-amides-12686-covalent
     RDKit          3D

 22 24  0  0  0  0  0  0  0  0999 V2000
    7.0950   -3.2860   19.1650 C   0  0  0  0  0  0  0  0  0  0  0  0
    6.3400   -4.0260   20.2100 C   0  0  0  0  0  0  0  0  0  0  0  0
    5.2570   -4.5240   19.8580 O   0  0  0  0  0  0  0  0  0  0  0  0
    6.8380   -4.2080   21.5070 N   0  0  0  0  0  0  0  0  0  0  0  0
    6.3730   -5.3020   22.2980 C   0  0  0  0  0  0  0  0  0  0  0  0
    5.9930   -4.9250   23.6670 C   0  0  0  0  0  0  0  0  0  0  0  0
    6.7890   -3.7970   24.2190 C   0  0  0  0  0  0  0  0  0  0  0  0
    6.2280   -3.2860   25.4900 C   0  0  0  0  0  0  0  0  0  0  0  0
    4.9880   -3.3030   25.6510 O   0  0  0  0  0  0  0  0  0  0  0  0
    7.1040   -2.7620   26.4630 N   0  0  0  0  0  0  0  0  0  0  0  0
    7.1830   -3.1890   27.8830 C   0  0  0  0  0  0  0  0  0  0  0  0
    6.8890   -4.6240   28.1400 C   0  0  0  0  0  0  0  0  0  0  0  0
    7.9230   -5.5930   28.0870 N   0  0  0  0  0  0  0  0  0  0  0  0
    7.3670   -6.6750   28.3490 N   0  0  0  0  0  0  0  0  0  0  0  0
    5.9990   -6.4950   28.5790 C   0  0  0  0  0  0  0  0  0  0  0  0
    5.5190   -5.2010   28.4780 C   0  0  0  0  0  0  0  0  0  0  0  0
    4.2590   -4.6940   28.6400 C   0  0  0  0  0  0  0  0  0  0  0  0
    3.5340   -5.6920   29.0730 O   0  0  0  0  0  0  0  0  0  0  0  0
    3.9950   -6.9260   29.5510 C   0  0  0  0  0  0  0  0  0  0  0  0
    5.0840   -7.4610   28.8920 C   0  0  0  0  0  0  0  0  0  0  0  0
    7.0510   -2.6950   23.2680 C   0  0  0  0  0  0  0  0  0  0  0  0
    7.6730   -3.2040   22.1310 C   0  0  0  0  0  0  0  0  0  0  0  0
  1  2  1  0
  2  3  2  0
  2  4  1  0
  4  5  1  0
  5  6  1  0
  6  7  1  0
  7  8  1  0
  8  9  2  0
  8 10  1  0
 10 11  1  0
 11 12  1  0
 12 13  1  0
 13 14  1  0
 14 15  2  0
 12 16  2  0
 15 16  1  0
 16 17  1  0
 17 18  1  0
 18 19  1  0
 15 20  1  0
 19 20  1  0
  7 21  1  0
  4 22  1  0
 21 22  1  0
M  END
