piperidine-amides-23782-covalent
     RDKit          3D

 24 26  0  0  0  0  0  0  0  0999 V2000
    7.0980   -3.3240   19.2810 C   0  0  0  0  0  0  0  0  0  0  0  0
    6.4080   -4.1370   20.2950 C   0  0  0  0  0  0  0  0  0  0  0  0
    5.3470   -4.7090   19.9450 O   0  0  0  0  0  0  0  0  0  0  0  0
    6.9650   -4.3090   21.5880 N   0  0  0  0  0  0  0  0  0  0  0  0
    6.5130   -5.3820   22.3990 C   0  0  0  0  0  0  0  0  0  0  0  0
    6.1740   -4.9950   23.7690 C   0  0  0  0  0  0  0  0  0  0  0  0
    6.7120   -3.6910   24.2290 C   0  0  0  0  0  0  0  0  0  0  0  0
    5.8490   -3.1170   25.3070 C   0  0  0  0  0  0  0  0  0  0  0  0
    4.7350   -2.6510   24.9990 O   0  0  0  0  0  0  0  0  0  0  0  0
    6.2420   -3.1040   26.6570 N   0  0  0  0  0  0  0  0  0  0  0  0
    5.8860   -4.1190   27.5800 C   0  0  0  0  0  0  0  0  0  0  0  0
    4.4690   -4.3270   27.8800 C   0  0  0  0  0  0  0  0  0  0  0  0
    4.0430   -3.4170   28.9920 C   0  0  0  0  0  0  0  0  0  0  0  0
    3.8050   -4.7820   29.1330 C   0  0  0  0  0  0  0  0  0  0  0  0
    6.3630   -1.7850   27.3130 C   0  0  0  0  0  0  0  0  0  0  0  0
    5.7690   -0.7020   26.4260 C   0  0  0  0  0  0  0  0  0  0  0  0
    5.9170    0.6270   27.1870 C   0  0  0  0  0  0  0  0  0  0  0  0
    6.5270    0.8180   28.5350 C   0  0  0  0  0  0  0  0  0  0  0  0
    6.5930    2.2060   29.1470 C   0  0  0  0  0  0  0  0  0  0  0  0
    7.0680   -0.3530   29.2710 C   0  0  0  0  0  0  0  0  0  0  0  0
    7.6240   -0.1460   30.5170 F   0  0  0  0  0  0  0  0  0  0  0  0
    6.9580   -1.6620   28.5950 C   0  0  0  0  0  0  0  0  0  0  0  0
    6.9150   -2.6900   23.1540 C   0  0  0  0  0  0  0  0  0  0  0  0
    7.7170   -3.2390   22.1850 C   0  0  0  0  0  0  0  0  0  0  0  0
  1  2  1  0
  2  3  2  0
  2  4  1  0
  4  5  1  0
  5  6  1  0
  6  7  1  0
  7  8  1  0
  8  9  2  0
  8 10  1  0
 10 11  1  0
 11 12  1  0
 12 13  1  0
 12 14  1  0
 13 14  1  0
 10 15  1  0
 15 16  2  0
 16 17  1  0
 17 18  2  0
 18 19  1  0
 18 20  1  0
 20 21  1  0
 15 22  1  0
 20 22  2  0
  7 23  1  0
  4 24  1  0
 23 24  1  0
M  END
