piperidine-amides-29487-covalent
     RDKit          3D

 27 30  0  0  0  0  0  0  0  0999 V2000
    7.0620   -3.3440   19.3440 C   0  0  0  0  0  0  0  0  0  0  0  0
    6.3850   -4.2060   20.3070 C   0  0  0  0  0  0  0  0  0  0  0  0
    5.3720   -4.8180   19.9750 O   0  0  0  0  0  0  0  0  0  0  0  0
    6.9360   -4.3810   21.6210 N   0  0  0  0  0  0  0  0  0  0  0  0
    7.6350   -3.3010   22.2630 C   0  0  0  0  0  0  0  0  0  0  0  0
    6.8420   -2.8340   23.4470 C   0  0  0  0  0  0  0  0  0  0  0  0
    6.5260   -4.0510   24.3060 C   0  0  0  0  0  0  0  0  0  0  0  0
    5.6020   -3.6630   25.4180 C   0  0  0  0  0  0  0  0  0  0  0  0
    4.5040   -3.1170   25.2380 O   0  0  0  0  0  0  0  0  0  0  0  0
    5.9570   -3.9360   26.7510 N   0  0  0  0  0  0  0  0  0  0  0  0
    7.1230   -4.6890   26.9860 C   0  0  0  0  0  0  0  0  0  0  0  0
    6.7690   -6.0700   27.2730 C   0  0  0  0  0  0  0  0  0  0  0  0
    5.4490   -6.4130   27.1230 C   0  0  0  0  0  0  0  0  0  0  0  0
    4.6170   -5.4610   27.7850 N   0  0  0  0  0  0  0  0  0  0  0  0
    4.2770   -5.9170   29.1420 C   0  0  0  0  0  0  0  0  0  0  0  0
    4.4590   -6.1950   30.5080 O   0  0  0  0  0  0  0  0  0  0  0  0
    5.5910   -5.5140   29.3150 C   0  0  0  0  0  0  0  0  0  0  0  0
    5.5970   -4.1470   28.9290 C   0  0  0  0  0  0  0  0  0  0  0  0
    4.9730   -4.0270   27.7590 C   0  0  1  0  0  0  0  0  0  0  0  0
    3.7960   -3.3060   27.6660 C   0  0  0  0  0  0  0  0  0  0  0  0
    3.6730   -2.0040   28.1600 C   0  0  0  0  0  0  0  0  0  0  0  0
    2.4270   -1.2370   28.0630 C   0  0  0  0  0  0  0  0  0  0  0  0
    1.2950   -1.7530   27.4770 C   0  0  0  0  0  0  0  0  0  0  0  0
    1.4000   -3.0410   26.9840 C   0  0  0  0  0  0  0  0  0  0  0  0
    2.6750   -3.8190   27.0850 C   0  0  0  0  0  0  0  0  0  0  0  0
    5.8220   -5.1580   23.5710 C   0  0  0  0  0  0  0  0  0  0  0  0
    6.6520   -5.5640   22.3730 C   0  0  0  0  0  0  0  0  0  0  0  0
  1  2  1  0
  2  3  2  0
  2  4  1  0
  4  5  1  0
  5  6  1  0
  6  7  1  0
  7  8  1  0
  8  9  2  0
  8 10  1  0
 10 11  1  0
 11 12  1  0
 12 13  1  0
 13 14  1  0
 14 15  1  0
 15 16  2  0
 15 17  1  0
 17 18  1  0
 10 19  1  0
 14 19  1  0
 18 19  1  0
 19 20  1  1
 20 21  2  0
 21 22  1  0
 22 23  2  0
 23 24  1  0
 20 25  1  0
 24 25  2  0
  7 26  1  0
  4 27  1  0
 26 27  1  0
M  END
