piperidine-amides-14923-covalent
     RDKit          3D

 21 22  0  0  0  0  0  0  0  0999 V2000
    7.1020   -3.3010   19.2630 C   0  0  0  0  0  0  0  0  0  0  0  0
    6.4000   -4.1060   20.2580 C   0  0  0  0  0  0  0  0  0  0  0  0
    5.3330   -4.6550   19.9280 O   0  0  0  0  0  0  0  0  0  0  0  0
    6.9650   -4.2900   21.5440 N   0  0  0  0  0  0  0  0  0  0  0  0
    7.6420   -3.1610   22.1350 C   0  0  0  0  0  0  0  0  0  0  0  0
    7.4390   -3.0870   23.6270 C   0  0  0  0  0  0  0  0  0  0  0  0
    6.0460   -3.6020   23.9290 C   0  0  0  0  0  0  0  0  0  0  0  0
    5.5980   -3.2460   25.3070 C   0  0  0  0  0  0  0  0  0  0  0  0
    4.3910   -3.3160   25.5160 O   0  0  0  0  0  0  0  0  0  0  0  0
    6.5480   -2.8660   26.2380 N   0  0  0  0  0  0  0  0  0  0  0  0
    6.4220   -1.6550   26.9710 C   0  0  0  0  0  0  0  0  0  0  0  0
    6.3520   -1.8110   28.3640 C   0  0  0  0  0  0  0  0  0  0  0  0
    5.0970   -1.9150   28.8780 C   0  0  0  0  0  0  0  0  0  0  0  0
    4.3860   -0.7730   29.1850 C   0  0  0  0  0  0  0  0  0  0  0  0
    5.0780   -0.2790   30.4210 C   0  0  0  0  0  0  0  0  0  0  0  0
    4.5270   -0.9000   31.4920 F   0  0  0  0  0  0  0  0  0  0  0  0
    4.6370    1.0390   30.4900 F   0  0  0  0  0  0  0  0  0  0  0  0
    6.6210   -0.4290   30.3530 C   0  0  0  0  0  0  0  0  0  0  0  0
    7.0890   -0.8400   28.9990 C   0  0  0  0  0  0  0  0  0  0  0  0
    5.9940   -5.0480   23.6420 C   0  0  0  0  0  0  0  0  0  0  0  0
    6.5790   -5.4630   22.2900 C   0  0  0  0  0  0  0  0  0  0  0  0
  1  2  1  0
  2  3  2  0
  2  4  1  0
  4  5  1  0
  5  6  1  0
  6  7  1  0
  7  8  1  0
  8  9  2  0
  8 10  1  0
 10 11  1  0
 11 12  1  0
 12 13  1  0
 13 14  1  0
 14 15  1  0
 15 16  1  0
 15 17  1  0
 15 18  1  0
 12 19  1  0
 18 19  1  0
  7 20  1  0
  4 21  1  0
 20 21  1  0
M  END
