piperidine-amides-31423-covalent
     RDKit          3D

 28 30  0  0  0  0  0  0  0  0999 V2000
    7.0840   -3.3160   19.4410 C   0  0  0  0  0  0  0  0  0  0  0  0
    6.3630   -4.1280   20.4010 C   0  0  0  0  0  0  0  0  0  0  0  0
    5.4140   -4.8680   19.9830 O   0  0  0  0  0  0  0  0  0  0  0  0
    6.6870   -4.1540   21.7760 N   0  0  0  0  0  0  0  0  0  0  0  0
    7.7080   -3.1560   22.2270 C   0  0  0  0  0  0  0  0  0  0  0  0
    7.3190   -2.7260   23.7160 C   0  0  0  0  0  0  0  0  0  0  0  0
    6.0440   -3.4360   24.1070 C   0  0  0  0  0  0  0  0  0  0  0  0
    5.2670   -2.7830   25.3650 C   0  0  0  0  0  0  0  0  0  0  0  0
    4.1550   -2.4690   24.9840 O   0  0  0  0  0  0  0  0  0  0  0  0
    5.9530   -2.7520   26.4660 N   0  0  0  0  0  0  0  0  0  0  0  0
    6.5830   -3.1240   27.6030 C   0  0  0  0  0  0  0  0  0  0  0  0
    7.8680   -3.2120   27.9840 C   0  0  0  0  0  0  0  0  0  0  0  0
    8.5320   -2.2990   28.8110 O   0  0  0  0  0  0  0  0  0  0  0  0
    8.3380   -4.3690   27.3650 N   0  0  0  0  0  0  0  0  0  0  0  0
    7.7490   -4.6470   26.2070 C   0  0  0  0  0  0  0  0  0  0  0  0
    8.8740   -4.7210   25.2770 C   0  0  0  0  0  0  0  0  0  0  0  0
    9.6330   -5.8410   26.0410 C   0  0  0  0  0  0  0  0  0  0  0  0
    8.6520   -6.2470   26.8930 C   0  0  0  0  0  0  0  0  0  0  0  0
    8.6430   -5.5360   28.0330 C   0  0  0  0  0  0  0  0  0  0  0  0
    6.0900   -1.4370   27.0370 C   0  0  0  0  0  0  0  0  0  0  0  0
    6.5750   -1.2750   28.5110 C   0  0  0  0  0  0  0  0  0  0  0  0
    6.7010   -0.0480   29.0520 C   0  0  0  0  0  0  0  0  0  0  0  0
    6.4000    1.0610   28.3090 C   0  0  0  0  0  0  0  0  0  0  0  0
    5.9690    0.9600   27.0080 C   0  0  0  0  0  0  0  0  0  0  0  0
    5.6990    2.1360   26.3570 C   0  0  0  0  0  0  0  0  0  0  0  0
    5.8130   -0.2670   26.3670 C   0  0  0  0  0  0  0  0  0  0  0  0
    5.9790   -4.9150   23.9240 C   0  0  0  0  0  0  0  0  0  0  0  0
    6.5260   -5.3240   22.5930 C   0  0  0  0  0  0  0  0  0  0  0  0
  1  2  1  0
  2  3  2  0
  2  4  1  0
  4  5  1  0
  5  6  1  0
  6  7  1  0
  7  8  1  0
  8  9  2  0
  8 10  1  0
 10 11  1  0
 11 12  1  0
 12 13  2  0
 12 14  1  0
 14 15  1  0
 15 16  1  0
 16 17  1  0
 17 18  1  0
 14 19  1  0
 18 19  1  0
 10 20  1  0
 20 21  2  0
 21 22  1  0
 22 23  2  0
 23 24  1  0
 24 25  1  0
 20 26  1  0
 24 26  2  0
  7 27  1  0
  4 28  1  0
 27 28  1  0
M  END
