piperidine-amides-3159-covalent
     RDKit          3D

 22 23  0  0  0  0  0  0  0  0999 V2000
    7.0490   -3.2940   19.2260 C   0  0  0  0  0  0  0  0  0  0  0  0
    6.3150   -4.0480   20.2410 C   0  0  0  0  0  0  0  0  0  0  0  0
    5.2970   -4.6500   19.9200 O   0  0  0  0  0  0  0  0  0  0  0  0
    6.7880   -4.1370   21.5990 N   0  0  0  0  0  0  0  0  0  0  0  0
    7.6550   -3.1100   22.1270 C   0  0  0  0  0  0  0  0  0  0  0  0
    7.4010   -2.9530   23.5920 C   0  0  0  0  0  0  0  0  0  0  0  0
    6.0740   -3.6300   23.8610 C   0  0  0  0  0  0  0  0  0  0  0  0
    5.5910   -3.3240   25.2390 C   0  0  0  0  0  0  0  0  0  0  0  0
    4.3940   -3.0920   25.4830 O   0  0  0  0  0  0  0  0  0  0  0  0
    6.5320   -3.2880   26.2880 N   0  0  0  0  0  0  0  0  0  0  0  0
    6.1300   -3.5580   27.6550 C   0  0  0  0  0  0  0  0  0  0  0  0
    5.8560   -5.0370   27.8600 C   0  0  0  0  0  0  0  0  0  0  0  0
    5.8200   -5.9820   26.8640 C   0  0  0  0  0  0  0  0  0  0  0  0
    6.8390   -5.5430   28.9250 C   0  0  0  0  0  0  0  0  0  0  0  0
    4.4500   -5.0880   28.5710 C   0  0  0  0  0  0  0  0  0  0  0  0
    4.1920   -4.0340   29.4550 N   0  0  0  0  0  0  0  0  0  0  0  0
    2.9170   -4.3380   29.9380 C   0  0  0  0  0  0  0  0  0  0  0  0
    2.3210   -3.5060   30.8570 C   0  0  0  0  0  0  0  0  0  0  0  0
    2.4960   -5.4860   29.3510 N   0  0  0  0  0  0  0  0  0  0  0  0
    3.4870   -5.8970   28.5200 O   0  0  0  0  0  0  0  0  0  0  0  0
    6.2800   -5.1290   23.6810 C   0  0  0  0  0  0  0  0  0  0  0  0
    6.4630   -5.3650   22.3080 C   0  0  0  0  0  0  0  0  0  0  0  0
  1  2  1  0
  2  3  2  0
  2  4  1  0
  4  5  1  0
  5  6  1  0
  6  7  1  0
  7  8  1  0
  8  9  2  0
  8 10  1  0
 10 11  1  0
 12 11  1  0
 12 13  1  0
 12 14  1  0
 12 15  1  0
 15 16  2  0
 16 17  1  0
 17 18  1  0
 17 19  2  0
 15 20  1  0
 19 20  1  0
  7 21  1  0
  4 22  1  0
 21 22  1  0
M  END
