piperidine-amides-27296-covalent
     RDKit          3D

 25 26  0  0  0  0  0  0  0  0999 V2000
    7.0630   -3.3250   19.3230 C   0  0  0  0  0  0  0  0  0  0  0  0
    6.3760   -4.1520   20.3180 C   0  0  0  0  0  0  0  0  0  0  0  0
    5.3200   -4.7200   19.9420 O   0  0  0  0  0  0  0  0  0  0  0  0
    6.9150   -4.3300   21.5980 N   0  0  0  0  0  0  0  0  0  0  0  0
    6.6360   -5.5300   22.3470 C   0  0  0  0  0  0  0  0  0  0  0  0
    5.9900   -5.1280   23.6450 C   0  0  0  0  0  0  0  0  0  0  0  0
    6.7050   -3.9680   24.2930 C   0  0  0  0  0  0  0  0  0  0  0  0
    5.8640   -3.4170   25.3690 C   0  0  0  0  0  0  0  0  0  0  0  0
    4.6790   -3.1190   25.0970 O   0  0  0  0  0  0  0  0  0  0  0  0
    6.3160   -3.1990   26.6800 N   0  0  0  0  0  0  0  0  0  0  0  0
    6.7250   -4.3570   27.4660 C   0  0  0  0  0  0  0  0  0  0  0  0
    5.6850   -5.4560   27.5200 C   0  0  0  0  0  0  0  0  0  0  0  0
    5.9910   -2.0080   27.3990 C   0  0  0  0  0  0  0  0  0  0  0  0
    6.0240   -0.7800   26.6970 C   0  0  0  0  0  0  0  0  0  0  0  0
    6.5510   -0.3860   27.8470 N   0  0  0  0  0  0  0  0  0  0  0  0
    6.2680    0.7860   28.4060 C   0  0  0  0  0  0  0  0  0  0  0  0
    7.2450    1.3390   29.2010 O   0  0  0  0  0  0  0  0  0  0  0  0
    5.0730    1.4820   28.2330 O   0  0  0  0  0  0  0  0  0  0  0  0
    4.1000    1.4950   29.2340 C   0  0  0  0  0  0  0  0  0  0  0  0
    3.2980    2.6160   29.2490 C   0  0  0  0  0  0  0  0  0  0  0  0
    4.1000    2.3700   30.5010 C   0  0  0  0  0  0  0  0  0  0  0  0
    3.3490    0.2030   29.3630 C   0  0  0  0  0  0  0  0  0  0  0  0
    6.7040   -1.6100   28.5420 C   0  0  0  0  0  0  0  0  0  0  0  0
    6.9260   -2.8510   23.3090 C   0  0  0  0  0  0  0  0  0  0  0  0
    7.7070   -3.3030   22.2770 C   0  0  0  0  0  0  0  0  0  0  0  0
  1  2  1  0
  2  3  2  0
  2  4  1  0
  4  5  1  0
  5  6  1  0
  6  7  1  0
  7  8  1  0
  8  9  2  0
  8 10  1  0
 10 11  1  0
 11 12  1  0
 10 13  1  0
 13 14  1  0
 14 15  1  0
 15 16  1  0
 16 17  2  0
 16 18  1  0
 19 18  1  0
 19 20  1  0
 19 21  1  0
 19 22  1  0
 13 23  1  0
 15 23  1  0
  7 24  1  0
  4 25  1  0
 24 25  1  0
M  END
