piperidine-amides-3816-covalent
     RDKit          3D

 25 27  0  0  0  0  0  0  0  0999 V2000
    7.1060   -3.3490   19.2750 C   0  0  0  0  0  0  0  0  0  0  0  0
    6.4310   -4.1730   20.2910 C   0  0  0  0  0  0  0  0  0  0  0  0
    5.3520   -4.7180   19.9500 O   0  0  0  0  0  0  0  0  0  0  0  0
    7.0180   -4.3940   21.5620 N   0  0  0  0  0  0  0  0  0  0  0  0
    6.4960   -5.4530   22.3530 C   0  0  0  0  0  0  0  0  0  0  0  0
    5.9340   -5.0330   23.6380 C   0  0  0  0  0  0  0  0  0  0  0  0
    6.5480   -3.8340   24.2560 C   0  0  0  0  0  0  0  0  0  0  0  0
    5.7120   -3.3350   25.3880 C   0  0  0  0  0  0  0  0  0  0  0  0
    4.4710   -3.2950   25.2710 O   0  0  0  0  0  0  0  0  0  0  0  0
    6.2960   -2.9160   26.5950 N   0  0  0  0  0  0  0  0  0  0  0  0
    6.5520   -1.6040   27.0580 C   0  0  2  0  0  0  0  0  0  0  0  0
    6.7130   -1.4460   28.5040 C   0  0  0  0  0  0  0  0  0  0  0  0
    6.7280    0.0280   28.8380 C   0  0  0  0  0  0  0  0  0  0  0  0
    5.5380    0.6140   28.5890 C   0  0  0  0  0  0  0  0  0  0  0  0
    5.1990    0.5710   27.2570 O   0  0  0  0  0  0  0  0  0  0  0  0
    5.3890   -0.6570   26.6090 C   0  0  1  0  0  0  0  0  0  0  0  0
    5.4750   -0.3320   25.1420 C   0  0  0  0  0  0  0  0  0  0  0  0
    6.2990    0.9390   25.1430 C   0  0  0  0  0  0  0  0  0  0  0  0
    6.6470    1.6330   23.8610 C   0  0  0  0  0  0  0  0  0  0  0  0
    6.0990    0.9390   22.6120 C   0  0  0  0  0  0  0  0  0  0  0  0
    6.3510    1.4890   21.1960 C   0  0  0  0  0  0  0  0  0  0  0  0
    5.2750   -0.3400   22.7230 C   0  0  0  0  0  0  0  0  0  0  0  0
    4.9950   -0.9240   23.9770 C   0  0  0  0  0  0  0  0  0  0  0  0
    6.9060   -2.7560   23.3060 C   0  0  0  0  0  0  0  0  0  0  0  0
    7.7230   -3.3100   22.1870 C   0  0  0  0  0  0  0  0  0  0  0  0
  1  2  1  0
  2  3  2  0
  2  4  1  0
  4  5  1  0
  5  6  1  0
  6  7  1  0
  7  8  1  0
  8  9  2  0
  8 10  1  0
 11 10  1  1
 11 12  1  0
 12 13  1  0
 13 14  1  0
 14 15  1  0
 11 16  1  0
 15 16  1  0
 16 17  1  6
 17 18  2  0
 18 19  1  0
 19 20  2  0
 20 21  1  0
 20 22  1  0
 17 23  1  0
 22 23  2  0
  7 24  1  0
  4 25  1  0
 24 25  1  0
M  END
