piperidine-amides-11060-covalent
     RDKit          3D

 21 22  0  0  0  0  0  0  0  0999 V2000
    7.0840   -3.2830   19.2360 C   0  0  0  0  0  0  0  0  0  0  0  0
    6.3400   -4.0260   20.2610 C   0  0  0  0  0  0  0  0  0  0  0  0
    5.3270   -4.6640   19.9290 O   0  0  0  0  0  0  0  0  0  0  0  0
    6.7750   -4.0620   21.5960 N   0  0  0  0  0  0  0  0  0  0  0  0
    7.7550   -3.1160   22.0990 C   0  0  0  0  0  0  0  0  0  0  0  0
    7.5270   -3.0160   23.5730 C   0  0  0  0  0  0  0  0  0  0  0  0
    6.1510   -3.4780   23.9200 C   0  0  0  0  0  0  0  0  0  0  0  0
    5.7730   -3.1020   25.3000 C   0  0  0  0  0  0  0  0  0  0  0  0
    4.9050   -3.7720   25.9340 O   0  0  0  0  0  0  0  0  0  0  0  0
    6.3450   -1.9790   25.9460 N   0  0  0  0  0  0  0  0  0  0  0  0
    6.5560   -1.9370   27.4050 C   0  0  0  0  0  0  0  0  0  0  0  0
    5.3040   -1.5140   28.0810 C   0  0  0  0  0  0  0  0  0  0  0  0
    4.7300   -2.4200   29.0900 C   0  0  0  0  0  0  0  0  0  0  0  0
    3.4610   -1.9890   29.7780 C   0  0  0  0  0  0  0  0  0  0  0  0
    2.9040   -2.8320   30.7380 F   0  0  0  0  0  0  0  0  0  0  0  0
    2.8070   -0.6680   29.4340 C   0  0  0  0  0  0  0  0  0  0  0  0
    3.5490    0.0900   28.3930 C   0  0  0  0  0  0  0  0  0  0  0  0
    4.7060   -0.3140   27.7750 C   0  0  0  0  0  0  0  0  0  0  0  0
    5.5040    0.7950   26.4690 Br  0  0  0  0  0  0  0  0  0  0  0  0
    6.0020   -4.9620   23.6870 C   0  0  0  0  0  0  0  0  0  0  0  0
    6.6280   -5.3030   22.3450 C   0  0  0  0  0  0  0  0  0  0  0  0
  1  2  1  0
  2  3  2  0
  2  4  1  0
  4  5  1  0
  5  6  1  0
  6  7  1  0
  7  8  1  0
  8  9  2  0
  8 10  1  0
 10 11  1  0
 11 12  1  0
 12 13  2  0
 13 14  1  0
 14 15  1  0
 14 16  2  0
 16 17  1  0
 12 18  1  0
 17 18  2  0
 18 19  1  0
  7 20  1  0
  4 21  1  0
 20 21  1  0
M  END
