piperidine-amides-4303-covalent
     RDKit          3D

 26 28  0  0  0  0  0  0  0  0999 V2000
    7.0470   -3.3160   19.3240 C   0  0  0  0  0  0  0  0  0  0  0  0
    6.3350   -4.1530   20.3030 C   0  0  0  0  0  0  0  0  0  0  0  0
    5.2500   -4.6370   19.9110 O   0  0  0  0  0  0  0  0  0  0  0  0
    6.8640   -4.4740   21.5840 N   0  0  0  0  0  0  0  0  0  0  0  0
    6.4030   -5.6340   22.2340 C   0  0  0  0  0  0  0  0  0  0  0  0
    5.9960   -5.3300   23.5950 C   0  0  0  0  0  0  0  0  0  0  0  0
    5.7040   -3.9000   23.8350 C   0  0  0  0  0  0  0  0  0  0  0  0
    5.4740   -3.6570   25.3120 C   0  0  0  0  0  0  0  0  0  0  0  0
    5.3950   -4.6320   26.0660 O   0  0  0  0  0  0  0  0  0  0  0  0
    5.2950   -2.3830   25.8970 N   0  0  0  0  0  0  0  0  0  0  0  0
    6.1990   -1.3140   25.9660 C   0  0  0  0  0  0  0  0  0  0  0  0
    7.1550   -1.1160   24.9000 C   0  0  0  0  0  0  0  0  0  0  0  0
    8.3670   -1.4990   24.7050 N   0  0  0  0  0  0  0  0  0  0  0  0
    8.9920   -1.1310   23.5140 C   0  0  0  0  0  0  0  0  0  0  0  0
   10.2240   -1.6630   23.6080 C   0  0  0  0  0  0  0  0  0  0  0  0
   10.1650   -2.3590   24.9320 C   0  0  0  0  0  0  0  0  0  0  0  0
   11.5000   -2.9460   25.1630 C   0  0  0  0  0  0  0  0  0  0  0  0
   12.6240   -2.7550   24.1170 C   0  0  0  0  0  0  0  0  0  0  0  0
   13.8070   -3.3150   24.4930 O   0  0  0  0  0  0  0  0  0  0  0  0
   13.8410   -3.5220   25.9100 C   0  0  0  0  0  0  0  0  0  0  0  0
   12.6120   -2.0390   22.7570 C   0  0  0  0  0  0  0  0  0  0  0  0
   11.2410   -1.4540   22.5350 C   0  0  0  0  0  0  0  0  0  0  0  0
    8.3510   -0.3830   22.5730 C   0  0  0  0  0  0  0  0  0  0  0  0
    6.8090   -0.1690   23.3770 S   0  0  0  0  0  0  0  0  0  0  0  0
    6.6590   -2.9010   23.2220 C   0  0  0  0  0  0  0  0  0  0  0  0
    7.5820   -3.5300   22.3860 C   0  0  0  0  0  0  0  0  0  0  0  0
  1  2  1  0
  2  3  2  0
  2  4  1  0
  4  5  1  0
  5  6  1  0
  6  7  1  0
  7  8  1  0
  8  9  2  0
  8 10  1  0
 10 11  1  0
 11 12  1  0
 12 13  2  0
 13 14  1  0
 14 15  1  0
 15 16  2  0
 16 17  1  0
 17 18  2  0
 18 19  1  0
 19 20  1  0
 18 21  1  0
 15 22  1  0
 21 22  2  0
 14 23  2  0
 12 24  1  0
 23 24  1  0
  7 25  1  0
  4 26  1  0
 25 26  1  0
M  END
