piperidine-amides-11739-covalent
     RDKit          3D

 28 30  0  0  0  0  0  0  0  0999 V2000
    7.0610   -3.3460   19.2660 C   0  0  0  0  0  0  0  0  0  0  0  0
    6.3670   -4.1520   20.2640 C   0  0  0  0  0  0  0  0  0  0  0  0
    5.3350   -4.7470   19.9550 O   0  0  0  0  0  0  0  0  0  0  0  0
    6.9150   -4.3060   21.5830 N   0  0  0  0  0  0  0  0  0  0  0  0
    7.6980   -3.2450   22.1690 C   0  0  0  0  0  0  0  0  0  0  0  0
    6.9560   -2.6450   23.3200 C   0  0  0  0  0  0  0  0  0  0  0  0
    6.5900   -3.7760   24.2530 C   0  0  0  0  0  0  0  0  0  0  0  0
    5.7950   -3.2390   25.3870 C   0  0  0  0  0  0  0  0  0  0  0  0
    4.5680   -3.0340   25.3080 O   0  0  0  0  0  0  0  0  0  0  0  0
    6.4700   -2.9690   26.5970 N   0  0  0  0  0  0  0  0  0  0  0  0
    6.3910   -1.6630   27.2130 C   0  0  0  0  0  0  0  0  0  0  0  0
    7.0650   -1.5700   28.5330 C   0  0  0  0  0  0  0  0  0  0  0  0
    7.0470   -0.3820   29.2040 C   0  0  0  0  0  0  0  0  0  0  0  0
    6.3880    0.7200   28.6270 C   0  0  0  0  0  0  0  0  0  0  0  0
    5.7430    0.6620   27.3870 C   0  0  0  0  0  0  0  0  0  0  0  0
    5.1850    1.6860   26.9680 O   0  0  0  0  0  0  0  0  0  0  0  0
    4.1300    2.3700   27.5320 C   0  0  0  0  0  0  0  0  0  0  0  0
    4.2960    3.7110   27.8220 C   0  0  0  0  0  0  0  0  0  0  0  0
    3.2670    4.4380   28.3960 C   0  0  0  0  0  0  0  0  0  0  0  0
    2.0560    3.8270   28.6850 C   0  0  0  0  0  0  0  0  0  0  0  0
    1.1870    4.6820   29.2320 N   0  0  0  0  0  0  0  0  0  0  0  0
    0.0280    4.1910   29.7690 O   0  0  0  0  0  0  0  0  0  0  0  0
    1.5360    5.9940   29.4240 O   0  0  0  0  0  0  0  0  0  0  0  0
    1.9350    2.4100   28.3570 C   0  0  0  0  0  0  0  0  0  0  0  0
    2.9600    1.6770   27.7840 C   0  0  0  0  0  0  0  0  0  0  0  0
    5.7580   -0.5320   26.6970 C   0  0  0  0  0  0  0  0  0  0  0  0
    5.7580   -4.8360   23.5610 C   0  0  0  0  0  0  0  0  0  0  0  0
    6.5740   -5.4310   22.4080 C   0  0  0  0  0  0  0  0  0  0  0  0
  1  2  1  0
  2  3  2  0
  2  4  1  0
  4  5  1  0
  5  6  1  0
  6  7  1  0
  7  8  1  0
  8  9  2  0
  8 10  1  0
 10 11  1  0
 11 12  2  0
 12 13  1  0
 13 14  2  0
 14 15  1  0
 15 16  1  0
 16 17  1  0
 17 18  2  0
 18 19  1  0
 19 20  2  0
 20 21  1  0
 21 22  2  0
 21 23  1  0
 20 24  1  0
 17 25  1  0
 24 25  2  0
 11 26  1  0
 15 26  2  0
  7 27  1  0
  4 28  1  0
 27 28  1  0
M  CHG  2  21   1  23  -1
M  END
