piperidine-amides-3093-covalent
     RDKit          3D

 23 25  0  0  0  0  0  0  0  0999 V2000
    7.0460   -3.3220   19.2610 C   0  0  0  0  0  0  0  0  0  0  0  0
    6.3390   -4.1030   20.2730 C   0  0  0  0  0  0  0  0  0  0  0  0
    5.3430   -4.7490   19.9530 O   0  0  0  0  0  0  0  0  0  0  0  0
    6.8090   -4.1700   21.6320 N   0  0  0  0  0  0  0  0  0  0  0  0
    7.7100   -3.1520   22.1280 C   0  0  0  0  0  0  0  0  0  0  0  0
    7.4650   -2.9350   23.5870 C   0  0  0  0  0  0  0  0  0  0  0  0
    6.1150   -3.5550   23.8560 C   0  0  0  0  0  0  0  0  0  0  0  0
    5.5710   -3.1400   25.1790 C   0  0  0  0  0  0  0  0  0  0  0  0
    4.5640   -2.4160   25.2630 O   0  0  0  0  0  0  0  0  0  0  0  0
    6.2010   -3.5550   26.3730 N   0  0  0  0  0  0  0  0  0  0  0  0
    5.4450   -4.3700   27.3010 C   0  0  0  0  0  0  0  0  0  0  0  0
    4.0720   -3.7390   27.3760 C   0  0  0  0  0  0  0  0  0  0  0  0
    3.7920   -2.7460   28.3230 C   0  0  0  0  0  0  0  0  0  0  0  0
    2.5260   -2.1580   28.4010 C   0  0  0  0  0  0  0  0  0  0  0  0
    1.5130   -2.5260   27.5620 C   0  0  0  0  0  0  0  0  0  0  0  0
    1.8240   -3.5490   26.6000 C   0  0  0  0  0  0  0  0  0  0  0  0
    0.5290   -4.0500   25.4960 Cl  0  0  0  0  0  0  0  0  0  0  0  0
    3.0630   -4.1420   26.5020 C   0  0  0  0  0  0  0  0  0  0  0  0
    5.4640   -5.7900   27.3580 C   0  0  0  0  0  0  0  0  0  0  0  0
    6.0230   -6.0300   28.5640 C   0  0  0  0  0  0  0  0  0  0  0  0
    6.0370   -4.6150   28.6000 C   0  0  0  0  0  0  0  0  0  0  0  0
    6.1080   -5.0600   23.6560 C   0  0  0  0  0  0  0  0  0  0  0  0
    6.6320   -5.3840   22.3950 C   0  0  0  0  0  0  0  0  0  0  0  0
  1  2  1  0
  2  3  2  0
  2  4  1  0
  4  5  1  0
  5  6  1  0
  6  7  1  0
  7  8  1  0
  8  9  2  0
  8 10  1  0
 11 10  1  0
 11 12  1  0
 12 13  2  0
 13 14  1  0
 14 15  2  0
 15 16  1  0
 16 17  1  0
 12 18  1  0
 16 18  2  0
 11 19  1  0
 19 20  1  0
 11 21  1  0
 20 21  1  0
  7 22  1  0
  4 23  1  0
 22 23  1  0
M  END
