piperidine-amides-8962-covalent
     RDKit          3D

 22 23  0  0  0  0  0  0  0  0999 V2000
    7.1330   -3.2670   19.1790 C   0  0  0  0  0  0  0  0  0  0  0  0
    6.3780   -3.9880   20.2070 C   0  0  0  0  0  0  0  0  0  0  0  0
    5.3230   -4.5650   19.8970 O   0  0  0  0  0  0  0  0  0  0  0  0
    6.8630   -4.0730   21.5210 N   0  0  0  0  0  0  0  0  0  0  0  0
    7.8320   -3.1260   22.0360 C   0  0  0  0  0  0  0  0  0  0  0  0
    7.5050   -3.0880   23.4760 C   0  0  0  0  0  0  0  0  0  0  0  0
    6.1610   -3.7080   23.6260 C   0  0  0  0  0  0  0  0  0  0  0  0
    5.5660   -3.4450   24.9270 C   0  0  0  0  0  0  0  0  0  0  0  0
    4.3120   -3.5020   25.0890 O   0  0  0  0  0  0  0  0  0  0  0  0
    6.3230   -3.1220   26.0460 N   0  0  0  0  0  0  0  0  0  0  0  0
    5.5460   -2.8560   27.2370 C   0  0  2  0  0  0  0  0  0  0  0  0
    5.3170   -1.3980   27.3120 C   0  0  0  0  0  0  0  0  0  0  0  0
    6.1420   -0.4880   26.5100 C   0  0  0  0  0  0  0  0  0  0  0  0
    5.8880    0.9940   26.6090 C   0  0  0  0  0  0  0  0  0  0  0  0
    4.7990    1.5180   27.5230 C   0  0  0  0  0  0  0  0  0  0  0  0
    4.0750    0.4360   28.2480 C   0  0  0  0  0  0  0  0  0  0  0  0
    4.3390   -0.9060   28.1280 C   0  0  0  0  0  0  0  0  0  0  0  0
    6.2700   -3.3510   28.4120 C   0  0  0  0  0  0  0  0  0  0  0  0
    6.4720   -2.1570   29.3250 C   0  0  0  0  0  0  0  0  0  0  0  0
    5.5570   -4.5050   29.0230 C   0  0  0  0  0  0  0  0  0  0  0  0
    6.2660   -5.2080   23.3290 C   0  0  0  0  0  0  0  0  0  0  0  0
    6.6520   -5.3680   22.1890 C   0  0  0  0  0  0  0  0  0  0  0  0
  1  2  1  0
  2  3  2  0
  2  4  1  0
  4  5  1  0
  5  6  1  0
  6  7  1  0
  7  8  1  0
  8  9  2  0
  8 10  1  0
 11 10  1  6
 11 12  1  0
 12 13  2  0
 13 14  1  0
 14 15  2  0
 15 16  1  0
 12 17  1  0
 16 17  2  0
 11 18  1  0
 18 19  1  0
 18 20  1  0
  7 21  1  0
  4 22  1  0
 21 22  1  0
M  END
