piperidine-amides-29848-covalent
     RDKit          3D

 27 29  0  0  0  0  0  0  0  0999 V2000
    7.1070   -3.2850   19.1700 C   0  0  0  0  0  0  0  0  0  0  0  0
    6.3540   -4.0320   20.1710 C   0  0  0  0  0  0  0  0  0  0  0  0
    5.2680   -4.5260   19.8760 O   0  0  0  0  0  0  0  0  0  0  0  0
    6.9110   -4.2550   21.4740 N   0  0  0  0  0  0  0  0  0  0  0  0
    7.6840   -3.2240   22.1220 C   0  0  0  0  0  0  0  0  0  0  0  0
    6.9190   -2.6770   23.2830 C   0  0  0  0  0  0  0  0  0  0  0  0
    6.5080   -3.8480   24.1530 C   0  0  0  0  0  0  0  0  0  0  0  0
    5.6220   -3.3600   25.2300 C   0  0  0  0  0  0  0  0  0  0  0  0
    4.5920   -2.7000   25.0020 O   0  0  0  0  0  0  0  0  0  0  0  0
    5.9600   -3.6520   26.5600 N   0  0  0  0  0  0  0  0  0  0  0  0
    6.4490   -2.5570   27.3310 C   0  0  0  0  0  0  0  0  0  0  0  0
    6.8170   -3.1220   28.6610 C   0  0  0  0  0  0  0  0  0  0  0  0
    5.7780   -3.6830   29.2940 C   0  0  0  0  0  0  0  0  0  0  0  0
    4.9700   -2.7550   29.9670 C   0  0  0  0  0  0  0  0  0  0  0  0
    5.3800   -1.4130   29.9380 O   0  0  0  0  0  0  0  0  0  0  0  0
    3.7910   -3.1310   30.6510 N   0  0  0  0  0  0  0  0  0  0  0  0
    3.3860   -2.5440   31.8610 C   0  0  0  0  0  0  0  0  0  0  0  0
    3.2520   -1.0930   31.6440 N   0  0  0  0  0  0  0  0  0  0  0  0
    2.8530   -0.5730   32.8800 C   0  0  0  0  0  0  0  0  0  0  0  0
    2.6200   -1.1970   34.0510 C   0  0  0  0  0  0  0  0  0  0  0  0
    2.7600   -2.5380   34.1810 C   0  0  0  0  0  0  0  0  0  0  0  0
    3.1520   -3.3600   33.1240 C   0  0  0  0  0  0  0  0  0  0  0  0
    3.3090   -4.8130   33.2530 C   0  0  0  0  0  0  0  0  0  0  0  0
    4.9150   -4.3270   28.4840 C   0  0  0  0  0  0  0  0  0  0  0  0
    5.5040   -4.8120   27.3230 C   0  0  0  0  0  0  0  0  0  0  0  0
    5.7230   -4.8920   23.3870 C   0  0  0  0  0  0  0  0  0  0  0  0
    6.5710   -5.4210   22.2330 C   0  0  0  0  0  0  0  0  0  0  0  0
  1  2  1  0
  2  3  2  0
  2  4  1  0
  4  5  1  0
  5  6  1  0
  6  7  1  0
  7  8  1  0
  8  9  2  0
  8 10  1  0
 10 11  1  0
 11 12  1  0
 12 13  1  0
 13 14  1  0
 14 15  2  0
 14 16  1  0
 16 17  1  0
 17 18  2  0
 18 19  1  0
 19 20  2  0
 20 21  1  0
 17 22  1  0
 21 22  2  0
 22 23  1  0
 13 24  1  0
 10 25  1  0
 24 25  1  0
  7 26  1  0
  4 27  1  0
 26 27  1  0
M  END
