piperidine-amides-35373-covalent
     RDKit          3D

 32 35  0  0  0  0  0  0  0  0999 V2000
    7.0610   -3.3170   19.2930 C   0  0  0  0  0  0  0  0  0  0  0  0
    6.4000   -4.1760   20.3140 C   0  0  0  0  0  0  0  0  0  0  0  0
    5.3810   -4.7630   19.9610 O   0  0  0  0  0  0  0  0  0  0  0  0
    6.9530   -4.3440   21.5930 N   0  0  0  0  0  0  0  0  0  0  0  0
    6.6830   -5.5310   22.3540 C   0  0  0  0  0  0  0  0  0  0  0  0
    6.0600   -5.1110   23.6520 C   0  0  0  0  0  0  0  0  0  0  0  0
    6.8460   -3.9400   24.2480 C   0  0  0  0  0  0  0  0  0  0  0  0
    6.1160   -3.4780   25.4440 C   0  0  0  0  0  0  0  0  0  0  0  0
    4.9150   -3.1780   25.3400 O   0  0  0  0  0  0  0  0  0  0  0  0
    6.7680   -3.3680   26.6920 N   0  0  0  0  0  0  0  0  0  0  0  0
    7.5650   -4.4740   27.1720 C   0  0  0  0  0  0  0  0  0  0  0  0
    6.6350   -5.3650   27.9680 C   0  0  0  0  0  0  0  0  0  0  0  0
    5.4070   -4.5600   28.1670 N   0  0  0  0  0  0  0  0  0  0  0  0
    4.3240   -5.3650   28.7220 C   0  0  0  0  0  0  0  0  0  0  0  0
    3.8120   -5.9950   27.6340 C   0  0  0  0  0  0  0  0  0  0  0  0
    3.4880   -5.2490   26.5740 C   0  0  0  0  0  0  0  0  0  0  0  0
    2.9020   -5.6000   25.2340 C   0  0  0  0  0  0  0  0  0  0  0  0
    2.6270   -7.0840   25.0560 C   0  0  0  0  0  0  0  0  0  0  0  0
    1.9430   -7.8690   23.6340 Cl  0  0  0  0  0  0  0  0  0  0  0  0
    2.9970   -7.9530   26.2650 C   0  0  0  0  0  0  0  0  0  0  0  0
    3.5800   -7.3270   27.5000 C   0  0  0  0  0  0  0  0  0  0  0  0
    4.6300   -6.0680   29.8650 C   0  0  0  0  0  0  0  0  0  0  0  0
    5.7140   -7.1160   30.0410 C   0  0  0  0  0  0  0  0  0  0  0  0
    5.9600   -7.8040   31.3340 C   0  0  0  0  0  0  0  0  0  0  0  0
    5.1010   -7.4500   32.5090 C   0  0  0  0  0  0  0  0  0  0  0  0
    5.3870   -8.2670   34.0430 Cl  0  0  0  0  0  0  0  0  0  0  0  0
    4.1350   -6.5060   32.3210 C   0  0  0  0  0  0  0  0  0  0  0  0
    3.8880   -5.8080   31.0080 C   0  0  0  0  0  0  0  0  0  0  0  0
    5.7770   -3.3730   28.8210 C   0  0  0  0  0  0  0  0  0  0  0  0
    6.1570   -2.4770   27.6620 C   0  0  0  0  0  0  0  0  0  0  0  0
    7.0890   -2.7570   23.3440 C   0  0  0  0  0  0  0  0  0  0  0  0
    7.8300   -3.3210   22.1320 C   0  0  0  0  0  0  0  0  0  0  0  0
  1  2  1  0
  2  3  2  0
  2  4  1  0
  4  5  1  0
  5  6  1  0
  6  7  1  0
  7  8  1  0
  8  9  2  0
  8 10  1  0
 10 11  1  0
 11 12  1  0
 12 13  1  0
 13 14  1  0
 14 15  1  0
 15 16  2  0
 16 17  1  0
 17 18  2  0
 18 19  1  0
 18 20  1  0
 15 21  1  0
 20 21  2  0
 14 22  1  0
 22 23  2  0
 23 24  1  0
 24 25  2  0
 25 26  1  0
 25 27  1  0
 22 28  1  0
 27 28  2  0
 13 29  1  0
 10 30  1  0
 29 30  1  0
  7 31  1  0
  4 32  1  0
 31 32  1  0
M  END
