piperidine-amides-14154-covalent
     RDKit          3D

 24 26  0  0  0  0  0  0  0  0999 V2000
    7.1120   -3.3900   19.4230 C   0  0  0  0  0  0  0  0  0  0  0  0
    6.4180   -4.2720   20.3910 C   0  0  0  0  0  0  0  0  0  0  0  0
    5.4080   -4.8890   20.0060 O   0  0  0  0  0  0  0  0  0  0  0  0
    6.9630   -4.4200   21.6930 N   0  0  0  0  0  0  0  0  0  0  0  0
    7.6650   -3.3590   22.3480 C   0  0  0  0  0  0  0  0  0  0  0  0
    6.6660   -2.7480   23.3400 C   0  0  0  0  0  0  0  0  0  0  0  0
    6.1340   -3.7920   24.2900 C   0  0  0  0  0  0  0  0  0  0  0  0
    5.1540   -3.1620   25.2270 C   0  0  0  0  0  0  0  0  0  0  0  0
    4.0580   -2.9080   24.7260 O   0  0  0  0  0  0  0  0  0  0  0  0
    5.4270   -2.8660   26.5740 N   0  0  0  0  0  0  0  0  0  0  0  0
    6.3100   -1.8730   27.0750 C   0  0  2  0  0  0  0  0  0  0  0  0
    6.5600   -1.4880   28.4850 C   0  0  0  0  0  0  0  0  0  0  0  0
    6.2340   -0.1720   29.1990 C   0  0  0  0  0  0  0  0  0  0  0  0
    6.0830    1.0790   28.5040 O   0  0  0  0  0  0  0  0  0  0  0  0
    6.3710    0.6210   27.3430 C   0  0  0  0  0  0  0  0  0  0  0  0
    5.9400   -0.0460   28.5540 C   0  0  0  0  0  0  0  0  0  0  0  0
    5.5450   -1.0770   29.5400 C   0  0  0  0  0  0  0  0  0  0  0  0
    5.6830   -2.3070   28.8090 C   0  0  0  0  0  0  0  0  0  0  0  0
    5.3130   -3.9430   29.4200 S   0  0  0  0  0  0  0  0  0  0  0  0
    6.7060   -4.8580   28.7950 C   0  0  0  0  0  0  0  0  0  0  0  0
    6.1890   -1.9990   27.4060 C   0  0  0  0  0  0  0  0  0  0  0  0
    6.4980   -0.5660   26.6700 C   0  0  0  0  0  0  0  0  0  0  0  0
    5.5350   -4.9260   23.5340 C   0  0  0  0  0  0  0  0  0  0  0  0
    6.5670   -5.4990   22.5350 C   0  0  0  0  0  0  0  0  0  0  0  0
  1  2  1  0
  2  3  2  0
  2  4  1  0
  4  5  1  0
  5  6  1  0
  6  7  1  0
  7  8  1  0
  8  9  2  0
  8 10  1  0
 11 10  1  1
 11 12  1  0
 12 13  1  0
 13 14  1  0
 14 15  1  0
 15 16  2  0
 16 17  1  0
 17 18  2  0
 18 19  1  0
 19 20  1  0
 18 21  1  0
 11 22  1  0
 15 22  1  0
 21 22  2  0
  7 23  1  0
  4 24  1  0
 23 24  1  0
M  END
