piperidine-amides-25816-covalent
     RDKit          3D

 25 29  0  0  0  0  0  0  0  0999 V2000
    7.0720   -3.2830   19.2340 C   0  0  0  0  0  0  0  0  0  0  0  0
    6.3500   -4.0660   20.2750 C   0  0  0  0  0  0  0  0  0  0  0  0
    5.3140   -4.6240   19.9160 O   0  0  0  0  0  0  0  0  0  0  0  0
    6.8650   -4.1890   21.5780 N   0  0  0  0  0  0  0  0  0  0  0  0
    6.5960   -5.3700   22.3570 C   0  0  0  0  0  0  0  0  0  0  0  0
    6.0840   -4.9820   23.7240 C   0  0  0  0  0  0  0  0  0  0  0  0
    6.0880   -3.4570   23.9170 C   0  0  0  0  0  0  0  0  0  0  0  0
    5.7210   -3.1690   25.3240 C   0  0  0  0  0  0  0  0  0  0  0  0
    4.9410   -3.9390   25.8930 O   0  0  0  0  0  0  0  0  0  0  0  0
    6.2010   -2.0410   26.0330 N   0  0  0  0  0  0  0  0  0  0  0  0
    5.4550   -0.8280   25.8890 C   0  0  0  0  0  0  0  0  0  0  0  0
    5.4850   -0.7820   27.3700 C   0  0  0  0  0  0  0  0  0  0  0  0
    5.9410    0.3080   28.0800 C   0  0  2  0  0  0  0  0  0  0  0  0
    6.5650    0.0540   29.2710 C   0  0  1  0  0  0  0  0  0  0  0  0
    6.6100    1.2310   29.9830 C   0  0  0  0  0  0  0  0  0  0  0  0
    5.3040    1.8830   30.4240 C   0  0  2  0  0  0  0  0  0  0  0  0
    4.8980    0.7590   31.3500 C   0  0  0  0  0  0  0  0  0  0  0  0
    4.5820   -0.4780   30.5120 C   0  0  2  0  0  0  0  0  0  0  0  0
    5.9380   -0.8770   30.0610 C   0  0  0  0  0  0  0  0  0  0  0  0
    3.7370   -0.2520   29.2660 C   0  0  0  0  0  0  0  0  0  0  0  0
    4.5340    0.7270   28.4200 C   0  0  1  0  0  0  0  0  0  0  0  0
    4.5430    2.0210   29.1060 C   0  0  0  0  0  0  0  0  0  0  0  0
    6.2580   -1.9420   27.5190 C   0  0  0  0  0  0  0  0  0  0  0  0
    7.4600   -2.9480   23.5720 C   0  0  0  0  0  0  0  0  0  0  0  0
    7.6880   -3.1260   22.0950 C   0  0  0  0  0  0  0  0  0  0  0  0
  1  2  1  0
  2  3  2  0
  2  4  1  0
  4  5  1  0
  5  6  1  0
  6  7  1  0
  7  8  1  0
  8  9  2  0
  8 10  1  0
 10 11  1  0
 11 12  1  0
 13 12  1  6
 13 14  1  0
 14 15  1  1
 16 15  1  6
 16 17  1  0
 18 17  1  6
 14 19  1  0
 18 19  1  0
 18 20  1  0
 13 21  1  0
 21 20  1  1
 16 22  1  0
 21 22  1  0
 10 23  1  0
 12 23  1  0
  7 24  1  0
  4 25  1  0
 24 25  1  0
M  END
