piperidine-amides-8076-covalent
     RDKit          3D

 26 28  0  0  0  0  0  0  0  0999 V2000
    7.0540   -3.3070   19.3100 C   0  0  0  0  0  0  0  0  0  0  0  0
    6.3780   -4.1260   20.3170 C   0  0  0  0  0  0  0  0  0  0  0  0
    5.3650   -4.7560   19.9610 O   0  0  0  0  0  0  0  0  0  0  0  0
    6.8920   -4.2430   21.6410 N   0  0  0  0  0  0  0  0  0  0  0  0
    7.6760   -3.1550   22.1850 C   0  0  0  0  0  0  0  0  0  0  0  0
    7.4780   -3.0230   23.6740 C   0  0  0  0  0  0  0  0  0  0  0  0
    6.1330   -3.6360   23.9790 C   0  0  0  0  0  0  0  0  0  0  0  0
    5.5830   -3.2880   25.3410 C   0  0  0  0  0  0  0  0  0  0  0  0
    4.4050   -2.9550   25.3380 O   0  0  0  0  0  0  0  0  0  0  0  0
    6.3650   -3.3550   26.4990 N   0  0  0  0  0  0  0  0  0  0  0  0
    5.7980   -3.7770   27.7520 C   0  0  0  0  0  0  0  0  0  0  0  0
    4.8960   -2.9000   28.3710 C   0  0  0  0  0  0  0  0  0  0  0  0
    4.1370   -3.3490   29.4510 C   0  0  0  0  0  0  0  0  0  0  0  0
    3.1970   -2.6170   30.1890 C   0  0  0  0  0  0  0  0  0  0  0  0
    3.0220   -1.2000   29.7410 C   0  0  0  0  0  0  0  0  0  0  0  0
    3.8200   -0.6380   28.5670 C   0  0  0  0  0  0  0  0  0  0  0  0
    3.6580    0.7700   28.1110 C   0  0  0  0  0  0  0  0  0  0  0  0
    3.9270    0.7960   26.7490 F   0  0  0  0  0  0  0  0  0  0  0  0
    4.5000    1.5870   28.8100 F   0  0  0  0  0  0  0  0  0  0  0  0
    2.3270    1.1090   28.3580 F   0  0  0  0  0  0  0  0  0  0  0  0
    4.7730   -1.5860   27.9130 C   0  0  0  0  0  0  0  0  0  0  0  0
    5.2480   -5.1760   27.5760 C   0  0  0  0  0  0  0  0  0  0  0  0
    5.9780   -5.7510   28.5080 C   0  0  0  0  0  0  0  0  0  0  0  0
    6.4740   -4.5240   28.7510 C   0  0  0  0  0  0  0  0  0  0  0  0
    6.1480   -5.1120   23.7860 C   0  0  0  0  0  0  0  0  0  0  0  0
    6.6600   -5.4370   22.4130 C   0  0  0  0  0  0  0  0  0  0  0  0
  1  2  1  0
  2  3  2  0
  2  4  1  0
  4  5  1  0
  5  6  1  0
  6  7  1  0
  7  8  1  0
  8  9  2  0
  8 10  1  0
 11 10  1  0
 11 12  1  0
 12 13  2  0
 13 14  1  0
 14 15  2  0
 15 16  1  0
 16 17  1  0
 17 18  1  0
 17 19  1  0
 17 20  1  0
 12 21  1  0
 16 21  2  0
 11 22  1  0
 22 23  1  0
 11 24  1  0
 23 24  1  0
  7 25  1  0
  4 26  1  0
 25 26  1  0
M  END
