piperidine-amides-11631-covalent
     RDKit          3D

 31 33  0  0  0  0  0  0  0  0999 V2000
    7.0750   -3.3040   19.2070 C   0  0  0  0  0  0  0  0  0  0  0  0
    6.2940   -4.0170   20.2130 C   0  0  0  0  0  0  0  0  0  0  0  0
    5.2560   -4.5830   19.8890 O   0  0  0  0  0  0  0  0  0  0  0  0
    6.7560   -4.1060   21.5670 N   0  0  0  0  0  0  0  0  0  0  0  0
    7.6710   -3.1120   22.0760 C   0  0  0  0  0  0  0  0  0  0  0  0
    7.5970   -3.0390   23.5700 C   0  0  0  0  0  0  0  0  0  0  0  0
    6.2400   -3.5690   23.9880 C   0  0  0  0  0  0  0  0  0  0  0  0
    6.0010   -3.2720   25.4220 C   0  0  0  0  0  0  0  0  0  0  0  0
    4.8620   -3.3290   25.9290 O   0  0  0  0  0  0  0  0  0  0  0  0
    7.1200   -2.9040   26.2170 N   0  0  0  0  0  0  0  0  0  0  0  0
    7.1790   -3.3220   27.5970 C   0  0  0  0  0  0  0  0  0  0  0  0
    7.3590   -2.0770   28.4460 C   0  0  0  0  0  0  0  0  0  0  0  0
    8.4750   -1.2790   28.3040 C   0  0  0  0  0  0  0  0  0  0  0  0
    8.6400   -0.1510   29.0910 C   0  0  0  0  0  0  0  0  0  0  0  0
    7.6810    0.1710   30.0030 C   0  0  0  0  0  0  0  0  0  0  0  0
    6.4720   -0.5950   30.2180 C   0  0  0  0  0  0  0  0  0  0  0  0
    5.1810   -0.3320   31.2910 S   0  0  0  0  0  0  0  0  0  0  0  0
    5.6510    0.1160   32.6340 O   0  0  0  0  0  0  0  0  0  0  0  0
    4.4510   -1.6180   31.4740 O   0  0  0  0  0  0  0  0  0  0  0  0
    4.0590    0.8420   30.6640 N   0  0  0  0  0  0  0  0  0  0  0  0
    4.0600    0.9470   29.2230 C   0  0  0  0  0  0  0  0  0  0  0  0
    5.2240    1.5410   28.7620 C   0  0  0  0  0  0  0  0  0  0  0  0
    6.0310    0.9420   27.7980 C   0  0  0  0  0  0  0  0  0  0  0  0
    7.2640    1.5350   27.2830 C   0  0  0  0  0  0  0  0  0  0  0  0
    7.6880    2.7590   27.7570 C   0  0  0  0  0  0  0  0  0  0  0  0
    6.9250    3.4100   28.7210 C   0  0  0  0  0  0  0  0  0  0  0  0
    7.3560    4.6420   29.1910 F   0  0  0  0  0  0  0  0  0  0  0  0
    5.6660    2.7490   29.2110 C   0  0  0  0  0  0  0  0  0  0  0  0
    6.3990   -1.7130   29.3900 C   0  0  0  0  0  0  0  0  0  0  0  0
    6.0830   -5.0210   23.6480 C   0  0  0  0  0  0  0  0  0  0  0  0
    6.6020   -5.3480   22.2850 C   0  0  0  0  0  0  0  0  0  0  0  0
  1  2  1  0
  2  3  2  0
  2  4  1  0
  4  5  1  0
  5  6  1  0
  6  7  1  0
  7  8  1  0
  8  9  2  0
  8 10  1  0
 10 11  1  0
 11 12  1  0
 12 13  2  0
 13 14  1  0
 14 15  2  0
 15 16  1  0
 16 17  1  0
 17 18  2  0
 17 19  2  0
 17 20  1  0
 20 21  1  0
 21 22  1  0
 22 23  2  0
 23 24  1  0
 24 25  2  0
 25 26  1  0
 26 27  1  0
 22 28  1  0
 26 28  2  0
 12 29  1  0
 16 29  2  0
  7 30  1  0
  4 31  1  0
 30 31  1  0
M  END
