piperidine-amides-11672-covalent
     RDKit          3D

 33 35  0  0  0  0  0  0  0  0999 V2000
    7.0740   -3.2760   19.2870 C   0  0  0  0  0  0  0  0  0  0  0  0
    6.3650   -4.0880   20.2720 C   0  0  0  0  0  0  0  0  0  0  0  0
    5.3570   -4.7140   19.9470 O   0  0  0  0  0  0  0  0  0  0  0  0
    6.8640   -4.1960   21.6150 N   0  0  0  0  0  0  0  0  0  0  0  0
    7.7240   -3.1700   22.1810 C   0  0  0  0  0  0  0  0  0  0  0  0
    7.4520   -2.9290   23.6470 C   0  0  0  0  0  0  0  0  0  0  0  0
    6.1370   -3.5900   24.0140 C   0  0  0  0  0  0  0  0  0  0  0  0
    5.7060   -3.2100   25.3870 C   0  0  0  0  0  0  0  0  0  0  0  0
    4.5580   -3.4610   25.8040 O   0  0  0  0  0  0  0  0  0  0  0  0
    6.6070   -2.5270   26.2430 N   0  0  0  0  0  0  0  0  0  0  0  0
    6.4960   -1.0900   26.3230 C   0  0  0  0  0  0  0  0  0  0  0  0
    7.2070   -0.5840   27.5570 C   0  0  0  0  0  0  0  0  0  0  0  0
    7.2200   -1.2890   28.7580 C   0  0  0  0  0  0  0  0  0  0  0  0
    7.8860   -0.8210   29.9130 C   0  0  0  0  0  0  0  0  0  0  0  0
    8.5810    0.3580   29.9660 C   0  0  0  0  0  0  0  0  0  0  0  0
    9.2580    0.7940   31.1440 N   0  0  0  0  0  0  0  0  0  0  0  0
    8.5680    0.8710   32.3970 C   0  0  0  0  0  0  0  0  0  0  0  0
    7.3100    0.8760   32.5990 O   0  0  0  0  0  0  0  0  0  0  0  0
    9.3910    0.9370   33.5020 C   0  0  0  0  0  0  0  0  0  0  0  0
    8.9670    0.5170   34.7470 C   0  0  0  0  0  0  0  0  0  0  0  0
    8.7900    1.4200   35.8000 C   0  0  0  0  0  0  0  0  0  0  0  0
    8.6760    2.7270   35.3610 O   0  0  0  0  0  0  0  0  0  0  0  0
    9.7170    3.6530   35.3550 C   0  0  0  0  0  0  0  0  0  0  0  0
   10.5450    3.7020   36.4950 C   0  0  0  0  0  0  0  0  0  0  0  0
   11.6180    4.5890   36.5920 C   0  0  0  0  0  0  0  0  0  0  0  0
   11.9470    5.5290   35.5050 C   0  0  0  0  0  0  0  0  0  0  0  0
   11.0870    5.5160   34.2650 C   0  0  0  0  0  0  0  0  0  0  0  0
    9.9510    4.5250   34.2460 C   0  0  0  0  0  0  0  0  0  0  0  0
    9.0310    4.4130   33.0750 C   0  0  0  0  0  0  0  0  0  0  0  0
    8.5870    1.0950   28.7920 C   0  0  0  0  0  0  0  0  0  0  0  0
    7.8850    0.6230   27.5470 C   0  0  0  0  0  0  0  0  0  0  0  0
    6.1160   -5.0540   23.7370 C   0  0  0  0  0  0  0  0  0  0  0  0
    6.6320   -5.3880   22.3930 C   0  0  0  0  0  0  0  0  0  0  0  0
  1  2  1  0
  2  3  2  0
  2  4  1  0
  4  5  1  0
  5  6  1  0
  6  7  1  0
  7  8  1  0
  8  9  2  0
  8 10  1  0
 10 11  1  0
 11 12  1  0
 12 13  2  0
 13 14  1  0
 14 15  2  0
 15 16  1  0
 16 17  1  0
 17 18  2  0
 17 19  1  0
 19 20  1  0
 20 21  1  0
 21 22  1  0
 22 23  1  0
 23 24  2  0
 24 25  1  0
 25 26  2  0
 26 27  1  0
 23 28  1  0
 27 28  2  0
 28 29  1  0
 15 30  1  0
 12 31  1  0
 30 31  2  0
  7 32  1  0
  4 33  1  0
 32 33  1  0
M  END
