piperidine-amides-23783-covalent
     RDKit          3D

 24 26  0  0  0  0  0  0  0  0999 V2000
    7.1390   -3.2840   19.2520 C   0  0  0  0  0  0  0  0  0  0  0  0
    6.4210   -4.0660   20.2700 C   0  0  0  0  0  0  0  0  0  0  0  0
    5.3330   -4.5870   19.9090 O   0  0  0  0  0  0  0  0  0  0  0  0
    6.9640   -4.2760   21.5690 N   0  0  0  0  0  0  0  0  0  0  0  0
    7.6980   -3.2180   22.1970 C   0  0  0  0  0  0  0  0  0  0  0  0
    7.1440   -2.9000   23.4930 C   0  0  0  0  0  0  0  0  0  0  0  0
    5.9020   -3.6600   23.6640 C   0  0  0  0  0  0  0  0  0  0  0  0
    5.0900   -3.2770   24.8610 C   0  0  0  0  0  0  0  0  0  0  0  0
    3.8890   -3.0240   24.6890 O   0  0  0  0  0  0  0  0  0  0  0  0
    5.5730   -3.1810   26.1660 N   0  0  0  0  0  0  0  0  0  0  0  0
    5.8870   -4.3250   26.9700 C   0  0  0  0  0  0  0  0  0  0  0  0
    5.0130   -5.4980   27.0140 C   0  0  0  0  0  0  0  0  0  0  0  0
    4.3530   -5.7450   25.6900 C   0  0  0  0  0  0  0  0  0  0  0  0
    3.4960   -6.7640   25.4550 C   0  0  0  0  0  0  0  0  0  0  0  0
    3.1740   -7.7280   26.6090 C   0  0  0  0  0  0  0  0  0  0  0  0
    3.8290   -7.5010   27.9730 C   0  0  0  0  0  0  0  0  0  0  0  0
    4.8120   -6.3180   28.1990 C   0  0  0  0  0  0  0  0  0  0  0  0
    5.4560   -6.0140   29.3620 F   0  0  0  0  0  0  0  0  0  0  0  0
    5.3920   -2.0040   26.9720 C   0  0  0  0  0  0  0  0  0  0  0  0
    4.1390   -1.1630   26.7900 C   0  0  0  0  0  0  0  0  0  0  0  0
    4.1620    0.2010   27.0860 C   0  0  0  0  0  0  0  0  0  0  0  0
    3.2590   -0.6900   27.9950 C   0  0  0  0  0  0  0  0  0  0  0  0
    6.0920   -5.1390   23.5380 C   0  0  0  0  0  0  0  0  0  0  0  0
    6.6480   -5.4740   22.3070 C   0  0  0  0  0  0  0  0  0  0  0  0
  1  2  1  0
  2  3  2  0
  2  4  1  0
  4  5  1  0
  5  6  1  0
  6  7  1  0
  7  8  1  0
  8  9  2  0
  8 10  1  0
 10 11  1  0
 11 12  1  0
 12 13  2  0
 13 14  1  0
 14 15  2  0
 15 16  1  0
 12 17  1  0
 16 17  2  0
 17 18  1  0
 10 19  1  0
 19 20  1  0
 20 21  1  0
 20 22  1  0
 21 22  1  0
  7 23  1  0
  4 24  1  0
 23 24  1  0
M  END
