piperidine-amides-4721-covalent
     RDKit          3D

 24 25  0  0  0  0  0  0  0  0999 V2000
    7.1220   -3.3040   19.2300 C   0  0  0  0  0  0  0  0  0  0  0  0
    6.3630   -4.0370   20.2640 C   0  0  0  0  0  0  0  0  0  0  0  0
    5.2880   -4.5490   19.8940 O   0  0  0  0  0  0  0  0  0  0  0  0
    6.8650   -4.1910   21.5700 N   0  0  0  0  0  0  0  0  0  0  0  0
    7.7000   -3.1880   22.1420 C   0  0  0  0  0  0  0  0  0  0  0  0
    7.2940   -2.8610   23.4980 C   0  0  0  0  0  0  0  0  0  0  0  0
    6.0010   -3.4830   23.8380 C   0  0  0  0  0  0  0  0  0  0  0  0
    5.5770   -3.1210   25.2070 C   0  0  0  0  0  0  0  0  0  0  0  0
    4.7190   -2.2310   25.3410 O   0  0  0  0  0  0  0  0  0  0  0  0
    6.1000   -3.7650   26.3250 N   0  0  0  0  0  0  0  0  0  0  0  0
    5.6420   -5.1140   26.7220 C   0  0  0  0  0  0  0  0  0  0  0  0
    5.5720   -5.2240   28.1910 C   0  0  0  0  0  0  0  0  0  0  0  0
    6.6390   -5.8570   28.9590 C   0  0  0  0  0  0  0  0  0  0  0  0
    6.3670   -4.4040   29.0780 C   0  0  0  0  0  0  0  0  0  0  0  0
    4.4190   -5.7370   28.8560 N   0  0  0  0  0  0  0  0  0  0  0  0
    3.3990   -4.8190   29.3210 C   0  0  0  0  0  0  0  0  0  0  0  0
    2.3040   -5.4750   29.8160 C   0  0  0  0  0  0  0  0  0  0  0  0
    2.4990   -6.5590   30.6340 C   0  0  0  0  0  0  0  0  0  0  0  0
    3.7090   -7.1870   30.6380 C   0  0  2  0  0  0  0  0  0  0  0  0
    4.6390   -6.7050   31.5620 C   0  0  0  0  0  0  0  0  0  0  0  0
    5.5610   -7.6630   32.2030 C   0  0  0  0  0  0  0  0  0  0  0  0
    4.3790   -7.0830   29.2900 C   0  0  0  0  0  0  0  0  0  0  0  0
    6.0350   -5.0050   23.6000 C   0  0  0  0  0  0  0  0  0  0  0  0
    6.6180   -5.3820   22.3580 C   0  0  0  0  0  0  0  0  0  0  0  0
  1  2  1  0
  2  3  2  0
  2  4  1  0
  4  5  1  0
  5  6  1  0
  6  7  1  0
  7  8  1  0
  8  9  2  0
  8 10  1  0
 10 11  1  0
 12 11  1  0
 12 13  1  0
 12 14  1  0
 12 15  1  0
 15 16  1  0
 16 17  1  0
 17 18  1  0
 18 19  1  0
 19 20  1  1
 20 21  1  0
 15 22  1  0
 19 22  1  0
  7 23  1  0
  4 24  1  0
 23 24  1  0
M  END
