piperidine-amides-21630-covalent
     RDKit          3D

 23 25  0  0  0  0  0  0  0  0999 V2000
    7.0430   -3.3620   19.3620 C   0  0  0  0  0  0  0  0  0  0  0  0
    6.4150   -4.2130   20.3770 C   0  0  0  0  0  0  0  0  0  0  0  0
    5.4020   -4.8640   19.9930 O   0  0  0  0  0  0  0  0  0  0  0  0
    6.9570   -4.3150   21.6680 N   0  0  0  0  0  0  0  0  0  0  0  0
    7.7670   -3.2670   22.2610 C   0  0  0  0  0  0  0  0  0  0  0  0
    6.9180   -2.5970   23.2930 C   0  0  0  0  0  0  0  0  0  0  0  0
    6.0410   -3.6110   23.9620 C   0  0  0  0  0  0  0  0  0  0  0  0
    5.5650   -3.1430   25.2920 C   0  0  0  0  0  0  0  0  0  0  0  0
    4.3510   -2.8770   25.3590 O   0  0  0  0  0  0  0  0  0  0  0  0
    6.3290   -3.0050   26.4800 N   0  0  0  0  0  0  0  0  0  0  0  0
    6.6680   -4.2710   27.0970 C   0  0  0  0  0  0  0  0  0  0  0  0
    5.8890   -1.9240   27.3840 C   0  0  1  0  0  0  0  0  0  0  0  0
    6.8470   -1.5040   28.2730 C   0  0  0  0  0  0  0  0  0  0  0  0
    6.5640   -0.2400   28.6850 C   0  0  0  0  0  0  0  0  0  0  0  0
    5.8310    0.3290   27.6650 C   0  0  0  0  0  0  0  0  0  0  0  0
    5.3770   -0.7070   26.8450 C   0  0  2  0  0  0  0  0  0  0  0  0
    4.0420   -0.6300   26.6830 N   0  0  0  0  0  0  0  0  0  0  0  0
    3.1540   -1.6490   26.8640 C   0  0  0  0  0  0  0  0  0  0  0  0
    1.8000   -1.1020   26.5830 C   0  0  0  0  0  0  0  0  0  0  0  0
    2.2310    0.3090   26.2510 C   0  0  0  0  0  0  0  0  0  0  0  0
    3.6240    0.6050   26.3130 N   0  0  0  0  0  0  0  0  0  0  0  0
    6.7010   -4.9960   23.9650 C   0  0  0  0  0  0  0  0  0  0  0  0
    6.6140   -5.4590   22.5130 C   0  0  0  0  0  0  0  0  0  0  0  0
  1  2  1  0
  2  3  2  0
  2  4  1  0
  4  5  1  0
  5  6  1  0
  6  7  1  0
  7  8  1  0
  8  9  2  0
  8 10  1  0
 10 11  1  0
 12 10  1  6
 12 13  1  0
 13 14  1  0
 14 15  1  0
 12 16  1  0
 15 16  1  0
 16 17  1  1
 17 18  1  0
 18 19  2  0
 19 20  1  0
 17 21  1  0
 20 21  2  0
  7 22  1  0
  4 23  1  0
 22 23  1  0
M  END
