piperidine-amides-29811-covalent
     RDKit          3D

 26 27  0  0  0  0  0  0  0  0999 V2000
    7.0980   -3.2770   19.1760 C   0  0  0  0  0  0  0  0  0  0  0  0
    6.3580   -4.0210   20.1900 C   0  0  0  0  0  0  0  0  0  0  0  0
    5.2950   -4.5620   19.8940 O   0  0  0  0  0  0  0  0  0  0  0  0
    6.8920   -4.1810   21.5120 N   0  0  0  0  0  0  0  0  0  0  0  0
    7.6980   -3.1410   22.1040 C   0  0  0  0  0  0  0  0  0  0  0  0
    7.0570   -2.6430   23.3630 C   0  0  0  0  0  0  0  0  0  0  0  0
    6.5330   -3.8370   24.1460 C   0  0  0  0  0  0  0  0  0  0  0  0
    5.7300   -3.3700   25.3060 C   0  0  0  0  0  0  0  0  0  0  0  0
    4.4980   -3.1840   25.2090 O   0  0  0  0  0  0  0  0  0  0  0  0
    6.3430   -3.1220   26.5590 N   0  0  0  0  0  0  0  0  0  0  0  0
    6.5980   -1.7060   26.7710 C   0  0  0  0  0  0  0  0  0  0  0  0
    6.2900   -1.3030   28.1920 C   0  0  0  0  0  0  0  0  0  0  0  0
    7.2990   -1.1720   29.1520 C   0  0  0  0  0  0  0  0  0  0  0  0
    7.0140   -0.7850   30.4740 C   0  0  0  0  0  0  0  0  0  0  0  0
    5.7150   -0.5320   30.8330 C   0  0  0  0  0  0  0  0  0  0  0  0
    4.6870   -0.6730   29.8390 C   0  0  0  0  0  0  0  0  0  0  0  0
    4.9810   -1.0480   28.5590 C   0  0  0  0  0  0  0  0  0  0  0  0
    5.9460   -3.9280   27.7140 C   0  0  2  0  0  0  0  0  0  0  0  0
    6.6580   -4.8630   28.4730 C   0  0  0  0  0  0  0  0  0  0  0  0
    5.8420   -5.3970   29.4400 O   0  0  0  0  0  0  0  0  0  0  0  0
    5.7550   -5.3680   27.4290 C   0  0  0  0  0  0  0  0  0  0  0  0
    6.6190   -6.3170   27.8790 F   0  0  0  0  0  0  0  0  0  0  0  0
    4.5150   -5.7560   27.8960 F   0  0  0  0  0  0  0  0  0  0  0  0
    5.8040   -5.4920   26.0520 F   0  0  0  0  0  0  0  0  0  0  0  0
    5.7220   -4.8140   23.3110 C   0  0  0  0  0  0  0  0  0  0  0  0
    6.5300   -5.3160   22.3020 C   0  0  0  0  0  0  0  0  0  0  0  0
  1  2  1  0
  2  3  2  0
  2  4  1  0
  4  5  1  0
  5  6  1  0
  6  7  1  0
  7  8  1  0
  8  9  2  0
  8 10  1  0
 10 11  1  0
 11 12  1  0
 12 13  2  0
 13 14  1  0
 14 15  2  0
 15 16  1  0
 12 17  1  0
 16 17  2  0
 10 18  1  0
 18 19  1  1
 19 20  1  0
 18 21  1  0
 21 22  1  0
 21 23  1  0
 21 24  1  0
  7 25  1  0
  4 26  1  0
 25 26  1  0
M  END
