piperidine-amides-13452-covalent
     RDKit          3D

 23 24  0  0  0  0  0  0  0  0999 V2000
    7.1700   -3.2820   19.2620 C   0  0  0  0  0  0  0  0  0  0  0  0
    6.3580   -4.0600   20.2320 C   0  0  0  0  0  0  0  0  0  0  0  0
    5.2670   -4.5280   19.8800 O   0  0  0  0  0  0  0  0  0  0  0  0
    6.8930   -4.2940   21.5130 N   0  0  0  0  0  0  0  0  0  0  0  0
    7.6260   -3.2650   22.1880 C   0  0  0  0  0  0  0  0  0  0  0  0
    6.6610   -2.7270   23.2400 C   0  0  0  0  0  0  0  0  0  0  0  0
    6.1610   -3.8950   24.0430 C   0  0  0  0  0  0  0  0  0  0  0  0
    5.3200   -3.4530   25.1840 C   0  0  0  0  0  0  0  0  0  0  0  0
    4.4580   -2.6050   24.9300 O   0  0  0  0  0  0  0  0  0  0  0  0
    5.5020   -3.9780   26.4650 N   0  0  0  0  0  0  0  0  0  0  0  0
    6.5180   -4.8610   26.8730 C   0  0  0  0  0  0  0  0  0  0  0  0
    7.8060   -4.6870   26.5060 C   0  0  1  0  0  0  0  0  0  0  0  0
    8.0690   -3.4740   25.8890 C   0  0  0  0  0  0  0  0  0  0  0  0
    7.7660   -2.4600   26.8810 N   0  0  0  0  0  0  0  0  0  0  0  0
    6.8260   -1.4800   26.8720 C   0  0  0  0  0  0  0  0  0  0  0  0
    6.5930   -0.6770   28.1010 C   0  0  0  0  0  0  0  0  0  0  0  0
    8.3490   -2.7760   28.1600 C   0  0  0  0  0  0  0  0  0  0  0  0
    8.5930   -1.8520   29.1640 O   0  0  0  0  0  0  0  0  0  0  0  0
    8.6900   -4.0680   28.4290 N   0  0  0  0  0  0  0  0  0  0  0  0
    8.7690   -4.9130   27.3840 C   0  0  0  0  0  0  0  0  0  0  0  0
    9.7180   -5.8880   27.1970 O   0  0  0  0  0  0  0  0  0  0  0  0
    5.3430   -4.8610   23.1710 C   0  0  0  0  0  0  0  0  0  0  0  0
    6.3460   -5.4110   22.2260 C   0  0  0  0  0  0  0  0  0  0  0  0
  1  2  1  0
  2  3  2  0
  2  4  1  0
  4  5  1  0
  5  6  1  0
  6  7  1  0
  7  8  1  0
  8  9  2  0
  8 10  1  0
 10 11  1  0
 12 11  1  1
 12 13  1  0
 13 14  1  0
 14 15  1  0
 15 16  1  0
 14 17  1  0
 17 18  2  0
 17 19  1  0
 12 20  1  0
 19 20  1  0
 20 21  2  0
  7 22  1  0
  4 23  1  0
 22 23  1  0
M  END
