piperidine-amides-34166-covalent
     RDKit          3D

 25 27  0  0  0  0  0  0  0  0999 V2000
    7.0620   -3.3500   19.4390 C   0  0  0  0  0  0  0  0  0  0  0  0
    6.3600   -4.1960   20.4170 C   0  0  0  0  0  0  0  0  0  0  0  0
    5.4380   -4.9460   20.0150 O   0  0  0  0  0  0  0  0  0  0  0  0
    6.7410   -4.1970   21.7780 N   0  0  0  0  0  0  0  0  0  0  0  0
    6.5840   -5.4180   22.5380 C   0  0  0  0  0  0  0  0  0  0  0  0
    5.8720   -5.0270   23.8420 C   0  0  0  0  0  0  0  0  0  0  0  0
    5.8120   -3.5180   23.8130 C   0  0  0  0  0  0  0  0  0  0  0  0
    5.0160   -2.9410   24.9530 C   0  0  0  0  0  0  0  0  0  0  0  0
    3.7870   -2.9140   24.8040 O   0  0  0  0  0  0  0  0  0  0  0  0
    5.5790   -2.4660   26.1650 N   0  0  0  0  0  0  0  0  0  0  0  0
    6.4500   -3.2910   26.8060 C   0  0  0  0  0  0  0  0  0  0  0  0
    5.7590   -1.0580   26.4310 C   0  0  0  0  0  0  0  0  0  0  0  0
    5.5970   -0.7990   27.7770 C   0  0  0  0  0  0  0  0  0  0  0  0
    5.6840    0.4560   28.3410 C   0  0  0  0  0  0  0  0  0  0  0  0
    5.4590    0.6470   29.7130 C   0  0  0  0  0  0  0  0  0  0  0  0
    4.3650    1.2520   30.3190 C   0  0  0  0  0  0  0  0  0  0  0  0
    4.4240    1.3070   32.0830 S   0  0  0  0  0  0  0  0  0  0  0  0
    5.9790    0.4940   32.1380 C   0  0  0  0  0  0  0  0  0  0  0  0
    6.4570    0.1760   30.7360 C   0  0  0  0  0  0  0  0  0  0  0  0
    8.0750   -0.6950   30.3490 Br  0  0  0  0  0  0  0  0  0  0  0  0
    5.9770    1.5140   27.4490 N   0  0  0  0  0  0  0  0  0  0  0  0
    6.1640    1.2570   26.0140 C   0  0  0  0  0  0  0  0  0  0  0  0
    6.0350   -0.0090   25.6150 N   0  0  0  0  0  0  0  0  0  0  0  0
    7.2120   -2.9790   23.6810 C   0  0  0  0  0  0  0  0  0  0  0  0
    7.5900   -3.1390   22.3240 C   0  0  0  0  0  0  0  0  0  0  0  0
  1  2  1  0
  2  3  2  0
  2  4  1  0
  4  5  1  0
  5  6  1  0
  6  7  1  0
  7  8  1  0
  8  9  2  0
  8 10  1  0
 10 11  1  0
 10 12  1  0
 12 13  2  0
 13 14  1  0
 14 15  1  0
 15 16  2  0
 16 17  1  0
 17 18  1  0
 15 19  1  0
 18 19  2  0
 19 20  1  0
 14 21  2  0
 21 22  1  0
 12 23  1  0
 22 23  2  0
  7 24  1  0
  4 25  1  0
 24 25  1  0
M  END
