piperidine-amides-2030-covalent
     RDKit          3D

 27 28  0  0  0  0  0  0  0  0999 V2000
    7.1520   -3.2890   19.1790 C   0  0  0  0  0  0  0  0  0  0  0  0
    6.3650   -4.0250   20.1940 C   0  0  0  0  0  0  0  0  0  0  0  0
    5.2740   -4.4760   19.8550 O   0  0  0  0  0  0  0  0  0  0  0  0
    6.9090   -4.2310   21.4560 N   0  0  0  0  0  0  0  0  0  0  0  0
    7.7250   -3.2370   22.0960 C   0  0  0  0  0  0  0  0  0  0  0  0
    6.9920   -2.7250   23.2880 C   0  0  0  0  0  0  0  0  0  0  0  0
    6.6040   -3.8990   24.1880 C   0  0  0  0  0  0  0  0  0  0  0  0
    5.8530   -3.3200   25.2990 C   0  0  0  0  0  0  0  0  0  0  0  0
    4.6410   -3.0790   25.1690 O   0  0  0  0  0  0  0  0  0  0  0  0
    6.5020   -3.0460   26.5030 N   0  0  0  0  0  0  0  0  0  0  0  0
    5.7730   -3.3290   27.6980 C   0  0  1  0  0  0  0  0  0  0  0  0
    6.7860   -3.9690   28.6010 C   0  0  0  0  0  0  0  0  0  0  0  0
    7.7780   -4.7630   28.1600 C   0  0  0  0  0  0  0  0  0  0  0  0
    7.8180   -5.9890   28.4510 O   0  0  0  0  0  0  0  0  0  0  0  0
    8.7540   -4.2070   27.3950 O   0  0  0  0  0  0  0  0  0  0  0  0
    9.8890   -4.9400   27.0160 C   0  0  0  0  0  0  0  0  0  0  0  0
    9.3350   -5.9540   26.3170 C   0  0  0  0  0  0  0  0  0  0  0  0
    5.0800   -2.2830   28.2820 C   0  0  0  0  0  0  0  0  0  0  0  0
    5.1460   -2.2680   29.7790 C   0  0  0  0  0  0  0  0  0  0  0  0
    4.5470   -0.9250   30.0960 C   0  0  0  0  0  0  0  0  0  0  0  0
    3.0810   -1.1920   30.1700 C   0  0  0  0  0  0  0  0  0  0  0  0
    2.2530   -0.1040   30.1520 F   0  0  0  0  0  0  0  0  0  0  0  0
    2.8760   -1.8050   31.3910 F   0  0  0  0  0  0  0  0  0  0  0  0
    2.7520   -2.2590   29.1750 C   0  0  0  0  0  0  0  0  0  0  0  0
    3.6160   -2.4050   27.9310 C   0  0  0  0  0  0  0  0  0  0  0  0
    5.7540   -4.9040   23.4360 C   0  0  0  0  0  0  0  0  0  0  0  0
    6.5340   -5.3780   22.2430 C   0  0  0  0  0  0  0  0  0  0  0  0
  1  2  1  0
  2  3  2  0
  2  4  1  0
  4  5  1  0
  5  6  1  0
  6  7  1  0
  7  8  1  0
  8  9  2  0
  8 10  1  0
 10 11  1  0
 11 12  1  1
 12 13  1  0
 13 14  2  0
 13 15  1  0
 15 16  1  0
 16 17  1  0
 11 18  1  0
 18 19  1  0
 19 20  1  0
 20 21  1  0
 21 22  1  0
 21 23  1  0
 21 24  1  0
 18 25  1  0
 24 25  1  0
  7 26  1  0
  4 27  1  0
 26 27  1  0
M  END
