piperidine-amides-3768-covalent
     RDKit          3D

 21 23  0  0  0  0  0  0  0  0999 V2000
    7.1410   -3.2670   19.2070 C   0  0  0  0  0  0  0  0  0  0  0  0
    6.3950   -4.0320   20.2160 C   0  0  0  0  0  0  0  0  0  0  0  0
    5.2890   -4.5100   19.8710 O   0  0  0  0  0  0  0  0  0  0  0  0
    6.9340   -4.2780   21.5000 N   0  0  0  0  0  0  0  0  0  0  0  0
    7.5790   -3.1940   22.1510 C   0  0  0  0  0  0  0  0  0  0  0  0
    7.0750   -2.8730   23.4820 C   0  0  0  0  0  0  0  0  0  0  0  0
    6.3900   -3.9630   24.2300 C   0  0  0  0  0  0  0  0  0  0  0  0
    5.6460   -3.4140   25.4090 C   0  0  0  0  0  0  0  0  0  0  0  0
    4.4010   -3.4620   25.4040 O   0  0  0  0  0  0  0  0  0  0  0  0
    6.3000   -2.8470   26.5220 N   0  0  0  0  0  0  0  0  0  0  0  0
    6.5530   -1.4740   26.7610 C   0  0  0  0  0  0  0  0  0  0  0  0
    5.9190   -0.7160   27.8360 C   0  0  2  0  0  0  0  0  0  0  0  0
    6.3760   -1.2100   29.2000 C   0  0  0  0  0  0  0  0  0  0  0  0
    5.3770   -0.9090   30.1100 C   0  0  0  0  0  0  0  0  0  0  0  0
    4.4030   -1.7790   29.2810 C   0  0  0  0  0  0  0  0  0  0  0  0
    4.4530   -0.8910   28.0690 C   0  0  1  0  0  0  0  0  0  0  0  0
    3.7330    0.2910   28.2300 O   0  0  0  0  0  0  0  0  0  0  0  0
    4.6300    1.2640   28.0250 C   0  0  0  0  0  0  0  0  0  0  0  0
    6.0240    0.8020   27.7370 C   0  0  0  0  0  0  0  0  0  0  0  0
    5.5130   -4.8100   23.3370 C   0  0  0  0  0  0  0  0  0  0  0  0
    6.4050   -5.3790   22.2350 C   0  0  0  0  0  0  0  0  0  0  0  0
  1  2  1  0
  2  3  2  0
  2  4  1  0
  4  5  1  0
  5  6  1  0
  6  7  1  0
  7  8  1  0
  8  9  2  0
  8 10  1  0
 10 11  1  0
 12 11  1  6
 12 13  1  0
 13 14  1  0
 14 15  1  0
 12 16  1  0
 16 15  1  1
 16 17  1  0
 17 18  1  0
 12 19  1  0
 18 19  1  0
  7 20  1  0
  4 21  1  0
 20 21  1  0
M  END
