piperidine-amides-1329-covalent
     RDKit          3D

 22 24  0  0  0  0  0  0  0  0999 V2000
    7.0770   -3.2680   19.2190 C   0  0  0  0  0  0  0  0  0  0  0  0
    6.3030   -4.0600   20.2210 C   0  0  0  0  0  0  0  0  0  0  0  0
    5.2530   -4.6160   19.8850 O   0  0  0  0  0  0  0  0  0  0  0  0
    6.8090   -4.1880   21.5210 N   0  0  0  0  0  0  0  0  0  0  0  0
    7.6420   -3.1580   22.0950 C   0  0  0  0  0  0  0  0  0  0  0  0
    7.3370   -3.1450   23.5770 C   0  0  0  0  0  0  0  0  0  0  0  0
    5.9430   -3.5920   23.7380 C   0  0  0  0  0  0  0  0  0  0  0  0
    5.4380   -3.3360   25.1000 C   0  0  0  0  0  0  0  0  0  0  0  0
    4.3840   -2.6980   25.1830 O   0  0  0  0  0  0  0  0  0  0  0  0
    6.1370   -3.7980   26.2120 N   0  0  0  0  0  0  0  0  0  0  0  0
    6.0420   -5.0840   26.8100 C   0  0  2  0  0  0  0  0  0  0  0  0
    4.9040   -5.8460   27.0890 C   0  0  2  0  0  0  0  0  0  0  0  0
    3.6020   -5.3190   26.9000 C   0  0  0  0  0  0  0  0  0  0  0  0
    2.6470   -5.6310   27.8450 C   0  0  0  0  0  0  0  0  0  0  0  0
    3.0610   -5.6100   29.2550 C   0  0  0  0  0  0  0  0  0  0  0  0
    4.3800   -5.6470   29.3170 O   0  0  0  0  0  0  0  0  0  0  0  0
    5.2770   -6.1290   28.4230 C   0  0  2  0  0  0  0  0  0  0  0  0
    6.4520   -5.2260   28.1250 C   0  0  0  0  0  0  0  0  0  0  0  0
    6.5070   -3.9920   28.7300 C   0  0  0  0  0  0  0  0  0  0  0  0
    7.6890   -5.9860   28.3620 C   0  0  0  0  0  0  0  0  0  0  0  0
    5.7330   -5.0240   23.3650 C   0  0  0  0  0  0  0  0  0  0  0  0
    6.5360   -5.3620   22.3060 C   0  0  0  0  0  0  0  0  0  0  0  0
  1  2  1  0
  2  3  2  0
  2  4  1  0
  4  5  1  0
  5  6  1  0
  6  7  1  0
  7  8  1  0
  8  9  2  0
  8 10  1  0
 11 10  1  1
 11 12  1  0
 12 13  1  1
 13 14  1  0
 14 15  1  0
 15 16  1  0
 12 17  1  0
 17 16  1  1
 11 18  1  0
 17 18  1  0
 18 19  1  0
 18 20  1  0
  7 21  1  0
  4 22  1  0
 21 22  1  0
M  END
