piperidine-amides-21645-covalent
     RDKit          3D

 23 24  0  0  0  0  0  0  0  0999 V2000
    7.0340   -3.3350   19.3580 C   0  0  0  0  0  0  0  0  0  0  0  0
    6.3120   -4.1130   20.3700 C   0  0  0  0  0  0  0  0  0  0  0  0
    5.3270   -4.7750   19.9580 O   0  0  0  0  0  0  0  0  0  0  0  0
    6.7370   -4.1360   21.7050 N   0  0  0  0  0  0  0  0  0  0  0  0
    7.6420   -3.1330   22.2230 C   0  0  0  0  0  0  0  0  0  0  0  0
    7.4240   -3.0340   23.6990 C   0  0  0  0  0  0  0  0  0  0  0  0
    6.1140   -3.6800   24.0590 C   0  0  0  0  0  0  0  0  0  0  0  0
    5.6190   -3.3230   25.4240 C   0  0  0  0  0  0  0  0  0  0  0  0
    4.3810   -3.1940   25.5390 O   0  0  0  0  0  0  0  0  0  0  0  0
    6.3990   -3.1120   26.5950 N   0  0  0  0  0  0  0  0  0  0  0  0
    6.3850   -4.1100   27.6540 C   0  0  0  0  0  0  0  0  0  0  0  0
    6.3060   -5.5590   27.1880 C   0  0  0  0  0  0  0  0  0  0  0  0
    5.3180   -6.4240   27.5770 C   0  0  0  0  0  0  0  0  0  0  0  0
    6.4220   -1.8160   27.2430 C   0  0  0  0  0  0  0  0  0  0  0  0
    6.8930   -1.5800   28.4760 N   0  0  0  0  0  0  0  0  0  0  0  0
    6.8880   -0.3880   29.0540 C   0  0  0  0  0  0  0  0  0  0  0  0
    7.3880   -0.2120   30.3300 C   0  0  0  0  0  0  0  0  0  0  0  0
    6.3760    0.6980   28.3750 C   0  0  0  0  0  0  0  0  0  0  0  0
    5.8710    0.6160   27.1270 N   0  0  0  0  0  0  0  0  0  0  0  0
    5.8660   -0.6490   26.4880 C   0  0  0  0  0  0  0  0  0  0  0  0
    5.3030   -0.7860   25.0720 C   0  0  0  0  0  0  0  0  0  0  0  0
    6.1420   -5.1970   23.8210 C   0  0  0  0  0  0  0  0  0  0  0  0
    6.6980   -5.4180   22.4120 C   0  0  0  0  0  0  0  0  0  0  0  0
  1  2  1  0
  2  3  2  0
  2  4  1  0
  4  5  1  0
  5  6  1  0
  6  7  1  0
  7  8  1  0
  8  9  2  0
  8 10  1  0
 10 11  1  0
 11 12  1  0
 12 13  1  0
 10 14  1  0
 14 15  2  0
 15 16  1  0
 16 17  1  0
 16 18  2  0
 18 19  1  0
 14 20  1  0
 19 20  2  0
 20 21  1  0
  7 22  1  0
  4 23  1  0
 22 23  1  0
M  END
