piperidine-amides-18937-covalent
     RDKit          3D

 21 21  0  0  0  0  0  0  0  0999 V2000
    7.0840   -3.2860   19.4190 C   0  0  0  0  0  0  0  0  0  0  0  0
    6.3620   -4.0850   20.3930 C   0  0  0  0  0  0  0  0  0  0  0  0
    5.3900   -4.7890   19.9690 O   0  0  0  0  0  0  0  0  0  0  0  0
    6.7010   -4.1470   21.7730 N   0  0  0  0  0  0  0  0  0  0  0  0
    7.6390   -3.0950   22.2800 C   0  0  0  0  0  0  0  0  0  0  0  0
    7.2790   -2.9110   23.8180 C   0  0  0  0  0  0  0  0  0  0  0  0
    6.1400   -3.8560   24.0950 C   0  0  0  0  0  0  0  0  0  0  0  0
    5.1900   -3.5430   25.3550 C   0  0  0  0  0  0  0  0  0  0  0  0
    4.0510   -3.8360   25.0370 O   0  0  0  0  0  0  0  0  0  0  0  0
    5.7780   -3.0590   26.3900 N   0  0  0  0  0  0  0  0  0  0  0  0
    6.2280   -2.1520   27.3090 C   0  0  0  0  0  0  0  0  0  0  0  0
    6.9210   -0.9920   27.2800 C   0  0  0  0  0  0  0  0  0  0  0  0
    7.1630   -0.3980   28.5440 O   0  0  0  0  0  0  0  0  0  0  0  0
    7.5940   -1.2340   29.5580 C   0  0  0  0  0  0  0  0  0  0  0  0
    6.0560   -4.0730   27.4620 C   0  0  0  0  0  0  0  0  0  0  0  0
    5.8380   -5.5200   26.9350 C   0  0  0  0  0  0  0  0  0  0  0  0
    4.4490   -5.4370   27.0390 C   0  0  0  0  0  0  0  0  0  0  0  0
    5.2450   -3.9050   28.6990 C   0  0  0  0  0  0  0  0  0  0  0  0
    3.8910   -3.1860   28.7130 C   0  0  0  0  0  0  0  0  0  0  0  0
    6.5080   -5.2590   23.7910 C   0  0  0  0  0  0  0  0  0  0  0  0
    6.6160   -5.4240   22.4350 C   0  0  0  0  0  0  0  0  0  0  0  0
  1  2  1  0
  2  3  2  0
  2  4  1  0
  4  5  1  0
  5  6  1  0
  6  7  1  0
  7  8  1  0
  8  9  2  0
  8 10  1  0
 10 11  1  0
 11 12  1  0
 12 13  1  0
 13 14  1  0
 10 15  1  0
 15 16  1  0
 16 17  1  0
 15 18  1  0
 18 19  1  0
  7 20  1  0
  4 21  1  0
 20 21  1  0
M  END
