piperidine-amides-24007-covalent
     RDKit          3D

 24 26  0  0  0  0  0  0  0  0999 V2000
    7.1030   -3.3940   19.4170 C   0  0  0  0  0  0  0  0  0  0  0  0
    6.4200   -4.2500   20.3950 C   0  0  0  0  0  0  0  0  0  0  0  0
    5.3820   -4.8330   19.9910 O   0  0  0  0  0  0  0  0  0  0  0  0
    6.9560   -4.4590   21.7000 N   0  0  0  0  0  0  0  0  0  0  0  0
    6.4610   -5.5150   22.4950 C   0  0  0  0  0  0  0  0  0  0  0  0
    5.9360   -5.1090   23.8110 C   0  0  0  0  0  0  0  0  0  0  0  0
    6.3370   -3.7880   24.3840 C   0  0  0  0  0  0  0  0  0  0  0  0
    5.2730   -3.2680   25.3360 C   0  0  0  0  0  0  0  0  0  0  0  0
    4.2960   -2.7030   24.8340 O   0  0  0  0  0  0  0  0  0  0  0  0
    5.3150   -3.3840   26.7610 N   0  0  0  0  0  0  0  0  0  0  0  0
    4.2270   -3.2580   27.6490 C   0  0  0  0  0  0  0  0  0  0  0  0
    4.2650   -4.0260   28.8890 C   0  0  0  0  0  0  0  0  0  0  0  0
    5.1840   -4.9580   29.0670 N   0  0  0  0  0  0  0  0  0  0  0  0
    5.2910   -6.1980   29.7780 C   0  0  0  0  0  0  0  0  0  0  0  0
    4.2190   -6.6380   30.5110 C   0  0  0  0  0  0  0  0  0  0  0  0
    5.1810   -7.2860   31.5150 C   0  0  0  0  0  0  0  0  0  0  0  0
    3.4320   -7.7540   29.8090 C   0  0  0  0  0  0  0  0  0  0  0  0
    6.5410   -6.6120   29.4850 N   0  0  0  0  0  0  0  0  0  0  0  0
    7.0640   -5.6850   28.6960 N   0  0  0  0  0  0  0  0  0  0  0  0
    6.2770   -4.6630   28.4140 C   0  0  0  0  0  0  0  0  0  0  0  0
    6.4310   -3.3940   27.5760 C   0  0  2  0  0  0  0  0  0  0  0  0
    6.6590   -2.2500   28.5540 C   0  0  0  0  0  0  0  0  0  0  0  0
    6.6350   -2.7320   23.3010 C   0  0  0  0  0  0  0  0  0  0  0  0
    7.6180   -3.3220   22.3520 C   0  0  0  0  0  0  0  0  0  0  0  0
  1  2  1  0
  2  3  2  0
  2  4  1  0
  4  5  1  0
  5  6  1  0
  6  7  1  0
  7  8  1  0
  8  9  2  0
  8 10  1  0
 10 11  1  0
 11 12  1  0
 12 13  1  0
 13 14  1  0
 14 15  1  0
 15 16  1  0
 15 17  1  0
 14 18  2  0
 18 19  1  0
 13 20  1  0
 19 20  2  0
 10 21  1  0
 20 21  1  0
 21 22  1  1
  7 23  1  0
  4 24  1  0
 23 24  1  0
M  END
