piperidine-amides-27527-covalent
     RDKit          3D

 26 29  0  0  0  0  0  0  0  0999 V2000
    7.0480   -3.3390   19.3450 C   0  0  0  0  0  0  0  0  0  0  0  0
    6.4090   -4.1760   20.3660 C   0  0  0  0  0  0  0  0  0  0  0  0
    5.3940   -4.8230   19.9840 O   0  0  0  0  0  0  0  0  0  0  0  0
    6.9330   -4.2830   21.6680 N   0  0  0  0  0  0  0  0  0  0  0  0
    6.6740   -5.4540   22.4620 C   0  0  0  0  0  0  0  0  0  0  0  0
    5.8580   -5.0330   23.6550 C   0  0  0  0  0  0  0  0  0  0  0  0
    6.1290   -3.6080   24.0930 C   0  0  0  0  0  0  0  0  0  0  0  0
    5.6730   -3.4470   25.5210 C   0  0  0  0  0  0  0  0  0  0  0  0
    4.5470   -3.9380   25.7470 O   0  0  0  0  0  0  0  0  0  0  0  0
    6.2830   -2.7700   26.6330 N   0  0  0  0  0  0  0  0  0  0  0  0
    5.3750   -2.0050   27.4420 C   0  0  0  0  0  0  0  0  0  0  0  0
    5.1180   -2.6650   28.8000 C   0  0  0  0  0  0  0  0  0  0  0  0
    5.3760   -3.9580   29.1290 C   0  0  0  0  0  0  0  0  0  0  0  0
    4.6600   -4.7660   29.9960 C   0  0  0  0  0  0  0  0  0  0  0  0
    5.0990   -6.0520   30.1930 C   0  0  0  0  0  0  0  0  0  0  0  0
    6.2150   -6.4460   29.5200 C   0  0  0  0  0  0  0  0  0  0  0  0
    6.8580   -5.5710   28.6780 C   0  0  0  0  0  0  0  0  0  0  0  0
    7.8770   -6.0420   28.1050 N   0  0  0  0  0  0  0  0  0  0  0  0
    7.4880   -6.3370   26.9240 C   0  0  0  0  0  0  0  0  0  0  0  0
    7.6180   -5.3290   25.8510 C   0  0  0  0  0  0  0  0  0  0  0  0
    8.8410   -4.7390   26.3190 C   0  0  0  0  0  0  0  0  0  0  0  0
    9.0520   -5.2720   27.7630 C   0  0  0  0  0  0  0  0  0  0  0  0
    6.4780   -4.3100   28.4380 C   0  0  0  0  0  0  0  0  0  0  0  0
    7.2530   -3.4320   27.4660 C   0  0  0  0  0  0  0  0  0  0  0  0
    7.5470   -3.2160   23.7940 C   0  0  0  0  0  0  0  0  0  0  0  0
    7.7030   -3.1850   22.2570 C   0  0  0  0  0  0  0  0  0  0  0  0
  1  2  1  0
  2  3  2  0
  2  4  1  0
  4  5  1  0
  5  6  1  0
  6  7  1  0
  7  8  1  0
  8  9  2  0
  8 10  1  0
 10 11  1  0
 11 12  1  0
 12 13  1  0
 13 14  2  0
 14 15  1  0
 15 16  2  0
 16 17  1  0
 17 18  1  0
 18 19  1  0
 19 20  1  0
 20 21  1  0
 18 22  1  0
 21 22  1  0
 13 23  1  0
 17 23  2  0
 10 24  1  0
 23 24  1  0
  7 25  1  0
  4 26  1  0
 25 26  1  0
M  END
