piperidine-amides-6955-covalent
     RDKit          3D

 22 23  0  0  0  0  0  0  0  0999 V2000
    7.1270   -3.2670   19.1940 C   0  0  0  0  0  0  0  0  0  0  0  0
    6.3610   -4.0380   20.1860 C   0  0  0  0  0  0  0  0  0  0  0  0
    5.2650   -4.5510   19.8810 O   0  0  0  0  0  0  0  0  0  0  0  0
    6.8810   -4.2600   21.4610 N   0  0  0  0  0  0  0  0  0  0  0  0
    6.6600   -5.5500   22.0880 C   0  0  0  0  0  0  0  0  0  0  0  0
    6.1360   -5.3060   23.5080 C   0  0  0  0  0  0  0  0  0  0  0  0
    5.9740   -3.8160   23.6450 C   0  0  0  0  0  0  0  0  0  0  0  0
    5.4630   -3.5080   24.9670 C   0  0  0  0  0  0  0  0  0  0  0  0
    4.7830   -4.3470   25.5860 O   0  0  0  0  0  0  0  0  0  0  0  0
    5.7320   -2.2500   25.4890 N   0  0  0  0  0  0  0  0  0  0  0  0
    4.6820   -1.5970   26.1710 C   0  0  0  0  0  0  0  0  0  0  0  0
    5.3420   -1.0430   27.3740 C   0  0  0  0  0  0  0  0  0  0  0  0
    5.1590    0.0240   28.2000 C   0  0  0  0  0  0  0  0  0  0  0  0
    6.0160    0.2340   29.2660 C   0  0  0  0  0  0  0  0  0  0  0  0
    7.1100   -0.5950   29.5870 C   0  0  0  0  0  0  0  0  0  0  0  0
    8.0710   -0.1420   30.9830 Cl  0  0  0  0  0  0  0  0  0  0  0  0
    7.3900   -1.7180   28.8120 C   0  0  0  0  0  0  0  0  0  0  0  0
    8.3300   -2.6680   28.8750 O   0  0  0  0  0  0  0  0  0  0  0  0
    8.1800   -3.9550   28.4080 C   0  0  0  0  0  0  0  0  0  0  0  0
    6.5160   -1.9460   27.7110 C   0  0  0  0  0  0  0  0  0  0  0  0
    7.2070   -3.0450   23.4300 C   0  0  0  0  0  0  0  0  0  0  0  0
    7.6920   -3.2700   22.0910 C   0  0  0  0  0  0  0  0  0  0  0  0
  1  2  1  0
  2  3  2  0
  2  4  1  0
  4  5  1  0
  5  6  1  0
  6  7  1  0
  7  8  1  0
  8  9  2  0
  8 10  1  0
 10 11  1  0
 11 12  1  0
 12 13  2  0
 13 14  1  0
 14 15  2  0
 15 16  1  0
 15 17  1  0
 17 18  1  0
 18 19  1  0
 12 20  1  0
 17 20  2  0
  7 21  1  0
  4 22  1  0
 21 22  1  0
M  END
