piperidine-amides-15005-covalent
     RDKit          3D

 20 21  0  0  0  0  0  0  0  0999 V2000
    7.1140   -3.2630   19.1960 C   0  0  0  0  0  0  0  0  0  0  0  0
    6.3790   -4.0180   20.2110 C   0  0  0  0  0  0  0  0  0  0  0  0
    5.3000   -4.5370   19.8810 O   0  0  0  0  0  0  0  0  0  0  0  0
    6.9170   -4.1950   21.5110 N   0  0  0  0  0  0  0  0  0  0  0  0
    6.5020   -5.3470   22.2540 C   0  0  0  0  0  0  0  0  0  0  0  0
    5.6650   -4.8940   23.4130 C   0  0  0  0  0  0  0  0  0  0  0  0
    6.5320   -3.9300   24.1830 C   0  0  0  0  0  0  0  0  0  0  0  0
    5.7620   -3.3480   25.3280 C   0  0  0  0  0  0  0  0  0  0  0  0
    4.5730   -3.1080   25.1200 O   0  0  0  0  0  0  0  0  0  0  0  0
    6.4270   -3.1250   26.5240 N   0  0  0  0  0  0  0  0  0  0  0  0
    6.1080   -3.8400   27.7120 C   0  0  0  0  0  0  0  0  0  0  0  0
    5.4650   -3.0610   28.6720 C   0  0  0  0  0  0  0  0  0  0  0  0
    4.1070   -3.4570   29.1370 N   0  0  0  0  0  0  0  0  0  0  0  0
    3.8900   -2.5050   29.9880 N   0  0  0  0  0  0  0  0  0  0  0  0
    2.8230   -2.1390   30.8720 C   0  0  0  0  0  0  0  0  0  0  0  0
    4.8970   -1.6910   30.0410 C   0  0  0  0  0  0  0  0  0  0  0  0
    6.1590   -1.7910   29.2530 C   0  0  0  0  0  0  0  0  0  0  0  0
    7.4880   -1.0450   29.0710 C   0  0  0  0  0  0  0  0  0  0  0  0
    7.0320   -2.7650   23.4140 C   0  0  0  0  0  0  0  0  0  0  0  0
    7.6180   -3.0910   22.0800 C   0  0  0  0  0  0  0  0  0  0  0  0
  1  2  1  0
  2  3  2  0
  2  4  1  0
  4  5  1  0
  5  6  1  0
  6  7  1  0
  7  8  1  0
  8  9  2  0
  8 10  1  0
 10 11  1  0
 11 12  1  0
 12 13  2  0
 13 14  1  0
 14 15  1  0
 14 16  1  0
 12 17  1  0
 16 17  2  0
 17 18  1  0
  7 19  1  0
  4 20  1  0
 19 20  1  0
M  END
