piperidine-amides-27648-covalent
     RDKit          3D

 26 28  0  0  0  0  0  0  0  0999 V2000
    7.0360   -3.3420   19.3040 C   0  0  0  0  0  0  0  0  0  0  0  0
    6.3480   -4.1730   20.3030 C   0  0  0  0  0  0  0  0  0  0  0  0
    5.2910   -4.7360   19.9350 O   0  0  0  0  0  0  0  0  0  0  0  0
    6.8840   -4.3540   21.5780 N   0  0  0  0  0  0  0  0  0  0  0  0
    6.4860   -5.4850   22.3760 C   0  0  0  0  0  0  0  0  0  0  0  0
    5.8690   -4.9430   23.6350 C   0  0  0  0  0  0  0  0  0  0  0  0
    6.8260   -4.0390   24.3800 C   0  0  0  0  0  0  0  0  0  0  0  0
    6.1670   -3.3880   25.5250 C   0  0  0  0  0  0  0  0  0  0  0  0
    4.9120   -3.3560   25.5710 O   0  0  0  0  0  0  0  0  0  0  0  0
    6.9280   -2.7890   26.5570 N   0  0  0  0  0  0  0  0  0  0  0  0
    7.6110   -3.6570   27.4980 C   0  0  0  0  0  0  0  0  0  0  0  0
    6.9460   -1.3210   26.6670 C   0  0  0  0  0  0  0  0  0  0  0  0
    7.0380   -0.7370   25.4040 C   0  0  0  0  0  0  0  0  0  0  0  0
    8.2380   -0.5100   24.7270 C   0  0  0  0  0  0  0  0  0  0  0  0
    9.4840   -0.2420   25.2830 C   0  0  0  0  0  0  0  0  0  0  0  0
   10.5810   -0.0310   24.4660 C   0  0  0  0  0  0  0  0  0  0  0  0
   10.5050   -0.0760   23.1000 C   0  0  0  0  0  0  0  0  0  0  0  0
    9.2190   -0.3590   22.3690 C   0  0  0  0  0  0  0  0  0  0  0  0
    8.0570   -0.5750   23.3490 C   0  0  0  0  0  0  0  0  0  0  0  0
    5.7740   -0.7110   27.0730 C   0  0  0  0  0  0  0  0  0  0  0  0
    5.8090    0.6650   27.7090 C   0  0  0  0  0  0  0  0  0  0  0  0
    6.6420    0.7810   28.7990 C   0  0  0  0  0  0  0  0  0  0  0  0
    7.3600   -0.5440   28.9990 C   0  0  0  0  0  0  0  0  0  0  0  0
    7.8780   -1.0460   27.6490 C   0  0  0  0  0  0  0  0  0  0  0  0
    7.4210   -2.9940   23.5110 C   0  0  0  0  0  0  0  0  0  0  0  0
    7.7190   -3.3200   22.1130 C   0  0  0  0  0  0  0  0  0  0  0  0
  1  2  1  0
  2  3  2  0
  2  4  1  0
  4  5  1  0
  5  6  1  0
  6  7  1  0
  7  8  1  0
  8  9  2  0
  8 10  1  0
 10 11  1  0
 12 10  1  0
 12 13  1  0
 13 14  1  0
 14 15  2  0
 15 16  1  0
 16 17  2  0
 17 18  1  0
 14 19  1  0
 18 19  2  0
 12 20  1  0
 20 21  1  0
 21 22  1  0
 22 23  1  0
 12 24  1  0
 23 24  1  0
  7 25  1  0
  4 26  1  0
 25 26  1  0
M  END
