piperidine-amides-28008-covalent
     RDKit          3D

 26 28  0  0  0  0  0  0  0  0999 V2000
    7.0580   -3.3650   19.3050 C   0  0  0  0  0  0  0  0  0  0  0  0
    6.4160   -4.2050   20.3370 C   0  0  0  0  0  0  0  0  0  0  0  0
    5.3940   -4.8290   19.9830 O   0  0  0  0  0  0  0  0  0  0  0  0
    6.9760   -4.3230   21.6220 N   0  0  0  0  0  0  0  0  0  0  0  0
    6.6760   -5.4540   22.4570 C   0  0  0  0  0  0  0  0  0  0  0  0
    6.1030   -5.0780   23.7520 C   0  0  0  0  0  0  0  0  0  0  0  0
    6.1920   -3.6300   23.9940 C   0  0  0  0  0  0  0  0  0  0  0  0
    5.5530   -3.2210   25.2690 C   0  0  0  0  0  0  0  0  0  0  0  0
    4.8070   -2.2320   25.2250 O   0  0  0  0  0  0  0  0  0  0  0  0
    5.7250   -3.8920   26.4830 N   0  0  0  0  0  0  0  0  0  0  0  0
    4.6880   -4.7800   26.9950 C   0  0  0  0  0  0  0  0  0  0  0  0
    5.0620   -5.3440   28.3270 C   0  0  0  0  0  0  0  0  0  0  0  0
    5.6390   -4.5010   29.3580 C   0  0  0  0  0  0  0  0  0  0  0  0
    4.9290   -3.3990   29.8060 C   0  0  0  0  0  0  0  0  0  0  0  0
    4.0090   -2.7130   29.0440 C   0  0  0  0  0  0  0  0  0  0  0  0
    3.5980   -1.5160   29.5730 C   0  0  0  0  0  0  0  0  0  0  0  0
    2.3150   -1.1170   29.3190 C   0  0  0  0  0  0  0  0  0  0  0  0
    1.8020    0.0570   29.7980 C   0  0  0  0  0  0  0  0  0  0  0  0
    2.6090    0.8880   30.5790 C   0  0  0  0  0  0  0  0  0  0  0  0
    2.2380    1.9660   31.0560 O   0  0  0  0  0  0  0  0  0  0  0  0
    4.0100    0.5680   30.9220 C   0  0  0  0  0  0  0  0  0  0  0  0
    4.4520   -0.7500   30.3320 C   0  0  0  0  0  0  0  0  0  0  0  0
    6.6690   -4.2580   28.4800 C   0  0  0  0  0  0  0  0  0  0  0  0
    6.3580   -3.2350   27.5620 C   0  0  0  0  0  0  0  0  0  0  0  0
    7.4930   -3.0850   23.6430 C   0  0  0  0  0  0  0  0  0  0  0  0
    7.7900   -3.2370   22.1960 C   0  0  0  0  0  0  0  0  0  0  0  0
  1  2  1  0
  2  3  2  0
  2  4  1  0
  4  5  1  0
  5  6  1  0
  6  7  1  0
  7  8  1  0
  8  9  2  0
  8 10  1  0
 10 11  1  0
 11 12  1  0
 12 13  1  0
 13 14  1  0
 14 15  1  0
 15 16  1  0
 16 17  2  0
 17 18  1  0
 18 19  2  0
 19 20  1  0
 19 21  1  0
 16 22  1  0
 21 22  2  0
 13 23  1  0
 10 24  1  0
 23 24  1  0
  7 25  1  0
  4 26  1  0
 25 26  1  0
M  END
