piperidine-amides-4691-covalent
     RDKit          3D

 24 25  0  0  0  0  0  0  0  0999 V2000
    7.0820   -3.2740   19.2000 C   0  0  0  0  0  0  0  0  0  0  0  0
    6.3280   -4.0130   20.2390 C   0  0  0  0  0  0  0  0  0  0  0  0
    5.2600   -4.5410   19.8750 O   0  0  0  0  0  0  0  0  0  0  0  0
    6.8080   -4.1540   21.5490 N   0  0  0  0  0  0  0  0  0  0  0  0
    7.6250   -3.1380   22.1360 C   0  0  0  0  0  0  0  0  0  0  0  0
    7.4250   -2.9030   23.5720 C   0  0  0  0  0  0  0  0  0  0  0  0
    6.8950   -4.0380   24.3650 C   0  0  0  0  0  0  0  0  0  0  0  0
    6.2410   -3.4970   25.5820 C   0  0  0  0  0  0  0  0  0  0  0  0
    5.0000   -3.3290   25.5700 O   0  0  0  0  0  0  0  0  0  0  0  0
    7.0140   -3.1650   26.7240 N   0  0  0  0  0  0  0  0  0  0  0  0
    7.6510   -4.1670   27.6240 C   0  0  2  0  0  0  0  0  0  0  0  0
    8.5150   -5.1540   26.8990 C   0  0  0  0  0  0  0  0  0  0  0  0
    6.6510   -4.8740   28.4540 C   0  0  0  0  0  0  0  0  0  0  0  0
    5.5330   -4.2060   28.9010 C   0  0  0  0  0  0  0  0  0  0  0  0
    4.5080   -4.7150   29.6780 C   0  0  0  0  0  0  0  0  0  0  0  0
    4.5980   -6.0200   30.0510 C   0  0  0  0  0  0  0  0  0  0  0  0
    3.5160   -6.4640   30.8380 O   0  0  0  0  0  0  0  0  0  0  0  0
    3.1310   -7.8080   30.8560 C   0  0  0  0  0  0  0  0  0  0  0  0
    1.8180   -7.9590   31.1970 C   0  0  0  0  0  0  0  0  0  0  0  0
    1.7430   -7.2700   32.4620 N   0  0  0  0  0  0  0  0  0  0  0  0
    5.6570   -6.8010   29.6780 C   0  0  0  0  0  0  0  0  0  0  0  0
    6.7030   -6.1710   28.8500 C   0  0  0  0  0  0  0  0  0  0  0  0
    5.9430   -4.9210   23.6270 C   0  0  0  0  0  0  0  0  0  0  0  0
    6.5340   -5.3420   22.3160 C   0  0  0  0  0  0  0  0  0  0  0  0
  1  2  1  0
  2  3  2  0
  2  4  1  0
  4  5  1  0
  5  6  1  0
  6  7  1  0
  7  8  1  0
  8  9  2  0
  8 10  1  0
 10 11  1  0
 11 12  1  6
 11 13  1  0
 13 14  2  0
 14 15  1  0
 15 16  2  0
 16 17  1  0
 17 18  1  0
 18 19  1  0
 19 20  3  0
 16 21  1  0
 13 22  1  0
 21 22  2  0
  7 23  1  0
  4 24  1  0
 23 24  1  0
M  END
