piperidine-amides-27310-covalent
     RDKit          3D

 25 26  0  0  0  0  0  0  0  0999 V2000
    7.0300   -3.4100   19.4390 C   0  0  0  0  0  0  0  0  0  0  0  0
    6.3940   -4.2910   20.4240 C   0  0  0  0  0  0  0  0  0  0  0  0
    5.3980   -4.9380   20.0050 O   0  0  0  0  0  0  0  0  0  0  0  0
    6.9120   -4.4230   21.7270 N   0  0  0  0  0  0  0  0  0  0  0  0
    6.6880   -5.6330   22.5080 C   0  0  0  0  0  0  0  0  0  0  0  0
    6.1390   -5.2550   23.8700 C   0  0  0  0  0  0  0  0  0  0  0  0
    6.0030   -3.7680   23.9780 C   0  0  0  0  0  0  0  0  0  0  0  0
    5.3150   -3.2660   25.2060 C   0  0  0  0  0  0  0  0  0  0  0  0
    4.6080   -2.2610   25.0350 O   0  0  0  0  0  0  0  0  0  0  0  0
    5.3300   -3.7560   26.5330 N   0  0  0  0  0  0  0  0  0  0  0  0
    6.3910   -3.3290   27.3690 C   0  0  0  0  0  0  0  0  0  0  0  0
    6.6990   -4.4190   28.3880 C   0  0  0  0  0  0  0  0  0  0  0  0
    5.7550   -4.6250   29.2770 C   0  0  0  0  0  0  0  0  0  0  0  0
    5.7840   -5.7990   30.0790 O   0  0  0  0  0  0  0  0  0  0  0  0
    4.6970   -6.3370   30.6830 C   0  0  0  0  0  0  0  0  0  0  0  0
    4.8790   -7.6080   31.2030 C   0  0  0  0  0  0  0  0  0  0  0  0
    4.4930   -7.6780   32.4930 N   0  0  0  0  0  0  0  0  0  0  0  0
    3.3480   -8.2080   32.9470 C   0  0  0  0  0  0  0  0  0  0  0  0
    3.4280   -9.0780   34.0100 C   0  0  0  0  0  0  0  0  0  0  0  0
    5.1480   -6.8770   33.3320 C   0  0  0  0  0  0  0  0  0  0  0  0
    6.0050   -7.5410   34.4090 C   0  0  0  0  0  0  0  0  0  0  0  0
    4.5270   -4.5110   28.7470 C   0  0  0  0  0  0  0  0  0  0  0  0
    4.4550   -3.4260   27.6730 C   0  0  0  0  0  0  0  0  0  0  0  0
    7.2870   -3.0760   23.7150 C   0  0  0  0  0  0  0  0  0  0  0  0
    7.7120   -3.3560   22.2920 C   0  0  0  0  0  0  0  0  0  0  0  0
  1  2  1  0
  2  3  2  0
  2  4  1  0
  4  5  1  0
  5  6  1  0
  6  7  1  0
  7  8  1  0
  8  9  2  0
  8 10  1  0
 10 11  1  0
 11 12  1  0
 12 13  1  0
 13 14  1  0
 14 15  1  0
 15 16  1  0
 16 17  1  0
 17 18  1  0
 18 19  1  0
 17 20  1  0
 20 21  1  0
 13 22  1  0
 10 23  1  0
 22 23  1  0
  7 24  1  0
  4 25  1  0
 24 25  1  0
M  END
