piperidine-amides-23859-covalent
     RDKit          3D

 24 26  0  0  0  0  0  0  0  0999 V2000
    7.0400   -3.3480   19.3530 C   0  0  0  0  0  0  0  0  0  0  0  0
    6.4100   -4.1870   20.3880 C   0  0  0  0  0  0  0  0  0  0  0  0
    5.4320   -4.8790   20.0030 O   0  0  0  0  0  0  0  0  0  0  0  0
    6.9060   -4.2590   21.7310 N   0  0  0  0  0  0  0  0  0  0  0  0
    6.6790   -5.4620   22.4640 C   0  0  0  0  0  0  0  0  0  0  0  0
    6.1970   -5.1970   23.8030 C   0  0  0  0  0  0  0  0  0  0  0  0
    6.1700   -3.7560   24.0560 C   0  0  0  0  0  0  0  0  0  0  0  0
    5.4870   -3.3890   25.3560 C   0  0  0  0  0  0  0  0  0  0  0  0
    4.2480   -3.5020   25.3560 O   0  0  0  0  0  0  0  0  0  0  0  0
    6.0490   -2.9030   26.5700 N   0  0  0  0  0  0  0  0  0  0  0  0
    5.9990   -3.6560   27.7760 C   0  0  0  0  0  0  0  0  0  0  0  0
    5.0520   -4.7580   27.9130 C   0  0  0  0  0  0  0  0  0  0  0  0
    3.6150   -4.7790   27.4080 C   0  0  0  0  0  0  0  0  0  0  0  0
    3.2120   -6.1210   27.8470 N   0  0  0  0  0  0  0  0  0  0  0  0
    1.8800   -6.5510   27.5570 C   0  0  0  0  0  0  0  0  0  0  0  0
    2.1020   -8.0620   27.5740 C   0  0  0  0  0  0  0  0  0  0  0  0
    4.0450   -6.9380   28.5000 N   0  0  0  0  0  0  0  0  0  0  0  0
    5.1160   -6.1010   28.5200 C   0  0  0  0  0  0  0  0  0  0  0  0
    6.2950   -6.7550   29.2340 C   0  0  0  0  0  0  0  0  0  0  0  0
    5.7560   -1.5860   27.0240 C   0  0  0  0  0  0  0  0  0  0  0  0
    6.2970   -0.4450   26.5050 C   0  0  0  0  0  0  0  0  0  0  0  0
    6.8960   -0.9060   27.8960 C   0  0  0  0  0  0  0  0  0  0  0  0
    7.5160   -3.1890   23.7480 C   0  0  0  0  0  0  0  0  0  0  0  0
    7.6650   -3.1490   22.3400 C   0  0  0  0  0  0  0  0  0  0  0  0
  1  2  1  0
  2  3  2  0
  2  4  1  0
  4  5  1  0
  5  6  1  0
  6  7  1  0
  7  8  1  0
  8  9  2  0
  8 10  1  0
 10 11  1  0
 11 12  1  0
 12 13  2  0
 13 14  1  0
 14 15  1  0
 15 16  1  0
 14 17  1  0
 12 18  1  0
 17 18  2  0
 18 19  1  0
 10 20  1  0
 20 21  1  0
 20 22  1  0
 21 22  1  0
  7 23  1  0
  4 24  1  0
 23 24  1  0
M  END
