piperidine-amides-11034-covalent
     RDKit          3D

 21 22  0  0  0  0  0  0  0  0999 V2000
    7.0800   -3.2820   19.2150 C   0  0  0  0  0  0  0  0  0  0  0  0
    6.3380   -4.0230   20.2430 C   0  0  0  0  0  0  0  0  0  0  0  0
    5.3180   -4.6510   19.9210 O   0  0  0  0  0  0  0  0  0  0  0  0
    6.7860   -4.0660   21.5720 N   0  0  0  0  0  0  0  0  0  0  0  0
    7.7300   -3.0860   22.0690 C   0  0  0  0  0  0  0  0  0  0  0  0
    7.5480   -3.0730   23.5500 C   0  0  0  0  0  0  0  0  0  0  0  0
    6.1710   -3.5250   23.9080 C   0  0  0  0  0  0  0  0  0  0  0  0
    5.8250   -3.2220   25.3120 C   0  0  0  0  0  0  0  0  0  0  0  0
    4.7310   -3.6200   25.8110 O   0  0  0  0  0  0  0  0  0  0  0  0
    6.6960   -2.4700   26.1300 N   0  0  0  0  0  0  0  0  0  0  0  0
    6.2020   -1.7080   27.2960 C   0  0  0  0  0  0  0  0  0  0  0  0
    5.7410   -0.3780   26.8310 C   0  0  0  0  0  0  0  0  0  0  0  0
    6.3230    0.1440   25.8480 O   0  0  0  0  0  0  0  0  0  0  0  0
    5.8040    0.6810   27.8570 C   0  0  0  0  0  0  0  0  0  0  0  0
    5.6780    2.0670   27.2800 C   0  0  0  0  0  0  0  0  0  0  0  0
    4.4800    2.2010   26.3600 C   0  0  0  0  0  0  0  0  0  0  0  0
    3.3390    1.5490   27.0530 C   0  0  0  0  0  0  0  0  0  0  0  0
    3.3260    0.1750   27.0400 C   0  0  0  0  0  0  0  0  0  0  0  0
    4.3250   -0.5220   26.3490 C   0  0  0  0  0  0  0  0  0  0  0  0
    5.9460   -5.0180   23.6270 C   0  0  0  0  0  0  0  0  0  0  0  0
    6.6370   -5.3210   22.2850 C   0  0  0  0  0  0  0  0  0  0  0  0
  1  2  1  0
  2  3  2  0
  2  4  1  0
  4  5  1  0
  5  6  1  0
  6  7  1  0
  7  8  1  0
  8  9  2  0
  8 10  1  0
 10 11  1  0
 11 12  1  0
 12 13  1  0
 12 14  1  0
 14 15  1  0
 15 16  1  0
 16 17  1  0
 17 18  1  0
 12 19  1  0
 18 19  1  0
  7 20  1  0
  4 21  1  0
 20 21  1  0
M  END
