piperidine-amides-13474-covalent
     RDKit          3D

 26 27  0  0  0  0  0  0  0  0999 V2000
    7.0960   -3.2610   19.2470 C   0  0  0  0  0  0  0  0  0  0  0  0
    6.3280   -4.0370   20.2610 C   0  0  0  0  0  0  0  0  0  0  0  0
    5.2850   -4.6110   19.9070 O   0  0  0  0  0  0  0  0  0  0  0  0
    6.8210   -4.1460   21.5810 N   0  0  0  0  0  0  0  0  0  0  0  0
    7.6710   -3.1150   22.1520 C   0  0  0  0  0  0  0  0  0  0  0  0
    7.5280   -3.1310   23.6790 C   0  0  0  0  0  0  0  0  0  0  0  0
    6.1970   -3.7190   23.9950 C   0  0  0  0  0  0  0  0  0  0  0  0
    5.6340   -3.2520   25.2870 C   0  0  0  0  0  0  0  0  0  0  0  0
    4.7610   -2.3800   25.2080 O   0  0  0  0  0  0  0  0  0  0  0  0
    6.0680   -3.7770   26.5140 N   0  0  0  0  0  0  0  0  0  0  0  0
    5.7360   -5.0470   27.0870 C   0  0  1  0  0  0  0  0  0  0  0  0
    5.9630   -5.3370   28.4080 C   0  0  0  0  0  0  0  0  0  0  0  0
    4.8200   -5.6550   29.1760 C   0  0  0  0  0  0  0  0  0  0  0  0
    4.9460   -6.3980   30.3250 C   0  0  0  0  0  0  0  0  0  0  0  0
    5.9400   -7.5060   30.4910 C   0  0  0  0  0  0  0  0  0  0  0  0
    6.0330   -8.2320   31.7030 N   0  0  0  0  0  0  0  0  0  0  0  0
    5.1690   -7.9180   32.7830 C   0  0  0  0  0  0  0  0  0  0  0  0
    4.1890   -6.7970   32.5490 C   0  0  0  0  0  0  0  0  0  0  0  0
    4.0750   -6.0890   31.4270 N   0  0  0  0  0  0  0  0  0  0  0  0
    4.5040   -5.5160   26.7520 C   0  0  0  0  0  0  0  0  0  0  0  0
    3.3360   -4.7890   26.8460 O   0  0  0  0  0  0  0  0  0  0  0  0
    4.3870   -6.8120   26.2920 O   0  0  0  0  0  0  0  0  0  0  0  0
    3.2450   -7.3660   25.7010 C   0  0  0  0  0  0  0  0  0  0  0  0
    3.4700   -7.5650   24.2150 C   0  0  0  0  0  0  0  0  0  0  0  0
    6.3410   -5.1620   23.7980 C   0  0  0  0  0  0  0  0  0  0  0  0
    6.6120   -5.3820   22.2980 C   0  0  0  0  0  0  0  0  0  0  0  0
  1  2  1  0
  2  3  2  0
  2  4  1  0
  4  5  1  0
  5  6  1  0
  6  7  1  0
  7  8  1  0
  8  9  2  0
  8 10  1  0
 10 11  1  0
 11 12  1  1
 12 13  1  0
 13 14  1  0
 14 15  2  0
 15 16  1  0
 16 17  2  0
 17 18  1  0
 14 19  1  0
 18 19  2  0
 11 20  1  0
 20 21  2  0
 20 22  1  0
 22 23  1  0
 23 24  1  0
  7 25  1  0
  4 26  1  0
 25 26  1  0
M  END
