piperidine-amides-5443-covalent
     RDKit          3D

 20 21  0  0  0  0  0  0  0  0999 V2000
    7.0830   -3.2840   19.2340 C   0  0  0  0  0  0  0  0  0  0  0  0
    6.3540   -4.0410   20.2540 C   0  0  0  0  0  0  0  0  0  0  0  0
    5.3320   -4.6600   19.9230 O   0  0  0  0  0  0  0  0  0  0  0  0
    6.8010   -4.1170   21.5810 N   0  0  0  0  0  0  0  0  0  0  0  0
    7.7300   -3.1530   22.1420 C   0  0  0  0  0  0  0  0  0  0  0  0
    7.3980   -3.0340   23.6000 C   0  0  0  0  0  0  0  0  0  0  0  0
    6.0550   -3.6150   23.8970 C   0  0  0  0  0  0  0  0  0  0  0  0
    5.5820   -3.3410   25.2740 C   0  0  0  0  0  0  0  0  0  0  0  0
    4.3530   -3.1370   25.4860 O   0  0  0  0  0  0  0  0  0  0  0  0
    6.4390   -3.2880   26.3920 N   0  0  0  0  0  0  0  0  0  0  0  0
    5.8900   -3.3950   27.7620 C   0  0  1  0  0  0  0  0  0  0  0  0
    6.3840   -4.6140   28.4560 C   0  0  0  0  0  0  0  0  0  0  0  0
    6.3760   -5.7070   27.8330 O   0  0  0  0  0  0  0  0  0  0  0  0
    6.3370   -2.1850   28.5940 C   0  0  0  0  0  0  0  0  0  0  0  0
    5.1860   -2.0970   29.5500 C   0  0  0  0  0  0  0  0  0  0  0  0
    4.5910   -0.7150   29.3670 C   0  0  0  0  0  0  0  0  0  0  0  0
    5.4920   -0.0990   28.3500 C   0  0  0  0  0  0  0  0  0  0  0  0
    6.4920   -0.9600   27.9710 C   0  0  0  0  0  0  0  0  0  0  0  0
    6.0250   -5.0980   23.6280 C   0  0  0  0  0  0  0  0  0  0  0  0
    6.6700   -5.3790   22.2860 C   0  0  0  0  0  0  0  0  0  0  0  0
  1  2  1  0
  2  3  2  0
  2  4  1  0
  4  5  1  0
  5  6  1  0
  6  7  1  0
  7  8  1  0
  8  9  2  0
  8 10  1  0
 10 11  1  0
 11 12  1  1
 12 13  1  0
 11 14  1  0
 14 15  1  0
 15 16  1  0
 16 17  1  0
 14 18  1  0
 17 18  1  0
  7 19  1  0
  4 20  1  0
 19 20  1  0
M  END
