piperidine-amides-30995-covalent
     RDKit          3D

 27 29  0  0  0  0  0  0  0  0999 V2000
    7.0740   -3.3540   19.3620 C   0  0  0  0  0  0  0  0  0  0  0  0
    6.4090   -4.2150   20.3330 C   0  0  0  0  0  0  0  0  0  0  0  0
    5.3870   -4.8250   19.9860 O   0  0  0  0  0  0  0  0  0  0  0  0
    6.9350   -4.4130   21.6240 N   0  0  0  0  0  0  0  0  0  0  0  0
    7.6900   -3.3980   22.3110 C   0  0  0  0  0  0  0  0  0  0  0  0
    6.8070   -2.9250   23.4370 C   0  0  0  0  0  0  0  0  0  0  0  0
    6.2570   -4.0340   24.3040 C   0  0  0  0  0  0  0  0  0  0  0  0
    5.3760   -3.4860   25.3790 C   0  0  0  0  0  0  0  0  0  0  0  0
    4.4500   -2.6870   25.0730 O   0  0  0  0  0  0  0  0  0  0  0  0
    5.4980   -3.7740   26.7640 N   0  0  0  0  0  0  0  0  0  0  0  0
    6.4450   -3.0870   27.5700 C   0  0  0  0  0  0  0  0  0  0  0  0
    6.7700   -4.1550   28.5390 C   0  0  0  0  0  0  0  0  0  0  0  0
    5.8920   -4.3990   29.3750 O   0  0  0  0  0  0  0  0  0  0  0  0
    4.6380   -4.1310   28.9900 C   0  0  2  0  0  0  0  0  0  0  0  0
    3.4680   -4.5930   29.8150 C   0  0  0  0  0  0  0  0  0  0  0  0
    2.8700   -3.7650   30.8800 C   0  0  0  0  0  0  0  0  0  0  0  0
    1.7510   -4.4130   31.5530 C   0  0  0  0  0  0  0  0  0  0  0  0
    1.2180   -5.6600   31.3080 C   0  0  0  0  0  0  0  0  0  0  0  0
    0.2540   -6.0650   31.9760 O   0  0  0  0  0  0  0  0  0  0  0  0
   -0.9180   -5.3430   31.8560 C   0  0  0  0  0  0  0  0  0  0  0  0
   -1.9380   -6.2000   32.0030 F   0  0  0  0  0  0  0  0  0  0  0  0
   -0.9610   -4.3640   32.8120 F   0  0  0  0  0  0  0  0  0  0  0  0
    1.6830   -6.7100   30.2370 C   0  0  0  0  0  0  0  0  0  0  0  0
    2.8680   -5.9490   29.5720 C   0  0  0  0  0  0  0  0  0  0  0  0
    4.4120   -4.3600   27.5180 C   0  0  0  0  0  0  0  0  0  0  0  0
    5.5810   -5.0840   23.4670 C   0  0  0  0  0  0  0  0  0  0  0  0
    6.4270   -5.5360   22.3370 C   0  0  0  0  0  0  0  0  0  0  0  0
  1  2  1  0
  2  3  2  0
  2  4  1  0
  4  5  1  0
  5  6  1  0
  6  7  1  0
  7  8  1  0
  8  9  2  0
  8 10  1  0
 10 11  1  0
 11 12  1  0
 12 13  1  0
 13 14  1  0
 14 15  1  1
 15 16  2  0
 16 17  1  0
 17 18  2  0
 18 19  1  0
 19 20  1  0
 20 21  1  0
 20 22  1  0
 18 23  1  0
 15 24  1  0
 23 24  2  0
 10 25  1  0
 14 25  1  0
  7 26  1  0
  4 27  1  0
 26 27  1  0
M  END
