piperidine-amides-3676-covalent
     RDKit          3D

 17 17  0  0  0  0  0  0  0  0999 V2000
    7.1340   -3.2680   19.2230 C   0  0  0  0  0  0  0  0  0  0  0  0
    6.3830   -4.0200   20.2410 C   0  0  0  0  0  0  0  0  0  0  0  0
    5.2930   -4.5270   19.8790 O   0  0  0  0  0  0  0  0  0  0  0  0
    6.8930   -4.2130   21.5470 N   0  0  0  0  0  0  0  0  0  0  0  0
    6.4170   -5.3240   22.2870 C   0  0  0  0  0  0  0  0  0  0  0  0
    6.0010   -4.9950   23.6500 C   0  0  0  0  0  0  0  0  0  0  0  0
    6.5790   -3.7570   24.2260 C   0  0  0  0  0  0  0  0  0  0  0  0
    5.7620   -3.2920   25.4020 C   0  0  0  0  0  0  0  0  0  0  0  0
    4.6000   -2.8870   25.2060 O   0  0  0  0  0  0  0  0  0  0  0  0
    6.2640   -3.3060   26.7200 N   0  0  0  0  0  0  0  0  0  0  0  0
    6.0910   -4.3140   27.7090 C   0  0  0  0  0  0  0  0  0  0  0  0
    6.0320   -5.7420   27.3740 C   0  0  0  0  0  0  0  0  0  0  0  0
    4.8340   -6.3910   28.0870 C   0  0  0  0  0  0  0  0  0  0  0  0
    4.8150   -6.2640   29.4590 C   0  0  0  0  0  0  0  0  0  0  0  0
    5.9720   -7.2500   29.6600 C   0  0  0  0  0  0  0  0  0  0  0  0
    6.7760   -2.6230   23.2880 C   0  0  0  0  0  0  0  0  0  0  0  0
    7.6610   -3.1450   22.1530 C   0  0  0  0  0  0  0  0  0  0  0  0
  1  2  1  0
  2  3  2  0
  2  4  1  0
  4  5  1  0
  5  6  1  0
  6  7  1  0
  7  8  1  0
  8  9  2  0
  8 10  1  0
 10 11  1  0
 11 12  1  0
 12 13  1  0
 13 14  1  0
 14 15  1  0
  7 16  1  0
  4 17  1  0
 16 17  1  0
M  END
