piperidine-amides-2749-covalent
     RDKit          3D

 25 27  0  0  0  0  0  0  0  0999 V2000
    7.0990   -3.2970   19.2020 C   0  0  0  0  0  0  0  0  0  0  0  0
    6.3540   -4.0540   20.2020 C   0  0  0  0  0  0  0  0  0  0  0  0
    5.2870   -4.5810   19.8980 O   0  0  0  0  0  0  0  0  0  0  0  0
    6.8980   -4.2380   21.5180 N   0  0  0  0  0  0  0  0  0  0  0  0
    7.6290   -3.1740   22.1510 C   0  0  0  0  0  0  0  0  0  0  0  0
    6.8650   -2.6740   23.3410 C   0  0  0  0  0  0  0  0  0  0  0  0
    6.5170   -3.8630   24.2220 C   0  0  0  0  0  0  0  0  0  0  0  0
    5.7060   -3.4250   25.3920 C   0  0  0  0  0  0  0  0  0  0  0  0
    4.4640   -3.5270   25.4060 O   0  0  0  0  0  0  0  0  0  0  0  0
    6.3490   -2.8740   26.5220 N   0  0  0  0  0  0  0  0  0  0  0  0
    6.8250   -1.5160   26.4410 C   0  0  0  0  0  0  0  0  0  0  0  0
    5.6770   -0.6270   26.0220 C   0  0  0  0  0  0  0  0  0  0  0  0
    4.5440   -0.8510   25.2920 C   0  0  0  0  0  0  0  0  0  0  0  0
    3.8750    0.3310   25.2320 C   0  0  0  0  0  0  0  0  0  0  0  0
    4.5960    1.2620   25.9180 C   0  0  0  0  0  0  0  0  0  0  0  0
    4.1200    2.6340   26.0190 C   0  0  0  0  0  0  0  0  0  0  0  0
    4.1820    3.4720   27.1200 C   0  0  0  0  0  0  0  0  0  0  0  0
    3.7050    4.7600   27.1190 C   0  0  0  0  0  0  0  0  0  0  0  0
    3.1160    5.3390   26.0130 C   0  0  0  0  0  0  0  0  0  0  0  0
    2.6370    6.6050   25.9820 F   0  0  0  0  0  0  0  0  0  0  0  0
    3.0550    4.4490   24.8570 C   0  0  0  0  0  0  0  0  0  0  0  0
    3.5380    3.1500   24.8640 C   0  0  0  0  0  0  0  0  0  0  0  0
    5.6490    0.7380   26.3940 O   0  0  0  0  0  0  0  0  0  0  0  0
    5.7240   -4.9060   23.4790 C   0  0  0  0  0  0  0  0  0  0  0  0
    6.4560   -5.3550   22.2630 C   0  0  0  0  0  0  0  0  0  0  0  0
  1  2  1  0
  2  3  2  0
  2  4  1  0
  4  5  1  0
  5  6  1  0
  6  7  1  0
  7  8  1  0
  8  9  2  0
  8 10  1  0
 10 11  1  0
 11 12  1  0
 12 13  2  0
 13 14  1  0
 14 15  2  0
 15 16  1  0
 16 17  2  0
 17 18  1  0
 18 19  2  0
 19 20  1  0
 19 21  1  0
 16 22  1  0
 21 22  2  0
 12 23  1  0
 15 23  1  0
  7 24  1  0
  4 25  1  0
 24 25  1  0
M  END
