piperidine-amides-1155-covalent
     RDKit          3D

 23 25  0  0  0  0  0  0  0  0999 V2000
    7.1170   -3.2920   19.2720 C   0  0  0  0  0  0  0  0  0  0  0  0
    6.3240   -4.0430   20.2790 C   0  0  0  0  0  0  0  0  0  0  0  0
    5.2920   -4.6310   19.9160 O   0  0  0  0  0  0  0  0  0  0  0  0
    6.8000   -4.1050   21.6050 N   0  0  0  0  0  0  0  0  0  0  0  0
    7.7110   -3.1080   22.1380 C   0  0  0  0  0  0  0  0  0  0  0  0
    7.5260   -3.0250   23.6510 C   0  0  0  0  0  0  0  0  0  0  0  0
    6.1600   -3.5490   23.9250 C   0  0  0  0  0  0  0  0  0  0  0  0
    5.6300   -3.2050   25.2570 C   0  0  0  0  0  0  0  0  0  0  0  0
    4.4020   -3.0910   25.3380 O   0  0  0  0  0  0  0  0  0  0  0  0
    6.4850   -3.0160   26.3450 N   0  0  0  0  0  0  0  0  0  0  0  0
    6.1450   -3.1710   27.7120 C   0  0  0  0  0  0  0  0  0  0  0  0
    5.4320   -4.2190   28.2350 C   0  0  0  0  0  0  0  0  0  0  0  0
    4.3130   -4.7870   27.6700 C   0  0  0  0  0  0  0  0  0  0  0  0
    3.8660   -5.8340   28.5200 N   0  0  0  0  0  0  0  0  0  0  0  0
    2.8060   -6.6560   28.3670 C   0  0  0  0  0  0  0  0  0  0  0  0
    2.5240   -7.6750   29.3970 C   0  0  0  0  0  0  0  0  0  0  0  0
    3.4100   -7.8240   30.6320 C   0  0  0  0  0  0  0  0  0  0  0  0
    4.5600   -6.8120   30.6160 C   0  0  0  0  0  0  0  0  0  0  0  0
    5.4330   -6.8360   31.6540 F   0  0  0  0  0  0  0  0  0  0  0  0
    4.7050   -5.8970   29.5780 C   0  0  0  0  0  0  0  0  0  0  0  0
    5.6510   -4.9200   29.3980 N   0  0  0  0  0  0  0  0  0  0  0  0
    6.0380   -5.0100   23.6840 C   0  0  0  0  0  0  0  0  0  0  0  0
    6.6200   -5.3500   22.3280 C   0  0  0  0  0  0  0  0  0  0  0  0
  1  2  1  0
  2  3  2  0
  2  4  1  0
  4  5  1  0
  5  6  1  0
  6  7  1  0
  7  8  1  0
  8  9  2  0
  8 10  1  0
 10 11  1  0
 11 12  1  0
 12 13  2  0
 13 14  1  0
 14 15  1  0
 15 16  2  0
 16 17  1  0
 17 18  2  0
 18 19  1  0
 14 20  1  0
 18 20  1  0
 12 21  1  0
 20 21  2  0
  7 22  1  0
  4 23  1  0
 22 23  1  0
M  END
