piperidine-amides-12395-covalent
     RDKit          3D

 24 25  0  0  0  0  0  0  0  0999 V2000
    7.1190   -3.2390   19.1500 C   0  0  0  0  0  0  0  0  0  0  0  0
    6.3320   -3.9230   20.1660 C   0  0  0  0  0  0  0  0  0  0  0  0
    5.2730   -4.4720   19.8590 O   0  0  0  0  0  0  0  0  0  0  0  0
    6.8060   -4.0160   21.5140 N   0  0  0  0  0  0  0  0  0  0  0  0
    6.2610   -5.0460   22.3410 C   0  0  0  0  0  0  0  0  0  0  0  0
    5.3240   -4.4180   23.3360 C   0  0  0  0  0  0  0  0  0  0  0  0
    5.9040   -3.0540   23.7200 C   0  0  0  0  0  0  0  0  0  0  0  0
    5.4590   -2.7000   25.1160 C   0  0  0  0  0  0  0  0  0  0  0  0
    4.3260   -3.0180   25.5330 O   0  0  0  0  0  0  0  0  0  0  0  0
    6.3180   -1.9840   26.0050 N   0  0  0  0  0  0  0  0  0  0  0  0
    6.7120   -2.6430   27.2310 C   0  0  0  0  0  0  0  0  0  0  0  0
    7.2700   -3.8990   26.7050 C   0  0  0  0  0  0  0  0  0  0  0  0
    6.6760   -4.4490   25.5670 C   0  0  0  0  0  0  0  0  0  0  0  0
    7.1230   -5.6170   24.9600 C   0  0  0  0  0  0  0  0  0  0  0  0
    8.1720   -6.2190   25.5150 C   0  0  0  0  0  0  0  0  0  0  0  0
    8.7460   -5.6400   26.6830 C   0  0  0  0  0  0  0  0  0  0  0  0
    9.7590   -6.2430   27.2290 N   0  0  0  0  0  0  0  0  0  0  0  0
   10.3060   -7.3930   26.5310 C   0  0  0  0  0  0  0  0  0  0  0  0
    9.4540   -7.9290   25.6430 O   0  0  0  0  0  0  0  0  0  0  0  0
   12.6630   -8.1220   26.3050 O   0  0  0  0  0  0  0  0  0  0  0  0
   14.0000   -8.8340   25.8830 C   0  0  0  0  0  0  0  0  0  0  0  0
    8.3420   -4.5180   27.2950 C   0  0  0  0  0  0  0  0  0  0  0  0
    7.3340   -2.9000   23.4880 C   0  0  0  0  0  0  0  0  0  0  0  0
    7.6310   -2.9930   22.1310 C   0  0  0  0  0  0  0  0  0  0  0  0
  1  2  1  0
  2  3  2  0
  2  4  1  0
  4  5  1  0
  5  6  1  0
  6  7  1  0
  7  8  1  0
  8  9  2  0
  8 10  1  0
 10 11  1  0
 11 12  1  0
 12 13  2  0
 13 14  1  0
 14 15  2  0
 15 16  1  0
 16 17  1  0
 17 18  1  0
 18 19  2  0
 18 20  1  0
 20 21  1  0
 12 22  1  0
 16 22  2  0
  7 23  1  0
  4 24  1  0
 23 24  1  0
M  END
