piperidine-amides-14536-covalent
     RDKit          3D

 23 25  0  0  0  0  0  0  0  0999 V2000
    7.0810   -3.2940   19.2890 C   0  0  0  0  0  0  0  0  0  0  0  0
    6.3130   -4.0340   20.2910 C   0  0  0  0  0  0  0  0  0  0  0  0
    5.2910   -4.6320   19.9140 O   0  0  0  0  0  0  0  0  0  0  0  0
    6.7480   -4.0960   21.6390 N   0  0  0  0  0  0  0  0  0  0  0  0
    7.6810   -3.1070   22.1170 C   0  0  0  0  0  0  0  0  0  0  0  0
    7.4920   -2.9530   23.5860 C   0  0  0  0  0  0  0  0  0  0  0  0
    6.1150   -3.5020   23.8380 C   0  0  0  0  0  0  0  0  0  0  0  0
    5.6640   -3.2310   25.2400 C   0  0  0  0  0  0  0  0  0  0  0  0
    4.4530   -3.2800   25.4340 O   0  0  0  0  0  0  0  0  0  0  0  0
    6.6170   -2.9410   26.2090 N   0  0  0  0  0  0  0  0  0  0  0  0
    6.3310   -3.0870   27.5990 C   0  0  0  0  0  0  0  0  0  0  0  0
    5.7940   -4.3240   27.9680 C   0  0  0  0  0  0  0  0  0  0  0  0
    5.6850   -5.3780   27.0600 C   0  0  0  0  0  0  0  0  0  0  0  0
    5.1550   -6.6430   27.3480 C   0  0  0  0  0  0  0  0  0  0  0  0
    4.6840   -6.8410   28.7440 C   0  0  0  0  0  0  0  0  0  0  0  0
    4.8070   -5.7250   29.6820 C   0  0  0  0  0  0  0  0  0  0  0  0
    5.3780   -4.4420   29.2720 C   0  0  0  0  0  0  0  0  0  0  0  0
    4.2680   -6.1660   30.9970 C   0  0  0  0  0  0  0  0  0  0  0  0
    3.7550   -7.6020   30.5240 C   0  0  0  0  0  0  0  0  0  0  0  0
    3.0620   -8.1960   31.3960 O   0  0  0  0  0  0  0  0  0  0  0  0
    4.1460   -7.9410   29.2520 N   0  0  0  0  0  0  0  0  0  0  0  0
    6.1200   -5.0090   23.6490 C   0  0  0  0  0  0  0  0  0  0  0  0
    6.6100   -5.3230   22.3900 C   0  0  0  0  0  0  0  0  0  0  0  0
  1  2  1  0
  2  3  2  0
  2  4  1  0
  4  5  1  0
  5  6  1  0
  6  7  1  0
  7  8  1  0
  8  9  2  0
  8 10  1  0
 10 11  1  0
 11 12  1  0
 12 13  2  0
 13 14  1  0
 14 15  2  0
 15 16  1  0
 12 17  1  0
 16 17  2  0
 16 18  1  0
 18 19  1  0
 19 20  2  0
 15 21  1  0
 19 21  1  0
  7 22  1  0
  4 23  1  0
 22 23  1  0
M  END
