piperidine-amides-25927-covalent
     RDKit          3D

 25 27  0  0  0  0  0  0  0  0999 V2000
    7.0990   -3.2880   19.2630 C   0  0  0  0  0  0  0  0  0  0  0  0
    6.3450   -4.0740   20.2440 C   0  0  0  0  0  0  0  0  0  0  0  0
    5.2690   -4.5760   19.8940 O   0  0  0  0  0  0  0  0  0  0  0  0
    6.8330   -4.3380   21.5390 N   0  0  0  0  0  0  0  0  0  0  0  0
    6.5130   -5.5410   22.2560 C   0  0  0  0  0  0  0  0  0  0  0  0
    5.8570   -5.0540   23.5200 C   0  0  0  0  0  0  0  0  0  0  0  0
    6.5750   -3.8820   24.1310 C   0  0  0  0  0  0  0  0  0  0  0  0
    5.8480   -3.3510   25.3140 C   0  0  0  0  0  0  0  0  0  0  0  0
    4.5830   -3.2780   25.2920 O   0  0  0  0  0  0  0  0  0  0  0  0
    6.4900   -2.8850   26.4830 N   0  0  0  0  0  0  0  0  0  0  0  0
    6.8940   -1.4700   26.5130 C   0  0  0  0  0  0  0  0  0  0  0  0
    6.1580   -3.4270   27.8180 C   0  0  0  0  0  0  0  0  0  0  0  0
    5.4510   -4.7220   27.8240 C   0  0  1  0  0  0  0  0  0  0  0  0
    6.3030   -5.7980   28.4470 C   0  0  0  0  0  0  0  0  0  0  0  0
    5.4630   -6.6830   29.3250 C   0  0  0  0  0  0  0  0  0  0  0  0
    4.1600   -5.9840   29.3580 C   0  0  0  0  0  0  0  0  0  0  0  0
    4.2050   -4.7630   28.6170 N   0  0  0  0  0  0  0  0  0  0  0  0
    3.8110   -3.6820   29.3300 C   0  0  0  0  0  0  0  0  0  0  0  0
    4.7040   -2.7990   29.9570 C   0  0  0  0  0  0  0  0  0  0  0  0
    4.2330   -1.6220   30.7330 C   0  0  0  0  0  0  0  0  0  0  0  0
    2.7400   -1.4420   30.8040 C   0  0  0  0  0  0  0  0  0  0  0  0
    1.9520   -2.3330   30.1760 N   0  0  0  0  0  0  0  0  0  0  0  0
    2.4680   -3.3730   29.4920 N   0  0  0  0  0  0  0  0  0  0  0  0
    6.7910   -2.7980   23.0560 C   0  0  0  0  0  0  0  0  0  0  0  0
    7.5390   -3.2680   22.2380 C   0  0  0  0  0  0  0  0  0  0  0  0
  1  2  1  0
  2  3  2  0
  2  4  1  0
  4  5  1  0
  5  6  1  0
  6  7  1  0
  7  8  1  0
  8  9  2  0
  8 10  1  0
 10 11  1  0
 10 12  1  0
 13 12  1  1
 13 14  1  0
 14 15  1  0
 15 16  1  0
 13 17  1  0
 16 17  1  0
 17 18  1  0
 18 19  2  0
 19 20  1  0
 20 21  2  0
 21 22  1  0
 18 23  1  0
 22 23  2  0
  7 24  1  0
  4 25  1  0
 24 25  1  0
M  END
