piperidine-amides-1961-covalent
     RDKit          3D

 25 27  0  0  0  0  0  0  0  0999 V2000
    7.1200   -3.3330   19.3280 C   0  0  0  0  0  0  0  0  0  0  0  0
    6.3840   -4.1530   20.3140 C   0  0  0  0  0  0  0  0  0  0  0  0
    5.3420   -4.6920   19.9420 O   0  0  0  0  0  0  0  0  0  0  0  0
    6.9260   -4.3230   21.5870 N   0  0  0  0  0  0  0  0  0  0  0  0
    6.5980   -5.4420   22.4180 C   0  0  0  0  0  0  0  0  0  0  0  0
    5.8430   -4.9400   23.6190 C   0  0  0  0  0  0  0  0  0  0  0  0
    6.5900   -3.7700   24.2890 C   0  0  0  0  0  0  0  0  0  0  0  0
    5.7550   -3.3050   25.4160 C   0  0  0  0  0  0  0  0  0  0  0  0
    4.5330   -3.2470   25.2500 O   0  0  0  0  0  0  0  0  0  0  0  0
    6.3100   -2.9360   26.6700 N   0  0  0  0  0  0  0  0  0  0  0  0
    6.5930   -1.5350   26.9250 C   0  0  2  0  0  0  0  0  0  0  0  0
    7.1310   -1.4200   28.3430 C   0  0  0  0  0  0  0  0  0  0  0  0
    6.5260   -0.4710   29.0300 C   0  0  0  0  0  0  0  0  0  0  0  0
    5.5560    0.1390   28.2550 N   0  0  0  0  0  0  0  0  0  0  0  0
    4.3580    0.6400   28.8820 C   0  0  0  0  0  0  0  0  0  0  0  0
    5.4240   -0.5320   26.9640 C   0  0  2  0  0  0  0  0  0  0  0  0
    4.2150   -1.4430   26.8570 C   0  0  0  0  0  0  0  0  0  0  0  0
    4.2270   -2.3560   28.0460 C   0  0  0  0  0  0  0  0  0  0  0  0
    3.1020   -3.3730   28.1780 C   0  0  0  0  0  0  0  0  0  0  0  0
    2.0200   -3.4380   27.1270 C   0  0  0  0  0  0  0  0  0  0  0  0
    0.9880   -4.3350   27.2020 F   0  0  0  0  0  0  0  0  0  0  0  0
    2.1060   -2.4840   25.9860 C   0  0  0  0  0  0  0  0  0  0  0  0
    3.1800   -1.4520   25.7840 C   0  0  0  0  0  0  0  0  0  0  0  0
    6.8260   -2.6570   23.3000 C   0  0  0  0  0  0  0  0  0  0  0  0
    7.6700   -3.2550   22.2170 C   0  0  0  0  0  0  0  0  0  0  0  0
  1  2  1  0
  2  3  2  0
  2  4  1  0
  4  5  1  0
  5  6  1  0
  6  7  1  0
  7  8  1  0
  8  9  2  0
  8 10  1  0
 11 10  1  1
 11 12  1  0
 12 13  1  0
 13 14  1  0
 14 15  1  0
 11 16  1  0
 14 16  1  0
 16 17  1  1
 17 18  2  0
 18 19  1  0
 19 20  2  0
 20 21  1  0
 20 22  1  0
 17 23  1  0
 22 23  2  0
  7 24  1  0
  4 25  1  0
 24 25  1  0
M  END
