piperidine-amides-5200-covalent
     RDKit          3D

 21 22  0  0  0  0  0  0  0  0999 V2000
    7.1410   -3.2920   19.2660 C   0  0  0  0  0  0  0  0  0  0  0  0
    6.3560   -4.0420   20.2690 C   0  0  0  0  0  0  0  0  0  0  0  0
    5.2760   -4.5300   19.8790 O   0  0  0  0  0  0  0  0  0  0  0  0
    6.8500   -4.2350   21.5700 N   0  0  0  0  0  0  0  0  0  0  0  0
    6.4330   -5.3560   22.3390 C   0  0  0  0  0  0  0  0  0  0  0  0
    5.9930   -5.0070   23.6940 C   0  0  0  0  0  0  0  0  0  0  0  0
    6.5920   -3.7770   24.2720 C   0  0  0  0  0  0  0  0  0  0  0  0
    5.7960   -3.3400   25.4530 C   0  0  0  0  0  0  0  0  0  0  0  0
    4.5600   -3.2570   25.3180 O   0  0  0  0  0  0  0  0  0  0  0  0
    6.4000   -3.0130   26.6910 N   0  0  0  0  0  0  0  0  0  0  0  0
    6.2510   -3.8200   27.9410 C   0  0  2  0  0  0  0  0  0  0  0  0
    5.8560   -5.2420   27.7020 C   0  0  0  0  0  0  0  0  0  0  0  0
    5.3880   -3.1330   28.9180 C   0  0  0  0  0  0  0  0  0  0  0  0
    4.0550   -3.4540   29.3810 N   0  0  0  0  0  0  0  0  0  0  0  0
    3.2910   -2.7430   30.3310 C   0  0  0  0  0  0  0  0  0  0  0  0
    3.7710   -1.6090   30.9400 C   0  0  0  0  0  0  0  0  0  0  0  0
    5.0740   -1.1640   30.5880 N   0  0  0  0  0  0  0  0  0  0  0  0
    5.8770   -1.9050   29.5980 C   0  0  0  0  0  0  0  0  0  0  0  0
    7.0860   -1.2950   29.4280 C   0  0  0  0  0  0  0  0  0  0  0  0
    6.8660   -2.6830   23.3050 C   0  0  0  0  0  0  0  0  0  0  0  0
    7.5970   -3.1940   22.2320 C   0  0  0  0  0  0  0  0  0  0  0  0
  1  2  1  0
  2  3  2  0
  2  4  1  0
  4  5  1  0
  5  6  1  0
  6  7  1  0
  7  8  1  0
  8  9  2  0
  8 10  1  0
 10 11  1  0
 11 12  1  6
 11 13  1  0
 13 14  2  0
 14 15  1  0
 15 16  2  0
 16 17  1  0
 13 18  1  0
 17 18  2  0
 18 19  1  0
  7 20  1  0
  4 21  1  0
 20 21  1  0
M  END
