piperidine-amides-28850-covalent
     RDKit          3D

 26 28  0  0  0  0  0  0  0  0999 V2000
    7.0540   -3.3600   19.3600 C   0  0  0  0  0  0  0  0  0  0  0  0
    6.4210   -4.2410   20.3390 C   0  0  0  0  0  0  0  0  0  0  0  0
    5.3960   -4.8570   19.9870 O   0  0  0  0  0  0  0  0  0  0  0  0
    7.0020   -4.4210   21.6240 N   0  0  0  0  0  0  0  0  0  0  0  0
    6.5890   -5.5310   22.4150 C   0  0  0  0  0  0  0  0  0  0  0  0
    5.7290   -5.0210   23.5350 C   0  0  0  0  0  0  0  0  0  0  0  0
    6.5270   -4.0040   24.3420 C   0  0  0  0  0  0  0  0  0  0  0  0
    5.7010   -3.5250   25.5130 C   0  0  0  0  0  0  0  0  0  0  0  0
    4.6690   -2.9380   25.1980 O   0  0  0  0  0  0  0  0  0  0  0  0
    6.0940   -3.7420   26.8440 N   0  0  0  0  0  0  0  0  0  0  0  0
    5.8240   -2.7930   27.8530 C   0  0  0  0  0  0  0  0  0  0  0  0
    5.7700   -3.3410   29.1400 C   0  0  0  0  0  0  0  0  0  0  0  0
    4.6330   -4.2730   29.1050 N   0  0  0  0  0  0  0  0  0  0  0  0
    3.6020   -4.5140   30.0530 C   0  0  0  0  0  0  0  0  0  0  0  0
    2.4490   -5.1790   29.6560 C   0  0  0  0  0  0  0  0  0  0  0  0
    2.0750   -6.1820   30.5480 N   0  0  0  0  0  0  0  0  0  0  0  0
    3.0110   -7.0680   31.1890 C   0  0  2  0  0  0  0  0  0  0  0  0
    4.0760   -7.6860   30.2530 C   0  0  0  0  0  0  0  0  0  0  0  0
    2.1810   -7.9420   31.8570 C   0  0  0  0  0  0  0  0  0  0  0  0
    0.7360   -7.7600   31.5260 C   0  0  0  0  0  0  0  0  0  0  0  0
    0.7690   -6.5310   30.5880 C   0  0  1  0  0  0  0  0  0  0  0  0
   -0.1670   -5.5650   30.8740 C   0  0  0  0  0  0  0  0  0  0  0  0
    4.9330   -5.3460   28.2300 C   0  0  0  0  0  0  0  0  0  0  0  0
    6.0730   -5.1010   27.3360 C   0  0  0  0  0  0  0  0  0  0  0  0
    6.9160   -2.8290   23.4310 C   0  0  0  0  0  0  0  0  0  0  0  0
    7.7280   -3.3770   22.2790 C   0  0  0  0  0  0  0  0  0  0  0  0
  1  2  1  0
  2  3  2  0
  2  4  1  0
  4  5  1  0
  5  6  1  0
  6  7  1  0
  7  8  1  0
  8  9  2  0
  8 10  1  0
 10 11  1  0
 11 12  1  0
 12 13  1  0
 13 14  1  0
 14 15  1  0
 15 16  1  0
 16 17  1  0
 17 18  1  6
 17 19  1  0
 19 20  1  0
 16 21  1  0
 20 21  1  0
 21 22  1  1
 13 23  1  0
 10 24  1  0
 23 24  1  0
  7 25  1  0
  4 26  1  0
 25 26  1  0
M  END
