piperidine-amides-3644-covalent
     RDKit          3D

 17 18  0  0  0  0  0  0  0  0999 V2000
    7.1730   -3.3310   19.2730 C   0  0  0  0  0  0  0  0  0  0  0  0
    6.4140   -4.1070   20.2620 C   0  0  0  0  0  0  0  0  0  0  0  0
    5.3090   -4.5730   19.9000 O   0  0  0  0  0  0  0  0  0  0  0  0
    6.9620   -4.3750   21.5330 N   0  0  0  0  0  0  0  0  0  0  0  0
    6.4150   -5.4520   22.2720 C   0  0  0  0  0  0  0  0  0  0  0  0
    5.9770   -5.0590   23.6060 C   0  0  0  0  0  0  0  0  0  0  0  0
    6.6480   -3.8510   24.1410 C   0  0  0  0  0  0  0  0  0  0  0  0
    5.9180   -3.3080   25.3150 C   0  0  0  0  0  0  0  0  0  0  0  0
    4.7140   -3.5840   25.4790 O   0  0  0  0  0  0  0  0  0  0  0  0
    6.5560   -2.4670   26.2340 N   0  0  0  0  0  0  0  0  0  0  0  0
    5.8950   -1.6540   27.1560 C   0  0  0  0  0  0  0  0  0  0  0  0
    5.0380   -2.1160   28.2190 C   0  0  0  0  0  0  0  0  0  0  0  0
    5.8850   -3.1690   28.9420 C   0  0  0  0  0  0  0  0  0  0  0  0
    6.0560   -0.2640   27.1470 C   0  0  0  0  0  0  0  0  0  0  0  0
    7.0130   -0.8010   28.0810 C   0  0  0  0  0  0  0  0  0  0  0  0
    6.8600   -2.7310   23.2010 C   0  0  0  0  0  0  0  0  0  0  0  0
    7.7700   -3.3390   22.1480 C   0  0  0  0  0  0  0  0  0  0  0  0
  1  2  1  0
  2  3  2  0
  2  4  1  0
  4  5  1  0
  5  6  1  0
  6  7  1  0
  7  8  1  0
  8  9  2  0
  8 10  1  0
 10 11  1  0
 11 12  1  0
 12 13  1  0
 11 14  1  0
 11 15  1  0
 14 15  1  0
  7 16  1  0
  4 17  1  0
 16 17  1  0
M  END
