piperidine-amides-32581-covalent
     RDKit          3D

 24 26  0  0  0  0  0  0  0  0999 V2000
    7.0480   -3.3530   19.3870 C   0  0  0  0  0  0  0  0  0  0  0  0
    6.3770   -4.2490   20.3700 C   0  0  0  0  0  0  0  0  0  0  0  0
    5.3830   -4.8950   19.9940 O   0  0  0  0  0  0  0  0  0  0  0  0
    6.9010   -4.3940   21.6840 N   0  0  0  0  0  0  0  0  0  0  0  0
    6.6130   -5.5210   22.5220 C   0  0  0  0  0  0  0  0  0  0  0  0
    5.6400   -5.0360   23.6140 C   0  0  0  0  0  0  0  0  0  0  0  0
    6.2200   -3.8380   24.3120 C   0  0  0  0  0  0  0  0  0  0  0  0
    5.2520   -3.2020   25.2730 C   0  0  0  0  0  0  0  0  0  0  0  0
    4.4990   -2.3670   24.7820 O   0  0  0  0  0  0  0  0  0  0  0  0
    5.1940   -3.5370   26.6480 N   0  0  0  0  0  0  0  0  0  0  0  0
    4.6750   -2.7480   27.6670 C   0  0  0  0  0  0  0  0  0  0  0  0
    4.7720   -3.1980   28.9540 C   0  0  0  0  0  0  0  0  0  0  0  0
    5.4780   -4.3700   29.2250 C   0  0  0  0  0  0  0  0  0  0  0  0
    4.5460   -5.1570   30.0300 N   0  0  0  0  0  0  0  0  0  0  0  0
    4.3540   -6.4590   30.1040 N   0  0  0  0  0  0  0  0  0  0  0  0
    3.3930   -6.6530   30.9800 C   0  0  0  0  0  0  0  0  0  0  0  0
    2.9620   -8.0420   31.2620 C   0  0  0  0  0  0  0  0  0  0  0  0
    2.8850   -5.5140   31.5430 N   0  0  0  0  0  0  0  0  0  0  0  0
    3.6360   -4.4460   30.9310 C   0  0  0  0  0  0  0  0  0  0  0  0
    3.4680   -2.5770   31.2390 Br  0  0  0  0  0  0  0  0  0  0  0  0
    5.9930   -5.0970   28.1690 C   0  0  0  0  0  0  0  0  0  0  0  0
    6.2050   -4.3450   27.0380 C   0  0  0  0  0  0  0  0  0  0  0  0
    6.7460   -2.7770   23.4000 C   0  0  0  0  0  0  0  0  0  0  0  0
    7.6430   -3.3130   22.2930 C   0  0  0  0  0  0  0  0  0  0  0  0
  1  2  1  0
  2  3  2  0
  2  4  1  0
  4  5  1  0
  5  6  1  0
  6  7  1  0
  7  8  1  0
  8  9  2  0
  8 10  1  0
 10 11  1  0
 11 12  1  0
 12 13  1  0
 13 14  1  0
 14 15  1  0
 15 16  2  0
 16 17  1  0
 16 18  1  0
 14 19  1  0
 18 19  2  0
 19 20  1  0
 13 21  1  0
 10 22  1  0
 21 22  1  0
  7 23  1  0
  4 24  1  0
 23 24  1  0
M  END
