piperidine-amides-12530-covalent
     RDKit          3D

 23 25  0  0  0  0  0  0  0  0999 V2000
    7.0320   -3.3450   19.3880 C   0  0  0  0  0  0  0  0  0  0  0  0
    6.3870   -4.2080   20.4040 C   0  0  0  0  0  0  0  0  0  0  0  0
    5.4180   -4.8900   19.9960 O   0  0  0  0  0  0  0  0  0  0  0  0
    6.8550   -4.2840   21.7350 N   0  0  0  0  0  0  0  0  0  0  0  0
    7.6390   -3.2290   22.3150 C   0  0  0  0  0  0  0  0  0  0  0  0
    7.3150   -2.9660   23.7230 C   0  0  0  0  0  0  0  0  0  0  0  0
    6.0760   -3.6420   24.1520 C   0  0  0  0  0  0  0  0  0  0  0  0
    5.6490   -3.3630   25.5670 C   0  0  0  0  0  0  0  0  0  0  0  0
    4.4640   -3.6280   25.8320 O   0  0  0  0  0  0  0  0  0  0  0  0
    6.4670   -2.8040   26.5910 N   0  0  0  0  0  0  0  0  0  0  0  0
    6.6670   -1.3330   26.7000 C   0  0  1  0  0  0  0  0  0  0  0  0
    5.5020   -0.5910   26.1440 C   0  0  0  0  0  0  0  0  0  0  0  0
    5.2880    0.8120   26.4640 C   0  0  0  0  0  0  0  0  0  0  0  0
    5.9480    1.3560   27.5200 C   0  0  0  0  0  0  0  0  0  0  0  0
    6.4890    0.5370   28.4420 C   0  0  0  0  0  0  0  0  0  0  0  0
    6.6320    1.0950   29.6710 C   0  0  0  0  0  0  0  0  0  0  0  0
    7.1610    0.4040   30.6820 C   0  0  0  0  0  0  0  0  0  0  0  0
    7.2920    1.0230   31.9390 F   0  0  0  0  0  0  0  0  0  0  0  0
    7.5520   -0.8630   30.4670 C   0  0  0  0  0  0  0  0  0  0  0  0
    7.4320   -1.5090   29.2380 C   0  0  0  0  0  0  0  0  0  0  0  0
    6.8580   -0.7570   28.1320 C   0  0  0  0  0  0  0  0  0  0  0  0
    6.0730   -5.1170   23.8870 C   0  0  0  0  0  0  0  0  0  0  0  0
    6.6500   -5.4740   22.5350 C   0  0  0  0  0  0  0  0  0  0  0  0
  1  2  1  0
  2  3  2  0
  2  4  1  0
  4  5  1  0
  5  6  1  0
  6  7  1  0
  7  8  1  0
  8  9  2  0
  8 10  1  0
 11 10  1  1
 11 12  1  0
 12 13  1  0
 13 14  1  0
 14 15  1  0
 15 16  2  0
 16 17  1  0
 17 18  1  0
 17 19  2  0
 19 20  1  0
 11 21  1  0
 15 21  1  0
 20 21  2  0
  7 22  1  0
  4 23  1  0
 22 23  1  0
M  END
