piperidine-amides-2339-covalent
     RDKit          3D

 27 30  0  0  0  0  0  0  0  0999 V2000
    7.0480   -3.3360   19.2760 C   0  0  0  0  0  0  0  0  0  0  0  0
    6.3810   -4.1650   20.3150 C   0  0  0  0  0  0  0  0  0  0  0  0
    5.3840   -4.7990   19.9680 O   0  0  0  0  0  0  0  0  0  0  0  0
    6.9100   -4.2400   21.6070 N   0  0  0  0  0  0  0  0  0  0  0  0
    7.7430   -3.1910   22.1480 C   0  0  0  0  0  0  0  0  0  0  0  0
    7.0550   -2.5930   23.3270 C   0  0  0  0  0  0  0  0  0  0  0  0
    6.6050   -3.7300   24.2270 C   0  0  0  0  0  0  0  0  0  0  0  0
    5.8140   -3.1670   25.3410 C   0  0  0  0  0  0  0  0  0  0  0  0
    4.6480   -2.8070   25.1460 O   0  0  0  0  0  0  0  0  0  0  0  0
    6.3810   -3.0650   26.6240 N   0  0  0  0  0  0  0  0  0  0  0  0
    6.4240   -1.8100   27.3600 C   0  0  0  0  0  0  0  0  0  0  0  0
    5.7980   -0.6360   26.7010 C   0  0  0  0  0  0  0  0  0  0  0  0
    5.7200    0.5950   27.1950 C   0  0  0  0  0  0  0  0  0  0  0  0
    6.2790    0.7190   28.4090 C   0  0  0  0  0  0  0  0  0  0  0  0
    6.2240    2.0250   28.9990 N   0  0  0  0  0  0  0  0  0  0  0  0
    6.8320    2.0800   30.2770 C   0  0  0  0  0  0  0  0  0  0  0  0
    6.8730    3.3710   31.0680 C   0  0  0  0  0  0  0  0  0  0  0  0
    5.4250    3.8210   30.9420 C   0  0  0  0  0  0  0  0  0  0  0  0
    5.2440    5.1260   31.6830 C   0  0  0  0  0  0  0  0  0  0  0  0
    6.5530    5.4730   32.2550 C   0  0  0  0  0  0  0  0  0  0  0  0
    6.4770    6.7560   33.0140 C   0  0  0  0  0  0  0  0  0  0  0  0
    7.8990    4.4940   32.0290 S   0  0  0  0  0  0  0  0  0  0  0  0
    7.3930    0.4310   30.5440 S   0  0  0  0  0  0  0  0  0  0  0  0
    6.8850   -0.3560   29.0770 C   0  0  0  0  0  0  0  0  0  0  0  0
    7.0830   -1.8240   28.6950 C   0  0  0  0  0  0  0  0  0  0  0  0
    5.7550   -4.7500   23.4690 C   0  0  0  0  0  0  0  0  0  0  0  0
    6.5550   -5.3310   22.5020 C   0  0  0  0  0  0  0  0  0  0  0  0
  1  2  1  0
  2  3  2  0
  2  4  1  0
  4  5  1  0
  5  6  1  0
  6  7  1  0
  7  8  1  0
  8  9  2  0
  8 10  1  0
 10 11  1  0
 11 12  2  0
 12 13  1  0
 13 14  2  0
 14 15  1  0
 15 16  2  0
 16 17  1  0
 17 18  2  0
 18 19  1  0
 19 20  2  0
 20 21  1  0
 17 22  1  0
 20 22  1  0
 16 23  1  0
 14 24  1  0
 23 24  1  0
 11 25  1  0
 24 25  2  0
  7 26  1  0
  4 27  1  0
 26 27  1  0
M  END
