piperidine-amides-30464-covalent
     RDKit          3D

 28 31  0  0  0  0  0  0  0  0999 V2000
    7.0430   -3.3510   19.3870 C   0  0  0  0  0  0  0  0  0  0  0  0
    6.3860   -4.2120   20.3740 C   0  0  0  0  0  0  0  0  0  0  0  0
    5.4000   -4.8760   19.9980 O   0  0  0  0  0  0  0  0  0  0  0  0
    6.8650   -4.3440   21.7010 N   0  0  0  0  0  0  0  0  0  0  0  0
    6.6510   -5.5610   22.4710 C   0  0  0  0  0  0  0  0  0  0  0  0
    6.0560   -5.1610   23.8100 C   0  0  0  0  0  0  0  0  0  0  0  0
    5.9910   -3.6750   23.9520 C   0  0  0  0  0  0  0  0  0  0  0  0
    5.4410   -3.1870   25.2570 C   0  0  0  0  0  0  0  0  0  0  0  0
    4.2910   -2.6640   25.2510 O   0  0  0  0  0  0  0  0  0  0  0  0
    6.0660   -3.2550   26.5300 N   0  0  0  0  0  0  0  0  0  0  0  0
    6.0780   -4.5720   27.2340 C   0  0  0  0  0  0  0  0  0  0  0  0
    4.7450   -5.0050   27.7030 C   0  0  0  0  0  0  0  0  0  0  0  0
    3.6050   -4.0800   27.7730 C   0  0  0  0  0  0  0  0  0  0  0  0
    2.2820   -4.6040   28.2640 C   0  0  0  0  0  0  0  0  0  0  0  0
    2.1420   -6.0630   28.6740 C   0  0  0  0  0  0  0  0  0  0  0  0
    3.4080   -6.8320   28.5290 C   0  0  0  0  0  0  0  0  0  0  0  0
    4.5920   -6.3150   28.0790 C   0  0  0  0  0  0  0  0  0  0  0  0
    6.2520   -2.0880   27.3570 C   0  0  0  0  0  0  0  0  0  0  0  0
    6.7090   -2.1550   28.5480 N   0  0  0  0  0  0  0  0  0  0  0  0
    6.7940   -0.9480   29.1480 C   0  0  0  0  0  0  0  0  0  0  0  0
    6.3690    0.2640   28.4090 N   0  0  0  0  0  0  0  0  0  0  0  0
    5.8140    0.6290   27.0500 C   0  0  0  0  0  0  0  0  0  0  0  0
    5.9500    1.6820   27.7500 N   0  0  0  0  0  0  0  0  0  0  0  0
    6.3910    1.0310   28.7260 C   0  0  0  0  0  0  0  0  0  0  0  0
    6.3940   -0.2980   28.3040 N   0  0  0  0  0  0  0  0  0  0  0  0
    5.9470   -0.6830   26.9900 C   0  0  0  0  0  0  0  0  0  0  0  0
    7.2310   -2.9750   23.5840 C   0  0  0  0  0  0  0  0  0  0  0  0
    7.6650   -3.3190   22.3230 C   0  0  0  0  0  0  0  0  0  0  0  0
  1  2  1  0
  2  3  2  0
  2  4  1  0
  4  5  1  0
  5  6  1  0
  6  7  1  0
  7  8  1  0
  8  9  2  0
  8 10  1  0
 10 11  1  0
 11 12  1  0
 12 13  2  0
 13 14  1  0
 14 15  2  0
 15 16  1  0
 12 17  1  0
 16 17  2  0
 10 18  1  0
 18 19  2  0
 19 20  1  0
 20 21  2  0
 21 22  1  0
 22 23  1  0
 23 24  1  0
 24 25  2  0
 18 26  1  0
 22 26  2  0
 25 26  1  0
  7 27  1  0
  4 28  1  0
 27 28  1  0
M  END
