piperidine-amides-12305-covalent
     RDKit          3D

 24 25  0  0  0  0  0  0  0  0999 V2000
    7.1080   -3.2270   19.0870 C   0  0  0  0  0  0  0  0  0  0  0  0
    6.2220   -3.8160   20.0810 C   0  0  0  0  0  0  0  0  0  0  0  0
    5.1640   -4.3440   19.7650 O   0  0  0  0  0  0  0  0  0  0  0  0
    6.5940   -3.8270   21.4430 N   0  0  0  0  0  0  0  0  0  0  0  0
    7.4330   -2.8030   21.9690 C   0  0  0  0  0  0  0  0  0  0  0  0
    7.2650   -2.7300   23.4480 C   0  0  0  0  0  0  0  0  0  0  0  0
    5.8090   -2.8640   23.8450 C   0  0  0  0  0  0  0  0  0  0  0  0
    5.6380   -3.0200   25.3300 C   0  0  0  0  0  0  0  0  0  0  0  0
    4.6160   -2.5950   25.9020 O   0  0  0  0  0  0  0  0  0  0  0  0
    6.6290   -3.6620   26.1270 N   0  0  0  0  0  0  0  0  0  0  0  0
    6.4080   -5.0520   26.4410 C   0  0  1  0  0  0  0  0  0  0  0  0
    7.5880   -5.7300   27.0570 C   0  0  0  0  0  0  0  0  0  0  0  0
    7.6960   -5.2780   28.3610 O   0  0  0  0  0  0  0  0  0  0  0  0
    5.3270   -5.1720   27.4390 C   0  0  0  0  0  0  0  0  0  0  0  0
    4.2620   -5.9690   27.0920 O   0  0  0  0  0  0  0  0  0  0  0  0
    4.0600   -7.2870   27.4790 C   0  0  0  0  0  0  0  0  0  0  0  0
    6.0980   -5.6190   25.1250 C   0  0  0  0  0  0  0  0  0  0  0  0
    4.8410   -6.1650   24.6400 C   0  0  0  0  0  0  0  0  0  0  0  0
    4.7030   -6.6600   23.3770 C   0  0  0  0  0  0  0  0  0  0  0  0
    5.7450   -6.6760   22.4740 C   0  0  0  0  0  0  0  0  0  0  0  0
    6.9820   -6.1770   22.8630 C   0  0  0  0  0  0  0  0  0  0  0  0
    7.1510   -5.6380   24.2200 C   0  0  0  0  0  0  0  0  0  0  0  0
    5.0360   -3.9150   23.0730 C   0  0  0  0  0  0  0  0  0  0  0  0
    5.9190   -4.6890   22.3350 C   0  0  0  0  0  0  0  0  0  0  0  0
  1  2  1  0
  2  3  2  0
  2  4  1  0
  4  5  1  0
  5  6  1  0
  6  7  1  0
  7  8  1  0
  8  9  2  0
  8 10  1  0
 11 10  1  0
 11 12  1  1
 12 13  1  0
 11 14  1  0
 14 15  1  0
 15 16  1  0
 11 17  1  0
 17 18  2  0
 18 19  1  0
 19 20  2  0
 20 21  1  0
 17 22  1  0
 21 22  2  0
  7 23  1  0
  4 24  1  0
 23 24  1  0
M  END
