piperidine-amides-1888-covalent
     RDKit          3D

 20 21  0  0  0  0  0  0  0  0999 V2000
    7.1270   -3.2680   19.1750 C   0  0  0  0  0  0  0  0  0  0  0  0
    6.3660   -4.0220   20.2040 C   0  0  0  0  0  0  0  0  0  0  0  0
    5.2890   -4.5050   19.8650 O   0  0  0  0  0  0  0  0  0  0  0  0
    6.9070   -4.2100   21.4770 N   0  0  0  0  0  0  0  0  0  0  0  0
    6.5320   -5.3200   22.3050 C   0  0  0  0  0  0  0  0  0  0  0  0
    5.7670   -4.7930   23.4850 C   0  0  0  0  0  0  0  0  0  0  0  0
    6.6000   -3.7160   24.1930 C   0  0  0  0  0  0  0  0  0  0  0  0
    5.8080   -3.2410   25.3420 C   0  0  0  0  0  0  0  0  0  0  0  0
    4.5790   -3.1720   25.2250 O   0  0  0  0  0  0  0  0  0  0  0  0
    6.4420   -2.8420   26.5420 N   0  0  0  0  0  0  0  0  0  0  0  0
    6.1790   -3.5240   27.8030 C   0  0  0  0  0  0  0  0  0  0  0  0
    4.8840   -4.3080   27.7090 C   0  0  2  0  0  0  0  0  0  0  0  0
    3.9720   -3.4440   27.0980 F   0  0  0  0  0  0  0  0  0  0  0  0
    4.2210   -4.8510   28.7660 C   0  0  0  0  0  0  0  0  0  0  0  0
    4.3150   -6.0580   28.2460 C   0  0  2  0  0  0  0  0  0  0  0  0
    5.5530   -6.6100   28.0600 C   0  0  0  0  0  0  0  0  0  0  0  0
    6.4010   -6.0880   28.9890 O   0  0  0  0  0  0  0  0  0  0  0  0
    5.0400   -5.6850   27.0520 C   0  0  0  0  0  0  0  0  0  0  0  0
    7.0100   -2.6100   23.2900 C   0  0  0  0  0  0  0  0  0  0  0  0
    7.6870   -3.1440   22.0730 C   0  0  0  0  0  0  0  0  0  0  0  0
  1  2  1  0
  2  3  2  0
  2  4  1  0
  4  5  1  0
  5  6  1  0
  6  7  1  0
  7  8  1  0
  8  9  2  0
  8 10  1  0
 10 11  1  0
 11 12  1  0
 12 13  1  6
 12 14  1  0
 14 15  1  0
 15 16  1  1
 16 17  1  0
 12 18  1  0
 15 18  1  0
  7 19  1  0
  4 20  1  0
 19 20  1  0
M  END
