piperidine-amides-6734-covalent
     RDKit          3D

 23 24  0  0  0  0  0  0  0  0999 V2000
    7.0310   -3.3260   19.3370 C   0  0  0  0  0  0  0  0  0  0  0  0
    6.3460   -4.1550   20.3410 C   0  0  0  0  0  0  0  0  0  0  0  0
    5.3860   -4.8790   19.9900 O   0  0  0  0  0  0  0  0  0  0  0  0
    6.7760   -4.1790   21.6820 N   0  0  0  0  0  0  0  0  0  0  0  0
    7.6720   -3.1340   22.1490 C   0  0  0  0  0  0  0  0  0  0  0  0
    7.5070   -3.0910   23.6590 C   0  0  0  0  0  0  0  0  0  0  0  0
    6.0990   -3.5630   23.8910 C   0  0  0  0  0  0  0  0  0  0  0  0
    5.6450   -3.1910   25.2410 C   0  0  0  0  0  0  0  0  0  0  0  0
    4.4220   -3.2070   25.4900 O   0  0  0  0  0  0  0  0  0  0  0  0
    6.6050   -2.8250   26.2030 N   0  0  0  0  0  0  0  0  0  0  0  0
    6.4570   -1.6110   26.9570 C   0  0  0  0  0  0  0  0  0  0  0  0
    6.9800   -1.5360   28.3750 C   0  0  0  0  0  0  0  0  0  0  0  0
    6.8670   -0.4100   29.1370 C   0  0  0  0  0  0  0  0  0  0  0  0
    7.3640   -0.4400   30.4010 F   0  0  0  0  0  0  0  0  0  0  0  0
    6.2650    0.7230   28.6480 C   0  0  0  0  0  0  0  0  0  0  0  0
    5.7340    0.8020   27.3600 C   0  0  0  0  0  0  0  0  0  0  0  0
    5.1520    1.9650   26.9610 O   0  0  0  0  0  0  0  0  0  0  0  0
    3.9780    2.4670   27.4690 C   0  0  0  0  0  0  0  0  0  0  0  0
    2.7890    2.2490   26.5500 C   0  0  0  0  0  0  0  0  0  0  0  0
    3.3310    3.6780   26.8930 C   0  0  0  0  0  0  0  0  0  0  0  0
    5.8250   -0.3080   26.5510 C   0  0  0  0  0  0  0  0  0  0  0  0
    6.0020   -5.0540   23.6720 C   0  0  0  0  0  0  0  0  0  0  0  0
    6.6580   -5.3930   22.4670 C   0  0  0  0  0  0  0  0  0  0  0  0
  1  2  1  0
  2  3  2  0
  2  4  1  0
  4  5  1  0
  5  6  1  0
  6  7  1  0
  7  8  1  0
  8  9  2  0
  8 10  1  0
 10 11  1  0
 11 12  2  0
 12 13  1  0
 13 14  1  0
 13 15  2  0
 15 16  1  0
 16 17  1  0
 17 18  1  0
 18 19  1  0
 18 20  1  0
 11 21  1  0
 16 21  2  0
  7 22  1  0
  4 23  1  0
 22 23  1  0
M  END
