piperidine-amides-13955-covalent
     RDKit          3D

 26 29  0  0  0  0  0  0  0  0999 V2000
    7.0350   -3.3230   19.3640 C   0  0  0  0  0  0  0  0  0  0  0  0
    6.3720   -4.1740   20.3940 C   0  0  0  0  0  0  0  0  0  0  0  0
    5.4550   -4.9320   20.0150 O   0  0  0  0  0  0  0  0  0  0  0  0
    6.8210   -4.1160   21.7430 N   0  0  0  0  0  0  0  0  0  0  0  0
    7.5810   -3.0020   22.2600 C   0  0  0  0  0  0  0  0  0  0  0  0
    6.8040   -2.4320   23.4590 C   0  0  0  0  0  0  0  0  0  0  0  0
    6.4830   -3.5730   24.3680 C   0  0  0  0  0  0  0  0  0  0  0  0
    5.5670   -3.2500   25.5310 C   0  0  0  0  0  0  0  0  0  0  0  0
    4.6400   -4.0620   25.6300 O   0  0  0  0  0  0  0  0  0  0  0  0
    5.6810   -2.1280   26.4640 N   0  0  0  0  0  0  0  0  0  0  0  0
    6.8540   -1.4110   26.8110 C   0  0  0  0  0  0  0  0  0  0  0  0
    6.6310   -2.4610   27.5440 C   0  0  0  0  0  0  0  0  0  0  0  0
    5.2960   -2.7860   26.9080 N   0  0  0  0  0  0  0  0  0  0  0  0
    5.0520   -1.7930   25.9160 N   0  0  0  0  0  0  0  0  0  0  0  0
    3.8390   -1.7470   25.1010 C   0  0  0  0  0  0  0  0  0  0  0  0
    2.9390   -1.1070   25.9430 C   0  0  0  0  0  0  0  0  0  0  0  0
    3.1150    0.1490   26.4620 N   0  0  0  0  0  0  0  0  0  0  0  0
    2.0330    0.4650   27.2490 N   0  0  0  0  0  0  0  0  0  0  0  0
    1.1590   -0.6420   27.2110 C   0  0  0  0  0  0  0  0  0  0  0  0
    1.7550   -1.5760   26.3980 N   0  0  0  0  0  0  0  0  0  0  0  0
    0.9070   -2.7130   26.3190 C   0  0  0  0  0  0  0  0  0  0  0  0
   -0.3520   -2.0260   26.7730 C   0  0  0  0  0  0  0  0  0  0  0  0
   -0.1840   -1.0930   27.7800 C   0  0  0  0  0  0  0  0  0  0  0  0
    6.1220   -0.8240   25.8120 C   0  0  0  0  0  0  0  0  0  0  0  0
    5.8690   -4.7770   23.6750 C   0  0  0  0  0  0  0  0  0  0  0  0
    6.6770   -5.2200   22.6460 C   0  0  0  0  0  0  0  0  0  0  0  0
  1  2  1  0
  2  3  2  0
  2  4  1  0
  4  5  1  0
  5  6  1  0
  6  7  1  0
  7  8  1  0
  8  9  2  0
  8 10  1  0
 10 11  1  0
 11 12  1  0
 12 13  2  0
 13 14  1  0
 14 15  1  0
 15 16  1  0
 16 17  2  0
 17 18  1  0
 18 19  2  0
 16 20  1  0
 19 20  1  0
 20 21  1  0
 21 22  1  0
 19 23  1  0
 22 23  1  0
 11 24  2  0
 14 24  1  0
  7 25  1  0
  4 26  1  0
 25 26  1  0
M  END
