piperidine-amides-4664-covalent
     RDKit          3D

 24 25  0  0  0  0  0  0  0  0999 V2000
    7.0780   -3.3420   19.2710 C   0  0  0  0  0  0  0  0  0  0  0  0
    6.3480   -4.1190   20.2990 C   0  0  0  0  0  0  0  0  0  0  0  0
    5.3030   -4.6810   19.9280 O   0  0  0  0  0  0  0  0  0  0  0  0
    6.8430   -4.2520   21.6060 N   0  0  0  0  0  0  0  0  0  0  0  0
    7.6750   -3.2370   22.1530 C   0  0  0  0  0  0  0  0  0  0  0  0
    7.4340   -3.0740   23.5670 C   0  0  0  0  0  0  0  0  0  0  0  0
    6.1080   -3.5850   23.9610 C   0  0  0  0  0  0  0  0  0  0  0  0
    5.8560   -3.2810   25.3860 C   0  0  0  0  0  0  0  0  0  0  0  0
    4.7110   -3.4690   25.8380 O   0  0  0  0  0  0  0  0  0  0  0  0
    6.8940   -2.7770   26.1910 N   0  0  0  0  0  0  0  0  0  0  0  0
    6.7170   -1.5760   27.0440 C   0  0  0  0  0  0  0  0  0  0  0  0
    7.2480   -1.6490   28.4100 C   0  0  0  0  0  0  0  0  0  0  0  0
    7.1060   -0.5210   29.2890 C   0  0  0  0  0  0  0  0  0  0  0  0
    6.4620    0.5930   28.7830 C   0  0  0  0  0  0  0  0  0  0  0  0
    5.9520    0.6830   27.4810 C   0  0  0  0  0  0  0  0  0  0  0  0
    6.0560   -0.3640   26.5850 C   0  0  0  0  0  0  0  0  0  0  0  0
    5.5410   -0.2090   25.3290 C   0  0  0  0  0  0  0  0  0  0  0  0
    5.8910    1.0450   25.0050 N   0  0  0  0  0  0  0  0  0  0  0  0
    5.4750    1.4660   23.4110 S   0  0  0  0  0  0  0  0  0  0  0  0
    5.4640   -0.0100   22.3190 C   0  0  0  0  0  0  0  0  0  0  0  0
    6.5360    2.3570   22.8880 O   0  0  0  0  0  0  0  0  0  0  0  0
    4.1340    2.0940   23.4040 O   0  0  0  0  0  0  0  0  0  0  0  0
    5.9230   -5.0560   23.6330 C   0  0  0  0  0  0  0  0  0  0  0  0
    6.6770   -5.4520   22.4020 C   0  0  0  0  0  0  0  0  0  0  0  0
  1  2  1  0
  2  3  2  0
  2  4  1  0
  4  5  1  0
  5  6  1  0
  6  7  1  0
  7  8  1  0
  8  9  2  0
  8 10  1  0
 10 11  1  0
 11 12  2  0
 12 13  1  0
 13 14  2  0
 14 15  1  0
 11 16  1  0
 15 16  2  0
 16 17  1  0
 17 18  1  0
 19 18  1  0
 19 20  1  0
 19 21  2  0
 19 22  2  0
  7 23  1  0
  4 24  1  0
 23 24  1  0
M  END
