piperidine-amides-1402-covalent
     RDKit          3D

 22 23  0  0  0  0  0  0  0  0999 V2000
    7.1540   -3.2650   19.2230 C   0  0  0  0  0  0  0  0  0  0  0  0
    6.3500   -3.9910   20.2460 C   0  0  0  0  0  0  0  0  0  0  0  0
    5.2940   -4.5440   19.8900 O   0  0  0  0  0  0  0  0  0  0  0  0
    6.8310   -4.0760   21.5720 N   0  0  0  0  0  0  0  0  0  0  0  0
    6.6210   -5.2800   22.3320 C   0  0  0  0  0  0  0  0  0  0  0  0
    6.0870   -4.8640   23.7080 C   0  0  0  0  0  0  0  0  0  0  0  0
    6.1880   -3.3890   23.8450 C   0  0  0  0  0  0  0  0  0  0  0  0
    5.7370   -2.9080   25.1770 C   0  0  0  0  0  0  0  0  0  0  0  0
    4.6470   -2.3250   25.1980 O   0  0  0  0  0  0  0  0  0  0  0  0
    6.4930   -3.1230   26.3380 N   0  0  0  0  0  0  0  0  0  0  0  0
    6.0850   -3.8760   27.4730 C   0  0  0  0  0  0  0  0  0  0  0  0
    5.2700   -4.9800   27.3830 C   0  0  0  0  0  0  0  0  0  0  0  0
    4.5270   -5.4690   28.4630 C   0  0  0  0  0  0  0  0  0  0  0  0
    3.7190   -6.5630   28.3610 C   0  0  0  0  0  0  0  0  0  0  0  0
    3.6190   -7.2090   27.1920 N   0  0  0  0  0  0  0  0  0  0  0  0
    4.2900   -6.8310   26.0970 C   0  0  0  0  0  0  0  0  0  0  0  0
    4.2660   -7.4270   24.8950 N   0  0  0  0  0  0  0  0  0  0  0  0
    3.0150   -7.5830   24.2630 C   0  0  0  0  0  0  0  0  0  0  0  0
    5.3110   -7.2450   24.0640 C   0  0  0  0  0  0  0  0  0  0  0  0
    5.0650   -5.7400   26.2750 N   0  0  0  0  0  0  0  0  0  0  0  0
    7.6150   -2.9450   23.5240 C   0  0  0  0  0  0  0  0  0  0  0  0
    7.6700   -2.9900   22.0440 C   0  0  0  0  0  0  0  0  0  0  0  0
  1  2  1  0
  2  3  2  0
  2  4  1  0
  4  5  1  0
  5  6  1  0
  6  7  1  0
  7  8  1  0
  8  9  2  0
  8 10  1  0
 10 11  1  0
 11 12  1  0
 12 13  2  0
 13 14  1  0
 14 15  2  0
 15 16  1  0
 16 17  1  0
 17 18  1  0
 17 19  1  0
 12 20  1  0
 16 20  2  0
  7 21  1  0
  4 22  1  0
 21 22  1  0
M  END
