piperidine-amides-14150-covalent
     RDKit          3D

 25 26  0  0  0  0  0  0  0  0999 V2000
    7.0820   -3.2780   19.2640 C   0  0  0  0  0  0  0  0  0  0  0  0
    6.3390   -4.0680   20.2860 C   0  0  0  0  0  0  0  0  0  0  0  0
    5.3230   -4.6900   19.9370 O   0  0  0  0  0  0  0  0  0  0  0  0
    6.8230   -4.1350   21.6160 N   0  0  0  0  0  0  0  0  0  0  0  0
    6.6840   -5.3630   22.3720 C   0  0  0  0  0  0  0  0  0  0  0  0
    6.1350   -5.0390   23.7760 C   0  0  0  0  0  0  0  0  0  0  0  0
    6.1820   -3.5630   23.9860 C   0  0  0  0  0  0  0  0  0  0  0  0
    5.6640   -3.1260   25.3140 C   0  0  0  0  0  0  0  0  0  0  0  0
    4.5230   -2.6510   25.3110 O   0  0  0  0  0  0  0  0  0  0  0  0
    6.4190   -3.2500   26.4900 N   0  0  0  0  0  0  0  0  0  0  0  0
    6.1110   -4.0630   27.6240 C   0  0  0  0  0  0  0  0  0  0  0  0
    5.7460   -5.3850   27.5150 C   0  0  0  0  0  0  0  0  0  0  0  0
    5.0330   -5.7800   26.3730 C   0  0  0  0  0  0  0  0  0  0  0  0
    4.0050   -6.6950   26.4200 C   0  0  0  0  0  0  0  0  0  0  0  0
    3.5320   -7.4010   25.1920 C   0  0  0  0  0  0  0  0  0  0  0  0
    2.3840   -8.4230   25.1940 C   0  0  0  0  0  0  0  0  0  0  0  0
    1.7560   -8.6630   26.5690 C   0  0  0  0  0  0  0  0  0  0  0  0
    0.7190   -9.5890   26.5720 O   0  0  0  0  0  0  0  0  0  0  0  0
    1.0530  -10.6050   25.6970 C   0  0  0  0  0  0  0  0  0  0  0  0
    1.3020  -11.7920   26.5520 C   0  0  0  0  0  0  0  0  0  0  0  0
    0.1180  -10.8360   24.6840 C   0  0  0  0  0  0  0  0  0  0  0  0
    2.2330   -7.9850   27.6650 C   0  0  0  0  0  0  0  0  0  0  0  0
    3.3920   -6.9690   27.5970 C   0  0  0  0  0  0  0  0  0  0  0  0
    7.4980   -2.9580   23.6490 C   0  0  0  0  0  0  0  0  0  0  0  0
    7.7000   -3.1000   22.1420 C   0  0  0  0  0  0  0  0  0  0  0  0
  1  2  1  0
  2  3  2  0
  2  4  1  0
  4  5  1  0
  5  6  1  0
  6  7  1  0
  7  8  1  0
  8  9  2  0
  8 10  1  0
 10 11  1  0
 11 12  1  0
 12 13  1  0
 13 14  1  0
 14 15  2  0
 15 16  1  0
 16 17  2  0
 17 18  1  0
 18 19  1  0
 19 20  1  0
 19 21  1  0
 17 22  1  0
 14 23  1  0
 22 23  2  0
  7 24  1  0
  4 25  1  0
 24 25  1  0
M  END
