piperidine-amides-30615-covalent
     RDKit          3D

 28 30  0  0  0  0  0  0  0  0999 V2000
    7.0950   -3.3300   19.3100 C   0  0  0  0  0  0  0  0  0  0  0  0
    6.4050   -4.1360   20.3150 C   0  0  0  0  0  0  0  0  0  0  0  0
    5.4000   -4.7870   19.9780 O   0  0  0  0  0  0  0  0  0  0  0  0
    6.9050   -4.2130   21.6240 N   0  0  0  0  0  0  0  0  0  0  0  0
    7.8290   -3.1890   22.1120 C   0  0  0  0  0  0  0  0  0  0  0  0
    7.5590   -3.0390   23.5700 C   0  0  0  0  0  0  0  0  0  0  0  0
    6.1760   -3.4970   23.8210 C   0  0  0  0  0  0  0  0  0  0  0  0
    5.5880   -2.9370   25.0380 C   0  0  0  0  0  0  0  0  0  0  0  0
    4.4520   -2.3960   24.9850 O   0  0  0  0  0  0  0  0  0  0  0  0
    6.1920   -2.9340   26.2930 N   0  0  0  0  0  0  0  0  0  0  0  0
    5.7460   -4.0660   27.1260 C   0  0  0  0  0  0  0  0  0  0  0  0
    6.0280   -3.7970   28.5300 C   0  0  0  0  0  0  0  0  0  0  0  0
    6.9200   -4.3270   29.2080 O   0  0  0  0  0  0  0  0  0  0  0  0
    5.1240   -2.8970   29.0130 N   0  0  0  0  0  0  0  0  0  0  0  0
    5.3210   -1.8460   29.9610 C   0  0  0  0  0  0  0  0  0  0  0  0
    6.7460   -1.3830   30.1710 C   0  0  0  0  0  0  0  0  0  0  0  0
    7.0480   -0.2660   31.1700 C   0  0  0  0  0  0  0  0  0  0  0  0
    5.8190    0.2420   31.8360 C   0  0  0  0  0  0  0  0  0  0  0  0
    4.5740   -0.2500   31.5690 C   0  0  0  0  0  0  0  0  0  0  0  0
    4.2990   -1.2650   30.6640 C   0  0  0  0  0  0  0  0  0  0  0  0
    6.3110   -1.7050   26.9970 C   0  0  0  0  0  0  0  0  0  0  0  0
    7.0880   -1.5070   28.2940 C   0  0  0  0  0  0  0  0  0  0  0  0
    6.9580   -0.1130   28.7070 C   0  0  0  0  0  0  0  0  0  0  0  0
    6.5170    0.9230   28.4770 C   0  0  0  0  0  0  0  0  0  0  0  0
    5.7680    0.7370   27.2170 C   0  0  0  0  0  0  0  0  0  0  0  0
    5.6820   -0.5010   26.5360 C   0  0  0  0  0  0  0  0  0  0  0  0
    6.0330   -4.9830   23.7090 C   0  0  0  0  0  0  0  0  0  0  0  0
    6.7100   -5.4230   22.4150 C   0  0  0  0  0  0  0  0  0  0  0  0
  1  2  1  0
  2  3  2  0
  2  4  1  0
  4  5  1  0
  5  6  1  0
  6  7  1  0
  7  8  1  0
  8  9  2  0
  8 10  1  0
 10 11  1  0
 11 12  1  0
 12 13  2  0
 12 14  1  0
 14 15  1  0
 15 16  2  0
 16 17  1  0
 17 18  2  0
 18 19  1  0
 15 20  1  0
 19 20  2  0
 10 21  1  0
 21 22  2  0
 22 23  1  0
 23 24  2  0
 24 25  1  0
 21 26  1  0
 25 26  2  0
  7 27  1  0
  4 28  1  0
 27 28  1  0
M  END
