piperidine-amides-14519-covalent
     RDKit          3D

 23 24  0  0  0  0  0  0  0  0999 V2000
    7.0000   -3.3330   19.3400 C   0  0  0  0  0  0  0  0  0  0  0  0
    6.3410   -4.1690   20.3510 C   0  0  0  0  0  0  0  0  0  0  0  0
    5.3860   -4.8780   19.9820 O   0  0  0  0  0  0  0  0  0  0  0  0
    6.7950   -4.1880   21.7030 N   0  0  0  0  0  0  0  0  0  0  0  0
    7.6870   -3.1580   22.1630 C   0  0  0  0  0  0  0  0  0  0  0  0
    7.5270   -3.0650   23.6360 C   0  0  0  0  0  0  0  0  0  0  0  0
    6.1200   -3.5440   23.8750 C   0  0  0  0  0  0  0  0  0  0  0  0
    5.6990   -3.1790   25.2650 C   0  0  0  0  0  0  0  0  0  0  0  0
    4.5160   -3.3480   25.5550 O   0  0  0  0  0  0  0  0  0  0  0  0
    6.6890   -2.6770   26.1000 N   0  0  0  0  0  0  0  0  0  0  0  0
    6.5450   -1.5690   26.9950 C   0  0  0  0  0  0  0  0  0  0  0  0
    6.9590   -1.6270   28.3180 C   0  0  0  0  0  0  0  0  0  0  0  0
    6.8380   -0.5670   29.1800 C   0  0  0  0  0  0  0  0  0  0  0  0
    6.2920    0.6800   28.8490 C   0  0  0  0  0  0  0  0  0  0  0  0
    6.2320    1.6650   29.8250 O   0  0  0  0  0  0  0  0  0  0  0  0
    5.8100    0.8250   27.4240 C   0  0  0  0  0  0  0  0  0  0  0  0
    5.9500   -0.3670   26.4570 C   0  0  0  0  0  0  0  0  0  0  0  0
    5.5640   -0.3150   25.2070 O   0  0  0  0  0  0  0  0  0  0  0  0
    4.2020   -0.5480   25.0770 C   0  0  0  0  0  0  0  0  0  0  0  0
    3.3950   -0.8740   26.3000 C   0  0  0  0  0  0  0  0  0  0  0  0
    2.4470   -2.0350   25.9200 C   0  0  0  0  0  0  0  0  0  0  0  0
    6.0610   -5.0570   23.7340 C   0  0  0  0  0  0  0  0  0  0  0  0
    6.6570   -5.3810   22.5130 C   0  0  0  0  0  0  0  0  0  0  0  0
  1  2  1  0
  2  3  2  0
  2  4  1  0
  4  5  1  0
  5  6  1  0
  6  7  1  0
  7  8  1  0
  8  9  2  0
  8 10  1  0
 10 11  1  0
 11 12  2  0
 12 13  1  0
 13 14  2  0
 14 15  1  0
 14 16  1  0
 11 17  1  0
 16 17  2  0
 17 18  1  0
 18 19  1  0
 19 20  1  0
 20 21  1  0
  7 22  1  0
  4 23  1  0
 22 23  1  0
M  END
