piperidine-amides-19737-covalent
     RDKit          3D

 22 25  0  0  0  0  0  0  0  0999 V2000
    7.0560   -3.3410   19.2890 C   0  0  0  0  0  0  0  0  0  0  0  0
    6.3900   -4.1980   20.3040 C   0  0  0  0  0  0  0  0  0  0  0  0
    5.3570   -4.7680   19.9590 O   0  0  0  0  0  0  0  0  0  0  0  0
    6.9580   -4.3790   21.5680 N   0  0  0  0  0  0  0  0  0  0  0  0
    6.6260   -5.5290   22.3600 C   0  0  0  0  0  0  0  0  0  0  0  0
    5.8290   -5.0720   23.5460 C   0  0  0  0  0  0  0  0  0  0  0  0
    6.5430   -3.9130   24.2570 C   0  0  0  0  0  0  0  0  0  0  0  0
    5.6980   -3.5090   25.4090 C   0  0  0  0  0  0  0  0  0  0  0  0
    4.6650   -2.8640   25.1860 O   0  0  0  0  0  0  0  0  0  0  0  0
    6.0250   -3.8250   26.7480 N   0  0  0  0  0  0  0  0  0  0  0  0
    5.7820   -2.9290   27.7900 C   0  0  0  0  0  0  0  0  0  0  0  0
    5.5320   -4.0070   28.8000 C   0  0  1  0  0  0  0  0  0  0  0  0
    4.2750   -4.5500   28.8310 C   0  0  0  0  0  0  0  0  0  0  0  0
    4.4850   -5.7990   29.0220 C   0  0  2  0  0  0  0  0  0  0  0  0
    5.7160   -5.8300   29.5010 C   0  0  0  0  0  0  0  0  0  0  0  0
    6.6800   -5.0970   28.6340 C   0  0  1  0  0  0  0  0  0  0  0  0
    5.9710   -5.1410   27.2730 C   0  0  1  0  0  0  0  0  0  0  0  0
    4.8360   -6.1320   27.5700 C   0  0  2  0  0  0  0  0  0  0  0  0
    3.8710   -5.9340   26.6010 O   0  0  0  0  0  0  0  0  0  0  0  0
    3.5660   -6.9830   25.7130 C   0  0  0  0  0  0  0  0  0  0  0  0
    6.8620   -2.7670   23.3410 C   0  0  0  0  0  0  0  0  0  0  0  0
    7.6920   -3.3030   22.2000 C   0  0  0  0  0  0  0  0  0  0  0  0
  1  2  1  0
  2  3  2  0
  2  4  1  0
  4  5  1  0
  5  6  1  0
  6  7  1  0
  7  8  1  0
  8  9  2  0
  8 10  1  0
 10 11  1  0
 12 11  1  6
 12 13  1  0
 14 13  1  6
 14 15  1  0
 12 16  1  0
 16 15  1  1
 17 10  1  1
 16 17  1  0
 14 18  1  0
 17 18  1  0
 18 19  1  6
 19 20  1  0
  7 21  1  0
  4 22  1  0
 21 22  1  0
M  END
