piperidine-amides-826-covalent
     RDKit          3D

 25 27  0  0  0  0  0  0  0  0999 V2000
    6.9760   -3.4050   19.3760 C   0  0  0  0  0  0  0  0  0  0  0  0
    6.3010   -4.2240   20.3600 C   0  0  0  0  0  0  0  0  0  0  0  0
    5.2980   -4.8840   19.9700 O   0  0  0  0  0  0  0  0  0  0  0  0
    6.7140   -4.3690   21.6960 N   0  0  0  0  0  0  0  0  0  0  0  0
    6.5440   -5.7050   22.3140 C   0  0  0  0  0  0  0  0  0  0  0  0
    5.5230   -5.3920   23.4840 C   0  0  0  0  0  0  0  0  0  0  0  0
    5.8710   -4.0220   24.0040 C   0  0  0  0  0  0  0  0  0  0  0  0
    5.2570   -3.7220   25.4550 C   0  0  0  0  0  0  0  0  0  0  0  0
    4.3440   -4.4680   25.7570 O   0  0  0  0  0  0  0  0  0  0  0  0
    5.9210   -2.7490   25.8660 N   0  0  0  0  0  0  0  0  0  0  0  0
    6.7180   -1.6940   26.0040 C   0  0  0  0  0  0  0  0  0  0  0  0
    7.4430   -1.1640   24.9470 C   0  0  0  0  0  0  0  0  0  0  0  0
    6.8610   -0.0560   24.2910 C   0  0  0  0  0  0  0  0  0  0  0  0
    7.4420    0.6780   23.1260 C   0  0  0  0  0  0  0  0  0  0  0  0
    8.8200    0.1030   22.6480 C   0  0  0  0  0  0  0  0  0  0  0  0
    9.2290   -1.0000   23.4240 C   0  0  0  0  0  0  0  0  0  0  0  0
   10.4470   -1.4280   22.9190 F   0  0  0  0  0  0  0  0  0  0  0  0
    8.6010   -1.6130   24.5050 C   0  0  0  0  0  0  0  0  0  0  0  0
    7.6750   -2.0050   27.1550 C   0  0  0  0  0  0  0  0  0  0  0  0
    7.0040   -1.1580   28.3100 C   0  0  0  0  0  0  0  0  0  0  0  0
    5.7740   -1.0550   28.3420 O   0  0  0  0  0  0  0  0  0  0  0  0
    5.2260   -0.4470   27.2380 C   0  0  0  0  0  0  0  0  0  0  0  0
    6.0100   -0.3230   26.1370 C   0  0  0  0  0  0  0  0  0  0  0  0
    7.3180   -3.6260   23.7450 C   0  0  0  0  0  0  0  0  0  0  0  0
    7.4490   -3.3580   22.4050 C   0  0  0  0  0  0  0  0  0  0  0  0
  1  2  1  0
  2  3  2  0
  2  4  1  0
  4  5  1  0
  5  6  1  0
  6  7  1  0
  7  8  1  0
  8  9  2  0
  8 10  1  0
 11 10  1  0
 11 12  1  0
 12 13  2  0
 13 14  1  0
 14 15  2  0
 15 16  1  0
 16 17  1  0
 12 18  1  0
 16 18  2  0
 11 19  1  0
 19 20  1  0
 20 21  1  0
 21 22  1  0
 11 23  1  0
 22 23  1  0
  7 24  1  0
  4 25  1  0
 24 25  1  0
M  END
