piperidine-amides-24887-covalent
     RDKit          3D

 24 25  0  0  0  0  0  0  0  0999 V2000
    7.0450   -3.3230   19.3160 C   0  0  0  0  0  0  0  0  0  0  0  0
    6.3610   -4.1580   20.3180 C   0  0  0  0  0  0  0  0  0  0  0  0
    5.3790   -4.8540   19.9810 O   0  0  0  0  0  0  0  0  0  0  0  0
    6.8120   -4.2210   21.6420 N   0  0  0  0  0  0  0  0  0  0  0  0
    7.6920   -3.1800   22.1530 C   0  0  0  0  0  0  0  0  0  0  0  0
    7.5530   -3.1560   23.6770 C   0  0  0  0  0  0  0  0  0  0  0  0
    6.1280   -3.5590   23.9560 C   0  0  0  0  0  0  0  0  0  0  0  0
    5.7150   -3.2940   25.3510 C   0  0  0  0  0  0  0  0  0  0  0  0
    4.5340   -3.5560   25.6620 O   0  0  0  0  0  0  0  0  0  0  0  0
    6.6270   -2.7310   26.2890 N   0  0  0  0  0  0  0  0  0  0  0  0
    7.7530   -3.4010   26.8920 C   0  0  0  0  0  0  0  0  0  0  0  0
    7.2950   -4.5530   27.7580 C   0  0  0  0  0  0  0  0  0  0  0  0
    7.5200   -5.8200   27.3240 C   0  0  0  0  0  0  0  0  0  0  0  0
    8.2150   -5.9600   26.2850 O   0  0  0  0  0  0  0  0  0  0  0  0
    9.5500   -6.0040   26.5000 C   0  0  0  0  0  0  0  0  0  0  0  0
    6.7610   -1.5540   27.1430 C   0  0  0  0  0  0  0  0  0  0  0  0
    6.0090   -0.6340   26.4390 C   0  0  0  0  0  0  0  0  0  0  0  0
    5.0940    0.3700   27.1420 C   0  0  0  0  0  0  0  0  0  0  0  0
    6.3140    0.0670   27.9760 C   0  0  0  0  0  0  0  0  0  0  0  0
    6.2020    0.5130   29.3940 C   0  0  0  0  0  0  0  0  0  0  0  0
    6.9600   -0.7530   29.3540 C   0  0  0  0  0  0  0  0  0  0  0  0
    6.4650   -1.7170   28.4710 C   0  0  0  0  0  0  0  0  0  0  0  0
    6.0100   -5.0650   23.7170 C   0  0  0  0  0  0  0  0  0  0  0  0
    6.6450   -5.4390   22.4010 C   0  0  0  0  0  0  0  0  0  0  0  0
  1  2  1  0
  2  3  2  0
  2  4  1  0
  4  5  1  0
  5  6  1  0
  6  7  1  0
  7  8  1  0
  8  9  2  0
  8 10  1  0
 10 11  1  0
 11 12  1  0
 12 13  1  0
 13 14  1  0
 14 15  1  0
 10 16  1  0
 16 17  1  0
 17 18  1  0
 18 19  1  0
 19 20  1  0
 20 21  1  0
 16 22  1  0
 21 22  1  0
  7 23  1  0
  4 24  1  0
 23 24  1  0
M  END
