piperidine-amides-13132-covalent
     RDKit          3D

 20 21  0  0  0  0  0  0  0  0999 V2000
    7.0870   -3.2870   19.2500 C   0  0  0  0  0  0  0  0  0  0  0  0
    6.3870   -4.0760   20.2920 C   0  0  0  0  0  0  0  0  0  0  0  0
    5.3490   -4.6660   19.9320 O   0  0  0  0  0  0  0  0  0  0  0  0
    6.9060   -4.1770   21.5980 N   0  0  0  0  0  0  0  0  0  0  0  0
    6.6000   -5.3300   22.3810 C   0  0  0  0  0  0  0  0  0  0  0  0
    6.0500   -4.9810   23.6910 C   0  0  0  0  0  0  0  0  0  0  0  0
    6.0750   -3.5270   23.9430 C   0  0  0  0  0  0  0  0  0  0  0  0
    5.5810   -3.1650   25.3000 C   0  0  0  0  0  0  0  0  0  0  0  0
    4.3830   -2.8380   25.3950 O   0  0  0  0  0  0  0  0  0  0  0  0
    6.3910   -3.1850   26.4530 N   0  0  0  0  0  0  0  0  0  0  0  0
    6.0380   -3.9800   27.6520 C   0  0  0  0  0  0  0  0  0  0  0  0
    5.3380   -5.2540   27.2850 C   0  0  2  0  0  0  0  0  0  0  0  0
    3.9590   -5.1230   26.8040 C   0  0  0  0  0  0  0  0  0  0  0  0
    3.0290   -6.0600   27.1860 C   0  0  0  0  0  0  0  0  0  0  0  0
    3.1930   -6.6680   28.4010 C   0  0  0  0  0  0  0  0  0  0  0  0
    4.3210   -6.3230   29.0720 C   0  0  0  0  0  0  0  0  0  0  0  0
    5.5080   -6.2850   28.4060 C   0  0  2  0  0  0  0  0  0  0  0  0
    6.6280   -6.1690   29.1670 C   0  0  0  0  0  0  0  0  0  0  0  0
    7.4410   -2.9780   23.6370 C   0  0  0  0  0  0  0  0  0  0  0  0
    7.7440   -3.1410   22.1900 C   0  0  0  0  0  0  0  0  0  0  0  0
  1  2  1  0
  2  3  2  0
  2  4  1  0
  4  5  1  0
  5  6  1  0
  6  7  1  0
  7  8  1  0
  8  9  2  0
  8 10  1  0
 10 11  1  0
 12 11  1  1
 12 13  1  0
 13 14  1  0
 14 15  1  0
 15 16  1  0
 12 17  1  0
 16 17  1  0
 17 18  1  1
  7 19  1  0
  4 20  1  0
 19 20  1  0
M  END
