piperidine-amides-30753-covalent
     RDKit          3D

 23 25  0  0  0  0  0  0  0  0999 V2000
    7.0720   -3.3380   19.3230 C   0  0  0  0  0  0  0  0  0  0  0  0
    6.4000   -4.1640   20.3280 C   0  0  0  0  0  0  0  0  0  0  0  0
    5.4070   -4.8340   19.9840 O   0  0  0  0  0  0  0  0  0  0  0  0
    6.8770   -4.2460   21.6530 N   0  0  0  0  0  0  0  0  0  0  0  0
    6.7150   -5.4530   22.4490 C   0  0  0  0  0  0  0  0  0  0  0  0
    6.1060   -5.0260   23.7650 C   0  0  0  0  0  0  0  0  0  0  0  0
    6.2500   -3.5490   23.9430 C   0  0  0  0  0  0  0  0  0  0  0  0
    5.8210   -3.0040   25.2560 C   0  0  0  0  0  0  0  0  0  0  0  0
    5.0310   -2.0200   25.2820 O   0  0  0  0  0  0  0  0  0  0  0  0
    6.1650   -3.5240   26.5170 N   0  0  0  0  0  0  0  0  0  0  0  0
    7.6270   -4.0230   26.7000 C   0  0  0  0  0  0  0  0  0  0  0  0
    8.1570   -4.3550   28.1090 C   0  0  0  0  0  0  0  0  0  0  0  0
    7.1360   -4.7990   28.8330 N   0  0  0  0  0  0  0  0  0  0  0  0
    6.9180   -6.1280   29.1220 C   0  0  0  0  0  0  0  0  0  0  0  0
    6.1140   -4.4440   27.9200 C   0  0  0  0  0  0  0  0  0  0  0  0
    4.9100   -5.2820   28.6440 C   0  0  0  0  0  0  0  0  0  0  0  0
    6.0300   -5.5980   29.4840 C   0  0  0  0  0  0  0  0  0  0  0  0
    4.8400   -6.7090   30.5410 Br  0  0  0  0  0  0  0  0  0  0  0  0
    6.2710   -4.7930   28.4790 C   0  0  0  0  0  0  0  0  0  0  0  0
    4.8350   -5.0550   28.3530 C   0  0  0  0  0  0  0  0  0  0  0  0
    5.1250   -4.2140   27.2030 C   0  0  0  0  0  0  0  0  0  0  0  0
    7.6120   -3.0380   23.6140 C   0  0  0  0  0  0  0  0  0  0  0  0
    7.7930   -3.2110   22.1330 C   0  0  0  0  0  0  0  0  0  0  0  0
  1  2  1  0
  2  3  2  0
  2  4  1  0
  4  5  1  0
  5  6  1  0
  6  7  1  0
  7  8  1  0
  8  9  2  0
  8 10  1  0
 10 11  1  0
 11 12  1  0
 12 13  1  0
 13 14  1  0
 13 15  1  0
 15 16  2  0
 16 17  1  0
 17 18  1  0
 17 19  2  0
 19 20  1  0
 10 21  1  0
 15 21  1  0
 20 21  2  0
  7 22  1  0
  4 23  1  0
 22 23  1  0
M  END
