piperidine-amides-715-covalent
     RDKit          3D

 25 27  0  0  0  0  0  0  0  0999 V2000
    7.1350   -3.2600   19.3310 C   0  0  0  0  0  0  0  0  0  0  0  0
    6.3780   -4.0100   20.3130 C   0  0  0  0  0  0  0  0  0  0  0  0
    5.3510   -4.6530   19.9230 O   0  0  0  0  0  0  0  0  0  0  0  0
    6.7530   -4.0780   21.6720 N   0  0  0  0  0  0  0  0  0  0  0  0
    7.6140   -2.9760   22.1810 C   0  0  0  0  0  0  0  0  0  0  0  0
    7.5210   -3.1880   23.7420 C   0  0  0  0  0  0  0  0  0  0  0  0
    6.1400   -3.7520   23.9570 C   0  0  0  0  0  0  0  0  0  0  0  0
    5.4510   -3.4110   25.3500 C   0  0  0  0  0  0  0  0  0  0  0  0
    4.5100   -4.1680   25.5260 O   0  0  0  0  0  0  0  0  0  0  0  0
    6.0100   -2.4410   25.9470 N   0  0  0  0  0  0  0  0  0  0  0  0
    6.4870   -1.4090   26.6880 C   0  0  0  0  0  0  0  0  0  0  0  0
    6.0890   -0.3280   27.4370 C   0  0  0  0  0  0  0  0  0  0  0  0
    4.7350   -0.5560   28.0110 N   0  0  0  0  0  0  0  0  0  0  0  0
    4.0790    0.6970   28.9760 S   0  0  0  0  0  0  0  0  0  0  0  0
    4.5490    0.5930   30.3680 O   0  0  0  0  0  0  0  0  0  0  0  0
    2.5940    0.5880   28.8290 O   0  0  0  0  0  0  0  0  0  0  0  0
    4.6590    2.1330   28.2360 C   0  0  0  0  0  0  0  0  0  0  0  0
    3.9200    3.4010   28.1420 C   0  0  0  0  0  0  0  0  0  0  0  0
    4.7090    4.5000   27.4160 C   0  0  0  0  0  0  0  0  0  0  0  0
    5.9940    4.2220   26.9290 C   0  0  0  0  0  0  0  0  0  0  0  0
    6.8840    3.1380   26.8940 C   0  0  0  0  0  0  0  0  0  0  0  0
    6.0140    2.1140   27.6320 C   0  0  0  0  0  0  0  0  0  0  0  0
    6.6800    0.8580   27.7640 N   0  0  0  0  0  0  0  0  0  0  0  0
    6.0310   -5.1800   23.5250 C   0  0  0  0  0  0  0  0  0  0  0  0
    6.7190   -5.3370   22.3530 C   0  0  0  0  0  0  0  0  0  0  0  0
  1  2  1  0
  2  3  2  0
  2  4  1  0
  4  5  1  0
  5  6  1  0
  6  7  1  0
  7  8  1  0
  8  9  2  0
  8 10  1  0
 10 11  1  0
 11 12  1  0
 12 13  2  0
 14 13  1  0
 14 15  2  0
 14 16  2  0
 14 17  1  0
 17 18  2  0
 18 19  1  0
 19 20  2  0
 20 21  1  0
 17 22  1  0
 21 22  2  0
 12 23  1  0
 22 23  1  0
  7 24  1  0
  4 25  1  0
 24 25  1  0
M  END
