piperidine-amides-33896-covalent
     RDKit          3D

 30 32  0  0  0  0  0  0  0  0999 V2000
    7.0440   -5.0890   19.9740 C   0  0  0  0  0  0  0  0  0  0  0  0
    5.9610   -4.3100   20.4230 C   0  0  0  0  0  0  0  0  0  0  0  0
    5.1270   -3.9280   19.5910 O   0  0  0  0  0  0  0  0  0  0  0  0
    5.9380   -4.1040   21.7740 N   0  0  0  0  0  0  0  0  0  0  0  0
    6.8430   -3.1320   22.2780 C   0  0  0  0  0  0  0  0  0  0  0  0
    7.2030   -3.3860   23.6600 C   0  0  0  0  0  0  0  0  0  0  0  0
    6.2820   -4.2980   24.3830 C   0  0  0  0  0  0  0  0  0  0  0  0
    5.4940   -3.5310   25.3660 C   0  0  0  0  0  0  0  0  0  0  0  0
    4.5380   -2.8410   24.9760 O   0  0  0  0  0  0  0  0  0  0  0  0
    5.8110   -3.5800   26.7110 N   0  0  0  0  0  0  0  0  0  0  0  0
    6.0080   -4.7860   27.4670 C   0  0  0  0  0  0  0  0  0  0  0  0
    4.9290   -5.5330   28.1010 C   0  0  2  0  0  0  0  0  0  0  0  0
    4.1310   -4.9070   28.8640 O   0  0  0  0  0  0  0  0  0  0  0  0
    5.5550   -6.6650   28.9580 C   0  0  0  0  0  0  0  0  0  0  0  0
    5.1850   -7.8610   28.8540 O   0  0  0  0  0  0  0  0  0  0  0  0
    6.0630   -2.2960   27.3020 C   0  0  0  0  0  0  0  0  0  0  0  0
    6.6940   -2.1990   28.4850 N   0  0  0  0  0  0  0  0  0  0  0  0
    6.8350   -0.8390   28.9050 C   0  0  0  0  0  0  0  0  0  0  0  0
    6.3480    0.2850   28.1200 N   0  0  0  0  0  0  0  0  0  0  0  0
    5.7050    0.3680   26.9130 C   0  0  0  0  0  0  0  0  0  0  0  0
    6.0310    1.5530   27.6610 C   0  0  0  0  0  0  0  0  0  0  0  0
    6.7020    1.4430   28.9220 C   0  0  0  0  0  0  0  0  0  0  0  0
    7.0420    0.0460   29.4230 C   0  0  0  0  0  0  0  0  0  0  0  0
    7.2580   -1.3000   29.6940 N   0  0  0  0  0  0  0  0  0  0  0  0
    8.4490   -1.5690   29.9370 O   0  0  0  0  0  0  0  0  0  0  0  0
    6.2900   -1.9590   30.4120 O   0  0  0  0  0  0  0  0  0  0  0  0
    6.4710   -0.9260   28.2290 C   0  0  0  0  0  0  0  0  0  0  0  0
    5.7410   -0.9430   26.8390 C   0  0  0  0  0  0  0  0  0  0  0  0
    5.3250   -5.1000   23.5840 C   0  0  0  0  0  0  0  0  0  0  0  0
    6.0000   -5.3560   22.4450 C   0  0  0  0  0  0  0  0  0  0  0  0
  1  2  1  0
  2  3  2  0
  2  4  1  0
  4  5  1  0
  5  6  1  0
  6  7  1  0
  7  8  1  0
  8  9  2  0
  8 10  1  0
 10 11  1  0
 11 12  1  0
 12 13  1  1
 12 14  1  0
 14 15  1  0
 10 16  1  0
 16 17  2  0
 17 18  1  0
 18 19  2  0
 19 20  1  0
 20 21  1  0
 21 22  2  0
 22 23  1  0
 23 24  1  0
 24 25  2  0
 24 26  1  0
 23 27  2  0
 16 28  1  0
 20 28  2  0
 27 28  1  0
  7 29  1  0
  4 30  1  0
 29 30  1  0
M  CHG  2  24   1  26  -1
M  END
