piperidine-amides-7090-covalent
     RDKit          3D

 21 22  0  0  0  0  0  0  0  0999 V2000
    7.0540   -3.2960   19.2610 C   0  0  0  0  0  0  0  0  0  0  0  0
    6.3490   -4.0920   20.2810 C   0  0  0  0  0  0  0  0  0  0  0  0
    5.3490   -4.7650   19.9570 O   0  0  0  0  0  0  0  0  0  0  0  0
    6.8020   -4.1440   21.6110 N   0  0  0  0  0  0  0  0  0  0  0  0
    7.6980   -3.1060   22.0960 C   0  0  0  0  0  0  0  0  0  0  0  0
    7.5250   -2.9900   23.6150 C   0  0  0  0  0  0  0  0  0  0  0  0
    6.1550   -3.5450   23.9030 C   0  0  0  0  0  0  0  0  0  0  0  0
    5.6840   -3.1310   25.2400 C   0  0  0  0  0  0  0  0  0  0  0  0
    4.4840   -3.3440   25.5190 O   0  0  0  0  0  0  0  0  0  0  0  0
    6.5530   -2.5120   26.1710 N   0  0  0  0  0  0  0  0  0  0  0  0
    6.2380   -2.5930   27.5730 C   0  0  0  0  0  0  0  0  0  0  0  0
    6.3060   -1.2230   28.2210 C   0  0  2  0  0  0  0  0  0  0  0  0
    7.2190   -0.9880   29.2130 C   0  0  0  0  0  0  0  0  0  0  0  0
    7.4180    0.2110   29.5210 O   0  0  0  0  0  0  0  0  0  0  0  0
    6.3060    0.9610   29.3510 C   0  0  0  0  0  0  0  0  0  0  0  0
    5.1210    0.2420   29.5120 C   0  0  0  0  0  0  0  0  0  0  0  0
    3.9740    1.0020   29.5040 C   0  0  0  0  0  0  0  0  0  0  0  0
    5.2280   -0.2030   30.9820 C   0  0  0  0  0  0  0  0  0  0  0  0
    5.0230   -0.9740   28.8300 O   0  0  0  0  0  0  0  0  0  0  0  0
    6.0810   -5.0160   23.6940 C   0  0  0  0  0  0  0  0  0  0  0  0
    6.6860   -5.3790   22.3750 C   0  0  0  0  0  0  0  0  0  0  0  0
  1  2  1  0
  2  3  2  0
  2  4  1  0
  4  5  1  0
  5  6  1  0
  6  7  1  0
  7  8  1  0
  8  9  2  0
  8 10  1  0
 10 11  1  0
 12 11  1  1
 12 13  1  0
 13 14  1  0
 14 15  1  0
 15 16  1  0
 16 17  1  0
 16 18  1  0
 12 19  1  0
 16 19  1  0
  7 20  1  0
  4 21  1  0
 20 21  1  0
M  END
