piperidine-amides-6484-covalent
     RDKit          3D

 25 27  0  0  0  0  0  0  0  0999 V2000
    7.0750   -3.3180   19.3300 C   0  0  0  0  0  0  0  0  0  0  0  0
    6.4000   -4.1790   20.3120 C   0  0  0  0  0  0  0  0  0  0  0  0
    5.3880   -4.8370   19.9800 O   0  0  0  0  0  0  0  0  0  0  0  0
    6.9140   -4.3040   21.6080 N   0  0  0  0  0  0  0  0  0  0  0  0
    6.5760   -5.4570   22.4010 C   0  0  0  0  0  0  0  0  0  0  0  0
    5.7690   -4.9210   23.5870 C   0  0  0  0  0  0  0  0  0  0  0  0
    6.5890   -3.8160   24.2380 C   0  0  0  0  0  0  0  0  0  0  0  0
    5.8470   -3.2520   25.3880 C   0  0  0  0  0  0  0  0  0  0  0  0
    4.6180   -3.0710   25.2500 O   0  0  0  0  0  0  0  0  0  0  0  0
    6.5020   -2.9230   26.6080 N   0  0  0  0  0  0  0  0  0  0  0  0
    6.3690   -1.5670   27.0770 C   0  0  0  0  0  0  0  0  0  0  0  0
    5.7680   -0.5310   26.0860 C   0  0  0  0  0  0  0  0  0  0  0  0
    5.9050    0.5050   27.1680 N   0  0  0  0  0  0  0  0  0  0  0  0
    6.3900    0.2650   28.3630 N   0  0  0  0  0  0  0  0  0  0  0  0
    6.4070    1.3610   29.1860 C   0  0  0  0  0  0  0  0  0  0  0  0
    5.7400    2.5270   28.8500 C   0  0  0  0  0  0  0  0  0  0  0  0
    6.5250    3.6070   29.0840 N   0  0  0  0  0  0  0  0  0  0  0  0
    7.8220    3.6670   28.6320 C   0  0  0  0  0  0  0  0  0  0  0  0
    8.3580    4.9220   28.4400 C   0  0  0  0  0  0  0  0  0  0  0  0
    7.6930    6.0140   28.8390 O   0  0  0  0  0  0  0  0  0  0  0  0
    6.3970    6.0840   29.1940 C   0  0  0  0  0  0  0  0  0  0  0  0
    5.7060    4.7890   28.8410 C   0  0  0  0  0  0  0  0  0  0  0  0
    6.7470   -1.0820   28.4280 C   0  0  0  0  0  0  0  0  0  0  0  0
    6.8870   -2.7150   23.2560 C   0  0  0  0  0  0  0  0  0  0  0  0
    7.6720   -3.2460   22.2310 C   0  0  0  0  0  0  0  0  0  0  0  0
  1  2  1  0
  2  3  2  0
  2  4  1  0
  4  5  1  0
  5  6  1  0
  6  7  1  0
  7  8  1  0
  8  9  2  0
  8 10  1  0
 10 11  1  0
 11 12  1  0
 12 13  2  0
 13 14  1  0
 14 15  1  0
 15 16  1  0
 16 17  1  0
 17 18  1  0
 18 19  1  0
 19 20  1  0
 20 21  1  0
 17 22  1  0
 21 22  1  0
 11 23  2  0
 14 23  1  0
  7 24  1  0
  4 25  1  0
 24 25  1  0
M  END
