piperidine-amides-7005-covalent
     RDKit          3D

 22 22  0  0  0  0  0  0  0  0999 V2000
    7.1300   -3.2360   19.2060 C   0  0  0  0  0  0  0  0  0  0  0  0
    6.3430   -3.9920   20.1940 C   0  0  0  0  0  0  0  0  0  0  0  0
    5.2720   -4.5490   19.8760 O   0  0  0  0  0  0  0  0  0  0  0  0
    6.8170   -4.1320   21.4950 N   0  0  0  0  0  0  0  0  0  0  0  0
    6.5140   -5.3400   22.2320 C   0  0  0  0  0  0  0  0  0  0  0  0
    5.7720   -4.8870   23.4930 C   0  0  0  0  0  0  0  0  0  0  0  0
    6.6980   -3.9060   24.1850 C   0  0  0  0  0  0  0  0  0  0  0  0
    6.1370   -3.5090   25.4830 C   0  0  0  0  0  0  0  0  0  0  0  0
    4.9060   -3.2560   25.5570 O   0  0  0  0  0  0  0  0  0  0  0  0
    7.0160   -3.4070   26.5890 N   0  0  0  0  0  0  0  0  0  0  0  0
    7.2600   -4.5210   27.4810 C   0  0  2  0  0  0  0  0  0  0  0  0
    8.1490   -5.5270   26.7900 C   0  0  0  0  0  0  0  0  0  0  0  0
    9.4450   -5.2010   26.5000 C   0  0  0  0  0  0  0  0  0  0  0  0
    9.6770   -4.5040   25.4660 O   0  0  0  0  0  0  0  0  0  0  0  0
   10.7970   -3.7300   25.4630 C   0  0  0  0  0  0  0  0  0  0  0  0
    5.9360   -5.0720   27.9220 C   0  0  0  0  0  0  0  0  0  0  0  0
    5.1040   -4.2810   28.6950 O   0  0  0  0  0  0  0  0  0  0  0  0
    5.4790   -6.3430   27.6280 O   0  0  0  0  0  0  0  0  0  0  0  0
    5.0250   -7.2080   28.6490 C   0  0  0  0  0  0  0  0  0  0  0  0
    5.8130   -7.4130   29.9270 C   0  0  0  0  0  0  0  0  0  0  0  0
    7.0090   -2.7120   23.3470 C   0  0  0  0  0  0  0  0  0  0  0  0
    7.6850   -3.1420   22.1000 C   0  0  0  0  0  0  0  0  0  0  0  0
  1  2  1  0
  2  3  2  0
  2  4  1  0
  4  5  1  0
  5  6  1  0
  6  7  1  0
  7  8  1  0
  8  9  2  0
  8 10  1  0
 10 11  1  0
 11 12  1  6
 12 13  1  0
 13 14  1  0
 14 15  1  0
 11 16  1  0
 16 17  2  0
 16 18  1  0
 18 19  1  0
 19 20  1  0
  7 21  1  0
  4 22  1  0
 21 22  1  0
M  END
