piperidine-amides-5330-covalent
     RDKit          3D

 21 22  0  0  0  0  0  0  0  0999 V2000
    7.0570   -3.3350   19.3310 C   0  0  0  0  0  0  0  0  0  0  0  0
    6.3990   -4.1860   20.3450 C   0  0  0  0  0  0  0  0  0  0  0  0
    5.3730   -4.7910   19.9720 O   0  0  0  0  0  0  0  0  0  0  0  0
    6.9480   -4.3360   21.6360 N   0  0  0  0  0  0  0  0  0  0  0  0
    6.5970   -5.4580   22.4440 C   0  0  0  0  0  0  0  0  0  0  0  0
    6.0560   -5.0750   23.7480 C   0  0  0  0  0  0  0  0  0  0  0  0
    6.1060   -3.6180   23.9950 C   0  0  0  0  0  0  0  0  0  0  0  0
    5.6520   -3.2780   25.3670 C   0  0  0  0  0  0  0  0  0  0  0  0
    4.4420   -3.4470   25.6390 O   0  0  0  0  0  0  0  0  0  0  0  0
    6.5290   -2.7420   26.3330 N   0  0  0  0  0  0  0  0  0  0  0  0
    6.0990   -1.7020   27.3090 C   0  0  0  0  0  0  0  0  0  0  0  0
    4.8460   -2.1550   27.9880 C   0  0  0  0  0  0  0  0  0  0  0  0
    3.8900   -1.2760   28.5720 N   0  0  0  0  0  0  0  0  0  0  0  0
    4.4770   -3.3540   28.1350 O   0  0  0  0  0  0  0  0  0  0  0  0
    5.8150   -0.4250   26.6300 C   0  0  0  0  0  0  0  0  0  0  0  0
    5.8720    0.7340   27.3780 C   0  0  0  0  0  0  0  0  0  0  0  0
    6.1890    0.7090   28.7260 C   0  0  0  0  0  0  0  0  0  0  0  0
    6.7660   -0.4330   29.2180 C   0  0  0  0  0  0  0  0  0  0  0  0
    7.0980   -1.4300   28.3520 C   0  0  0  0  0  0  0  0  0  0  0  0
    7.3690   -2.9770   23.5770 C   0  0  0  0  0  0  0  0  0  0  0  0
    7.6840   -3.2360   22.2410 C   0  0  0  0  0  0  0  0  0  0  0  0
  1  2  1  0
  2  3  2  0
  2  4  1  0
  4  5  1  0
  5  6  1  0
  6  7  1  0
  7  8  1  0
  8  9  2  0
  8 10  1  0
 10 11  1  0
 11 12  1  0
 12 13  1  0
 12 14  2  0
 11 15  1  0
 15 16  1  0
 16 17  1  0
 17 18  1  0
 11 19  1  0
 18 19  1  0
  7 20  1  0
  4 21  1  0
 20 21  1  0
M  END
