piperidine-amides-31173-covalent
     RDKit          3D

 26 28  0  0  0  0  0  0  0  0999 V2000
    7.0030   -3.3610   19.3930 C   0  0  0  0  0  0  0  0  0  0  0  0
    6.3680   -4.2430   20.3830 C   0  0  0  0  0  0  0  0  0  0  0  0
    5.4070   -4.9310   20.0040 O   0  0  0  0  0  0  0  0  0  0  0  0
    6.8310   -4.3650   21.7170 N   0  0  0  0  0  0  0  0  0  0  0  0
    6.7130   -5.6110   22.4530 C   0  0  0  0  0  0  0  0  0  0  0  0
    6.1670   -5.2680   23.8240 C   0  0  0  0  0  0  0  0  0  0  0  0
    6.0560   -3.7820   24.0080 C   0  0  0  0  0  0  0  0  0  0  0  0
    5.4200   -3.2640   25.2690 C   0  0  0  0  0  0  0  0  0  0  0  0
    4.7050   -2.2310   25.1820 O   0  0  0  0  0  0  0  0  0  0  0  0
    5.5000   -3.8000   26.5850 N   0  0  0  0  0  0  0  0  0  0  0  0
    4.2580   -4.2030   27.2600 C   0  0  0  0  0  0  0  0  0  0  0  0
    4.4040   -4.0180   28.7390 C   0  0  0  0  0  0  0  0  0  0  0  0
    5.5020   -4.6560   29.1490 N   0  0  0  0  0  0  0  0  0  0  0  0
    5.4020   -6.2260   29.2110 S   0  0  0  0  0  0  0  0  0  0  0  0
    5.0710   -6.7020   27.8530 O   0  0  0  0  0  0  0  0  0  0  0  0
    6.7790   -6.6980   29.5780 O   0  0  0  0  0  0  0  0  0  0  0  0
    4.1720   -6.6230   30.4310 C   0  0  0  0  0  0  0  0  0  0  0  0
    4.3360   -7.3850   31.6460 C   0  0  0  0  0  0  0  0  0  0  0  0
    3.1110   -7.4710   32.3360 N   0  0  0  0  0  0  0  0  0  0  0  0
    2.1790   -6.7860   31.5860 N   0  0  0  0  0  0  0  0  0  0  0  0
    0.7830   -6.6190   31.9210 C   0  0  0  0  0  0  0  0  0  0  0  0
    2.7020   -6.2360   30.4230 C   0  0  0  0  0  0  0  0  0  0  0  0
    6.5370   -4.3940   28.3620 C   0  0  0  0  0  0  0  0  0  0  0  0
    6.3670   -3.2810   27.5260 C   0  0  0  0  0  0  0  0  0  0  0  0
    7.3860   -3.0740   23.7390 C   0  0  0  0  0  0  0  0  0  0  0  0
    7.6870   -3.3110   22.2510 C   0  0  0  0  0  0  0  0  0  0  0  0
  1  2  1  0
  2  3  2  0
  2  4  1  0
  4  5  1  0
  5  6  1  0
  6  7  1  0
  7  8  1  0
  8  9  2  0
  8 10  1  0
 10 11  1  0
 11 12  1  0
 12 13  1  0
 13 14  1  0
 14 15  2  0
 14 16  2  0
 14 17  1  0
 17 18  1  0
 18 19  2  0
 19 20  1  0
 20 21  1  0
 17 22  2  0
 20 22  1  0
 13 23  1  0
 10 24  1  0
 23 24  1  0
  7 25  1  0
  4 26  1  0
 25 26  1  0
M  END
