piperidine-amides-3061-covalent
     RDKit          3D

 23 25  0  0  0  0  0  0  0  0999 V2000
    7.0370   -3.2960   19.2870 C   0  0  0  0  0  0  0  0  0  0  0  0
    6.3050   -4.0660   20.2900 C   0  0  0  0  0  0  0  0  0  0  0  0
    5.3070   -4.6950   19.9400 O   0  0  0  0  0  0  0  0  0  0  0  0
    6.7490   -4.1520   21.6610 N   0  0  0  0  0  0  0  0  0  0  0  0
    7.5790   -3.1180   22.2420 C   0  0  0  0  0  0  0  0  0  0  0  0
    7.1630   -2.8990   23.6690 C   0  0  0  0  0  0  0  0  0  0  0  0
    5.8390   -3.6220   23.8160 C   0  0  0  0  0  0  0  0  0  0  0  0
    5.1300   -3.3550   25.1110 C   0  0  0  0  0  0  0  0  0  0  0  0
    4.1920   -4.0730   25.4870 O   0  0  0  0  0  0  0  0  0  0  0  0
    5.4830   -2.2780   25.9530 N   0  0  0  0  0  0  0  0  0  0  0  0
    6.6060   -2.4890   26.7960 C   0  0  0  0  0  0  0  0  0  0  0  0
    6.4610   -1.8310   28.1520 C   0  0  0  0  0  0  0  0  0  0  0  0
    7.3960   -1.3060   28.9980 C   0  0  0  0  0  0  0  0  0  0  0  0
    6.7310   -0.8540   30.0680 C   0  0  0  0  0  0  0  0  0  0  0  0
    7.1470   -0.2280   31.2400 C   0  0  0  0  0  0  0  0  0  0  0  0
    6.2560    0.2050   32.3300 C   0  0  0  0  0  0  0  0  0  0  0  0
    6.6650    0.8180   33.4880 C   0  0  0  0  0  0  0  0  0  0  0  0
    4.9430   -0.0540   32.1100 C   0  0  0  0  0  0  0  0  0  0  0  0
    4.4660   -0.6670   30.9720 C   0  0  0  0  0  0  0  0  0  0  0  0
    5.3850   -1.0760   29.9300 C   0  0  0  0  0  0  0  0  0  0  0  0
    5.2120   -1.6520   28.8020 O   0  0  0  0  0  0  0  0  0  0  0  0
    5.9610   -5.1260   23.5990 C   0  0  0  0  0  0  0  0  0  0  0  0
    6.6020   -5.3870   22.3820 C   0  0  0  0  0  0  0  0  0  0  0  0
  1  2  1  0
  2  3  2  0
  2  4  1  0
  4  5  1  0
  5  6  1  0
  6  7  1  0
  7  8  1  0
  8  9  2  0
  8 10  1  0
 10 11  1  0
 11 12  1  0
 12 13  2  0
 13 14  1  0
 14 15  2  0
 15 16  1  0
 16 17  1  0
 16 18  2  0
 18 19  1  0
 14 20  1  0
 19 20  2  0
 12 21  1  0
 20 21  1  0
  7 22  1  0
  4 23  1  0
 22 23  1  0
M  END
