piperidine-amides-4401-covalent
     RDKit          3D

 25 26  0  0  0  0  0  0  0  0999 V2000
    7.0520   -3.3690   19.3070 C   0  0  0  0  0  0  0  0  0  0  0  0
    6.3990   -4.2070   20.3240 C   0  0  0  0  0  0  0  0  0  0  0  0
    5.3510   -4.7980   19.9710 O   0  0  0  0  0  0  0  0  0  0  0  0
    6.9680   -4.3790   21.6130 N   0  0  0  0  0  0  0  0  0  0  0  0
    6.5370   -5.4690   22.4260 C   0  0  0  0  0  0  0  0  0  0  0  0
    5.9820   -5.0460   23.7080 C   0  0  0  0  0  0  0  0  0  0  0  0
    6.0890   -3.5980   23.9510 C   0  0  0  0  0  0  0  0  0  0  0  0
    5.6910   -3.1920   25.3380 C   0  0  0  0  0  0  0  0  0  0  0  0
    4.5100   -3.3390   25.7100 O   0  0  0  0  0  0  0  0  0  0  0  0
    6.6460   -2.6500   26.2130 N   0  0  0  0  0  0  0  0  0  0  0  0
    6.5470   -1.5680   27.1230 C   0  0  0  0  0  0  0  0  0  0  0  0
    7.0960   -1.5910   28.5000 C   0  0  0  0  0  0  0  0  0  0  0  0
    6.9310   -0.3500   29.3880 C   0  0  0  0  0  0  0  0  0  0  0  0
    6.2710    0.6700   28.7900 C   0  0  0  0  0  0  0  0  0  0  0  0
    6.1070    1.8970   29.6920 C   0  0  0  0  0  0  0  0  0  0  0  0
    5.7950    3.1100   29.0880 O   0  0  0  0  0  0  0  0  0  0  0  0
    6.2570    1.8200   31.0570 O   0  0  0  0  0  0  0  0  0  0  0  0
    5.4310    0.9220   31.5070 C   0  0  0  0  0  0  0  0  0  0  0  0
    5.6830    0.8320   27.4660 C   0  0  0  0  0  0  0  0  0  0  0  0
    5.0520    1.9790   27.0790 F   0  0  0  0  0  0  0  0  0  0  0  0
    5.8220   -0.3620   26.5570 C   0  0  0  0  0  0  0  0  0  0  0  0
    5.3140   -0.4040   25.2320 O   0  0  0  0  0  0  0  0  0  0  0  0
    6.1220    0.0700   24.2370 C   0  0  0  0  0  0  0  0  0  0  0  0
    7.5100   -3.1120   23.6380 C   0  0  0  0  0  0  0  0  0  0  0  0
    7.6690   -3.2000   22.1640 C   0  0  0  0  0  0  0  0  0  0  0  0
  1  2  1  0
  2  3  2  0
  2  4  1  0
  4  5  1  0
  5  6  1  0
  6  7  1  0
  7  8  1  0
  8  9  2  0
  8 10  1  0
 10 11  1  0
 11 12  2  0
 12 13  1  0
 13 14  2  0
 14 15  1  0
 15 16  2  0
 15 17  1  0
 17 18  1  0
 14 19  1  0
 19 20  1  0
 11 21  1  0
 19 21  2  0
 21 22  1  0
 22 23  1  0
  7 24  1  0
  4 25  1  0
 24 25  1  0
M  END
