piperidine-amides-589-covalent
     RDKit          3D

 26 28  0  0  0  0  0  0  0  0999 V2000
    7.0700   -3.3660   19.2460 C   0  0  0  0  0  0  0  0  0  0  0  0
    6.3590   -4.0930   20.2730 C   0  0  0  0  0  0  0  0  0  0  0  0
    5.2900   -4.6830   19.9320 O   0  0  0  0  0  0  0  0  0  0  0  0
    6.8250   -4.2310   21.5950 N   0  0  0  0  0  0  0  0  0  0  0  0
    7.6610   -3.1470   22.1540 C   0  0  0  0  0  0  0  0  0  0  0  0
    6.6800   -2.6610   23.2780 C   0  0  0  0  0  0  0  0  0  0  0  0
    6.7700   -3.7510   24.3070 C   0  0  0  0  0  0  0  0  0  0  0  0
    5.7610   -3.5560   25.5160 C   0  0  0  0  0  0  0  0  0  0  0  0
    4.9970   -4.5020   25.5930 O   0  0  0  0  0  0  0  0  0  0  0  0
    5.9760   -2.4540   26.1020 N   0  0  0  0  0  0  0  0  0  0  0  0
    6.0560   -1.2580   26.7470 C   0  0  0  0  0  0  0  0  0  0  0  0
    5.8870    0.0390   26.4820 C   0  0  0  0  0  0  0  0  0  0  0  0
    6.0440    1.0520   27.4650 C   0  0  0  0  0  0  0  0  0  0  0  0
    6.4020    1.0170   28.9290 C   0  0  0  0  0  0  0  0  0  0  0  0
    6.7500    0.7640   30.2810 N   0  0  0  0  0  0  0  0  0  0  0  0
    8.0450    1.0750   30.9060 C   0  0  0  0  0  0  0  0  0  0  0  0
    7.6180    1.6410   32.1140 C   0  0  0  0  0  0  0  0  0  0  0  0
    6.8930    0.8160   32.8730 N   0  0  0  0  0  0  0  0  0  0  0  0
    7.4790    0.0570   33.9710 C   0  0  0  0  0  0  0  0  0  0  0  0
    5.7430    0.2090   32.2650 C   0  0  0  0  0  0  0  0  0  0  0  0
    6.2750   -0.3370   30.8930 C   0  0  0  0  0  0  0  0  0  0  0  0
    6.5420   -0.3550   29.0280 N   0  0  0  0  0  0  0  0  0  0  0  0
    6.4260   -1.3920   28.2020 C   0  0  0  0  0  0  0  0  0  0  0  0
    6.6390   -2.6550   28.6700 C   0  0  0  0  0  0  0  0  0  0  0  0
    6.8170   -5.1650   23.7400 C   0  0  0  0  0  0  0  0  0  0  0  0
    6.2530   -5.2070   22.4840 C   0  0  0  0  0  0  0  0  0  0  0  0
  1  2  1  0
  2  3  2  0
  2  4  1  0
  4  5  1  0
  5  6  1  0
  6  7  1  0
  7  8  1  0
  8  9  2  0
  8 10  1  0
 10 11  1  0
 11 12  2  0
 12 13  1  0
 13 14  2  0
 14 15  1  0
 15 16  1  0
 16 17  1  0
 17 18  1  0
 18 19  1  0
 18 20  1  0
 15 21  1  0
 20 21  1  0
 14 22  1  0
 11 23  1  0
 22 23  2  0
 23 24  1  0
  7 25  1  0
  4 26  1  0
 25 26  1  0
M  END
