piperidine-amides-27410-covalent
     RDKit          3D

 26 28  0  0  0  0  0  0  0  0999 V2000
    7.0570   -3.3470   19.3570 C   0  0  0  0  0  0  0  0  0  0  0  0
    6.4010   -4.1780   20.3700 C   0  0  0  0  0  0  0  0  0  0  0  0
    5.3950   -4.8360   19.9830 O   0  0  0  0  0  0  0  0  0  0  0  0
    6.9130   -4.2530   21.6730 N   0  0  0  0  0  0  0  0  0  0  0  0
    7.8100   -3.2310   22.1880 C   0  0  0  0  0  0  0  0  0  0  0  0
    7.4850   -3.0000   23.6290 C   0  0  0  0  0  0  0  0  0  0  0  0
    6.0900   -3.4710   23.8880 C   0  0  0  0  0  0  0  0  0  0  0  0
    5.5280   -2.9780   25.1690 C   0  0  0  0  0  0  0  0  0  0  0  0
    4.3790   -2.4900   25.1130 O   0  0  0  0  0  0  0  0  0  0  0  0
    6.1370   -3.0290   26.4380 N   0  0  0  0  0  0  0  0  0  0  0  0
    5.7180   -4.1980   27.1870 C   0  0  0  0  0  0  0  0  0  0  0  0
    6.5310   -4.6660   28.3820 C   0  0  0  0  0  0  0  0  0  0  0  0
    6.1720   -5.7710   29.0960 C   0  0  0  0  0  0  0  0  0  0  0  0
    5.0510   -6.4700   28.7320 C   0  0  0  0  0  0  0  0  0  0  0  0
    4.5820   -7.5970   29.3780 C   0  0  0  0  0  0  0  0  0  0  0  0
    4.9440   -7.7370   30.6660 N   0  0  0  0  0  0  0  0  0  0  0  0
    4.2810   -6.1150   27.6910 N   0  0  0  0  0  0  0  0  0  0  0  0
    4.5760   -4.9610   26.8640 C   0  0  0  0  0  0  0  0  0  0  0  0
    6.4150   -1.7730   27.1180 C   0  0  0  0  0  0  0  0  0  0  0  0
    5.4330   -0.6940   26.6570 C   0  0  0  0  0  0  0  0  0  0  0  0
    5.9400    0.5930   27.3310 C   0  0  0  0  0  0  0  0  0  0  0  0
    6.3930    0.4840   28.7620 C   0  0  0  0  0  0  0  0  0  0  0  0
    6.9830   -0.8250   29.2260 C   0  0  0  0  0  0  0  0  0  0  0  0
    6.5870   -1.9120   28.4900 C   0  0  0  0  0  0  0  0  0  0  0  0
    6.0720   -4.9890   23.8040 C   0  0  0  0  0  0  0  0  0  0  0  0
    6.7290   -5.4410   22.5000 C   0  0  0  0  0  0  0  0  0  0  0  0
  1  2  1  0
  2  3  2  0
  2  4  1  0
  4  5  1  0
  5  6  1  0
  6  7  1  0
  7  8  1  0
  8  9  2  0
  8 10  1  0
 10 11  1  0
 11 12  2  0
 12 13  1  0
 13 14  2  0
 14 15  1  0
 15 16  3  0
 14 17  1  0
 11 18  1  0
 17 18  2  0
 10 19  1  0
 19 20  1  0
 20 21  1  0
 21 22  1  0
 22 23  1  0
 19 24  1  0
 23 24  1  0
  7 25  1  0
  4 26  1  0
 25 26  1  0
M  END
