piperidine-amides-29065-covalent
     RDKit          3D

 26 29  0  0  0  0  0  0  0  0999 V2000
    6.9510   -3.3880   19.4760 C   0  0  0  0  0  0  0  0  0  0  0  0
    6.3440   -4.2940   20.4610 C   0  0  0  0  0  0  0  0  0  0  0  0
    5.4460   -5.0440   20.0250 O   0  0  0  0  0  0  0  0  0  0  0  0
    6.7740   -4.3320   21.8340 N   0  0  0  0  0  0  0  0  0  0  0  0
    6.5490   -5.5460   22.5970 C   0  0  0  0  0  0  0  0  0  0  0  0
    6.1210   -5.2720   24.0370 C   0  0  0  0  0  0  0  0  0  0  0  0
    6.0240   -3.7760   24.1890 C   0  0  0  0  0  0  0  0  0  0  0  0
    5.3250   -3.1930   25.4390 C   0  0  0  0  0  0  0  0  0  0  0  0
    4.6710   -2.2090   25.1340 O   0  0  0  0  0  0  0  0  0  0  0  0
    5.3320   -3.6390   26.8050 N   0  0  0  0  0  0  0  0  0  0  0  0
    5.1010   -2.6790   27.8280 C   0  0  0  0  0  0  0  0  0  0  0  0
    5.8570   -2.8600   29.0060 C   0  0  0  0  0  0  0  0  0  0  0  0
    6.2110   -4.0070   29.3180 O   0  0  0  0  0  0  0  0  0  0  0  0
    5.8070   -5.0070   28.5280 C   0  0  0  0  0  0  0  0  0  0  0  0
    4.5030   -5.3470   28.5810 C   0  0  0  0  0  0  0  0  0  0  0  0
    4.3090   -5.6110   30.0360 C   0  0  0  0  0  0  0  0  0  0  0  0
    5.0850   -6.8420   30.5390 C   0  0  0  0  0  0  0  0  0  0  0  0
    5.7710   -7.3540   29.3230 C   0  0  0  0  0  0  0  0  0  0  0  0
    6.5400   -6.1690   28.7360 C   0  0  0  0  0  0  0  0  0  0  0  0
    4.2740   -7.8700   30.7510 O   0  0  0  0  0  0  0  0  0  0  0  0
    4.0330   -7.8560   32.1480 C   0  0  0  0  0  0  0  0  0  0  0  0
    5.0470   -7.1300   32.6910 C   0  0  0  0  0  0  0  0  0  0  0  0
    5.8220   -6.5590   31.7160 O   0  0  0  0  0  0  0  0  0  0  0  0
    6.1870   -4.6380   27.2720 C   0  0  0  0  0  0  0  0  0  0  0  0
    7.3180   -3.1120   23.8670 C   0  0  0  0  0  0  0  0  0  0  0  0
    7.6070   -3.2760   22.3920 C   0  0  0  0  0  0  0  0  0  0  0  0
  1  2  1  0
  2  3  2  0
  2  4  1  0
  4  5  1  0
  5  6  1  0
  6  7  1  0
  7  8  1  0
  8  9  2  0
  8 10  1  0
 10 11  1  0
 11 12  1  0
 12 13  1  0
 14 13  1  0
 14 15  1  0
 15 16  1  0
 16 17  1  0
 17 18  1  0
 14 19  1  0
 18 19  1  0
 17 20  1  0
 20 21  1  0
 21 22  1  0
 17 23  1  0
 22 23  1  0
 10 24  1  0
 14 24  1  0
  7 25  1  0
  4 26  1  0
 25 26  1  0
M  END
