piperidine-amides-25642-covalent
     RDKit          3D

 25 27  0  0  0  0  0  0  0  0999 V2000
    7.0490   -3.3540   19.4060 C   0  0  0  0  0  0  0  0  0  0  0  0
    6.3940   -4.2630   20.3790 C   0  0  0  0  0  0  0  0  0  0  0  0
    5.3840   -4.8500   19.9860 O   0  0  0  0  0  0  0  0  0  0  0  0
    6.9470   -4.4640   21.6530 N   0  0  0  0  0  0  0  0  0  0  0  0
    6.6230   -5.6160   22.4400 C   0  0  0  0  0  0  0  0  0  0  0  0
    5.7100   -5.1960   23.5610 C   0  0  0  0  0  0  0  0  0  0  0  0
    6.3150   -4.0640   24.4090 C   0  0  0  0  0  0  0  0  0  0  0  0
    5.2390   -3.6190   25.3510 C   0  0  0  0  0  0  0  0  0  0  0  0
    4.1370   -3.3270   24.8910 O   0  0  0  0  0  0  0  0  0  0  0  0
    5.4600   -3.5080   26.7460 N   0  0  0  0  0  0  0  0  0  0  0  0
    6.7780   -3.6890   27.1150 C   0  0  0  0  0  0  0  0  0  0  0  0
    6.9990   -5.1330   27.5140 C   0  0  0  0  0  0  0  0  0  0  0  0
    6.3250   -5.6070   28.5620 C   0  0  0  0  0  0  0  0  0  0  0  0
    5.1300   -5.0160   28.7260 C   0  0  0  0  0  0  0  0  0  0  0  0
    4.3700   -5.4720   29.7780 C   0  0  0  0  0  0  0  0  0  0  0  0
    2.9840   -5.0060   30.2320 C   0  0  0  0  0  0  0  0  0  0  0  0
    2.4510   -3.9020   29.3640 C   0  0  0  0  0  0  0  0  0  0  0  0
    3.3250   -3.4600   28.2370 C   0  0  0  0  0  0  0  0  0  0  0  0
    2.6730   -2.3650   27.4640 C   0  0  0  0  0  0  0  0  0  0  0  0
    3.4310   -1.1880   27.4360 O   0  0  0  0  0  0  0  0  0  0  0  0
    1.5520   -2.4730   26.9140 O   0  0  0  0  0  0  0  0  0  0  0  0
    1.3730   -2.0840   25.5880 C   0  0  0  0  0  0  0  0  0  0  0  0
    4.6740   -4.0170   27.9030 C   0  0  0  0  0  0  0  0  0  0  0  0
    6.7410   -2.9010   23.5130 C   0  0  0  0  0  0  0  0  0  0  0  0
    7.6060   -3.4040   22.3830 C   0  0  0  0  0  0  0  0  0  0  0  0
  1  2  1  0
  2  3  2  0
  2  4  1  0
  4  5  1  0
  5  6  1  0
  6  7  1  0
  7  8  1  0
  8  9  2  0
  8 10  1  0
 10 11  1  0
 11 12  1  0
 12 13  1  0
 13 14  1  0
 14 15  2  0
 15 16  1  0
 16 17  2  0
 17 18  1  0
 18 19  1  0
 19 20  2  0
 19 21  1  0
 21 22  1  0
 10 23  1  0
 14 23  1  0
 18 23  2  0
  7 24  1  0
  4 25  1  0
 24 25  1  0
M  END
