piperidine-amides-31041-covalent
     RDKit          3D

 28 31  0  0  0  0  0  0  0  0999 V2000
    7.0820   -3.3560   19.3410 C   0  0  0  0  0  0  0  0  0  0  0  0
    6.3990   -4.2030   20.3200 C   0  0  0  0  0  0  0  0  0  0  0  0
    5.3720   -4.8140   19.9760 O   0  0  0  0  0  0  0  0  0  0  0  0
    6.9110   -4.3890   21.6160 N   0  0  0  0  0  0  0  0  0  0  0  0
    6.6160   -5.5530   22.4110 C   0  0  0  0  0  0  0  0  0  0  0  0
    5.8570   -5.0440   23.6140 C   0  0  0  0  0  0  0  0  0  0  0  0
    6.5020   -3.8450   24.2690 C   0  0  0  0  0  0  0  0  0  0  0  0
    5.6720   -3.3020   25.3800 C   0  0  0  0  0  0  0  0  0  0  0  0
    4.8880   -2.3440   25.1350 O   0  0  0  0  0  0  0  0  0  0  0  0
    5.6330   -3.7610   26.7200 N   0  0  0  0  0  0  0  0  0  0  0  0
    4.2970   -3.8730   27.3120 C   0  0  0  0  0  0  0  0  0  0  0  0
    4.3480   -4.6700   28.5610 C   0  0  0  0  0  0  0  0  0  0  0  0
    5.6280   -4.8120   29.2560 C   0  0  0  0  0  0  0  0  0  0  0  0
    5.5380   -6.0170   30.1610 C   0  0  0  0  0  0  0  0  0  0  0  0
    6.2770   -7.2030   29.9480 N   0  0  0  0  0  0  0  0  0  0  0  0
    5.9960   -8.0670   30.9130 O   0  0  0  0  0  0  0  0  0  0  0  0
    5.0770   -7.4070   31.7060 C   0  0  0  0  0  0  0  0  0  0  0  0
    4.6250   -8.2260   32.8690 C   0  0  0  0  0  0  0  0  0  0  0  0
    5.5420   -9.0050   33.5620 C   0  0  0  0  0  0  0  0  0  0  0  0
    5.2320   -9.7960   34.6470 C   0  0  0  0  0  0  0  0  0  0  0  0
    3.8570   -9.8780   35.1730 C   0  0  0  0  0  0  0  0  0  0  0  0
    2.8400   -9.0340   34.4270 C   0  0  0  0  0  0  0  0  0  0  0  0
    3.1400   -8.1410   33.2180 C   0  0  0  0  0  0  0  0  0  0  0  0
    4.7590   -6.1810   31.3080 N   0  0  0  0  0  0  0  0  0  0  0  0
    6.7550   -4.6750   28.4690 C   0  0  0  0  0  0  0  0  0  0  0  0
    6.4690   -3.4000   27.7640 C   0  0  0  0  0  0  0  0  0  0  0  0
    6.8550   -2.7470   23.2940 C   0  0  0  0  0  0  0  0  0  0  0  0
    7.7190   -3.3630   22.2100 C   0  0  0  0  0  0  0  0  0  0  0  0
  1  2  1  0
  2  3  2  0
  2  4  1  0
  4  5  1  0
  5  6  1  0
  6  7  1  0
  7  8  1  0
  8  9  2  0
  8 10  1  0
 10 11  1  0
 11 12  1  0
 12 13  1  0
 13 14  1  0
 14 15  2  0
 15 16  1  0
 16 17  1  0
 17 18  1  0
 18 19  2  0
 19 20  1  0
 20 21  2  0
 21 22  1  0
 18 23  1  0
 22 23  2  0
 14 24  1  0
 17 24  2  0
 13 25  1  0
 10 26  1  0
 25 26  1  0
  7 27  1  0
  4 28  1  0
 27 28  1  0
M  END
