piperidine-amides-25017-covalent
     RDKit          3D

 23 24  0  0  0  0  0  0  0  0999 V2000
    7.0980   -3.3030   19.3150 C   0  0  0  0  0  0  0  0  0  0  0  0
    6.4110   -4.1480   20.3000 C   0  0  0  0  0  0  0  0  0  0  0  0
    5.3780   -4.7760   19.9710 O   0  0  0  0  0  0  0  0  0  0  0  0
    6.9340   -4.3060   21.5980 N   0  0  0  0  0  0  0  0  0  0  0  0
    7.6880   -3.2370   22.2280 C   0  0  0  0  0  0  0  0  0  0  0  0
    6.7890   -2.5740   23.2860 C   0  0  0  0  0  0  0  0  0  0  0  0
    5.8430   -3.6220   23.8390 C   0  0  0  0  0  0  0  0  0  0  0  0
    5.4650   -3.2930   25.2290 C   0  0  0  0  0  0  0  0  0  0  0  0
    4.2480   -3.1730   25.4690 O   0  0  0  0  0  0  0  0  0  0  0  0
    6.4210   -3.1150   26.2570 N   0  0  0  0  0  0  0  0  0  0  0  0
    6.6120   -4.2190   27.1620 C   0  0  0  0  0  0  0  0  0  0  0  0
    6.5150   -1.7610   26.7890 C   0  0  0  0  0  0  0  0  0  0  0  0
    5.7430   -1.7040   27.9250 C   0  0  0  0  0  0  0  0  0  0  0  0
    4.7610   -2.6260   28.2300 C   0  0  0  0  0  0  0  0  0  0  0  0
    4.0280   -2.1730   29.7580 S   0  0  0  0  0  0  0  0  0  0  0  0
    5.0830   -0.7910   29.8740 C   0  0  0  0  0  0  0  0  0  0  0  0
    5.0110    0.0720   30.9430 C   0  0  0  0  0  0  0  0  0  0  0  0
    3.6890    0.3260   31.6400 C   0  0  0  0  0  0  0  0  0  0  0  0
    4.7720   -0.4810   32.3040 C   0  0  0  0  0  0  0  0  0  0  0  0
    5.7700    1.1870   31.0590 O   0  0  0  0  0  0  0  0  0  0  0  0
    5.9610   -0.6260   28.8540 N   0  0  0  0  0  0  0  0  0  0  0  0
    6.3080   -5.0170   23.7590 C   0  0  0  0  0  0  0  0  0  0  0  0
    6.5970   -5.4230   22.3920 C   0  0  0  0  0  0  0  0  0  0  0  0
  1  2  1  0
  2  3  2  0
  2  4  1  0
  4  5  1  0
  5  6  1  0
  6  7  1  0
  7  8  1  0
  8  9  2  0
  8 10  1  0
 10 11  1  0
 10 12  1  0
 12 13  1  0
 13 14  2  0
 14 15  1  0
 15 16  1  0
 16 17  1  0
 17 18  1  0
 17 19  1  0
 17 20  1  0
 13 21  1  0
 16 21  2  0
  7 22  1  0
  4 23  1  0
 22 23  1  0
M  END
