piperidine-amides-177-covalent
     RDKit          3D

 25 27  0  0  0  0  0  0  0  0999 V2000
    7.1430   -3.3230   19.3880 C   0  0  0  0  0  0  0  0  0  0  0  0
    6.4380   -4.1360   20.3490 C   0  0  0  0  0  0  0  0  0  0  0  0
    5.4050   -4.7770   19.9690 O   0  0  0  0  0  0  0  0  0  0  0  0
    6.9000   -4.2640   21.6730 N   0  0  0  0  0  0  0  0  0  0  0  0
    6.6020   -5.5170   22.3930 C   0  0  0  0  0  0  0  0  0  0  0  0
    5.5500   -4.9390   23.4030 C   0  0  0  0  0  0  0  0  0  0  0  0
    6.3010   -3.9090   24.2210 C   0  0  0  0  0  0  0  0  0  0  0  0
    5.3650   -3.4300   25.4190 C   0  0  0  0  0  0  0  0  0  0  0  0
    4.2900   -3.9990   25.3440 O   0  0  0  0  0  0  0  0  0  0  0  0
    5.9300   -2.5640   26.1660 N   0  0  0  0  0  0  0  0  0  0  0  0
    6.4130   -1.6210   27.0230 C   0  0  2  0  0  0  0  0  0  0  0  0
    6.5990   -1.5370   28.3900 C   0  0  0  0  0  0  0  0  0  0  0  0
    6.9600   -0.2460   28.8610 C   0  0  0  0  0  0  0  0  0  0  0  0
    5.9630    0.4150   29.7010 C   0  0  0  0  0  0  0  0  0  0  0  0
    5.4170    1.0770   28.4300 C   0  0  2  0  0  0  0  0  0  0  0  0
    4.4570    1.7810   29.1700 C   0  0  0  0  0  0  0  0  0  0  0  0
    3.3710    0.9310   29.5980 C   0  0  0  0  0  0  0  0  0  0  0  0
    2.5510    2.0070   30.3470 C   0  0  0  0  0  0  0  0  0  0  0  0
    2.8440    3.5080   30.5470 C   0  0  0  0  0  0  0  0  0  0  0  0
    3.9610    3.9910   30.0110 C   0  0  0  0  0  0  0  0  0  0  0  0
    4.7570    3.1360   29.3310 C   0  0  0  0  0  0  0  0  0  0  0  0
    4.8020    0.0540   27.4760 C   0  0  0  0  0  0  0  0  0  0  0  0
    5.7680   -0.3120   26.5630 C   0  0  0  0  0  0  0  0  0  0  0  0
    6.9910   -2.7860   23.5180 C   0  0  0  0  0  0  0  0  0  0  0  0
    7.7050   -3.2270   22.2780 C   0  0  0  0  0  0  0  0  0  0  0  0
  1  2  1  0
  2  3  2  0
  2  4  1  0
  4  5  1  0
  5  6  1  0
  6  7  1  0
  7  8  1  0
  8  9  2  0
  8 10  1  0
 11 10  1  1
 11 12  1  0
 12 13  1  0
 13 14  1  0
 14 15  1  0
 15 16  1  1
 16 17  2  0
 17 18  1  0
 18 19  2  0
 19 20  1  0
 16 21  1  0
 20 21  2  0
 15 22  1  0
 11 23  1  0
 22 23  1  0
  7 24  1  0
  4 25  1  0
 24 25  1  0
M  END
