piperidine-amides-14043-covalent
     RDKit          3D

 25 27  0  0  0  0  0  0  0  0999 V2000
    7.1150   -3.3010   19.2650 C   0  0  0  0  0  0  0  0  0  0  0  0
    6.3190   -4.0510   20.2720 C   0  0  0  0  0  0  0  0  0  0  0  0
    5.2800   -4.6310   19.9100 O   0  0  0  0  0  0  0  0  0  0  0  0
    6.7940   -4.1200   21.5940 N   0  0  0  0  0  0  0  0  0  0  0  0
    7.7000   -3.1210   22.1360 C   0  0  0  0  0  0  0  0  0  0  0  0
    7.5210   -3.0400   23.6590 C   0  0  0  0  0  0  0  0  0  0  0  0
    6.1620   -3.5590   23.9630 C   0  0  0  0  0  0  0  0  0  0  0  0
    5.6720   -3.2970   25.3370 C   0  0  0  0  0  0  0  0  0  0  0  0
    4.4950   -3.6040   25.5510 O   0  0  0  0  0  0  0  0  0  0  0  0
    6.5040   -2.7320   26.3150 N   0  0  0  0  0  0  0  0  0  0  0  0
    6.5640   -1.3630   26.7150 C   0  0  0  0  0  0  0  0  0  0  0  0
    5.6040   -0.7240   27.4780 C   0  0  0  0  0  0  0  0  0  0  0  0
    5.1450   -1.4080   28.6460 C   0  0  0  0  0  0  0  0  0  0  0  0
    5.7050   -2.6190   28.8850 F   0  0  0  0  0  0  0  0  0  0  0  0
    4.1930   -0.9110   29.5130 C   0  0  0  0  0  0  0  0  0  0  0  0
    3.5960    0.4010   29.2470 C   0  0  0  0  0  0  0  0  0  0  0  0
    4.0180    1.2030   28.0380 C   0  0  0  0  0  0  0  0  0  0  0  0
    5.0790    0.5220   27.1740 C   0  0  0  0  0  0  0  0  0  0  0  0
    5.5490    1.1300   26.0650 N   0  0  0  0  0  0  0  0  0  0  0  0
    4.5680    1.3170   25.1500 C   0  0  0  0  0  0  0  0  0  0  0  0
    5.3990    1.9850   24.0990 C   0  0  0  0  0  0  0  0  0  0  0  0
    6.0870    2.8480   25.1390 C   0  0  0  0  0  0  0  0  0  0  0  0
    6.0530    2.3230   26.3900 C   0  0  0  0  0  0  0  0  0  0  0  0
    6.0100   -5.0230   23.6960 C   0  0  0  0  0  0  0  0  0  0  0  0
    6.6190   -5.3470   22.3550 C   0  0  0  0  0  0  0  0  0  0  0  0
  1  2  1  0
  2  3  2  0
  2  4  1  0
  4  5  1  0
  5  6  1  0
  6  7  1  0
  7  8  1  0
  8  9  2  0
  8 10  1  0
 10 11  1  0
 11 12  1  0
 12 13  2  0
 13 14  1  0
 13 15  1  0
 15 16  2  0
 16 17  1  0
 12 18  1  0
 17 18  2  0
 18 19  1  0
 19 20  1  0
 20 21  1  0
 21 22  1  0
 19 23  1  0
 22 23  1  0
  7 24  1  0
  4 25  1  0
 24 25  1  0
M  END
