piperidine-amides-16216-covalent
     RDKit          3D

 18 20  0  0  0  0  0  0  0  0999 V2000
    7.0950   -3.3060   19.2720 C   0  0  0  0  0  0  0  0  0  0  0  0
    6.3830   -4.1220   20.2920 C   0  0  0  0  0  0  0  0  0  0  0  0
    5.3320   -4.6480   19.9280 O   0  0  0  0  0  0  0  0  0  0  0  0
    6.9170   -4.3170   21.5740 N   0  0  0  0  0  0  0  0  0  0  0  0
    6.5340   -5.4410   22.3690 C   0  0  0  0  0  0  0  0  0  0  0  0
    5.5800   -4.9670   23.4290 C   0  0  0  0  0  0  0  0  0  0  0  0
    6.1510   -3.7810   24.2340 C   0  0  0  0  0  0  0  0  0  0  0  0
    5.0390   -3.2140   25.0330 C   0  0  0  0  0  0  0  0  0  0  0  0
    3.9970   -2.8830   24.4650 O   0  0  0  0  0  0  0  0  0  0  0  0
    5.1260   -3.0380   26.4250 N   0  0  0  0  0  0  0  0  0  0  0  0
    6.4320   -2.9260   26.9400 C   0  0  0  0  0  0  0  0  0  0  0  0
    5.8260   -1.9780   27.8660 C   0  0  0  0  0  0  0  0  0  0  0  0
    6.1590   -0.5930   28.1120 C   0  0  0  0  0  0  0  0  0  0  0  0
    6.9670   -0.8740   29.7170 S   0  0  0  0  0  0  0  0  0  0  0  0
    5.7770   -2.0960   29.3480 C   0  0  0  0  0  0  0  0  0  0  0  0
    4.4180   -2.1020   27.2950 C   0  0  0  0  0  0  0  0  0  0  0  0
    6.7160   -2.6820   23.3320 C   0  0  0  0  0  0  0  0  0  0  0  0
    7.5740   -3.2590   22.2570 C   0  0  0  0  0  0  0  0  0  0  0  0
  1  2  1  0
  2  3  2  0
  2  4  1  0
  4  5  1  0
  5  6  1  0
  6  7  1  0
  7  8  1  0
  8  9  2  0
  8 10  1  0
 10 11  1  0
 12 11  1  0
 12 13  1  0
 13 14  1  0
 12 15  1  0
 14 15  1  0
 10 16  1  0
 12 16  1  0
  7 17  1  0
  4 18  1  0
 17 18  1  0
M  END
