piperidine-amides-10551-covalent
     RDKit          3D

 23 25  0  0  0  0  0  0  0  0999 V2000
    7.0580   -3.3360   19.3130 C   0  0  0  0  0  0  0  0  0  0  0  0
    6.3840   -4.1650   20.3120 C   0  0  0  0  0  0  0  0  0  0  0  0
    5.3330   -4.7500   19.9490 O   0  0  0  0  0  0  0  0  0  0  0  0
    6.9370   -4.3160   21.5840 N   0  0  0  0  0  0  0  0  0  0  0  0
    7.7030   -3.2680   22.2160 C   0  0  0  0  0  0  0  0  0  0  0  0
    6.9220   -2.7680   23.3930 C   0  0  0  0  0  0  0  0  0  0  0  0
    6.4820   -3.9090   24.2640 C   0  0  0  0  0  0  0  0  0  0  0  0
    5.7800   -3.4070   25.4700 C   0  0  0  0  0  0  0  0  0  0  0  0
    4.5230   -3.3480   25.4810 O   0  0  0  0  0  0  0  0  0  0  0  0
    6.4770   -2.9970   26.6220 N   0  0  0  0  0  0  0  0  0  0  0  0
    6.3820   -1.6680   27.1750 C   0  0  0  0  0  0  0  0  0  0  0  0
    7.0130   -1.5010   28.5450 C   0  0  0  0  0  0  0  0  0  0  0  0
    6.9870   -0.2960   29.1850 C   0  0  0  0  0  0  0  0  0  0  0  0
    6.3730    0.7810   28.5680 C   0  0  0  0  0  0  0  0  0  0  0  0
    5.7840    0.6880   27.3180 C   0  0  0  0  0  0  0  0  0  0  0  0
    5.7910   -0.5210   26.6330 C   0  0  0  0  0  0  0  0  0  0  0  0
    5.1850    1.7840   26.7440 C   0  0  0  0  0  0  0  0  0  0  0  0
    4.8320    1.8600   25.3900 O   0  0  0  0  0  0  0  0  0  0  0  0
    4.9290    2.8380   27.5590 O   0  0  0  0  0  0  0  0  0  0  0  0
    6.0160    3.1180   28.3650 C   0  0  0  0  0  0  0  0  0  0  0  0
    6.3940    1.9520   29.2940 C   0  0  0  0  0  0  0  0  0  0  0  0
    5.6490   -4.9300   23.4790 C   0  0  0  0  0  0  0  0  0  0  0  0
    6.5600   -5.4670   22.3920 C   0  0  0  0  0  0  0  0  0  0  0  0
  1  2  1  0
  2  3  2  0
  2  4  1  0
  4  5  1  0
  5  6  1  0
  6  7  1  0
  7  8  1  0
  8  9  2  0
  8 10  1  0
 10 11  1  0
 11 12  2  0
 12 13  1  0
 13 14  2  0
 14 15  1  0
 11 16  1  0
 15 16  2  0
 15 17  1  0
 17 18  2  0
 17 19  1  0
 19 20  1  0
 14 21  1  0
 20 21  1  0
  7 22  1  0
  4 23  1  0
 22 23  1  0
M  END
