piperidine-amides-7223-covalent
     RDKit          3D

 21 22  0  0  0  0  0  0  0  0999 V2000
    7.1080   -3.2630   19.2180 C   0  0  0  0  0  0  0  0  0  0  0  0
    6.3620   -4.0170   20.2300 C   0  0  0  0  0  0  0  0  0  0  0  0
    5.2680   -4.5180   19.8680 O   0  0  0  0  0  0  0  0  0  0  0  0
    6.8880   -4.2060   21.5050 N   0  0  0  0  0  0  0  0  0  0  0  0
    6.5500   -5.3630   22.2910 C   0  0  0  0  0  0  0  0  0  0  0  0
    5.8350   -4.8810   23.5240 C   0  0  0  0  0  0  0  0  0  0  0  0
    6.5890   -3.7730   24.2180 C   0  0  0  0  0  0  0  0  0  0  0  0
    5.8340   -3.2370   25.3750 C   0  0  0  0  0  0  0  0  0  0  0  0
    4.6110   -3.0080   25.2220 O   0  0  0  0  0  0  0  0  0  0  0  0
    6.4210   -2.9730   26.6230 N   0  0  0  0  0  0  0  0  0  0  0  0
    6.1790   -3.8450   27.7530 C   0  0  0  0  0  0  0  0  0  0  0  0
    5.8080   -5.2650   27.3320 C   0  0  0  0  0  0  0  0  0  0  0  0
    6.1860   -6.2360   28.0270 O   0  0  0  0  0  0  0  0  0  0  0  0
    5.4840   -6.4110   29.2010 C   0  0  0  0  0  0  0  0  0  0  0  0
    5.8140   -7.3700   30.1230 C   0  0  0  0  0  0  0  0  0  0  0  0
    5.0730   -7.4890   31.2910 C   0  0  0  0  0  0  0  0  0  0  0  0
    3.9930   -6.6510   31.5460 C   0  0  0  0  0  0  0  0  0  0  0  0
    3.6930   -5.7200   30.6140 N   0  0  0  0  0  0  0  0  0  0  0  0
    4.4120   -5.5960   29.4740 C   0  0  0  0  0  0  0  0  0  0  0  0
    6.8470   -2.6090   23.2700 C   0  0  0  0  0  0  0  0  0  0  0  0
    7.6670   -3.1570   22.1170 C   0  0  0  0  0  0  0  0  0  0  0  0
  1  2  1  0
  2  3  2  0
  2  4  1  0
  4  5  1  0
  5  6  1  0
  6  7  1  0
  7  8  1  0
  8  9  2  0
  8 10  1  0
 10 11  1  0
 11 12  1  0
 12 13  1  0
 13 14  1  0
 14 15  2  0
 15 16  1  0
 16 17  2  0
 17 18  1  0
 14 19  1  0
 18 19  2  0
  7 20  1  0
  4 21  1  0
 20 21  1  0
M  END
