piperidine-amides-35661-covalent
     RDKit          3D

 43 47  0  0  0  0  0  0  0  0999 V2000
    7.1260   -3.3190   19.2640 C   0  0  0  0  0  0  0  0  0  0  0  0
    6.4230   -4.1520   20.2730 C   0  0  0  0  0  0  0  0  0  0  0  0
    5.3700   -4.6960   19.9410 O   0  0  0  0  0  0  0  0  0  0  0  0
    7.0150   -4.3230   21.5220 N   0  0  0  0  0  0  0  0  0  0  0  0
    7.8160   -3.2940   22.1250 C   0  0  0  0  0  0  0  0  0  0  0  0
    6.9850   -2.6090   23.1450 C   0  0  0  0  0  0  0  0  0  0  0  0
    6.6330   -3.6390   24.1950 C   0  0  0  0  0  0  0  0  0  0  0  0
    5.8030   -2.9710   25.1950 C   0  0  0  0  0  0  0  0  0  0  0  0
    4.8130   -2.3520   24.8070 O   0  0  0  0  0  0  0  0  0  0  0  0
    6.1120   -3.0250   26.5560 N   0  0  0  0  0  0  0  0  0  0  0  0
    5.6460   -4.2210   27.2280 C   0  0  0  0  0  0  0  0  0  0  0  0
    6.4860   -4.7000   28.3830 C   0  0  0  0  0  0  0  0  0  0  0  0
    6.2050   -5.8010   29.1060 C   0  0  0  0  0  0  0  0  0  0  0  0
    5.1120   -6.5000   28.7720 C   0  0  0  0  0  0  0  0  0  0  0  0
    4.8280   -7.6190   29.5150 O   0  0  0  0  0  0  0  0  0  0  0  0
    5.3310   -7.5260   30.7940 C   0  0  0  0  0  0  0  0  0  0  0  0
    4.2370   -6.1330   27.6910 C   0  0  0  0  0  0  0  0  0  0  0  0
    4.3910   -4.9460   26.7780 C   0  0  0  0  0  0  0  0  0  0  0  0
    6.2500   -1.7780   27.2980 C   0  0  0  0  0  0  0  0  0  0  0  0
    7.0300   -1.8350   28.5680 C   0  0  0  0  0  0  0  0  0  0  0  0
    7.1980   -0.5960   29.3510 C   0  0  0  0  0  0  0  0  0  0  0  0
    6.5960    0.6950   28.8760 C   0  0  0  0  0  0  0  0  0  0  0  0
    5.8260    0.7100   27.6100 C   0  0  0  0  0  0  0  0  0  0  0  0
    5.6760   -0.5860   26.8370 C   0  0  0  0  0  0  0  0  0  0  0  0
    4.9820   -0.5870   25.7010 N   0  0  0  0  0  0  0  0  0  0  0  0
    3.7820    0.1730   25.7030 C   0  0  0  0  0  0  0  0  0  0  0  0
    3.1620    0.6880   26.8590 O   0  0  0  0  0  0  0  0  0  0  0  0
    2.8720    0.6360   24.5860 C   0  0  0  0  0  0  0  0  0  0  0  0
    1.3840    0.7840   24.8320 C   0  0  0  0  0  0  0  0  0  0  0  0
    0.5040    1.2420   23.7230 C   0  0  0  0  0  0  0  0  0  0  0  0
    0.9800    1.5330   22.4990 C   0  0  0  0  0  0  0  0  0  0  0  0
    2.4480    1.4170   22.1550 C   0  0  0  0  0  0  0  0  0  0  0  0
    3.3460    0.9470   23.2960 C   0  0  0  0  0  0  0  0  0  0  0  0
    3.3000    1.5810   21.1800 N   0  0  0  0  0  0  0  0  0  0  0  0
    2.5150    2.1660   20.1180 C   0  0  0  0  0  0  0  0  0  0  0  0
    3.1330    2.4660   18.9350 O   0  0  0  0  0  0  0  0  0  0  0  0
    1.0050    2.4530   20.3130 C   0  0  0  0  0  0  0  0  0  0  0  0
    0.3930    3.1560   19.4720 O   0  0  0  0  0  0  0  0  0  0  0  0
    0.3050    1.9500   21.4120 N   0  0  0  0  0  0  0  0  0  0  0  0
   -0.9430    1.4340   21.1770 C   0  0  0  0  0  0  0  0  0  0  0  0
   -2.0580    2.3890   20.7430 C   0  0  0  0  0  0  0  0  0  0  0  0
    5.8650   -4.8220   23.5920 C   0  0  0  0  0  0  0  0  0  0  0  0
    6.5810   -5.4000   22.3920 C   0  0  0  0  0  0  0  0  0  0  0  0
  1  2  1  0
  2  3  2  0
  2  4  1  0
  4  5  1  0
  5  6  1  0
  6  7  1  0
  7  8  1  0
  8  9  2  0
  8 10  1  0
 10 11  1  0
 11 12  2  0
 12 13  1  0
 13 14  2  0
 14 15  1  0
 15 16  1  0
 14 17  1  0
 11 18  1  0
 17 18  2  0
 10 19  1  0
 19 20  2  0
 20 21  1  0
 21 22  2  0
 22 23  1  0
 19 24  1  0
 23 24  2  0
 24 25  1  0
 25 26  1  0
 26 27  2  0
 26 28  1  0
 28 29  2  0
 29 30  1  0
 30 31  2  0
 31 32  1  0
 28 33  1  0
 32 33  2  0
 32 34  1  0
 34 35  1  0
 35 36  2  0
 35 37  1  0
 37 38  2  0
 31 39  1  0
 37 39  1  0
 39 40  1  0
 40 41  1  0
  7 42  1  0
  4 43  1  0
 42 43  1  0
M  END
