piperidine-amides-24433-covalent
     RDKit          3D

 23 24  0  0  0  0  0  0  0  0999 V2000
    7.0390   -3.3500   19.3450 C   0  0  0  0  0  0  0  0  0  0  0  0
    6.3870   -4.2140   20.3410 C   0  0  0  0  0  0  0  0  0  0  0  0
    5.4110   -4.9200   20.0010 O   0  0  0  0  0  0  0  0  0  0  0  0
    6.8750   -4.2830   21.6590 N   0  0  0  0  0  0  0  0  0  0  0  0
    6.7390   -5.5390   22.3890 C   0  0  0  0  0  0  0  0  0  0  0  0
    6.1940   -5.2420   23.8000 C   0  0  0  0  0  0  0  0  0  0  0  0
    6.2200   -3.7450   23.9390 C   0  0  0  0  0  0  0  0  0  0  0  0
    5.6260   -3.2570   25.1970 C   0  0  0  0  0  0  0  0  0  0  0  0
    4.8730   -2.2700   25.0990 O   0  0  0  0  0  0  0  0  0  0  0  0
    5.8320   -3.8330   26.4730 N   0  0  0  0  0  0  0  0  0  0  0  0
    6.3640   -2.9420   27.4570 C   0  0  0  0  0  0  0  0  0  0  0  0
    6.7670   -3.6890   28.7160 C   0  0  0  0  0  0  0  0  0  0  0  0
    6.4540   -5.0290   28.5490 O   0  0  0  0  0  0  0  0  0  0  0  0
    5.2560   -5.3630   28.0480 C   0  0  1  0  0  0  0  0  0  0  0  0
    4.3930   -6.0050   28.9030 C   0  0  0  0  0  0  0  0  0  0  0  0
    3.6200   -5.1090   29.6270 F   0  0  0  0  0  0  0  0  0  0  0  0
    5.1120   -6.7640   29.8130 F   0  0  0  0  0  0  0  0  0  0  0  0
    3.5330   -6.7440   28.1300 F   0  0  0  0  0  0  0  0  0  0  0  0
    4.8180   -4.2170   27.4540 C   0  0  0  0  0  0  0  0  0  0  0  0
    3.7920   -4.3580   26.5430 C   0  0  0  0  0  0  0  0  0  0  0  0
    4.3610   -3.0580   28.3550 C   0  0  0  0  0  0  0  0  0  0  0  0
    7.5470   -3.1680   23.6380 C   0  0  0  0  0  0  0  0  0  0  0  0
    7.7710   -3.2480   22.1760 C   0  0  0  0  0  0  0  0  0  0  0  0
  1  2  1  0
  2  3  2  0
  2  4  1  0
  4  5  1  0
  5  6  1  0
  6  7  1  0
  7  8  1  0
  8  9  2  0
  8 10  1  0
 10 11  1  0
 11 12  1  0
 12 13  1  0
 13 14  1  0
 14 15  1  1
 15 16  1  0
 15 17  1  0
 15 18  1  0
 10 19  1  0
 14 19  1  0
 19 20  1  0
 19 21  1  0
  7 22  1  0
  4 23  1  0
 22 23  1  0
M  END
