piperidine-amides-27549-covalent
     RDKit          3D

 24 25  0  0  0  0  0  0  0  0999 V2000
    7.0490   -3.3640   19.3870 C   0  0  0  0  0  0  0  0  0  0  0  0
    6.3390   -4.1800   20.3770 C   0  0  0  0  0  0  0  0  0  0  0  0
    5.3300   -4.8050   19.9640 O   0  0  0  0  0  0  0  0  0  0  0  0
    6.8030   -4.2820   21.6910 N   0  0  0  0  0  0  0  0  0  0  0  0
    6.7220   -5.5400   22.4080 C   0  0  0  0  0  0  0  0  0  0  0  0
    6.2600   -5.2640   23.8100 C   0  0  0  0  0  0  0  0  0  0  0  0
    6.2100   -3.7870   24.0600 C   0  0  0  0  0  0  0  0  0  0  0  0
    5.6990   -3.4260   25.4130 C   0  0  0  0  0  0  0  0  0  0  0  0
    5.0020   -2.3960   25.4780 O   0  0  0  0  0  0  0  0  0  0  0  0
    5.9080   -4.1380   26.6210 N   0  0  0  0  0  0  0  0  0  0  0  0
    6.8300   -5.2060   26.6800 C   0  0  0  0  0  0  0  0  0  0  0  0
    6.9630   -5.8360   28.2170 S   0  0  0  0  0  0  0  0  0  0  0  0
    5.4380   -5.1380   28.5210 C   0  0  0  0  0  0  0  0  0  0  0  0
    5.2690   -3.8680   27.9070 C   0  0  2  0  0  0  0  0  0  0  0  0
    4.0290   -3.2660   27.9050 C   0  0  0  0  0  0  0  0  0  0  0  0
    4.1070   -1.9540   27.8920 O   0  0  0  0  0  0  0  0  0  0  0  0
    2.8890   -3.9850   27.9250 N   0  0  0  0  0  0  0  0  0  0  0  0
    1.7430   -3.4610   28.3480 C   0  0  0  0  0  0  0  0  0  0  0  0
    0.7270   -3.8030   27.4740 C   0  0  0  0  0  0  0  0  0  0  0  0
    0.6490   -3.1340   26.2770 C   0  0  0  0  0  0  0  0  0  0  0  0
    0.1650   -3.9900   25.1300 C   0  0  0  0  0  0  0  0  0  0  0  0
   -0.0640   -1.9870   26.4480 C   0  0  0  0  0  0  0  0  0  0  0  0
    7.5710   -3.1740   23.7330 C   0  0  0  0  0  0  0  0  0  0  0  0
    7.6780   -3.2200   22.2170 C   0  0  0  0  0  0  0  0  0  0  0  0
  1  2  1  0
  2  3  2  0
  2  4  1  0
  4  5  1  0
  5  6  1  0
  6  7  1  0
  7  8  1  0
  8  9  2  0
  8 10  1  0
 10 11  1  0
 11 12  1  0
 12 13  1  0
 10 14  1  0
 13 14  1  0
 14 15  1  6
 15 16  2  0
 15 17  1  0
 17 18  1  0
 18 19  1  0
 19 20  1  0
 20 21  1  0
 20 22  1  0
  7 23  1  0
  4 24  1  0
 23 24  1  0
M  END
