piperidine-amides-33032-covalent
     RDKit          3D

 29 31  0  0  0  0  0  0  0  0999 V2000
    7.0110   -3.3940   19.4580 C   0  0  0  0  0  0  0  0  0  0  0  0
    6.3090   -4.2750   20.4360 C   0  0  0  0  0  0  0  0  0  0  0  0
    5.3830   -4.9870   20.0090 O   0  0  0  0  0  0  0  0  0  0  0  0
    6.7250   -4.3160   21.7970 N   0  0  0  0  0  0  0  0  0  0  0  0
    6.5480   -5.5280   22.5820 C   0  0  0  0  0  0  0  0  0  0  0  0
    5.9550   -5.1850   23.9740 C   0  0  0  0  0  0  0  0  0  0  0  0
    5.8780   -3.7000   24.1300 C   0  0  0  0  0  0  0  0  0  0  0  0
    5.1490   -3.1440   25.3500 C   0  0  0  0  0  0  0  0  0  0  0  0
    4.5680   -2.0860   25.1290 O   0  0  0  0  0  0  0  0  0  0  0  0
    5.1000   -3.7380   26.6500 N   0  0  0  0  0  0  0  0  0  0  0  0
    4.6640   -3.1160   27.8550 C   0  0  0  0  0  0  0  0  0  0  0  0
    5.0260   -3.5380   29.1300 C   0  0  0  0  0  0  0  0  0  0  0  0
    5.1790   -4.9750   29.1110 N   0  0  0  0  0  0  0  0  0  0  0  0
    4.2780   -5.8920   29.6540 C   0  0  0  0  0  0  0  0  0  0  0  0
    3.1940   -6.2030   28.8820 C   0  0  0  0  0  0  0  0  0  0  0  0
    2.1790   -7.1670   29.3780 C   0  0  0  0  0  0  0  0  0  0  0  0
    2.2720   -7.8590   30.7490 C   0  0  0  0  0  0  0  0  0  0  0  0
    1.4080   -8.7390   31.2920 N   0  0  0  0  0  0  0  0  0  0  0  0
    0.7990   -9.3770   30.3460 O   0  0  0  0  0  0  0  0  0  0  0  0
    0.6840   -8.3120   32.2960 O   0  0  0  0  0  0  0  0  0  0  0  0
    3.5070   -7.4900   31.5940 C   0  0  0  0  0  0  0  0  0  0  0  0
    3.9140   -7.8950   32.8270 O   0  0  0  0  0  0  0  0  0  0  0  0
    5.0640   -8.4000   33.3080 C   0  0  0  0  0  0  0  0  0  0  0  0
    5.7540   -7.3350   34.0720 C   0  0  0  0  0  0  0  0  0  0  0  0
    4.4440   -6.4800   30.9180 C   0  0  0  0  0  0  0  0  0  0  0  0
    6.1650   -5.2700   28.2870 C   0  0  0  0  0  0  0  0  0  0  0  0
    6.1930   -4.5380   26.9360 C   0  0  0  0  0  0  0  0  0  0  0  0
    7.1880   -3.0300   23.8440 C   0  0  0  0  0  0  0  0  0  0  0  0
    7.5500   -3.2640   22.3720 C   0  0  0  0  0  0  0  0  0  0  0  0
  1  2  1  0
  2  3  2  0
  2  4  1  0
  4  5  1  0
  5  6  1  0
  6  7  1  0
  7  8  1  0
  8  9  2  0
  8 10  1  0
 10 11  1  0
 11 12  1  0
 12 13  1  0
 13 14  1  0
 14 15  2  0
 15 16  1  0
 16 17  2  0
 17 18  1  0
 18 19  2  0
 18 20  1  0
 17 21  1  0
 21 22  1  0
 22 23  1  0
 23 24  1  0
 14 25  1  0
 21 25  2  0
 13 26  1  0
 10 27  1  0
 26 27  1  0
  7 28  1  0
  4 29  1  0
 28 29  1  0
M  CHG  2  18   1  20  -1
M  END
