piperidine-amides-9117-covalent
     RDKit          3D

 21 22  0  0  0  0  0  0  0  0999 V2000
    7.1250   -3.2990   19.2660 C   0  0  0  0  0  0  0  0  0  0  0  0
    6.3340   -4.0360   20.2500 C   0  0  0  0  0  0  0  0  0  0  0  0
    5.2660   -4.5600   19.8880 O   0  0  0  0  0  0  0  0  0  0  0  0
    6.7750   -4.2240   21.5670 N   0  0  0  0  0  0  0  0  0  0  0  0
    6.5140   -5.4280   22.3050 C   0  0  0  0  0  0  0  0  0  0  0  0
    5.7850   -4.9830   23.5470 C   0  0  0  0  0  0  0  0  0  0  0  0
    6.5180   -3.8810   24.2700 C   0  0  0  0  0  0  0  0  0  0  0  0
    5.7990   -3.4060   25.4880 C   0  0  0  0  0  0  0  0  0  0  0  0
    4.5400   -3.2680   25.4560 O   0  0  0  0  0  0  0  0  0  0  0  0
    6.4470   -3.0730   26.7070 N   0  0  0  0  0  0  0  0  0  0  0  0
    6.3180   -3.9150   27.9310 C   0  0  2  0  0  0  0  0  0  0  0  0
    5.6910   -5.2150   27.6000 C   0  0  0  0  0  0  0  0  0  0  0  0
    5.5380   -3.1650   29.0120 C   0  0  0  0  0  0  0  0  0  0  0  0
    4.2540   -3.7730   29.4140 C   0  0  0  0  0  0  0  0  0  0  0  0
    3.8390   -2.7700   30.4510 C   0  0  0  0  0  0  0  0  0  0  0  0
    2.5700   -2.8950   31.2100 C   0  0  0  0  0  0  0  0  0  0  0  0
    4.7910   -1.7110   30.6070 O   0  0  0  0  0  0  0  0  0  0  0  0
    5.8380   -1.9960   29.6930 C   0  0  0  0  0  0  0  0  0  0  0  0
    6.9180   -1.1020   29.6490 C   0  0  0  0  0  0  0  0  0  0  0  0
    6.7830   -2.6650   23.3780 C   0  0  0  0  0  0  0  0  0  0  0  0
    7.5810   -3.1880   22.1830 C   0  0  0  0  0  0  0  0  0  0  0  0
  1  2  1  0
  2  3  2  0
  2  4  1  0
  4  5  1  0
  5  6  1  0
  6  7  1  0
  7  8  1  0
  8  9  2  0
  8 10  1  0
 10 11  1  0
 11 12  1  6
 11 13  1  0
 13 14  1  0
 14 15  2  0
 15 16  1  0
 15 17  1  0
 13 18  2  0
 17 18  1  0
 18 19  1  0
  7 20  1  0
  4 21  1  0
 20 21  1  0
M  END
