piperidine-amides-24654-covalent
     RDKit          3D

 24 26  0  0  0  0  0  0  0  0999 V2000
    7.0630   -3.3350   19.3700 C   0  0  0  0  0  0  0  0  0  0  0  0
    6.3910   -4.2060   20.3470 C   0  0  0  0  0  0  0  0  0  0  0  0
    5.4080   -4.8970   19.9950 O   0  0  0  0  0  0  0  0  0  0  0  0
    6.8740   -4.2970   21.6610 N   0  0  0  0  0  0  0  0  0  0  0  0
    6.7150   -5.5570   22.3760 C   0  0  0  0  0  0  0  0  0  0  0  0
    6.2340   -5.2340   23.7990 C   0  0  0  0  0  0  0  0  0  0  0  0
    6.2630   -3.7310   23.8880 C   0  0  0  0  0  0  0  0  0  0  0  0
    5.7580   -3.1740   25.1510 C   0  0  0  0  0  0  0  0  0  0  0  0
    5.1790   -2.0760   25.0920 O   0  0  0  0  0  0  0  0  0  0  0  0
    5.8580   -3.8320   26.3860 N   0  0  0  0  0  0  0  0  0  0  0  0
    4.5740   -4.0310   26.9980 C   0  0  0  0  0  0  0  0  0  0  0  0
    4.6510   -5.0850   28.0750 C   0  0  0  0  0  0  0  0  0  0  0  0
    5.3310   -4.7270   29.1620 C   0  0  0  0  0  0  0  0  0  0  0  0
    6.5170   -4.4360   28.5960 C   0  0  0  0  0  0  0  0  0  0  0  0
    6.3120   -3.3920   27.6890 C   0  0  0  0  0  0  0  0  0  0  0  0
    4.6480   -3.6130   29.7510 C   0  0  0  0  0  0  0  0  0  0  0  0
    3.6140   -3.4710   30.9120 C   0  0  1  0  0  0  0  0  0  0  0  0
    2.6960   -2.6500   30.9430 O   0  0  0  0  0  0  0  0  0  0  0  0
    3.3270   -4.7410   30.1660 C   0  0  0  0  0  0  0  0  0  0  0  0
    4.1110   -5.8390   30.7590 N   0  0  0  0  0  0  0  0  0  0  0  0
    5.3680   -5.7390   30.0480 C   0  0  0  0  0  0  0  0  0  0  0  0
    6.4040   -6.6220   30.3180 O   0  0  0  0  0  0  0  0  0  0  0  0
    7.6360   -3.2340   23.5800 C   0  0  0  0  0  0  0  0  0  0  0  0
    7.7540   -3.2630   22.1920 C   0  0  0  0  0  0  0  0  0  0  0  0
  1  2  1  0
  2  3  2  0
  2  4  1  0
  4  5  1  0
  5  6  1  0
  6  7  1  0
  7  8  1  0
  8  9  2  0
  8 10  1  0
 10 11  1  0
 11 12  1  0
 12 13  1  0
 13 14  1  0
 10 15  1  0
 14 15  1  0
 13 16  1  0
 16 17  1  0
 17 18  1  6
 17 19  1  0
 19 20  1  0
 13 21  1  0
 20 21  1  0
 21 22  2  0
  7 23  1  0
  4 24  1  0
 23 24  1  0
M  END
