piperidine-amides-23256-covalent
     RDKit          3D

 24 25  0  0  0  0  0  0  0  0999 V2000
    7.1720   -3.2630   19.1740 C   0  0  0  0  0  0  0  0  0  0  0  0
    6.4400   -3.9940   20.2190 C   0  0  0  0  0  0  0  0  0  0  0  0
    5.3350   -4.4880   19.8770 O   0  0  0  0  0  0  0  0  0  0  0  0
    6.9720   -4.2010   21.5180 N   0  0  0  0  0  0  0  0  0  0  0  0
    7.7410   -3.1720   22.1270 C   0  0  0  0  0  0  0  0  0  0  0  0
    7.3120   -2.8800   23.4850 C   0  0  0  0  0  0  0  0  0  0  0  0
    5.8510   -3.0060   23.6640 C   0  0  0  0  0  0  0  0  0  0  0  0
    5.3310   -2.7810   25.0620 C   0  0  0  0  0  0  0  0  0  0  0  0
    4.0940   -2.7700   25.2060 O   0  0  0  0  0  0  0  0  0  0  0  0
    6.0920   -2.5910   26.2410 N   0  0  0  0  0  0  0  0  0  0  0  0
    7.3750   -2.0250   26.4330 C   0  0  0  0  0  0  0  0  0  0  0  0
    5.4930   -3.2620   27.3860 C   0  0  0  0  0  0  0  0  0  0  0  0
    5.2250   -4.7290   27.0790 C   0  0  2  0  0  0  0  0  0  0  0  0
    5.0190   -5.3200   28.3090 O   0  0  0  0  0  0  0  0  0  0  0  0
    6.3620   -5.1000   26.5050 C   0  0  0  0  0  0  0  0  0  0  0  0
    6.3800   -5.3310   24.9990 C   0  0  0  0  0  0  0  0  0  0  0  0
    7.7880   -5.6870   24.4920 C   0  0  0  0  0  0  0  0  0  0  0  0
    8.8270   -5.7230   25.6530 C   0  0  0  0  0  0  0  0  0  0  0  0
    8.6120   -5.4750   27.0720 C   0  0  0  0  0  0  0  0  0  0  0  0
    9.6290   -5.5080   28.0780 C   0  0  0  0  0  0  0  0  0  0  0  0
    9.3540   -4.4550   28.8330 N   0  0  0  0  0  0  0  0  0  0  0  0
    7.3390   -5.1460   27.5780 C   0  0  0  0  0  0  0  0  0  0  0  0
    5.2600   -4.2490   23.0190 C   0  0  0  0  0  0  0  0  0  0  0  0
    6.2570   -5.0430   22.4350 C   0  0  0  0  0  0  0  0  0  0  0  0
  1  2  1  0
  2  3  2  0
  2  4  1  0
  4  5  1  0
  5  6  1  0
  6  7  1  0
  7  8  1  0
  8  9  2  0
  8 10  1  0
 10 11  1  0
 10 12  1  0
 12 13  1  0
 13 14  1  1
 13 15  1  0
 15 16  2  0
 16 17  1  0
 17 18  2  0
 18 19  1  0
 19 20  1  0
 20 21  3  0
 15 22  1  0
 19 22  2  0
  7 23  1  0
  4 24  1  0
 23 24  1  0
M  END
