piperidine-amides-3287-covalent
     RDKit          3D

 22 23  0  0  0  0  0  0  0  0999 V2000
    7.1020   -3.3410   19.3320 C   0  0  0  0  0  0  0  0  0  0  0  0
    6.4080   -4.1800   20.2970 C   0  0  0  0  0  0  0  0  0  0  0  0
    5.3830   -4.7810   19.9720 O   0  0  0  0  0  0  0  0  0  0  0  0
    6.9640   -4.3480   21.6050 N   0  0  0  0  0  0  0  0  0  0  0  0
    7.6650   -3.2410   22.1970 C   0  0  0  0  0  0  0  0  0  0  0  0
    6.8640   -2.7270   23.3520 C   0  0  0  0  0  0  0  0  0  0  0  0
    6.4980   -3.9140   24.2240 C   0  0  0  0  0  0  0  0  0  0  0  0
    5.7390   -3.4470   25.4160 C   0  0  0  0  0  0  0  0  0  0  0  0
    4.4970   -3.2890   25.4430 O   0  0  0  0  0  0  0  0  0  0  0  0
    6.4700   -3.1850   26.5870 N   0  0  0  0  0  0  0  0  0  0  0  0
    6.3910   -1.8910   27.2150 C   0  0  0  0  0  0  0  0  0  0  0  0
    6.8000   -1.7380   28.6130 C   0  0  0  0  0  0  0  0  0  0  0  0
    6.7840   -0.6080   29.3850 C   0  0  0  0  0  0  0  0  0  0  0  0
    6.6640    0.6630   29.9330 C   0  0  0  0  0  0  0  0  0  0  0  0
    7.6890    1.5810   29.7320 O   0  0  0  0  0  0  0  0  0  0  0  0
    5.5540    0.9590   30.6420 O   0  0  0  0  0  0  0  0  0  0  0  0
    4.2750    0.4770   30.3040 C   0  0  0  0  0  0  0  0  0  0  0  0
    6.1230    0.2250   27.8760 S   0  0  0  0  0  0  0  0  0  0  0  0
    5.8940   -0.7210   26.4660 C   0  0  0  0  0  0  0  0  0  0  0  0
    5.5640    0.6100   26.3520 C   0  0  0  0  0  0  0  0  0  0  0  0
    5.6470   -4.8960   23.4220 C   0  0  0  0  0  0  0  0  0  0  0  0
    6.4350   -5.4290   22.4070 C   0  0  0  0  0  0  0  0  0  0  0  0
  1  2  1  0
  2  3  2  0
  2  4  1  0
  4  5  1  0
  5  6  1  0
  6  7  1  0
  7  8  1  0
  8  9  2  0
  8 10  1  0
 10 11  1  0
 11 12  1  0
 12 13  2  0
 13 14  1  0
 14 15  2  0
 14 16  1  0
 16 17  1  0
 13 18  1  0
 11 19  2  0
 18 19  1  0
 19 20  1  0
  7 21  1  0
  4 22  1  0
 21 22  1  0
M  END
