piperidine-amides-1196-covalent
     RDKit          3D

 23 24  0  0  0  0  0  0  0  0999 V2000
    7.0690   -3.3360   19.3000 C   0  0  0  0  0  0  0  0  0  0  0  0
    6.3720   -4.1810   20.3110 C   0  0  0  0  0  0  0  0  0  0  0  0
    5.3580   -4.8110   19.9710 O   0  0  0  0  0  0  0  0  0  0  0  0
    6.9080   -4.2770   21.6130 N   0  0  0  0  0  0  0  0  0  0  0  0
    7.7570   -3.2480   22.1660 C   0  0  0  0  0  0  0  0  0  0  0  0
    6.9980   -2.6430   23.3380 C   0  0  0  0  0  0  0  0  0  0  0  0
    6.5380   -3.7820   24.1690 C   0  0  0  0  0  0  0  0  0  0  0  0
    5.7680   -3.3220   25.3500 C   0  0  0  0  0  0  0  0  0  0  0  0
    4.5430   -3.2320   25.2030 O   0  0  0  0  0  0  0  0  0  0  0  0
    6.4170   -3.0130   26.5520 N   0  0  0  0  0  0  0  0  0  0  0  0
    6.4110   -1.7710   27.2510 C   0  0  0  0  0  0  0  0  0  0  0  0
    7.0350   -1.5720   28.4590 C   0  0  0  0  0  0  0  0  0  0  0  0
    7.0260   -0.3450   29.1500 C   0  0  0  0  0  0  0  0  0  0  0  0
    6.3790    0.7830   28.6720 C   0  0  0  0  0  0  0  0  0  0  0  0
    6.2090    2.0280   29.0970 O   0  0  0  0  0  0  0  0  0  0  0  0
    5.0360    2.1800   29.6630 C   0  0  0  0  0  0  0  0  0  0  0  0
    4.8640    0.9820   30.6110 C   0  0  0  0  0  0  0  0  0  0  0  0
    4.7480    3.3600   30.2650 C   0  0  0  0  0  0  0  0  0  0  0  0
    5.7270    0.7090   27.4860 C   0  0  0  0  0  0  0  0  0  0  0  0
    5.7360   -0.5720   26.7610 C   0  0  0  0  0  0  0  0  0  0  0  0
    5.1200   -0.7720   25.5720 F   0  0  0  0  0  0  0  0  0  0  0  0
    5.7490   -4.8350   23.4440 C   0  0  0  0  0  0  0  0  0  0  0  0
    6.5630   -5.3720   22.4780 C   0  0  0  0  0  0  0  0  0  0  0  0
  1  2  1  0
  2  3  2  0
  2  4  1  0
  4  5  1  0
  5  6  1  0
  6  7  1  0
  7  8  1  0
  8  9  2  0
  8 10  1  0
 10 11  1  0
 11 12  2  0
 12 13  1  0
 13 14  2  0
 14 15  1  0
 15 16  1  0
 16 17  1  0
 16 18  1  0
 14 19  1  0
 11 20  1  0
 19 20  2  0
 20 21  1  0
  7 22  1  0
  4 23  1  0
 22 23  1  0
M  END
