piperidine-amides-10333-covalent
     RDKit          3D

 24 24  0  0  0  0  0  0  0  0999 V2000
    7.1130   -3.2660   19.2250 C   0  0  0  0  0  0  0  0  0  0  0  0
    6.3660   -4.0220   20.2400 C   0  0  0  0  0  0  0  0  0  0  0  0
    5.2750   -4.5230   19.8740 O   0  0  0  0  0  0  0  0  0  0  0  0
    6.8840   -4.2090   21.5210 N   0  0  0  0  0  0  0  0  0  0  0  0
    6.6050   -5.3890   22.2980 C   0  0  0  0  0  0  0  0  0  0  0  0
    5.8580   -4.9700   23.5410 C   0  0  0  0  0  0  0  0  0  0  0  0
    6.0070   -3.4970   23.8590 C   0  0  0  0  0  0  0  0  0  0  0  0
    5.7250   -3.2660   25.2930 C   0  0  0  0  0  0  0  0  0  0  0  0
    4.5280   -3.1470   25.6400 O   0  0  0  0  0  0  0  0  0  0  0  0
    6.7430   -3.1460   26.2680 N   0  0  0  0  0  0  0  0  0  0  0  0
    6.8610   -4.0170   27.4240 C   0  0  0  0  0  0  0  0  0  0  0  0
    7.8520   -3.3340   28.3230 C   0  0  0  0  0  0  0  0  0  0  0  0
    5.5960   -4.2540   28.1470 C   0  0  0  0  0  0  0  0  0  0  0  0
    5.3200   -3.6810   29.4180 O   0  0  0  0  0  0  0  0  0  0  0  0
    4.7070   -5.0710   27.5020 O   0  0  0  0  0  0  0  0  0  0  0  0
    4.4250   -6.3780   27.9390 C   0  0  0  0  0  0  0  0  0  0  0  0
    4.0160   -7.0270   26.7830 C   0  0  0  0  0  0  0  0  0  0  0  0
    7.1130   -5.3570   27.2600 C   0  0  0  0  0  0  0  0  0  0  0  0
    7.2870   -6.2490   28.3090 O   0  0  0  0  0  0  0  0  0  0  0  0
    7.2060   -5.8140   25.9950 O   0  0  0  0  0  0  0  0  0  0  0  0
    8.3990   -5.6060   25.3410 C   0  0  0  0  0  0  0  0  0  0  0  0
    9.5720   -5.9940   26.2030 C   0  0  0  0  0  0  0  0  0  0  0  0
    7.3640   -2.9590   23.5360 C   0  0  0  0  0  0  0  0  0  0  0  0
    7.6690   -3.1050   22.0720 C   0  0  0  0  0  0  0  0  0  0  0  0
  1  2  1  0
  2  3  2  0
  2  4  1  0
  4  5  1  0
  5  6  1  0
  6  7  1  0
  7  8  1  0
  8  9  2  0
  8 10  1  0
 10 11  1  0
 11 12  1  0
 11 13  1  0
 13 14  2  0
 13 15  1  0
 15 16  1  0
 16 17  1  0
 11 18  1  0
 18 19  2  0
 18 20  1  0
 20 21  1  0
 21 22  1  0
  7 23  1  0
  4 24  1  0
 23 24  1  0
M  END
