piperidine-amides-2812-covalent
     RDKit          3D

 24 26  0  0  0  0  0  0  0  0999 V2000
    7.0700   -3.3360   19.3320 C   0  0  0  0  0  0  0  0  0  0  0  0
    6.3750   -4.1730   20.3030 C   0  0  0  0  0  0  0  0  0  0  0  0
    5.3730   -4.8080   19.9710 O   0  0  0  0  0  0  0  0  0  0  0  0
    6.8950   -4.2950   21.6370 N   0  0  0  0  0  0  0  0  0  0  0  0
    7.6760   -3.2340   22.2110 C   0  0  0  0  0  0  0  0  0  0  0  0
    6.9450   -2.6290   23.3680 C   0  0  0  0  0  0  0  0  0  0  0  0
    6.6470   -3.7440   24.3480 C   0  0  0  0  0  0  0  0  0  0  0  0
    5.8240   -3.2280   25.4860 C   0  0  0  0  0  0  0  0  0  0  0  0
    4.5850   -3.3720   25.5060 O   0  0  0  0  0  0  0  0  0  0  0  0
    6.4400   -2.5450   26.5820 N   0  0  0  0  0  0  0  0  0  0  0  0
    5.7910   -1.3410   27.0890 C   0  0  1  0  0  0  0  0  0  0  0  0
    6.5510   -0.8350   28.3000 C   0  0  0  0  0  0  0  0  0  0  0  0
    7.4810   -1.5760   28.9550 C   0  0  0  0  0  0  0  0  0  0  0  0
    8.1740   -1.0650   30.0490 C   0  0  0  0  0  0  0  0  0  0  0  0
    7.9260    0.1770   30.5220 C   0  0  0  0  0  0  0  0  0  0  0  0
    6.9450    0.9370   29.8420 C   0  0  0  0  0  0  0  0  0  0  0  0
    6.2940    0.4320   28.7640 C   0  0  0  0  0  0  0  0  0  0  0  0
    5.3710    1.1570   28.1030 C   0  0  0  0  0  0  0  0  0  0  0  0
    5.3790    1.0250   26.7260 C   0  0  0  0  0  0  0  0  0  0  0  0
    5.5530   -0.3210   26.1500 C   0  0  0  0  0  0  0  0  0  0  0  0
    6.4340   -0.3660   25.0850 C   0  0  0  0  0  0  0  0  0  0  0  0
    4.2600   -0.6800   25.4980 C   0  0  0  0  0  0  0  0  0  0  0  0
    5.8560   -4.8620   23.6890 C   0  0  0  0  0  0  0  0  0  0  0  0
    6.6010   -5.4300   22.4690 C   0  0  0  0  0  0  0  0  0  0  0  0
  1  2  1  0
  2  3  2  0
  2  4  1  0
  4  5  1  0
  5  6  1  0
  6  7  1  0
  7  8  1  0
  8  9  2  0
  8 10  1  0
 11 10  1  6
 11 12  1  0
 12 13  2  0
 13 14  1  0
 14 15  2  0
 15 16  1  0
 12 17  1  0
 16 17  2  0
 17 18  1  0
 18 19  1  0
 11 20  1  0
 19 20  1  0
 20 21  1  0
 20 22  1  0
  7 23  1  0
  4 24  1  0
 23 24  1  0
M  END
