piperidine-amides-8244-covalent
     RDKit          3D

 25 27  0  0  0  0  0  0  0  0999 V2000
    7.0640   -3.3340   19.3130 C   0  0  0  0  0  0  0  0  0  0  0  0
    6.4000   -4.1700   20.3090 C   0  0  0  0  0  0  0  0  0  0  0  0
    5.3800   -4.7980   19.9700 O   0  0  0  0  0  0  0  0  0  0  0  0
    6.9500   -4.2870   21.6090 N   0  0  0  0  0  0  0  0  0  0  0  0
    6.5100   -5.3690   22.4370 C   0  0  0  0  0  0  0  0  0  0  0  0
    5.6800   -4.8160   23.5610 C   0  0  0  0  0  0  0  0  0  0  0  0
    6.5350   -3.7860   24.2720 C   0  0  0  0  0  0  0  0  0  0  0  0
    5.8040   -3.2190   25.4540 C   0  0  0  0  0  0  0  0  0  0  0  0
    4.5960   -3.0480   25.2960 O   0  0  0  0  0  0  0  0  0  0  0  0
    6.4990   -2.9220   26.6320 N   0  0  0  0  0  0  0  0  0  0  0  0
    6.4290   -1.6020   27.1800 C   0  0  0  0  0  0  0  0  0  0  0  0
    5.9870   -0.4880   26.4920 C   0  0  0  0  0  0  0  0  0  0  0  0
    5.9300    0.7480   27.0870 C   0  0  0  0  0  0  0  0  0  0  0  0
    6.2900    1.0500   28.4070 C   0  0  0  0  0  0  0  0  0  0  0  0
    6.7880   -0.1120   29.2360 C   0  0  0  0  0  0  0  0  0  0  0  0
    6.8560   -1.5090   28.5560 C   0  0  0  0  0  0  0  0  0  0  0  0
    7.1190    0.2090   30.5200 N   0  0  0  0  0  0  0  0  0  0  0  0
    6.2370   -0.2260   31.5520 C   0  0  0  0  0  0  0  0  0  0  0  0
    6.7250    0.1600   32.9190 C   0  0  0  0  0  0  0  0  0  0  0  0
    5.1620   -0.8630   31.4090 O   0  0  0  0  0  0  0  0  0  0  0  0
    7.6870    1.5250   30.6770 C   0  0  0  0  0  0  0  0  0  0  0  0
    7.1130    2.5580   29.9640 C   0  0  0  0  0  0  0  0  0  0  0  0
    6.2140    2.3010   28.9610 C   0  0  0  0  0  0  0  0  0  0  0  0
    6.9570   -2.6760   23.3850 C   0  0  0  0  0  0  0  0  0  0  0  0
    7.6910   -3.1970   22.1930 C   0  0  0  0  0  0  0  0  0  0  0  0
  1  2  1  0
  2  3  2  0
  2  4  1  0
  4  5  1  0
  5  6  1  0
  6  7  1  0
  7  8  1  0
  8  9  2  0
  8 10  1  0
 10 11  1  0
 11 12  2  0
 12 13  1  0
 13 14  2  0
 14 15  1  0
 11 16  1  0
 15 16  2  0
 15 17  1  0
 17 18  1  0
 18 19  1  0
 18 20  2  0
 17 21  1  0
 21 22  1  0
 14 23  1  0
 22 23  1  0
  7 24  1  0
  4 25  1  0
 24 25  1  0
M  END
