piperidine-amides-8263-covalent
     RDKit          3D

 25 27  0  0  0  0  0  0  0  0999 V2000
    7.1070   -3.2860   19.2520 C   0  0  0  0  0  0  0  0  0  0  0  0
    6.3950   -4.0860   20.2440 C   0  0  0  0  0  0  0  0  0  0  0  0
    5.3120   -4.5950   19.9070 O   0  0  0  0  0  0  0  0  0  0  0  0
    6.9650   -4.3180   21.5230 N   0  0  0  0  0  0  0  0  0  0  0  0
    7.6480   -3.2450   22.1810 C   0  0  0  0  0  0  0  0  0  0  0  0
    6.8240   -2.7850   23.3440 C   0  0  0  0  0  0  0  0  0  0  0  0
    6.5720   -3.9800   24.2520 C   0  0  0  0  0  0  0  0  0  0  0  0
    5.7710   -3.5240   25.4280 C   0  0  0  0  0  0  0  0  0  0  0  0
    4.5490   -3.5200   25.2950 O   0  0  0  0  0  0  0  0  0  0  0  0
    6.4540   -3.1240   26.5670 N   0  0  0  0  0  0  0  0  0  0  0  0
    6.7340   -1.7490   26.7570 C   0  0  0  0  0  0  0  0  0  0  0  0
    6.7820   -1.3080   28.0800 C   0  0  0  0  0  0  0  0  0  0  0  0
    7.9660   -1.3520   28.7730 C   0  0  0  0  0  0  0  0  0  0  0  0
    8.1420   -0.9270   30.0780 C   0  0  0  0  0  0  0  0  0  0  0  0
    6.9460   -0.3890   30.7820 C   0  0  0  0  0  0  0  0  0  0  0  0
    5.6220   -0.3460   30.0130 C   0  0  0  0  0  0  0  0  0  0  0  0
    4.4620    0.1510   30.6300 N   0  0  0  0  0  0  0  0  0  0  0  0
    4.6250    1.5110   31.0790 C   0  0  0  0  0  0  0  0  0  0  0  0
    4.2000    1.4170   32.5420 C   0  0  0  0  0  0  0  0  0  0  0  0
    3.8570    0.2310   32.7800 O   0  0  0  0  0  0  0  0  0  0  0  0
    3.9730   -0.6110   31.7170 C   0  0  0  0  0  0  0  0  0  0  0  0
    3.6520   -1.9380   31.7660 O   0  0  0  0  0  0  0  0  0  0  0  0
    5.6370   -0.8090   28.7110 C   0  0  0  0  0  0  0  0  0  0  0  0
    5.7490   -4.9830   23.4930 C   0  0  0  0  0  0  0  0  0  0  0  0
    6.4470   -5.4470   22.2450 C   0  0  0  0  0  0  0  0  0  0  0  0
  1  2  1  0
  2  3  2  0
  2  4  1  0
  4  5  1  0
  5  6  1  0
  6  7  1  0
  7  8  1  0
  8  9  2  0
  8 10  1  0
 10 11  1  0
 11 12  1  0
 12 13  2  0
 13 14  1  0
 14 15  2  0
 15 16  1  0
 16 17  1  0
 17 18  1  0
 18 19  1  0
 19 20  1  0
 17 21  1  0
 20 21  1  0
 21 22  2  0
 12 23  1  0
 16 23  2  0
  7 24  1  0
  4 25  1  0
 24 25  1  0
M  END
