piperidine-amides-21621-covalent
     RDKit          3D

 23 25  0  0  0  0  0  0  0  0999 V2000
    7.1160   -3.3800   19.3630 C   0  0  0  0  0  0  0  0  0  0  0  0
    6.4150   -4.2140   20.3350 C   0  0  0  0  0  0  0  0  0  0  0  0
    5.3290   -4.7230   19.9510 O   0  0  0  0  0  0  0  0  0  0  0  0
    6.9880   -4.4730   21.5840 N   0  0  0  0  0  0  0  0  0  0  0  0
    6.6410   -5.6270   22.3590 C   0  0  0  0  0  0  0  0  0  0  0  0
    5.8440   -5.1450   23.5360 C   0  0  0  0  0  0  0  0  0  0  0  0
    6.4230   -3.9250   24.2210 C   0  0  0  0  0  0  0  0  0  0  0  0
    5.4020   -3.4030   25.1600 C   0  0  0  0  0  0  0  0  0  0  0  0
    4.3530   -2.9450   24.6720 O   0  0  0  0  0  0  0  0  0  0  0  0
    5.5140   -3.3870   26.5550 N   0  0  0  0  0  0  0  0  0  0  0  0
    5.1550   -4.5250   27.3670 C   0  0  0  0  0  0  0  0  0  0  0  0
    5.5560   -4.0250   28.6990 C   0  0  0  0  0  0  0  0  0  0  0  0
    5.9650   -2.7490   28.5880 C   0  0  0  0  0  0  0  0  0  0  0  0
    5.9000   -2.1860   27.2900 C   0  0  1  0  0  0  0  0  0  0  0  0
    7.0680   -1.7150   26.7830 C   0  0  0  0  0  0  0  0  0  0  0  0
    7.6700   -2.7280   27.2590 N   0  0  0  0  0  0  0  0  0  0  0  0
    7.5450   -3.9840   26.9240 C   0  0  0  0  0  0  0  0  0  0  0  0
    8.2570   -4.7410   27.6820 C   0  0  0  0  0  0  0  0  0  0  0  0
    8.3460   -6.2090   27.5990 C   0  0  0  0  0  0  0  0  0  0  0  0
    8.8590   -3.8830   28.5130 C   0  0  0  0  0  0  0  0  0  0  0  0
    8.5070   -2.5300   28.2690 N   0  0  0  0  0  0  0  0  0  0  0  0
    6.8210   -2.8040   23.2370 C   0  0  0  0  0  0  0  0  0  0  0  0
    7.7740   -3.4580   22.2670 C   0  0  0  0  0  0  0  0  0  0  0  0
  1  2  1  0
  2  3  2  0
  2  4  1  0
  4  5  1  0
  5  6  1  0
  6  7  1  0
  7  8  1  0
  8  9  2  0
  8 10  1  0
 10 11  1  0
 11 12  1  0
 12 13  1  0
 10 14  1  0
 13 14  1  0
 14 15  1  6
 15 16  1  0
 16 17  1  0
 17 18  2  0
 18 19  1  0
 18 20  1  0
 16 21  1  0
 20 21  2  0
  7 22  1  0
  4 23  1  0
 22 23  1  0
M  END
