piperidine-amides-35246-covalent
     RDKit          3D

 34 37  0  0  0  0  0  0  0  0999 V2000
    7.1770   -3.2080   19.0690 C   0  0  0  0  0  0  0  0  0  0  0  0
    6.3440   -3.8900   20.0950 C   0  0  0  0  0  0  0  0  0  0  0  0
    5.2530   -4.3440   19.7700 O   0  0  0  0  0  0  0  0  0  0  0  0
    6.8270   -4.0440   21.3710 N   0  0  0  0  0  0  0  0  0  0  0  0
    7.5930   -2.9720   21.9870 C   0  0  0  0  0  0  0  0  0  0  0  0
    7.1340   -2.6390   23.3750 C   0  0  0  0  0  0  0  0  0  0  0  0
    6.7230   -3.9050   24.1080 C   0  0  0  0  0  0  0  0  0  0  0  0
    6.1630   -3.4510   25.3700 C   0  0  0  0  0  0  0  0  0  0  0  0
    4.9500   -3.5850   25.6220 O   0  0  0  0  0  0  0  0  0  0  0  0
    7.0200   -2.8250   26.2700 N   0  0  0  0  0  0  0  0  0  0  0  0
    7.1530   -3.3460   27.5940 C   0  0  0  0  0  0  0  0  0  0  0  0
    7.0950   -4.8060   27.4470 C   0  0  0  0  0  0  0  0  0  0  0  0
    6.0750   -5.4670   26.8640 C   0  0  0  0  0  0  0  0  0  0  0  0
    4.8150   -5.7440   27.3300 C   0  0  0  0  0  0  0  0  0  0  0  0
    4.0500   -6.5160   26.4860 C   0  0  0  0  0  0  0  0  0  0  0  0
    4.4440   -7.0770   25.1360 C   0  0  0  0  0  0  0  0  0  0  0  0
    3.6640   -7.8720   24.3480 O   0  0  0  0  0  0  0  0  0  0  0  0
    2.8960   -7.2650   23.3530 C   0  0  0  0  0  0  0  0  0  0  0  0
    5.8240   -6.6830   24.7340 C   0  0  0  0  0  0  0  0  0  0  0  0
    6.4660   -7.0410   23.5660 O   0  0  0  0  0  0  0  0  0  0  0  0
    7.7910   -7.4700   23.5130 C   0  0  0  0  0  0  0  0  0  0  0  0
    6.6630   -5.8340   25.6500 C   0  0  0  0  0  0  0  0  0  0  0  0
    6.7530   -1.4760   26.6030 C   0  0  0  0  0  0  0  0  0  0  0  0
    6.2530   -0.6500   25.7260 N   0  0  0  0  0  0  0  0  0  0  0  0
    6.0730    0.6430   26.3760 C   0  0  0  0  0  0  0  0  0  0  0  0
    6.3780    0.9690   27.7170 N   0  0  0  0  0  0  0  0  0  0  0  0
    6.9600    0.0560   28.7620 C   0  0  0  0  0  0  0  0  0  0  0  0
    6.7320    1.3490   29.2740 C   0  0  0  0  0  0  0  0  0  0  0  0
    6.1530    2.2720   28.2970 C   0  0  0  0  0  0  0  0  0  0  0  0
    6.0900    1.3470   27.1880 C   0  0  0  0  0  0  0  0  0  0  0  0
    6.4060   -0.0490   26.8530 C   0  0  0  0  0  0  0  0  0  0  0  0
    6.9530   -0.9500   27.7680 C   0  0  0  0  0  0  0  0  0  0  0  0
    5.8090   -4.7390   23.3660 C   0  0  0  0  0  0  0  0  0  0  0  0
    6.4450   -5.1810   22.1230 C   0  0  0  0  0  0  0  0  0  0  0  0
  1  2  1  0
  2  3  2  0
  2  4  1  0
  4  5  1  0
  5  6  1  0
  6  7  1  0
  7  8  1  0
  8  9  2  0
  8 10  1  0
 10 11  1  0
 11 12  1  0
 12 13  1  0
 13 14  2  0
 14 15  1  0
 15 16  2  0
 16 17  1  0
 17 18  1  0
 16 19  1  0
 19 20  1  0
 20 21  1  0
 13 22  1  0
 19 22  2  0
 10 23  1  0
 23 24  2  0
 24 25  1  0
 25 26  2  0
 26 27  1  0
 27 28  1  0
 28 29  2  0
 29 30  1  0
 30 31  2  0
 23 32  1  0
 27 32  2  0
 31 32  1  0
  7 33  1  0
  4 34  1  0
 33 34  1  0
M  END
