piperidine-amides-6525-covalent
     RDKit          3D

 24 25  0  0  0  0  0  0  0  0999 V2000
    7.1450   -3.2560   19.2040 C   0  0  0  0  0  0  0  0  0  0  0  0
    6.3780   -4.0320   20.1900 C   0  0  0  0  0  0  0  0  0  0  0  0
    5.2900   -4.5630   19.8840 O   0  0  0  0  0  0  0  0  0  0  0  0
    6.8900   -4.2280   21.4710 N   0  0  0  0  0  0  0  0  0  0  0  0
    7.6940   -3.1780   22.0670 C   0  0  0  0  0  0  0  0  0  0  0  0
    6.8280   -2.5610   23.1530 C   0  0  0  0  0  0  0  0  0  0  0  0
    6.6170   -3.6980   24.0990 C   0  0  0  0  0  0  0  0  0  0  0  0
    5.9550   -3.1840   25.3040 C   0  0  0  0  0  0  0  0  0  0  0  0
    4.7190   -3.3360   25.4410 O   0  0  0  0  0  0  0  0  0  0  0  0
    6.7600   -2.5180   26.2500 N   0  0  0  0  0  0  0  0  0  0  0  0
    6.5550   -2.6590   27.6590 C   0  0  0  0  0  0  0  0  0  0  0  0
    6.3870   -4.1170   28.0250 C   0  0  0  0  0  0  0  0  0  0  0  0
    5.2200   -4.4500   28.6440 C   0  0  0  0  0  0  0  0  0  0  0  0
    4.8540   -5.7670   28.8410 C   0  0  0  0  0  0  0  0  0  0  0  0
    3.6590   -6.1500   29.4710 C   0  0  0  0  0  0  0  0  0  0  0  0
    3.1650   -7.3950   29.7340 C   0  0  0  0  0  0  0  0  0  0  0  0
    2.2220   -7.7590   28.7910 F   0  0  0  0  0  0  0  0  0  0  0  0
    2.6650   -7.4610   31.0240 F   0  0  0  0  0  0  0  0  0  0  0  0
    4.2440   -8.2440   29.5540 F   0  0  0  0  0  0  0  0  0  0  0  0
    2.7900   -4.9810   29.9250 C   0  0  0  0  0  0  0  0  0  0  0  0
    3.1410   -3.5440   29.7360 C   0  0  0  0  0  0  0  0  0  0  0  0
    4.4280   -3.3460   29.0580 N   0  0  0  0  0  0  0  0  0  0  0  0
    5.8610   -4.8290   23.5360 C   0  0  0  0  0  0  0  0  0  0  0  0
    6.4090   -5.3030   22.2700 C   0  0  0  0  0  0  0  0  0  0  0  0
  1  2  1  0
  2  3  2  0
  2  4  1  0
  4  5  1  0
  5  6  1  0
  6  7  1  0
  7  8  1  0
  8  9  2  0
  8 10  1  0
 10 11  1  0
 11 12  1  0
 12 13  1  0
 13 14  2  0
 14 15  1  0
 15 16  1  0
 16 17  1  0
 16 18  1  0
 16 19  1  0
 15 20  2  0
 20 21  1  0
 13 22  1  0
 21 22  2  0
  7 23  1  0
  4 24  1  0
 23 24  1  0
M  END
