piperidine-amides-14738-covalent
     RDKit          3D

 22 24  0  0  0  0  0  0  0  0999 V2000
    7.1240   -3.2810   19.2530 C   0  0  0  0  0  0  0  0  0  0  0  0
    6.3540   -4.0030   20.2580 C   0  0  0  0  0  0  0  0  0  0  0  0
    5.3100   -4.5780   19.9010 O   0  0  0  0  0  0  0  0  0  0  0  0
    6.8280   -4.0790   21.5910 N   0  0  0  0  0  0  0  0  0  0  0  0
    6.5900   -5.2460   22.3680 C   0  0  0  0  0  0  0  0  0  0  0  0
    5.8220   -4.8540   23.5950 C   0  0  0  0  0  0  0  0  0  0  0  0
    6.3710   -3.5470   24.1770 C   0  0  0  0  0  0  0  0  0  0  0  0
    5.2040   -2.7750   24.7430 C   0  0  0  0  0  0  0  0  0  0  0  0
    4.2260   -2.6890   24.0180 O   0  0  0  0  0  0  0  0  0  0  0  0
    5.2440   -2.2270   26.0250 N   0  0  0  0  0  0  0  0  0  0  0  0
    4.7950   -3.0450   27.0810 C   0  0  0  0  0  0  0  0  0  0  0  0
    5.5090   -4.1750   26.9410 C   0  0  0  0  0  0  0  0  0  0  0  0
    5.0040   -5.3270   26.1900 N   0  0  0  0  0  0  0  0  0  0  0  0
    5.9460   -6.1660   26.2340 O   0  0  0  0  0  0  0  0  0  0  0  0
    6.9950   -5.6430   26.9480 C   0  0  0  0  0  0  0  0  0  0  0  0
    8.2360   -6.1820   27.2480 C   0  0  0  0  0  0  0  0  0  0  0  0
    9.1420   -5.3600   28.0680 C   0  0  0  0  0  0  0  0  0  0  0  0
    8.7500   -3.9700   28.5500 C   0  0  0  0  0  0  0  0  0  0  0  0
    7.4720   -3.4670   28.1890 C   0  0  0  0  0  0  0  0  0  0  0  0
    6.7100   -4.4150   27.3930 C   0  0  0  0  0  0  0  0  0  0  0  0
    7.0730   -2.5910   23.2840 C   0  0  0  0  0  0  0  0  0  0  0  0
    7.7040   -3.1010   22.1800 C   0  0  0  0  0  0  0  0  0  0  0  0
  1  2  1  0
  2  3  2  0
  2  4  1  0
  4  5  1  0
  5  6  1  0
  6  7  1  0
  7  8  1  0
  8  9  2  0
  8 10  1  0
 10 11  1  0
 11 12  1  0
 12 13  2  0
 13 14  1  0
 14 15  1  0
 15 16  1  0
 16 17  2  0
 17 18  1  0
 18 19  2  0
 12 20  1  0
 15 20  2  0
 19 20  1  0
  7 21  1  0
  4 22  1  0
 21 22  1  0
M  END
