piperidine-amides-23573-covalent
     RDKit          3D

 24 26  0  0  0  0  0  0  0  0999 V2000
    7.0930   -3.3630   19.3810 C   0  0  0  0  0  0  0  0  0  0  0  0
    6.4400   -4.2440   20.3600 C   0  0  0  0  0  0  0  0  0  0  0  0
    5.3890   -4.8170   19.9790 O   0  0  0  0  0  0  0  0  0  0  0  0
    7.0090   -4.4890   21.6450 N   0  0  0  0  0  0  0  0  0  0  0  0
    6.3660   -5.4220   22.4910 C   0  0  0  0  0  0  0  0  0  0  0  0
    6.2750   -5.0420   23.9160 C   0  0  0  0  0  0  0  0  0  0  0  0
    6.6460   -3.6590   24.3510 C   0  0  0  0  0  0  0  0  0  0  0  0
    5.6120   -3.0260   25.2430 C   0  0  0  0  0  0  0  0  0  0  0  0
    4.8140   -2.2410   24.7180 O   0  0  0  0  0  0  0  0  0  0  0  0
    5.4600   -3.2190   26.6310 N   0  0  0  0  0  0  0  0  0  0  0  0
    4.5450   -2.4920   27.4050 C   0  0  0  0  0  0  0  0  0  0  0  0
    4.7060   -2.3520   28.8340 C   0  0  0  0  0  0  0  0  0  0  0  0
    4.7920   -3.7390   29.4090 C   0  0  0  0  0  0  0  0  0  0  0  0
    4.1030   -4.1790   30.5970 N   0  0  0  0  0  0  0  0  0  0  0  0
    4.2340   -5.4210   31.0780 N   0  0  0  0  0  0  0  0  0  0  0  0
    5.0870   -6.2730   30.3730 C   0  0  0  0  0  0  0  0  0  0  0  0
    5.3020   -7.4740   30.7800 N   0  0  0  0  0  0  0  0  0  0  0  0
    6.1720   -8.1990   29.9230 C   0  0  0  0  0  0  0  0  0  0  0  0
    5.3730   -7.7470   32.2120 C   0  0  0  0  0  0  0  0  0  0  0  0
    5.7930   -5.8460   29.1250 C   0  0  0  0  0  0  0  0  0  0  0  0
    5.6400   -4.5190   28.6050 C   0  0  0  0  0  0  0  0  0  0  0  0
    6.2980   -4.0530   27.3660 C   0  0  0  0  0  0  0  0  0  0  0  0
    6.8810   -2.6890   23.1910 C   0  0  0  0  0  0  0  0  0  0  0  0
    7.7650   -3.3860   22.2420 C   0  0  0  0  0  0  0  0  0  0  0  0
  1  2  1  0
  2  3  2  0
  2  4  1  0
  4  5  1  0
  5  6  1  0
  6  7  1  0
  7  8  1  0
  8  9  2  0
  8 10  1  0
 10 11  1  0
 11 12  1  0
 12 13  1  0
 13 14  2  0
 14 15  1  0
 15 16  2  0
 16 17  1  0
 17 18  1  0
 17 19  1  0
 16 20  1  0
 13 21  1  0
 20 21  2  0
 10 22  1  0
 21 22  1  0
  7 23  1  0
  4 24  1  0
 23 24  1  0
M  END
