piperidine-amides-8810-covalent
     RDKit          3D

 22 23  0  0  0  0  0  0  0  0999 V2000
    7.1370   -3.3140   19.2610 C   0  0  0  0  0  0  0  0  0  0  0  0
    6.4010   -4.0910   20.2470 C   0  0  0  0  0  0  0  0  0  0  0  0
    5.3090   -4.5800   19.9030 O   0  0  0  0  0  0  0  0  0  0  0  0
    6.9670   -4.3330   21.5270 N   0  0  0  0  0  0  0  0  0  0  0  0
    7.6850   -3.2790   22.2100 C   0  0  0  0  0  0  0  0  0  0  0  0
    6.8890   -2.8430   23.4040 C   0  0  0  0  0  0  0  0  0  0  0  0
    5.6410   -3.6800   23.3100 C   0  0  0  0  0  0  0  0  0  0  0  0
    4.6560   -3.3600   24.3810 C   0  0  0  0  0  0  0  0  0  0  0  0
    3.4790   -3.4060   24.0770 O   0  0  0  0  0  0  0  0  0  0  0  0
    5.0960   -3.0470   25.6220 N   0  0  0  0  0  0  0  0  0  0  0  0
    4.7970   -3.8490   26.7360 C   0  0  1  0  0  0  0  0  0  0  0  0
    4.9100   -5.2530   26.6220 C   0  0  0  0  0  0  0  0  0  0  0  0
    5.9610   -3.5290   27.4110 C   0  0  0  0  0  0  0  0  0  0  0  0
    6.8890   -4.5030   27.2330 C   0  0  0  0  0  0  0  0  0  0  0  0
    8.1870   -4.3960   27.8190 C   0  0  0  0  0  0  0  0  0  0  0  0
    9.2240   -5.7600   27.4680 Cl  0  0  0  0  0  0  0  0  0  0  0  0
    8.5020   -3.1530   28.6490 C   0  0  0  0  0  0  0  0  0  0  0  0
    7.4640   -2.1380   28.8030 C   0  0  0  0  0  0  0  0  0  0  0  0
    6.1820   -2.3930   28.1460 C   0  0  0  0  0  0  0  0  0  0  0  0
    4.8290   -1.0400   28.3650 Br  0  0  0  0  0  0  0  0  0  0  0  0
    5.8530   -5.1260   23.3260 C   0  0  0  0  0  0  0  0  0  0  0  0
    6.6420   -5.5260   22.2790 C   0  0  0  0  0  0  0  0  0  0  0  0
  1  2  1  0
  2  3  2  0
  2  4  1  0
  4  5  1  0
  5  6  1  0
  6  7  1  0
  7  8  1  0
  8  9  2  0
  8 10  1  0
 10 11  1  0
 11 12  1  6
 11 13  1  0
 13 14  2  0
 14 15  1  0
 15 16  1  0
 15 17  2  0
 17 18  1  0
 13 19  1  0
 18 19  2  0
 19 20  1  0
  7 21  1  0
  4 22  1  0
 21 22  1  0
M  END
