piperidine-amides-12089-covalent
     RDKit          3D

 25 27  0  0  0  0  0  0  0  0999 V2000
    7.0820   -3.3480   19.2460 C   0  0  0  0  0  0  0  0  0  0  0  0
    6.3930   -4.1530   20.2480 C   0  0  0  0  0  0  0  0  0  0  0  0
    5.3500   -4.7340   19.9530 O   0  0  0  0  0  0  0  0  0  0  0  0
    6.9600   -4.3300   21.5580 N   0  0  0  0  0  0  0  0  0  0  0  0
    6.5290   -5.4280   22.3720 C   0  0  0  0  0  0  0  0  0  0  0  0
    5.7610   -4.8990   23.5540 C   0  0  0  0  0  0  0  0  0  0  0  0
    6.5980   -3.8200   24.2300 C   0  0  0  0  0  0  0  0  0  0  0  0
    5.8650   -3.2290   25.3770 C   0  0  0  0  0  0  0  0  0  0  0  0
    4.6230   -3.1370   25.3950 O   0  0  0  0  0  0  0  0  0  0  0  0
    6.6300   -2.7580   26.4680 N   0  0  0  0  0  0  0  0  0  0  0  0
    6.0800   -1.7430   27.3270 C   0  0  0  0  0  0  0  0  0  0  0  0
    4.9960   -2.5650   27.9780 C   0  0  0  0  0  0  0  0  0  0  0  0
    5.2310   -3.9070   28.2830 C   0  0  0  0  0  0  0  0  0  0  0  0
    4.2350   -4.6770   28.8880 C   0  0  0  0  0  0  0  0  0  0  0  0
    3.0120   -4.1550   29.2000 C   0  0  0  0  0  0  0  0  0  0  0  0
    2.1520   -5.0490   29.7880 F   0  0  0  0  0  0  0  0  0  0  0  0
    2.7590   -2.7670   28.8900 C   0  0  0  0  0  0  0  0  0  0  0  0
    3.7540   -2.0270   28.2940 C   0  0  0  0  0  0  0  0  0  0  0  0
    3.3900   -0.7260   28.0540 F   0  0  0  0  0  0  0  0  0  0  0  0
    5.6330   -0.5110   26.8310 C   0  0  0  0  0  0  0  0  0  0  0  0
    5.7370    0.5450   27.7250 C   0  0  0  0  0  0  0  0  0  0  0  0
    6.4950   -0.0530   28.7840 C   0  0  0  0  0  0  0  0  0  0  0  0
    6.9570   -1.2710   28.3580 C   0  0  0  0  0  0  0  0  0  0  0  0
    6.9480   -2.7020   23.3030 C   0  0  0  0  0  0  0  0  0  0  0  0
    7.6650   -3.2360   22.1230 C   0  0  0  0  0  0  0  0  0  0  0  0
  1  2  1  0
  2  3  2  0
  2  4  1  0
  4  5  1  0
  5  6  1  0
  6  7  1  0
  7  8  1  0
  8  9  2  0
  8 10  1  0
 11 10  1  0
 11 12  1  0
 12 13  2  0
 13 14  1  0
 14 15  2  0
 15 16  1  0
 15 17  1  0
 12 18  1  0
 17 18  2  0
 18 19  1  0
 11 20  1  0
 20 21  1  0
 21 22  1  0
 11 23  1  0
 22 23  1  0
  7 24  1  0
  4 25  1  0
 24 25  1  0
M  END
