piperidine-amides-8703-covalent
     RDKit          3D

 23 23  0  0  0  0  0  0  0  0999 V2000
    7.1270   -3.2730   19.1680 C   0  0  0  0  0  0  0  0  0  0  0  0
    6.3980   -4.0210   20.1920 C   0  0  0  0  0  0  0  0  0  0  0  0
    5.3130   -4.5410   19.8800 O   0  0  0  0  0  0  0  0  0  0  0  0
    6.9540   -4.1860   21.4810 N   0  0  0  0  0  0  0  0  0  0  0  0
    7.7450   -3.1260   22.0470 C   0  0  0  0  0  0  0  0  0  0  0  0
    7.0220   -2.5410   23.2110 C   0  0  0  0  0  0  0  0  0  0  0  0
    6.7030   -3.6960   24.1200 C   0  0  0  0  0  0  0  0  0  0  0  0
    5.8530   -3.1860   25.2360 C   0  0  0  0  0  0  0  0  0  0  0  0
    4.8050   -2.6250   24.9150 O   0  0  0  0  0  0  0  0  0  0  0  0
    6.3010   -3.3790   26.5330 N   0  0  0  0  0  0  0  0  0  0  0  0
    5.6960   -4.3250   27.3990 C   0  0  1  0  0  0  0  0  0  0  0  0
    5.7710   -5.6560   26.9610 C   0  0  0  0  0  0  0  0  0  0  0  0
    4.5760   -6.3380   26.8760 C   0  0  0  0  0  0  0  0  0  0  0  0
    4.3700   -7.3020   27.8330 O   0  0  0  0  0  0  0  0  0  0  0  0
    3.6550   -6.0180   25.8590 O   0  0  0  0  0  0  0  0  0  0  0  0
    3.5200   -6.9190   24.7460 C   0  0  0  0  0  0  0  0  0  0  0  0
    3.3670   -6.4270   23.3360 C   0  0  0  0  0  0  0  0  0  0  0  0
    6.2640   -4.0130   28.6920 C   0  0  0  0  0  0  0  0  0  0  0  0
    6.9770   -2.8420   28.8010 F   0  0  0  0  0  0  0  0  0  0  0  0
    7.0320   -5.1150   29.0850 F   0  0  0  0  0  0  0  0  0  0  0  0
    5.2430   -3.9930   29.6420 F   0  0  0  0  0  0  0  0  0  0  0  0
    5.9370   -4.8140   23.4970 C   0  0  0  0  0  0  0  0  0  0  0  0
    6.5120   -5.3170   22.2120 C   0  0  0  0  0  0  0  0  0  0  0  0
  1  2  1  0
  2  3  2  0
  2  4  1  0
  4  5  1  0
  5  6  1  0
  6  7  1  0
  7  8  1  0
  8  9  2  0
  8 10  1  0
 10 11  1  0
 11 12  1  6
 12 13  1  0
 13 14  2  0
 13 15  1  0
 15 16  1  0
 16 17  1  0
 11 18  1  0
 18 19  1  0
 18 20  1  0
 18 21  1  0
  7 22  1  0
  4 23  1  0
 22 23  1  0
M  END
