piperidine-amides-33945-covalent
     RDKit          3D

 28 31  0  0  0  0  0  0  0  0999 V2000
    7.0200   -3.3170   19.3140 C   0  0  0  0  0  0  0  0  0  0  0  0
    6.3140   -4.1580   20.2950 C   0  0  0  0  0  0  0  0  0  0  0  0
    5.3110   -4.8130   19.9550 O   0  0  0  0  0  0  0  0  0  0  0  0
    6.7680   -4.2760   21.6090 N   0  0  0  0  0  0  0  0  0  0  0  0
    6.4690   -5.4780   22.3340 C   0  0  0  0  0  0  0  0  0  0  0  0
    5.5990   -5.1060   23.5560 C   0  0  0  0  0  0  0  0  0  0  0  0
    5.8120   -3.6420   23.9530 C   0  0  0  0  0  0  0  0  0  0  0  0
    5.3820   -3.3970   25.3770 C   0  0  0  0  0  0  0  0  0  0  0  0
    4.1560   -3.2660   25.5870 O   0  0  0  0  0  0  0  0  0  0  0  0
    6.2710   -3.2950   26.5020 N   0  0  0  0  0  0  0  0  0  0  0  0
    6.0730   -2.2060   27.4330 C   0  0  0  0  0  0  0  0  0  0  0  0
    5.0320   -2.5470   28.5040 C   0  0  0  0  0  0  0  0  0  0  0  0
    5.2200   -3.8950   28.9410 N   0  0  0  0  0  0  0  0  0  0  0  0
    4.0170   -4.7400   29.1230 C   0  0  0  0  0  0  0  0  0  0  0  0
    4.1110   -5.4390   27.9800 C   0  0  0  0  0  0  0  0  0  0  0  0
    3.1250   -6.2860   27.2400 C   0  0  0  0  0  0  0  0  0  0  0  0
    4.2180   -6.7510   25.8780 S   0  0  0  0  0  0  0  0  0  0  0  0
    5.5140   -5.8690   26.4910 C   0  0  0  0  0  0  0  0  0  0  0  0
    6.8750   -5.8170   25.8370 C   0  0  0  0  0  0  0  0  0  0  0  0
    7.2190   -6.1260   27.2330 C   0  0  0  0  0  0  0  0  0  0  0  0
    8.6530   -6.2560   27.4240 C   0  0  0  0  0  0  0  0  0  0  0  0
    9.3330   -6.0150   25.8760 S   0  0  0  0  0  0  0  0  0  0  0  0
    7.9310   -5.6900   24.9020 C   0  0  0  0  0  0  0  0  0  0  0  0
    5.3320   -5.2700   27.5240 N   0  0  0  0  0  0  0  0  0  0  0  0
    6.4780   -4.4530   28.5270 C   0  0  0  0  0  0  0  0  0  0  0  0
    6.5900   -4.5290   27.1540 C   0  0  0  0  0  0  0  0  0  0  0  0
    7.2070   -3.1520   23.6910 C   0  0  0  0  0  0  0  0  0  0  0  0
    7.5080   -3.2110   22.2160 C   0  0  0  0  0  0  0  0  0  0  0  0
  1  2  1  0
  2  3  2  0
  2  4  1  0
  4  5  1  0
  5  6  1  0
  6  7  1  0
  7  8  1  0
  8  9  2  0
  8 10  1  0
 10 11  1  0
 11 12  1  0
 12 13  1  0
 13 14  1  0
 14 15  1  0
 15 16  2  0
 16 17  1  0
 17 18  1  0
 18 19  1  0
 19 20  1  0
 20 21  2  0
 21 22  1  0
 19 23  2  0
 22 23  1  0
 15 24  1  0
 18 24  2  0
 13 25  1  0
 10 26  1  0
 25 26  1  0
  7 27  1  0
  4 28  1  0
 27 28  1  0
M  END
