piperidine-amides-29064-covalent
     RDKit          3D

 26 27  0  0  0  0  0  0  0  0999 V2000
    7.1590   -3.2990   19.2420 C   0  0  0  0  0  0  0  0  0  0  0  0
    6.3940   -4.0470   20.2290 C   0  0  0  0  0  0  0  0  0  0  0  0
    5.2990   -4.5300   19.8860 O   0  0  0  0  0  0  0  0  0  0  0  0
    6.9460   -4.2700   21.5150 N   0  0  0  0  0  0  0  0  0  0  0  0
    6.5410   -5.4300   22.2360 C   0  0  0  0  0  0  0  0  0  0  0  0
    5.6810   -4.9830   23.3730 C   0  0  0  0  0  0  0  0  0  0  0  0
    6.4790   -4.0030   24.2130 C   0  0  0  0  0  0  0  0  0  0  0  0
    5.6490   -3.5930   25.3770 C   0  0  0  0  0  0  0  0  0  0  0  0
    4.4360   -3.5130   25.1830 O   0  0  0  0  0  0  0  0  0  0  0  0
    6.2830   -3.3280   26.5690 N   0  0  0  0  0  0  0  0  0  0  0  0
    6.5760   -1.9620   26.8670 C   0  0  0  0  0  0  0  0  0  0  0  0
    5.4490   -1.1560   27.0690 C   0  0  0  0  0  0  0  0  0  0  0  0
    4.7070   -0.6890   25.9830 C   0  0  0  0  0  0  0  0  0  0  0  0
    3.5600    0.1160   26.0210 C   0  0  0  0  0  0  0  0  0  0  0  0
    3.1240    0.4900   27.4050 C   0  0  0  0  0  0  0  0  0  0  0  0
    2.0200    1.2710   27.5240 F   0  0  0  0  0  0  0  0  0  0  0  0
    3.9340   -0.0200   28.5970 C   0  0  0  0  0  0  0  0  0  0  0  0
    3.5500    0.3140   29.9120 F   0  0  0  0  0  0  0  0  0  0  0  0
    5.1120   -0.8560   28.3680 C   0  0  0  0  0  0  0  0  0  0  0  0
    5.9160   -4.1900   27.6810 C   0  0  0  0  0  0  0  0  0  0  0  0
    4.4250   -4.0280   27.8800 C   0  0  0  0  0  0  0  0  0  0  0  0
    6.4760   -3.7460   28.8420 C   0  0  0  0  0  0  0  0  0  0  0  0
    5.9550   -5.7240   27.5550 C   0  0  0  0  0  0  0  0  0  0  0  0
    6.4290   -6.4330   28.8020 C   0  0  0  0  0  0  0  0  0  0  0  0
    6.8680   -2.7780   23.3770 C   0  0  0  0  0  0  0  0  0  0  0  0
    7.6810   -3.2580   22.2020 C   0  0  0  0  0  0  0  0  0  0  0  0
  1  2  1  0
  2  3  2  0
  2  4  1  0
  4  5  1  0
  5  6  1  0
  6  7  1  0
  7  8  1  0
  8  9  2  0
  8 10  1  0
 10 11  1  0
 11 12  1  0
 12 13  2  0
 13 14  1  0
 14 15  2  0
 15 16  1  0
 15 17  1  0
 17 18  1  0
 12 19  1  0
 17 19  2  0
 20 10  1  0
 20 21  1  0
 20 22  1  0
 20 23  1  0
 23 24  1  0
  7 25  1  0
  4 26  1  0
 25 26  1  0
M  END
