piperidine-amides-631-covalent
     RDKit          3D

 26 27  0  0  0  0  0  0  0  0999 V2000
    7.0870   -3.3140   19.1790 C   0  0  0  0  0  0  0  0  0  0  0  0
    6.3840   -4.0170   20.2310 C   0  0  0  0  0  0  0  0  0  0  0  0
    5.3070   -4.6040   19.9140 O   0  0  0  0  0  0  0  0  0  0  0  0
    6.8610   -4.1360   21.5570 N   0  0  0  0  0  0  0  0  0  0  0  0
    7.8850   -3.1500   22.0160 C   0  0  0  0  0  0  0  0  0  0  0  0
    7.5190   -2.9550   23.5350 C   0  0  0  0  0  0  0  0  0  0  0  0
    6.1600   -3.5800   23.6570 C   0  0  0  0  0  0  0  0  0  0  0  0
    5.3670   -3.0260   24.9020 C   0  0  0  0  0  0  0  0  0  0  0  0
    4.1710   -3.2700   24.8210 O   0  0  0  0  0  0  0  0  0  0  0  0
    6.1890   -2.4660   25.6770 N   0  0  0  0  0  0  0  0  0  0  0  0
    6.9700   -1.9340   26.6220 C   0  0  0  0  0  0  0  0  0  0  0  0
    7.1520   -2.0910   27.9350 C   0  0  0  0  0  0  0  0  0  0  0  0
    6.0820   -1.7950   28.8080 C   0  0  0  0  0  0  0  0  0  0  0  0
    8.4550   -1.5240   28.4950 C   0  0  0  0  0  0  0  0  0  0  0  0
    6.9930   -3.5670   28.1920 C   0  0  0  0  0  0  0  0  0  0  0  0
    6.0130   -4.1210   29.0150 C   0  0  0  0  0  0  0  0  0  0  0  0
    5.6400   -5.4470   29.4210 C   0  0  0  0  0  0  0  0  0  0  0  0
    6.6900   -6.3030   28.6620 C   0  0  0  0  0  0  0  0  0  0  0  0
    6.4910   -7.4860   28.9380 O   0  0  0  0  0  0  0  0  0  0  0  0
    5.1490   -7.6430   29.2330 C   0  0  0  0  0  0  0  0  0  0  0  0
    7.7700   -5.8450   27.7470 C   0  0  0  0  0  0  0  0  0  0  0  0
    8.6760   -6.5760   27.0690 O   0  0  0  0  0  0  0  0  0  0  0  0
    9.3240   -5.9400   25.9940 C   0  0  0  0  0  0  0  0  0  0  0  0
    7.9140   -4.4640   27.5130 C   0  0  0  0  0  0  0  0  0  0  0  0
    6.0960   -5.0580   23.4790 C   0  0  0  0  0  0  0  0  0  0  0  0
    6.7010   -5.3750   22.2700 C   0  0  0  0  0  0  0  0  0  0  0  0
  1  2  1  0
  2  3  2  0
  2  4  1  0
  4  5  1  0
  5  6  1  0
  6  7  1  0
  7  8  1  0
  8  9  2  0
  8 10  1  0
 10 11  1  0
 12 11  1  0
 12 13  1  0
 12 14  1  0
 12 15  1  0
 15 16  2  0
 16 17  1  0
 17 18  2  0
 18 19  1  0
 19 20  1  0
 18 21  1  0
 21 22  1  0
 22 23  1  0
 15 24  1  0
 21 24  2  0
  7 25  1  0
  4 26  1  0
 25 26  1  0
M  END
