piperidine-amides-31710-covalent
     RDKit          3D

 28 30  0  0  0  0  0  0  0  0999 V2000
    7.1250   -3.2980   19.1290 C   0  0  0  0  0  0  0  0  0  0  0  0
    6.3730   -3.9450   20.1750 C   0  0  0  0  0  0  0  0  0  0  0  0
    5.2640   -4.4790   19.8630 O   0  0  0  0  0  0  0  0  0  0  0  0
    6.8480   -4.0690   21.4880 N   0  0  0  0  0  0  0  0  0  0  0  0
    6.6630   -5.3810   22.1340 C   0  0  0  0  0  0  0  0  0  0  0  0
    5.6380   -4.9250   23.2180 C   0  0  0  0  0  0  0  0  0  0  0  0
    6.4920   -4.1400   24.1740 C   0  0  0  0  0  0  0  0  0  0  0  0
    5.6620   -3.9900   25.5130 C   0  0  0  0  0  0  0  0  0  0  0  0
    4.6770   -4.7040   25.4330 O   0  0  0  0  0  0  0  0  0  0  0  0
    6.1600   -3.1660   26.3480 N   0  0  0  0  0  0  0  0  0  0  0  0
    6.5570   -1.9900   26.9270 C   0  0  0  0  0  0  0  0  0  0  0  0
    5.8660   -0.8340   27.2130 C   0  0  0  0  0  0  0  0  0  0  0  0
    4.6660   -0.5430   26.4940 C   0  0  0  0  0  0  0  0  0  0  0  0
    3.7260    0.6080   26.5890 C   0  0  0  0  0  0  0  0  0  0  0  0
    4.2730    1.5360   27.6760 C   0  0  0  0  0  0  0  0  0  0  0  0
    3.5710    2.7240   27.9820 O   0  0  0  0  0  0  0  0  0  0  0  0
    2.5450    3.2070   27.1380 C   0  0  0  0  0  0  0  0  0  0  0  0
    5.5090    1.3850   28.5220 C   0  0  0  0  0  0  0  0  0  0  0  0
    6.3410    0.1420   28.2760 C   0  0  0  0  0  0  0  0  0  0  0  0
    7.4880   -0.0770   29.0040 O   0  0  0  0  0  0  0  0  0  0  0  0
    7.7020   -1.1620   29.8510 C   0  0  0  0  0  0  0  0  0  0  0  0
    5.8650   -3.3990   27.7640 C   0  0  1  0  0  0  0  0  0  0  0  0
    4.5990   -3.8510   27.8710 C   0  0  0  0  0  0  0  0  0  0  0  0
    6.6150   -4.5280   28.4130 C   0  0  0  0  0  0  0  0  0  0  0  0
    5.9480   -5.2400   29.1280 C   0  0  0  0  0  0  0  0  0  0  0  0
    6.5310   -5.8990   27.9560 C   0  0  0  0  0  0  0  0  0  0  0  0
    7.1950   -2.9430   23.6280 C   0  0  0  0  0  0  0  0  0  0  0  0
    7.6250   -3.0790   22.1950 C   0  0  0  0  0  0  0  0  0  0  0  0
  1  2  1  0
  2  3  2  0
  2  4  1  0
  4  5  1  0
  5  6  1  0
  6  7  1  0
  7  8  1  0
  8  9  2  0
  8 10  1  0
 10 11  1  0
 11 12  1  0
 12 13  2  0
 13 14  1  0
 14 15  2  0
 15 16  1  0
 16 17  1  0
 15 18  1  0
 12 19  1  0
 18 19  2  0
 19 20  1  0
 20 21  1  0
 10 22  1  0
 22 23  1  6
 22 24  1  0
 24 25  1  0
 24 26  1  0
 25 26  1  0
  7 27  1  0
  4 28  1  0
 27 28  1  0
M  END
