piperidine-amides-33625-covalent
     RDKit          3D

 30 33  0  0  0  0  0  0  0  0999 V2000
    7.0560   -3.4320   19.4880 C   0  0  0  0  0  0  0  0  0  0  0  0
    6.3550   -4.3520   20.3990 C   0  0  0  0  0  0  0  0  0  0  0  0
    5.2990   -4.8580   19.9700 O   0  0  0  0  0  0  0  0  0  0  0  0
    6.8660   -4.7060   21.6740 N   0  0  0  0  0  0  0  0  0  0  0  0
    6.0690   -5.5890   22.4480 C   0  0  0  0  0  0  0  0  0  0  0  0
    5.4930   -5.0060   23.6760 C   0  0  0  0  0  0  0  0  0  0  0  0
    6.3060   -3.9800   24.3850 C   0  0  0  0  0  0  0  0  0  0  0  0
    5.5550   -3.1740   25.4220 C   0  0  0  0  0  0  0  0  0  0  0  0
    4.4600   -3.5290   25.8920 O   0  0  0  0  0  0  0  0  0  0  0  0
    6.1830   -1.9750   25.8020 N   0  0  0  0  0  0  0  0  0  0  0  0
    7.3650   -1.6390   25.1480 C   0  0  0  0  0  0  0  0  0  0  0  0
    7.4100   -0.7020   24.0080 C   0  0  0  0  0  0  0  0  0  0  0  0
    8.4850   -0.0010   23.5090 N   0  0  0  0  0  0  0  0  0  0  0  0
    8.0600    0.7140   22.4600 N   0  0  0  0  0  0  0  0  0  0  0  0
    6.7790    0.3740   22.4290 C   0  0  0  0  0  0  0  0  0  0  0  0
    5.8970    0.8650   21.4800 C   0  0  0  0  0  0  0  0  0  0  0  0
    6.1160    2.3630   21.8020 C   0  0  0  0  0  0  0  0  0  0  0  0
    5.2860    3.3040   20.9260 C   0  0  0  0  0  0  0  0  0  0  0  0
    4.4150    2.5340   19.9090 C   0  0  0  0  0  0  0  0  0  0  0  0
    4.2600    1.0730   19.6600 C   0  0  0  0  0  0  0  0  0  0  0  0
    5.1040    0.2520   20.5640 C   0  0  0  0  0  0  0  0  0  0  0  0
    6.3240   -0.4940   23.3660 O   0  0  0  0  0  0  0  0  0  0  0  0
    5.5760   -1.0290   26.7660 C   0  0  1  0  0  0  0  0  0  0  0  0
    6.3550   -0.7470   28.0280 C   0  0  0  0  0  0  0  0  0  0  0  0
    5.9290    0.2080   28.9090 C   0  0  0  0  0  0  0  0  0  0  0  0
    5.5060    1.3130   28.2530 C   0  0  0  0  0  0  0  0  0  0  0  0
    4.8650    1.1980   27.2020 O   0  0  0  0  0  0  0  0  0  0  0  0
    5.2400    0.3200   26.1690 C   0  0  0  0  0  0  0  0  0  0  0  0
    6.9310   -3.0360   23.3970 C   0  0  0  0  0  0  0  0  0  0  0  0
    7.6990   -3.7750   22.3430 C   0  0  0  0  0  0  0  0  0  0  0  0
  1  2  1  0
  2  3  2  0
  2  4  1  0
  4  5  1  0
  5  6  1  0
  6  7  1  0
  7  8  1  0
  8  9  2  0
  8 10  1  0
 10 11  1  0
 11 12  1  0
 12 13  2  0
 13 14  1  0
 14 15  2  0
 15 16  1  0
 16 17  2  0
 17 18  1  0
 18 19  2  0
 19 20  1  0
 16 21  1  0
 20 21  2  0
 12 22  1  0
 15 22  1  0
 23 10  1  6
 23 24  1  0
 24 25  1  0
 25 26  1  0
 26 27  1  0
 23 28  1  0
 27 28  1  0
  7 29  1  0
  4 30  1  0
 29 30  1  0
M  END
