piperidine-amides-32881-covalent
     RDKit          3D

 21 23  0  0  0  0  0  0  0  0999 V2000
    7.0650   -3.3300   19.3400 C   0  0  0  0  0  0  0  0  0  0  0  0
    6.3850   -4.2150   20.3300 C   0  0  0  0  0  0  0  0  0  0  0  0
    5.3580   -4.8160   19.9780 O   0  0  0  0  0  0  0  0  0  0  0  0
    6.9330   -4.4140   21.6180 N   0  0  0  0  0  0  0  0  0  0  0  0
    6.6960   -5.6370   22.3410 C   0  0  0  0  0  0  0  0  0  0  0  0
    5.9480   -5.2410   23.6130 C   0  0  0  0  0  0  0  0  0  0  0  0
    6.6980   -4.1110   24.2320 C   0  0  0  0  0  0  0  0  0  0  0  0
    6.0220   -3.6060   25.4550 C   0  0  0  0  0  0  0  0  0  0  0  0
    4.9890   -2.9500   25.2660 O   0  0  0  0  0  0  0  0  0  0  0  0
    6.5290   -3.8770   26.7400 N   0  0  0  0  0  0  0  0  0  0  0  0
    7.1470   -5.0280   27.2460 C   0  0  0  0  0  0  0  0  0  0  0  0
    6.4570   -5.9810   27.8370 C   0  0  0  0  0  0  0  0  0  0  0  0
    5.4620   -5.2510   28.6320 N   0  0  0  0  0  0  0  0  0  0  0  0
    4.5570   -6.0600   29.4150 N   0  0  0  0  0  0  0  0  0  0  0  0
    3.6100   -5.1660   30.1510 C   0  0  0  0  0  0  0  0  0  0  0  0
    4.5810   -5.0300   29.3510 C   0  0  0  0  0  0  0  0  0  0  0  0
    5.2790   -6.9470   28.8770 I   0  0  0  0  0  0  0  0  0  0  0  0
    5.1740   -3.8970   28.8120 C   0  0  0  0  0  0  0  0  0  0  0  0
    6.1970   -3.1390   27.9410 C   0  0  0  0  0  0  0  0  0  0  0  0
    6.9090   -2.9410   23.3090 C   0  0  0  0  0  0  0  0  0  0  0  0
    7.6980   -3.3760   22.2600 C   0  0  0  0  0  0  0  0  0  0  0  0
  1  2  1  0
  2  3  2  0
  2  4  1  0
  4  5  1  0
  5  6  1  0
  6  7  1  0
  7  8  1  0
  8  9  2  0
  8 10  1  0
 10 11  1  0
 11 12  1  0
 12 13  1  0
 13 14  1  0
 14 15  2  0
 15 16  1  0
 16 17  1  0
 13 18  1  0
 16 18  2  0
 10 19  1  0
 18 19  1  0
  7 20  1  0
  4 21  1  0
 20 21  1  0
M  END
