piperidine-amides-13006-covalent
     RDKit          3D

 20 21  0  0  0  0  0  0  0  0999 V2000
    7.1320   -3.2800   19.1620 C   0  0  0  0  0  0  0  0  0  0  0  0
    6.3170   -3.9690   20.1840 C   0  0  0  0  0  0  0  0  0  0  0  0
    5.2170   -4.4170   19.8190 O   0  0  0  0  0  0  0  0  0  0  0  0
    6.7990   -4.1610   21.4750 N   0  0  0  0  0  0  0  0  0  0  0  0
    7.5730   -3.1340   22.1010 C   0  0  0  0  0  0  0  0  0  0  0  0
    7.1720   -2.8090   23.4700 C   0  0  0  0  0  0  0  0  0  0  0  0
    6.5340   -3.9170   24.2080 C   0  0  0  0  0  0  0  0  0  0  0  0
    5.7890   -3.4000   25.3850 C   0  0  0  0  0  0  0  0  0  0  0  0
    4.6090   -3.0430   25.2160 O   0  0  0  0  0  0  0  0  0  0  0  0
    6.3850   -3.3070   26.6600 N   0  0  0  0  0  0  0  0  0  0  0  0
    5.7580   -3.8890   27.8670 C   0  0  1  0  0  0  0  0  0  0  0  0
    6.6280   -4.8340   28.6300 C   0  0  0  0  0  0  0  0  0  0  0  0
    5.2560   -2.8170   28.7610 C   0  0  0  0  0  0  0  0  0  0  0  0
    4.0610   -2.9100   29.4020 C   0  0  0  0  0  0  0  0  0  0  0  0
    3.8070   -1.8240   30.1590 C   0  0  0  0  0  0  0  0  0  0  0  0
    4.9890   -1.0440   29.9130 N   0  0  0  0  0  0  0  0  0  0  0  0
    5.8450   -1.6380   29.0820 N   0  0  0  0  0  0  0  0  0  0  0  0
    7.1480   -1.1730   28.5870 C   0  0  0  0  0  0  0  0  0  0  0  0
    5.7180   -4.8870   23.4100 C   0  0  0  0  0  0  0  0  0  0  0  0
    6.4030   -5.2640   22.2960 C   0  0  0  0  0  0  0  0  0  0  0  0
  1  2  1  0
  2  3  2  0
  2  4  1  0
  4  5  1  0
  5  6  1  0
  6  7  1  0
  7  8  1  0
  8  9  2  0
  8 10  1  0
 10 11  1  0
 11 12  1  1
 11 13  1  0
 13 14  2  0
 14 15  1  0
 15 16  2  0
 13 17  1  0
 16 17  1  0
 17 18  1  0
  7 19  1  0
  4 20  1  0
 19 20  1  0
M  END
