piperidine-amides-24158-covalent
     RDKit          3D

 24 26  0  0  0  0  0  0  0  0999 V2000
    7.0000   -3.3660   19.4280 C   0  0  0  0  0  0  0  0  0  0  0  0
    6.3590   -4.2690   20.4040 C   0  0  0  0  0  0  0  0  0  0  0  0
    5.4180   -4.9980   20.0150 O   0  0  0  0  0  0  0  0  0  0  0  0
    6.7970   -4.3490   21.7460 N   0  0  0  0  0  0  0  0  0  0  0  0
    6.6830   -5.6260   22.4440 C   0  0  0  0  0  0  0  0  0  0  0  0
    6.2040   -5.3570   23.8860 C   0  0  0  0  0  0  0  0  0  0  0  0
    6.1760   -3.8600   24.0040 C   0  0  0  0  0  0  0  0  0  0  0  0
    5.5930   -3.2910   25.2590 C   0  0  0  0  0  0  0  0  0  0  0  0
    5.0850   -2.1650   25.1210 O   0  0  0  0  0  0  0  0  0  0  0  0
    5.5250   -3.8840   26.5640 N   0  0  0  0  0  0  0  0  0  0  0  0
    6.3660   -3.2970   27.5530 C   0  0  0  0  0  0  0  0  0  0  0  0
    6.8110   -4.3760   28.5130 C   0  0  0  0  0  0  0  0  0  0  0  0
    5.7240   -4.4580   29.3240 O   0  0  0  0  0  0  0  0  0  0  0  0
    4.5990   -4.6420   28.6340 C   0  0  2  0  0  0  0  0  0  0  0  0
    4.3560   -5.9500   28.2910 C   0  0  0  0  0  0  0  0  0  0  0  0
    4.0890   -6.6640   29.4940 N   0  0  0  0  0  0  0  0  0  0  0  0
    2.9570   -7.4230   29.9030 C   0  0  0  0  0  0  0  0  0  0  0  0
    3.3440   -7.8000   31.1000 C   0  0  0  0  0  0  0  0  0  0  0  0
    3.1930   -8.5060   32.4320 C   0  0  0  0  0  0  0  0  0  0  0  0
    4.6280   -7.3450   31.4770 C   0  0  0  0  0  0  0  0  0  0  0  0
    5.1230   -6.6050   30.4410 N   0  0  0  0  0  0  0  0  0  0  0  0
    4.4580   -3.7650   27.5790 C   0  0  0  0  0  0  0  0  0  0  0  0
    7.5410   -3.3090   23.7040 C   0  0  0  0  0  0  0  0  0  0  0  0
    7.6570   -3.3070   22.3030 C   0  0  0  0  0  0  0  0  0  0  0  0
  1  2  1  0
  2  3  2  0
  2  4  1  0
  4  5  1  0
  5  6  1  0
  6  7  1  0
  7  8  1  0
  8  9  2  0
  8 10  1  0
 10 11  1  0
 11 12  1  0
 12 13  1  0
 13 14  1  0
 14 15  1  6
 15 16  1  0
 16 17  1  0
 17 18  2  0
 18 19  1  0
 18 20  1  0
 16 21  1  0
 20 21  2  0
 10 22  1  0
 14 22  1  0
  7 23  1  0
  4 24  1  0
 23 24  1  0
M  END
