piperidine-amides-14860-covalent
     RDKit          3D

 22 23  0  0  0  0  0  0  0  0999 V2000
    7.1030   -3.2640   19.1920 C   0  0  0  0  0  0  0  0  0  0  0  0
    6.3440   -4.0010   20.2030 C   0  0  0  0  0  0  0  0  0  0  0  0
    5.2740   -4.5340   19.8700 O   0  0  0  0  0  0  0  0  0  0  0  0
    6.8510   -4.1350   21.5110 N   0  0  0  0  0  0  0  0  0  0  0  0
    7.7280   -3.1250   22.0410 C   0  0  0  0  0  0  0  0  0  0  0  0
    7.4540   -2.8960   23.4930 C   0  0  0  0  0  0  0  0  0  0  0  0
    6.1320   -3.5590   23.7950 C   0  0  0  0  0  0  0  0  0  0  0  0
    5.8410   -3.4110   25.2470 C   0  0  0  0  0  0  0  0  0  0  0  0
    4.7040   -3.0410   25.5450 O   0  0  0  0  0  0  0  0  0  0  0  0
    6.8700   -3.7020   26.1330 N   0  0  0  0  0  0  0  0  0  0  0  0
    6.6030   -4.1070   27.4650 C   0  0  1  0  0  0  0  0  0  0  0  0
    6.8020   -5.4800   27.6830 C   0  0  0  0  0  0  0  0  0  0  0  0
    5.7200   -6.1830   28.1640 C   0  0  0  0  0  0  0  0  0  0  0  0
    4.9830   -6.8650   27.2240 O   0  0  0  0  0  0  0  0  0  0  0  0
    5.4310   -6.1630   29.5370 O   0  0  0  0  0  0  0  0  0  0  0  0
    5.2660   -7.4240   30.1990 C   0  0  0  0  0  0  0  0  0  0  0  0
    5.4850   -7.5700   31.6730 C   0  0  0  0  0  0  0  0  0  0  0  0
    7.4050   -3.1750   28.2250 C   0  0  0  0  0  0  0  0  0  0  0  0
    6.8770   -2.2040   29.0240 C   0  0  0  0  0  0  0  0  0  0  0  0
    7.7550   -1.7270   27.8230 C   0  0  0  0  0  0  0  0  0  0  0  0
    6.0190   -4.9880   23.4750 C   0  0  0  0  0  0  0  0  0  0  0  0
    6.6150   -5.3270   22.2910 C   0  0  0  0  0  0  0  0  0  0  0  0
  1  2  1  0
  2  3  2  0
  2  4  1  0
  4  5  1  0
  5  6  1  0
  6  7  1  0
  7  8  1  0
  8  9  2  0
  8 10  1  0
 10 11  1  0
 11 12  1  6
 12 13  1  0
 13 14  2  0
 13 15  1  0
 15 16  1  0
 16 17  1  0
 11 18  1  0
 18 19  1  0
 18 20  1  0
 19 20  1  0
  7 21  1  0
  4 22  1  0
 21 22  1  0
M  END
