piperidine-amides-4954-covalent
     RDKit          3D

 23 25  0  0  0  0  0  0  0  0999 V2000
    7.0940   -3.3370   19.3430 C   0  0  0  0  0  0  0  0  0  0  0  0
    6.3600   -4.1410   20.3410 C   0  0  0  0  0  0  0  0  0  0  0  0
    5.3260   -4.7110   19.9420 O   0  0  0  0  0  0  0  0  0  0  0  0
    6.8450   -4.2870   21.6530 N   0  0  0  0  0  0  0  0  0  0  0  0
    7.6540   -3.2590   22.2200 C   0  0  0  0  0  0  0  0  0  0  0  0
    7.2540   -2.9240   23.5770 C   0  0  0  0  0  0  0  0  0  0  0  0
    5.9950   -3.5810   23.9740 C   0  0  0  0  0  0  0  0  0  0  0  0
    5.6160   -3.1930   25.3550 C   0  0  0  0  0  0  0  0  0  0  0  0
    4.4090   -3.1740   25.6490 O   0  0  0  0  0  0  0  0  0  0  0  0
    6.5930   -2.8560   26.3000 N   0  0  0  0  0  0  0  0  0  0  0  0
    6.5340   -1.6470   27.1510 C   0  0  0  0  0  0  0  0  0  0  0  0
    5.9140   -0.4330   26.5880 C   0  0  0  0  0  0  0  0  0  0  0  0
    5.8250    0.7820   27.3830 C   0  0  0  0  0  0  0  0  0  0  0  0
    6.3310    0.7820   28.6770 C   0  0  0  0  0  0  0  0  0  0  0  0
    6.2690    1.9090   29.4760 C   0  0  0  0  0  0  0  0  0  0  0  0
    7.0970    2.1380   30.5950 N   0  0  0  0  0  0  0  0  0  0  0  0
    6.6840    3.3070   31.0350 C   0  0  0  0  0  0  0  0  0  0  0  0
    5.6240    3.8600   30.2610 N   0  0  0  0  0  0  0  0  0  0  0  0
    5.3940    2.9400   29.2830 N   0  0  0  0  0  0  0  0  0  0  0  0
    6.9110   -0.3840   29.1720 C   0  0  0  0  0  0  0  0  0  0  0  0
    7.0150   -1.5470   28.4580 C   0  0  0  0  0  0  0  0  0  0  0  0
    6.0660   -5.0810   23.7880 C   0  0  0  0  0  0  0  0  0  0  0  0
    6.6140   -5.4730   22.4520 C   0  0  0  0  0  0  0  0  0  0  0  0
  1  2  1  0
  2  3  2  0
  2  4  1  0
  4  5  1  0
  5  6  1  0
  6  7  1  0
  7  8  1  0
  8  9  2  0
  8 10  1  0
 10 11  1  0
 11 12  2  0
 12 13  1  0
 13 14  2  0
 14 15  1  0
 15 16  2  0
 16 17  1  0
 17 18  2  0
 15 19  1  0
 18 19  1  0
 14 20  1  0
 11 21  1  0
 20 21  2  0
  7 22  1  0
  4 23  1  0
 22 23  1  0
M  END
