piperidine-amides-24833-covalent
     RDKit          3D

 24 25  0  0  0  0  0  0  0  0999 V2000
    7.0860   -3.3490   19.3290 C   0  0  0  0  0  0  0  0  0  0  0  0
    6.4210   -4.2150   20.3080 C   0  0  0  0  0  0  0  0  0  0  0  0
    5.3810   -4.8330   19.9830 O   0  0  0  0  0  0  0  0  0  0  0  0
    6.9820   -4.4010   21.5820 N   0  0  0  0  0  0  0  0  0  0  0  0
    6.6280   -5.5760   22.3290 C   0  0  0  0  0  0  0  0  0  0  0  0
    5.7270   -5.0820   23.4650 C   0  0  0  0  0  0  0  0  0  0  0  0
    6.4610   -3.9910   24.2300 C   0  0  0  0  0  0  0  0  0  0  0  0
    5.5270   -3.4420   25.2330 C   0  0  0  0  0  0  0  0  0  0  0  0
    4.7240   -2.5550   24.8910 O   0  0  0  0  0  0  0  0  0  0  0  0
    5.5680   -3.9510   26.5400 N   0  0  0  0  0  0  0  0  0  0  0  0
    6.7720   -4.4870   26.9270 C   0  0  0  0  0  0  0  0  0  0  0  0
    6.5170   -5.5280   27.9250 C   0  0  0  0  0  0  0  0  0  0  0  0
    5.6030   -6.5230   27.7100 C   0  0  0  0  0  0  0  0  0  0  0  0
    7.8610   -6.1400   28.1930 C   0  0  0  0  0  0  0  0  0  0  0  0
    6.1690   -4.8510   29.1170 C   0  0  0  0  0  0  0  0  0  0  0  0
    5.4120   -3.7020   29.0080 C   0  0  0  0  0  0  0  0  0  0  0  0
    4.9240   -3.2130   27.6350 C   0  0  1  0  0  0  0  0  0  0  0  0
    5.7260   -2.1800   28.4020 C   0  0  0  0  0  0  0  0  0  0  0  0
    4.9470   -1.0080   28.9110 C   0  0  0  0  0  0  0  0  0  0  0  0
    4.9630   -0.8260   30.2040 O   0  0  0  0  0  0  0  0  0  0  0  0
    4.2340   -0.1500   28.0720 O   0  0  0  0  0  0  0  0  0  0  0  0
    4.0700   -0.5440   26.7230 C   0  0  0  0  0  0  0  0  0  0  0  0
    6.8610   -2.8680   23.3150 C   0  0  0  0  0  0  0  0  0  0  0  0
    7.5730   -3.2880   22.2390 C   0  0  0  0  0  0  0  0  0  0  0  0
  1  2  1  0
  2  3  2  0
  2  4  1  0
  4  5  1  0
  5  6  1  0
  6  7  1  0
  7  8  1  0
  8  9  2  0
  8 10  1  0
 10 11  1  0
 11 12  1  0
 12 13  1  0
 12 14  1  0
 12 15  1  0
 15 16  1  0
 10 17  1  0
 16 17  1  0
 17 18  1  6
 18 19  1  0
 19 20  2  0
 19 21  1  0
 21 22  1  0
  7 23  1  0
  4 24  1  0
 23 24  1  0
M  END
