piperidine-amides-19321-covalent
     RDKit          3D

 20 21  0  0  0  0  0  0  0  0999 V2000
    6.9760   -3.4170   19.4250 C   0  0  0  0  0  0  0  0  0  0  0  0
    6.3210   -4.2340   20.4310 C   0  0  0  0  0  0  0  0  0  0  0  0
    5.3920   -4.9900   20.0110 O   0  0  0  0  0  0  0  0  0  0  0  0
    6.6700   -4.2740   21.8070 N   0  0  0  0  0  0  0  0  0  0  0  0
    6.6330   -5.6320   22.4240 C   0  0  0  0  0  0  0  0  0  0  0  0
    6.2210   -5.3800   23.9370 C   0  0  0  0  0  0  0  0  0  0  0  0
    6.1590   -3.8900   24.1490 C   0  0  0  0  0  0  0  0  0  0  0  0
    5.4640   -3.3910   25.5250 C   0  0  0  0  0  0  0  0  0  0  0  0
    4.7030   -2.4770   25.2530 O   0  0  0  0  0  0  0  0  0  0  0  0
    5.8500   -4.0480   26.5750 N   0  0  0  0  0  0  0  0  0  0  0  0
    6.2720   -5.0210   27.4450 C   0  0  0  0  0  0  0  0  0  0  0  0
    5.9160   -5.9920   28.3320 C   0  0  0  0  0  0  0  0  0  0  0  0
    5.0640   -5.4480   29.3840 N   0  0  0  0  0  0  0  0  0  0  0  0
    3.9350   -4.3260   28.7930 S   0  0  0  0  0  0  0  0  0  0  0  0
    2.9410   -3.9960   29.8310 O   0  0  0  0  0  0  0  0  0  0  0  0
    3.3290   -4.9740   27.5880 O   0  0  0  0  0  0  0  0  0  0  0  0
    4.8240   -2.9170   28.3330 C   0  0  0  0  0  0  0  0  0  0  0  0
    6.1410   -3.1450   27.7160 C   0  0  0  0  0  0  0  0  0  0  0  0
    7.4190   -3.1370   23.7430 C   0  0  0  0  0  0  0  0  0  0  0  0
    7.5940   -3.2910   22.3600 C   0  0  0  0  0  0  0  0  0  0  0  0
  1  2  1  0
  2  3  2  0
  2  4  1  0
  4  5  1  0
  5  6  1  0
  6  7  1  0
  7  8  1  0
  8  9  2  0
  8 10  1  0
 10 11  1  0
 11 12  1  0
 12 13  1  0
 14 13  1  0
 14 15  2  0
 14 16  2  0
 14 17  1  0
 10 18  1  0
 17 18  1  0
  7 19  1  0
  4 20  1  0
 19 20  1  0
M  END
