piperidine-amides-12857-covalent
     RDKit          3D

 21 21  0  0  0  0  0  0  0  0999 V2000
    7.0940   -3.3170   19.2650 C   0  0  0  0  0  0  0  0  0  0  0  0
    6.3530   -4.0700   20.3040 C   0  0  0  0  0  0  0  0  0  0  0  0
    5.3030   -4.6190   19.9170 O   0  0  0  0  0  0  0  0  0  0  0  0
    6.8270   -4.2010   21.6250 N   0  0  0  0  0  0  0  0  0  0  0  0
    7.6530   -3.1790   22.1970 C   0  0  0  0  0  0  0  0  0  0  0  0
    7.3380   -2.9020   23.5980 C   0  0  0  0  0  0  0  0  0  0  0  0
    6.0930   -3.5560   24.0350 C   0  0  0  0  0  0  0  0  0  0  0  0
    5.6680   -3.1580   25.4150 C   0  0  0  0  0  0  0  0  0  0  0  0
    4.6440   -2.4550   25.4940 O   0  0  0  0  0  0  0  0  0  0  0  0
    6.3370   -3.5300   26.6060 N   0  0  0  0  0  0  0  0  0  0  0  0
    5.6880   -4.4170   27.6040 C   0  0  2  0  0  0  0  0  0  0  0  0
    6.5650   -4.9320   28.6840 C   0  0  0  0  0  0  0  0  0  0  0  0
    6.0970   -5.2540   29.8060 O   0  0  0  0  0  0  0  0  0  0  0  0
    5.8750   -6.5350   29.9380 C   0  0  0  0  0  0  0  0  0  0  0  0
    5.2550   -5.5410   26.8270 C   0  0  0  0  0  0  0  0  0  0  0  0
    3.9010   -5.7870   26.6960 C   0  0  0  0  0  0  0  0  0  0  0  0
    3.2600   -4.8200   25.9770 C   0  0  0  0  0  0  0  0  0  0  0  0
    3.9120   -7.2520   26.4520 C   0  0  0  0  0  0  0  0  0  0  0  0
    3.1730   -5.6700   27.8520 C   0  0  0  0  0  0  0  0  0  0  0  0
    6.1610   -5.0470   23.7950 C   0  0  0  0  0  0  0  0  0  0  0  0
    6.6080   -5.4000   22.4150 C   0  0  0  0  0  0  0  0  0  0  0  0
  1  2  1  0
  2  3  2  0
  2  4  1  0
  4  5  1  0
  5  6  1  0
  6  7  1  0
  7  8  1  0
  8  9  2  0
  8 10  1  0
 10 11  1  0
 11 12  1  1
 12 13  1  0
 13 14  1  0
 11 15  1  0
 16 15  1  0
 16 17  1  0
 16 18  1  0
 16 19  1  0
  7 20  1  0
  4 21  1  0
 20 21  1  0
M  END
