piperidine-amides-25107-covalent
     RDKit          3D

 25 27  0  0  0  0  0  0  0  0999 V2000
    7.0160   -3.3150   19.3090 C   0  0  0  0  0  0  0  0  0  0  0  0
    6.2800   -4.1870   20.2680 C   0  0  0  0  0  0  0  0  0  0  0  0
    5.2270   -4.6740   19.8950 O   0  0  0  0  0  0  0  0  0  0  0  0
    6.8080   -4.4580   21.5190 N   0  0  0  0  0  0  0  0  0  0  0  0
    6.4270   -5.6330   22.2720 C   0  0  0  0  0  0  0  0  0  0  0  0
    5.7120   -5.2270   23.5400 C   0  0  0  0  0  0  0  0  0  0  0  0
    6.4880   -4.0860   24.1900 C   0  0  0  0  0  0  0  0  0  0  0  0
    5.7500   -3.5150   25.3230 C   0  0  0  0  0  0  0  0  0  0  0  0
    4.5100   -3.4610   25.3080 O   0  0  0  0  0  0  0  0  0  0  0  0
    6.4660   -3.0160   26.4180 N   0  0  0  0  0  0  0  0  0  0  0  0
    7.9050   -3.0950   26.3910 C   0  0  0  0  0  0  0  0  0  0  0  0
    8.3750   -2.5600   25.0440 C   0  0  0  0  0  0  0  0  0  0  0  0
    8.1840   -1.3930   24.3400 C   0  0  0  0  0  0  0  0  0  0  0  0
    8.8520   -1.4350   23.1740 C   0  0  0  0  0  0  0  0  0  0  0  0
    9.4620   -2.6310   23.1300 C   0  0  0  0  0  0  0  0  0  0  0  0
    9.2010   -3.3640   24.2550 O   0  0  0  0  0  0  0  0  0  0  0  0
    6.4720   -1.7520   27.1220 C   0  0  0  0  0  0  0  0  0  0  0  0
    7.1380   -1.8070   28.4720 C   0  0  0  0  0  0  0  0  0  0  0  0
    7.1590   -0.5050   29.2770 C   0  0  0  0  0  0  0  0  0  0  0  0
    6.5470    0.7630   28.7360 C   0  0  0  0  0  0  0  0  0  0  0  0
    6.5630    2.0360   29.5180 C   0  0  0  0  0  0  0  0  0  0  0  0
    5.9170    0.7390   27.3990 C   0  0  0  0  0  0  0  0  0  0  0  0
    5.8540   -0.4630   26.5710 C   0  0  0  0  0  0  0  0  0  0  0  0
    6.6650   -2.9800   23.1750 C   0  0  0  0  0  0  0  0  0  0  0  0
    7.5230   -3.4200   22.2140 C   0  0  0  0  0  0  0  0  0  0  0  0
  1  2  1  0
  2  3  2  0
  2  4  1  0
  4  5  1  0
  5  6  1  0
  6  7  1  0
  7  8  1  0
  8  9  2  0
  8 10  1  0
 10 11  1  0
 11 12  1  0
 12 13  2  0
 13 14  1  0
 14 15  2  0
 12 16  1  0
 15 16  1  0
 10 17  1  0
 17 18  2  0
 18 19  1  0
 19 20  2  0
 20 21  1  0
 20 22  1  0
 17 23  1  0
 22 23  2  0
  7 24  1  0
  4 25  1  0
 24 25  1  0
M  END
