piperidine-amides-12838-covalent
     RDKit          3D

 21 23  0  0  0  0  0  0  0  0999 V2000
    7.0810   -3.3250   19.3000 C   0  0  0  0  0  0  0  0  0  0  0  0
    6.3930   -4.1490   20.3150 C   0  0  0  0  0  0  0  0  0  0  0  0
    5.3580   -4.7460   19.9540 O   0  0  0  0  0  0  0  0  0  0  0  0
    6.9290   -4.2770   21.6030 N   0  0  0  0  0  0  0  0  0  0  0  0
    6.6580   -5.4470   22.3710 C   0  0  0  0  0  0  0  0  0  0  0  0
    6.1290   -5.1290   23.6920 C   0  0  0  0  0  0  0  0  0  0  0  0
    6.1160   -3.6780   23.9620 C   0  0  0  0  0  0  0  0  0  0  0  0
    5.7140   -3.3730   25.3450 C   0  0  0  0  0  0  0  0  0  0  0  0
    4.5870   -3.7400   25.7150 O   0  0  0  0  0  0  0  0  0  0  0  0
    6.5550   -2.6690   26.2180 N   0  0  0  0  0  0  0  0  0  0  0  0
    5.9810   -1.6390   27.1000 C   0  0  2  0  0  0  0  0  0  0  0  0
    5.8610   -0.3200   26.4430 C   0  0  0  0  0  0  0  0  0  0  0  0
    6.1260    0.6600   27.4690 C   0  0  0  0  0  0  0  0  0  0  0  0
    6.4890   -0.0060   28.6250 C   0  0  1  0  0  0  0  0  0  0  0  0
    5.8150    0.2680   29.7640 C   0  0  0  0  0  0  0  0  0  0  0  0
    5.4070   -0.9920   30.2720 N   0  0  0  0  0  0  0  0  0  0  0  0
    4.3580   -1.2050   31.0900 C   0  0  0  0  0  0  0  0  0  0  0  0
    5.7540   -2.0530   29.3880 C   0  0  0  0  0  0  0  0  0  0  0  0
    6.4710   -1.4040   28.3960 C   0  0  1  0  0  0  0  0  0  0  0  0
    7.4360   -3.0580   23.6150 C   0  0  0  0  0  0  0  0  0  0  0  0
    7.7710   -3.2400   22.1880 C   0  0  0  0  0  0  0  0  0  0  0  0
  1  2  1  0
  2  3  2  0
  2  4  1  0
  4  5  1  0
  5  6  1  0
  6  7  1  0
  7  8  1  0
  8  9  2  0
  8 10  1  0
 11 10  1  6
 11 12  1  0
 12 13  1  0
 14 13  1  6
 14 15  1  0
 15 16  1  0
 16 17  1  0
 16 18  1  0
 11 19  1  0
 14 19  1  0
 19 18  1  1
  7 20  1  0
  4 21  1  0
 20 21  1  0
M  END
