piperidine-amides-8984-covalent
     RDKit          3D

 21 22  0  0  0  0  0  0  0  0999 V2000
    7.1340   -3.2620   19.1660 C   0  0  0  0  0  0  0  0  0  0  0  0
    6.3650   -3.9970   20.1720 C   0  0  0  0  0  0  0  0  0  0  0  0
    5.2750   -4.5020   19.8600 O   0  0  0  0  0  0  0  0  0  0  0  0
    6.8590   -4.1980   21.4650 N   0  0  0  0  0  0  0  0  0  0  0  0
    6.6610   -5.4360   22.1750 C   0  0  0  0  0  0  0  0  0  0  0  0
    5.7910   -5.0590   23.3330 C   0  0  0  0  0  0  0  0  0  0  0  0
    5.9440   -3.6070   23.6720 C   0  0  0  0  0  0  0  0  0  0  0  0
    5.5660   -3.3280   25.0570 C   0  0  0  0  0  0  0  0  0  0  0  0
    4.5690   -2.6070   25.3510 O   0  0  0  0  0  0  0  0  0  0  0  0
    6.3290   -3.8690   26.0810 N   0  0  0  0  0  0  0  0  0  0  0  0
    5.7350   -4.4010   27.3100 C   0  0  1  0  0  0  0  0  0  0  0  0
    4.2970   -4.6320   27.0340 C   0  0  0  0  0  0  0  0  0  0  0  0
    3.4000   -3.6410   27.1990 C   0  0  0  0  0  0  0  0  0  0  0  0
    3.3770   -4.7070   28.3150 C   0  0  0  0  0  0  0  0  0  0  0  0
    6.2220   -5.5790   27.8950 C   0  0  0  0  0  0  0  0  0  0  0  0
    5.3380   -6.7360   27.6170 C   0  0  0  0  0  0  0  0  0  0  0  0
    7.5990   -5.8590   27.2700 C   0  0  0  0  0  0  0  0  0  0  0  0
    6.4800   -5.3620   29.1940 C   0  0  0  0  0  0  0  0  0  0  0  0
    5.5620   -6.0320   29.9960 O   0  0  0  0  0  0  0  0  0  0  0  0
    7.3850   -3.1030   23.5230 C   0  0  0  0  0  0  0  0  0  0  0  0
    7.6950   -3.1590   22.0320 C   0  0  0  0  0  0  0  0  0  0  0  0
  1  2  1  0
  2  3  2  0
  2  4  1  0
  4  5  1  0
  5  6  1  0
  6  7  1  0
  7  8  1  0
  8  9  2  0
  8 10  1  0
 11 10  1  6
 11 12  1  0
 12 13  1  0
 12 14  1  0
 13 14  1  0
 11 15  1  0
 15 16  1  0
 15 17  1  0
 15 18  1  0
 18 19  1  0
  7 20  1  0
  4 21  1  0
 20 21  1  0
M  END
