piperidine-amides-14784-covalent
     RDKit          3D

 22 23  0  0  0  0  0  0  0  0999 V2000
    7.0660   -3.2730   19.2450 C   0  0  0  0  0  0  0  0  0  0  0  0
    6.3360   -4.0480   20.2510 C   0  0  0  0  0  0  0  0  0  0  0  0
    5.2870   -4.6140   19.9010 O   0  0  0  0  0  0  0  0  0  0  0  0
    6.8280   -4.1900   21.5710 N   0  0  0  0  0  0  0  0  0  0  0  0
    7.6550   -3.1630   22.1600 C   0  0  0  0  0  0  0  0  0  0  0  0
    6.9990   -2.6230   23.3960 C   0  0  0  0  0  0  0  0  0  0  0  0
    6.6450   -3.8240   24.2370 C   0  0  0  0  0  0  0  0  0  0  0  0
    5.7850   -3.3930   25.3940 C   0  0  0  0  0  0  0  0  0  0  0  0
    4.5930   -3.2230   25.1500 O   0  0  0  0  0  0  0  0  0  0  0  0
    6.3810   -3.2010   26.6480 N   0  0  0  0  0  0  0  0  0  0  0  0
    6.0390   -3.9600   27.8200 C   0  0  0  0  0  0  0  0  0  0  0  0
    5.3250   -5.1510   27.5910 C   0  0  1  0  0  0  0  0  0  0  0  0
    5.9080   -6.2360   27.0000 C   0  0  0  0  0  0  0  0  0  0  0  0
    4.7870   -5.4740   28.9280 N   0  0  0  0  0  0  0  0  0  0  0  0
    5.4380   -6.4500   29.7100 C   0  0  0  0  0  0  0  0  0  0  0  0
    4.7680   -6.7770   31.0140 C   0  0  0  0  0  0  0  0  0  0  0  0
    3.5240   -7.2050   30.7140 N   0  0  0  0  0  0  0  0  0  0  0  0
    2.7880   -8.0770   31.4370 C   0  0  0  0  0  0  0  0  0  0  0  0
    2.8710   -6.7090   29.5510 C   0  0  0  0  0  0  0  0  0  0  0  0
    3.3580   -5.3860   29.0470 C   0  0  0  0  0  0  0  0  0  0  0  0
    5.9190   -4.8980   23.5330 C   0  0  0  0  0  0  0  0  0  0  0  0
    6.5140   -5.3430   22.3800 C   0  0  0  0  0  0  0  0  0  0  0  0
  1  2  1  0
  2  3  2  0
  2  4  1  0
  4  5  1  0
  5  6  1  0
  6  7  1  0
  7  8  1  0
  8  9  2  0
  8 10  1  0
 10 11  1  0
 11 12  1  0
 12 13  1  1
 12 14  1  0
 14 15  1  0
 15 16  1  0
 16 17  1  0
 17 18  1  0
 17 19  1  0
 14 20  1  0
 19 20  1  0
  7 21  1  0
  4 22  1  0
 21 22  1  0
M  END
