piperidine-amides-126-covalent
     RDKit          3D

 22 24  0  0  0  0  0  0  0  0999 V2000
    7.1480   -3.2850   19.3410 C   0  0  0  0  0  0  0  0  0  0  0  0
    6.3980   -4.0760   20.2920 C   0  0  0  0  0  0  0  0  0  0  0  0
    5.3150   -4.6200   19.9100 O   0  0  0  0  0  0  0  0  0  0  0  0
    6.8510   -4.2960   21.6060 N   0  0  0  0  0  0  0  0  0  0  0  0
    6.3920   -5.5130   22.3060 C   0  0  0  0  0  0  0  0  0  0  0  0
    5.4330   -4.8380   23.3520 C   0  0  0  0  0  0  0  0  0  0  0  0
    6.3520   -3.9800   24.1880 C   0  0  0  0  0  0  0  0  0  0  0  0
    5.6470   -3.4140   25.5050 C   0  0  0  0  0  0  0  0  0  0  0  0
    5.1540   -2.3150   25.2900 O   0  0  0  0  0  0  0  0  0  0  0  0
    5.7700   -4.2660   26.4560 N   0  0  0  0  0  0  0  0  0  0  0  0
    5.8470   -5.1680   27.4910 C   0  0  0  0  0  0  0  0  0  0  0  0
    5.1510   -6.0990   28.2280 C   0  0  2  0  0  0  0  0  0  0  0  0
    4.2380   -6.7160   27.5830 C   0  0  0  0  0  0  0  0  0  0  0  0
    3.6030   -5.7490   28.5680 C   0  0  1  0  0  0  0  0  0  0  0  0
    3.9360   -6.4210   29.9210 C   0  0  0  0  0  0  0  0  0  0  0  0
    3.0100   -7.4430   29.6900 C   0  0  0  0  0  0  0  0  0  0  0  0
    2.5560   -8.0010   30.8840 C   0  0  0  0  0  0  0  0  0  0  0  0
    3.6430   -7.9880   31.7010 O   0  0  0  0  0  0  0  0  0  0  0  0
    4.4600   -6.8900   31.4770 C   0  0  0  0  0  0  0  0  0  0  0  0
    3.6280   -5.5850   31.1450 C   0  0  0  0  0  0  0  0  0  0  0  0
    6.9460   -2.8350   23.3440 C   0  0  0  0  0  0  0  0  0  0  0  0
    7.6910   -3.3440   22.3140 C   0  0  0  0  0  0  0  0  0  0  0  0
  1  2  1  0
  2  3  2  0
  2  4  1  0
  4  5  1  0
  5  6  1  0
  6  7  1  0
  7  8  1  0
  8  9  2  0
  8 10  1  0
 10 11  1  0
 12 11  1  6
 12 13  1  0
 12 14  1  0
 13 14  1  0
 14 15  1  1
 15 16  1  0
 16 17  1  0
 17 18  1  0
 18 19  1  0
 15 20  1  0
 19 20  1  0
  7 21  1  0
  4 22  1  0
 21 22  1  0
M  END
