piperidine-amides-32586-covalent
     RDKit          3D

 24 25  0  0  0  0  0  0  0  0999 V2000
    7.0610   -3.3250   19.3400 C   0  0  0  0  0  0  0  0  0  0  0  0
    6.3680   -4.1860   20.3380 C   0  0  0  0  0  0  0  0  0  0  0  0
    5.3700   -4.8340   19.9770 O   0  0  0  0  0  0  0  0  0  0  0  0
    6.8760   -4.2850   21.6520 N   0  0  0  0  0  0  0  0  0  0  0  0
    7.6840   -3.2420   22.2560 C   0  0  0  0  0  0  0  0  0  0  0  0
    6.8230   -2.5970   23.3470 C   0  0  0  0  0  0  0  0  0  0  0  0
    6.0290   -3.7070   23.9450 C   0  0  0  0  0  0  0  0  0  0  0  0
    5.5740   -3.4730   25.3450 C   0  0  0  0  0  0  0  0  0  0  0  0
    4.3450   -3.4310   25.4740 O   0  0  0  0  0  0  0  0  0  0  0  0
    6.4300   -3.2920   26.4490 N   0  0  0  0  0  0  0  0  0  0  0  0
    6.4410   -2.0280   27.1620 C   0  0  0  0  0  0  0  0  0  0  0  0
    6.0320   -0.8280   26.5940 C   0  0  0  0  0  0  0  0  0  0  0  0
    6.0240    0.4030   27.2770 C   0  0  0  0  0  0  0  0  0  0  0  0
    6.4420    0.4490   28.5830 C   0  0  0  0  0  0  0  0  0  0  0  0
    6.4420    2.0750   29.5430 Br  0  0  0  0  0  0  0  0  0  0  0  0
    6.8910   -0.8120   29.2130 C   0  0  0  0  0  0  0  0  0  0  0  0
    6.8580   -1.9950   28.4450 N   0  0  0  0  0  0  0  0  0  0  0  0
    6.6370   -4.3820   27.4560 C   0  0  1  0  0  0  0  0  0  0  0  0
    5.3730   -5.1430   27.8000 C   0  0  0  0  0  0  0  0  0  0  0  0
    5.5850   -6.1690   28.7110 C   0  0  0  0  0  0  0  0  0  0  0  0
    7.5390   -5.5570   27.1170 C   0  0  0  0  0  0  0  0  0  0  0  0
    7.9140   -5.4500   25.9390 O   0  0  0  0  0  0  0  0  0  0  0  0
    6.6300   -5.0650   23.7820 C   0  0  0  0  0  0  0  0  0  0  0  0
    6.5850   -5.4340   22.4610 C   0  0  0  0  0  0  0  0  0  0  0  0
  1  2  1  0
  2  3  2  0
  2  4  1  0
  4  5  1  0
  5  6  1  0
  6  7  1  0
  7  8  1  0
  8  9  2  0
  8 10  1  0
 10 11  1  0
 11 12  2  0
 12 13  1  0
 13 14  2  0
 14 15  1  0
 14 16  1  0
 11 17  1  0
 16 17  2  0
 10 18  1  0
 18 19  1  6
 19 20  1  0
 18 21  1  0
 21 22  1  0
  7 23  1  0
  4 24  1  0
 23 24  1  0
M  END
