piperidine-amides-3105-covalent
     RDKit          3D

 23 24  0  0  0  0  0  0  0  0999 V2000
    7.0310   -3.3480   19.3450 C   0  0  0  0  0  0  0  0  0  0  0  0
    6.3450   -4.1930   20.3230 C   0  0  0  0  0  0  0  0  0  0  0  0
    5.3770   -4.8720   19.9800 O   0  0  0  0  0  0  0  0  0  0  0  0
    6.8170   -4.2590   21.6750 N   0  0  0  0  0  0  0  0  0  0  0  0
    7.7080   -3.2280   22.1470 C   0  0  0  0  0  0  0  0  0  0  0  0
    7.4210   -2.9100   23.5700 C   0  0  0  0  0  0  0  0  0  0  0  0
    6.1010   -3.5660   23.9320 C   0  0  0  0  0  0  0  0  0  0  0  0
    5.7960   -3.1440   25.3190 C   0  0  0  0  0  0  0  0  0  0  0  0
    4.6860   -3.2930   25.8680 O   0  0  0  0  0  0  0  0  0  0  0  0
    6.8740   -2.5320   25.9870 N   0  0  0  0  0  0  0  0  0  0  0  0
    6.6780   -1.5600   27.0310 C   0  0  0  0  0  0  0  0  0  0  0  0
    6.0110   -0.2950   26.5570 C   0  0  0  0  0  0  0  0  0  0  0  0
    5.7710    0.7390   27.4500 C   0  0  0  0  0  0  0  0  0  0  0  0
    6.1610    0.5840   28.7930 C   0  0  0  0  0  0  0  0  0  0  0  0
    5.9230    1.6290   29.7020 O   0  0  0  0  0  0  0  0  0  0  0  0
    5.7010    1.3360   31.0700 C   0  0  0  0  0  0  0  0  0  0  0  0
    4.6890    2.2270   31.6240 C   0  0  0  0  0  0  0  0  0  0  0  0
    3.4030    1.8080   31.8690 C   0  0  0  0  0  0  0  0  0  0  0  0
    3.1970    0.9160   32.9130 O   0  0  0  0  0  0  0  0  0  0  0  0
    6.7640   -0.5870   29.1830 C   0  0  0  0  0  0  0  0  0  0  0  0
    7.0210   -1.6420   28.3330 C   0  0  0  0  0  0  0  0  0  0  0  0
    6.0280   -5.0090   23.7270 C   0  0  0  0  0  0  0  0  0  0  0  0
    6.5900   -5.4090   22.5200 C   0  0  0  0  0  0  0  0  0  0  0  0
  1  2  1  0
  2  3  2  0
  2  4  1  0
  4  5  1  0
  5  6  1  0
  6  7  1  0
  7  8  1  0
  8  9  2  0
  8 10  1  0
 10 11  1  0
 11 12  2  0
 12 13  1  0
 13 14  2  0
 14 15  1  0
 15 16  1  0
 16 17  1  0
 17 18  1  0
 18 19  1  0
 14 20  1  0
 11 21  1  0
 20 21  2  0
  7 22  1  0
  4 23  1  0
 22 23  1  0
M  END
