piperidine-amides-9063-covalent
     RDKit          3D

 21 22  0  0  0  0  0  0  0  0999 V2000
    7.0520   -3.2980   19.2780 C   0  0  0  0  0  0  0  0  0  0  0  0
    6.3340   -4.0880   20.2880 C   0  0  0  0  0  0  0  0  0  0  0  0
    5.3170   -4.7070   19.9390 O   0  0  0  0  0  0  0  0  0  0  0  0
    6.7750   -4.2190   21.6200 N   0  0  0  0  0  0  0  0  0  0  0  0
    6.6420   -5.4690   22.3390 C   0  0  0  0  0  0  0  0  0  0  0  0
    6.1290   -5.1360   23.7180 C   0  0  0  0  0  0  0  0  0  0  0  0
    6.0710   -3.6560   23.9500 C   0  0  0  0  0  0  0  0  0  0  0  0
    5.6230   -3.2680   25.3170 C   0  0  0  0  0  0  0  0  0  0  0  0
    4.3940   -3.0510   25.5210 O   0  0  0  0  0  0  0  0  0  0  0  0
    6.4860   -3.1040   26.4300 N   0  0  0  0  0  0  0  0  0  0  0  0
    6.2630   -3.8300   27.7160 C   0  0  2  0  0  0  0  0  0  0  0  0
    5.6930   -5.1740   27.4510 C   0  0  0  0  0  0  0  0  0  0  0  0
    4.4520   -5.3380   27.5670 O   0  0  0  0  0  0  0  0  0  0  0  0
    5.3530   -3.0250   28.6490 C   0  0  0  0  0  0  0  0  0  0  0  0
    3.9770   -3.4380   28.9770 C   0  0  0  0  0  0  0  0  0  0  0  0
    3.5450   -2.4160   29.8620 N   0  0  0  0  0  0  0  0  0  0  0  0
    4.4810   -1.4810   30.0830 N   0  0  0  0  0  0  0  0  0  0  0  0
    4.1960   -0.4690   30.9040 C   0  0  0  0  0  0  0  0  0  0  0  0
    5.6420   -1.7160   29.4080 C   0  0  0  0  0  0  0  0  0  0  0  0
    7.3980   -3.0490   23.5580 C   0  0  0  0  0  0  0  0  0  0  0  0
    7.6160   -3.1660   22.1780 C   0  0  0  0  0  0  0  0  0  0  0  0
  1  2  1  0
  2  3  2  0
  2  4  1  0
  4  5  1  0
  5  6  1  0
  6  7  1  0
  7  8  1  0
  8  9  2  0
  8 10  1  0
 10 11  1  0
 11 12  1  6
 12 13  1  0
 11 14  1  0
 14 15  1  0
 15 16  2  0
 16 17  1  0
 17 18  1  0
 14 19  2  0
 17 19  1  0
  7 20  1  0
  4 21  1  0
 20 21  1  0
M  END
