piperidine-amides-4488-covalent
     RDKit          3D

 25 27  0  0  0  0  0  0  0  0999 V2000
    7.0810   -3.2750   19.2760 C   0  0  0  0  0  0  0  0  0  0  0  0
    6.3610   -4.0680   20.3040 C   0  0  0  0  0  0  0  0  0  0  0  0
    5.3250   -4.6500   19.9230 O   0  0  0  0  0  0  0  0  0  0  0  0
    6.8370   -4.1950   21.6250 N   0  0  0  0  0  0  0  0  0  0  0  0
    7.6430   -3.1750   22.2190 C   0  0  0  0  0  0  0  0  0  0  0  0
    7.2750   -2.9160   23.6040 C   0  0  0  0  0  0  0  0  0  0  0  0
    6.0090   -3.5800   23.9730 C   0  0  0  0  0  0  0  0  0  0  0  0
    5.5590   -3.2910   25.3660 C   0  0  0  0  0  0  0  0  0  0  0  0
    4.3520   -3.4730   25.6130 O   0  0  0  0  0  0  0  0  0  0  0  0
    6.4110   -2.8260   26.3920 N   0  0  0  0  0  0  0  0  0  0  0  0
    6.6420   -1.3840   26.6530 C   0  0  0  0  0  0  0  0  0  0  0  0
    6.0200   -0.8770   27.9200 C   0  0  0  0  0  0  0  0  0  0  0  0
    6.7250   -0.8610   29.1460 N   0  0  0  0  0  0  0  0  0  0  0  0
    5.8500   -0.3110   30.1010 C   0  0  0  0  0  0  0  0  0  0  0  0
    6.1940   -0.1300   31.4260 C   0  0  0  0  0  0  0  0  0  0  0  0
    7.4960    0.1380   31.8250 C   0  0  0  0  0  0  0  0  0  0  0  0
    7.8010    0.3080   33.1520 C   0  0  0  0  0  0  0  0  0  0  0  0
    6.8190    0.2160   34.0930 C   0  0  0  0  0  0  0  0  0  0  0  0
    5.5430   -0.0440   33.7270 C   0  0  0  0  0  0  0  0  0  0  0  0
    4.4550   -0.1620   34.5950 C   0  0  0  0  0  0  0  0  0  0  0  0
    5.2260   -0.2160   32.4010 C   0  0  0  0  0  0  0  0  0  0  0  0
    4.6430    0.0020   29.5210 C   0  0  0  0  0  0  0  0  0  0  0  0
    4.7730   -0.3520   28.1940 N   0  0  0  0  0  0  0  0  0  0  0  0
    6.0530   -5.0920   23.6650 C   0  0  0  0  0  0  0  0  0  0  0  0
    6.6190   -5.4020   22.3970 C   0  0  0  0  0  0  0  0  0  0  0  0
  1  2  1  0
  2  3  2  0
  2  4  1  0
  4  5  1  0
  5  6  1  0
  6  7  1  0
  7  8  1  0
  8  9  2  0
  8 10  1  0
 10 11  1  0
 11 12  1  0
 12 13  2  0
 13 14  1  0
 14 15  1  0
 15 16  2  0
 16 17  1  0
 17 18  2  0
 18 19  1  0
 19 20  1  0
 15 21  1  0
 19 21  2  0
 14 22  2  0
 12 23  1  0
 22 23  1  0
  7 24  1  0
  4 25  1  0
 24 25  1  0
M  END
