piperidine-amides-19362-covalent
     RDKit          3D

 21 22  0  0  0  0  0  0  0  0999 V2000
    7.1460   -3.3580   19.4040 C   0  0  0  0  0  0  0  0  0  0  0  0
    6.4680   -4.2070   20.3520 C   0  0  0  0  0  0  0  0  0  0  0  0
    5.4210   -4.8290   19.9820 O   0  0  0  0  0  0  0  0  0  0  0  0
    6.9770   -4.3920   21.6560 N   0  0  0  0  0  0  0  0  0  0  0  0
    6.6180   -5.6030   22.4130 C   0  0  0  0  0  0  0  0  0  0  0  0
    5.6880   -4.9610   23.5140 C   0  0  0  0  0  0  0  0  0  0  0  0
    6.5030   -3.8900   24.2230 C   0  0  0  0  0  0  0  0  0  0  0  0
    5.6600   -3.2330   25.3940 C   0  0  0  0  0  0  0  0  0  0  0  0
    4.7520   -2.5960   24.8770 O   0  0  0  0  0  0  0  0  0  0  0  0
    6.0400   -3.4900   26.5940 N   0  0  0  0  0  0  0  0  0  0  0  0
    5.8540   -3.5800   27.9250 C   0  0  0  0  0  0  0  0  0  0  0  0
    5.4860   -4.5790   28.7640 C   0  0  0  0  0  0  0  0  0  0  0  0
    6.5960   -5.1530   29.3730 O   0  0  0  0  0  0  0  0  0  0  0  0
    7.7380   -5.1710   28.5860 C   0  0  0  0  0  0  0  0  0  0  0  0
    7.2940   -5.4090   27.2030 C   0  0  0  0  0  0  0  0  0  0  0  0
    7.4240   -3.9220   26.8160 C   0  0  1  0  0  0  0  0  0  0  0  0
    8.1530   -4.3020   25.6790 C   0  0  0  0  0  0  0  0  0  0  0  0
    9.2070   -5.0990   26.1020 F   0  0  0  0  0  0  0  0  0  0  0  0
    8.7530   -3.2080   25.0360 F   0  0  0  0  0  0  0  0  0  0  0  0
    6.9480   -2.7660   23.3100 C   0  0  0  0  0  0  0  0  0  0  0  0
    7.8370   -3.3900   22.2580 C   0  0  0  0  0  0  0  0  0  0  0  0
  1  2  1  0
  2  3  2  0
  2  4  1  0
  4  5  1  0
  5  6  1  0
  6  7  1  0
  7  8  1  0
  8  9  2  0
  8 10  1  0
 10 11  1  0
 11 12  1  0
 12 13  1  0
 13 14  1  0
 14 15  1  0
 10 16  1  0
 15 16  1  0
 16 17  1  6
 17 18  1  0
 17 19  1  0
  7 20  1  0
  4 21  1  0
 20 21  1  0
M  END
