piperidine-amides-27324-covalent
     RDKit          3D

 25 27  0  0  0  0  0  0  0  0999 V2000
    7.0110   -3.3660   19.3770 C   0  0  0  0  0  0  0  0  0  0  0  0
    6.3730   -4.2260   20.3810 C   0  0  0  0  0  0  0  0  0  0  0  0
    5.3740   -4.8840   19.9880 O   0  0  0  0  0  0  0  0  0  0  0  0
    6.8890   -4.3300   21.6850 N   0  0  0  0  0  0  0  0  0  0  0  0
    6.7590   -5.5700   22.4240 C   0  0  0  0  0  0  0  0  0  0  0  0
    6.1860   -5.2350   23.7720 C   0  0  0  0  0  0  0  0  0  0  0  0
    6.0750   -3.7470   23.9090 C   0  0  0  0  0  0  0  0  0  0  0  0
    5.5820   -3.3130   25.2480 C   0  0  0  0  0  0  0  0  0  0  0  0
    4.6720   -2.4630   25.2490 O   0  0  0  0  0  0  0  0  0  0  0  0
    6.0320   -3.7630   26.5070 N   0  0  0  0  0  0  0  0  0  0  0  0
    6.5030   -2.8080   27.4680 C   0  0  0  0  0  0  0  0  0  0  0  0
    6.7260   -3.7280   28.6170 C   0  0  0  0  0  0  0  0  0  0  0  0
    6.0660   -4.8720   28.4230 C   0  0  0  0  0  0  0  0  0  0  0  0
    5.4710   -4.9490   27.1670 C   0  0  1  0  0  0  0  0  0  0  0  0
    4.0810   -4.9750   27.1040 C   0  0  0  0  0  0  0  0  0  0  0  0
    3.4070   -5.8280   26.2300 C   0  0  0  0  0  0  0  0  0  0  0  0
    2.0120   -5.8800   26.1450 C   0  0  0  0  0  0  0  0  0  0  0  0
    1.4050   -6.7160   25.2930 F   0  0  0  0  0  0  0  0  0  0  0  0
    1.0860   -5.0190   26.9890 C   0  0  0  0  0  0  0  0  0  0  0  0
    1.8650   -4.1100   27.9200 C   0  0  0  0  0  0  0  0  0  0  0  0
    1.0250   -3.3110   28.7040 F   0  0  0  0  0  0  0  0  0  0  0  0
    3.3610   -4.1390   27.9270 C   0  0  0  0  0  0  0  0  0  0  0  0
    3.9020   -3.2480   28.8360 F   0  0  0  0  0  0  0  0  0  0  0  0
    7.3780   -3.0710   23.6000 C   0  0  0  0  0  0  0  0  0  0  0  0
    7.7320   -3.2720   22.2760 C   0  0  0  0  0  0  0  0  0  0  0  0
  1  2  1  0
  2  3  2  0
  2  4  1  0
  4  5  1  0
  5  6  1  0
  6  7  1  0
  7  8  1  0
  8  9  2  0
  8 10  1  0
 10 11  1  0
 11 12  1  0
 12 13  1  0
 10 14  1  0
 13 14  1  0
 14 15  1  1
 15 16  2  0
 16 17  1  0
 17 18  1  0
 17 19  2  0
 19 20  1  0
 20 21  1  0
 15 22  1  0
 20 22  2  0
 22 23  1  0
  7 24  1  0
  4 25  1  0
 24 25  1  0
M  END
