piperidine-amides-24414-covalent
     RDKit          3D

 23 25  0  0  0  0  0  0  0  0999 V2000
    7.0580   -3.3360   19.3140 C   0  0  0  0  0  0  0  0  0  0  0  0
    6.3840   -4.1830   20.3060 C   0  0  0  0  0  0  0  0  0  0  0  0
    5.3700   -4.8360   19.9790 O   0  0  0  0  0  0  0  0  0  0  0  0
    6.8920   -4.3120   21.6070 N   0  0  0  0  0  0  0  0  0  0  0  0
    7.7200   -3.2730   22.1780 C   0  0  0  0  0  0  0  0  0  0  0  0
    6.9710   -2.7510   23.3990 C   0  0  0  0  0  0  0  0  0  0  0  0
    6.5450   -3.9610   24.2070 C   0  0  0  0  0  0  0  0  0  0  0  0
    5.7440   -3.5040   25.3570 C   0  0  0  0  0  0  0  0  0  0  0  0
    4.4970   -3.5030   25.2530 O   0  0  0  0  0  0  0  0  0  0  0  0
    6.3860   -3.0610   26.5320 N   0  0  0  0  0  0  0  0  0  0  0  0
    7.7850   -3.3020   26.7300 C   0  0  0  0  0  0  0  0  0  0  0  0
    7.9620   -4.4840   27.6680 C   0  0  0  0  0  0  0  0  0  0  0  0
    8.7000   -5.6050   27.4230 C   0  0  0  0  0  0  0  0  0  0  0  0
    7.4020   -5.7330   27.0060 C   0  0  0  0  0  0  0  0  0  0  0  0
    6.4920   -1.7440   27.1580 C   0  0  0  0  0  0  0  0  0  0  0  0
    7.1290   -1.8380   28.3720 C   0  0  0  0  0  0  0  0  0  0  0  0
    7.3970   -0.6890   29.2680 C   0  0  0  0  0  0  0  0  0  0  0  0
    6.9800    0.4690   28.8200 N   0  0  0  0  0  0  0  0  0  0  0  0
    6.2970    0.7250   27.5890 C   0  0  0  0  0  0  0  0  0  0  0  0
    5.7820    2.3560   27.1340 Cl  0  0  0  0  0  0  0  0  0  0  0  0
    6.0440   -0.4920   26.7010 C   0  0  0  0  0  0  0  0  0  0  0  0
    5.7080   -4.9100   23.3750 C   0  0  0  0  0  0  0  0  0  0  0  0
    6.5740   -5.4570   22.4170 C   0  0  0  0  0  0  0  0  0  0  0  0
  1  2  1  0
  2  3  2  0
  2  4  1  0
  4  5  1  0
  5  6  1  0
  6  7  1  0
  7  8  1  0
  8  9  2  0
  8 10  1  0
 10 11  1  0
 11 12  1  0
 12 13  1  0
 12 14  1  0
 13 14  1  0
 10 15  1  0
 15 16  2  0
 16 17  1  0
 17 18  2  0
 18 19  1  0
 19 20  1  0
 15 21  1  0
 19 21  2  0
  7 22  1  0
  4 23  1  0
 22 23  1  0
M  END
