piperidine-amides-26001-covalent
     RDKit          3D

 24 25  0  0  0  0  0  0  0  0999 V2000
    7.1080   -3.2920   19.2680 C   0  0  0  0  0  0  0  0  0  0  0  0
    6.3200   -4.0080   20.2710 C   0  0  0  0  0  0  0  0  0  0  0  0
    5.2910   -4.6000   19.9070 O   0  0  0  0  0  0  0  0  0  0  0  0
    6.7300   -4.0810   21.6140 N   0  0  0  0  0  0  0  0  0  0  0  0
    7.7020   -3.1520   22.1620 C   0  0  0  0  0  0  0  0  0  0  0  0
    7.3470   -2.9260   23.6040 C   0  0  0  0  0  0  0  0  0  0  0  0
    6.0690   -3.6190   23.9580 C   0  0  0  0  0  0  0  0  0  0  0  0
    5.5980   -3.3390   25.3430 C   0  0  0  0  0  0  0  0  0  0  0  0
    4.3660   -3.4330   25.6020 O   0  0  0  0  0  0  0  0  0  0  0  0
    6.4370   -2.9300   26.4100 N   0  0  0  0  0  0  0  0  0  0  0  0
    6.9290   -1.5370   26.3780 C   0  0  0  0  0  0  0  0  0  0  0  0
    6.2080   -3.4330   27.7880 C   0  0  0  0  0  0  0  0  0  0  0  0
    5.5140   -4.7330   27.8990 C   0  0  0  0  0  0  0  0  0  0  0  0
    6.2440   -6.0450   27.9690 N   0  0  0  0  0  0  0  0  0  0  0  0
    5.0870   -6.9910   28.0850 C   0  0  0  0  0  0  0  0  0  0  0  0
    3.8340   -6.2150   28.0700 C   0  0  0  0  0  0  0  0  0  0  0  0
    4.1830   -4.9580   27.9660 N   0  0  0  0  0  0  0  0  0  0  0  0
    3.3440   -3.9090   27.9240 C   0  0  0  0  0  0  0  0  0  0  0  0
    2.3380   -4.1340   28.8300 C   0  0  0  0  0  0  0  0  0  0  0  0
    2.6140   -4.7460   30.0190 F   0  0  0  0  0  0  0  0  0  0  0  0
    1.3850   -4.9250   28.2350 F   0  0  0  0  0  0  0  0  0  0  0  0
    1.6410   -2.9880   29.0850 F   0  0  0  0  0  0  0  0  0  0  0  0
    6.1640   -5.1070   23.7240 C   0  0  0  0  0  0  0  0  0  0  0  0
    6.6060   -5.3570   22.2960 C   0  0  0  0  0  0  0  0  0  0  0  0
  1  2  1  0
  2  3  2  0
  2  4  1  0
  4  5  1  0
  5  6  1  0
  6  7  1  0
  7  8  1  0
  8  9  2  0
  8 10  1  0
 10 11  1  0
 10 12  1  0
 12 13  1  0
 13 14  2  0
 14 15  1  0
 15 16  2  0
 13 17  1  0
 16 17  1  0
 17 18  1  0
 18 19  1  0
 19 20  1  0
 19 21  1  0
 19 22  1  0
  7 23  1  0
  4 24  1  0
 23 24  1  0
M  END
