piperidine-amides-14895-covalent
     RDKit          3D

 22 23  0  0  0  0  0  0  0  0999 V2000
    7.0860   -3.3390   19.2820 C   0  0  0  0  0  0  0  0  0  0  0  0
    6.4110   -4.1800   20.2640 C   0  0  0  0  0  0  0  0  0  0  0  0
    5.3400   -4.7260   19.9450 O   0  0  0  0  0  0  0  0  0  0  0  0
    7.0030   -4.4150   21.5250 N   0  0  0  0  0  0  0  0  0  0  0  0
    7.7010   -3.3230   22.1470 C   0  0  0  0  0  0  0  0  0  0  0  0
    6.8180   -2.7330   23.1940 C   0  0  0  0  0  0  0  0  0  0  0  0
    6.6130   -3.8110   24.2230 C   0  0  0  0  0  0  0  0  0  0  0  0
    5.9180   -3.2170   25.3950 C   0  0  0  0  0  0  0  0  0  0  0  0
    4.7200   -3.4590   25.5170 O   0  0  0  0  0  0  0  0  0  0  0  0
    6.6780   -2.4240   26.2440 N   0  0  0  0  0  0  0  0  0  0  0  0
    6.0570   -1.6050   27.2160 C   0  0  2  0  0  0  0  0  0  0  0  0
    5.7130   -0.2980   26.8530 C   0  0  0  0  0  0  0  0  0  0  0  0
    5.9440    0.5870   27.8920 C   0  0  0  0  0  0  0  0  0  0  0  0
    6.6270   -0.0700   28.9780 N   0  0  0  0  0  0  0  0  0  0  0  0
    5.8540   -0.1250   30.1650 C   0  0  0  0  0  0  0  0  0  0  0  0
    5.3190   -1.3200   30.6460 O   0  0  0  0  0  0  0  0  0  0  0  0
    5.6410    0.9190   30.8210 O   0  0  0  0  0  0  0  0  0  0  0  0
    6.1160    0.9560   32.1560 C   0  0  0  0  0  0  0  0  0  0  0  0
    5.3080    0.0080   33.0720 C   0  0  0  0  0  0  0  0  0  0  0  0
    6.8770   -1.3110   28.3280 C   0  0  0  0  0  0  0  0  0  0  0  0
    5.9090   -4.9850   23.6370 C   0  0  0  0  0  0  0  0  0  0  0  0
    6.4680   -5.4960   22.2970 C   0  0  0  0  0  0  0  0  0  0  0  0
  1  2  1  0
  2  3  2  0
  2  4  1  0
  4  5  1  0
  5  6  1  0
  6  7  1  0
  7  8  1  0
  8  9  2  0
  8 10  1  0
 11 10  1  6
 11 12  1  0
 12 13  1  0
 13 14  1  0
 14 15  1  0
 15 16  2  0
 15 17  1  0
 17 18  1  0
 18 19  1  0
 11 20  1  0
 14 20  1  0
  7 21  1  0
  4 22  1  0
 21 22  1  0
M  END
