piperidine-amides-35189-covalent
     RDKit          3D

 24 25  0  0  0  0  0  0  0  0999 V2000
    7.0440   -3.2970   19.2820 C   0  0  0  0  0  0  0  0  0  0  0  0
    6.3440   -4.1020   20.3200 C   0  0  0  0  0  0  0  0  0  0  0  0
    5.3450   -4.7180   19.9480 O   0  0  0  0  0  0  0  0  0  0  0  0
    6.8340   -4.1810   21.6380 N   0  0  0  0  0  0  0  0  0  0  0  0
    6.7060   -5.3920   22.4130 C   0  0  0  0  0  0  0  0  0  0  0  0
    6.0300   -5.0980   23.7260 C   0  0  0  0  0  0  0  0  0  0  0  0
    6.0740   -3.5950   24.0020 C   0  0  0  0  0  0  0  0  0  0  0  0
    5.5900   -3.3740   25.3920 C   0  0  0  0  0  0  0  0  0  0  0  0
    4.3840   -3.5460   25.6080 O   0  0  0  0  0  0  0  0  0  0  0  0
    6.4070   -2.9520   26.4720 N   0  0  0  0  0  0  0  0  0  0  0  0
    6.0090   -3.4430   27.7880 C   0  0  0  0  0  0  0  0  0  0  0  0
    6.5320   -4.8300   28.0980 C   0  0  0  0  0  0  0  0  0  0  0  0
    6.6450   -6.1760   28.2970 C   0  0  0  0  0  0  0  0  0  0  0  0
    4.7270   -5.3590   27.6810 Br  0  0  0  0  0  0  0  0  0  0  0  0
    6.7520   -1.5720   26.4910 C   0  0  0  0  0  0  0  0  0  0  0  0
    6.7350   -1.0210   27.7540 C   0  0  0  0  0  0  0  0  0  0  0  0
    7.3410   -1.4110   29.0800 C   0  0  0  0  0  0  0  0  0  0  0  0
    7.0370   -0.4720   30.2080 C   0  0  0  0  0  0  0  0  0  0  0  0
    6.1860    0.7570   29.9890 C   0  0  0  0  0  0  0  0  0  0  0  0
    5.7430    2.0170   31.3690 Br  0  0  0  0  0  0  0  0  0  0  0  0
    5.6770    0.9710   28.5940 C   0  0  0  0  0  0  0  0  0  0  0  0
    5.8860    0.1390   27.3680 C   0  0  0  0  0  0  0  0  0  0  0  0
    7.3270   -2.9220   23.6100 C   0  0  0  0  0  0  0  0  0  0  0  0
    7.6960   -3.1350   22.1810 C   0  0  0  0  0  0  0  0  0  0  0  0
  1  2  1  0
  2  3  2  0
  2  4  1  0
  4  5  1  0
  5  6  1  0
  6  7  1  0
  7  8  1  0
  8  9  2  0
  8 10  1  0
 10 11  1  0
 11 12  1  0
 12 13  2  3
 12 14  1  0
 10 15  1  0
 15 16  1  0
 16 17  2  0
 17 18  1  0
 18 19  2  0
 19 20  1  0
 19 21  1  0
 16 22  1  0
 21 22  2  0
  7 23  1  0
  4 24  1  0
 23 24  1  0
M  END
