piperidine-amides-7190-covalent
     RDKit          3D

 21 22  0  0  0  0  0  0  0  0999 V2000
    7.1000   -3.2660   19.1980 C   0  0  0  0  0  0  0  0  0  0  0  0
    6.3710   -4.0020   20.2360 C   0  0  0  0  0  0  0  0  0  0  0  0
    5.2970   -4.5610   19.8890 O   0  0  0  0  0  0  0  0  0  0  0  0
    6.8970   -4.0920   21.5300 N   0  0  0  0  0  0  0  0  0  0  0  0
    7.7570   -3.0650   22.0760 C   0  0  0  0  0  0  0  0  0  0  0  0
    7.5090   -2.9670   23.5490 C   0  0  0  0  0  0  0  0  0  0  0  0
    6.1530   -3.4990   23.9060 C   0  0  0  0  0  0  0  0  0  0  0  0
    5.9110   -3.2300   25.3370 C   0  0  0  0  0  0  0  0  0  0  0  0
    4.9320   -3.7890   25.8750 O   0  0  0  0  0  0  0  0  0  0  0  0
    6.7400   -2.3630   26.0840 N   0  0  0  0  0  0  0  0  0  0  0  0
    6.6110   -2.2160   27.5140 C   0  0  0  0  0  0  0  0  0  0  0  0
    5.6800   -1.0800   27.9450 C   0  0  0  0  0  0  0  0  0  0  0  0
    5.0980   -0.4340   27.0320 O   0  0  0  0  0  0  0  0  0  0  0  0
    4.2650   -1.2130   26.2590 C   0  0  0  0  0  0  0  0  0  0  0  0
    2.9830   -0.7570   26.0470 C   0  0  0  0  0  0  0  0  0  0  0  0
    6.1330   -0.1380   28.8520 C   0  0  0  0  0  0  0  0  0  0  0  0
    5.9290   -0.4890   30.1390 C   0  0  0  0  0  0  0  0  0  0  0  0
    5.0660   -1.5150   30.1020 C   0  0  0  0  0  0  0  0  0  0  0  0
    4.4410   -1.6820   28.7330 C   0  0  0  0  0  0  0  0  0  0  0  0
    6.0570   -4.9650   23.6440 C   0  0  0  0  0  0  0  0  0  0  0  0
    6.5820   -5.3180   22.2700 C   0  0  0  0  0  0  0  0  0  0  0  0
  1  2  1  0
  2  3  2  0
  2  4  1  0
  4  5  1  0
  5  6  1  0
  6  7  1  0
  7  8  1  0
  8  9  2  0
  8 10  1  0
 10 11  1  0
 11 12  1  0
 12 13  1  0
 13 14  1  0
 14 15  1  0
 12 16  1  0
 16 17  1  0
 17 18  1  0
 12 19  1  0
 18 19  1  0
  7 20  1  0
  4 21  1  0
 20 21  1  0
M  END
