piperidine-amides-27531-covalent
     RDKit          3D

 26 29  0  0  0  0  0  0  0  0999 V2000
    7.1100   -3.3870   19.3910 C   0  0  0  0  0  0  0  0  0  0  0  0
    6.4300   -4.2270   20.3710 C   0  0  0  0  0  0  0  0  0  0  0  0
    5.3740   -4.7970   19.9770 O   0  0  0  0  0  0  0  0  0  0  0  0
    6.9840   -4.4140   21.6430 N   0  0  0  0  0  0  0  0  0  0  0  0
    6.6090   -5.5140   22.4730 C   0  0  0  0  0  0  0  0  0  0  0  0
    5.7870   -4.9700   23.6120 C   0  0  0  0  0  0  0  0  0  0  0  0
    6.3380   -3.7050   24.2630 C   0  0  0  0  0  0  0  0  0  0  0  0
    5.2430   -3.0830   25.0580 C   0  0  0  0  0  0  0  0  0  0  0  0
    4.2280   -2.7220   24.4450 O   0  0  0  0  0  0  0  0  0  0  0  0
    5.2500   -2.8760   26.4470 N   0  0  0  0  0  0  0  0  0  0  0  0
    4.2220   -3.4450   27.2020 C   0  0  0  0  0  0  0  0  0  0  0  0
    4.8710   -4.7200   27.6780 C   0  0  2  0  0  0  0  0  0  0  0  0
    4.4400   -5.3350   28.8190 C   0  0  0  0  0  0  0  0  0  0  0  0
    5.4720   -5.3830   29.6910 N   0  0  0  0  0  0  0  0  0  0  0  0
    5.9400   -6.5990   30.0300 C   0  0  0  0  0  0  0  0  0  0  0  0
    6.2900   -4.4700   29.1580 C   0  0  2  0  0  0  0  0  0  0  0  0
    5.9400   -3.1650   29.5260 C   0  0  0  0  0  0  0  0  0  0  0  0
    6.7800   -2.0510   29.3510 C   0  0  0  0  0  0  0  0  0  0  0  0
    6.5670   -0.5860   29.6890 C   0  0  0  0  0  0  0  0  0  0  0  0
    5.2150   -0.3400   30.3120 C   0  0  0  0  0  0  0  0  0  0  0  0
    4.2390   -1.4340   30.5470 C   0  0  0  0  0  0  0  0  0  0  0  0
    4.5800   -2.8530   30.1610 C   0  0  0  0  0  0  0  0  0  0  0  0
    6.1140   -4.5730   27.8500 C   0  0  2  0  0  0  0  0  0  0  0  0
    6.4180   -3.2730   27.0530 C   0  0  0  0  0  0  0  0  0  0  0  0
    6.8330   -2.6840   23.2790 C   0  0  0  0  0  0  0  0  0  0  0  0
    7.7470   -3.3470   22.2570 C   0  0  0  0  0  0  0  0  0  0  0  0
  1  2  1  0
  2  3  2  0
  2  4  1  0
  4  5  1  0
  5  6  1  0
  6  7  1  0
  7  8  1  0
  8  9  2  0
  8 10  1  0
 10 11  1  0
 12 11  1  1
 12 13  1  0
 13 14  1  0
 14 15  1  0
 14 16  1  0
 16 17  1  1
 17 18  2  0
 18 19  1  0
 19 20  2  0
 20 21  1  0
 17 22  1  0
 21 22  2  0
 12 23  1  0
 16 23  1  0
 10 24  1  0
 23 24  1  6
  7 25  1  0
  4 26  1  0
 25 26  1  0
M  END
