piperidine-amides-132-covalent
     RDKit          3D

 25 27  0  0  0  0  0  0  0  0999 V2000
    7.2000   -3.2990   19.3370 C   0  0  0  0  0  0  0  0  0  0  0  0
    6.4610   -4.0850   20.2950 C   0  0  0  0  0  0  0  0  0  0  0  0
    5.3690   -4.6290   19.9270 O   0  0  0  0  0  0  0  0  0  0  0  0
    6.9570   -4.2990   21.5910 N   0  0  0  0  0  0  0  0  0  0  0  0
    6.4250   -5.4330   22.3700 C   0  0  0  0  0  0  0  0  0  0  0  0
    5.4840   -4.6300   23.3430 C   0  0  0  0  0  0  0  0  0  0  0  0
    6.3890   -3.6840   24.1100 C   0  0  0  0  0  0  0  0  0  0  0  0
    5.6240   -3.0270   25.3280 C   0  0  0  0  0  0  0  0  0  0  0  0
    4.9050   -2.1220   24.9430 O   0  0  0  0  0  0  0  0  0  0  0  0
    5.9420   -3.6190   26.4030 N   0  0  0  0  0  0  0  0  0  0  0  0
    6.1630   -4.2350   27.5850 C   0  0  0  0  0  0  0  0  0  0  0  0
    5.8910   -5.3830   28.2610 C   0  0  0  0  0  0  0  0  0  0  0  0
    4.5130   -5.4600   28.6000 C   0  0  2  0  0  0  0  0  0  0  0  0
    4.1320   -4.7990   29.8790 C   0  0  0  0  0  0  0  0  0  0  0  0
    4.3060   -6.0800   30.7380 C   0  0  0  0  0  0  0  0  0  0  0  0
    2.9850   -6.4750   30.4510 C   0  0  0  0  0  0  0  0  0  0  0  0
    1.9720   -5.6400   30.9970 C   0  0  0  0  0  0  0  0  0  0  0  0
    3.0950   -5.8620   32.0150 C   0  0  0  0  0  0  0  0  0  0  0  0
    2.7780   -6.8040   32.7580 O   0  0  0  0  0  0  0  0  0  0  0  0
    3.3440   -7.9390   32.2150 C   0  0  0  0  0  0  0  0  0  0  0  0
    2.9360   -7.9240   30.9050 C   0  0  0  0  0  0  0  0  0  0  0  0
    2.8730   -6.7030   29.1060 C   0  0  0  0  0  0  0  0  0  0  0  0
    4.0300   -6.7630   28.6290 O   0  0  0  0  0  0  0  0  0  0  0  0
    7.1330   -2.6780   23.2490 C   0  0  0  0  0  0  0  0  0  0  0  0
    7.7960   -3.3220   22.2500 C   0  0  0  0  0  0  0  0  0  0  0  0
  1  2  1  0
  2  3  2  0
  2  4  1  0
  4  5  1  0
  5  6  1  0
  6  7  1  0
  7  8  1  0
  8  9  2  0
  8 10  1  0
 10 11  1  0
 11 12  1  0
 13 12  1  1
 13 14  1  0
 14 15  1  0
 16 15  1  0
 16 17  1  0
 17 18  1  0
 18 19  1  0
 19 20  1  0
 16 21  1  0
 20 21  1  0
 16 22  1  0
 13 23  1  0
 22 23  1  0
  7 24  1  0
  4 25  1  0
 24 25  1  0
M  END
