piperidine-amides-32711-covalent
     RDKit          3D

 23 25  0  0  0  0  0  0  0  0999 V2000
    7.0950   -3.3240   19.3070 C   0  0  0  0  0  0  0  0  0  0  0  0
    6.3910   -4.1830   20.2940 C   0  0  0  0  0  0  0  0  0  0  0  0
    5.3440   -4.7610   19.9550 O   0  0  0  0  0  0  0  0  0  0  0  0
    6.9730   -4.3740   21.5610 N   0  0  0  0  0  0  0  0  0  0  0  0
    6.6890   -5.5500   22.3360 C   0  0  0  0  0  0  0  0  0  0  0  0
    5.8400   -5.0880   23.5220 C   0  0  0  0  0  0  0  0  0  0  0  0
    6.5060   -3.8860   24.1150 C   0  0  0  0  0  0  0  0  0  0  0  0
    5.6960   -3.2990   25.1920 C   0  0  0  0  0  0  0  0  0  0  0  0
    4.5800   -2.8740   24.8780 O   0  0  0  0  0  0  0  0  0  0  0  0
    6.1820   -3.2580   26.4850 N   0  0  0  0  0  0  0  0  0  0  0  0
    5.8720   -2.2380   27.4290 C   0  0  0  0  0  0  0  0  0  0  0  0
    5.2210   -2.5110   28.6200 C   0  0  0  0  0  0  0  0  0  0  0  0
    4.7330   -3.7880   28.7970 C   0  0  0  0  0  0  0  0  0  0  0  0
    5.6190   -4.6980   28.4360 C   0  0  0  0  0  0  0  0  0  0  0  0
    5.8240   -5.9310   29.1900 C   0  0  0  0  0  0  0  0  0  0  0  0
    4.8480   -6.5590   30.7380 Br  0  0  0  0  0  0  0  0  0  0  0  0
    6.8630   -6.8460   28.7650 C   0  0  0  0  0  0  0  0  0  0  0  0
    7.5600   -6.4010   27.4700 C   0  0  0  0  0  0  0  0  0  0  0  0
    7.3150   -5.3350   26.7560 C   0  0  0  0  0  0  0  0  0  0  0  0
    8.2160   -5.2070   25.2590 Cl  0  0  0  0  0  0  0  0  0  0  0  0
    6.3230   -4.4280   27.2990 C   0  0  0  0  0  0  0  0  0  0  0  0
    6.8650   -2.7930   23.1650 C   0  0  0  0  0  0  0  0  0  0  0  0
    7.6860   -3.3210   22.2190 C   0  0  0  0  0  0  0  0  0  0  0  0
  1  2  1  0
  2  3  2  0
  2  4  1  0
  4  5  1  0
  5  6  1  0
  6  7  1  0
  7  8  1  0
  8  9  2  0
  8 10  1  0
 10 11  1  0
 11 12  1  0
 12 13  1  0
 13 14  1  0
 14 15  2  0
 15 16  1  0
 15 17  1  0
 17 18  2  0
 18 19  1  0
 19 20  1  0
 10 21  1  0
 14 21  1  0
 19 21  2  0
  7 22  1  0
  4 23  1  0
 22 23  1  0
M  END
