piperidine-amides-28941-covalent
     RDKit          3D

 26 28  0  0  0  0  0  0  0  0999 V2000
    7.0240   -3.3630   19.3810 C   0  0  0  0  0  0  0  0  0  0  0  0
    6.3890   -4.2380   20.3610 C   0  0  0  0  0  0  0  0  0  0  0  0
    5.3890   -4.8820   19.9910 O   0  0  0  0  0  0  0  0  0  0  0  0
    6.9270   -4.3870   21.6740 N   0  0  0  0  0  0  0  0  0  0  0  0
    6.4570   -5.4710   22.4690 C   0  0  0  0  0  0  0  0  0  0  0  0
    5.5050   -4.9210   23.4940 C   0  0  0  0  0  0  0  0  0  0  0  0
    6.2660   -3.9220   24.3460 C   0  0  0  0  0  0  0  0  0  0  0  0
    5.3310   -3.2340   25.3210 C   0  0  0  0  0  0  0  0  0  0  0  0
    4.5580   -2.4480   24.8000 O   0  0  0  0  0  0  0  0  0  0  0  0
    5.3380   -3.4940   26.7070 N   0  0  0  0  0  0  0  0  0  0  0  0
    4.2440   -3.8720   27.4370 C   0  0  0  0  0  0  0  0  0  0  0  0
    4.5450   -4.9900   28.1970 C   0  0  0  0  0  0  0  0  0  0  0  0
    5.5190   -4.9350   29.1640 C   0  0  0  0  0  0  0  0  0  0  0  0
    5.6640   -6.0760   29.9510 C   0  0  0  0  0  0  0  0  0  0  0  0
    4.3090   -6.7030   30.1180 C   0  0  1  0  0  0  0  0  0  0  0  0
    4.5330   -7.9560   30.6370 O   0  0  0  0  0  0  0  0  0  0  0  0
    4.2660   -7.8490   31.9950 C   0  0  0  0  0  0  0  0  0  0  0  0
    3.5860   -6.5840   32.2950 C   0  0  0  0  0  0  0  0  0  0  0  0
    3.2930   -5.9710   30.9500 C   0  0  1  0  0  0  0  0  0  0  0  0
    3.2800   -4.4340   31.1640 C   0  0  0  0  0  0  0  0  0  0  0  0
    3.1210   -4.1040   32.4470 N   0  0  0  0  0  0  0  0  0  0  0  0
    3.4140   -3.5970   30.0930 O   0  0  0  0  0  0  0  0  0  0  0  0
    6.6210   -4.6530   28.1480 C   0  0  0  0  0  0  0  0  0  0  0  0
    6.4670   -3.4100   27.4950 C   0  0  0  0  0  0  0  0  0  0  0  0
    6.9550   -2.8520   23.5500 C   0  0  0  0  0  0  0  0  0  0  0  0
    7.6760   -3.3430   22.3200 C   0  0  0  0  0  0  0  0  0  0  0  0
  1  2  1  0
  2  3  2  0
  2  4  1  0
  4  5  1  0
  5  6  1  0
  6  7  1  0
  7  8  1  0
  8  9  2  0
  8 10  1  0
 10 11  1  0
 11 12  1  0
 12 13  1  0
 13 14  1  0
 15 14  1  1
 15 16  1  0
 16 17  1  0
 17 18  1  0
 15 19  1  0
 18 19  1  0
 19 20  1  1
 20 21  1  0
 20 22  2  0
 13 23  1  0
 10 24  1  0
 23 24  1  0
  7 25  1  0
  4 26  1  0
 25 26  1  0
M  END
