piperidine-amides-4064-covalent
     RDKit          3D

 29 31  0  0  0  0  0  0  0  0999 V2000
    7.1200   -3.2700   19.2390 C   0  0  0  0  0  0  0  0  0  0  0  0
    6.3660   -4.0300   20.2530 C   0  0  0  0  0  0  0  0  0  0  0  0
    5.2800   -4.5370   19.8810 O   0  0  0  0  0  0  0  0  0  0  0  0
    6.8670   -4.2280   21.5670 N   0  0  0  0  0  0  0  0  0  0  0  0
    7.6630   -3.2080   22.1600 C   0  0  0  0  0  0  0  0  0  0  0  0
    7.3070   -2.9400   23.5400 C   0  0  0  0  0  0  0  0  0  0  0  0
    6.0470   -3.5910   23.9330 C   0  0  0  0  0  0  0  0  0  0  0  0
    5.6350   -3.2760   25.3390 C   0  0  0  0  0  0  0  0  0  0  0  0
    4.4530   -3.4710   25.6710 O   0  0  0  0  0  0  0  0  0  0  0  0
    6.5320   -2.7560   26.2900 N   0  0  0  0  0  0  0  0  0  0  0  0
    6.3150   -1.6970   27.2060 C   0  0  0  0  0  0  0  0  0  0  0  0
    5.1560   -1.6380   28.0920 C   0  0  0  0  0  0  0  0  0  0  0  0
    5.5500   -1.5150   29.5700 C   0  0  0  0  0  0  0  0  0  0  0  0
    4.6840   -1.4310   30.6680 C   0  0  0  0  0  0  0  0  0  0  0  0
    3.1750   -1.4770   30.2580 C   0  0  0  0  0  0  0  0  0  0  0  0
    2.9850   -1.6000   28.7820 C   0  0  0  0  0  0  0  0  0  0  0  0
    1.4450   -1.6080   28.8160 C   0  0  0  0  0  0  0  0  0  0  0  0
    0.6520   -2.3940   27.9790 O   0  0  0  0  0  0  0  0  0  0  0  0
    0.8010   -0.9000   29.6150 O   0  0  0  0  0  0  0  0  0  0  0  0
   -0.6050   -0.6380   29.4460 C   0  0  0  0  0  0  0  0  0  0  0  0
   -0.9170    0.8190   29.1470 C   0  0  0  0  0  0  0  0  0  0  0  0
    0.2030    1.8640   29.1100 C   0  0  0  0  0  0  0  0  0  0  0  0
   -0.2280    3.2660   28.8060 C   0  0  0  0  0  0  0  0  0  0  0  0
   -1.5640    3.6140   28.5680 C   0  0  0  0  0  0  0  0  0  0  0  0
   -2.5580    2.6580   28.6070 C   0  0  0  0  0  0  0  0  0  0  0  0
   -2.1930    1.2280   28.9080 C   0  0  0  0  0  0  0  0  0  0  0  0
    3.8720   -1.6750   27.7730 C   0  0  0  0  0  0  0  0  0  0  0  0
    6.1810   -5.0860   23.7220 C   0  0  0  0  0  0  0  0  0  0  0  0
    6.5570   -5.4420   22.2860 C   0  0  0  0  0  0  0  0  0  0  0  0
  1  2  1  0
  2  3  2  0
  2  4  1  0
  4  5  1  0
  5  6  1  0
  6  7  1  0
  7  8  1  0
  8  9  2  0
  8 10  1  0
 10 11  1  0
 11 12  1  0
 12 13  2  0
 13 14  1  0
 14 15  2  0
 15 16  1  0
 16 17  1  0
 17 18  2  0
 17 19  1  0
 19 20  1  0
 20 21  1  0
 21 22  2  0
 22 23  1  0
 23 24  2  0
 24 25  1  0
 21 26  1  0
 25 26  2  0
 12 27  1  0
 16 27  2  0
  7 28  1  0
  4 29  1  0
 28 29  1  0
M  END
