piperidine-amides-34356-covalent
     RDKit          3D

 30 31  0  0  0  0  0  0  0  0999 V2000
    7.0340   -3.2970   19.3240 C   0  0  0  0  0  0  0  0  0  0  0  0
    6.3440   -4.1330   20.3250 C   0  0  0  0  0  0  0  0  0  0  0  0
    5.3550   -4.8120   19.9720 O   0  0  0  0  0  0  0  0  0  0  0  0
    6.7870   -4.2240   21.6570 N   0  0  0  0  0  0  0  0  0  0  0  0
    6.7000   -5.5250   22.2940 C   0  0  0  0  0  0  0  0  0  0  0  0
    6.2500   -5.3260   23.7470 C   0  0  0  0  0  0  0  0  0  0  0  0
    6.0620   -3.8470   23.9330 C   0  0  0  0  0  0  0  0  0  0  0  0
    5.3950   -3.5240   25.2280 C   0  0  0  0  0  0  0  0  0  0  0  0
    4.1570   -3.3820   25.1710 O   0  0  0  0  0  0  0  0  0  0  0  0
    6.0440   -3.3720   26.4900 N   0  0  0  0  0  0  0  0  0  0  0  0
    5.4780   -2.3180   27.2850 C   0  0  0  0  0  0  0  0  0  0  0  0
    6.2750   -1.0510   27.1510 C   0  0  0  0  0  0  0  0  0  0  0  0
    7.3310   -0.9460   28.0710 O   0  0  0  0  0  0  0  0  0  0  0  0
    5.8650   -0.0690   26.1430 N   0  0  0  0  0  0  0  0  0  0  0  0
    6.7820    0.7860   25.3930 C   0  0  0  0  0  0  0  0  0  0  0  0
    7.4810    0.1670   24.4220 C   0  0  0  0  0  0  0  0  0  0  0  0
    8.3420    0.9500   23.7150 C   0  0  0  0  0  0  0  0  0  0  0  0
    8.4810    2.2850   23.9840 C   0  0  0  0  0  0  0  0  0  0  0  0
    7.8110    3.2020   25.0170 C   0  0  0  0  0  0  0  0  0  0  0  0
    6.9150    2.1310   25.6690 C   0  0  0  0  0  0  0  0  0  0  0  0
    6.0160    2.5550   26.7880 C   0  0  0  0  0  0  0  0  0  0  0  0
    4.6990    2.5880   26.5120 F   0  0  0  0  0  0  0  0  0  0  0  0
    6.2750    3.7520   27.3480 F   0  0  0  0  0  0  0  0  0  0  0  0
    6.1570    1.6480   27.8170 F   0  0  0  0  0  0  0  0  0  0  0  0
    6.4440   -4.3830   27.4730 C   0  0  2  0  0  0  0  0  0  0  0  0
    6.4360   -5.7700   27.2670 C   0  0  0  0  0  0  0  0  0  0  0  0
    5.4170   -5.2720   28.0480 C   0  0  0  0  0  0  0  0  0  0  0  0
    5.9460   -6.1510   29.1680 C   0  0  0  0  0  0  0  0  0  0  0  0
    7.3350   -3.0710   23.7130 C   0  0  0  0  0  0  0  0  0  0  0  0
    7.6460   -3.1880   22.2100 C   0  0  0  0  0  0  0  0  0  0  0  0
  1  2  1  0
  2  3  2  0
  2  4  1  0
  4  5  1  0
  5  6  1  0
  6  7  1  0
  7  8  1  0
  8  9  2  0
  8 10  1  0
 10 11  1  0
 11 12  1  0
 12 13  2  0
 12 14  1  0
 14 15  1  0
 15 16  2  0
 16 17  1  0
 17 18  2  0
 18 19  1  0
 15 20  1  0
 19 20  2  0
 20 21  1  0
 21 22  1  0
 21 23  1  0
 21 24  1  0
 10 25  1  0
 25 26  1  6
 25 27  1  0
 27 28  1  0
  7 29  1  0
  4 30  1  0
 29 30  1  0
M  END
