piperidine-amides-3920-covalent
     RDKit          3D

 21 23  0  0  0  0  0  0  0  0999 V2000
    7.0930   -3.3200   19.2990 C   0  0  0  0  0  0  0  0  0  0  0  0
    6.3920   -4.1440   20.2950 C   0  0  0  0  0  0  0  0  0  0  0  0
    5.3220   -4.6850   19.9320 O   0  0  0  0  0  0  0  0  0  0  0  0
    6.9370   -4.3630   21.5830 N   0  0  0  0  0  0  0  0  0  0  0  0
    6.4390   -5.4610   22.3340 C   0  0  0  0  0  0  0  0  0  0  0  0
    5.8300   -5.0880   23.6090 C   0  0  0  0  0  0  0  0  0  0  0  0
    6.4460   -3.9320   24.2910 C   0  0  0  0  0  0  0  0  0  0  0  0
    5.6340   -3.5070   25.4870 C   0  0  0  0  0  0  0  0  0  0  0  0
    4.3960   -3.6860   25.5060 O   0  0  0  0  0  0  0  0  0  0  0  0
    6.2290   -2.8750   26.5950 N   0  0  0  0  0  0  0  0  0  0  0  0
    6.6940   -1.5430   26.6340 C   0  0  1  0  0  0  0  0  0  0  0  0
    5.9530   -0.3700   26.2140 C   0  0  0  0  0  0  0  0  0  0  0  0
    5.6780    0.3950   27.5790 C   0  0  0  0  0  0  0  0  0  0  0  0
    6.2370   -0.1960   28.7640 C   0  0  0  0  0  0  0  0  0  0  0  0
    7.2640   -1.0810   28.4090 N   0  0  0  0  0  0  0  0  0  0  0  0
    7.6460   -0.7010   29.6790 N   0  0  0  0  0  0  0  0  0  0  0  0
    6.5940    0.1840   30.0790 C   0  0  0  0  0  0  0  0  0  0  0  0
    7.0010   -0.6500   28.9360 C   0  0  0  0  0  0  0  0  0  0  0  0
    6.1510   -0.6930   27.7370 C   0  0  0  0  0  0  0  0  0  0  0  0
    6.7730   -2.7860   23.3710 C   0  0  0  0  0  0  0  0  0  0  0  0
    7.6600   -3.3060   22.2600 C   0  0  0  0  0  0  0  0  0  0  0  0
  1  2  1  0
  2  3  2  0
  2  4  1  0
  4  5  1  0
  5  6  1  0
  6  7  1  0
  7  8  1  0
  8  9  2  0
  8 10  1  0
 11 10  1  6
 11 12  1  0
 12 13  1  0
 13 14  1  0
 14 15  1  0
 15 16  1  0
 16 17  2  0
 17 18  1  0
 11 19  1  0
 15 19  1  0
 18 19  2  0
  7 20  1  0
  4 21  1  0
 20 21  1  0
M  END
