piperidine-amides-17134-covalent
     RDKit          3D

 20 21  0  0  0  0  0  0  0  0999 V2000
    7.1430   -3.3100   19.2200 C   0  0  0  0  0  0  0  0  0  0  0  0
    6.3630   -4.0340   20.2290 C   0  0  0  0  0  0  0  0  0  0  0  0
    5.2590   -4.4990   19.8680 O   0  0  0  0  0  0  0  0  0  0  0  0
    6.8800   -4.2410   21.5250 N   0  0  0  0  0  0  0  0  0  0  0  0
    6.3960   -5.3370   22.2800 C   0  0  0  0  0  0  0  0  0  0  0  0
    5.8750   -4.9780   23.5970 C   0  0  0  0  0  0  0  0  0  0  0  0
    6.5090   -3.8080   24.2510 C   0  0  0  0  0  0  0  0  0  0  0  0
    5.7140   -3.3790   25.4510 C   0  0  0  0  0  0  0  0  0  0  0  0
    4.7660   -2.5910   25.2890 O   0  0  0  0  0  0  0  0  0  0  0  0
    5.9980   -3.8430   26.7600 N   0  0  0  0  0  0  0  0  0  0  0  0
    5.3890   -4.8780   27.4440 C   0  0  0  0  0  0  0  0  0  0  0  0
    5.3400   -4.0400   28.5650 C   0  0  0  0  0  0  0  0  0  0  0  0
    4.1970   -3.6530   28.9720 O   0  0  0  0  0  0  0  0  0  0  0  0
    4.2650   -2.5420   29.7740 C   0  0  0  0  0  0  0  0  0  0  0  0
    3.0730   -2.4970   30.4650 C   0  0  0  0  0  0  0  0  0  0  0  0
    3.7780   -1.7930   31.6300 C   0  0  0  0  0  0  0  0  0  0  0  0
    2.0230   -1.5430   29.8590 C   0  0  0  0  0  0  0  0  0  0  0  0
    6.0200   -2.8790   27.8980 C   0  0  0  0  0  0  0  0  0  0  0  0
    6.8080   -2.6540   23.3280 C   0  0  0  0  0  0  0  0  0  0  0  0
    7.6340   -3.2030   22.1870 C   0  0  0  0  0  0  0  0  0  0  0  0
  1  2  1  0
  2  3  2  0
  2  4  1  0
  4  5  1  0
  5  6  1  0
  6  7  1  0
  7  8  1  0
  8  9  2  0
  8 10  1  0
 10 11  1  0
 11 12  1  0
 12 13  1  0
 13 14  1  0
 14 15  1  0
 15 16  1  0
 15 17  1  0
 10 18  1  0
 12 18  1  0
  7 19  1  0
  4 20  1  0
 19 20  1  0
M  END
