piperidine-amides-14913-covalent
     RDKit          3D

 21 21  0  0  0  0  0  0  0  0999 V2000
    7.1060   -3.3000   19.2430 C   0  0  0  0  0  0  0  0  0  0  0  0
    6.4170   -4.1010   20.2520 C   0  0  0  0  0  0  0  0  0  0  0  0
    5.3590   -4.6720   19.9350 O   0  0  0  0  0  0  0  0  0  0  0  0
    6.9970   -4.2450   21.5390 N   0  0  0  0  0  0  0  0  0  0  0  0
    6.5990   -5.3560   22.3550 C   0  0  0  0  0  0  0  0  0  0  0  0
    5.7820   -4.8620   23.5260 C   0  0  0  0  0  0  0  0  0  0  0  0
    6.5930   -3.8250   24.2980 C   0  0  0  0  0  0  0  0  0  0  0  0
    5.8290   -3.3770   25.5020 C   0  0  0  0  0  0  0  0  0  0  0  0
    4.7650   -2.8010   25.2790 O   0  0  0  0  0  0  0  0  0  0  0  0
    6.3610   -3.6300   26.7640 N   0  0  0  0  0  0  0  0  0  0  0  0
    6.8570   -4.9130   27.1480 C   0  0  0  0  0  0  0  0  0  0  0  0
    5.9040   -5.8310   27.5950 C   0  0  0  0  0  0  0  0  0  0  0  0
    4.6110   -5.8270   27.1180 C   0  0  0  0  0  0  0  0  0  0  0  0
    3.6370   -6.5300   27.8240 C   0  0  0  0  0  0  0  0  0  0  0  0
    2.4950   -6.5840   26.8480 C   0  0  0  0  0  0  0  0  0  0  0  0
    2.6590   -5.8090   25.7310 O   0  0  0  0  0  0  0  0  0  0  0  0
    1.3350   -7.3530   27.0240 O   0  0  0  0  0  0  0  0  0  0  0  0
    1.2960   -8.7270   26.6560 C   0  0  0  0  0  0  0  0  0  0  0  0
    2.2460   -9.1020   25.5790 C   0  0  0  0  0  0  0  0  0  0  0  0
    6.9350   -2.6850   23.4130 C   0  0  0  0  0  0  0  0  0  0  0  0
    7.6310   -3.0920   22.1140 C   0  0  0  0  0  0  0  0  0  0  0  0
  1  2  1  0
  2  3  2  0
  2  4  1  0
  4  5  1  0
  5  6  1  0
  6  7  1  0
  7  8  1  0
  8  9  2  0
  8 10  1  0
 10 11  1  0
 11 12  1  0
 12 13  1  0
 13 14  1  0
 14 15  1  0
 15 16  2  0
 15 17  1  0
 17 18  1  0
 18 19  1  0
  7 20  1  0
  4 21  1  0
 20 21  1  0
M  END
