piperidine-amides-23323-covalent
     RDKit          3D

 24 26  0  0  0  0  0  0  0  0999 V2000
    7.0550   -3.3850   19.3620 C   0  0  0  0  0  0  0  0  0  0  0  0
    6.4220   -4.2580   20.3600 C   0  0  0  0  0  0  0  0  0  0  0  0
    5.3770   -4.8500   19.9900 O   0  0  0  0  0  0  0  0  0  0  0  0
    6.9990   -4.4770   21.6460 N   0  0  0  0  0  0  0  0  0  0  0  0
    6.4870   -5.5130   22.4610 C   0  0  0  0  0  0  0  0  0  0  0  0
    5.9390   -5.0740   23.7520 C   0  0  0  0  0  0  0  0  0  0  0  0
    6.4570   -3.8040   24.3410 C   0  0  0  0  0  0  0  0  0  0  0  0
    5.5090   -3.2200   25.3690 C   0  0  0  0  0  0  0  0  0  0  0  0
    4.7880   -2.2820   24.9970 O   0  0  0  0  0  0  0  0  0  0  0  0
    5.3390   -3.6500   26.7210 N   0  0  0  0  0  0  0  0  0  0  0  0
    4.3360   -3.2690   27.5610 C   0  0  0  0  0  0  0  0  0  0  0  0
    4.7130   -3.7090   28.8690 C   0  0  0  0  0  0  0  0  0  0  0  0
    5.3540   -4.8770   28.9770 N   0  0  0  0  0  0  0  0  0  0  0  0
    4.5330   -6.0020   29.3710 C   0  0  0  0  0  0  0  0  0  0  0  0
    3.6280   -6.2570   28.3640 C   0  0  0  0  0  0  0  0  0  0  0  0
    2.6860   -7.4310   28.6920 C   0  0  0  0  0  0  0  0  0  0  0  0
    2.8720   -8.1170   30.0220 C   0  0  0  0  0  0  0  0  0  0  0  0
    3.7900   -7.8040   30.9530 N   0  0  0  0  0  0  0  0  0  0  0  0
    4.6720   -6.7090   30.6430 C   0  0  0  0  0  0  0  0  0  0  0  0
    6.6320   -5.1130   28.3530 C   0  0  0  0  0  0  0  0  0  0  0  0
    6.4850   -6.2620   29.1460 O   0  0  0  0  0  0  0  0  0  0  0  0
    6.3540   -3.7430   27.6830 C   0  0  0  0  0  0  0  0  0  0  0  0
    6.7450   -2.7480   23.2680 C   0  0  0  0  0  0  0  0  0  0  0  0
    7.6770   -3.3340   22.2750 C   0  0  0  0  0  0  0  0  0  0  0  0
  1  2  1  0
  2  3  2  0
  2  4  1  0
  4  5  1  0
  5  6  1  0
  6  7  1  0
  7  8  1  0
  8  9  2  0
  8 10  1  0
 10 11  1  0
 11 12  1  0
 12 13  1  0
 13 14  1  0
 14 15  2  0
 15 16  1  0
 16 17  2  0
 17 18  1  0
 14 19  1  0
 18 19  2  0
 13 20  1  0
 20 21  2  0
 10 22  1  0
 20 22  1  0
  7 23  1  0
  4 24  1  0
 23 24  1  0
M  END
