piperidine-amides-1299-covalent
     RDKit          3D

 22 23  0  0  0  0  0  0  0  0999 V2000
    7.0560   -3.3260   19.3150 C   0  0  0  0  0  0  0  0  0  0  0  0
    6.3580   -4.1750   20.3220 C   0  0  0  0  0  0  0  0  0  0  0  0
    5.3570   -4.8190   19.9720 O   0  0  0  0  0  0  0  0  0  0  0  0
    6.8770   -4.2620   21.6300 N   0  0  0  0  0  0  0  0  0  0  0  0
    7.7290   -3.2380   22.1950 C   0  0  0  0  0  0  0  0  0  0  0  0
    6.9580   -2.6450   23.3650 C   0  0  0  0  0  0  0  0  0  0  0  0
    6.5120   -3.8030   24.1800 C   0  0  0  0  0  0  0  0  0  0  0  0
    5.7790   -3.3900   25.4060 C   0  0  0  0  0  0  0  0  0  0  0  0
    4.5360   -3.4550   25.4050 O   0  0  0  0  0  0  0  0  0  0  0  0
    6.5070   -2.9470   26.5110 N   0  0  0  0  0  0  0  0  0  0  0  0
    6.4520   -1.6930   27.1850 C   0  0  0  0  0  0  0  0  0  0  0  0
    6.9650   -1.5140   28.4630 C   0  0  0  0  0  0  0  0  0  0  0  0
    6.9300   -0.3000   29.1780 C   0  0  0  0  0  0  0  0  0  0  0  0
    7.4700   -0.2800   30.4220 F   0  0  0  0  0  0  0  0  0  0  0  0
    6.3640    0.8190   28.6230 C   0  0  0  0  0  0  0  0  0  0  0  0
    6.3820    1.9500   29.4050 F   0  0  0  0  0  0  0  0  0  0  0  0
    5.7970    0.7260   27.2720 C   0  0  0  0  0  0  0  0  0  0  0  0
    5.2360    1.8960   26.7620 F   0  0  0  0  0  0  0  0  0  0  0  0
    5.8500   -0.5990   26.5260 C   0  0  0  0  0  0  0  0  0  0  0  0
    5.3390   -0.7540   25.2680 F   0  0  0  0  0  0  0  0  0  0  0  0
    5.7320   -4.8600   23.4450 C   0  0  0  0  0  0  0  0  0  0  0  0
    6.5250   -5.3890   22.4420 C   0  0  0  0  0  0  0  0  0  0  0  0
  1  2  1  0
  2  3  2  0
  2  4  1  0
  4  5  1  0
  5  6  1  0
  6  7  1  0
  7  8  1  0
  8  9  2  0
  8 10  1  0
 10 11  1  0
 11 12  2  0
 12 13  1  0
 13 14  1  0
 13 15  2  0
 15 16  1  0
 15 17  1  0
 17 18  1  0
 11 19  1  0
 17 19  2  0
 19 20  1  0
  7 21  1  0
  4 22  1  0
 21 22  1  0
M  END
