piperidine-amides-2470-covalent
     RDKit          3D

 26 28  0  0  0  0  0  0  0  0999 V2000
    7.0730   -3.3110   19.2850 C   0  0  0  0  0  0  0  0  0  0  0  0
    6.3810   -4.1530   20.2960 C   0  0  0  0  0  0  0  0  0  0  0  0
    5.3590   -4.7390   19.9470 O   0  0  0  0  0  0  0  0  0  0  0  0
    6.9210   -4.2860   21.5740 N   0  0  0  0  0  0  0  0  0  0  0  0
    7.7200   -3.2440   22.1750 C   0  0  0  0  0  0  0  0  0  0  0  0
    6.9600   -2.6310   23.3060 C   0  0  0  0  0  0  0  0  0  0  0  0
    6.5550   -3.7610   24.2330 C   0  0  0  0  0  0  0  0  0  0  0  0
    5.8000   -3.1760   25.3500 C   0  0  0  0  0  0  0  0  0  0  0  0
    4.6320   -2.8020   25.1780 O   0  0  0  0  0  0  0  0  0  0  0  0
    6.4010   -3.0600   26.6140 N   0  0  0  0  0  0  0  0  0  0  0  0
    6.4460   -1.7920   27.3060 C   0  0  0  0  0  0  0  0  0  0  0  0
    5.8510   -0.5880   26.6650 C   0  0  0  0  0  0  0  0  0  0  0  0
    5.8210    0.6500   27.2170 C   0  0  0  0  0  0  0  0  0  0  0  0
    6.3930    0.7550   28.4590 C   0  0  0  0  0  0  0  0  0  0  0  0
    6.3770    2.0050   29.0530 O   0  0  0  0  0  0  0  0  0  0  0  0
    5.1090    2.5390   29.1500 C   0  0  0  0  0  0  0  0  0  0  0  0
    4.8200    2.7930   30.6190 C   0  0  0  0  0  0  0  0  0  0  0  0
    3.6110    3.2940   30.8840 N   0  0  0  0  0  0  0  0  0  0  0  0
    3.6100    3.4230   32.2440 O   0  0  0  0  0  0  0  0  0  0  0  0
    4.8750    2.9730   32.7650 C   0  0  0  0  0  0  0  0  0  0  0  0
    5.0930    3.0250   34.2520 C   0  0  0  0  0  0  0  0  0  0  0  0
    5.6180    2.5830   31.7240 N   0  0  0  0  0  0  0  0  0  0  0  0
    6.9990   -0.2820   29.1970 C   0  0  0  0  0  0  0  0  0  0  0  0
    7.0580   -1.6700   28.6300 C   0  0  0  0  0  0  0  0  0  0  0  0
    5.8890   -4.9210   23.5910 C   0  0  0  0  0  0  0  0  0  0  0  0
    6.5890   -5.4390   22.3870 C   0  0  0  0  0  0  0  0  0  0  0  0
  1  2  1  0
  2  3  2  0
  2  4  1  0
  4  5  1  0
  5  6  1  0
  6  7  1  0
  7  8  1  0
  8  9  2  0
  8 10  1  0
 10 11  1  0
 11 12  2  0
 12 13  1  0
 13 14  2  0
 14 15  1  0
 15 16  1  0
 16 17  1  0
 17 18  2  0
 18 19  1  0
 19 20  1  0
 20 21  1  0
 17 22  1  0
 20 22  2  0
 14 23  1  0
 11 24  1  0
 23 24  2  0
  7 25  1  0
  4 26  1  0
 25 26  1  0
M  END
