piperidine-amides-23729-covalent
     RDKit          3D

 24 26  0  0  0  0  0  0  0  0999 V2000
    7.0820   -3.2800   19.2490 C   0  0  0  0  0  0  0  0  0  0  0  0
    6.3440   -4.0320   20.2830 C   0  0  0  0  0  0  0  0  0  0  0  0
    5.2840   -4.5860   19.9020 O   0  0  0  0  0  0  0  0  0  0  0  0
    6.8130   -4.1840   21.6210 N   0  0  0  0  0  0  0  0  0  0  0  0
    7.6460   -3.1750   22.1920 C   0  0  0  0  0  0  0  0  0  0  0  0
    7.3160   -2.9350   23.5800 C   0  0  0  0  0  0  0  0  0  0  0  0
    6.1150   -3.6890   23.9640 C   0  0  0  0  0  0  0  0  0  0  0  0
    5.6000   -3.3440   25.3350 C   0  0  0  0  0  0  0  0  0  0  0  0
    4.3770   -3.4280   25.5350 O   0  0  0  0  0  0  0  0  0  0  0  0
    6.4210   -2.9070   26.3970 N   0  0  0  0  0  0  0  0  0  0  0  0
    6.8980   -1.5860   26.5370 C   0  0  0  0  0  0  0  0  0  0  0  0
    6.1980   -3.5730   27.6760 C   0  0  0  0  0  0  0  0  0  0  0  0
    5.2370   -4.7720   27.7000 C   0  0  0  0  0  0  0  0  0  0  0  0
    5.2110   -5.8930   26.9110 C   0  0  0  0  0  0  0  0  0  0  0  0
    4.0510   -6.9170   27.2310 C   0  0  0  0  0  0  0  0  0  0  0  0
    3.0440   -6.6300   28.3640 C   0  0  0  0  0  0  0  0  0  0  0  0
    3.2710   -5.3260   29.1070 C   0  0  0  0  0  0  0  0  0  0  0  0
    4.3520   -4.4010   28.7860 C   0  0  0  0  0  0  0  0  0  0  0  0
    2.4460   -4.9310   30.1530 O   0  0  0  0  0  0  0  0  0  0  0  0
    1.3350   -5.7940   30.3680 C   0  0  0  0  0  0  0  0  0  0  0  0
    1.5930   -7.2760   30.0200 C   0  0  0  0  0  0  0  0  0  0  0  0
    1.9560   -7.3780   28.8170 O   0  0  0  0  0  0  0  0  0  0  0  0
    6.3170   -5.1590   23.7420 C   0  0  0  0  0  0  0  0  0  0  0  0
    6.5690   -5.4050   22.3730 C   0  0  0  0  0  0  0  0  0  0  0  0
  1  2  1  0
  2  3  2  0
  2  4  1  0
  4  5  1  0
  5  6  1  0
  6  7  1  0
  7  8  1  0
  8  9  2  0
  8 10  1  0
 10 11  1  0
 10 12  1  0
 12 13  1  0
 13 14  2  0
 14 15  1  0
 15 16  2  0
 16 17  1  0
 13 18  1  0
 17 18  2  0
 17 19  1  0
 19 20  1  0
 20 21  1  0
 16 22  1  0
 21 22  1  0
  7 23  1  0
  4 24  1  0
 23 24  1  0
M  END
