piperidine-amides-26008-covalent
     RDKit          3D

 23 24  0  0  0  0  0  0  0  0999 V2000
    7.0690   -3.2770   19.2470 C   0  0  0  0  0  0  0  0  0  0  0  0
    6.3310   -4.0290   20.2670 C   0  0  0  0  0  0  0  0  0  0  0  0
    5.3100   -4.6490   19.9230 O   0  0  0  0  0  0  0  0  0  0  0  0
    6.7630   -4.1170   21.6020 N   0  0  0  0  0  0  0  0  0  0  0  0
    6.6560   -5.3350   22.3710 C   0  0  0  0  0  0  0  0  0  0  0  0
    5.9330   -4.9610   23.6370 C   0  0  0  0  0  0  0  0  0  0  0  0
    5.9840   -3.4800   23.9060 C   0  0  0  0  0  0  0  0  0  0  0  0
    5.5410   -3.1620   25.2930 C   0  0  0  0  0  0  0  0  0  0  0  0
    5.0530   -4.0850   26.0020 O   0  0  0  0  0  0  0  0  0  0  0  0
    5.5890   -1.8820   25.9100 N   0  0  0  0  0  0  0  0  0  0  0  0
    4.9010   -0.7090   25.4410 C   0  0  0  0  0  0  0  0  0  0  0  0
    6.1200   -0.1010   25.9860 C   0  0  0  0  0  0  0  0  0  0  0  0
    5.7160    1.0020   27.3510 P   0  0  0  0  0  0  0  0  0  0  0  0
    5.8120    2.4300   26.8510 O   0  0  0  0  0  0  0  0  0  0  0  0
    6.7590    0.8320   28.6560 O   0  0  0  0  0  0  0  0  0  0  0  0
    6.4200   -0.2940   29.4310 C   0  0  0  0  0  0  0  0  0  0  0  0
    7.5040   -1.3260   29.5490 C   0  0  0  0  0  0  0  0  0  0  0  0
    4.1260    0.7240   27.8440 O   0  0  0  0  0  0  0  0  0  0  0  0
    3.5940    1.8170   28.6010 C   0  0  0  0  0  0  0  0  0  0  0  0
    2.9560    1.2650   29.8220 C   0  0  0  0  0  0  0  0  0  0  0  0
    6.8030   -1.2690   26.3920 C   0  0  0  0  0  0  0  0  0  0  0  0
    7.3570   -2.9290   23.6170 C   0  0  0  0  0  0  0  0  0  0  0  0
    7.6520   -3.0900   22.1380 C   0  0  0  0  0  0  0  0  0  0  0  0
  1  2  1  0
  2  3  2  0
  2  4  1  0
  4  5  1  0
  5  6  1  0
  6  7  1  0
  7  8  1  0
  8  9  2  0
  8 10  1  0
 10 11  1  0
 11 12  1  0
 12 13  1  0
 13 14  2  0
 13 15  1  0
 15 16  1  0
 16 17  1  0
 13 18  1  0
 18 19  1  0
 19 20  1  0
 10 21  1  0
 12 21  1  0
  7 22  1  0
  4 23  1  0
 22 23  1  0
M  END
