piperidine-amides-10456-covalent
     RDKit          3D

 24 25  0  0  0  0  0  0  0  0999 V2000
    7.1060   -3.2670   19.2260 C   0  0  0  0  0  0  0  0  0  0  0  0
    6.3870   -4.0130   20.2660 C   0  0  0  0  0  0  0  0  0  0  0  0
    5.3250   -4.5870   19.9050 O   0  0  0  0  0  0  0  0  0  0  0  0
    6.8960   -4.1050   21.5690 N   0  0  0  0  0  0  0  0  0  0  0  0
    7.8040   -3.1000   22.0930 C   0  0  0  0  0  0  0  0  0  0  0  0
    7.4020   -2.8190   23.5020 C   0  0  0  0  0  0  0  0  0  0  0  0
    6.0560   -3.4260   23.7420 C   0  0  0  0  0  0  0  0  0  0  0  0
    5.5710   -3.1220   25.1030 C   0  0  0  0  0  0  0  0  0  0  0  0
    4.5250   -2.4470   25.2080 O   0  0  0  0  0  0  0  0  0  0  0  0
    6.1960   -3.5460   26.2840 N   0  0  0  0  0  0  0  0  0  0  0  0
    5.3980   -4.1680   27.3030 C   0  0  2  0  0  0  0  0  0  0  0  0
    6.1800   -4.3420   28.5890 C   0  0  0  0  0  0  0  0  0  0  0  0
    7.0940   -3.5570   28.8860 O   0  0  0  0  0  0  0  0  0  0  0  0
    5.8770   -5.3490   29.5130 O   0  0  0  0  0  0  0  0  0  0  0  0
    6.2240   -6.6910   29.2690 C   0  0  0  0  0  0  0  0  0  0  0  0
    5.2030   -7.4170   28.6960 C   0  0  0  0  0  0  0  0  0  0  0  0
    4.6470   -5.3390   26.7510 C   0  0  0  0  0  0  0  0  0  0  0  0
    3.5380   -5.7370   27.5080 C   0  0  0  0  0  0  0  0  0  0  0  0
    2.7060   -6.8130   27.1540 C   0  0  0  0  0  0  0  0  0  0  0  0
    2.9300   -7.6530   25.9050 C   0  0  0  0  0  0  0  0  0  0  0  0
    4.1370   -7.1650   25.1430 C   0  0  0  0  0  0  0  0  0  0  0  0
    4.9600   -6.0120   25.6060 C   0  0  0  0  0  0  0  0  0  0  0  0
    6.0910   -4.9190   23.5500 C   0  0  0  0  0  0  0  0  0  0  0  0
    6.7110   -5.3170   22.3780 C   0  0  0  0  0  0  0  0  0  0  0  0
  1  2  1  0
  2  3  2  0
  2  4  1  0
  4  5  1  0
  5  6  1  0
  6  7  1  0
  7  8  1  0
  8  9  2  0
  8 10  1  0
 11 10  1  6
 11 12  1  0
 12 13  2  0
 12 14  1  0
 14 15  1  0
 15 16  1  0
 11 17  1  0
 17 18  2  0
 18 19  1  0
 19 20  2  0
 20 21  1  0
 17 22  1  0
 21 22  2  0
  7 23  1  0
  4 24  1  0
 23 24  1  0
M  END
