piperidine-amides-10683-covalent
     RDKit          3D

 23 24  0  0  0  0  0  0  0  0999 V2000
    7.0200   -3.3330   19.3550 C   0  0  0  0  0  0  0  0  0  0  0  0
    6.3610   -4.1560   20.3800 C   0  0  0  0  0  0  0  0  0  0  0  0
    5.3880   -4.8540   19.9850 O   0  0  0  0  0  0  0  0  0  0  0  0
    6.8200   -4.1810   21.7090 N   0  0  0  0  0  0  0  0  0  0  0  0
    7.7260   -3.1700   22.2250 C   0  0  0  0  0  0  0  0  0  0  0  0
    7.4730   -3.0340   23.6940 C   0  0  0  0  0  0  0  0  0  0  0  0
    6.1350   -3.6140   24.0390 C   0  0  0  0  0  0  0  0  0  0  0  0
    5.6720   -3.2080   25.3930 C   0  0  0  0  0  0  0  0  0  0  0  0
    4.4410   -3.2510   25.6050 O   0  0  0  0  0  0  0  0  0  0  0  0
    6.5140   -2.7810   26.4430 N   0  0  0  0  0  0  0  0  0  0  0  0
    6.4360   -1.4440   27.0020 C   0  0  0  0  0  0  0  0  0  0  0  0
    5.9550   -0.3240   26.0960 C   0  0  0  0  0  0  0  0  0  0  0  0
    5.8510    0.9770   26.5430 C   0  0  0  0  0  0  0  0  0  0  0  0
    6.1870    1.3040   27.8370 C   0  0  0  0  0  0  0  0  0  0  0  0
    6.0870    2.9260   28.4790 Cl  0  0  0  0  0  0  0  0  0  0  0  0
    6.6180    0.2800   28.6400 C   0  0  0  0  0  0  0  0  0  0  0  0
    6.7530   -1.0420   28.2990 C   0  0  0  0  0  0  0  0  0  0  0  0
    7.1800   -1.8870   29.2550 C   0  0  0  0  0  0  0  0  0  0  0  0
    6.7390   -1.2110   30.3250 N   0  0  0  0  0  0  0  0  0  0  0  0
    5.4290   -1.4940   30.3550 C   0  0  0  0  0  0  0  0  0  0  0  0
    7.0800   -0.2110   31.2780 C   0  0  0  0  0  0  0  0  0  0  0  0
    6.1160   -5.1410   23.8430 C   0  0  0  0  0  0  0  0  0  0  0  0
    6.7220   -5.4320   22.4670 C   0  0  0  0  0  0  0  0  0  0  0  0
  1  2  1  0
  2  3  2  0
  2  4  1  0
  4  5  1  0
  5  6  1  0
  6  7  1  0
  7  8  1  0
  8  9  2  0
  8 10  1  0
 10 11  1  0
 11 12  2  0
 12 13  1  0
 13 14  2  0
 14 15  1  0
 14 16  1  0
 11 17  1  0
 16 17  2  0
 17 18  1  0
 18 19  1  0
 19 20  1  0
 19 21  1  0
  7 22  1  0
  4 23  1  0
 22 23  1  0
M  END
