piperidine-amides-13572-covalent
     RDKit          3D

 23 24  0  0  0  0  0  0  0  0999 V2000
    7.1210   -3.3500   19.2990 C   0  0  0  0  0  0  0  0  0  0  0  0
    6.3690   -4.1570   20.2880 C   0  0  0  0  0  0  0  0  0  0  0  0
    5.3130   -4.7100   19.9430 O   0  0  0  0  0  0  0  0  0  0  0  0
    6.9190   -4.3160   21.5710 N   0  0  0  0  0  0  0  0  0  0  0  0
    7.7550   -3.3150   22.1960 C   0  0  0  0  0  0  0  0  0  0  0  0
    6.8980   -2.6710   23.2750 C   0  0  0  0  0  0  0  0  0  0  0  0
    6.5010   -3.7720   24.1890 C   0  0  0  0  0  0  0  0  0  0  0  0
    5.7660   -3.2810   25.3750 C   0  0  0  0  0  0  0  0  0  0  0  0
    4.5310   -3.2650   25.3000 O   0  0  0  0  0  0  0  0  0  0  0  0
    6.4840   -2.8770   26.4970 N   0  0  0  0  0  0  0  0  0  0  0  0
    6.4590   -1.6370   27.1920 C   0  0  0  0  0  0  0  0  0  0  0  0
    6.9910   -1.5080   28.4740 C   0  0  0  0  0  0  0  0  0  0  0  0
    7.0130   -0.3290   29.2490 C   0  0  0  0  0  0  0  0  0  0  0  0
    6.4830    0.8440   28.7730 C   0  0  0  0  0  0  0  0  0  0  0  0
    5.9130    0.7620   27.4290 C   0  0  0  0  0  0  0  0  0  0  0  0
    5.2440    1.8810   26.6140 C   0  0  0  0  0  0  0  0  0  0  0  0
    5.9990    2.5980   25.6930 O   0  0  0  0  0  0  0  0  0  0  0  0
    3.9110    2.2320   26.7410 O   0  0  0  0  0  0  0  0  0  0  0  0
    3.0060    1.4670   27.5490 C   0  0  0  0  0  0  0  0  0  0  0  0
    5.9010   -0.4800   26.6350 C   0  0  0  0  0  0  0  0  0  0  0  0
    5.3240   -0.4220   25.3650 O   0  0  0  0  0  0  0  0  0  0  0  0
    5.7220   -4.8750   23.5520 C   0  0  0  0  0  0  0  0  0  0  0  0
    6.4960   -5.4350   22.3740 C   0  0  0  0  0  0  0  0  0  0  0  0
  1  2  1  0
  2  3  2  0
  2  4  1  0
  4  5  1  0
  5  6  1  0
  6  7  1  0
  7  8  1  0
  8  9  2  0
  8 10  1  0
 10 11  1  0
 11 12  2  0
 12 13  1  0
 13 14  2  0
 14 15  1  0
 15 16  1  0
 16 17  2  0
 16 18  1  0
 18 19  1  0
 11 20  1  0
 15 20  2  0
 20 21  1  0
  7 22  1  0
  4 23  1  0
 22 23  1  0
M  END
