piperidine-amides-31613-covalent
     RDKit          3D

 28 30  0  0  0  0  0  0  0  0999 V2000
    7.1340   -3.3710   19.4620 C   0  0  0  0  0  0  0  0  0  0  0  0
    6.3850   -4.1890   20.3810 C   0  0  0  0  0  0  0  0  0  0  0  0
    5.3460   -4.7870   19.9610 O   0  0  0  0  0  0  0  0  0  0  0  0
    6.8050   -4.3730   21.7090 N   0  0  0  0  0  0  0  0  0  0  0  0
    6.2220   -5.5070   22.4540 C   0  0  0  0  0  0  0  0  0  0  0  0
    5.4270   -4.7040   23.5580 C   0  0  0  0  0  0  0  0  0  0  0  0
    6.5280   -4.2360   24.4690 C   0  0  0  0  0  0  0  0  0  0  0  0
    6.0830   -3.2460   25.6570 C   0  0  0  0  0  0  0  0  0  0  0  0
    6.4280   -2.1170   25.3850 O   0  0  0  0  0  0  0  0  0  0  0  0
    5.4490   -3.8440   26.5960 N   0  0  0  0  0  0  0  0  0  0  0  0
    4.3790   -4.3780   27.1940 C   0  0  0  0  0  0  0  0  0  0  0  0
    4.1040   -5.4520   27.9570 C   0  0  0  0  0  0  0  0  0  0  0  0
    5.2300   -5.6310   28.8230 N   0  0  0  0  0  0  0  0  0  0  0  0
    5.1460   -5.8160   30.1540 C   0  0  0  0  0  0  0  0  0  0  0  0
    5.9810   -6.4990   31.0530 O   0  0  0  0  0  0  0  0  0  0  0  0
    3.9150   -5.2020   30.7440 C   0  0  0  0  0  0  0  0  0  0  0  0
    3.4470   -6.5350   31.3670 C   0  0  0  0  0  0  0  0  0  0  0  0
    4.2040   -6.6440   32.5540 C   0  0  0  0  0  0  0  0  0  0  0  0
    4.2270   -7.6600   33.5810 C   0  0  0  0  0  0  0  0  0  0  0  0
    3.1490   -8.6110   32.9810 C   0  0  0  0  0  0  0  0  0  0  0  0
    2.3120   -8.5000   31.6800 C   0  0  0  0  0  0  0  0  0  0  0  0
    2.5020   -7.4410   30.9090 C   0  0  0  0  0  0  0  0  0  0  0  0
    1.8350   -7.2150   29.7410 O   0  0  0  0  0  0  0  0  0  0  0  0
    2.1270   -8.0010   28.6160 C   0  0  0  0  0  0  0  0  0  0  0  0
    6.4380   -5.0150   28.3950 C   0  0  0  0  0  0  0  0  0  0  0  0
    6.2560   -3.7350   27.8230 C   0  0  0  0  0  0  0  0  0  0  0  0
    7.7590   -3.7170   23.8000 C   0  0  0  0  0  0  0  0  0  0  0  0
    7.5560   -3.3240   22.3670 C   0  0  0  0  0  0  0  0  0  0  0  0
  1  2  1  0
  2  3  2  0
  2  4  1  0
  4  5  1  0
  5  6  1  0
  6  7  1  0
  7  8  1  0
  8  9  2  0
  8 10  1  0
 10 11  1  0
 11 12  1  0
 12 13  1  0
 13 14  1  0
 14 15  2  0
 14 16  1  0
 16 17  1  0
 17 18  2  0
 18 19  1  0
 19 20  2  0
 20 21  1  0
 17 22  1  0
 21 22  2  0
 22 23  1  0
 23 24  1  0
 13 25  1  0
 10 26  1  0
 25 26  1  0
  7 27  1  0
  4 28  1  0
 27 28  1  0
M  END
