piperidine-amides-5217-covalent
     RDKit          3D

 21 22  0  0  0  0  0  0  0  0999 V2000
    7.0880   -3.2670   19.2350 C   0  0  0  0  0  0  0  0  0  0  0  0
    6.3770   -4.0530   20.2700 C   0  0  0  0  0  0  0  0  0  0  0  0
    5.3210   -4.6160   19.9130 O   0  0  0  0  0  0  0  0  0  0  0  0
    6.9010   -4.1930   21.5710 N   0  0  0  0  0  0  0  0  0  0  0  0
    7.6880   -3.1540   22.1520 C   0  0  0  0  0  0  0  0  0  0  0  0
    7.3220   -2.9040   23.5360 C   0  0  0  0  0  0  0  0  0  0  0  0
    6.0720   -3.5820   23.9210 C   0  0  0  0  0  0  0  0  0  0  0  0
    5.7210   -3.2190   25.3140 C   0  0  0  0  0  0  0  0  0  0  0  0
    4.5710   -3.4810   25.7160 O   0  0  0  0  0  0  0  0  0  0  0  0
    6.6470   -2.5750   26.1570 N   0  0  0  0  0  0  0  0  0  0  0  0
    6.2600   -1.9390   27.4350 C   0  0  0  0  0  0  0  0  0  0  0  0
    6.0820   -0.4630   27.3190 C   0  0  0  0  0  0  0  0  0  0  0  0
    6.0630    0.2980   26.0940 C   0  0  0  0  0  0  0  0  0  0  0  0
    5.8960    1.6480   26.0720 C   0  0  0  0  0  0  0  0  0  0  0  0
    5.8850    2.5960   24.4030 Br  0  0  0  0  0  0  0  0  0  0  0  0
    5.7330    2.3380   27.2630 C   0  0  0  0  0  0  0  0  0  0  0  0
    5.7380    1.6770   28.4760 C   0  0  0  0  0  0  0  0  0  0  0  0
    5.5040    2.7460   30.0340 Br  0  0  0  0  0  0  0  0  0  0  0  0
    5.9020    0.3140   28.6100 C   0  0  0  0  0  0  0  0  0  0  0  0
    6.0140   -5.0430   23.6180 C   0  0  0  0  0  0  0  0  0  0  0  0
    6.6020   -5.3580   22.3750 C   0  0  0  0  0  0  0  0  0  0  0  0
  1  2  1  0
  2  3  2  0
  2  4  1  0
  4  5  1  0
  5  6  1  0
  6  7  1  0
  7  8  1  0
  8  9  2  0
  8 10  1  0
 10 11  1  0
 11 12  1  0
 12 13  2  0
 13 14  1  0
 14 15  1  0
 14 16  2  0
 16 17  1  0
 17 18  1  0
 12 19  1  0
 17 19  2  0
  7 20  1  0
  4 21  1  0
 20 21  1  0
M  END
