piperidine-amides-6257-covalent
     RDKit          3D

 26 28  0  0  0  0  0  0  0  0999 V2000
    7.1250   -3.3500   19.3410 C   0  0  0  0  0  0  0  0  0  0  0  0
    6.4040   -4.1780   20.3160 C   0  0  0  0  0  0  0  0  0  0  0  0
    5.3740   -4.8030   19.9760 O   0  0  0  0  0  0  0  0  0  0  0  0
    6.9060   -4.3090   21.6160 N   0  0  0  0  0  0  0  0  0  0  0  0
    7.6840   -3.2310   22.1810 C   0  0  0  0  0  0  0  0  0  0  0  0
    6.8040   -2.6200   23.2630 C   0  0  0  0  0  0  0  0  0  0  0  0
    6.5860   -3.7180   24.2700 C   0  0  0  0  0  0  0  0  0  0  0  0
    5.8750   -3.1660   25.4420 C   0  0  0  0  0  0  0  0  0  0  0  0
    4.6680   -2.8710   25.3050 O   0  0  0  0  0  0  0  0  0  0  0  0
    6.5460   -2.9960   26.6790 N   0  0  0  0  0  0  0  0  0  0  0  0
    6.4880   -1.7410   27.3950 C   0  0  0  0  0  0  0  0  0  0  0  0
    6.1500   -0.5550   26.5390 C   0  0  0  0  0  0  0  0  0  0  0  0
    6.0630    0.6740   27.1280 C   0  0  0  0  0  0  0  0  0  0  0  0
    6.2870    0.7720   28.4860 C   0  0  0  0  0  0  0  0  0  0  0  0
    6.6030   -0.3190   29.3110 C   0  0  0  0  0  0  0  0  0  0  0  0
    6.7830   -0.1020   30.6730 C   0  0  0  0  0  0  0  0  0  0  0  0
    5.5980   -0.2340   31.6040 C   0  0  0  0  0  0  0  0  0  0  0  0
    6.2490    0.0980   32.9570 C   0  0  0  0  0  0  0  0  0  0  0  0
    7.5830    0.4820   33.5790 C   0  0  0  0  0  0  0  0  0  0  0  0
    8.0050    0.8110   35.2630 Cl  0  0  0  0  0  0  0  0  0  0  0  0
    8.4180    0.5050   32.3900 C   0  0  0  0  0  0  0  0  0  0  0  0
   10.0870    0.9340   32.7080 Cl  0  0  0  0  0  0  0  0  0  0  0  0
    8.0690    0.2410   31.0850 C   0  0  0  0  0  0  0  0  0  0  0  0
    6.7030   -1.5710   28.7310 C   0  0  0  0  0  0  0  0  0  0  0  0
    5.7760   -4.8660   23.6890 C   0  0  0  0  0  0  0  0  0  0  0  0
    6.4600   -5.3940   22.4450 C   0  0  0  0  0  0  0  0  0  0  0  0
  1  2  1  0
  2  3  2  0
  2  4  1  0
  4  5  1  0
  5  6  1  0
  6  7  1  0
  7  8  1  0
  8  9  2  0
  8 10  1  0
 10 11  1  0
 11 12  2  0
 12 13  1  0
 13 14  2  0
 14 15  1  0
 15 16  1  0
 16 17  2  0
 17 18  1  0
 18 19  2  0
 19 20  1  0
 19 21  1  0
 21 22  1  0
 16 23  1  0
 21 23  2  0
 11 24  1  0
 15 24  2  0
  7 25  1  0
  4 26  1  0
 25 26  1  0
M  END
