piperidine-amides-1668-covalent
     RDKit          3D

 20 20  0  0  0  0  0  0  0  0999 V2000
    7.1250   -3.2710   19.2370 C   0  0  0  0  0  0  0  0  0  0  0  0
    6.3790   -4.0570   20.2580 C   0  0  0  0  0  0  0  0  0  0  0  0
    5.3390   -4.6520   19.9280 O   0  0  0  0  0  0  0  0  0  0  0  0
    6.9030   -4.1410   21.5630 N   0  0  0  0  0  0  0  0  0  0  0  0
    7.7390   -3.1050   22.1230 C   0  0  0  0  0  0  0  0  0  0  0  0
    6.9400   -2.5130   23.2770 C   0  0  0  0  0  0  0  0  0  0  0  0
    6.6070   -3.6670   24.1480 C   0  0  0  0  0  0  0  0  0  0  0  0
    5.9000   -3.2580   25.3780 C   0  0  0  0  0  0  0  0  0  0  0  0
    4.8120   -2.6830   25.2400 O   0  0  0  0  0  0  0  0  0  0  0  0
    6.4790   -3.5410   26.6140 N   0  0  0  0  0  0  0  0  0  0  0  0
    6.7510   -4.8590   27.0470 C   0  0  2  0  0  0  0  0  0  0  0  0
    5.9720   -5.8840   26.6620 C   0  0  0  0  0  0  0  0  0  0  0  0
    6.7370   -4.9530   28.5620 C   0  0  0  0  0  0  0  0  0  0  0  0
    6.2410   -6.0930   29.1800 C   0  0  0  0  0  0  0  0  0  0  0  0
    4.8380   -6.5730   28.9710 C   0  0  0  0  0  0  0  0  0  0  0  0
    4.4810   -7.1190   27.8070 O   0  0  0  0  0  0  0  0  0  0  0  0
    3.9060   -6.4890   29.9900 O   0  0  0  0  0  0  0  0  0  0  0  0
    3.1340   -7.6340   30.3100 C   0  0  0  0  0  0  0  0  0  0  0  0
    5.8080   -4.7390   23.4550 C   0  0  0  0  0  0  0  0  0  0  0  0
    6.5340   -5.2520   22.3920 C   0  0  0  0  0  0  0  0  0  0  0  0
  1  2  1  0
  2  3  2  0
  2  4  1  0
  4  5  1  0
  5  6  1  0
  6  7  1  0
  7  8  1  0
  8  9  2  0
  8 10  1  0
 10 11  1  0
 11 12  1  6
 11 13  1  0
 13 14  1  0
 14 15  1  0
 15 16  2  0
 15 17  1  0
 17 18  1  0
  7 19  1  0
  4 20  1  0
 19 20  1  0
M  END
