piperidine-amides-29192-covalent
     RDKit          3D

 27 29  0  0  0  0  0  0  0  0999 V2000
    7.0580   -3.3320   19.3240 C   0  0  0  0  0  0  0  0  0  0  0  0
    6.3940   -4.1680   20.3260 C   0  0  0  0  0  0  0  0  0  0  0  0
    5.3830   -4.8010   19.9750 O   0  0  0  0  0  0  0  0  0  0  0  0
    6.9260   -4.2760   21.6410 N   0  0  0  0  0  0  0  0  0  0  0  0
    7.7550   -3.2090   22.1510 C   0  0  0  0  0  0  0  0  0  0  0  0
    7.6130   -3.1240   23.6400 C   0  0  0  0  0  0  0  0  0  0  0  0
    6.2350   -3.6610   23.9140 C   0  0  0  0  0  0  0  0  0  0  0  0
    5.6680   -3.1340   25.1940 C   0  0  0  0  0  0  0  0  0  0  0  0
    4.5170   -2.7140   25.1110 O   0  0  0  0  0  0  0  0  0  0  0  0
    6.4120   -3.1610   26.3680 N   0  0  0  0  0  0  0  0  0  0  0  0
    6.4960   -1.9370   27.1350 C   0  0  0  0  0  0  0  0  0  0  0  0
    7.1200   -1.8450   28.3770 C   0  0  0  0  0  0  0  0  0  0  0  0
    7.1740   -0.6650   29.1080 C   0  0  0  0  0  0  0  0  0  0  0  0
    6.6240    0.5670   28.7050 C   0  0  0  0  0  0  0  0  0  0  0  0
    5.9440    0.5350   27.3670 C   0  0  0  0  0  0  0  0  0  0  0  0
    5.8780   -0.7620   26.5510 C   0  0  0  0  0  0  0  0  0  0  0  0
    5.2750   -0.6210   25.4550 O   0  0  0  0  0  0  0  0  0  0  0  0
    3.9200   -0.4600   25.5720 C   0  0  0  0  0  0  0  0  0  0  0  0
    6.1050   -4.3590   27.1440 C   0  0  0  0  0  0  0  0  0  0  0  0
    4.6210   -4.7470   27.2090 C   0  0  0  0  0  0  0  0  0  0  0  0
    4.2180   -5.8420   27.8970 C   0  0  0  0  0  0  0  0  0  0  0  0
    5.1010   -6.6390   28.5600 C   0  0  0  0  0  0  0  0  0  0  0  0
    6.4150   -6.3920   28.5710 N   0  0  0  0  0  0  0  0  0  0  0  0
    6.9540   -5.2330   27.8500 C   0  0  0  0  0  0  0  0  0  0  0  0
    8.4420   -5.1190   27.9590 C   0  0  0  0  0  0  0  0  0  0  0  0
    6.3110   -5.1740   23.8630 C   0  0  0  0  0  0  0  0  0  0  0  0
    6.6280   -5.4890   22.3910 C   0  0  0  0  0  0  0  0  0  0  0  0
  1  2  1  0
  2  3  2  0
  2  4  1  0
  4  5  1  0
  5  6  1  0
  6  7  1  0
  7  8  1  0
  8  9  2  0
  8 10  1  0
 10 11  1  0
 11 12  2  0
 12 13  1  0
 13 14  2  0
 14 15  1  0
 11 16  1  0
 15 16  2  0
 16 17  1  0
 17 18  1  0
 10 19  1  0
 19 20  2  0
 20 21  1  0
 21 22  2  0
 22 23  1  0
 19 24  1  0
 23 24  2  0
 24 25  1  0
  7 26  1  0
  4 27  1  0
 26 27  1  0
M  END
