piperidine-amides-11774-covalent
     RDKit          3D

 32 35  0  0  0  0  0  0  0  0999 V2000
    7.0740   -3.3280   19.3440 C   0  0  0  0  0  0  0  0  0  0  0  0
    6.3730   -4.1650   20.3140 C   0  0  0  0  0  0  0  0  0  0  0  0
    5.3770   -4.8020   19.9710 O   0  0  0  0  0  0  0  0  0  0  0  0
    6.8730   -4.2870   21.6550 N   0  0  0  0  0  0  0  0  0  0  0  0
    7.7240   -3.2570   22.2170 C   0  0  0  0  0  0  0  0  0  0  0  0
    7.3930   -2.9620   23.6540 C   0  0  0  0  0  0  0  0  0  0  0  0
    6.0780   -3.6350   23.9950 C   0  0  0  0  0  0  0  0  0  0  0  0
    5.6030   -3.2270   25.3410 C   0  0  0  0  0  0  0  0  0  0  0  0
    4.3940   -3.2020   25.6360 O   0  0  0  0  0  0  0  0  0  0  0  0
    6.5520   -2.8510   26.3130 N   0  0  0  0  0  0  0  0  0  0  0  0
    6.4210   -1.5780   26.9810 C   0  0  0  0  0  0  0  0  0  0  0  0
    6.9590   -1.6170   28.3850 C   0  0  0  0  0  0  0  0  0  0  0  0
    6.9290   -0.5020   29.2050 C   0  0  0  0  0  0  0  0  0  0  0  0
    6.3860    0.7190   28.7520 C   0  0  0  0  0  0  0  0  0  0  0  0
    6.3490    1.8350   29.5670 C   0  0  0  0  0  0  0  0  0  0  0  0
    5.4060    1.7960   30.6400 N   0  0  0  0  0  0  0  0  0  0  0  0
    4.1730    1.0750   30.5480 C   0  0  0  0  0  0  0  0  0  0  0  0
    3.2040    1.7600   31.2540 C   0  0  0  0  0  0  0  0  0  0  0  0
    3.5660    1.6860   32.5830 N   0  0  0  0  0  0  0  0  0  0  0  0
    3.3390    2.7790   33.5210 C   0  0  0  0  0  0  0  0  0  0  0  0
    3.1390    2.5440   34.8800 C   0  0  0  0  0  0  0  0  0  0  0  0
    4.2510    2.6700   35.8710 C   0  0  0  0  0  0  0  0  0  0  0  0
    4.2160    2.4730   37.2520 C   0  0  0  0  0  0  0  0  0  0  0  0
    3.0270    2.1140   37.8360 C   0  0  0  0  0  0  0  0  0  0  0  0
    1.8360    1.9490   36.9930 C   0  0  0  0  0  0  0  0  0  0  0  0
    1.9130    2.1730   35.4850 C   0  0  0  0  0  0  0  0  0  0  0  0
    4.8800    1.1150   32.8440 C   0  0  0  0  0  0  0  0  0  0  0  0
    5.9130    1.6730   31.9250 C   0  0  0  0  0  0  0  0  0  0  0  0
    5.8840    0.8080   27.4820 C   0  0  0  0  0  0  0  0  0  0  0  0
    5.9060   -0.3900   26.5640 C   0  0  0  0  0  0  0  0  0  0  0  0
    6.0810   -5.1100   23.7600 C   0  0  0  0  0  0  0  0  0  0  0  0
    6.6380   -5.4760   22.4420 C   0  0  0  0  0  0  0  0  0  0  0  0
  1  2  1  0
  2  3  2  0
  2  4  1  0
  4  5  1  0
  5  6  1  0
  6  7  1  0
  7  8  1  0
  8  9  2  0
  8 10  1  0
 10 11  1  0
 11 12  2  0
 12 13  1  0
 13 14  2  0
 14 15  1  0
 15 16  1  0
 16 17  1  0
 17 18  1  0
 18 19  1  0
 19 20  1  0
 20 21  1  0
 21 22  2  0
 22 23  1  0
 23 24  2  0
 24 25  1  0
 21 26  1  0
 25 26  2  0
 19 27  1  0
 16 28  1  0
 27 28  1  0
 14 29  1  0
 11 30  1  0
 29 30  2  0
  7 31  1  0
  4 32  1  0
 31 32  1  0
M  END
