piperidine-amides-24764-covalent
     RDKit          3D

 24 25  0  0  0  0  0  0  0  0999 V2000
    7.0550   -3.3360   19.4070 C   0  0  0  0  0  0  0  0  0  0  0  0
    6.3280   -4.1700   20.3750 C   0  0  0  0  0  0  0  0  0  0  0  0
    5.3650   -4.8680   19.9860 O   0  0  0  0  0  0  0  0  0  0  0  0
    6.7210   -4.2350   21.7230 N   0  0  0  0  0  0  0  0  0  0  0  0
    7.6170   -3.2050   22.2360 C   0  0  0  0  0  0  0  0  0  0  0  0
    7.4230   -3.0840   23.7510 C   0  0  0  0  0  0  0  0  0  0  0  0
    6.1240   -3.7920   24.0440 C   0  0  0  0  0  0  0  0  0  0  0  0
    5.5700   -3.4530   25.3840 C   0  0  0  0  0  0  0  0  0  0  0  0
    4.3300   -3.5320   25.5030 O   0  0  0  0  0  0  0  0  0  0  0  0
    6.3660   -3.0500   26.4950 N   0  0  0  0  0  0  0  0  0  0  0  0
    6.2990   -3.8310   27.7140 C   0  0  0  0  0  0  0  0  0  0  0  0
    6.1740   -5.3200   27.4300 C   0  0  0  0  0  0  0  0  0  0  0  0
    6.3160   -1.6190   26.7570 C   0  0  0  0  0  0  0  0  0  0  0  0
    6.7460   -0.9060   27.8930 N   0  0  0  0  0  0  0  0  0  0  0  0
    6.4890    0.3810   27.7010 N   0  0  0  0  0  0  0  0  0  0  0  0
    5.9110    0.5420   26.4920 C   0  0  0  0  0  0  0  0  0  0  0  0
    5.4920    1.7520   25.9330 C   0  0  0  0  0  0  0  0  0  0  0  0
    6.2490    2.3480   24.9760 O   0  0  0  0  0  0  0  0  0  0  0  0
    4.3130    2.3520   26.3380 O   0  0  0  0  0  0  0  0  0  0  0  0
    3.4790    3.0530   25.4280 C   0  0  0  0  0  0  0  0  0  0  0  0
    2.4190    2.1250   24.8740 C   0  0  0  0  0  0  0  0  0  0  0  0
    5.8220   -0.7220   25.9380 O   0  0  0  0  0  0  0  0  0  0  0  0
    6.2080   -5.2560   23.8060 C   0  0  0  0  0  0  0  0  0  0  0  0
    6.6880   -5.5190   22.4130 C   0  0  0  0  0  0  0  0  0  0  0  0
  1  2  1  0
  2  3  2  0
  2  4  1  0
  4  5  1  0
  5  6  1  0
  6  7  1  0
  7  8  1  0
  8  9  2  0
  8 10  1  0
 10 11  1  0
 11 12  1  0
 10 13  1  0
 13 14  2  0
 14 15  1  0
 15 16  2  0
 16 17  1  0
 17 18  2  0
 17 19  1  0
 19 20  1  0
 20 21  1  0
 13 22  1  0
 16 22  1  0
  7 23  1  0
  4 24  1  0
 23 24  1  0
M  END
