piperidine-amides-9022-covalent
     RDKit          3D

 21 22  0  0  0  0  0  0  0  0999 V2000
    7.1170   -3.2720   19.2080 C   0  0  0  0  0  0  0  0  0  0  0  0
    6.3650   -4.0060   20.2260 C   0  0  0  0  0  0  0  0  0  0  0  0
    5.3180   -4.5960   19.9050 O   0  0  0  0  0  0  0  0  0  0  0  0
    6.8390   -4.0880   21.5390 N   0  0  0  0  0  0  0  0  0  0  0  0
    7.7360   -3.1070   22.1040 C   0  0  0  0  0  0  0  0  0  0  0  0
    6.9910   -2.5170   23.2580 C   0  0  0  0  0  0  0  0  0  0  0  0
    6.6140   -3.5880   24.2290 C   0  0  0  0  0  0  0  0  0  0  0  0
    5.9320   -3.0220   25.4190 C   0  0  0  0  0  0  0  0  0  0  0  0
    4.7420   -3.3740   25.6950 O   0  0  0  0  0  0  0  0  0  0  0  0
    6.5490   -2.0730   26.2840 N   0  0  0  0  0  0  0  0  0  0  0  0
    6.2960   -2.0890   27.7470 C   0  0  0  0  0  0  0  0  0  0  0  0
    6.1030   -0.7060   28.2820 C   0  0  0  0  0  0  0  0  0  0  0  0
    7.0580   -0.2060   28.9640 O   0  0  0  0  0  0  0  0  0  0  0  0
    7.7400   -1.0410   29.7720 C   0  0  0  0  0  0  0  0  0  0  0  0
    5.8280    0.2350   27.1290 C   0  0  0  0  0  0  0  0  0  0  0  0
    5.6970    1.6760   27.5830 C   0  0  0  0  0  0  0  0  0  0  0  0
    4.8360    1.8070   28.5240 O   0  0  0  0  0  0  0  0  0  0  0  0
    4.4320    0.6500   29.1910 C   0  0  0  0  0  0  0  0  0  0  0  0
    4.9550   -0.6080   29.0330 C   0  0  0  0  0  0  0  0  0  0  0  0
    5.7650   -4.6610   23.5780 C   0  0  0  0  0  0  0  0  0  0  0  0
    6.4970   -5.2240   22.3730 C   0  0  0  0  0  0  0  0  0  0  0  0
  1  2  1  0
  2  3  2  0
  2  4  1  0
  4  5  1  0
  5  6  1  0
  6  7  1  0
  7  8  1  0
  8  9  2  0
  8 10  1  0
 10 11  1  0
 11 12  1  0
 12 13  1  0
 13 14  1  0
 12 15  1  0
 15 16  1  0
 16 17  1  0
 17 18  1  0
 12 19  1  0
 18 19  1  0
  7 20  1  0
  4 21  1  0
 20 21  1  0
M  END
