piperidine-amides-10145-covalent
     RDKit          3D

 25 27  0  0  0  0  0  0  0  0999 V2000
    7.1140   -3.3550   19.3410 C   0  0  0  0  0  0  0  0  0  0  0  0
    6.4080   -4.1740   20.3230 C   0  0  0  0  0  0  0  0  0  0  0  0
    5.3310   -4.7020   19.9410 O   0  0  0  0  0  0  0  0  0  0  0  0
    6.9560   -4.3930   21.5890 N   0  0  0  0  0  0  0  0  0  0  0  0
    6.5610   -5.5060   22.4020 C   0  0  0  0  0  0  0  0  0  0  0  0
    5.8420   -4.9580   23.6060 C   0  0  0  0  0  0  0  0  0  0  0  0
    6.5690   -3.7830   24.2150 C   0  0  0  0  0  0  0  0  0  0  0  0
    5.8330   -3.2590   25.3830 C   0  0  0  0  0  0  0  0  0  0  0  0
    4.5910   -3.1420   25.3060 O   0  0  0  0  0  0  0  0  0  0  0  0
    6.4850   -2.8940   26.5670 N   0  0  0  0  0  0  0  0  0  0  0  0
    6.0350   -1.8180   27.4070 C   0  0  0  0  0  0  0  0  0  0  0  0
    5.8660   -0.4770   26.7120 C   0  0  0  0  0  0  0  0  0  0  0  0
    5.9220    0.7390   27.3820 C   0  0  0  0  0  0  0  0  0  0  0  0
    6.2470    0.8570   28.7170 N   0  0  0  0  0  0  0  0  0  0  0  0
    5.8690    1.9620   29.3910 C   0  0  0  0  0  0  0  0  0  0  0  0
    5.4690    1.8290   30.6320 O   0  0  0  0  0  0  0  0  0  0  0  0
    5.8910    3.2210   28.8090 C   0  0  0  0  0  0  0  0  0  0  0  0
    5.7080    4.4170   29.2700 C   0  0  0  0  0  0  0  0  0  0  0  0
    5.6920    5.4660   28.9590 N   0  0  0  0  0  0  0  0  0  0  0  0
    5.9810    5.1320   27.6490 N   0  0  0  0  0  0  0  0  0  0  0  0
    6.1090    3.6950   27.5500 C   0  0  0  0  0  0  0  0  0  0  0  0
    6.7050   -0.2320   29.3620 C   0  0  0  0  0  0  0  0  0  0  0  0
    6.9400   -1.4220   28.4590 C   0  0  0  0  0  0  0  0  0  0  0  0
    6.8260   -2.6670   23.2020 C   0  0  0  0  0  0  0  0  0  0  0  0
    7.7520   -3.3530   22.2290 C   0  0  0  0  0  0  0  0  0  0  0  0
  1  2  1  0
  2  3  2  0
  2  4  1  0
  4  5  1  0
  5  6  1  0
  6  7  1  0
  7  8  1  0
  8  9  2  0
  8 10  1  0
 10 11  1  0
 11 12  1  0
 12 13  1  0
 13 14  1  0
 14 15  1  0
 15 16  2  0
 15 17  1  0
 17 18  1  0
 18 19  2  0
 19 20  1  0
 17 21  2  0
 20 21  1  0
 14 22  1  0
 11 23  1  0
 22 23  1  0
  7 24  1  0
  4 25  1  0
 24 25  1  0
M  END
