piperidine-amides-33046-covalent
     RDKit          3D

 28 31  0  0  0  0  0  0  0  0999 V2000
    6.9780   -3.3510   19.4280 C   0  0  0  0  0  0  0  0  0  0  0  0
    6.3180   -4.2550   20.4200 C   0  0  0  0  0  0  0  0  0  0  0  0
    5.4000   -4.9840   20.0060 O   0  0  0  0  0  0  0  0  0  0  0  0
    6.7490   -4.2920   21.7750 N   0  0  0  0  0  0  0  0  0  0  0  0
    6.5540   -5.4850   22.5770 C   0  0  0  0  0  0  0  0  0  0  0  0
    5.9990   -5.1000   23.9730 C   0  0  0  0  0  0  0  0  0  0  0  0
    5.9170   -3.6060   24.0840 C   0  0  0  0  0  0  0  0  0  0  0  0
    5.1030   -3.0410   25.2500 C   0  0  0  0  0  0  0  0  0  0  0  0
    4.4460   -2.0510   24.9550 O   0  0  0  0  0  0  0  0  0  0  0  0
    5.0560   -3.5640   26.5760 N   0  0  0  0  0  0  0  0  0  0  0  0
    4.4820   -3.0200   27.7320 C   0  0  0  0  0  0  0  0  0  0  0  0
    4.9570   -3.4250   28.9710 C   0  0  0  0  0  0  0  0  0  0  0  0
    5.1320   -4.8740   28.9260 N   0  0  0  0  0  0  0  0  0  0  0  0
    4.4390   -5.8110   29.6920 C   0  0  0  0  0  0  0  0  0  0  0  0
    4.9150   -6.3650   30.8100 N   0  0  0  0  0  0  0  0  0  0  0  0
    3.9940   -7.1900   31.2610 N   0  0  0  0  0  0  0  0  0  0  0  0
    4.1910   -7.8980   32.4060 C   0  0  0  0  0  0  0  0  0  0  0  0
    5.4540   -7.8580   33.1840 C   0  0  0  0  0  0  0  0  0  0  0  0
    3.2140   -8.7400   32.9610 C   0  0  0  0  0  0  0  0  0  0  0  0
    1.8860   -8.8680   32.2490 C   0  0  0  0  0  0  0  0  0  0  0  0
    1.0480   -9.7370   32.9260 O   0  0  0  0  0  0  0  0  0  0  0  0
    1.5970   -8.1620   31.0290 N   0  0  0  0  0  0  0  0  0  0  0  0
    2.6810   -7.3480   30.5850 C   0  0  0  0  0  0  0  0  0  0  0  0
    2.8980   -6.3250   29.2400 S   0  0  0  0  0  0  0  0  0  0  0  0
    6.3580   -4.7420   28.2220 C   0  0  0  0  0  0  0  0  0  0  0  0
    6.2250   -4.2130   26.7960 C   0  0  0  0  0  0  0  0  0  0  0  0
    7.2880   -3.1150   23.8570 C   0  0  0  0  0  0  0  0  0  0  0  0
    7.5340   -3.2100   22.3300 C   0  0  0  0  0  0  0  0  0  0  0  0
  1  2  1  0
  2  3  2  0
  2  4  1  0
  4  5  1  0
  5  6  1  0
  6  7  1  0
  7  8  1  0
  8  9  2  0
  8 10  1  0
 10 11  1  0
 11 12  1  0
 12 13  1  0
 13 14  1  0
 14 15  2  0
 15 16  1  0
 16 17  1  0
 17 18  1  0
 17 19  2  0
 19 20  1  0
 20 21  2  0
 20 22  1  0
 16 23  1  0
 22 23  2  0
 14 24  1  0
 23 24  1  0
 13 25  1  0
 10 26  1  0
 25 26  1  0
  7 27  1  0
  4 28  1  0
 27 28  1  0
M  END
