piperidine-amides-13882-covalent
     RDKit          3D

 26 27  0  0  0  0  0  0  0  0999 V2000
    7.1680   -3.2740   19.2180 C   0  0  0  0  0  0  0  0  0  0  0  0
    6.3430   -4.0050   20.2140 C   0  0  0  0  0  0  0  0  0  0  0  0
    5.2590   -4.5010   19.8640 O   0  0  0  0  0  0  0  0  0  0  0  0
    6.8470   -4.1620   21.5140 N   0  0  0  0  0  0  0  0  0  0  0  0
    7.7390   -3.2060   22.1400 C   0  0  0  0  0  0  0  0  0  0  0  0
    6.9890   -2.5840   23.3160 C   0  0  0  0  0  0  0  0  0  0  0  0
    6.5980   -3.6980   24.2240 C   0  0  0  0  0  0  0  0  0  0  0  0
    5.8550   -3.2260   25.4150 C   0  0  0  0  0  0  0  0  0  0  0  0
    4.6380   -3.0430   25.2720 O   0  0  0  0  0  0  0  0  0  0  0  0
    6.5390   -2.9970   26.6220 N   0  0  0  0  0  0  0  0  0  0  0  0
    7.7600   -3.5870   27.0260 C   0  0  0  0  0  0  0  0  0  0  0  0
    7.9460   -4.9400   27.1500 C   0  0  0  0  0  0  0  0  0  0  0  0
    8.7600   -5.4270   28.1540 C   0  0  0  0  0  0  0  0  0  0  0  0
    8.5280   -5.5070   25.8820 C   0  0  0  0  0  0  0  0  0  0  0  0
    6.6430   -5.5620   27.4230 C   0  0  0  0  0  0  0  0  0  0  0  0
    5.6010   -6.0090   26.3640 C   0  0  0  0  0  0  0  0  0  0  0  0
    4.2860   -6.6510   26.8620 C   0  0  0  0  0  0  0  0  0  0  0  0
    4.0830   -6.7960   28.2140 C   0  0  0  0  0  0  0  0  0  0  0  0
    5.0540   -6.3720   29.2130 C   0  0  0  0  0  0  0  0  0  0  0  0
    4.4660   -6.6870   30.5830 C   0  0  0  0  0  0  0  0  0  0  0  0
    3.5160   -7.6700   30.6040 F   0  0  0  0  0  0  0  0  0  0  0  0
    3.8280   -5.6310   31.1830 F   0  0  0  0  0  0  0  0  0  0  0  0
    5.4800   -7.0730   31.4280 F   0  0  0  0  0  0  0  0  0  0  0  0
    6.3250   -5.7580   28.7520 C   0  0  0  0  0  0  0  0  0  0  0  0
    5.7710   -4.7690   23.5650 C   0  0  0  0  0  0  0  0  0  0  0  0
    6.4360   -5.2920   22.3150 C   0  0  0  0  0  0  0  0  0  0  0  0
  1  2  1  0
  2  3  2  0
  2  4  1  0
  4  5  1  0
  5  6  1  0
  6  7  1  0
  7  8  1  0
  8  9  2  0
  8 10  1  0
 10 11  1  0
 12 11  1  0
 12 13  1  0
 12 14  1  0
 12 15  1  0
 15 16  2  0
 16 17  1  0
 17 18  2  0
 18 19  1  0
 19 20  1  0
 20 21  1  0
 20 22  1  0
 20 23  1  0
 15 24  1  0
 19 24  2  0
  7 25  1  0
  4 26  1  0
 25 26  1  0
M  END
