piperidine-amides-28879-covalent
     RDKit          3D

 25 26  0  0  0  0  0  0  0  0999 V2000
    7.0750   -3.3180   19.3110 C   0  0  0  0  0  0  0  0  0  0  0  0
    6.3970   -4.1500   20.3030 C   0  0  0  0  0  0  0  0  0  0  0  0
    5.3570   -4.7340   19.9560 O   0  0  0  0  0  0  0  0  0  0  0  0
    6.9550   -4.3190   21.6030 N   0  0  0  0  0  0  0  0  0  0  0  0
    6.5170   -5.4220   22.3960 C   0  0  0  0  0  0  0  0  0  0  0  0
    5.6740   -4.8860   23.5160 C   0  0  0  0  0  0  0  0  0  0  0  0
    6.5010   -3.8950   24.3230 C   0  0  0  0  0  0  0  0  0  0  0  0
    5.6840   -3.4380   25.5110 C   0  0  0  0  0  0  0  0  0  0  0  0
    4.4880   -3.2840   25.2730 O   0  0  0  0  0  0  0  0  0  0  0  0
    6.2580   -3.2070   26.7770 N   0  0  0  0  0  0  0  0  0  0  0  0
    6.0930   -4.1570   27.8480 C   0  0  0  0  0  0  0  0  0  0  0  0
    5.8930   -5.5260   27.5830 C   0  0  0  0  0  0  0  0  0  0  0  0
    4.6070   -5.9690   27.4310 C   0  0  0  0  0  0  0  0  0  0  0  0
    6.3600   -6.4180   28.6560 C   0  0  0  0  0  0  0  0  0  0  0  0
    5.9890   -1.7600   27.2750 C   0  0  1  0  0  0  0  0  0  0  0  0
    6.9010   -1.7990   28.5270 C   0  0  0  0  0  0  0  0  0  0  0  0
    6.0180   -0.6060   26.5140 C   0  0  0  0  0  0  0  0  0  0  0  0
    6.0010   -0.6920   25.0180 C   0  0  0  0  0  0  0  0  0  0  0  0
    6.0330    0.6400   24.2450 C   0  0  0  0  0  0  0  0  0  0  0  0
    6.0730    1.8600   24.8500 C   0  0  0  0  0  0  0  0  0  0  0  0
    6.0830    1.9290   26.2230 C   0  0  0  0  0  0  0  0  0  0  0  0
    6.0550    0.6750   27.0840 C   0  0  0  0  0  0  0  0  0  0  0  0
    6.0660    0.8390   28.8230 Cl  0  0  0  0  0  0  0  0  0  0  0  0
    6.8940   -2.7120   23.4160 C   0  0  0  0  0  0  0  0  0  0  0  0
    7.6830   -3.2840   22.2590 C   0  0  0  0  0  0  0  0  0  0  0  0
  1  2  1  0
  2  3  2  0
  2  4  1  0
  4  5  1  0
  5  6  1  0
  6  7  1  0
  7  8  1  0
  8  9  2  0
  8 10  1  0
 10 11  1  0
 11 12  1  0
 12 13  1  0
 12 14  1  0
 10 15  1  0
 15 16  1  1
 15 17  1  0
 17 18  2  0
 18 19  1  0
 19 20  2  0
 20 21  1  0
 17 22  1  0
 21 22  2  0
 22 23  1  0
  7 24  1  0
  4 25  1  0
 24 25  1  0
M  END
