piperidine-amides-24035-covalent
     RDKit          3D

 24 25  0  0  0  0  0  0  0  0999 V2000
    7.1530   -3.3320   19.2580 C   0  0  0  0  0  0  0  0  0  0  0  0
    6.4120   -4.1010   20.2640 C   0  0  0  0  0  0  0  0  0  0  0  0
    5.3240   -4.6170   19.9150 O   0  0  0  0  0  0  0  0  0  0  0  0
    6.9680   -4.2880   21.5500 N   0  0  0  0  0  0  0  0  0  0  0  0
    6.5210   -5.3670   22.3490 C   0  0  0  0  0  0  0  0  0  0  0  0
    6.2850   -5.0060   23.7450 C   0  0  0  0  0  0  0  0  0  0  0  0
    6.7920   -3.6780   24.1790 C   0  0  0  0  0  0  0  0  0  0  0  0
    5.9240   -3.1300   25.2580 C   0  0  0  0  0  0  0  0  0  0  0  0
    4.8010   -2.6870   24.9460 O   0  0  0  0  0  0  0  0  0  0  0  0
    6.3010   -3.1220   26.6150 N   0  0  0  0  0  0  0  0  0  0  0  0
    5.8230   -4.1830   27.4460 C   0  0  1  0  0  0  0  0  0  0  0  0
    5.6920   -5.5320   26.8990 C   0  0  0  0  0  0  0  0  0  0  0  0
    6.5590   -4.4510   28.7180 C   0  0  0  0  0  0  0  0  0  0  0  0
    6.3480   -5.6770   29.3190 C   0  0  0  0  0  0  0  0  0  0  0  0
    6.9090   -6.8170   28.7410 N   0  0  0  0  0  0  0  0  0  0  0  0
    6.3790   -1.7380   27.1820 C   0  0  0  0  0  0  0  0  0  0  0  0
    6.5820   -1.9720   28.6500 C   0  0  0  0  0  0  0  0  0  0  0  0
    7.0950   -0.5600   28.8800 C   0  0  0  0  0  0  0  0  0  0  0  0
    6.2250    0.5320   29.4460 C   0  0  0  0  0  0  0  0  0  0  0  0
    5.2720    0.9930   28.3730 C   0  0  0  0  0  0  0  0  0  0  0  0
    5.6970    0.6230   26.9520 C   0  0  0  0  0  0  0  0  0  0  0  0
    5.3870   -0.8220   26.7240 C   0  0  0  0  0  0  0  0  0  0  0  0
    6.9440   -2.6750   23.0980 C   0  0  0  0  0  0  0  0  0  0  0  0
    7.7430   -3.2430   22.1440 C   0  0  0  0  0  0  0  0  0  0  0  0
  1  2  1  0
  2  3  2  0
  2  4  1  0
  4  5  1  0
  5  6  1  0
  6  7  1  0
  7  8  1  0
  8  9  2  0
  8 10  1  0
 10 11  1  0
 11 12  1  6
 11 13  1  0
 13 14  1  0
 14 15  3  0
 10 16  1  0
 16 17  1  0
 17 18  1  0
 18 19  1  0
 19 20  1  0
 20 21  1  0
 16 22  1  0
 21 22  1  0
  7 23  1  0
  4 24  1  0
 23 24  1  0
M  END
