piperidine-amides-3993-covalent
     RDKit          3D

 29 31  0  0  0  0  0  0  0  0999 V2000
    7.0690   -3.3420   19.3520 C   0  0  0  0  0  0  0  0  0  0  0  0
    6.4100   -4.1810   20.3680 C   0  0  0  0  0  0  0  0  0  0  0  0
    5.4130   -4.8350   19.9850 O   0  0  0  0  0  0  0  0  0  0  0  0
    6.9100   -4.2770   21.6990 N   0  0  0  0  0  0  0  0  0  0  0  0
    6.6000   -5.4410   22.4570 C   0  0  0  0  0  0  0  0  0  0  0  0
    6.0110   -5.0870   23.7320 C   0  0  0  0  0  0  0  0  0  0  0  0
    6.0850   -3.6360   23.9400 C   0  0  0  0  0  0  0  0  0  0  0  0
    5.6230   -3.2360   25.3140 C   0  0  0  0  0  0  0  0  0  0  0  0
    4.4090   -3.2500   25.5710 O   0  0  0  0  0  0  0  0  0  0  0  0
    6.5300   -2.8430   26.3080 N   0  0  0  0  0  0  0  0  0  0  0  0
    6.4970   -1.6970   27.1410 C   0  0  0  0  0  0  0  0  0  0  0  0
    7.0130   -1.5600   28.4820 C   0  0  0  0  0  0  0  0  0  0  0  0
    6.8690   -0.2070   29.2000 C   0  0  0  0  0  0  0  0  0  0  0  0
    7.5180   -0.1000   30.8410 Cl  0  0  0  0  0  0  0  0  0  0  0  0
    6.2920    0.9870   28.7600 C   0  0  0  0  0  0  0  0  0  0  0  0
    6.2110    2.1830   29.5050 N   0  0  0  0  0  0  0  0  0  0  0  0
    5.9470    3.4390   28.9070 C   0  0  0  0  0  0  0  0  0  0  0  0
    6.2000    3.9150   27.6220 O   0  0  0  0  0  0  0  0  0  0  0  0
    5.2990    4.4750   29.7690 C   0  0  0  0  0  0  0  0  0  0  0  0
    4.0980    3.5750   30.0990 C   0  0  0  0  0  0  0  0  0  0  0  0
    3.1170    4.0900   30.9330 N   0  0  0  0  0  0  0  0  0  0  0  0
    3.2810    5.3510   31.4040 C   0  0  0  0  0  0  0  0  0  0  0  0
    4.4870    6.1970   31.0460 C   0  0  0  0  0  0  0  0  0  0  0  0
    5.4890    5.7000   30.2050 N   0  0  0  0  0  0  0  0  0  0  0  0
    5.7570    0.7660   27.3160 C   0  0  0  0  0  0  0  0  0  0  0  0
    4.9700    2.0930   26.4840 Cl  0  0  0  0  0  0  0  0  0  0  0  0
    5.8520   -0.5050   26.5450 C   0  0  0  0  0  0  0  0  0  0  0  0
    7.4420   -3.0900   23.6300 C   0  0  0  0  0  0  0  0  0  0  0  0
    7.7000   -3.1900   22.2600 C   0  0  0  0  0  0  0  0  0  0  0  0
  1  2  1  0
  2  3  2  0
  2  4  1  0
  4  5  1  0
  5  6  1  0
  6  7  1  0
  7  8  1  0
  8  9  2  0
  8 10  1  0
 10 11  1  0
 11 12  2  0
 12 13  1  0
 13 14  1  0
 13 15  2  0
 15 16  1  0
 16 17  1  0
 17 18  2  0
 17 19  1  0
 19 20  2  0
 20 21  1  0
 21 22  2  0
 22 23  1  0
 19 24  1  0
 23 24  2  0
 15 25  1  0
 25 26  1  0
 11 27  1  0
 25 27  2  0
  7 28  1  0
  4 29  1  0
 28 29  1  0
M  END
