piperidine-amides-17205-covalent
     RDKit          3D

 20 21  0  0  0  0  0  0  0  0999 V2000
    7.0790   -3.3320   19.3190 C   0  0  0  0  0  0  0  0  0  0  0  0
    6.3990   -4.1660   20.3220 C   0  0  0  0  0  0  0  0  0  0  0  0
    5.3480   -4.7480   19.9580 O   0  0  0  0  0  0  0  0  0  0  0  0
    6.9430   -4.3560   21.6200 N   0  0  0  0  0  0  0  0  0  0  0  0
    6.4500   -5.4290   22.4090 C   0  0  0  0  0  0  0  0  0  0  0  0
    5.9260   -5.0330   23.7170 C   0  0  0  0  0  0  0  0  0  0  0  0
    6.5750   -3.8640   24.3650 C   0  0  0  0  0  0  0  0  0  0  0  0
    5.7620   -3.3920   25.5360 C   0  0  0  0  0  0  0  0  0  0  0  0
    4.5280   -3.2080   25.4310 O   0  0  0  0  0  0  0  0  0  0  0  0
    6.3580   -3.1700   26.7970 N   0  0  0  0  0  0  0  0  0  0  0  0
    6.6180   -4.1850   27.7620 C   0  0  0  0  0  0  0  0  0  0  0  0
    6.5280   -1.7770   27.2530 C   0  0  1  0  0  0  0  0  0  0  0  0
    5.5530   -0.6820   26.7730 C   0  0  0  0  0  0  0  0  0  0  0  0
    5.7860    0.5890   27.2890 C   0  0  0  0  0  0  0  0  0  0  0  0
    5.6050    0.1000   28.7320 C   0  0  1  0  0  0  0  0  0  0  0  0
    4.7290   -0.9610   28.9250 O   0  0  0  0  0  0  0  0  0  0  0  0
    7.0250   -0.3510   28.7650 C   0  0  0  0  0  0  0  0  0  0  0  0
    6.5840   -1.8080   28.7280 C   0  0  0  0  0  0  0  0  0  0  0  0
    6.8800   -2.7340   23.4090 C   0  0  0  0  0  0  0  0  0  0  0  0
    7.6930   -3.3000   22.2670 C   0  0  0  0  0  0  0  0  0  0  0  0
  1  2  1  0
  2  3  2  0
  2  4  1  0
  4  5  1  0
  5  6  1  0
  6  7  1  0
  7  8  1  0
  8  9  2  0
  8 10  1  0
 10 11  1  0
 12 10  1  1
 12 13  1  0
 13 14  1  0
 14 15  1  0
 15 16  1  6
 15 17  1  0
 12 18  1  0
 17 18  1  0
  7 19  1  0
  4 20  1  0
 19 20  1  0
M  END
