piperidine-amides-10843-covalent
     RDKit          3D

 22 23  0  0  0  0  0  0  0  0999 V2000
    7.0520   -3.3330   19.3140 C   0  0  0  0  0  0  0  0  0  0  0  0
    6.3700   -4.1410   20.3280 C   0  0  0  0  0  0  0  0  0  0  0  0
    5.3990   -4.8380   19.9850 O   0  0  0  0  0  0  0  0  0  0  0  0
    6.8260   -4.1700   21.6630 N   0  0  0  0  0  0  0  0  0  0  0  0
    7.7410   -3.1590   22.1640 C   0  0  0  0  0  0  0  0  0  0  0  0
    7.4890   -3.0270   23.6380 C   0  0  0  0  0  0  0  0  0  0  0  0
    6.1370   -3.5600   23.9850 C   0  0  0  0  0  0  0  0  0  0  0  0
    5.6660   -3.2380   25.3560 C   0  0  0  0  0  0  0  0  0  0  0  0
    4.4210   -3.2150   25.5950 O   0  0  0  0  0  0  0  0  0  0  0  0
    6.5220   -2.9580   26.4450 N   0  0  0  0  0  0  0  0  0  0  0  0
    6.4700   -1.6330   27.1190 C   0  0  0  0  0  0  0  0  0  0  0  0
    6.9800   -1.5200   28.4900 C   0  0  0  0  0  0  0  0  0  0  0  0
    6.9400   -0.2350   29.2030 C   0  0  0  0  0  0  0  0  0  0  0  0
    7.6130   -0.1620   30.9840 Br  0  0  0  0  0  0  0  0  0  0  0  0
    6.3760    0.9820   28.5310 C   0  0  0  0  0  0  0  0  0  0  0  0
    5.8460    0.8940   27.1120 C   0  0  0  0  0  0  0  0  0  0  0  0
    5.9150   -0.4370   26.4460 C   0  0  0  0  0  0  0  0  0  0  0  0
    5.4290   -0.4900   25.1750 O   0  0  0  0  0  0  0  0  0  0  0  0
    4.6480    0.5960   24.8060 C   0  0  0  0  0  0  0  0  0  0  0  0
    3.5050    0.6390   25.6140 C   0  0  0  0  0  0  0  0  0  0  0  0
    6.0310   -5.0740   23.7630 C   0  0  0  0  0  0  0  0  0  0  0  0
    6.6600   -5.4110   22.4010 C   0  0  0  0  0  0  0  0  0  0  0  0
  1  2  1  0
  2  3  2  0
  2  4  1  0
  4  5  1  0
  5  6  1  0
  6  7  1  0
  7  8  1  0
  8  9  2  0
  8 10  1  0
 10 11  1  0
 11 12  2  0
 12 13  1  0
 13 14  1  0
 13 15  2  0
 15 16  1  0
 11 17  1  0
 16 17  2  0
 17 18  1  0
 18 19  1  0
 19 20  1  0
  7 21  1  0
  4 22  1  0
 21 22  1  0
M  END
