piperidine-amides-28054-covalent
     RDKit          3D

 26 28  0  0  0  0  0  0  0  0999 V2000
    6.8730   -3.3800   19.4670 C   0  0  0  0  0  0  0  0  0  0  0  0
    6.2100   -4.3010   20.4320 C   0  0  0  0  0  0  0  0  0  0  0  0
    5.3080   -5.0110   19.9730 O   0  0  0  0  0  0  0  0  0  0  0  0
    6.5680   -4.4080   21.7840 N   0  0  0  0  0  0  0  0  0  0  0  0
    5.9820   -5.4310   22.5910 C   0  0  0  0  0  0  0  0  0  0  0  0
    5.1740   -4.9460   23.7440 C   0  0  0  0  0  0  0  0  0  0  0  0
    5.7100   -3.7500   24.4550 C   0  0  0  0  0  0  0  0  0  0  0  0
    4.7930   -3.1530   25.5670 C   0  0  0  0  0  0  0  0  0  0  0  0
    3.6210   -2.8750   25.2910 O   0  0  0  0  0  0  0  0  0  0  0  0
    5.3360   -2.9450   26.8930 N   0  0  0  0  0  0  0  0  0  0  0  0
    4.6280   -3.2710   28.1540 C   0  0  0  0  0  0  0  0  0  0  0  0
    5.4180   -4.1480   29.0630 C   0  0  0  0  0  0  0  0  0  0  0  0
    6.4400   -4.9780   28.4730 C   0  0  0  0  0  0  0  0  0  0  0  0
    7.0560   -4.4430   27.3830 C   0  0  0  0  0  0  0  0  0  0  0  0
    8.1830   -4.8560   26.8700 C   0  0  0  0  0  0  0  0  0  0  0  0
    8.6300   -4.2090   25.7660 C   0  0  0  0  0  0  0  0  0  0  0  0
    9.6440   -4.6440   25.2340 C   0  0  0  0  0  0  0  0  0  0  0  0
    9.8730   -4.0700   24.1850 O   0  0  0  0  0  0  0  0  0  0  0  0
   10.3380   -5.7260   25.7410 O   0  0  0  0  0  0  0  0  0  0  0  0
    9.5550   -6.5310   26.5680 C   0  0  0  0  0  0  0  0  0  0  0  0
    8.1620   -3.1330   25.0660 C   0  0  0  0  0  0  0  0  0  0  0  0
    8.8300   -2.5240   23.8840 C   0  0  0  0  0  0  0  0  0  0  0  0
    7.0190   -2.7460   25.5960 N   0  0  0  0  0  0  0  0  0  0  0  0
    6.5250   -3.4250   26.6780 C   0  0  0  0  0  0  0  0  0  0  0  0
    6.1860   -2.7440   23.3650 C   0  0  0  0  0  0  0  0  0  0  0  0
    7.1730   -3.3220   22.5030 C   0  0  0  0  0  0  0  0  0  0  0  0
  1  2  1  0
  2  3  2  0
  2  4  1  0
  4  5  1  0
  5  6  1  0
  6  7  1  0
  7  8  1  0
  8  9  2  0
  8 10  1  0
 10 11  1  0
 11 12  1  0
 12 13  1  0
 13 14  1  0
 14 15  2  0
 15 16  1  0
 16 17  1  0
 17 18  2  0
 17 19  1  0
 19 20  1  0
 16 21  2  0
 21 22  1  0
 21 23  1  0
 10 24  1  0
 14 24  1  0
 23 24  2  0
  7 25  1  0
  4 26  1  0
 25 26  1  0
M  END
