piperidine-amides-27044-covalent
     RDKit          3D

 25 27  0  0  0  0  0  0  0  0999 V2000
    7.0630   -3.2940   19.2730 C   0  0  0  0  0  0  0  0  0  0  0  0
    6.3490   -4.0850   20.2830 C   0  0  0  0  0  0  0  0  0  0  0  0
    5.2750   -4.6180   19.9070 O   0  0  0  0  0  0  0  0  0  0  0  0
    6.8730   -4.2690   21.5700 N   0  0  0  0  0  0  0  0  0  0  0  0
    6.5790   -5.4540   22.3290 C   0  0  0  0  0  0  0  0  0  0  0  0
    5.7600   -5.0490   23.5270 C   0  0  0  0  0  0  0  0  0  0  0  0
    6.3070   -3.8290   24.2340 C   0  0  0  0  0  0  0  0  0  0  0  0
    5.2390   -3.2130   25.0610 C   0  0  0  0  0  0  0  0  0  0  0  0
    4.5490   -2.3240   24.5330 O   0  0  0  0  0  0  0  0  0  0  0  0
    4.9300   -3.5520   26.4010 N   0  0  0  0  0  0  0  0  0  0  0  0
    5.9930   -3.8180   27.3360 C   0  0  0  0  0  0  0  0  0  0  0  0
    5.2560   -3.0930   28.3240 C   0  0  0  0  0  0  0  0  0  0  0  0
    4.9930   -3.8770   29.4280 F   0  0  0  0  0  0  0  0  0  0  0  0
    5.6400   -1.8560   28.7770 C   0  0  0  0  0  0  0  0  0  0  0  0
    6.0830   -0.8780   27.9190 C   0  0  0  0  0  0  0  0  0  0  0  0
    6.4630    0.3420   28.3850 C   0  0  0  0  0  0  0  0  0  0  0  0
    6.4250    0.6390   29.7130 C   0  0  0  0  0  0  0  0  0  0  0  0
    6.8430    1.9110   30.0330 F   0  0  0  0  0  0  0  0  0  0  0  0
    5.9910   -0.3050   30.6210 C   0  0  0  0  0  0  0  0  0  0  0  0
    5.9560   -0.0120   31.9870 O   0  0  0  0  0  0  0  0  0  0  0  0
    6.6470    0.2160   33.1130 C   0  0  0  0  0  0  0  0  0  0  0  0
    5.6000   -1.5430   30.1230 C   0  0  0  0  0  0  0  0  0  0  0  0
    4.1640   -2.8730   27.5330 C   0  0  0  0  0  0  0  0  0  0  0  0
    6.7930   -2.7650   23.2790 C   0  0  0  0  0  0  0  0  0  0  0  0
    7.6180   -3.2320   22.2820 C   0  0  0  0  0  0  0  0  0  0  0  0
  1  2  1  0
  2  3  2  0
  2  4  1  0
  4  5  1  0
  5  6  1  0
  6  7  1  0
  7  8  1  0
  8  9  2  0
  8 10  1  0
 10 11  1  0
 11 12  1  0
 12 13  1  0
 12 14  1  0
 14 15  2  0
 15 16  1  0
 16 17  2  0
 17 18  1  0
 17 19  1  0
 19 20  1  0
 20 21  1  0
 14 22  1  0
 19 22  2  0
 10 23  1  0
 12 23  1  0
  7 24  1  0
  4 25  1  0
 24 25  1  0
M  END
