piperidine-amides-9226-covalent
     RDKit          3D

 20 21  0  0  0  0  0  0  0  0999 V2000
    7.1120   -3.2690   19.1860 C   0  0  0  0  0  0  0  0  0  0  0  0
    6.3510   -4.0210   20.1860 C   0  0  0  0  0  0  0  0  0  0  0  0
    5.2620   -4.5170   19.8670 O   0  0  0  0  0  0  0  0  0  0  0  0
    6.8470   -4.2570   21.4770 N   0  0  0  0  0  0  0  0  0  0  0  0
    6.4860   -5.4480   22.1960 C   0  0  0  0  0  0  0  0  0  0  0  0
    5.7650   -4.9410   23.4150 C   0  0  0  0  0  0  0  0  0  0  0  0
    6.5480   -3.8630   24.1130 C   0  0  0  0  0  0  0  0  0  0  0  0
    5.8620   -3.3480   25.3180 C   0  0  0  0  0  0  0  0  0  0  0  0
    4.5940   -3.3110   25.3650 O   0  0  0  0  0  0  0  0  0  0  0  0
    6.5570   -2.8750   26.4530 N   0  0  0  0  0  0  0  0  0  0  0  0
    6.1850   -3.3150   27.8150 C   0  0  0  0  0  0  0  0  0  0  0  0
    5.9270   -2.0850   28.6100 C   0  0  0  0  0  0  0  0  0  0  0  0
    4.6430   -1.7660   29.2670 C   0  0  0  0  0  0  0  0  0  0  0  0
    4.0280   -0.8340   28.4610 F   0  0  0  0  0  0  0  0  0  0  0  0
    4.7980   -1.1610   30.5150 F   0  0  0  0  0  0  0  0  0  0  0  0
    3.8410   -2.8840   29.4020 F   0  0  0  0  0  0  0  0  0  0  0  0
    6.5180   -0.7990   28.0570 C   0  0  0  0  0  0  0  0  0  0  0  0
    7.0390   -1.4100   29.3250 C   0  0  0  0  0  0  0  0  0  0  0  0
    6.8220   -2.7260   23.1920 C   0  0  0  0  0  0  0  0  0  0  0  0
    7.5290   -3.1700   22.1160 C   0  0  0  0  0  0  0  0  0  0  0  0
  1  2  1  0
  2  3  2  0
  2  4  1  0
  4  5  1  0
  5  6  1  0
  6  7  1  0
  7  8  1  0
  8  9  2  0
  8 10  1  0
 10 11  1  0
 12 11  1  0
 12 13  1  0
 13 14  1  0
 13 15  1  0
 13 16  1  0
 12 17  1  0
 12 18  1  0
 17 18  1  0
  7 19  1  0
  4 20  1  0
 19 20  1  0
M  END
