piperidine-amides-4450-covalent
     RDKit          3D

 25 26  0  0  0  0  0  0  0  0999 V2000
    7.0150   -3.1670   19.1120 C   0  0  0  0  0  0  0  0  0  0  0  0
    6.1650   -3.7720   20.1620 C   0  0  0  0  0  0  0  0  0  0  0  0
    5.1620   -4.4070   19.7790 O   0  0  0  0  0  0  0  0  0  0  0  0
    6.4130   -3.7040   21.5490 N   0  0  0  0  0  0  0  0  0  0  0  0
    5.5970   -4.6030   22.2850 C   0  0  0  0  0  0  0  0  0  0  0  0
    5.1370   -4.1990   23.5990 C   0  0  0  0  0  0  0  0  0  0  0  0
    5.2710   -2.7820   23.9860 C   0  0  0  0  0  0  0  0  0  0  0  0
    4.7460   -2.6830   25.4360 C   0  0  0  0  0  0  0  0  0  0  0  0
    3.7360   -3.3470   25.7100 O   0  0  0  0  0  0  0  0  0  0  0  0
    5.2650   -1.9920   26.5500 N   0  0  0  0  0  0  0  0  0  0  0  0
    6.1580   -2.7310   27.2710 C   0  0  0  0  0  0  0  0  0  0  0  0
    5.8630   -3.9400   28.0600 C   0  0  0  0  0  0  0  0  0  0  0  0
    7.0480   -1.8880   28.1220 C   0  0  0  0  0  0  0  0  0  0  0  0
    6.6080   -3.3360   26.0540 C   0  0  0  0  0  0  0  0  0  0  0  0
    6.0340   -4.7110   25.7300 C   0  0  0  0  0  0  0  0  0  0  0  0
    6.4920   -5.3790   24.4500 C   0  0  0  0  0  0  0  0  0  0  0  0
    7.5130   -4.7090   23.4610 C   0  0  0  0  0  0  0  0  0  0  0  0
    7.8950   -5.3220   22.3200 O   0  0  0  0  0  0  0  0  0  0  0  0
    7.0200   -6.3380   21.9520 C   0  0  0  0  0  0  0  0  0  0  0  0
    7.0700   -7.4400   22.9970 C   0  0  0  0  0  0  0  0  0  0  0  0
    5.9800   -7.2030   24.0440 C   0  0  0  0  0  0  0  0  0  0  0  0
    7.9380   -3.3900   23.9440 C   0  0  0  0  0  0  0  0  0  0  0  0
    7.5060   -2.8410   25.0770 C   0  0  0  0  0  0  0  0  0  0  0  0
    6.5850   -2.1910   23.5890 C   0  0  0  0  0  0  0  0  0  0  0  0
    6.9570   -2.4820   22.1220 C   0  0  0  0  0  0  0  0  0  0  0  0
  1  2  1  0
  2  3  2  0
  2  4  1  0
  4  5  1  0
  5  6  1  0
  6  7  1  0
  7  8  1  0
  8  9  2  0
  8 10  1  0
 11 10  1  0
 11 12  1  0
 11 13  1  0
 11 14  1  0
 14 15  2  0
 15 16  1  0
 16 17  2  0
 17 18  1  0
 18 19  1  0
 19 20  1  0
 20 21  1  0
 17 22  1  0
 14 23  1  0
 22 23  2  0
  7 24  1  0
  4 25  1  0
 24 25  1  0
M  END
