piperidine-amides-24505-covalent
     RDKit          3D

 23 25  0  0  0  0  0  0  0  0999 V2000
    7.1870   -3.3270   19.2640 C   0  0  0  0  0  0  0  0  0  0  0  0
    6.5110   -4.1770   20.2460 C   0  0  0  0  0  0  0  0  0  0  0  0
    5.4240   -4.7410   19.9650 O   0  0  0  0  0  0  0  0  0  0  0  0
    7.1250   -4.4180   21.4750 N   0  0  0  0  0  0  0  0  0  0  0  0
    6.7220   -5.5570   22.2450 C   0  0  0  0  0  0  0  0  0  0  0  0
    5.8480   -4.9830   23.3530 C   0  0  0  0  0  0  0  0  0  0  0  0
    6.5660   -3.7630   23.9050 C   0  0  0  0  0  0  0  0  0  0  0  0
    5.6920   -3.1230   24.8630 C   0  0  0  0  0  0  0  0  0  0  0  0
    5.0880   -2.0720   24.5980 O   0  0  0  0  0  0  0  0  0  0  0  0
    5.5590   -3.7660   26.0520 N   0  0  0  0  0  0  0  0  0  0  0  0
    6.2320   -3.2090   27.2110 C   0  0  0  0  0  0  0  0  0  0  0  0
    6.5590   -4.2060   28.3090 C   0  0  0  0  0  0  0  0  0  0  0  0
    5.6690   -4.3160   29.2860 C   0  0  0  0  0  0  0  0  0  0  0  0
    4.0310   -4.5650   28.8070 S   0  0  0  0  0  0  0  0  0  0  0  0
    4.9090   -4.6310   27.3780 C   0  0  0  0  0  0  0  0  0  0  0  0
    4.9780   -6.1480   27.7870 C   0  0  0  0  0  0  0  0  0  0  0  0
    4.6820   -7.3320   28.6740 C   0  0  0  0  0  0  0  0  0  0  0  0
    4.3180   -6.0530   28.8170 C   0  0  0  0  0  0  0  0  0  0  0  0
    5.0210   -6.8340   27.9510 F   0  0  0  0  0  0  0  0  0  0  0  0
    5.0840   -5.8950   27.5310 C   0  0  0  0  0  0  0  0  0  0  0  0
    5.5810   -5.1140   26.4630 C   0  0  0  0  0  0  0  0  0  0  0  0
    6.9130   -2.7430   22.8660 C   0  0  0  0  0  0  0  0  0  0  0  0
    7.8930   -3.3890   22.1410 C   0  0  0  0  0  0  0  0  0  0  0  0
  1  2  1  0
  2  3  2  0
  2  4  1  0
  4  5  1  0
  5  6  1  0
  6  7  1  0
  7  8  1  0
  8  9  2  0
  8 10  1  0
 10 11  1  0
 11 12  1  0
 12 13  1  0
 13 14  1  0
 14 15  1  0
 15 16  1  0
 16 17  2  0
 17 18  1  0
 18 19  1  0
 18 20  2  0
 10 21  1  0
 15 21  2  0
 20 21  1  0
  7 22  1  0
  4 23  1  0
 22 23  1  0
M  END
