piperidine-amides-25023-covalent
     RDKit          3D

 24 25  0  0  0  0  0  0  0  0999 V2000
    7.0090   -3.3630   19.4580 C   0  0  0  0  0  0  0  0  0  0  0  0
    6.3610   -4.2820   20.4150 C   0  0  0  0  0  0  0  0  0  0  0  0
    5.4180   -5.0010   20.0150 O   0  0  0  0  0  0  0  0  0  0  0  0
    6.8060   -4.3890   21.7540 N   0  0  0  0  0  0  0  0  0  0  0  0
    6.5170   -5.6160   22.4910 C   0  0  0  0  0  0  0  0  0  0  0  0
    6.2340   -5.2770   23.9800 C   0  0  0  0  0  0  0  0  0  0  0  0
    6.0810   -3.7770   24.0740 C   0  0  0  0  0  0  0  0  0  0  0  0
    5.6260   -3.2010   25.3860 C   0  0  0  0  0  0  0  0  0  0  0  0
    5.3360   -1.9950   25.3400 O   0  0  0  0  0  0  0  0  0  0  0  0
    5.4470   -3.8740   26.6460 N   0  0  0  0  0  0  0  0  0  0  0  0
    6.3590   -3.5320   27.6710 C   0  0  0  0  0  0  0  0  0  0  0  0
    6.6690   -4.7910   28.4660 C   0  0  0  0  0  0  0  0  0  0  0  0
    5.4610   -4.9790   29.1590 N   0  0  0  0  0  0  0  0  0  0  0  0
    5.0830   -6.1620   29.9290 C   0  0  0  0  0  0  0  0  0  0  0  0
    4.4300   -7.0280   29.0840 C   0  0  0  0  0  0  0  0  0  0  0  0
    3.8580   -6.5310   27.9230 O   0  0  0  0  0  0  0  0  0  0  0  0
    4.4810   -6.8830   26.7060 C   0  0  0  0  0  0  0  0  0  0  0  0
    4.3430   -4.2190   28.7510 C   0  0  2  0  0  0  0  0  0  0  0  0
    3.0250   -4.5500   29.4360 C   0  0  0  0  0  0  0  0  0  0  0  0
    3.6390   -3.2540   29.9220 C   0  0  0  0  0  0  0  0  0  0  0  0
    3.3830   -2.9300   31.3600 C   0  0  0  0  0  0  0  0  0  0  0  0
    4.1650   -3.9750   27.3600 C   0  0  0  0  0  0  0  0  0  0  0  0
    7.3780   -3.1540   23.6570 C   0  0  0  0  0  0  0  0  0  0  0  0
    7.5760   -3.3240   22.3200 C   0  0  0  0  0  0  0  0  0  0  0  0
  1  2  1  0
  2  3  2  0
  2  4  1  0
  4  5  1  0
  5  6  1  0
  6  7  1  0
  7  8  1  0
  8  9  2  0
  8 10  1  0
 10 11  1  0
 11 12  1  0
 12 13  1  0
 13 14  1  0
 14 15  1  0
 15 16  1  0
 16 17  1  0
 13 18  1  0
 18 19  1  6
 19 20  1  0
 20 21  1  0
 10 22  1  0
 18 22  1  0
  7 23  1  0
  4 24  1  0
 23 24  1  0
M  END
