piperidine-amides-23320-covalent
     RDKit          3D

 24 27  0  0  0  0  0  0  0  0999 V2000
    7.0530   -3.3650   19.3260 C   0  0  0  0  0  0  0  0  0  0  0  0
    6.4100   -4.2120   20.3420 C   0  0  0  0  0  0  0  0  0  0  0  0
    5.3850   -4.8400   19.9850 O   0  0  0  0  0  0  0  0  0  0  0  0
    6.9610   -4.3500   21.6440 N   0  0  0  0  0  0  0  0  0  0  0  0
    6.7010   -5.5560   22.3610 C   0  0  0  0  0  0  0  0  0  0  0  0
    6.2140   -5.2950   23.7010 C   0  0  0  0  0  0  0  0  0  0  0  0
    6.2350   -3.8580   23.9700 C   0  0  0  0  0  0  0  0  0  0  0  0
    5.6620   -3.4760   25.3020 C   0  0  0  0  0  0  0  0  0  0  0  0
    4.6100   -2.8110   25.3030 O   0  0  0  0  0  0  0  0  0  0  0  0
    6.2030   -3.8090   26.5590 N   0  0  0  0  0  0  0  0  0  0  0  0
    5.6750   -4.8480   27.2520 C   0  0  0  0  0  0  0  0  0  0  0  0
    4.6730   -4.3120   28.0200 C   0  0  0  0  0  0  0  0  0  0  0  0
    5.4670   -3.1180   28.5200 C   0  0  0  0  0  0  0  0  0  0  0  0
    5.0630   -2.5090   29.7940 C   0  0  0  0  0  0  0  0  0  0  0  0
    5.9080   -1.2810   30.3910 C   0  0  0  0  0  0  0  0  0  0  0  0
    6.9400   -1.0710   29.4560 C   0  0  0  0  0  0  0  0  0  0  0  0
    6.3750   -2.1580   28.6800 C   0  0  0  0  0  0  0  0  0  0  0  0
    6.6390   -2.7870   27.4730 C   0  0  0  0  0  0  0  0  0  0  0  0
    7.9150   -0.1200   29.5490 O   0  0  0  0  0  0  0  0  0  0  0  0
    7.8230    0.4930   30.8290 C   0  0  0  0  0  0  0  0  0  0  0  0
    6.3550    0.6400   31.3340 C   0  0  0  0  0  0  0  0  0  0  0  0
    5.8110   -0.5060   31.5240 O   0  0  0  0  0  0  0  0  0  0  0  0
    7.5860   -3.3240   23.6510 C   0  0  0  0  0  0  0  0  0  0  0  0
    7.7240   -3.2550   22.2540 C   0  0  0  0  0  0  0  0  0  0  0  0
  1  2  1  0
  2  3  2  0
  2  4  1  0
  4  5  1  0
  5  6  1  0
  6  7  1  0
  7  8  1  0
  8  9  2  0
  8 10  1  0
 10 11  1  0
 11 12  1  0
 12 13  1  0
 13 14  1  0
 14 15  2  0
 15 16  1  0
 16 17  2  0
 10 18  1  0
 13 18  2  0
 17 18  1  0
 16 19  1  0
 19 20  1  0
 20 21  1  0
 15 22  1  0
 21 22  1  0
  7 23  1  0
  4 24  1  0
 23 24  1  0
M  END
