piperidine-amides-6636-covalent
     RDKit          3D

 24 25  0  0  0  0  0  0  0  0999 V2000
    7.0580   -3.2350   19.2140 C   0  0  0  0  0  0  0  0  0  0  0  0
    6.3170   -4.0380   20.1950 C   0  0  0  0  0  0  0  0  0  0  0  0
    5.2460   -4.5890   19.8840 O   0  0  0  0  0  0  0  0  0  0  0  0
    6.8250   -4.2430   21.4750 N   0  0  0  0  0  0  0  0  0  0  0  0
    6.3990   -5.4060   22.2150 C   0  0  0  0  0  0  0  0  0  0  0  0
    5.5220   -4.8700   23.3350 C   0  0  0  0  0  0  0  0  0  0  0  0
    6.4280   -3.9760   24.1490 C   0  0  0  0  0  0  0  0  0  0  0  0
    5.6700   -3.4360   25.2700 C   0  0  0  0  0  0  0  0  0  0  0  0
    4.4800   -3.1240   25.0770 O   0  0  0  0  0  0  0  0  0  0  0  0
    6.3090   -3.2920   26.5080 N   0  0  0  0  0  0  0  0  0  0  0  0
    5.7880   -3.9540   27.6600 C   0  0  1  0  0  0  0  0  0  0  0  0
    5.9350   -5.4610   27.4850 C   0  0  0  0  0  0  0  0  0  0  0  0
    6.6160   -3.4870   28.7740 C   0  0  0  0  0  0  0  0  0  0  0  0
    7.1620   -2.3490   28.7150 O   0  0  0  0  0  0  0  0  0  0  0  0
    4.4040   -3.5780   27.9520 C   0  0  0  0  0  0  0  0  0  0  0  0
    3.7530   -4.3540   28.9670 C   0  0  0  0  0  0  0  0  0  0  0  0
    2.4540   -4.0670   29.3050 C   0  0  0  0  0  0  0  0  0  0  0  0
    1.8300   -2.9520   28.5680 C   0  0  0  0  0  0  0  0  0  0  0  0
    0.5930   -3.2240   29.3920 C   0  0  0  0  0  0  0  0  0  0  0  0
    2.4330   -2.1550   27.5520 C   0  0  0  0  0  0  0  0  0  0  0  0
    1.6720   -1.0830   26.9110 C   0  0  0  0  0  0  0  0  0  0  0  0
    3.7640   -2.5150   27.2700 C   0  0  0  0  0  0  0  0  0  0  0  0
    6.8360   -2.7680   23.3170 C   0  0  0  0  0  0  0  0  0  0  0  0
    7.6250   -3.2270   22.1320 C   0  0  0  0  0  0  0  0  0  0  0  0
  1  2  1  0
  2  3  2  0
  2  4  1  0
  4  5  1  0
  5  6  1  0
  6  7  1  0
  7  8  1  0
  8  9  2  0
  8 10  1  0
 11 10  1  0
 11 12  1  6
 11 13  1  0
 13 14  1  0
 11 15  1  0
 15 16  2  0
 16 17  1  0
 17 18  2  0
 18 19  1  0
 18 20  1  0
 20 21  1  0
 15 22  1  0
 20 22  2  0
  7 23  1  0
  4 24  1  0
 23 24  1  0
M  END
