piperidine-amides-10888-covalent
     RDKit          3D

 22 22  0  0  0  0  0  0  0  0999 V2000
    7.1570   -3.2750   19.1920 C   0  0  0  0  0  0  0  0  0  0  0  0
    6.3540   -3.9370   20.2190 C   0  0  0  0  0  0  0  0  0  0  0  0
    5.3130   -4.5340   19.8890 O   0  0  0  0  0  0  0  0  0  0  0  0
    6.7830   -3.9420   21.5540 N   0  0  0  0  0  0  0  0  0  0  0  0
    7.7490   -2.9770   22.0330 C   0  0  0  0  0  0  0  0  0  0  0  0
    7.5940   -2.9080   23.5280 C   0  0  0  0  0  0  0  0  0  0  0  0
    6.2030   -3.2570   23.9490 C   0  0  0  0  0  0  0  0  0  0  0  0
    5.9860   -3.0720   25.4130 C   0  0  0  0  0  0  0  0  0  0  0  0
    4.8650   -3.3650   25.9300 O   0  0  0  0  0  0  0  0  0  0  0  0
    6.9860   -2.5240   26.2740 N   0  0  0  0  0  0  0  0  0  0  0  0
    7.5050   -3.2250   27.4870 C   0  0  0  0  0  0  0  0  0  0  0  0
    6.3860   -3.8510   28.2230 C   0  0  0  0  0  0  0  0  0  0  0  0
    5.9900   -5.2060   27.8930 C   0  0  0  0  0  0  0  0  0  0  0  0
    5.6450   -5.3890   26.5050 N   0  0  0  0  0  0  0  0  0  0  0  0
    6.9730   -5.8280   25.9800 C   0  0  0  0  0  0  0  0  0  0  0  0
    8.2110   -4.9600   26.0980 C   0  0  0  0  0  0  0  0  0  0  0  0
    9.3230   -5.8200   26.5830 C   0  0  0  0  0  0  0  0  0  0  0  0
    4.6790   -6.2980   26.2320 C   0  0  0  0  0  0  0  0  0  0  0  0
    3.8180   -6.1730   25.1330 C   0  0  0  0  0  0  0  0  0  0  0  0
    4.0820   -6.9860   23.8760 C   0  0  0  0  0  0  0  0  0  0  0  0
    5.7280   -4.6310   23.5320 C   0  0  0  0  0  0  0  0  0  0  0  0
    6.5800   -5.1110   22.3750 C   0  0  0  0  0  0  0  0  0  0  0  0
  1  2  1  0
  2  3  2  0
  2  4  1  0
  4  5  1  0
  5  6  1  0
  6  7  1  0
  7  8  1  0
  8  9  2  0
  8 10  1  0
 10 11  1  0
 11 12  1  0
 12 13  1  0
 13 14  1  0
 14 15  1  0
 15 16  1  0
 16 17  1  0
 14 18  1  0
 18 19  1  0
 19 20  1  0
  7 21  1  0
  4 22  1  0
 21 22  1  0
M  END
