piperidine-amides-34183-covalent
     RDKit          3D

 31 34  0  0  0  0  0  0  0  0999 V2000
    7.0840   -3.3330   19.2830 C   0  0  0  0  0  0  0  0  0  0  0  0
    6.3900   -4.1780   20.2670 C   0  0  0  0  0  0  0  0  0  0  0  0
    5.3380   -4.7720   19.9560 O   0  0  0  0  0  0  0  0  0  0  0  0
    6.9350   -4.3800   21.5370 N   0  0  0  0  0  0  0  0  0  0  0  0
    7.7480   -3.3390   22.1290 C   0  0  0  0  0  0  0  0  0  0  0  0
    6.9940   -2.8090   23.3380 C   0  0  0  0  0  0  0  0  0  0  0  0
    5.7430   -3.6360   23.4680 C   0  0  0  0  0  0  0  0  0  0  0  0
    5.1250   -3.3140   24.7490 C   0  0  0  0  0  0  0  0  0  0  0  0
    3.9160   -3.5320   24.9390 O   0  0  0  0  0  0  0  0  0  0  0  0
    5.9300   -2.7540   25.7270 N   0  0  0  0  0  0  0  0  0  0  0  0
    6.6790   -3.6980   26.5230 C   0  0  0  0  0  0  0  0  0  0  0  0
    8.1510   -3.6290   26.1500 C   0  0  0  0  0  0  0  0  0  0  0  0
    9.2010   -4.5040   26.3950 C   0  0  0  0  0  0  0  0  0  0  0  0
   10.5220   -4.2760   25.9770 C   0  0  0  0  0  0  0  0  0  0  0  0
   11.0060   -3.1640   25.2650 C   0  0  0  0  0  0  0  0  0  0  0  0
   12.2770   -2.8530   24.8320 C   0  0  0  0  0  0  0  0  0  0  0  0
   12.5150   -2.0100   23.7970 N   0  0  0  0  0  0  0  0  0  0  0  0
   13.3560   -3.3880   25.4460 O   0  0  0  0  0  0  0  0  0  0  0  0
    9.9360   -2.1540   24.9420 C   0  0  0  0  0  0  0  0  0  0  0  0
    8.5310   -2.3460   25.3550 C   0  0  0  0  0  0  0  0  0  0  0  0
    5.8620   -1.5930   26.6150 C   0  0  0  0  0  0  0  0  0  0  0  0
    5.2140   -1.7380   27.9390 C   0  0  0  0  0  0  0  0  0  0  0  0
    5.1490   -0.6160   28.8280 C   0  0  0  0  0  0  0  0  0  0  0  0
    5.6540    0.5890   28.4710 C   0  0  0  0  0  0  0  0  0  0  0  0
    6.2690    0.8010   27.1980 C   0  0  0  0  0  0  0  0  0  0  0  0
    6.3640   -0.3600   26.2570 C   0  0  0  0  0  0  0  0  0  0  0  0
    6.6990    2.0920   27.0280 O   0  0  0  0  0  0  0  0  0  0  0  0
    6.3380    2.6960   28.2580 C   0  0  0  0  0  0  0  0  0  0  0  0
    5.6970    1.6870   29.0890 O   0  0  0  0  0  0  0  0  0  0  0  0
    5.9260   -5.1190   23.4130 C   0  0  0  0  0  0  0  0  0  0  0  0
    6.6160   -5.5370   22.3280 C   0  0  0  0  0  0  0  0  0  0  0  0
  1  2  1  0
  2  3  2  0
  2  4  1  0
  4  5  1  0
  5  6  1  0
  6  7  1  0
  7  8  1  0
  8  9  2  0
  8 10  1  0
 10 11  1  0
 11 12  1  0
 12 13  2  0
 13 14  1  0
 14 15  2  0
 15 16  1  0
 16 17  1  0
 16 18  2  0
 15 19  1  0
 12 20  1  0
 19 20  2  0
 10 21  1  0
 21 22  2  0
 22 23  1  0
 23 24  2  0
 24 25  1  0
 21 26  1  0
 25 26  2  0
 25 27  1  0
 27 28  1  0
 24 29  1  0
 28 29  1  0
  7 30  1  0
  4 31  1  0
 30 31  1  0
M  END
