piperidine-amides-12921-covalent
     RDKit          3D

 21 22  0  0  0  0  0  0  0  0999 V2000
    7.0510   -3.3370   19.3390 C   0  0  0  0  0  0  0  0  0  0  0  0
    6.3920   -4.1860   20.3580 C   0  0  0  0  0  0  0  0  0  0  0  0
    5.3840   -4.8200   19.9770 O   0  0  0  0  0  0  0  0  0  0  0  0
    6.9090   -4.3020   21.6600 N   0  0  0  0  0  0  0  0  0  0  0  0
    6.6110   -5.4450   22.4570 C   0  0  0  0  0  0  0  0  0  0  0  0
    6.0610   -5.0800   23.7580 C   0  0  0  0  0  0  0  0  0  0  0  0
    6.1030   -3.6240   24.0000 C   0  0  0  0  0  0  0  0  0  0  0  0
    5.6510   -3.3000   25.3820 C   0  0  0  0  0  0  0  0  0  0  0  0
    4.4260   -3.3560   25.6280 O   0  0  0  0  0  0  0  0  0  0  0  0
    6.5500   -2.9250   26.3960 N   0  0  0  0  0  0  0  0  0  0  0  0
    6.4860   -1.6220   27.1060 C   0  0  0  0  0  0  0  0  0  0  0  0
    7.0270   -1.6730   28.4490 C   0  0  0  0  0  0  0  0  0  0  0  0
    7.0390   -0.5360   29.2560 C   0  0  0  0  0  0  0  0  0  0  0  0
    6.5250    0.6030   28.7270 C   0  0  0  0  0  0  0  0  0  0  0  0
    6.4840    1.6710   29.3580 O   0  0  0  0  0  0  0  0  0  0  0  0
    5.3940    1.7750   30.0600 C   0  0  0  0  0  0  0  0  0  0  0  0
    6.0180    0.5260   27.3760 N   0  0  0  0  0  0  0  0  0  0  0  0
    5.9060   -0.4820   26.3970 C   0  0  0  0  0  0  0  0  0  0  0  0
    5.4370    0.7430   26.0280 C   0  0  0  0  0  0  0  0  0  0  0  0
    7.3660   -2.9720   23.5850 C   0  0  0  0  0  0  0  0  0  0  0  0
    7.6880   -3.2160   22.2390 C   0  0  0  0  0  0  0  0  0  0  0  0
  1  2  1  0
  2  3  2  0
  2  4  1  0
  4  5  1  0
  5  6  1  0
  6  7  1  0
  7  8  1  0
  8  9  2  0
  8 10  1  0
 10 11  1  0
 11 12  2  0
 12 13  1  0
 13 14  2  0
 14 15  1  0
 15 16  1  0
 14 17  1  0
 11 18  1  0
 17 18  2  0
 18 19  1  0
  7 20  1  0
  4 21  1  0
 20 21  1  0
M  END
