piperidine-amides-31393-covalent
     RDKit          3D

 28 31  0  0  0  0  0  0  0  0999 V2000
    7.1370   -3.3730   19.4560 C   0  0  0  0  0  0  0  0  0  0  0  0
    6.4650   -4.2440   20.3900 C   0  0  0  0  0  0  0  0  0  0  0  0
    5.4250   -4.8680   19.9950 O   0  0  0  0  0  0  0  0  0  0  0  0
    6.9630   -4.4520   21.6940 N   0  0  0  0  0  0  0  0  0  0  0  0
    6.4910   -5.6280   22.4460 C   0  0  0  0  0  0  0  0  0  0  0  0
    5.5630   -4.9000   23.4940 C   0  0  0  0  0  0  0  0  0  0  0  0
    6.4350   -3.8810   24.2040 C   0  0  0  0  0  0  0  0  0  0  0  0
    5.7330   -3.3020   25.5190 C   0  0  0  0  0  0  0  0  0  0  0  0
    5.1990   -2.2370   25.2590 O   0  0  0  0  0  0  0  0  0  0  0  0
    5.8710   -4.0910   26.5130 N   0  0  0  0  0  0  0  0  0  0  0  0
    5.7730   -5.1650   27.2980 C   0  0  0  0  0  0  0  0  0  0  0  0
    6.0310   -5.4070   28.6060 C   0  0  0  0  0  0  0  0  0  0  0  0
    5.4190   -4.3030   29.3190 N   0  0  0  0  0  0  0  0  0  0  0  0
    4.3170   -4.4620   30.0780 C   0  0  0  0  0  0  0  0  0  0  0  0
    3.3510   -3.5510   30.2250 N   0  0  0  0  0  0  0  0  0  0  0  0
    2.2520   -3.7690   31.0160 C   0  0  0  0  0  0  0  0  0  0  0  0
    1.2630   -2.6000   31.0530 C   0  0  0  0  0  0  0  0  0  0  0  0
    2.0350   -4.9410   31.7310 N   0  0  0  0  0  0  0  0  0  0  0  0
    2.9380   -5.9470   31.6720 C   0  0  0  0  0  0  0  0  0  0  0  0
    4.0310   -5.6740   30.8600 C   0  0  0  0  0  0  0  0  0  0  0  0
    4.7690   -6.9670   31.0500 C   0  0  0  0  0  0  0  0  0  0  0  0
    4.1130   -7.8150   31.8790 N   0  0  0  0  0  0  0  0  0  0  0  0
    3.0200   -7.1880   32.2410 N   0  0  0  0  0  0  0  0  0  0  0  0
    2.0410   -7.7740   33.1380 C   0  0  0  0  0  0  0  0  0  0  0  0
    5.4870   -3.0940   28.5380 C   0  0  0  0  0  0  0  0  0  0  0  0
    6.4430   -3.2770   27.5930 C   0  0  0  0  0  0  0  0  0  0  0  0
    6.9980   -2.7980   23.2930 C   0  0  0  0  0  0  0  0  0  0  0  0
    7.7620   -3.4640   22.3820 C   0  0  0  0  0  0  0  0  0  0  0  0
  1  2  1  0
  2  3  2  0
  2  4  1  0
  4  5  1  0
  5  6  1  0
  6  7  1  0
  7  8  1  0
  8  9  2  0
  8 10  1  0
 10 11  1  0
 11 12  1  0
 12 13  1  0
 13 14  1  0
 14 15  2  0
 15 16  1  0
 16 17  1  0
 16 18  2  0
 18 19  1  0
 14 20  1  0
 19 20  2  0
 20 21  1  0
 21 22  2  0
 19 23  1  0
 22 23  1  0
 23 24  1  0
 13 25  1  0
 10 26  1  0
 25 26  1  0
  7 27  1  0
  4 28  1  0
 27 28  1  0
M  END
