piperidine-amides-8767-covalent
     RDKit          3D

 22 23  0  0  0  0  0  0  0  0999 V2000
    7.0710   -3.3030   19.2830 C   0  0  0  0  0  0  0  0  0  0  0  0
    6.3840   -4.1100   20.2890 C   0  0  0  0  0  0  0  0  0  0  0  0
    5.3530   -4.7140   19.9470 O   0  0  0  0  0  0  0  0  0  0  0  0
    6.9170   -4.2320   21.6010 N   0  0  0  0  0  0  0  0  0  0  0  0
    7.6910   -3.1580   22.1610 C   0  0  0  0  0  0  0  0  0  0  0  0
    7.0090   -2.6360   23.3870 C   0  0  0  0  0  0  0  0  0  0  0  0
    6.5940   -3.8360   24.2050 C   0  0  0  0  0  0  0  0  0  0  0  0
    5.7620   -3.4070   25.3830 C   0  0  0  0  0  0  0  0  0  0  0  0
    4.5470   -3.3680   25.2020 O   0  0  0  0  0  0  0  0  0  0  0  0
    6.4060   -3.0730   26.5760 N   0  0  0  0  0  0  0  0  0  0  0  0
    6.2440   -3.8070   27.8030 C   0  0  2  0  0  0  0  0  0  0  0  0
    5.6600   -5.0850   27.7140 C   0  0  0  0  0  0  0  0  0  0  0  0
    4.5420   -5.0310   26.8800 F   0  0  0  0  0  0  0  0  0  0  0  0
    5.3680   -2.9700   28.6480 C   0  0  0  0  0  0  0  0  0  0  0  0
    4.0380   -3.3670   28.8590 C   0  0  0  0  0  0  0  0  0  0  0  0
    3.1320   -2.5200   29.7260 C   0  0  0  0  0  0  0  0  0  0  0  0
    3.6250   -1.2240   30.3940 C   0  0  0  0  0  0  0  0  0  0  0  0
    5.0220   -0.8850   30.1210 C   0  0  0  0  0  0  0  0  0  0  0  0
    5.8080   -1.8010   29.2510 C   0  0  0  0  0  0  0  0  0  0  0  0
    7.2580   -1.2870   29.0750 C   0  0  0  0  0  0  0  0  0  0  0  0
    5.7080   -4.7440   23.3750 C   0  0  0  0  0  0  0  0  0  0  0  0
    6.5460   -5.3320   22.4490 C   0  0  0  0  0  0  0  0  0  0  0  0
  1  2  1  0
  2  3  2  0
  2  4  1  0
  4  5  1  0
  5  6  1  0
  6  7  1  0
  7  8  1  0
  8  9  2  0
  8 10  1  0
 10 11  1  0
 11 12  1  6
 12 13  1  0
 11 14  1  0
 14 15  2  0
 15 16  1  0
 16 17  2  0
 17 18  1  0
 14 19  1  0
 18 19  2  0
 19 20  1  0
  7 21  1  0
  4 22  1  0
 21 22  1  0
M  END
