piperidine-amides-4128-covalent
     RDKit          3D

 27 29  0  0  0  0  0  0  0  0999 V2000
    7.0470   -3.3200   19.3290 C   0  0  0  0  0  0  0  0  0  0  0  0
    6.3500   -4.1390   20.3410 C   0  0  0  0  0  0  0  0  0  0  0  0
    5.3380   -4.7690   19.9550 O   0  0  0  0  0  0  0  0  0  0  0  0
    6.8210   -4.2590   21.6790 N   0  0  0  0  0  0  0  0  0  0  0  0
    7.6590   -3.2400   22.2120 C   0  0  0  0  0  0  0  0  0  0  0  0
    7.3620   -3.0180   23.6010 C   0  0  0  0  0  0  0  0  0  0  0  0
    6.0900   -3.6590   23.9550 C   0  0  0  0  0  0  0  0  0  0  0  0
    5.6480   -3.2800   25.3330 C   0  0  0  0  0  0  0  0  0  0  0  0
    4.4460   -3.3940   25.6390 O   0  0  0  0  0  0  0  0  0  0  0  0
    6.5530   -2.7810   26.2850 N   0  0  0  0  0  0  0  0  0  0  0  0
    6.4530   -1.5630   26.9890 C   0  0  0  0  0  0  0  0  0  0  0  0
    5.8960   -0.3210   26.4500 C   0  0  0  0  0  0  0  0  0  0  0  0
    5.8470    0.9250   27.3480 C   0  0  0  0  0  0  0  0  0  0  0  0
    6.3270    0.8390   28.6310 C   0  0  0  0  0  0  0  0  0  0  0  0
    6.2860    1.9510   29.4500 O   0  0  0  0  0  0  0  0  0  0  0  0
    6.5800    3.1350   28.7900 C   0  0  0  0  0  0  0  0  0  0  0  0
    7.9410    3.6200   28.7610 N   0  0  0  0  0  0  0  0  0  0  0  0
    8.3410    4.8770   28.0750 C   0  0  0  0  0  0  0  0  0  0  0  0
    7.1250    5.5520   27.4310 C   0  0  0  0  0  0  0  0  0  0  0  0
    7.4890    7.0440   26.5960 Cl  0  0  0  0  0  0  0  0  0  0  0  0
    5.7110    5.0640   27.4570 C   0  0  0  0  0  0  0  0  0  0  0  0
    5.5780    3.9090   28.1310 N   0  0  0  0  0  0  0  0  0  0  0  0
    6.8650   -0.2600   29.2300 C   0  0  0  0  0  0  0  0  0  0  0  0
    7.4130   -0.1350   30.8850 Cl  0  0  0  0  0  0  0  0  0  0  0  0
    6.9600   -1.5570   28.4160 C   0  0  0  0  0  0  0  0  0  0  0  0
    6.1250   -5.1460   23.7220 C   0  0  0  0  0  0  0  0  0  0  0  0
    6.6510   -5.4830   22.4470 C   0  0  0  0  0  0  0  0  0  0  0  0
  1  2  1  0
  2  3  2  0
  2  4  1  0
  4  5  1  0
  5  6  1  0
  6  7  1  0
  7  8  1  0
  8  9  2  0
  8 10  1  0
 10 11  1  0
 11 12  2  0
 12 13  1  0
 13 14  2  0
 14 15  1  0
 15 16  1  0
 16 17  2  0
 17 18  1  0
 18 19  2  0
 19 20  1  0
 19 21  1  0
 16 22  1  0
 21 22  2  0
 14 23  1  0
 23 24  1  0
 11 25  1  0
 23 25  2  0
  7 26  1  0
  4 27  1  0
 26 27  1  0
M  END
