piperidine-amides-12852-covalent
     RDKit          3D

 23 24  0  0  0  0  0  0  0  0999 V2000
    7.0880   -3.3050   19.2660 C   0  0  0  0  0  0  0  0  0  0  0  0
    6.3800   -4.1170   20.2810 C   0  0  0  0  0  0  0  0  0  0  0  0
    5.3210   -4.6690   19.9240 O   0  0  0  0  0  0  0  0  0  0  0  0
    6.9180   -4.2910   21.5640 N   0  0  0  0  0  0  0  0  0  0  0  0
    7.6370   -3.2300   22.1890 C   0  0  0  0  0  0  0  0  0  0  0  0
    7.1010   -2.7920   23.4790 C   0  0  0  0  0  0  0  0  0  0  0  0
    6.4790   -3.8550   24.2980 C   0  0  0  0  0  0  0  0  0  0  0  0
    5.6010   -3.2480   25.3430 C   0  0  0  0  0  0  0  0  0  0  0  0
    4.4770   -2.8460   24.9700 O   0  0  0  0  0  0  0  0  0  0  0  0
    5.9980   -3.1310   26.7220 N   0  0  0  0  0  0  0  0  0  0  0  0
    6.4070   -1.8560   27.4070 C   0  0  0  0  0  0  0  0  0  0  0  0
    6.3250   -1.0410   26.4300 C   0  0  0  0  0  0  0  0  0  0  0  0
    5.9780   -2.3640   26.1070 N   0  0  0  0  0  0  0  0  0  0  0  0
    6.1630   -3.0860   27.4520 N   0  0  0  0  0  0  0  0  0  0  0  0
    5.9530   -4.4880   27.7650 C   0  0  0  0  0  0  0  0  0  0  0  0
    4.6920   -4.7950   28.1900 C   0  0  0  0  0  0  0  0  0  0  0  0
    4.4260   -6.1490   28.1300 C   0  0  0  0  0  0  0  0  0  0  0  0
    4.6380   -4.5410   29.6480 C   0  0  0  0  0  0  0  0  0  0  0  0
    6.6550   -2.1290   28.6250 C   0  0  0  0  0  0  0  0  0  0  0  0
    6.9770   -0.8360   28.8610 C   0  0  0  0  0  0  0  0  0  0  0  0
    7.7320   -0.7110   30.0260 C   0  0  0  0  0  0  0  0  0  0  0  0
    5.7710   -4.9290   23.5540 C   0  0  0  0  0  0  0  0  0  0  0  0
    6.5940   -5.4390   22.3980 C   0  0  0  0  0  0  0  0  0  0  0  0
  1  2  1  0
  2  3  2  0
  2  4  1  0
  4  5  1  0
  5  6  1  0
  6  7  1  0
  7  8  1  0
  8  9  2  0
  8 10  1  0
 10 11  1  0
 11 12  1  0
 12 13  2  0
 13 14  1  0
 14 15  1  0
 15 16  1  0
 16 17  1  0
 16 18  1  0
 11 19  2  0
 14 19  1  0
 19 20  1  0
 20 21  1  0
  7 22  1  0
  4 23  1  0
 22 23  1  0
M  END
