piperidine-amides-17034-covalent
     RDKit          3D

 20 21  0  0  0  0  0  0  0  0999 V2000
    7.0650   -3.3700   19.3880 C   0  0  0  0  0  0  0  0  0  0  0  0
    6.4240   -4.2490   20.3810 C   0  0  0  0  0  0  0  0  0  0  0  0
    5.4030   -4.8700   19.9920 O   0  0  0  0  0  0  0  0  0  0  0  0
    6.9670   -4.4300   21.6870 N   0  0  0  0  0  0  0  0  0  0  0  0
    6.4720   -5.4830   22.4890 C   0  0  0  0  0  0  0  0  0  0  0  0
    5.8430   -5.0640   23.7500 C   0  0  0  0  0  0  0  0  0  0  0  0
    6.2590   -3.7660   24.3760 C   0  0  0  0  0  0  0  0  0  0  0  0
    5.1430   -3.2580   25.2830 C   0  0  0  0  0  0  0  0  0  0  0  0
    4.0180   -3.1110   24.7880 O   0  0  0  0  0  0  0  0  0  0  0  0
    5.2990   -2.9310   26.6640 N   0  0  0  0  0  0  0  0  0  0  0  0
    4.4540   -3.1140   27.7460 C   0  0  0  0  0  0  0  0  0  0  0  0
    5.2100   -3.6150   28.8690 C   0  0  0  0  0  0  0  0  0  0  0  0
    6.4810   -4.1560   28.1840 C   0  0  1  0  0  0  0  0  0  0  0  0
    6.0170   -5.5110   27.8840 N   0  0  0  0  0  0  0  0  0  0  0  0
    6.4840   -6.3790   28.9210 C   0  0  0  0  0  0  0  0  0  0  0  0
    4.7130   -5.6780   27.3590 C   0  0  0  0  0  0  0  0  0  0  0  0
    4.4480   -7.1070   27.0650 C   0  0  0  0  0  0  0  0  0  0  0  0
    6.5610   -2.9870   27.2090 C   0  0  0  0  0  0  0  0  0  0  0  0
    6.7270   -2.7000   23.3990 C   0  0  0  0  0  0  0  0  0  0  0  0
    7.6380   -3.3510   22.3710 C   0  0  0  0  0  0  0  0  0  0  0  0
  1  2  1  0
  2  3  2  0
  2  4  1  0
  4  5  1  0
  5  6  1  0
  6  7  1  0
  7  8  1  0
  8  9  2  0
  8 10  1  0
 10 11  1  0
 11 12  1  0
 12 13  1  0
 13 14  1  6
 14 15  1  0
 14 16  1  0
 16 17  1  0
 10 18  1  0
 13 18  1  0
  7 19  1  0
  4 20  1  0
 19 20  1  0
M  END
