piperidine-amides-25466-covalent
     RDKit          3D

 25 27  0  0  0  0  0  0  0  0999 V2000
    7.0390   -3.3410   19.3200 C   0  0  0  0  0  0  0  0  0  0  0  0
    6.3730   -4.2030   20.3290 C   0  0  0  0  0  0  0  0  0  0  0  0
    5.3660   -4.8060   19.9700 O   0  0  0  0  0  0  0  0  0  0  0  0
    6.9160   -4.3460   21.6100 N   0  0  0  0  0  0  0  0  0  0  0  0
    6.7670   -5.5860   22.3410 C   0  0  0  0  0  0  0  0  0  0  0  0
    6.2350   -5.3120   23.7150 C   0  0  0  0  0  0  0  0  0  0  0  0
    6.0790   -3.8070   23.8830 C   0  0  0  0  0  0  0  0  0  0  0  0
    5.4690   -3.5130   25.1870 C   0  0  0  0  0  0  0  0  0  0  0  0
    4.2830   -3.1660   25.2150 O   0  0  0  0  0  0  0  0  0  0  0  0
    6.1660   -3.6000   26.3900 N   0  0  0  0  0  0  0  0  0  0  0  0
    5.6470   -4.5420   27.3800 C   0  0  0  0  0  0  0  0  0  0  0  0
    5.9190   -3.8850   28.6830 C   0  0  2  0  0  0  0  0  0  0  0  0
    5.1600   -2.9120   29.2460 C   0  0  0  0  0  0  0  0  0  0  0  0
    3.8210   -2.6920   28.8490 N   0  0  0  0  0  0  0  0  0  0  0  0
    5.6760   -2.2290   30.1730 O   0  0  0  0  0  0  0  0  0  0  0  0
    6.5240   -2.6120   28.5160 C   0  0  2  0  0  0  0  0  0  0  0  0
    6.1760   -1.4200   29.1430 C   0  0  0  0  0  0  0  0  0  0  0  0
    4.9210   -0.5540   29.2700 C   0  0  0  0  0  0  0  0  0  0  0  0
    5.0980    0.6910   30.1000 C   0  0  0  0  0  0  0  0  0  0  0  0
    6.4340    1.0130   30.7330 C   0  0  0  0  0  0  0  0  0  0  0  0
    7.5410    0.0500   30.4930 C   0  0  0  0  0  0  0  0  0  0  0  0
    7.5470   -1.2100   29.7090 C   0  0  0  0  0  0  0  0  0  0  0  0
    6.4660   -2.3900   27.1820 C   0  0  0  0  0  0  0  0  0  0  0  0
    7.4170   -3.1520   23.6800 C   0  0  0  0  0  0  0  0  0  0  0  0
    7.7020   -3.2730   22.2140 C   0  0  0  0  0  0  0  0  0  0  0  0
  1  2  1  0
  2  3  2  0
  2  4  1  0
  4  5  1  0
  5  6  1  0
  6  7  1  0
  7  8  1  0
  8  9  2  0
  8 10  1  0
 10 11  1  0
 11 12  1  0
 12 13  1  6
 13 14  1  0
 13 15  2  0
 12 16  1  0
 16 17  1  1
 17 18  2  0
 18 19  1  0
 19 20  2  0
 20 21  1  0
 17 22  1  0
 21 22  2  0
 10 23  1  0
 16 23  1  0
  7 24  1  0
  4 25  1  0
 24 25  1  0
M  END
