piperidine-amides-27664-covalent
     RDKit          3D

 23 25  0  0  0  0  0  0  0  0999 V2000
    7.0510   -3.3800   19.4060 C   0  0  0  0  0  0  0  0  0  0  0  0
    6.3430   -4.2290   20.3630 C   0  0  0  0  0  0  0  0  0  0  0  0
    5.2840   -4.7600   19.9500 O   0  0  0  0  0  0  0  0  0  0  0  0
    6.8630   -4.4720   21.6410 N   0  0  0  0  0  0  0  0  0  0  0  0
    6.5650   -5.6760   22.3900 C   0  0  0  0  0  0  0  0  0  0  0  0
    5.8780   -5.3180   23.6950 C   0  0  0  0  0  0  0  0  0  0  0  0
    5.8330   -3.8320   23.9230 C   0  0  0  0  0  0  0  0  0  0  0  0
    5.3160   -3.4660   25.2810 C   0  0  0  0  0  0  0  0  0  0  0  0
    4.5920   -2.4560   25.3440 O   0  0  0  0  0  0  0  0  0  0  0  0
    5.5640   -4.1490   26.4940 N   0  0  0  0  0  0  0  0  0  0  0  0
    6.8950   -4.3130   26.8330 C   0  0  0  0  0  0  0  0  0  0  0  0
    7.0320   -5.4300   27.8260 C   0  0  0  0  0  0  0  0  0  0  0  0
    5.9790   -5.6880   28.4340 O   0  0  0  0  0  0  0  0  0  0  0  0
    5.2750   -4.5320   28.7020 C   0  0  2  0  0  0  0  0  0  0  0  0
    4.4780   -4.6260   29.8190 C   0  0  0  0  0  0  0  0  0  0  0  0
    3.7490   -3.5880   30.3610 C   0  0  0  0  0  0  0  0  0  0  0  0
    3.0130   -3.8650   31.4730 C   0  0  0  0  0  0  0  0  0  0  0  0
    3.0410   -5.1380   31.9750 C   0  0  0  0  0  0  0  0  0  0  0  0
    2.1660   -5.6870   33.3890 Cl  0  0  0  0  0  0  0  0  0  0  0  0
    4.1110   -5.9400   30.8720 S   0  0  0  0  0  0  0  0  0  0  0  0
    4.6300   -4.0060   27.5680 C   0  0  0  0  0  0  0  0  0  0  0  0
    7.1840   -3.2750   23.7160 C   0  0  0  0  0  0  0  0  0  0  0  0
    7.5610   -3.3470   22.2650 C   0  0  0  0  0  0  0  0  0  0  0  0
  1  2  1  0
  2  3  2  0
  2  4  1  0
  4  5  1  0
  5  6  1  0
  6  7  1  0
  7  8  1  0
  8  9  2  0
  8 10  1  0
 10 11  1  0
 11 12  1  0
 12 13  1  0
 13 14  1  0
 14 15  1  1
 15 16  2  0
 16 17  1  0
 17 18  2  0
 18 19  1  0
 15 20  1  0
 18 20  1  0
 10 21  1  0
 14 21  1  0
  7 22  1  0
  4 23  1  0
 22 23  1  0
M  END
