piperidine-amides-25420-covalent
     RDKit          3D

 25 27  0  0  0  0  0  0  0  0999 V2000
    7.0430   -3.3320   19.3620 C   0  0  0  0  0  0  0  0  0  0  0  0
    6.3400   -4.2260   20.3200 C   0  0  0  0  0  0  0  0  0  0  0  0
    5.3020   -4.7510   19.9400 O   0  0  0  0  0  0  0  0  0  0  0  0
    6.8780   -4.4840   21.5760 N   0  0  0  0  0  0  0  0  0  0  0  0
    6.4950   -5.6560   22.3130 C   0  0  0  0  0  0  0  0  0  0  0  0
    6.2870   -5.2710   23.7540 C   0  0  0  0  0  0  0  0  0  0  0  0
    5.7850   -3.8250   23.8560 C   0  0  0  0  0  0  0  0  0  0  0  0
    5.4060   -3.4940   25.2530 C   0  0  0  0  0  0  0  0  0  0  0  0
    4.3270   -2.9210   25.4520 O   0  0  0  0  0  0  0  0  0  0  0  0
    6.2130   -3.8080   26.3580 N   0  0  0  0  0  0  0  0  0  0  0  0
    5.7390   -3.5560   27.7000 C   0  0  0  0  0  0  0  0  0  0  0  0
    6.1230   -4.7830   28.4850 C   0  0  0  0  0  0  0  0  0  0  0  0
    7.3560   -5.3500   28.3340 C   0  0  0  0  0  0  0  0  0  0  0  0
    8.1100   -4.8020   27.3620 C   0  0  1  0  0  0  0  0  0  0  0  0
    7.7290   -5.0350   26.0740 C   0  0  0  0  0  0  0  0  0  0  0  0
    7.5900   -3.5990   26.7270 C   0  0  1  0  0  0  0  0  0  0  0  0
    8.1570   -2.8820   25.5210 C   0  0  0  0  0  0  0  0  0  0  0  0
    9.2820   -3.6680   24.9090 C   0  0  0  0  0  0  0  0  0  0  0  0
    9.8730   -3.0100   23.7110 C   0  0  0  0  0  0  0  0  0  0  0  0
    9.4320   -1.7240   23.1500 C   0  0  0  0  0  0  0  0  0  0  0  0
    9.9840   -0.9980   21.9380 C   0  0  0  0  0  0  0  0  0  0  0  0
    8.2840   -1.0080   23.8460 C   0  0  0  0  0  0  0  0  0  0  0  0
    7.6780   -1.6740   25.0690 C   0  0  0  0  0  0  0  0  0  0  0  0
    6.8700   -2.8960   23.3910 C   0  0  0  0  0  0  0  0  0  0  0  0
    7.6000   -3.4270   22.2010 C   0  0  0  0  0  0  0  0  0  0  0  0
  1  2  1  0
  2  3  2  0
  2  4  1  0
  4  5  1  0
  5  6  1  0
  6  7  1  0
  7  8  1  0
  8  9  2  0
  8 10  1  0
 10 11  1  0
 11 12  1  0
 12 13  1  0
 13 14  1  0
 14 15  1  6
 10 16  1  0
 14 16  1  0
 16 17  1  6
 17 18  2  0
 18 19  1  0
 19 20  2  0
 20 21  1  0
 20 22  1  0
 17 23  1  0
 22 23  2  0
  7 24  1  0
  4 25  1  0
 24 25  1  0
M  END
