piperidine-amides-25506-covalent
     RDKit          3D

 23 25  0  0  0  0  0  0  0  0999 V2000
    7.0930   -3.3110   19.2250 C   0  0  0  0  0  0  0  0  0  0  0  0
    6.3860   -4.1180   20.2540 C   0  0  0  0  0  0  0  0  0  0  0  0
    5.3290   -4.6510   19.9220 O   0  0  0  0  0  0  0  0  0  0  0  0
    6.9480   -4.2980   21.5160 N   0  0  0  0  0  0  0  0  0  0  0  0
    6.6370   -5.4450   22.3120 C   0  0  0  0  0  0  0  0  0  0  0  0
    5.9050   -4.9710   23.5310 C   0  0  0  0  0  0  0  0  0  0  0  0
    6.7070   -3.8840   24.2700 C   0  0  0  0  0  0  0  0  0  0  0  0
    5.7440   -3.2280   25.1700 C   0  0  0  0  0  0  0  0  0  0  0  0
    4.7130   -2.7410   24.6920 O   0  0  0  0  0  0  0  0  0  0  0  0
    5.9240   -3.1420   26.5570 N   0  0  0  0  0  0  0  0  0  0  0  0
    6.9650   -3.9240   27.2090 C   0  0  2  0  0  0  0  0  0  0  0  0
    7.9780   -4.4480   26.2780 C   0  0  0  0  0  0  0  0  0  0  0  0
    8.9570   -5.6140   26.9540 S   0  0  0  0  0  0  0  0  0  0  0  0
    8.0300   -6.9420   27.3710 N   0  0  0  0  0  0  0  0  0  0  0  0
   10.0930   -5.9780   26.0780 O   0  0  0  0  0  0  0  0  0  0  0  0
    9.2940   -5.0840   28.2940 O   0  0  0  0  0  0  0  0  0  0  0  0
    6.3530   -5.1670   27.7480 C   0  0  1  0  0  0  0  0  0  0  0  0
    6.5720   -4.6570   28.9400 C   0  0  0  0  0  0  0  0  0  0  0  0
    5.7080   -3.6350   28.9130 C   0  0  0  0  0  0  0  0  0  0  0  0
    4.9760   -3.4890   27.6110 C   0  0  2  0  0  0  0  0  0  0  0  0
    4.8970   -4.9910   27.6010 C   0  0  0  0  0  0  0  0  0  0  0  0
    7.3210   -2.8230   23.4440 C   0  0  0  0  0  0  0  0  0  0  0  0
    7.7000   -3.2050   22.0670 C   0  0  0  0  0  0  0  0  0  0  0  0
  1  2  1  0
  2  3  2  0
  2  4  1  0
  4  5  1  0
  5  6  1  0
  6  7  1  0
  7  8  1  0
  8  9  2  0
  8 10  1  0
 10 11  1  0
 11 12  1  6
 12 13  1  0
 13 14  1  0
 13 15  2  0
 13 16  2  0
 11 17  1  0
 17 18  1  1
 18 19  1  0
 10 20  1  0
 20 19  1  1
 17 21  1  0
 20 21  1  0
  7 22  1  0
  4 23  1  0
 22 23  1  0
M  END
