piperidine-amides-30896-covalent
     RDKit          3D

 27 29  0  0  0  0  0  0  0  0999 V2000
    7.0970   -3.3400   19.2910 C   0  0  0  0  0  0  0  0  0  0  0  0
    6.4200   -4.1530   20.2960 C   0  0  0  0  0  0  0  0  0  0  0  0
    5.3960   -4.7880   19.9760 O   0  0  0  0  0  0  0  0  0  0  0  0
    6.9490   -4.2580   21.5900 N   0  0  0  0  0  0  0  0  0  0  0  0
    7.8110   -3.2050   22.1100 C   0  0  0  0  0  0  0  0  0  0  0  0
    7.5910   -3.1820   23.5870 C   0  0  0  0  0  0  0  0  0  0  0  0
    6.2280   -3.6970   23.8870 C   0  0  0  0  0  0  0  0  0  0  0  0
    5.6790   -3.2100   25.1610 C   0  0  0  0  0  0  0  0  0  0  0  0
    5.1980   -2.0490   25.2370 O   0  0  0  0  0  0  0  0  0  0  0  0
    5.6080   -3.9740   26.3220 N   0  0  0  0  0  0  0  0  0  0  0  0
    4.2320   -4.3900   26.7410 C   0  0  0  0  0  0  0  0  0  0  0  0
    4.6510   -4.3590   28.0970 C   0  0  1  0  0  0  0  0  0  0  0  0
    5.1420   -5.3960   28.8970 C   0  0  0  0  0  0  0  0  0  0  0  0
    6.4970   -5.0610   28.3390 C   0  0  2  0  0  0  0  0  0  0  0  0
    7.1110   -4.8630   29.5000 O   0  0  0  0  0  0  0  0  0  0  0  0
    6.2540   -3.6710   27.5980 C   0  0  2  0  0  0  0  0  0  0  0  0
    5.1360   -3.0330   28.3320 C   0  0  2  0  0  0  0  0  0  0  0  0
    5.4940   -2.5350   29.6180 N   0  0  0  0  0  0  0  0  0  0  0  0
    5.1500   -1.2360   29.8370 C   0  0  0  0  0  0  0  0  0  0  0  0
    4.5680   -0.6510   28.9110 O   0  0  0  0  0  0  0  0  0  0  0  0
    5.4090   -0.5370   31.0040 O   0  0  0  0  0  0  0  0  0  0  0  0
    6.6310    0.1230   30.9730 C   0  0  0  0  0  0  0  0  0  0  0  0
    7.2020    0.3040   32.3690 C   0  0  0  0  0  0  0  0  0  0  0  0
    7.6070   -0.6720   30.1660 C   0  0  0  0  0  0  0  0  0  0  0  0
    6.5490    1.4450   30.2680 C   0  0  0  0  0  0  0  0  0  0  0  0
    6.2310   -5.1740   23.6870 C   0  0  0  0  0  0  0  0  0  0  0  0
    6.6780   -5.4760   22.3060 C   0  0  0  0  0  0  0  0  0  0  0  0
  1  2  1  0
  2  3  2  0
  2  4  1  0
  4  5  1  0
  5  6  1  0
  6  7  1  0
  7  8  1  0
  8  9  2  0
  8 10  1  0
 10 11  1  0
 12 11  1  6
 12 13  1  0
 13 14  1  0
 14 15  1  1
 16 10  1  6
 14 16  1  0
 12 17  1  0
 16 17  1  0
 17 18  1  1
 18 19  1  0
 19 20  2  0
 19 21  1  0
 22 21  1  0
 22 23  1  0
 22 24  1  0
 22 25  1  0
  7 26  1  0
  4 27  1  0
 26 27  1  0
M  END
