piperidine-amides-31660-covalent
     RDKit          3D

 28 30  0  0  0  0  0  0  0  0999 V2000
    7.1900   -3.2800   19.3140 C   0  0  0  0  0  0  0  0  0  0  0  0
    6.3700   -4.0010   20.2620 C   0  0  0  0  0  0  0  0  0  0  0  0
    5.2840   -4.5270   19.8700 O   0  0  0  0  0  0  0  0  0  0  0  0
    6.7560   -4.1790   21.6000 N   0  0  0  0  0  0  0  0  0  0  0  0
    7.7280   -3.2210   22.1740 C   0  0  0  0  0  0  0  0  0  0  0  0
    6.8040   -2.5880   23.2680 C   0  0  0  0  0  0  0  0  0  0  0  0
    6.6750   -3.6700   24.3030 C   0  0  0  0  0  0  0  0  0  0  0  0
    5.5690   -3.2930   25.3770 C   0  0  0  0  0  0  0  0  0  0  0  0
    4.4550   -3.5740   24.9550 O   0  0  0  0  0  0  0  0  0  0  0  0
    6.1200   -2.7870   26.4130 N   0  0  0  0  0  0  0  0  0  0  0  0
    6.7320   -1.8240   27.1510 C   0  0  0  0  0  0  0  0  0  0  0  0
    5.8670   -3.7570   27.4190 C   0  0  1  0  0  0  0  0  0  0  0  0
    6.6090   -3.7450   28.6350 C   0  0  0  0  0  0  0  0  0  0  0  0
    4.3920   -3.5690   27.8600 C   0  0  2  0  0  0  0  0  0  0  0  0
    4.7870   -2.5350   28.9370 C   0  0  0  0  0  0  0  0  0  0  0  0
    3.5910   -2.3150   29.7400 N   0  0  0  0  0  0  0  0  0  0  0  0
    2.4980   -1.7630   29.0120 C   0  0  0  0  0  0  0  0  0  0  0  0
    2.2630   -0.4160   29.3450 C   0  0  0  0  0  0  0  0  0  0  0  0
    1.6490   -0.9160   30.6340 C   0  0  0  0  0  0  0  0  0  0  0  0
    1.1590    0.2890   31.4860 C   0  0  0  0  0  0  0  0  0  0  0  0
    1.3390    1.5670   30.9860 C   0  0  0  0  0  0  0  0  0  0  0  0
    1.9340    1.8560   29.7620 C   0  0  0  0  0  0  0  0  0  0  0  0
    2.3970    0.8640   28.9400 C   0  0  0  0  0  0  0  0  0  0  0  0
    3.3090   -3.5720   30.4090 C   0  0  0  0  0  0  0  0  0  0  0  0
    3.9370   -4.6740   29.8200 C   0  0  0  0  0  0  0  0  0  0  0  0
    3.7140   -4.5950   28.5210 O   0  0  0  0  0  0  0  0  0  0  0  0
    6.6260   -5.1020   23.8500 C   0  0  0  0  0  0  0  0  0  0  0  0
    6.4800   -5.3470   22.3720 C   0  0  0  0  0  0  0  0  0  0  0  0
  1  2  1  0
  2  3  2  0
  2  4  1  0
  4  5  1  0
  5  6  1  0
  6  7  1  0
  7  8  1  0
  8  9  2  0
  8 10  1  0
 10 11  1  0
 10 12  1  0
 12 13  1  1
 12 14  1  0
 14 15  1  1
 15 16  1  0
 16 17  1  0
 17 18  1  0
 18 19  2  0
 19 20  1  0
 20 21  2  0
 21 22  1  0
 18 23  1  0
 22 23  2  0
 16 24  1  0
 24 25  1  0
 14 26  1  0
 25 26  1  0
  7 27  1  0
  4 28  1  0
 27 28  1  0
M  END
