piperidine-amides-1529-covalent
     RDKit          3D

 21 22  0  0  0  0  0  0  0  0999 V2000
    7.1430   -3.2700   19.2430 C   0  0  0  0  0  0  0  0  0  0  0  0
    6.3930   -4.0620   20.2560 C   0  0  0  0  0  0  0  0  0  0  0  0
    5.3260   -4.6020   19.9120 O   0  0  0  0  0  0  0  0  0  0  0  0
    6.9270   -4.2310   21.5540 N   0  0  0  0  0  0  0  0  0  0  0  0
    6.5280   -5.3470   22.3570 C   0  0  0  0  0  0  0  0  0  0  0  0
    5.6340   -4.7710   23.4650 C   0  0  0  0  0  0  0  0  0  0  0  0
    6.2910   -3.5690   24.0980 C   0  0  0  0  0  0  0  0  0  0  0  0
    5.4310   -2.9940   25.1750 C   0  0  0  0  0  0  0  0  0  0  0  0
    4.2250   -2.9380   24.9130 O   0  0  0  0  0  0  0  0  0  0  0  0
    5.9490   -2.5520   26.4040 N   0  0  0  0  0  0  0  0  0  0  0  0
    6.1770   -3.3620   27.5420 C   0  0  1  0  0  0  0  0  0  0  0  0
    5.3130   -4.2750   28.0940 C   0  0  0  0  0  0  0  0  0  0  0  0
    4.0400   -3.5750   28.1900 O   0  0  0  0  0  0  0  0  0  0  0  0
    7.2210   -4.2770   27.0900 C   0  0  0  0  0  0  0  0  0  0  0  0
    8.0960   -4.7290   28.0210 C   0  0  0  0  0  0  0  0  0  0  0  0
    9.1820   -5.6280   27.7850 C   0  0  0  0  0  0  0  0  0  0  0  0
    9.4330   -6.1540   26.4300 C   0  0  0  0  0  0  0  0  0  0  0  0
    8.4330   -5.6200   25.4500 C   0  0  0  0  0  0  0  0  0  0  0  0
    7.4490   -4.7820   25.7460 N   0  0  0  0  0  0  0  0  0  0  0  0
    6.5920   -2.4770   23.0600 C   0  0  0  0  0  0  0  0  0  0  0  0
    7.5850   -3.1010   22.1540 C   0  0  0  0  0  0  0  0  0  0  0  0
  1  2  1  0
  2  3  2  0
  2  4  1  0
  4  5  1  0
  5  6  1  0
  6  7  1  0
  7  8  1  0
  8  9  2  0
  8 10  1  0
 10 11  1  0
 11 12  1  6
 12 13  1  0
 11 14  1  0
 14 15  2  0
 15 16  1  0
 16 17  2  0
 17 18  1  0
 14 19  1  0
 18 19  2  0
  7 20  1  0
  4 21  1  0
 20 21  1  0
M  END
