piperidine-amides-1320-covalent
     RDKit          3D

 22 23  0  0  0  0  0  0  0  0999 V2000
    7.0700   -3.3220   19.2860 C   0  0  0  0  0  0  0  0  0  0  0  0
    6.3740   -4.1680   20.2950 C   0  0  0  0  0  0  0  0  0  0  0  0
    5.3510   -4.7880   19.9630 O   0  0  0  0  0  0  0  0  0  0  0  0
    6.9220   -4.2790   21.5910 N   0  0  0  0  0  0  0  0  0  0  0  0
    7.7340   -3.2310   22.1650 C   0  0  0  0  0  0  0  0  0  0  0  0
    6.9130   -2.6270   23.2950 C   0  0  0  0  0  0  0  0  0  0  0  0
    6.5420   -3.7620   24.1710 C   0  0  0  0  0  0  0  0  0  0  0  0
    5.7710   -3.3060   25.3460 C   0  0  0  0  0  0  0  0  0  0  0  0
    4.5480   -3.2010   25.2040 O   0  0  0  0  0  0  0  0  0  0  0  0
    6.4340   -3.0140   26.5390 N   0  0  0  0  0  0  0  0  0  0  0  0
    6.4460   -1.7710   27.2220 C   0  0  0  0  0  0  0  0  0  0  0  0
    6.9830   -1.5870   28.4790 C   0  0  0  0  0  0  0  0  0  0  0  0
    6.9850   -0.3520   29.1610 C   0  0  0  0  0  0  0  0  0  0  0  0
    6.4410    0.8100   28.6200 C   0  0  0  0  0  0  0  0  0  0  0  0
    6.4680    2.0900   29.3730 C   0  0  0  0  0  0  0  0  0  0  0  0
    7.1880    2.0200   30.7240 C   0  0  0  0  0  0  0  0  0  0  0  0
    5.2170    2.6070   29.5110 C   0  0  0  0  0  0  0  0  0  0  0  0
    5.8930    0.7300   27.3870 C   0  0  0  0  0  0  0  0  0  0  0  0
    5.3230    1.7300   26.6910 N   0  0  0  0  0  0  0  0  0  0  0  0
    5.8860   -0.5460   26.6750 C   0  0  0  0  0  0  0  0  0  0  0  0
    5.8090   -4.8860   23.4980 C   0  0  0  0  0  0  0  0  0  0  0  0
    6.5550   -5.3670   22.4520 C   0  0  0  0  0  0  0  0  0  0  0  0
  1  2  1  0
  2  3  2  0
  2  4  1  0
  4  5  1  0
  5  6  1  0
  6  7  1  0
  7  8  1  0
  8  9  2  0
  8 10  1  0
 10 11  1  0
 11 12  2  0
 12 13  1  0
 13 14  2  0
 14 15  1  0
 15 16  1  0
 15 17  1  0
 14 18  1  0
 18 19  1  0
 11 20  1  0
 18 20  2  0
  7 21  1  0
  4 22  1  0
 21 22  1  0
M  END
