piperidine-amides-4025-covalent
     RDKit          3D

 28 30  0  0  0  0  0  0  0  0999 V2000
    7.0440   -3.3430   19.2850 C   0  0  0  0  0  0  0  0  0  0  0  0
    6.3490   -4.1620   20.2960 C   0  0  0  0  0  0  0  0  0  0  0  0
    5.2920   -4.7230   19.9370 O   0  0  0  0  0  0  0  0  0  0  0  0
    6.8790   -4.3550   21.5960 N   0  0  0  0  0  0  0  0  0  0  0  0
    7.6140   -3.3000   22.1800 C   0  0  0  0  0  0  0  0  0  0  0  0
    7.2930   -3.1330   23.5740 C   0  0  0  0  0  0  0  0  0  0  0  0
    5.9610   -3.6040   23.9300 C   0  0  0  0  0  0  0  0  0  0  0  0
    5.6160   -3.2250   25.3430 C   0  0  0  0  0  0  0  0  0  0  0  0
    4.4270   -3.2590   25.7030 O   0  0  0  0  0  0  0  0  0  0  0  0
    6.6060   -2.8230   26.2630 N   0  0  0  0  0  0  0  0  0  0  0  0
    6.6210   -1.6780   27.1080 C   0  0  0  0  0  0  0  0  0  0  0  0
    7.0750   -1.6580   28.4890 C   0  0  0  0  0  0  0  0  0  0  0  0
    7.0180   -0.3320   29.2570 C   0  0  0  0  0  0  0  0  0  0  0  0
    6.5370    0.7970   28.6230 C   0  0  0  0  0  0  0  0  0  0  0  0
    6.5470    2.2140   29.7560 S   0  0  0  0  0  0  0  0  0  0  0  0
    8.1630    3.0080   29.9730 C   0  0  0  0  0  0  0  0  0  0  0  0
    9.5100    2.2850   30.0080 C   0  0  0  0  0  0  0  0  0  0  0  0
   10.6280    3.3290   30.2230 C   0  0  0  0  0  0  0  0  0  0  0  0
   10.5060    4.8110   30.3750 C   0  0  0  0  0  0  0  0  0  0  0  0
   11.6490    5.7830   30.5840 C   0  0  0  0  0  0  0  0  0  0  0  0
   11.6400    6.2820   32.0350 C   0  0  0  0  0  0  0  0  0  0  0  0
   11.5310    6.9980   29.7040 C   0  0  0  0  0  0  0  0  0  0  0  0
    9.1280    5.4010   30.3190 C   0  0  0  0  0  0  0  0  0  0  0  0
    8.1190    4.5000   30.1320 C   0  0  0  0  0  0  0  0  0  0  0  0
    6.1040    0.8090   27.3110 C   0  0  0  0  0  0  0  0  0  0  0  0
    6.1250   -0.3480   26.5420 C   0  0  0  0  0  0  0  0  0  0  0  0
    5.9190   -5.1070   23.7210 C   0  0  0  0  0  0  0  0  0  0  0  0
    6.5160   -5.5220   22.3700 C   0  0  0  0  0  0  0  0  0  0  0  0
  1  2  1  0
  2  3  2  0
  2  4  1  0
  4  5  1  0
  5  6  1  0
  6  7  1  0
  7  8  1  0
  8  9  2  0
  8 10  1  0
 10 11  1  0
 11 12  2  0
 12 13  1  0
 13 14  2  0
 14 15  1  0
 15 16  1  0
 16 17  2  0
 17 18  1  0
 18 19  2  0
 19 20  1  0
 20 21  1  0
 20 22  1  0
 19 23  1  0
 16 24  1  0
 23 24  2  0
 14 25  1  0
 11 26  1  0
 25 26  2  0
  7 27  1  0
  4 28  1  0
 27 28  1  0
M  END
