piperidine-amides-26073-covalent
     RDKit          3D

 25 26  0  0  0  0  0  0  0  0999 V2000
    7.1050   -3.3190   19.2510 C   0  0  0  0  0  0  0  0  0  0  0  0
    6.3930   -4.1270   20.2430 C   0  0  0  0  0  0  0  0  0  0  0  0
    5.3230   -4.6680   19.9260 O   0  0  0  0  0  0  0  0  0  0  0  0
    6.9180   -4.3620   21.5220 N   0  0  0  0  0  0  0  0  0  0  0  0
    6.4630   -5.4770   22.3010 C   0  0  0  0  0  0  0  0  0  0  0  0
    5.6430   -4.8430   23.3920 C   0  0  0  0  0  0  0  0  0  0  0  0
    6.4430   -3.8380   24.1760 C   0  0  0  0  0  0  0  0  0  0  0  0
    5.7410   -3.3810   25.3940 C   0  0  0  0  0  0  0  0  0  0  0  0
    4.4860   -3.2120   25.3630 O   0  0  0  0  0  0  0  0  0  0  0  0
    6.3810   -3.0830   26.6210 N   0  0  0  0  0  0  0  0  0  0  0  0
    6.3770   -4.0970   27.7150 C   0  0  0  0  0  0  0  0  0  0  0  0
    6.0590   -5.4500   27.1990 C   0  0  0  0  0  0  0  0  0  0  0  0
    4.9260   -6.1220   27.8620 C   0  0  0  0  0  0  0  0  0  0  0  0
    3.9330   -6.1630   27.1130 O   0  0  0  0  0  0  0  0  0  0  0  0
    4.8950   -6.6270   29.0620 O   0  0  0  0  0  0  0  0  0  0  0  0
    6.0360   -7.1840   29.6620 C   0  0  0  0  0  0  0  0  0  0  0  0
    6.3810   -1.7510   27.1710 C   0  0  0  0  0  0  0  0  0  0  0  0
    7.0420   -1.6240   28.5160 C   0  0  0  0  0  0  0  0  0  0  0  0
    7.1010   -0.4320   29.1660 C   0  0  0  0  0  0  0  0  0  0  0  0
    6.5940    0.7500   28.6980 C   0  0  0  0  0  0  0  0  0  0  0  0
    5.9160    0.7790   27.3750 C   0  0  0  0  0  0  0  0  0  0  0  0
    5.7690   -0.4890   26.5210 C   0  0  0  0  0  0  0  0  0  0  0  0
    5.0680   -0.4140   25.1830 C   0  0  0  0  0  0  0  0  0  0  0  0
    6.8740   -2.7120   23.3000 C   0  0  0  0  0  0  0  0  0  0  0  0
    7.5950   -3.2660   22.1410 C   0  0  0  0  0  0  0  0  0  0  0  0
  1  2  1  0
  2  3  2  0
  2  4  1  0
  4  5  1  0
  5  6  1  0
  6  7  1  0
  7  8  1  0
  8  9  2  0
  8 10  1  0
 10 11  1  0
 11 12  1  0
 12 13  1  0
 13 14  2  0
 13 15  1  0
 15 16  1  0
 10 17  1  0
 17 18  2  0
 18 19  1  0
 19 20  2  0
 20 21  1  0
 17 22  1  0
 21 22  2  0
 22 23  1  0
  7 24  1  0
  4 25  1  0
 24 25  1  0
M  END
