piperidine-amides-4423-covalent
     RDKit          3D

 25 27  0  0  0  0  0  0  0  0999 V2000
    7.1070   -3.2870   19.2690 C   0  0  0  0  0  0  0  0  0  0  0  0
    6.3990   -4.0770   20.2920 C   0  0  0  0  0  0  0  0  0  0  0  0
    5.3310   -4.6270   19.9220 O   0  0  0  0  0  0  0  0  0  0  0  0
    6.9170   -4.2600   21.6040 N   0  0  0  0  0  0  0  0  0  0  0  0
    7.6470   -3.1950   22.2190 C   0  0  0  0  0  0  0  0  0  0  0  0
    7.2510   -2.9190   23.5990 C   0  0  0  0  0  0  0  0  0  0  0  0
    6.0220   -3.6290   24.0020 C   0  0  0  0  0  0  0  0  0  0  0  0
    5.5350   -3.2600   25.3780 C   0  0  0  0  0  0  0  0  0  0  0  0
    4.3130   -3.3100   25.5960 O   0  0  0  0  0  0  0  0  0  0  0  0
    6.3880   -2.8630   26.4270 N   0  0  0  0  0  0  0  0  0  0  0  0
    6.4590   -1.6050   27.0780 C   0  0  0  0  0  0  0  0  0  0  0  0
    5.4050   -1.0590   27.9370 C   0  0  1  0  0  0  0  0  0  0  0  0
    5.8210   -1.2630   29.4010 C   0  0  0  0  0  0  0  0  0  0  0  0
    5.0420   -0.5490   30.2930 C   0  0  0  0  0  0  0  0  0  0  0  0
    5.8350    0.7570   30.0610 C   0  0  0  0  0  0  0  0  0  0  0  0
    6.2880    0.8930   28.7060 N   0  0  0  0  0  0  0  0  0  0  0  0
    7.0480    2.1610   28.5530 C   0  0  0  0  0  0  0  0  0  0  0  0
    6.7750    2.5760   27.1100 C   0  0  0  0  0  0  0  0  0  0  0  0
    7.3640    3.8170   26.5020 C   0  0  0  0  0  0  0  0  0  0  0  0
    8.2540    4.6310   27.4340 C   0  0  0  0  0  0  0  0  0  0  0  0
    8.5060    4.1800   28.8930 C   0  0  0  0  0  0  0  0  0  0  0  0
    7.8550    2.9230   29.3660 C   0  0  0  0  0  0  0  0  0  0  0  0
    5.2540    0.4400   27.8490 C   0  0  0  0  0  0  0  0  0  0  0  0
    6.0640   -5.0960   23.7540 C   0  0  0  0  0  0  0  0  0  0  0  0
    6.5550   -5.4330   22.3600 C   0  0  0  0  0  0  0  0  0  0  0  0
  1  2  1  0
  2  3  2  0
  2  4  1  0
  4  5  1  0
  5  6  1  0
  6  7  1  0
  7  8  1  0
  8  9  2  0
  8 10  1  0
 10 11  1  0
 12 11  1  6
 12 13  1  0
 13 14  1  0
 14 15  1  0
 15 16  1  0
 16 17  1  0
 17 18  2  0
 18 19  1  0
 19 20  2  0
 20 21  1  0
 17 22  1  0
 21 22  2  0
 12 23  1  0
 16 23  1  0
  7 24  1  0
  4 25  1  0
 24 25  1  0
M  END
