piperidine-amides-31078-covalent
     RDKit          3D

 27 28  0  0  0  0  0  0  0  0999 V2000
    7.0860   -3.3510   19.3420 C   0  0  0  0  0  0  0  0  0  0  0  0
    6.4150   -4.1840   20.3400 C   0  0  0  0  0  0  0  0  0  0  0  0
    5.4210   -4.8520   19.9940 O   0  0  0  0  0  0  0  0  0  0  0  0
    6.9110   -4.2680   21.6540 N   0  0  0  0  0  0  0  0  0  0  0  0
    7.8040   -3.2340   22.1780 C   0  0  0  0  0  0  0  0  0  0  0  0
    7.4070   -2.9360   23.5960 C   0  0  0  0  0  0  0  0  0  0  0  0
    6.1310   -3.6210   23.9300 C   0  0  0  0  0  0  0  0  0  0  0  0
    5.6210   -3.2770   25.2760 C   0  0  0  0  0  0  0  0  0  0  0  0
    4.7340   -2.3880   25.3940 O   0  0  0  0  0  0  0  0  0  0  0  0
    6.0290   -3.8860   26.4720 N   0  0  0  0  0  0  0  0  0  0  0  0
    6.3500   -3.0510   27.6050 C   0  0  0  0  0  0  0  0  0  0  0  0
    6.5670   -3.9800   28.7360 C   0  0  0  0  0  0  0  0  0  0  0  0
    5.5180   -5.0090   28.9700 C   0  0  0  0  0  0  0  0  0  0  0  0
    4.1400   -4.3840   29.0710 C   0  0  0  0  0  0  0  0  0  0  0  0
    3.4020   -5.4640   28.6500 O   0  0  0  0  0  0  0  0  0  0  0  0
    2.4470   -5.7570   29.5890 C   0  0  0  0  0  0  0  0  0  0  0  0
    5.4950   -6.1610   29.9990 C   0  0  0  0  0  0  0  0  0  0  0  0
    6.5080   -6.8780   29.9860 O   0  0  0  0  0  0  0  0  0  0  0  0
    4.4050   -6.3110   30.8130 O   0  0  0  0  0  0  0  0  0  0  0  0
    4.5290   -7.5580   31.3650 C   0  0  0  0  0  0  0  0  0  0  0  0
    5.6520   -7.8110   32.1560 C   0  0  0  0  0  0  0  0  0  0  0  0
    4.3830   -7.4470   32.8920 C   0  0  0  0  0  0  0  0  0  0  0  0
    3.2100   -8.0790   32.0360 C   0  0  0  0  0  0  0  0  0  0  0  0
    5.7970   -5.6330   27.6730 C   0  0  0  0  0  0  0  0  0  0  0  0
    5.2490   -5.0270   26.7960 C   0  0  0  0  0  0  0  0  0  0  0  0
    6.1370   -5.0760   23.7030 C   0  0  0  0  0  0  0  0  0  0  0  0
    6.6630   -5.4180   22.4800 C   0  0  0  0  0  0  0  0  0  0  0  0
  1  2  1  0
  2  3  2  0
  2  4  1  0
  4  5  1  0
  5  6  1  0
  6  7  1  0
  7  8  1  0
  8  9  2  0
  8 10  1  0
 10 11  1  0
 11 12  1  0
 12 13  1  0
 13 14  1  0
 14 15  1  0
 15 16  1  0
 13 17  1  0
 17 18  2  0
 17 19  1  0
 20 19  1  0
 20 21  1  0
 20 22  1  0
 20 23  1  0
 13 24  1  0
 10 25  1  0
 24 25  1  0
  7 26  1  0
  4 27  1  0
 26 27  1  0
M  END
