piperidine-amides-11439-covalent
     RDKit          3D

 24 26  0  0  0  0  0  0  0  0999 V2000
    7.0630   -3.3400   19.3240 C   0  0  0  0  0  0  0  0  0  0  0  0
    6.3880   -4.1510   20.3360 C   0  0  0  0  0  0  0  0  0  0  0  0
    5.4160   -4.8510   19.9910 O   0  0  0  0  0  0  0  0  0  0  0  0
    6.8520   -4.1830   21.6660 N   0  0  0  0  0  0  0  0  0  0  0  0
    7.7180   -3.1300   22.1790 C   0  0  0  0  0  0  0  0  0  0  0  0
    7.5070   -3.0640   23.6700 C   0  0  0  0  0  0  0  0  0  0  0  0
    6.1690   -3.6180   24.0380 C   0  0  0  0  0  0  0  0  0  0  0  0
    5.6210   -3.1650   25.3470 C   0  0  0  0  0  0  0  0  0  0  0  0
    4.3920   -2.8860   25.4010 O   0  0  0  0  0  0  0  0  0  0  0  0
    6.3540   -3.0250   26.5570 N   0  0  0  0  0  0  0  0  0  0  0  0
    6.6050   -1.6990   27.2200 C   0  0  1  0  0  0  0  0  0  0  0  0
    5.4360   -0.6670   26.9020 C   0  0  0  0  0  0  0  0  0  0  0  0
    5.4670    0.9230   26.8710 C   0  0  0  0  0  0  0  0  0  0  0  0
    5.4130    1.7810   28.2030 C   0  0  0  0  0  0  0  0  0  0  0  0
    6.4480    0.9490   28.6630 C   0  0  0  0  0  0  0  0  0  0  0  0
    5.0070    0.9080   28.1070 C   0  0  0  0  0  0  0  0  0  0  0  0
    4.0970   -0.0190   27.7800 C   0  0  0  0  0  0  0  0  0  0  0  0
    4.3640   -1.2590   27.8810 C   0  0  0  0  0  0  0  0  0  0  0  0
    3.0920   -2.6410   27.4370 Br  0  0  0  0  0  0  0  0  0  0  0  0
    5.7350   -1.4110   28.3520 C   0  0  0  0  0  0  0  0  0  0  0  0
    6.9290   -0.4950   28.8000 C   0  0  0  0  0  0  0  0  0  0  0  0
    6.9400   -1.8820   28.7120 C   0  0  0  0  0  0  0  0  0  0  0  0
    6.1960   -5.0980   23.8260 C   0  0  0  0  0  0  0  0  0  0  0  0
    6.5540   -5.3700   22.4120 C   0  0  0  0  0  0  0  0  0  0  0  0
  1  2  1  0
  2  3  2  0
  2  4  1  0
  4  5  1  0
  5  6  1  0
  6  7  1  0
  7  8  1  0
  8  9  2  0
  8 10  1  0
 11 10  1  1
 11 12  1  0
 12 13  1  0
 13 14  1  0
 14 15  1  0
 15 16  1  0
 16 17  2  0
 17 18  1  0
 18 19  1  0
 18 20  2  0
 15 21  2  0
 20 21  1  0
 11 22  1  0
 21 22  1  0
  7 23  1  0
  4 24  1  0
 23 24  1  0
M  END
