piperidine-amides-2476-covalent
     RDKit          3D

 26 28  0  0  0  0  0  0  0  0999 V2000
    7.0710   -3.3610   19.3620 C   0  0  0  0  0  0  0  0  0  0  0  0
    6.3640   -4.1950   20.3610 C   0  0  0  0  0  0  0  0  0  0  0  0
    5.3720   -4.8130   19.9760 O   0  0  0  0  0  0  0  0  0  0  0  0
    6.8750   -4.2810   21.6610 N   0  0  0  0  0  0  0  0  0  0  0  0
    7.6970   -3.2240   22.2020 C   0  0  0  0  0  0  0  0  0  0  0  0
    7.3720   -3.0150   23.6560 C   0  0  0  0  0  0  0  0  0  0  0  0
    5.9700   -3.5590   23.9410 C   0  0  0  0  0  0  0  0  0  0  0  0
    5.5660   -3.1720   25.3090 C   0  0  0  0  0  0  0  0  0  0  0  0
    4.3640   -3.0730   25.5780 O   0  0  0  0  0  0  0  0  0  0  0  0
    6.5230   -2.9260   26.3030 N   0  0  0  0  0  0  0  0  0  0  0  0
    6.4640   -1.7170   27.0930 C   0  0  0  0  0  0  0  0  0  0  0  0
    5.8280   -0.4090   26.6680 C   0  0  0  0  0  0  0  0  0  0  0  0
    5.7290    0.7900   27.3580 C   0  0  0  0  0  0  0  0  0  0  0  0
    6.2720    0.8700   28.6240 C   0  0  0  0  0  0  0  0  0  0  0  0
    6.1920    2.0380   29.3320 C   0  0  0  0  0  0  0  0  0  0  0  0
    7.3010    3.0590   29.1650 C   0  0  0  0  0  0  0  0  0  0  0  0
    7.0820    4.0720   30.0230 N   0  0  0  0  0  0  0  0  0  0  0  0
    8.2470    4.5210   30.5350 C   0  0  0  0  0  0  0  0  0  0  0  0
    8.5080    5.8910   31.1070 C   0  0  0  0  0  0  0  0  0  0  0  0
    7.1740    6.2210   31.6930 C   0  0  0  0  0  0  0  0  0  0  0  0
    6.0740    6.1810   30.6840 C   0  0  0  0  0  0  0  0  0  0  0  0
    6.1470    5.0650   29.6540 C   0  0  0  0  0  0  0  0  0  0  0  0
    6.9600   -0.3010   29.2640 C   0  0  0  0  0  0  0  0  0  0  0  0
    7.0590   -1.5800   28.5190 C   0  0  0  0  0  0  0  0  0  0  0  0
    6.0130   -5.0570   23.7850 C   0  0  0  0  0  0  0  0  0  0  0  0
    6.5520   -5.4500   22.4300 C   0  0  0  0  0  0  0  0  0  0  0  0
  1  2  1  0
  2  3  2  0
  2  4  1  0
  4  5  1  0
  5  6  1  0
  6  7  1  0
  7  8  1  0
  8  9  2  0
  8 10  1  0
 10 11  1  0
 11 12  2  0
 12 13  1  0
 13 14  2  0
 14 15  1  0
 15 16  1  0
 16 17  1  0
 17 18  1  0
 18 19  1  0
 19 20  1  0
 20 21  1  0
 17 22  1  0
 21 22  1  0
 14 23  1  0
 11 24  1  0
 23 24  2  0
  7 25  1  0
  4 26  1  0
 25 26  1  0
M  END
