piperidine-amides-34257-covalent
     RDKit          3D

 26 27  0  0  0  0  0  0  0  0999 V2000
    7.1200   -3.3170   19.2760 C   0  0  0  0  0  0  0  0  0  0  0  0
    6.4370   -4.1600   20.2680 C   0  0  0  0  0  0  0  0  0  0  0  0
    5.3900   -4.7750   19.9670 O   0  0  0  0  0  0  0  0  0  0  0  0
    6.9970   -4.3280   21.5380 N   0  0  0  0  0  0  0  0  0  0  0  0
    7.7430   -3.2300   22.1110 C   0  0  0  0  0  0  0  0  0  0  0  0
    6.7980   -2.6000   23.1170 C   0  0  0  0  0  0  0  0  0  0  0  0
    6.5830   -3.6720   24.1460 C   0  0  0  0  0  0  0  0  0  0  0  0
    5.8290   -3.1130   25.2710 C   0  0  0  0  0  0  0  0  0  0  0  0
    4.6770   -2.6790   25.0510 O   0  0  0  0  0  0  0  0  0  0  0  0
    6.3950   -3.0900   26.5570 N   0  0  0  0  0  0  0  0  0  0  0  0
    6.1030   -4.2640   27.3350 C   0  0  0  0  0  0  0  0  0  0  0  0
    6.6210   -4.1550   28.7450 C   0  0  0  0  0  0  0  0  0  0  0  0
    6.0600   -5.2510   29.4290 O   0  0  0  0  0  0  0  0  0  0  0  0
    6.1740   -6.5320   28.9780 C   0  0  0  0  0  0  0  0  0  0  0  0
    5.5920   -7.5140   29.7290 C   0  0  0  0  0  0  0  0  0  0  0  0
    4.9420   -7.2150   30.9230 C   0  0  0  0  0  0  0  0  0  0  0  0
    5.5350   -7.6230   32.0920 C   0  0  0  0  0  0  0  0  0  0  0  0
    6.4010   -1.7700   27.2250 C   0  0  0  0  0  0  0  0  0  0  0  0
    7.0860   -1.5880   28.5340 C   0  0  0  0  0  0  0  0  0  0  0  0
    7.1960   -0.3330   29.3910 C   0  0  0  0  0  0  0  0  0  0  0  0
    6.4400    0.7070   28.5930 C   0  0  0  0  0  0  0  0  0  0  0  0
    6.3650    2.4580   29.3920 Br  0  0  0  0  0  0  0  0  0  0  0  0
    5.8170    0.4670   27.3500 C   0  0  0  0  0  0  0  0  0  0  0  0
    5.8050   -0.7090   26.7130 C   0  0  0  0  0  0  0  0  0  0  0  0
    5.8260   -4.8680   23.5820 C   0  0  0  0  0  0  0  0  0  0  0  0
    6.5440   -5.4070   22.3690 C   0  0  0  0  0  0  0  0  0  0  0  0
  1  2  1  0
  2  3  2  0
  2  4  1  0
  4  5  1  0
  5  6  1  0
  6  7  1  0
  7  8  1  0
  8  9  2  0
  8 10  1  0
 10 11  1  0
 11 12  1  0
 12 13  1  0
 13 14  1  0
 14 15  1  0
 15 16  1  0
 16 17  1  0
 10 18  1  0
 18 19  2  0
 19 20  1  0
 20 21  2  0
 21 22  1  0
 21 23  1  0
 18 24  1  0
 23 24  2  0
  7 25  1  0
  4 26  1  0
 25 26  1  0
M  END
