piperidine-amides-13579-covalent
     RDKit          3D

 31 33  0  0  0  0  0  0  0  0999 V2000
    7.0990   -3.1870   19.1620 C   0  0  0  0  0  0  0  0  0  0  0  0
    6.3180   -3.8820   20.2210 C   0  0  0  0  0  0  0  0  0  0  0  0
    5.3350   -4.5650   19.8860 O   0  0  0  0  0  0  0  0  0  0  0  0
    6.6990   -3.7910   21.5820 N   0  0  0  0  0  0  0  0  0  0  0  0
    7.8510   -3.0700   22.0710 C   0  0  0  0  0  0  0  0  0  0  0  0
    7.6740   -2.9380   23.5980 C   0  0  0  0  0  0  0  0  0  0  0  0
    6.2710   -2.4840   23.8480 C   0  0  0  0  0  0  0  0  0  0  0  0
    5.8820   -2.2310   25.2840 C   0  0  0  0  0  0  0  0  0  0  0  0
    4.7610   -1.7070   25.4350 O   0  0  0  0  0  0  0  0  0  0  0  0
    6.7450   -2.5490   26.3790 N   0  0  0  0  0  0  0  0  0  0  0  0
    6.4510   -2.5760   27.8030 C   0  0  0  0  0  0  0  0  0  0  0  0
    5.9950   -3.6620   28.5520 C   0  0  2  0  0  0  0  0  0  0  0  0
    5.7660   -4.8170   27.8220 C   0  0  0  0  0  0  0  0  0  0  0  0
    5.6600   -6.1390   28.0860 C   0  0  0  0  0  0  0  0  0  0  0  0
    5.7840   -6.7620   29.4250 C   0  0  0  0  0  0  0  0  0  0  0  0
    5.4250   -6.8520   26.9440 N   0  0  0  0  0  0  0  0  0  0  0  0
    5.4090   -5.8630   26.0060 N   0  0  0  0  0  0  0  0  0  0  0  0
    5.2220   -6.1050   24.6570 C   0  0  0  0  0  0  0  0  0  0  0  0
    6.4940   -5.9560   23.8500 C   0  0  0  0  0  0  0  0  0  0  0  0
    6.4640   -6.1470   22.5130 C   0  0  0  0  0  0  0  0  0  0  0  0
    5.2570   -6.4920   21.7240 C   0  0  0  0  0  0  0  0  0  0  0  0
    4.0200   -6.6140   22.6780 C   0  0  0  0  0  0  0  0  0  0  0  0
    3.9800   -6.4440   24.0270 C   0  0  0  0  0  0  0  0  0  0  0  0
    5.5910   -4.7010   26.4920 C   0  0  0  0  0  0  0  0  0  0  0  0
    5.6070   -3.4790   25.6710 C   0  0  0  0  0  0  0  0  0  0  0  0
    4.9130   -3.4040   29.3760 C   0  0  0  0  0  0  0  0  0  0  0  0
    3.7930   -3.0500   28.7000 F   0  0  0  0  0  0  0  0  0  0  0  0
    4.5810   -4.5590   30.0800 F   0  0  0  0  0  0  0  0  0  0  0  0
    5.1850   -2.3810   30.2580 F   0  0  0  0  0  0  0  0  0  0  0  0
    5.2040   -3.4360   23.2950 C   0  0  0  0  0  0  0  0  0  0  0  0
    5.8000   -4.3750   22.4870 C   0  0  0  0  0  0  0  0  0  0  0  0
  1  2  1  0
  2  3  2  0
  2  4  1  0
  4  5  1  0
  5  6  1  0
  6  7  1  0
  7  8  1  0
  8  9  2  0
  8 10  1  0
 10 11  1  0
 12 11  1  6
 12 13  1  0
 13 14  1  0
 14 15  1  0
 14 16  2  0
 16 17  1  0
 17 18  1  0
 18 19  2  0
 19 20  1  0
 20 21  2  0
 21 22  1  0
 18 23  1  0
 22 23  2  0
 13 24  2  0
 17 24  1  0
 24 25  1  0
 12 26  1  0
 26 27  1  0
 26 28  1  0
 26 29  1  0
  7 30  1  0
  4 31  1  0
 30 31  1  0
M  END
