piperidine-amides-27353-covalent
     RDKit          3D

 26 28  0  0  0  0  0  0  0  0999 V2000
    7.1140   -3.3340   19.2640 C   0  0  0  0  0  0  0  0  0  0  0  0
    6.3670   -4.0920   20.2670 C   0  0  0  0  0  0  0  0  0  0  0  0
    5.2800   -4.6040   19.9020 O   0  0  0  0  0  0  0  0  0  0  0  0
    6.9020   -4.2640   21.5400 N   0  0  0  0  0  0  0  0  0  0  0  0
    6.6240   -5.4350   22.3290 C   0  0  0  0  0  0  0  0  0  0  0  0
    5.9030   -5.0020   23.5770 C   0  0  0  0  0  0  0  0  0  0  0  0
    6.5340   -3.7980   24.2450 C   0  0  0  0  0  0  0  0  0  0  0  0
    5.6700   -3.3280   25.3600 C   0  0  0  0  0  0  0  0  0  0  0  0
    4.4950   -3.0080   25.0780 O   0  0  0  0  0  0  0  0  0  0  0  0
    6.0830   -3.2080   26.7060 N   0  0  0  0  0  0  0  0  0  0  0  0
    6.0070   -4.3130   27.6450 C   0  0  0  0  0  0  0  0  0  0  0  0
    5.0900   -5.4640   27.2400 C   0  0  0  0  0  0  0  0  0  0  0  0
    4.6820   -6.4100   28.1540 C   0  0  0  0  0  0  0  0  0  0  0  0
    3.8570   -7.4350   27.7830 C   0  0  0  0  0  0  0  0  0  0  0  0
    3.3790   -7.6070   26.5070 C   0  0  0  0  0  0  0  0  0  0  0  0
    3.7830   -6.6700   25.5920 C   0  0  0  0  0  0  0  0  0  0  0  0
    4.6150   -5.6240   25.9480 C   0  0  0  0  0  0  0  0  0  0  0  0
    6.3520   -1.9310   27.2390 C   0  0  0  0  0  0  0  0  0  0  0  0
    6.9770   -1.8700   28.5960 C   0  0  0  0  0  0  0  0  0  0  0  0
    7.4200   -0.7120   29.4820 C   0  0  0  0  0  0  0  0  0  0  0  0
    7.6370    0.6080   29.8520 O   0  0  0  0  0  0  0  0  0  0  0  0
    7.0160    0.2350   28.5620 N   0  0  0  0  0  0  0  0  0  0  0  0
    6.3810    0.3900   27.2100 C   0  0  0  0  0  0  0  0  0  0  0  0
    6.0530   -0.7850   26.5530 N   0  0  0  0  0  0  0  0  0  0  0  0
    6.8180   -2.6750   23.3220 C   0  0  0  0  0  0  0  0  0  0  0  0
    7.6120   -3.1780   22.1480 C   0  0  0  0  0  0  0  0  0  0  0  0
  1  2  1  0
  2  3  2  0
  2  4  1  0
  4  5  1  0
  5  6  1  0
  6  7  1  0
  7  8  1  0
  8  9  2  0
  8 10  1  0
 10 11  1  0
 11 12  1  0
 12 13  2  0
 13 14  1  0
 14 15  2  0
 15 16  1  0
 12 17  1  0
 16 17  2  0
 10 18  1  0
 18 19  2  0
 19 20  1  0
 20 21  1  0
 20 22  2  0
 22 23  1  0
 18 24  1  0
 23 24  2  0
  7 25  1  0
  4 26  1  0
 25 26  1  0
M  END
