piperidine-amides-29069-covalent
     RDKit          3D

 26 28  0  0  0  0  0  0  0  0999 V2000
    7.0670   -3.3780   19.4180 C   0  0  0  0  0  0  0  0  0  0  0  0
    6.4020   -4.2290   20.3990 C   0  0  0  0  0  0  0  0  0  0  0  0
    5.4210   -4.8930   20.0050 O   0  0  0  0  0  0  0  0  0  0  0  0
    6.9010   -4.3210   21.7300 N   0  0  0  0  0  0  0  0  0  0  0  0
    6.6350   -5.5290   22.4720 C   0  0  0  0  0  0  0  0  0  0  0  0
    6.0790   -5.1890   23.8300 C   0  0  0  0  0  0  0  0  0  0  0  0
    5.8450   -3.6950   23.8200 C   0  0  0  0  0  0  0  0  0  0  0  0
    4.9060   -3.2190   24.9140 C   0  0  0  0  0  0  0  0  0  0  0  0
    3.7410   -3.1670   24.5610 O   0  0  0  0  0  0  0  0  0  0  0  0
    5.2910   -2.8740   26.2050 N   0  0  0  0  0  0  0  0  0  0  0  0
    6.4720   -3.2830   26.6630 C   0  0  0  0  0  0  0  0  0  0  0  0
    6.2310   -4.2510   27.6390 C   0  0  1  0  0  0  0  0  0  0  0  0
    6.8500   -4.0940   28.7980 C   0  0  0  0  0  0  0  0  0  0  0  0
    6.9930   -5.2350   29.5390 O   0  0  0  0  0  0  0  0  0  0  0  0
    7.2710   -2.7990   29.1120 O   0  0  0  0  0  0  0  0  0  0  0  0
    6.3080   -1.7930   29.4310 C   0  0  0  0  0  0  0  0  0  0  0  0
    4.7810   -4.0180   28.0810 C   0  0  2  0  0  0  0  0  0  0  0  0
    3.9310   -5.3110   28.0960 C   0  0  0  0  0  0  0  0  0  0  0  0
    4.6630   -6.3030   28.9360 C   0  0  0  0  0  0  0  0  0  0  0  0
    3.7250   -7.4740   28.9230 C   0  0  0  0  0  0  0  0  0  0  0  0
    2.4170   -7.1660   29.2320 O   0  0  0  0  0  0  0  0  0  0  0  0
    1.8130   -6.1380   28.4900 C   0  0  0  0  0  0  0  0  0  0  0  0
    2.6440   -5.0460   28.5690 C   0  0  0  0  0  0  0  0  0  0  0  0
    4.3160   -3.0120   27.2380 C   0  0  0  0  0  0  0  0  0  0  0  0
    7.1220   -2.9420   23.6920 C   0  0  0  0  0  0  0  0  0  0  0  0
    7.6900   -3.2600   22.3360 C   0  0  0  0  0  0  0  0  0  0  0  0
  1  2  1  0
  2  3  2  0
  2  4  1  0
  4  5  1  0
  5  6  1  0
  6  7  1  0
  7  8  1  0
  8  9  2  0
  8 10  1  0
 10 11  1  0
 11 12  1  0
 12 13  1  1
 13 14  2  0
 13 15  1  0
 15 16  1  0
 12 17  1  0
 17 18  1  6
 18 19  1  0
 19 20  1  0
 20 21  1  0
 21 22  1  0
 18 23  1  0
 22 23  1  0
 10 24  1  0
 17 24  1  0
  7 25  1  0
  4 26  1  0
 25 26  1  0
M  END
