piperidine-amides-10060-covalent
     RDKit          3D

 25 27  0  0  0  0  0  0  0  0999 V2000
    7.0280   -3.3420   19.3540 C   0  0  0  0  0  0  0  0  0  0  0  0
    6.3750   -4.1810   20.3660 C   0  0  0  0  0  0  0  0  0  0  0  0
    5.3740   -4.8400   19.9780 O   0  0  0  0  0  0  0  0  0  0  0  0
    6.8790   -4.2600   21.6710 N   0  0  0  0  0  0  0  0  0  0  0  0
    6.7120   -5.4700   22.4490 C   0  0  0  0  0  0  0  0  0  0  0  0
    5.9940   -5.0930   23.7100 C   0  0  0  0  0  0  0  0  0  0  0  0
    6.0100   -3.5990   23.8750 C   0  0  0  0  0  0  0  0  0  0  0  0
    5.6640   -3.2000   25.2580 C   0  0  0  0  0  0  0  0  0  0  0  0
    4.4610   -3.2140   25.5990 O   0  0  0  0  0  0  0  0  0  0  0  0
    6.6340   -2.8110   26.1950 N   0  0  0  0  0  0  0  0  0  0  0  0
    6.5170   -1.6180   27.0010 C   0  0  0  0  0  0  0  0  0  0  0  0
    7.0500   -1.6160   28.4100 C   0  0  0  0  0  0  0  0  0  0  0  0
    6.9810   -0.5240   29.2360 C   0  0  0  0  0  0  0  0  0  0  0  0
    6.4110    0.7070   28.8750 C   0  0  0  0  0  0  0  0  0  0  0  0
    6.3980    1.7150   29.7770 N   0  0  0  0  0  0  0  0  0  0  0  0
    6.4890    2.9890   29.3970 C   0  0  0  0  0  0  0  0  0  0  0  0
    5.6600    3.8430   30.1110 C   0  0  0  0  0  0  0  0  0  0  0  0
    5.0400    3.3560   31.2710 O   0  0  0  0  0  0  0  0  0  0  0  0
    5.6070    2.2010   31.8480 C   0  0  0  0  0  0  0  0  0  0  0  0
    6.7180    1.5420   31.0670 C   0  0  0  0  0  0  0  0  0  0  0  0
    5.8900    0.7920   27.5790 C   0  0  0  0  0  0  0  0  0  0  0  0
    5.9040   -0.3320   26.5700 C   0  0  0  0  0  0  0  0  0  0  0  0
    5.2460   -0.1250   25.0120 Cl  0  0  0  0  0  0  0  0  0  0  0  0
    7.3750   -3.0530   23.5660 C   0  0  0  0  0  0  0  0  0  0  0  0
    7.7370   -3.2050   22.2470 C   0  0  0  0  0  0  0  0  0  0  0  0
  1  2  1  0
  2  3  2  0
  2  4  1  0
  4  5  1  0
  5  6  1  0
  6  7  1  0
  7  8  1  0
  8  9  2  0
  8 10  1  0
 10 11  1  0
 11 12  2  0
 12 13  1  0
 13 14  2  0
 14 15  1  0
 15 16  1  0
 16 17  1  0
 17 18  1  0
 18 19  1  0
 15 20  1  0
 19 20  1  0
 14 21  1  0
 11 22  1  0
 21 22  2  0
 22 23  1  0
  7 24  1  0
  4 25  1  0
 24 25  1  0
M  END
