piperidine-amides-23833-covalent
     RDKit          3D

 24 26  0  0  0  0  0  0  0  0999 V2000
    7.0770   -3.3530   19.3720 C   0  0  0  0  0  0  0  0  0  0  0  0
    6.4270   -4.2220   20.3640 C   0  0  0  0  0  0  0  0  0  0  0  0
    5.3880   -4.8220   19.9840 O   0  0  0  0  0  0  0  0  0  0  0  0
    6.9770   -4.4250   21.6620 N   0  0  0  0  0  0  0  0  0  0  0  0
    6.4960   -5.4950   22.4480 C   0  0  0  0  0  0  0  0  0  0  0  0
    6.1070   -5.1210   23.8120 C   0  0  0  0  0  0  0  0  0  0  0  0
    6.4580   -3.7570   24.3020 C   0  0  0  0  0  0  0  0  0  0  0  0
    5.3610   -3.2140   25.1940 C   0  0  0  0  0  0  0  0  0  0  0  0
    4.4230   -2.6050   24.6580 O   0  0  0  0  0  0  0  0  0  0  0  0
    5.3070   -3.3490   26.6060 N   0  0  0  0  0  0  0  0  0  0  0  0
    4.1740   -3.4110   27.4200 C   0  0  0  0  0  0  0  0  0  0  0  0
    4.3830   -3.5930   28.8480 C   0  0  0  0  0  0  0  0  0  0  0  0
    5.8510   -3.2530   29.1310 C   0  0  0  0  0  0  0  0  0  0  0  0
    6.7620   -4.0530   28.5190 C   0  0  1  0  0  0  0  0  0  0  0  0
    5.7680   -5.1930   28.6550 C   0  0  0  0  0  0  0  0  0  0  0  0
    5.4800   -5.8680   29.8990 N   0  0  0  0  0  0  0  0  0  0  0  0
    4.5200   -6.6980   29.2300 C   0  0  0  0  0  0  0  0  0  0  0  0
    3.6850   -7.7760   29.9160 C   0  0  0  0  0  0  0  0  0  0  0  0
    4.1480   -6.7080   27.8900 C   0  0  0  0  0  0  0  0  0  0  0  0
    3.0930   -7.6730   27.3770 C   0  0  0  0  0  0  0  0  0  0  0  0
    4.9920   -5.7070   27.5290 N   0  0  0  0  0  0  0  0  0  0  0  0
    6.5030   -3.1320   27.2940 C   0  0  0  0  0  0  0  0  0  0  0  0
    6.7750   -2.8090   23.1820 C   0  0  0  0  0  0  0  0  0  0  0  0
    7.7310   -3.4080   22.3660 C   0  0  0  0  0  0  0  0  0  0  0  0
  1  2  1  0
  2  3  2  0
  2  4  1  0
  4  5  1  0
  5  6  1  0
  6  7  1  0
  7  8  1  0
  8  9  2  0
  8 10  1  0
 10 11  1  0
 11 12  1  0
 12 13  1  0
 13 14  1  0
 14 15  1  6
 15 16  2  0
 16 17  1  0
 17 18  1  0
 17 19  2  0
 19 20  1  0
 15 21  1  0
 19 21  1  0
 10 22  1  0
 14 22  1  0
  7 23  1  0
  4 24  1  0
 23 24  1  0
M  END
