piperidine-amides-27365-covalent
     RDKit          3D

 24 26  0  0  0  0  0  0  0  0999 V2000
    7.0840   -3.3260   19.2870 C   0  0  0  0  0  0  0  0  0  0  0  0
    6.3990   -4.1450   20.2920 C   0  0  0  0  0  0  0  0  0  0  0  0
    5.3240   -4.6900   19.9350 O   0  0  0  0  0  0  0  0  0  0  0  0
    6.9630   -4.3440   21.5530 N   0  0  0  0  0  0  0  0  0  0  0  0
    6.6780   -5.5270   22.3170 C   0  0  0  0  0  0  0  0  0  0  0  0
    5.9240   -5.0920   23.5370 C   0  0  0  0  0  0  0  0  0  0  0  0
    6.6410   -4.0020   24.2990 C   0  0  0  0  0  0  0  0  0  0  0  0
    5.7710   -3.4990   25.3780 C   0  0  0  0  0  0  0  0  0  0  0  0
    4.9310   -2.6100   25.1230 O   0  0  0  0  0  0  0  0  0  0  0  0
    5.8540   -4.0090   26.6710 N   0  0  0  0  0  0  0  0  0  0  0  0
    6.6830   -5.1650   26.8110 C   0  0  0  0  0  0  0  0  0  0  0  0
    6.6960   -5.7070   28.2040 C   0  0  0  0  0  0  0  0  0  0  0  0
    5.4600   -5.2390   28.9030 N   0  0  0  0  0  0  0  0  0  0  0  0
    4.9340   -6.1000   29.9710 N   0  0  0  0  0  0  0  0  0  0  0  0
    3.7850   -5.5210   30.5220 C   0  0  0  0  0  0  0  0  0  0  0  0
    4.6260   -5.2650   29.6260 C   0  0  0  0  0  0  0  0  0  0  0  0
    5.8420   -6.4410   29.4210 S   0  0  0  0  0  0  0  0  0  0  0  0
    5.1580   -7.4560   28.1110 C   0  0  0  0  0  0  0  0  0  0  0  0
    5.9740   -7.3240   30.6260 O   0  0  0  0  0  0  0  0  0  0  0  0
    7.1550   -5.8010   29.1090 O   0  0  0  0  0  0  0  0  0  0  0  0
    4.6660   -4.1400   28.7750 C   0  0  0  0  0  0  0  0  0  0  0  0
    5.1760   -3.3480   27.7630 C   0  0  0  0  0  0  0  0  0  0  0  0
    6.9990   -2.8130   23.4050 C   0  0  0  0  0  0  0  0  0  0  0  0
    7.7400   -3.2970   22.1700 C   0  0  0  0  0  0  0  0  0  0  0  0
  1  2  1  0
  2  3  2  0
  2  4  1  0
  4  5  1  0
  5  6  1  0
  6  7  1  0
  7  8  1  0
  8  9  2  0
  8 10  1  0
 10 11  1  0
 11 12  1  0
 12 13  1  0
 13 14  1  0
 14 15  2  0
 15 16  1  0
 16 17  1  0
 17 18  1  0
 17 19  2  0
 17 20  2  0
 13 21  1  0
 16 21  2  0
 10 22  1  0
 21 22  1  0
  7 23  1  0
  4 24  1  0
 23 24  1  0
M  END
