piperidine-amides-27839-covalent
     RDKit          3D

 26 28  0  0  0  0  0  0  0  0999 V2000
    7.0510   -3.3820   19.3190 C   0  0  0  0  0  0  0  0  0  0  0  0
    6.3670   -4.2000   20.3390 C   0  0  0  0  0  0  0  0  0  0  0  0
    5.3410   -4.8000   19.9690 O   0  0  0  0  0  0  0  0  0  0  0  0
    6.8960   -4.3250   21.6340 N   0  0  0  0  0  0  0  0  0  0  0  0
    6.5640   -5.4500   22.4360 C   0  0  0  0  0  0  0  0  0  0  0  0
    6.0290   -5.1070   23.7650 C   0  0  0  0  0  0  0  0  0  0  0  0
    6.5090   -3.8400   24.3810 C   0  0  0  0  0  0  0  0  0  0  0  0
    5.5930   -3.4000   25.4960 C   0  0  0  0  0  0  0  0  0  0  0  0
    4.6170   -2.7150   25.1420 O   0  0  0  0  0  0  0  0  0  0  0  0
    5.7380   -3.6970   26.8950 N   0  0  0  0  0  0  0  0  0  0  0  0
    5.1720   -2.7920   27.9110 C   0  0  0  0  0  0  0  0  0  0  0  0
    4.2560   -3.5780   28.7800 C   0  0  0  0  0  0  0  0  0  0  0  0
    4.2150   -4.9720   28.5930 N   0  0  0  0  0  0  0  0  0  0  0  0
    3.3740   -5.8300   29.4110 C   0  0  0  0  0  0  0  0  0  0  0  0
    3.0350   -5.4120   30.6640 C   0  0  0  0  0  0  0  0  0  0  0  0
    2.2410   -6.2260   31.4540 C   0  0  0  0  0  0  0  0  0  0  0  0
    1.8140   -7.4370   30.9520 C   0  0  0  0  0  0  0  0  0  0  0  0
    1.0240   -8.2620   31.7200 F   0  0  0  0  0  0  0  0  0  0  0  0
    2.1600   -7.8480   29.6850 C   0  0  0  0  0  0  0  0  0  0  0  0
    2.9400   -7.0330   28.9210 C   0  0  0  0  0  0  0  0  0  0  0  0
    3.3680   -7.3080   27.6200 C   0  0  0  0  0  0  0  0  0  0  0  0
    2.4760   -7.6090   26.6600 N   0  0  0  0  0  0  0  0  0  0  0  0
    5.4460   -5.7180   28.3890 C   0  0  0  0  0  0  0  0  0  0  0  0
    6.2490   -4.8700   27.4680 C   0  0  0  0  0  0  0  0  0  0  0  0
    6.7300   -2.7630   23.3130 C   0  0  0  0  0  0  0  0  0  0  0  0
    7.5800   -3.2400   22.2940 C   0  0  0  0  0  0  0  0  0  0  0  0
  1  2  1  0
  2  3  2  0
  2  4  1  0
  4  5  1  0
  5  6  1  0
  6  7  1  0
  7  8  1  0
  8  9  2  0
  8 10  1  0
 10 11  1  0
 11 12  1  0
 12 13  1  0
 13 14  1  0
 14 15  2  0
 15 16  1  0
 16 17  2  0
 17 18  1  0
 17 19  1  0
 14 20  1  0
 19 20  2  0
 20 21  1  0
 21 22  3  0
 13 23  1  0
 10 24  1  0
 23 24  1  0
  7 25  1  0
  4 26  1  0
 25 26  1  0
M  END
