piperidine-amides-27213-covalent
     RDKit          3D

 24 25  0  0  0  0  0  0  0  0999 V2000
    6.9900   -3.3860   19.4240 C   0  0  0  0  0  0  0  0  0  0  0  0
    6.3760   -4.2720   20.4240 C   0  0  0  0  0  0  0  0  0  0  0  0
    5.4100   -4.9660   20.0050 O   0  0  0  0  0  0  0  0  0  0  0  0
    6.8630   -4.3510   21.7460 N   0  0  0  0  0  0  0  0  0  0  0  0
    6.7030   -5.5580   22.5430 C   0  0  0  0  0  0  0  0  0  0  0  0
    6.1190   -5.1950   23.8910 C   0  0  0  0  0  0  0  0  0  0  0  0
    6.0270   -3.7010   24.0350 C   0  0  0  0  0  0  0  0  0  0  0  0
    5.4620   -3.1670   25.3210 C   0  0  0  0  0  0  0  0  0  0  0  0
    4.9780   -2.0250   25.2430 O   0  0  0  0  0  0  0  0  0  0  0  0
    5.3660   -3.7690   26.6060 N   0  0  0  0  0  0  0  0  0  0  0  0
    6.4260   -3.5830   27.5090 C   0  0  0  0  0  0  0  0  0  0  0  0
    6.5910   -4.8740   28.3230 C   0  0  0  0  0  0  0  0  0  0  0  0
    5.2410   -5.0650   28.8490 N   0  0  0  0  0  0  0  0  0  0  0  0
    4.7540   -6.2960   28.9900 C   0  0  0  0  0  0  0  0  0  0  0  0
    3.5180   -6.5020   29.6060 C   0  0  0  0  0  0  0  0  0  0  0  0
    3.4340   -7.6420   30.3240 F   0  0  0  0  0  0  0  0  0  0  0  0
    3.3800   -5.4740   30.5520 F   0  0  0  0  0  0  0  0  0  0  0  0
    2.4140   -6.3290   28.7780 C   0  0  0  0  0  0  0  0  0  0  0  0
    2.1380   -7.5060   28.0960 F   0  0  0  0  0  0  0  0  0  0  0  0
    1.3220   -6.1620   29.5690 F   0  0  0  0  0  0  0  0  0  0  0  0
    4.3250   -4.1320   28.6220 C   0  0  0  0  0  0  0  0  0  0  0  0
    4.1350   -3.7230   27.3060 C   0  0  0  0  0  0  0  0  0  0  0  0
    7.3910   -3.0760   23.7450 C   0  0  0  0  0  0  0  0  0  0  0  0
    7.6880   -3.2680   22.2580 C   0  0  0  0  0  0  0  0  0  0  0  0
  1  2  1  0
  2  3  2  0
  2  4  1  0
  4  5  1  0
  5  6  1  0
  6  7  1  0
  7  8  1  0
  8  9  2  0
  8 10  1  0
 10 11  1  0
 11 12  1  0
 12 13  1  0
 13 14  1  0
 14 15  1  0
 15 16  1  0
 15 17  1  0
 15 18  1  0
 18 19  1  0
 18 20  1  0
 13 21  1  0
 10 22  1  0
 21 22  1  0
  7 23  1  0
  4 24  1  0
 23 24  1  0
M  END
