piperidine-amides-24767-covalent
     RDKit          3D

 24 25  0  0  0  0  0  0  0  0999 V2000
    7.1430   -3.2840   19.2640 C   0  0  0  0  0  0  0  0  0  0  0  0
    6.3450   -4.0320   20.2480 C   0  0  0  0  0  0  0  0  0  0  0  0
    5.3010   -4.6310   19.9080 O   0  0  0  0  0  0  0  0  0  0  0  0
    6.7790   -4.1070   21.5700 N   0  0  0  0  0  0  0  0  0  0  0  0
    7.6940   -3.0840   22.0210 C   0  0  0  0  0  0  0  0  0  0  0  0
    7.6420   -3.0560   23.5370 C   0  0  0  0  0  0  0  0  0  0  0  0
    6.2830   -3.5750   23.9410 C   0  0  0  0  0  0  0  0  0  0  0  0
    6.1050   -3.3560   25.3890 C   0  0  0  0  0  0  0  0  0  0  0  0
    4.9350   -3.3170   25.8390 O   0  0  0  0  0  0  0  0  0  0  0  0
    7.2680   -3.1770   26.1960 N   0  0  0  0  0  0  0  0  0  0  0  0
    8.1720   -2.1530   25.8340 C   0  0  0  0  0  0  0  0  0  0  0  0
    7.2150   -3.3700   27.6140 C   0  0  0  0  0  0  0  0  0  0  0  0
    7.5550   -4.6540   27.8930 C   0  0  2  0  0  0  0  0  0  0  0  0
    8.3300   -5.2920   26.9460 C   0  0  0  0  0  0  0  0  0  0  0  0
    6.5410   -5.3440   28.4790 C   0  0  0  0  0  0  0  0  0  0  0  0
    6.7600   -6.5360   28.9370 C   0  0  0  0  0  0  0  0  0  0  0  0
    5.8990   -7.5330   29.6190 C   0  0  0  0  0  0  0  0  0  0  0  0
    4.5960   -6.6820   29.6170 C   0  0  0  0  0  0  0  0  0  0  0  0
    3.6090   -7.4000   30.2130 F   0  0  0  0  0  0  0  0  0  0  0  0
    4.1050   -5.2870   29.1440 C   0  0  0  0  0  0  0  0  0  0  0  0
    5.3350   -4.7420   28.5580 C   0  0  0  0  0  0  0  0  0  0  0  0
    5.1390   -3.4620   28.0540 F   0  0  0  0  0  0  0  0  0  0  0  0
    6.1990   -5.0410   23.6200 C   0  0  0  0  0  0  0  0  0  0  0  0
    6.5180   -5.2970   22.3170 C   0  0  0  0  0  0  0  0  0  0  0  0
  1  2  1  0
  2  3  2  0
  2  4  1  0
  4  5  1  0
  5  6  1  0
  6  7  1  0
  7  8  1  0
  8  9  2  0
  8 10  1  0
 10 11  1  0
 10 12  1  0
 12 13  1  0
 13 14  1  6
 13 15  1  0
 15 16  2  0
 16 17  1  0
 17 18  2  0
 18 19  1  0
 18 20  1  0
 15 21  1  0
 20 21  2  0
 21 22  1  0
  7 23  1  0
  4 24  1  0
 23 24  1  0
M  END
