piperidine-amides-13374-covalent
     RDKit          3D

 22 24  0  0  0  0  0  0  0  0999 V2000
    7.1250   -3.2690   19.1630 C   0  0  0  0  0  0  0  0  0  0  0  0
    6.3610   -4.0000   20.2000 C   0  0  0  0  0  0  0  0  0  0  0  0
    5.2620   -4.4690   19.8510 O   0  0  0  0  0  0  0  0  0  0  0  0
    6.8800   -4.2050   21.4810 N   0  0  0  0  0  0  0  0  0  0  0  0
    7.6140   -3.1590   22.1180 C   0  0  0  0  0  0  0  0  0  0  0  0
    7.1590   -2.8160   23.4670 C   0  0  0  0  0  0  0  0  0  0  0  0
    6.4770   -3.8960   24.2150 C   0  0  0  0  0  0  0  0  0  0  0  0
    5.6980   -3.3420   25.3490 C   0  0  0  0  0  0  0  0  0  0  0  0
    4.4790   -3.1620   25.1770 O   0  0  0  0  0  0  0  0  0  0  0  0
    6.2820   -3.0240   26.5910 N   0  0  0  0  0  0  0  0  0  0  0  0
    5.4590   -2.9400   27.8190 C   0  0  1  0  0  0  0  0  0  0  0  0
    6.2170   -2.6540   29.0050 C   0  0  0  0  0  0  0  0  0  0  0  0
    5.2630   -1.6220   29.2160 C   0  0  2  0  0  0  0  0  0  0  0  0
    4.5770   -1.6110   30.4180 C   0  0  0  0  0  0  0  0  0  0  0  0
    3.4200   -0.8710   30.1290 N   0  0  0  0  0  0  0  0  0  0  0  0
    3.3540    0.5000   29.6770 C   0  0  0  0  0  0  0  0  0  0  0  0
    2.0280    0.8480   29.5140 C   0  0  0  0  0  0  0  0  0  0  0  0
    1.1950   -0.2740   29.8540 N   0  0  0  0  0  0  0  0  0  0  0  0
    2.1050   -1.3420   30.2360 C   0  0  0  0  0  0  0  0  0  0  0  0
    4.4830   -1.8890   28.0490 C   0  0  0  0  0  0  0  0  0  0  0  0
    5.6100   -4.7540   23.3340 C   0  0  0  0  0  0  0  0  0  0  0  0
    6.4840   -5.3260   22.2940 C   0  0  0  0  0  0  0  0  0  0  0  0
  1  2  1  0
  2  3  2  0
  2  4  1  0
  4  5  1  0
  5  6  1  0
  6  7  1  0
  7  8  1  0
  8  9  2  0
  8 10  1  0
 11 10  1  6
 11 12  1  0
 12 13  1  0
 13 14  1  1
 14 15  1  0
 15 16  1  0
 16 17  2  0
 17 18  1  0
 15 19  1  0
 18 19  2  0
 11 20  1  0
 13 20  1  0
  7 21  1  0
  4 22  1  0
 21 22  1  0
M  END
