piperidine-amides-5299-covalent
     RDKit          3D

 21 23  0  0  0  0  0  0  0  0999 V2000
    7.0530   -3.3310   19.3140 C   0  0  0  0  0  0  0  0  0  0  0  0
    6.3970   -4.1720   20.3420 C   0  0  0  0  0  0  0  0  0  0  0  0
    5.3950   -4.8280   19.9790 O   0  0  0  0  0  0  0  0  0  0  0  0
    6.9220   -4.2450   21.6440 N   0  0  0  0  0  0  0  0  0  0  0  0
    6.6240   -5.3830   22.4500 C   0  0  0  0  0  0  0  0  0  0  0  0
    6.0000   -5.0150   23.7180 C   0  0  0  0  0  0  0  0  0  0  0  0
    6.0550   -3.5630   23.9690 C   0  0  0  0  0  0  0  0  0  0  0  0
    5.6330   -3.2090   25.3460 C   0  0  0  0  0  0  0  0  0  0  0  0
    4.4220   -3.2380   25.6240 O   0  0  0  0  0  0  0  0  0  0  0  0
    6.5830   -2.8490   26.3090 N   0  0  0  0  0  0  0  0  0  0  0  0
    6.4990   -1.6190   27.1230 C   0  0  0  0  0  0  0  0  0  0  0  0
    5.9240   -0.3840   26.5650 C   0  0  0  0  0  0  0  0  0  0  0  0
    5.8530    0.8060   27.3900 C   0  0  0  0  0  0  0  0  0  0  0  0
    6.3460    0.6940   28.6820 C   0  0  0  0  0  0  0  0  0  0  0  0
    6.8830   -0.4630   29.1970 C   0  0  0  0  0  0  0  0  0  0  0  0
    6.9830   -1.6200   28.4810 C   0  0  0  0  0  0  0  0  0  0  0  0
    7.2150    0.0120   30.5500 C   0  0  0  0  0  0  0  0  0  0  0  0
    6.9300    1.2280   30.6800 O   0  0  0  0  0  0  0  0  0  0  0  0
    6.3240    1.7840   29.5650 C   0  0  0  0  0  0  0  0  0  0  0  0
    7.4320   -3.0460   23.6600 C   0  0  0  0  0  0  0  0  0  0  0  0
    7.7320   -3.1680   22.2120 C   0  0  0  0  0  0  0  0  0  0  0  0
  1  2  1  0
  2  3  2  0
  2  4  1  0
  4  5  1  0
  5  6  1  0
  6  7  1  0
  7  8  1  0
  8  9  2  0
  8 10  1  0
 10 11  1  0
 11 12  2  0
 12 13  1  0
 13 14  2  0
 14 15  1  0
 11 16  1  0
 15 16  2  0
 15 17  1  0
 17 18  1  0
 14 19  1  0
 18 19  1  0
  7 20  1  0
  4 21  1  0
 20 21  1  0
M  END
