piperidine-amides-10852-covalent
     RDKit          3D

 22 23  0  0  0  0  0  0  0  0999 V2000
    7.1050   -3.2670   19.1820 C   0  0  0  0  0  0  0  0  0  0  0  0
    6.3440   -4.0020   20.1970 C   0  0  0  0  0  0  0  0  0  0  0  0
    5.2750   -4.5450   19.8770 O   0  0  0  0  0  0  0  0  0  0  0  0
    6.8200   -4.1520   21.5050 N   0  0  0  0  0  0  0  0  0  0  0  0
    7.6830   -3.1910   22.1560 C   0  0  0  0  0  0  0  0  0  0  0  0
    6.9300   -2.7270   23.3670 C   0  0  0  0  0  0  0  0  0  0  0  0
    6.5200   -3.8870   24.2200 C   0  0  0  0  0  0  0  0  0  0  0  0
    5.8040   -3.4470   25.4420 C   0  0  0  0  0  0  0  0  0  0  0  0
    4.5380   -3.3590   25.4510 O   0  0  0  0  0  0  0  0  0  0  0  0
    6.4830   -3.0920   26.6260 N   0  0  0  0  0  0  0  0  0  0  0  0
    6.2070   -3.7270   27.9420 C   0  0  0  0  0  0  0  0  0  0  0  0
    5.7690   -5.1440   27.8040 C   0  0  0  0  0  0  0  0  0  0  0  0
    5.8010   -5.9730   29.0280 C   0  0  0  0  0  0  0  0  0  0  0  0
    5.0560   -7.2840   28.9050 C   0  0  0  0  0  0  0  0  0  0  0  0
    3.9620   -7.4680   29.8120 N   0  0  0  0  0  0  0  0  0  0  0  0
    4.4790   -7.1820   31.1440 C   0  0  0  0  0  0  0  0  0  0  0  0
    3.5280   -6.1550   31.6640 C   0  0  0  0  0  0  0  0  0  0  0  0
    2.6400   -5.8050   30.6730 O   0  0  0  0  0  0  0  0  0  0  0  0
    2.9460   -6.6230   29.5900 C   0  0  0  0  0  0  0  0  0  0  0  0
    2.3870   -6.6430   28.4810 O   0  0  0  0  0  0  0  0  0  0  0  0
    5.6780   -4.8760   23.4540 C   0  0  0  0  0  0  0  0  0  0  0  0
    6.4770   -5.3400   22.2580 C   0  0  0  0  0  0  0  0  0  0  0  0
  1  2  1  0
  2  3  2  0
  2  4  1  0
  4  5  1  0
  5  6  1  0
  6  7  1  0
  7  8  1  0
  8  9  2  0
  8 10  1  0
 10 11  1  0
 11 12  1  0
 12 13  1  0
 13 14  1  0
 14 15  1  0
 15 16  1  0
 16 17  1  0
 17 18  1  0
 15 19  1  0
 18 19  1  0
 19 20  2  0
  7 21  1  0
  4 22  1  0
 21 22  1  0
M  END
