piperidine-amides-29757-covalent
     RDKit          3D

 26 29  0  0  0  0  0  0  0  0999 V2000
    7.1160   -3.3470   19.2660 C   0  0  0  0  0  0  0  0  0  0  0  0
    6.4090   -4.1590   20.2420 C   0  0  0  0  0  0  0  0  0  0  0  0
    5.3440   -4.7000   19.9440 O   0  0  0  0  0  0  0  0  0  0  0  0
    7.0000   -4.3890   21.5220 N   0  0  0  0  0  0  0  0  0  0  0  0
    6.6230   -5.5400   22.2860 C   0  0  0  0  0  0  0  0  0  0  0  0
    5.7820   -5.1010   23.4460 C   0  0  0  0  0  0  0  0  0  0  0  0
    6.5530   -4.0250   24.1960 C   0  0  0  0  0  0  0  0  0  0  0  0
    5.6670   -3.4490   25.2270 C   0  0  0  0  0  0  0  0  0  0  0  0
    4.7250   -2.6990   24.9240 O   0  0  0  0  0  0  0  0  0  0  0  0
    5.8530   -3.7350   26.5850 N   0  0  0  0  0  0  0  0  0  0  0  0
    4.6740   -4.3430   27.1520 C   0  0  0  0  0  0  0  0  0  0  0  0
    4.9940   -4.8570   28.5180 C   0  0  0  0  0  0  0  0  0  0  0  0
    5.7700   -4.0710   29.2710 C   0  0  0  0  0  0  0  0  0  0  0  0
    5.1210   -2.9970   29.8930 C   0  0  0  0  0  0  0  0  0  0  0  0
    5.6400   -1.6840   30.0420 N   0  0  0  0  0  0  0  0  0  0  0  0
    4.7980   -0.8240   30.7070 C   0  0  0  0  0  0  0  0  0  0  0  0
    5.0610    0.5760   31.0120 C   0  0  0  0  0  0  0  0  0  0  0  0
    4.1070    1.3150   31.6950 C   0  0  0  0  0  0  0  0  0  0  0  0
    2.8900    0.7740   32.1100 C   0  0  0  0  0  0  0  0  0  0  0  0
    2.5990   -0.5620   31.8380 C   0  0  0  0  0  0  0  0  0  0  0  0
    3.6160   -1.3120   31.1220 C   0  0  0  0  0  0  0  0  0  0  0  0
    3.4920   -2.9570   30.6790 S   0  0  0  0  0  0  0  0  0  0  0  0
    6.7910   -3.4580   28.6540 C   0  0  0  0  0  0  0  0  0  0  0  0
    6.4360   -2.7900   27.4890 C   0  0  0  0  0  0  0  0  0  0  0  0
    6.9550   -2.8670   23.3210 C   0  0  0  0  0  0  0  0  0  0  0  0
    7.7970   -3.3740   22.1650 C   0  0  0  0  0  0  0  0  0  0  0  0
  1  2  1  0
  2  3  2  0
  2  4  1  0
  4  5  1  0
  5  6  1  0
  6  7  1  0
  7  8  1  0
  8  9  2  0
  8 10  1  0
 10 11  1  0
 11 12  1  0
 12 13  1  0
 13 14  1  0
 14 15  2  0
 15 16  1  0
 16 17  2  0
 17 18  1  0
 18 19  2  0
 19 20  1  0
 16 21  1  0
 20 21  2  0
 14 22  1  0
 21 22  1  0
 13 23  1  0
 10 24  1  0
 23 24  1  0
  7 25  1  0
  4 26  1  0
 25 26  1  0
M  END
