piperidine-amides-6565-covalent
     RDKit          3D

 24 26  0  0  0  0  0  0  0  0999 V2000
    7.1310   -3.3460   19.3200 C   0  0  0  0  0  0  0  0  0  0  0  0
    6.4060   -4.1770   20.2870 C   0  0  0  0  0  0  0  0  0  0  0  0
    5.3540   -4.7680   19.9630 O   0  0  0  0  0  0  0  0  0  0  0  0
    6.9330   -4.3580   21.5680 N   0  0  0  0  0  0  0  0  0  0  0  0
    7.7490   -3.3190   22.1510 C   0  0  0  0  0  0  0  0  0  0  0  0
    6.8890   -2.6880   23.2300 C   0  0  0  0  0  0  0  0  0  0  0  0
    6.6760   -3.7960   24.2190 C   0  0  0  0  0  0  0  0  0  0  0  0
    5.9720   -3.2670   25.3910 C   0  0  0  0  0  0  0  0  0  0  0  0
    4.7540   -3.5150   25.5340 O   0  0  0  0  0  0  0  0  0  0  0  0
    6.6980   -2.4730   26.3050 N   0  0  0  0  0  0  0  0  0  0  0  0
    5.9930   -1.5330   27.1120 C   0  0  1  0  0  0  0  0  0  0  0  0
    6.8310   -1.2040   28.3040 C   0  0  0  0  0  0  0  0  0  0  0  0
    6.4260    0.0230   28.7190 C   0  0  0  0  0  0  0  0  0  0  0  0
    5.5190    0.5350   27.8010 C   0  0  1  0  0  0  0  0  0  0  0  0
    5.4980    1.9150   27.5350 C   0  0  0  0  0  0  0  0  0  0  0  0
    6.5780    2.6320   27.2610 C   0  0  0  0  0  0  0  0  0  0  0  0
    6.6760    4.0950   26.9610 C   0  0  0  0  0  0  0  0  0  0  0  0
    5.1710    4.4760   27.0730 C   0  0  0  0  0  0  0  0  0  0  0  0
    3.8040    3.8140   27.3740 C   0  0  0  0  0  0  0  0  0  0  0  0
    2.1760    4.5000   27.4430 Cl  0  0  0  0  0  0  0  0  0  0  0  0
    4.2660    2.4450   27.5850 C   0  0  0  0  0  0  0  0  0  0  0  0
    5.5400   -0.3030   26.6870 C   0  0  0  0  0  0  0  0  0  0  0  0
    5.7990   -4.8760   23.5880 C   0  0  0  0  0  0  0  0  0  0  0  0
    6.5090   -5.4630   22.3920 C   0  0  0  0  0  0  0  0  0  0  0  0
  1  2  1  0
  2  3  2  0
  2  4  1  0
  4  5  1  0
  5  6  1  0
  6  7  1  0
  7  8  1  0
  8  9  2  0
  8 10  1  0
 11 10  1  6
 11 12  1  0
 12 13  1  0
 13 14  1  0
 14 15  1  6
 15 16  2  0
 16 17  1  0
 17 18  2  0
 18 19  1  0
 19 20  1  0
 15 21  1  0
 19 21  2  0
 11 22  1  0
 14 22  1  0
  7 23  1  0
  4 24  1  0
 23 24  1  0
M  END
