piperidine-amides-1392-covalent
     RDKit          3D

 22 23  0  0  0  0  0  0  0  0999 V2000
    7.1130   -3.2910   19.2830 C   0  0  0  0  0  0  0  0  0  0  0  0
    6.3200   -4.0410   20.2890 C   0  0  0  0  0  0  0  0  0  0  0  0
    5.2950   -4.6370   19.9210 O   0  0  0  0  0  0  0  0  0  0  0  0
    6.7780   -4.0930   21.6270 N   0  0  0  0  0  0  0  0  0  0  0  0
    7.6970   -3.1070   22.1710 C   0  0  0  0  0  0  0  0  0  0  0  0
    7.4820   -3.0180   23.6890 C   0  0  0  0  0  0  0  0  0  0  0  0
    6.1410   -3.5970   23.9570 C   0  0  0  0  0  0  0  0  0  0  0  0
    5.5740   -3.2650   25.2900 C   0  0  0  0  0  0  0  0  0  0  0  0
    4.3980   -2.9030   25.2950 O   0  0  0  0  0  0  0  0  0  0  0  0
    6.3320   -3.3620   26.4630 N   0  0  0  0  0  0  0  0  0  0  0  0
    6.0750   -4.1970   27.5940 C   0  0  0  0  0  0  0  0  0  0  0  0
    6.0550   -5.5790   27.5520 C   0  0  0  0  0  0  0  0  0  0  0  0
    4.4740   -6.2820   28.0940 S   0  0  0  0  0  0  0  0  0  0  0  0
    3.2500   -5.5210   27.6210 O   0  0  0  0  0  0  0  0  0  0  0  0
    4.4370   -6.5820   29.8450 C   0  0  0  0  0  0  0  0  0  0  0  0
    3.4590   -6.0980   30.6680 C   0  0  0  0  0  0  0  0  0  0  0  0
    3.4790   -6.3780   32.1080 C   0  0  0  0  0  0  0  0  0  0  0  0
    4.6000   -7.2190   32.7040 C   0  0  0  0  0  0  0  0  0  0  0  0
    5.6180   -7.6890   31.6510 C   0  0  0  0  0  0  0  0  0  0  0  0
    5.4810   -7.3490   30.3040 C   0  0  0  0  0  0  0  0  0  0  0  0
    6.0740   -5.0640   23.7290 C   0  0  0  0  0  0  0  0  0  0  0  0
    6.6200   -5.3490   22.3380 C   0  0  0  0  0  0  0  0  0  0  0  0
  1  2  1  0
  2  3  2  0
  2  4  1  0
  4  5  1  0
  5  6  1  0
  6  7  1  0
  7  8  1  0
  8  9  2  0
  8 10  1  0
 10 11  1  0
 11 12  1  0
 13 12  1  1
 13 14  2  0
 13 15  1  0
 15 16  2  0
 16 17  1  0
 17 18  2  0
 18 19  1  0
 15 20  1  0
 19 20  2  0
  7 21  1  0
  4 22  1  0
 21 22  1  0
M  END
