piperidine-amides-33018-covalent
     RDKit          3D

 25 28  0  0  0  0  0  0  0  0999 V2000
    7.0350   -3.3510   19.3890 C   0  0  0  0  0  0  0  0  0  0  0  0
    6.3630   -4.2490   20.3660 C   0  0  0  0  0  0  0  0  0  0  0  0
    5.3630   -4.8840   19.9890 O   0  0  0  0  0  0  0  0  0  0  0  0
    6.8900   -4.4080   21.6700 N   0  0  0  0  0  0  0  0  0  0  0  0
    6.5510   -5.5180   22.5100 C   0  0  0  0  0  0  0  0  0  0  0  0
    5.5400   -4.9830   23.5340 C   0  0  0  0  0  0  0  0  0  0  0  0
    6.2230   -3.9470   24.3750 C   0  0  0  0  0  0  0  0  0  0  0  0
    5.2980   -3.2430   25.3260 C   0  0  0  0  0  0  0  0  0  0  0  0
    4.4420   -2.5490   24.7830 O   0  0  0  0  0  0  0  0  0  0  0  0
    5.3680   -3.3570   26.7380 N   0  0  0  0  0  0  0  0  0  0  0  0
    6.4620   -3.5620   27.5070 C   0  0  0  0  0  0  0  0  0  0  0  0
    6.4960   -4.6830   28.3140 C   0  0  0  0  0  0  0  0  0  0  0  0
    5.3000   -4.7450   29.0120 C   0  0  0  0  0  0  0  0  0  0  0  0
    4.2200   -3.9440   28.6590 C   0  0  0  0  0  0  0  0  0  0  0  0
    3.1680   -4.1500   29.4730 N   0  0  0  0  0  0  0  0  0  0  0  0
    3.4660   -5.0650   30.3800 C   0  0  0  0  0  0  0  0  0  0  0  0
    2.6890   -5.6720   31.5260 C   0  0  0  0  0  0  0  0  0  0  0  0
    3.4700   -6.7020   32.3180 C   0  0  0  0  0  0  0  0  0  0  0  0
    4.7710   -7.0920   32.0500 C   0  0  0  0  0  0  0  0  0  0  0  0
    5.4740   -8.3960   33.2570 Br  0  0  0  0  0  0  0  0  0  0  0  0
    5.6230   -6.5620   30.9200 C   0  0  0  0  0  0  0  0  0  0  0  0
    4.8500   -5.5110   30.1330 C   0  0  0  0  0  0  0  0  0  0  0  0
    4.2170   -2.9630   27.5100 C   0  0  0  0  0  0  0  0  0  0  0  0
    6.9560   -2.8660   23.6200 C   0  0  0  0  0  0  0  0  0  0  0  0
    7.6120   -3.3330   22.3320 C   0  0  0  0  0  0  0  0  0  0  0  0
  1  2  1  0
  2  3  2  0
  2  4  1  0
  4  5  1  0
  5  6  1  0
  6  7  1  0
  7  8  1  0
  8  9  2  0
  8 10  1  0
 10 11  1  0
 11 12  1  0
 12 13  1  0
 13 14  2  0
 14 15  1  0
 15 16  1  0
 16 17  1  0
 17 18  2  0
 18 19  1  0
 19 20  1  0
 19 21  2  0
 13 22  1  0
 16 22  2  0
 21 22  1  0
 10 23  1  0
 14 23  1  0
  7 24  1  0
  4 25  1  0
 24 25  1  0
M  END
