piperidine-amides-673-covalent
     RDKit          3D

 26 28  0  0  0  0  0  0  0  0999 V2000
    7.0400   -3.3790   19.3560 C   0  0  0  0  0  0  0  0  0  0  0  0
    6.3810   -4.1600   20.3810 C   0  0  0  0  0  0  0  0  0  0  0  0
    5.3900   -4.8550   19.9960 O   0  0  0  0  0  0  0  0  0  0  0  0
    6.8040   -4.2570   21.7330 N   0  0  0  0  0  0  0  0  0  0  0  0
    7.8990   -3.3280   22.1750 C   0  0  0  0  0  0  0  0  0  0  0  0
    7.5700   -3.0280   23.6990 C   0  0  0  0  0  0  0  0  0  0  0  0
    6.4630   -3.9820   24.0320 C   0  0  0  0  0  0  0  0  0  0  0  0
    5.7550   -3.7660   25.4470 C   0  0  0  0  0  0  0  0  0  0  0  0
    4.8930   -4.6210   25.5860 O   0  0  0  0  0  0  0  0  0  0  0  0
    6.2020   -2.7780   26.1230 N   0  0  0  0  0  0  0  0  0  0  0  0
    6.4690   -1.7790   27.0140 C   0  0  0  0  0  0  0  0  0  0  0  0
    7.1840   -1.6760   28.1630 C   0  0  0  0  0  0  0  0  0  0  0  0
    7.2930   -0.5090   28.9610 C   0  0  0  0  0  0  0  0  0  0  0  0
    6.7110    0.8560   28.8000 C   0  0  0  0  0  0  0  0  0  0  0  0
    6.0190    0.6150   27.5970 N   0  0  0  0  0  0  0  0  0  0  0  0
    5.7930   -0.4770   26.6610 C   0  0  0  0  0  0  0  0  0  0  0  0
    5.0230   -0.5100   25.4780 O   0  0  0  0  0  0  0  0  0  0  0  0
    5.5700   -0.4810   24.1790 C   0  0  0  0  0  0  0  0  0  0  0  0
    6.4830    0.6550   24.0740 C   0  0  0  0  0  0  0  0  0  0  0  0
    6.8690    0.3940   22.5940 C   0  0  0  0  0  0  0  0  0  0  0  0
    6.3860   -0.7200   21.6550 C   0  0  0  0  0  0  0  0  0  0  0  0
    5.5320   -1.6130   22.0890 C   0  0  0  0  0  0  0  0  0  0  0  0
    5.0970   -1.5240   23.3570 C   0  0  0  0  0  0  0  0  0  0  0  0
    4.2060   -2.4300   23.8480 C   0  0  0  0  0  0  0  0  0  0  0  0
    6.7040   -5.4110   23.7090 C   0  0  0  0  0  0  0  0  0  0  0  0
    6.7790   -5.5630   22.3310 C   0  0  0  0  0  0  0  0  0  0  0  0
  1  2  1  0
  2  3  2  0
  2  4  1  0
  4  5  1  0
  5  6  1  0
  6  7  1  0
  7  8  1  0
  8  9  2  0
  8 10  1  0
 10 11  1  0
 11 12  2  0
 12 13  1  0
 13 14  2  0
 14 15  1  0
 11 16  1  0
 15 16  2  0
 16 17  1  0
 17 18  1  0
 18 19  2  0
 19 20  1  0
 20 21  2  0
 21 22  1  0
 18 23  1  0
 22 23  2  0
 23 24  1  0
  7 25  1  0
  4 26  1  0
 25 26  1  0
M  END
