piperidine-amides-1470-covalent
     RDKit          3D

 21 22  0  0  0  0  0  0  0  0999 V2000
    7.1490   -3.2570   19.2090 C   0  0  0  0  0  0  0  0  0  0  0  0
    6.3760   -4.0160   20.2300 C   0  0  0  0  0  0  0  0  0  0  0  0
    5.3070   -4.5610   19.8980 O   0  0  0  0  0  0  0  0  0  0  0  0
    6.9050   -4.1350   21.5310 N   0  0  0  0  0  0  0  0  0  0  0  0
    7.7940   -3.1470   22.0960 C   0  0  0  0  0  0  0  0  0  0  0  0
    7.0830   -2.5910   23.3210 C   0  0  0  0  0  0  0  0  0  0  0  0
    6.5640   -3.7630   24.0740 C   0  0  0  0  0  0  0  0  0  0  0  0
    5.8440   -3.3450   25.2890 C   0  0  0  0  0  0  0  0  0  0  0  0
    4.6220   -3.5370   25.3180 O   0  0  0  0  0  0  0  0  0  0  0  0
    6.5580   -2.7540   26.3260 N   0  0  0  0  0  0  0  0  0  0  0  0
    6.3580   -1.4640   26.8690 C   0  0  0  0  0  0  0  0  0  0  0  0
    5.3750   -1.2050   27.7970 C   0  0  0  0  0  0  0  0  0  0  0  0
    4.8010    0.0850   27.9270 C   0  0  0  0  0  0  0  0  0  0  0  0
    5.4210    1.4690   26.7760 Br  0  0  0  0  0  0  0  0  0  0  0  0
    3.8190    0.3910   28.8420 C   0  0  0  0  0  0  0  0  0  0  0  0
    3.3680   -0.5710   29.6610 N   0  0  0  0  0  0  0  0  0  0  0  0
    3.8460   -1.8140   29.6080 C   0  0  0  0  0  0  0  0  0  0  0  0
    4.9450   -2.2560   28.6210 C   0  0  0  0  0  0  0  0  0  0  0  0
    5.5960   -4.0340   28.5760 Br  0  0  0  0  0  0  0  0  0  0  0  0
    5.6800   -4.7180   23.3150 C   0  0  0  0  0  0  0  0  0  0  0  0
    6.5120   -5.2450   22.3450 C   0  0  0  0  0  0  0  0  0  0  0  0
  1  2  1  0
  2  3  2  0
  2  4  1  0
  4  5  1  0
  5  6  1  0
  6  7  1  0
  7  8  1  0
  8  9  2  0
  8 10  1  0
 10 11  1  0
 11 12  1  0
 12 13  2  0
 13 14  1  0
 13 15  1  0
 15 16  2  0
 16 17  1  0
 12 18  1  0
 17 18  2  0
 18 19  1  0
  7 20  1  0
  4 21  1  0
 20 21  1  0
M  END
