piperidine-amides-25911-covalent
     RDKit          3D

 25 27  0  0  0  0  0  0  0  0999 V2000
    7.0720   -3.3460   19.2860 C   0  0  0  0  0  0  0  0  0  0  0  0
    6.4100   -4.2040   20.2990 C   0  0  0  0  0  0  0  0  0  0  0  0
    5.3730   -4.7750   19.9620 O   0  0  0  0  0  0  0  0  0  0  0  0
    6.9960   -4.3770   21.5530 N   0  0  0  0  0  0  0  0  0  0  0  0
    6.6430   -5.4750   22.4030 C   0  0  0  0  0  0  0  0  0  0  0  0
    5.8790   -4.9440   23.5830 C   0  0  0  0  0  0  0  0  0  0  0  0
    6.6390   -3.7790   24.2460 C   0  0  0  0  0  0  0  0  0  0  0  0
    5.8220   -3.2770   25.3680 C   0  0  0  0  0  0  0  0  0  0  0  0
    5.0950   -2.2920   25.1990 O   0  0  0  0  0  0  0  0  0  0  0  0
    5.8230   -3.9100   26.6130 N   0  0  0  0  0  0  0  0  0  0  0  0
    6.3850   -3.3220   27.7710 C   0  0  0  0  0  0  0  0  0  0  0  0
    6.6960   -4.5440   28.6080 C   0  0  0  0  0  0  0  0  0  0  0  0
    5.7680   -5.0140   29.4740 C   0  0  0  0  0  0  0  0  0  0  0  0
    5.9870   -5.8730   30.3800 O   0  0  0  0  0  0  0  0  0  0  0  0
    4.8210   -6.2360   31.0720 C   0  0  0  0  0  0  0  0  0  0  0  0
    3.6170   -5.6480   30.8120 C   0  0  0  0  0  0  0  0  0  0  0  0
    2.2400   -5.8490   31.4000 C   0  0  0  0  0  0  0  0  0  0  0  0
    2.0540   -6.7560   32.3700 N   0  0  0  0  0  0  0  0  0  0  0  0
    3.2160   -7.3740   32.6750 C   0  0  0  0  0  0  0  0  0  0  0  0
    4.6470   -7.2870   32.1900 C   0  0  0  0  0  0  0  0  0  0  0  0
    5.5900   -8.2100   32.8750 C   0  0  0  0  0  0  0  0  0  0  0  0
    5.0240   -5.3700   28.3720 C   0  0  0  0  0  0  0  0  0  0  0  0
    4.6270   -4.4010   27.2740 C   0  0  0  0  0  0  0  0  0  0  0  0
    6.8910   -2.6750   23.2600 C   0  0  0  0  0  0  0  0  0  0  0  0
    7.7240   -3.2960   22.1880 C   0  0  0  0  0  0  0  0  0  0  0  0
  1  2  1  0
  2  3  2  0
  2  4  1  0
  4  5  1  0
  5  6  1  0
  6  7  1  0
  7  8  1  0
  8  9  2  0
  8 10  1  0
 10 11  1  0
 11 12  1  0
 12 13  1  0
 13 14  1  0
 14 15  1  0
 15 16  2  0
 16 17  1  0
 17 18  2  0
 18 19  1  0
 15 20  1  0
 19 20  2  0
 20 21  1  0
 13 22  1  0
 10 23  1  0
 22 23  1  0
  7 24  1  0
  4 25  1  0
 24 25  1  0
M  END
