piperidine-amides-34134-covalent
     RDKit          3D

 30 32  0  0  0  0  0  0  0  0999 V2000
    6.9900   -3.3650   19.3950 C   0  0  0  0  0  0  0  0  0  0  0  0
    6.3480   -4.2480   20.3890 C   0  0  0  0  0  0  0  0  0  0  0  0
    5.4160   -4.9920   20.0130 O   0  0  0  0  0  0  0  0  0  0  0  0
    6.7770   -4.2960   21.7350 N   0  0  0  0  0  0  0  0  0  0  0  0
    6.6280   -5.5460   22.4610 C   0  0  0  0  0  0  0  0  0  0  0  0
    6.0490   -5.2370   23.8600 C   0  0  0  0  0  0  0  0  0  0  0  0
    5.9080   -3.7370   23.9300 C   0  0  0  0  0  0  0  0  0  0  0  0
    5.1880   -3.2200   25.1480 C   0  0  0  0  0  0  0  0  0  0  0  0
    4.3850   -2.2960   24.9450 O   0  0  0  0  0  0  0  0  0  0  0  0
    5.3610   -3.7130   26.4790 N   0  0  0  0  0  0  0  0  0  0  0  0
    6.5750   -3.4760   27.1020 C   0  0  0  0  0  0  0  0  0  0  0  0
    6.5840   -2.4660   28.2160 C   0  0  0  0  0  0  0  0  0  0  0  0
    5.2200   -2.1540   28.5700 N   0  0  0  0  0  0  0  0  0  0  0  0
    4.1100   -2.3990   27.6880 C   0  0  0  0  0  0  0  0  0  0  0  0
    4.0190   -1.1660   27.9700 O   0  0  0  0  0  0  0  0  0  0  0  0
    4.6960   -3.6570   27.7660 C   0  0  2  0  0  0  0  0  0  0  0  0
    5.8120   -3.8710   28.6160 C   0  0  0  0  0  0  0  0  0  0  0  0
    6.1460   -5.1720   28.9460 C   0  0  0  0  0  0  0  0  0  0  0  0
    5.2630   -6.2770   28.3980 C   0  0  0  0  0  0  0  0  0  0  0  0
    4.0750   -5.7570   28.7470 N   0  0  0  0  0  0  0  0  0  0  0  0
    3.4850   -5.9590   30.0620 C   0  0  0  0  0  0  0  0  0  0  0  0
    2.2180   -6.0840   30.1980 O   0  0  0  0  0  0  0  0  0  0  0  0
    4.2240   -6.0310   31.2360 O   0  0  0  0  0  0  0  0  0  0  0  0
    4.7110   -7.2930   31.6180 C   0  0  0  0  0  0  0  0  0  0  0  0
    3.5110   -8.1270   31.5620 C   0  0  0  0  0  0  0  0  0  0  0  0
    5.7870   -7.6500   30.7920 C   0  0  0  0  0  0  0  0  0  0  0  0
    5.2390   -7.2790   33.0400 C   0  0  0  0  0  0  0  0  0  0  0  0
    3.5900   -4.6460   27.9660 C   0  0  0  0  0  0  0  0  0  0  0  0
    7.2310   -3.0350   23.7280 C   0  0  0  0  0  0  0  0  0  0  0  0
    7.6340   -3.2450   22.2570 C   0  0  0  0  0  0  0  0  0  0  0  0
  1  2  1  0
  2  3  2  0
  2  4  1  0
  4  5  1  0
  5  6  1  0
  6  7  1  0
  7  8  1  0
  8  9  2  0
  8 10  1  0
 10 11  1  0
 11 12  1  0
 12 13  1  0
 13 14  1  0
 14 15  2  0
 10 16  1  0
 16 14  1  0
 16 17  1  1
 17 18  1  0
 18 19  1  0
 19 20  1  0
 20 21  1  0
 21 22  2  0
 21 23  1  0
 24 23  1  0
 24 25  1  0
 24 26  1  0
 24 27  1  0
 16 28  1  0
 20 28  1  0
  7 29  1  0
  4 30  1  0
 29 30  1  0
M  END
