piperidine-amides-9965-covalent
     RDKit          3D

 26 27  0  0  0  0  0  0  0  0999 V2000
    7.0850   -3.2810   19.2360 C   0  0  0  0  0  0  0  0  0  0  0  0
    6.3700   -4.0370   20.2720 C   0  0  0  0  0  0  0  0  0  0  0  0
    5.3090   -4.6100   19.9100 O   0  0  0  0  0  0  0  0  0  0  0  0
    6.8900   -4.1320   21.5690 N   0  0  0  0  0  0  0  0  0  0  0  0
    7.7400   -3.1080   22.1430 C   0  0  0  0  0  0  0  0  0  0  0  0
    7.3870   -2.9510   23.5940 C   0  0  0  0  0  0  0  0  0  0  0  0
    6.0460   -3.5530   23.8990 C   0  0  0  0  0  0  0  0  0  0  0  0
    5.6650   -3.2520   25.2960 C   0  0  0  0  0  0  0  0  0  0  0  0
    4.4500   -3.2390   25.5800 O   0  0  0  0  0  0  0  0  0  0  0  0
    6.6050   -2.9650   26.3020 N   0  0  0  0  0  0  0  0  0  0  0  0
    6.3160   -3.1570   27.7040 C   0  0  0  0  0  0  0  0  0  0  0  0
    6.2600   -4.6140   28.1490 C   0  0  0  0  0  0  0  0  0  0  0  0
    5.0070   -4.7290   28.9150 N   0  0  0  0  0  0  0  0  0  0  0  0
    4.5770   -6.2990   29.3250 S   0  0  0  0  0  0  0  0  0  0  0  0
    3.2400   -6.5400   28.7220 O   0  0  0  0  0  0  0  0  0  0  0  0
    5.6290   -7.1640   28.7210 O   0  0  0  0  0  0  0  0  0  0  0  0
    4.5340   -6.6720   31.0730 C   0  0  0  0  0  0  0  0  0  0  0  0
    5.4570   -7.6210   31.4190 C   0  0  0  0  0  0  0  0  0  0  0  0
    5.5930   -8.0630   32.7190 C   0  0  0  0  0  0  0  0  0  0  0  0
    4.8400   -7.6090   33.7770 C   0  0  0  0  0  0  0  0  0  0  0  0
    5.0700   -8.2190   35.4060 Cl  0  0  0  0  0  0  0  0  0  0  0  0
    3.8870   -6.6440   33.5110 C   0  0  0  0  0  0  0  0  0  0  0  0
    3.7330   -6.1580   32.0800 C   0  0  0  0  0  0  0  0  0  0  0  0
    2.8010   -5.2160   31.7990 F   0  0  0  0  0  0  0  0  0  0  0  0
    6.0520   -5.0320   23.6810 C   0  0  0  0  0  0  0  0  0  0  0  0
    6.5680   -5.3590   22.2990 C   0  0  0  0  0  0  0  0  0  0  0  0
  1  2  1  0
  2  3  2  0
  2  4  1  0
  4  5  1  0
  5  6  1  0
  6  7  1  0
  7  8  1  0
  8  9  2  0
  8 10  1  0
 10 11  1  0
 11 12  1  0
 12 13  1  0
 14 13  1  0
 14 15  2  0
 14 16  2  0
 14 17  1  0
 17 18  2  0
 18 19  1  0
 19 20  2  0
 20 21  1  0
 20 22  1  0
 17 23  1  0
 22 23  2  0
 23 24  1  0
  7 25  1  0
  4 26  1  0
 25 26  1  0
M  END
