piperidine-amides-4739-covalent
     RDKit          3D

 24 25  0  0  0  0  0  0  0  0999 V2000
    7.0940   -3.3000   19.2750 C   0  0  0  0  0  0  0  0  0  0  0  0
    6.4010   -4.1020   20.3080 C   0  0  0  0  0  0  0  0  0  0  0  0
    5.3720   -4.7100   19.9450 O   0  0  0  0  0  0  0  0  0  0  0  0
    6.9150   -4.1970   21.6160 N   0  0  0  0  0  0  0  0  0  0  0  0
    6.6000   -5.3270   22.4280 C   0  0  0  0  0  0  0  0  0  0  0  0
    6.0260   -4.9390   23.7160 C   0  0  0  0  0  0  0  0  0  0  0  0
    6.1100   -3.4840   23.9280 C   0  0  0  0  0  0  0  0  0  0  0  0
    5.6350   -3.0820   25.2800 C   0  0  0  0  0  0  0  0  0  0  0  0
    4.5450   -2.4810   25.3450 O   0  0  0  0  0  0  0  0  0  0  0  0
    6.3510   -3.3480   26.4620 N   0  0  0  0  0  0  0  0  0  0  0  0
    5.8970   -4.3340   27.4740 C   0  0  0  0  0  0  0  0  0  0  0  0
    4.4040   -4.4950   27.4680 C   0  0  0  0  0  0  0  0  0  0  0  0
    3.7430   -4.5900   26.1690 C   0  0  0  0  0  0  0  0  0  0  0  0
    2.3940   -4.7360   25.9870 C   0  0  0  0  0  0  0  0  0  0  0  0
    1.5780   -4.8060   27.0890 C   0  0  0  0  0  0  0  0  0  0  0  0
    2.2240   -4.7170   28.3730 N   0  0  0  0  0  0  0  0  0  0  0  0
    3.5630   -4.5690   28.5560 C   0  0  0  0  0  0  0  0  0  0  0  0
    4.1080   -4.4960   29.8490 O   0  0  0  0  0  0  0  0  0  0  0  0
    3.7270   -5.4080   30.8390 C   0  0  0  0  0  0  0  0  0  0  0  0
    4.4230   -6.5830   30.7760 C   0  0  0  0  0  0  0  0  0  0  0  0
    4.3130   -7.2810   31.9810 C   0  0  0  0  0  0  0  0  0  0  0  0
    5.6350   -7.7170   32.4700 C   0  0  0  0  0  0  0  0  0  0  0  0
    7.4680   -2.9450   23.6530 C   0  0  0  0  0  0  0  0  0  0  0  0
    7.7330   -3.1240   22.1790 C   0  0  0  0  0  0  0  0  0  0  0  0
  1  2  1  0
  2  3  2  0
  2  4  1  0
  4  5  1  0
  5  6  1  0
  6  7  1  0
  7  8  1  0
  8  9  2  0
  8 10  1  0
 10 11  1  0
 11 12  1  0
 12 13  2  0
 13 14  1  0
 14 15  2  0
 15 16  1  0
 12 17  1  0
 16 17  2  0
 17 18  1  0
 18 19  1  0
 19 20  1  0
 20 21  1  0
 21 22  1  0
  7 23  1  0
  4 24  1  0
 23 24  1  0
M  END
