piperidine-amides-35118-covalent
     RDKit          3D

 32 34  0  0  0  0  0  0  0  0999 V2000
    7.1060   -3.2610   19.2110 C   0  0  0  0  0  0  0  0  0  0  0  0
    6.3640   -4.0510   20.2310 C   0  0  0  0  0  0  0  0  0  0  0  0
    5.2980   -4.5530   19.8820 O   0  0  0  0  0  0  0  0  0  0  0  0
    6.8990   -4.2450   21.5060 N   0  0  0  0  0  0  0  0  0  0  0  0
    6.4910   -5.3730   22.2910 C   0  0  0  0  0  0  0  0  0  0  0  0
    5.7250   -4.8550   23.4750 C   0  0  0  0  0  0  0  0  0  0  0  0
    6.5660   -3.8260   24.2350 C   0  0  0  0  0  0  0  0  0  0  0  0
    5.7540   -3.3610   25.3790 C   0  0  0  0  0  0  0  0  0  0  0  0
    4.5210   -3.3290   25.2570 O   0  0  0  0  0  0  0  0  0  0  0  0
    6.3410   -2.9470   26.5890 N   0  0  0  0  0  0  0  0  0  0  0  0
    6.7330   -1.5630   26.6780 C   0  0  0  0  0  0  0  0  0  0  0  0
    6.2690   -3.7930   27.7510 C   0  0  0  0  0  0  0  0  0  0  0  0
    5.2580   -3.4420   28.5950 C   0  0  0  0  0  0  0  0  0  0  0  0
    4.5310   -4.2580   29.4910 N   0  0  0  0  0  0  0  0  0  0  0  0
    3.6460   -3.5200   30.1250 N   0  0  0  0  0  0  0  0  0  0  0  0
    3.7580   -2.2470   29.6820 C   0  0  0  0  0  0  0  0  0  0  0  0
    3.0090   -1.1700   30.0920 C   0  0  1  0  0  0  0  0  0  0  0  0
    1.9410   -1.5150   31.1620 C   0  0  0  0  0  0  0  0  0  0  0  0
    1.4310   -0.1120   31.4530 C   0  0  2  0  0  0  0  0  0  0  0  0
    0.6790    0.3400   30.3620 F   0  0  0  0  0  0  0  0  0  0  0  0
    2.7310    0.5960   31.5320 C   0  0  0  0  0  0  0  0  0  0  0  0
    3.6870   -0.1300   30.8620 N   0  0  0  0  0  0  0  0  0  0  0  0
    4.9050   -0.3980   31.4320 C   0  0  0  0  0  0  0  0  0  0  0  0
    5.1470    0.0570   32.7360 O   0  0  0  0  0  0  0  0  0  0  0  0
    5.8070   -1.0300   30.8330 O   0  0  0  0  0  0  0  0  0  0  0  0
    6.8950   -0.3780   30.2430 C   0  0  0  0  0  0  0  0  0  0  0  0
    7.8360    0.1760   31.2970 C   0  0  0  0  0  0  0  0  0  0  0  0
    6.4900    0.7950   29.3520 C   0  0  0  0  0  0  0  0  0  0  0  0
    7.6980   -1.3360   29.3770 C   0  0  0  0  0  0  0  0  0  0  0  0
    4.7410   -2.2180   28.7520 N   0  0  0  0  0  0  0  0  0  0  0  0
    6.8840   -2.6630   23.3310 C   0  0  0  0  0  0  0  0  0  0  0  0
    7.6010   -3.1500   22.1020 C   0  0  0  0  0  0  0  0  0  0  0  0
  1  2  1  0
  2  3  2  0
  2  4  1  0
  4  5  1  0
  5  6  1  0
  6  7  1  0
  7  8  1  0
  8  9  2  0
  8 10  1  0
 10 11  1  0
 10 12  1  0
 12 13  1  0
 13 14  2  0
 14 15  1  0
 15 16  1  0
 17 16  1  1
 17 18  1  0
 18 19  1  0
 19 20  1  6
 19 21  1  0
 17 22  1  0
 21 22  1  0
 22 23  1  0
 23 24  2  0
 23 25  1  0
 26 25  1  0
 26 27  1  0
 26 28  1  0
 26 29  1  0
 13 30  1  0
 16 30  2  0
  7 31  1  0
  4 32  1  0
 31 32  1  0
M  END
