piperidine-amides-621-covalent
     RDKit          3D

 26 28  0  0  0  0  0  0  0  0999 V2000
    7.0690   -3.4060   19.5640 C   0  0  0  0  0  0  0  0  0  0  0  0
    6.3610   -4.2750   20.4800 C   0  0  0  0  0  0  0  0  0  0  0  0
    5.4140   -4.9850   20.0080 O   0  0  0  0  0  0  0  0  0  0  0  0
    6.7050   -4.3910   21.8500 N   0  0  0  0  0  0  0  0  0  0  0  0
    7.2420   -3.2120   22.5490 C   0  0  0  0  0  0  0  0  0  0  0  0
    5.9180   -2.7560   23.2850 C   0  0  0  0  0  0  0  0  0  0  0  0
    5.5240   -3.8800   24.2370 C   0  0  0  0  0  0  0  0  0  0  0  0
    4.1460   -3.5340   25.0570 C   0  0  0  0  0  0  0  0  0  0  0  0
    3.2100   -4.0500   24.4960 O   0  0  0  0  0  0  0  0  0  0  0  0
    4.3640   -2.7960   26.0860 N   0  0  0  0  0  0  0  0  0  0  0  0
    4.8750   -1.9640   27.0150 C   0  0  0  0  0  0  0  0  0  0  0  0
    6.0660   -1.9650   27.0250 C   0  0  0  0  0  0  0  0  0  0  0  0
    6.2940   -1.7360   25.6930 C   0  0  0  0  0  0  0  0  0  0  0  0
    7.5630   -1.6640   25.1230 C   0  0  0  0  0  0  0  0  0  0  0  0
    8.5050   -1.8780   26.2760 C   0  0  0  0  0  0  0  0  0  0  0  0
    9.7090   -1.7960   25.9510 F   0  0  0  0  0  0  0  0  0  0  0  0
    8.1150   -2.1030   27.5800 C   0  0  0  0  0  0  0  0  0  0  0  0
    6.8850   -2.1540   27.9700 C   0  0  0  0  0  0  0  0  0  0  0  0
    6.5550   -2.3940   29.2780 F   0  0  0  0  0  0  0  0  0  0  0  0
    4.5100   -1.9940   28.4470 C   0  0  0  0  0  0  0  0  0  0  0  0
    5.7460   -1.0900   28.9260 C   0  0  0  0  0  0  0  0  0  0  0  0
    5.8030    0.2280   28.5420 C   0  0  0  0  0  0  0  0  0  0  0  0
    5.4210    0.5170   27.2690 C   0  0  0  0  0  0  0  0  0  0  0  0
    5.0000   -0.5030   26.4760 C   0  0  0  0  0  0  0  0  0  0  0  0
    5.4640   -5.2620   23.6280 C   0  0  0  0  0  0  0  0  0  0  0  0
    6.4270   -5.5530   22.6380 C   0  0  0  0  0  0  0  0  0  0  0  0
  1  2  1  0
  2  3  2  0
  2  4  1  0
  4  5  1  0
  5  6  1  0
  6  7  1  0
  7  8  1  0
  8  9  2  0
  8 10  1  0
 11 10  1  0
 11 12  1  0
 12 13  2  0
 13 14  1  0
 14 15  2  0
 15 16  1  0
 15 17  1  0
 12 18  1  0
 17 18  2  0
 18 19  1  0
 11 20  1  0
 20 21  1  0
 21 22  1  0
 22 23  1  0
 11 24  1  0
 23 24  1  0
  7 25  1  0
  4 26  1  0
 25 26  1  0
M  END
