piperidine-amides-5600-covalent
     RDKit          3D

 19 19  0  0  0  0  0  0  0  0999 V2000
    7.1130   -3.2720   19.1960 C   0  0  0  0  0  0  0  0  0  0  0  0
    6.3660   -4.0040   20.2220 C   0  0  0  0  0  0  0  0  0  0  0  0
    5.3230   -4.6020   19.9050 O   0  0  0  0  0  0  0  0  0  0  0  0
    6.8280   -4.0810   21.5410 N   0  0  0  0  0  0  0  0  0  0  0  0
    7.7670   -3.1150   22.0740 C   0  0  0  0  0  0  0  0  0  0  0  0
    7.5340   -3.1110   23.5470 C   0  0  0  0  0  0  0  0  0  0  0  0
    6.1450   -3.5590   23.8590 C   0  0  0  0  0  0  0  0  0  0  0  0
    5.7940   -3.3390   25.2720 C   0  0  0  0  0  0  0  0  0  0  0  0
    4.5930   -3.1030   25.6060 O   0  0  0  0  0  0  0  0  0  0  0  0
    6.7660   -3.3710   26.2940 N   0  0  0  0  0  0  0  0  0  0  0  0
    6.5390   -4.1990   27.4920 C   0  0  2  0  0  0  0  0  0  0  0  0
    5.9210   -5.4790   27.0830 C   0  0  0  0  0  0  0  0  0  0  0  0
    5.4920   -3.5190   28.3850 C   0  0  0  0  0  0  0  0  0  0  0  0
    5.7610   -2.4880   29.3760 N   0  0  0  0  0  0  0  0  0  0  0  0
    7.8090   -4.4710   28.2380 C   0  0  0  0  0  0  0  0  0  0  0  0
    8.7290   -5.0100   27.1870 C   0  0  0  0  0  0  0  0  0  0  0  0
    8.2310   -6.2220   26.6520 C   0  0  0  0  0  0  0  0  0  0  0  0
    5.9730   -5.0150   23.4670 C   0  0  0  0  0  0  0  0  0  0  0  0
    6.6120   -5.3160   22.2570 C   0  0  0  0  0  0  0  0  0  0  0  0
  1  2  1  0
  2  3  2  0
  2  4  1  0
  4  5  1  0
  5  6  1  0
  6  7  1  0
  7  8  1  0
  8  9  2  0
  8 10  1  0
 11 10  1  0
 11 12  1  6
 11 13  1  0
 13 14  1  0
 11 15  1  0
 15 16  1  0
 16 17  1  0
  7 18  1  0
  4 19  1  0
 18 19  1  0
M  END
