piperidine-amides-8891-covalent
     RDKit          3D

 22 22  0  0  0  0  0  0  0  0999 V2000
    7.0680   -3.2840   19.2890 C   0  0  0  0  0  0  0  0  0  0  0  0
    6.3620   -4.0760   20.2990 C   0  0  0  0  0  0  0  0  0  0  0  0
    5.3530   -4.7080   19.9430 O   0  0  0  0  0  0  0  0  0  0  0  0
    6.8390   -4.1470   21.6360 N   0  0  0  0  0  0  0  0  0  0  0  0
    7.7150   -3.1160   22.1420 C   0  0  0  0  0  0  0  0  0  0  0  0
    7.3890   -2.8110   23.5730 C   0  0  0  0  0  0  0  0  0  0  0  0
    6.0720   -3.4930   23.8350 C   0  0  0  0  0  0  0  0  0  0  0  0
    5.6060   -3.2160   25.2330 C   0  0  0  0  0  0  0  0  0  0  0  0
    4.4010   -3.0260   25.3760 O   0  0  0  0  0  0  0  0  0  0  0  0
    6.5510   -3.1720   26.2510 N   0  0  0  0  0  0  0  0  0  0  0  0
    6.2600   -3.4830   27.6170 C   0  0  0  0  0  0  0  0  0  0  0  0
    5.3050   -4.4810   27.8610 C   0  0  2  0  0  0  0  0  0  0  0  0
    5.1210   -4.7550   29.2020 C   0  0  0  0  0  0  0  0  0  0  0  0
    4.3710   -5.8380   29.6460 C   0  0  0  0  0  0  0  0  0  0  0  0
    3.1790   -5.1030   30.1610 C   0  0  0  0  0  0  0  0  0  0  0  0
    5.0340   -6.7210   30.4710 C   0  0  0  0  0  0  0  0  0  0  0  0
    5.4980   -5.6030   27.1090 C   0  0  0  0  0  0  0  0  0  0  0  0
    4.7040   -5.8980   26.1780 O   0  0  0  0  0  0  0  0  0  0  0  0
    6.5490   -6.4180   27.3680 O   0  0  0  0  0  0  0  0  0  0  0  0
    7.0780   -6.4270   28.6680 C   0  0  0  0  0  0  0  0  0  0  0  0
    6.0510   -4.9510   23.6160 C   0  0  0  0  0  0  0  0  0  0  0  0
    6.6590   -5.3370   22.4400 C   0  0  0  0  0  0  0  0  0  0  0  0
  1  2  1  0
  2  3  2  0
  2  4  1  0
  4  5  1  0
  5  6  1  0
  6  7  1  0
  7  8  1  0
  8  9  2  0
  8 10  1  0
 10 11  1  0
 12 11  1  1
 12 13  1  0
 13 14  1  0
 14 15  1  0
 14 16  1  0
 12 17  1  0
 17 18  2  0
 17 19  1  0
 19 20  1  0
  7 21  1  0
  4 22  1  0
 21 22  1  0
M  END
