piperidine-amides-4670-covalent
     RDKit          3D

 24 25  0  0  0  0  0  0  0  0999 V2000
    7.1320   -3.3020   19.2060 C   0  0  0  0  0  0  0  0  0  0  0  0
    6.3520   -4.0150   20.2400 C   0  0  0  0  0  0  0  0  0  0  0  0
    5.2730   -4.5130   19.8750 O   0  0  0  0  0  0  0  0  0  0  0  0
    6.8490   -4.1650   21.5430 N   0  0  0  0  0  0  0  0  0  0  0  0
    6.4710   -5.2950   22.3190 C   0  0  0  0  0  0  0  0  0  0  0  0
    6.0330   -4.9610   23.6800 C   0  0  0  0  0  0  0  0  0  0  0  0
    6.5970   -3.7180   24.2780 C   0  0  0  0  0  0  0  0  0  0  0  0
    5.7750   -3.2660   25.4340 C   0  0  0  0  0  0  0  0  0  0  0  0
    4.5640   -3.0600   25.2360 O   0  0  0  0  0  0  0  0  0  0  0  0
    6.3200   -3.0680   26.7200 N   0  0  0  0  0  0  0  0  0  0  0  0
    6.2010   -4.0690   27.8150 C   0  0  0  0  0  0  0  0  0  0  0  0
    4.8160   -4.2200   28.3430 C   0  0  0  0  0  0  0  0  0  0  0  0
    3.7010   -3.3490   28.0750 C   0  0  0  0  0  0  0  0  0  0  0  0
    2.4720   -3.5800   28.6080 C   0  0  0  0  0  0  0  0  0  0  0  0
    2.2710   -4.6730   29.4290 C   0  0  0  0  0  0  0  0  0  0  0  0
    0.9790   -4.9460   30.0060 N   0  0  0  0  0  0  0  0  0  0  0  0
   -0.1090   -4.5670   29.4170 O   0  0  0  0  0  0  0  0  0  0  0  0
    0.8040   -5.8730   31.0500 O   0  0  0  0  0  0  0  0  0  0  0  0
    3.2770   -5.5660   29.7480 C   0  0  0  0  0  0  0  0  0  0  0  0
    4.5590   -5.4110   29.2520 C   0  0  0  0  0  0  0  0  0  0  0  0
    5.4730   -6.3780   29.6540 O   0  0  0  0  0  0  0  0  0  0  0  0
    5.1150   -7.6390   29.1760 C   0  0  0  0  0  0  0  0  0  0  0  0
    6.7550   -2.6220   23.2610 C   0  0  0  0  0  0  0  0  0  0  0  0
    7.6410   -3.1530   22.2100 C   0  0  0  0  0  0  0  0  0  0  0  0
  1  2  1  0
  2  3  2  0
  2  4  1  0
  4  5  1  0
  5  6  1  0
  6  7  1  0
  7  8  1  0
  8  9  2  0
  8 10  1  0
 10 11  1  0
 11 12  1  0
 12 13  2  0
 13 14  1  0
 14 15  2  0
 15 16  1  0
 16 17  2  0
 16 18  1  0
 15 19  1  0
 12 20  1  0
 19 20  2  0
 20 21  1  0
 21 22  1  0
  7 23  1  0
  4 24  1  0
 23 24  1  0
M  CHG  2  16   1  18  -1
M  END
