piperidine-amides-8711-covalent
     RDKit          3D

 23 24  0  0  0  0  0  0  0  0999 V2000
    7.1020   -3.2690   19.1990 C   0  0  0  0  0  0  0  0  0  0  0  0
    6.3630   -4.0300   20.2090 C   0  0  0  0  0  0  0  0  0  0  0  0
    5.2850   -4.5500   19.8780 O   0  0  0  0  0  0  0  0  0  0  0  0
    6.8900   -4.2100   21.5110 N   0  0  0  0  0  0  0  0  0  0  0  0
    7.7440   -3.1980   22.0800 C   0  0  0  0  0  0  0  0  0  0  0  0
    7.0990   -2.6230   23.2910 C   0  0  0  0  0  0  0  0  0  0  0  0
    6.6970   -3.8070   24.1280 C   0  0  0  0  0  0  0  0  0  0  0  0
    5.9030   -3.2980   25.2800 C   0  0  0  0  0  0  0  0  0  0  0  0
    4.6770   -3.2770   25.1650 O   0  0  0  0  0  0  0  0  0  0  0  0
    6.6420   -2.8750   26.3720 N   0  0  0  0  0  0  0  0  0  0  0  0
    6.1030   -2.6920   27.6680 C   0  0  0  0  0  0  0  0  0  0  0  0
    6.0640   -3.8020   28.5250 C   0  0  1  0  0  0  0  0  0  0  0  0
    5.5830   -3.5670   29.6520 O   0  0  0  0  0  0  0  0  0  0  0  0
    5.3040   -4.8910   28.1690 C   0  0  0  0  0  0  0  0  0  0  0  0
    5.7640   -6.1430   28.5700 C   0  0  0  0  0  0  0  0  0  0  0  0
    6.9100   -6.3430   29.2860 F   0  0  0  0  0  0  0  0  0  0  0  0
    4.9230   -7.3360   28.1830 C   0  0  0  0  0  0  0  0  0  0  0  0
    3.6090   -7.2190   27.3770 C   0  0  0  0  0  0  0  0  0  0  0  0
    3.2270   -5.8590   27.0140 C   0  0  0  0  0  0  0  0  0  0  0  0
    4.1310   -4.7620   27.4530 C   0  0  0  0  0  0  0  0  0  0  0  0
    3.6220   -3.5540   27.0380 F   0  0  0  0  0  0  0  0  0  0  0  0
    5.9220   -4.8660   23.4640 C   0  0  0  0  0  0  0  0  0  0  0  0
    6.5350   -5.3460   22.3310 C   0  0  0  0  0  0  0  0  0  0  0  0
  1  2  1  0
  2  3  2  0
  2  4  1  0
  4  5  1  0
  5  6  1  0
  6  7  1  0
  7  8  1  0
  8  9  2  0
  8 10  1  0
 10 11  1  0
 11 12  1  0
 12 13  1  1
 12 14  1  0
 14 15  2  0
 15 16  1  0
 15 17  1  0
 17 18  2  0
 18 19  1  0
 14 20  1  0
 19 20  2  0
 20 21  1  0
  7 22  1  0
  4 23  1  0
 22 23  1  0
M  END
