piperidine-amides-6723-covalent
     RDKit          3D

 23 23  0  0  0  0  0  0  0  0999 V2000
    7.1460   -3.2480   19.1660 C   0  0  0  0  0  0  0  0  0  0  0  0
    6.3660   -3.9890   20.1660 C   0  0  0  0  0  0  0  0  0  0  0  0
    5.2700   -4.5060   19.8630 O   0  0  0  0  0  0  0  0  0  0  0  0
    6.8710   -4.1720   21.4520 N   0  0  0  0  0  0  0  0  0  0  0  0
    7.7190   -3.1560   22.0450 C   0  0  0  0  0  0  0  0  0  0  0  0
    6.9760   -2.6310   23.2650 C   0  0  0  0  0  0  0  0  0  0  0  0
    6.7680   -3.8340   24.1510 C   0  0  0  0  0  0  0  0  0  0  0  0
    6.0740   -3.3900   25.3580 C   0  0  0  0  0  0  0  0  0  0  0  0
    5.0080   -2.7400   25.2460 O   0  0  0  0  0  0  0  0  0  0  0  0
    6.6430   -3.7320   26.6000 N   0  0  0  0  0  0  0  0  0  0  0  0
    6.2750   -4.9970   27.1600 C   0  0  1  0  0  0  0  0  0  0  0  0
    7.5290   -5.7680   27.4690 C   0  0  0  0  0  0  0  0  0  0  0  0
    8.6090   -5.0740   27.8130 C   0  0  0  0  0  0  0  0  0  0  0  0
    8.3210   -3.8950   28.4240 F   0  0  0  0  0  0  0  0  0  0  0  0
    5.3450   -4.8730   28.2720 C   0  0  0  0  0  0  0  0  0  0  0  0
    4.3640   -3.9010   28.1460 O   0  0  0  0  0  0  0  0  0  0  0  0
    5.3230   -5.6060   29.4190 O   0  0  0  0  0  0  0  0  0  0  0  0
    4.8580   -6.9000   29.3590 C   0  0  0  0  0  0  0  0  0  0  0  0
    4.5320   -7.1040   28.0330 C   0  0  0  0  0  0  0  0  0  0  0  0
    3.6660   -7.4300   30.1700 C   0  0  0  0  0  0  0  0  0  0  0  0
    6.0420   -7.6930   29.7510 C   0  0  0  0  0  0  0  0  0  0  0  0
    5.9820   -4.9230   23.5370 C   0  0  0  0  0  0  0  0  0  0  0  0
    6.4670   -5.2950   22.2170 C   0  0  0  0  0  0  0  0  0  0  0  0
  1  2  1  0
  2  3  2  0
  2  4  1  0
  4  5  1  0
  5  6  1  0
  6  7  1  0
  7  8  1  0
  8  9  2  0
  8 10  1  0
 10 11  1  0
 11 12  1  1
 12 13  1  0
 13 14  1  0
 11 15  1  0
 15 16  2  0
 15 17  1  0
 18 17  1  0
 18 19  1  0
 18 20  1  0
 18 21  1  0
  7 22  1  0
  4 23  1  0
 22 23  1  0
M  END
