piperidine-amides-33508-covalent
     RDKit          3D

 29 29  0  0  0  0  0  0  0  0999 V2000
    7.1210   -3.2660   19.2470 C   0  0  0  0  0  0  0  0  0  0  0  0
    6.3880   -4.0230   20.2780 C   0  0  0  0  0  0  0  0  0  0  0  0
    5.3290   -4.5910   19.9090 O   0  0  0  0  0  0  0  0  0  0  0  0
    6.8840   -4.1450   21.6070 N   0  0  0  0  0  0  0  0  0  0  0  0
    6.6270   -5.3450   22.3190 C   0  0  0  0  0  0  0  0  0  0  0  0
    6.2760   -5.0960   23.7060 C   0  0  0  0  0  0  0  0  0  0  0  0
    6.1000   -3.6630   23.9980 C   0  0  0  0  0  0  0  0  0  0  0  0
    5.5410   -3.3860   25.3730 C   0  0  0  0  0  0  0  0  0  0  0  0
    4.3010   -3.3520   25.4780 O   0  0  0  0  0  0  0  0  0  0  0  0
    6.2980   -3.1300   26.5440 N   0  0  0  0  0  0  0  0  0  0  0  0
    6.6420   -1.8060   26.9180 C   0  0  0  0  0  0  0  0  0  0  0  0
    6.7720   -1.4510   28.3310 C   0  0  0  0  0  0  0  0  0  0  0  0
    5.3610   -1.1140   28.8430 C   0  0  0  0  0  0  0  0  0  0  0  0
    5.3240   -0.4720   30.0660 C   0  0  0  0  0  0  0  0  0  0  0  0
    4.0440    0.2490   29.6250 C   0  0  0  0  0  0  0  0  0  0  0  0
    3.5630    0.1820   31.0380 C   0  0  0  0  0  0  0  0  0  0  0  0
    2.3420    0.9820   30.5520 C   0  0  0  0  0  0  0  0  0  0  0  0
    1.4260    0.4200   29.4850 C   0  0  0  0  0  0  0  0  0  0  0  0
    0.2390    1.3490   29.3000 C   0  0  0  0  0  0  0  0  0  0  0  0
   -0.9570    1.1410   30.2420 C   0  0  0  0  0  0  0  0  0  0  0  0
    6.1520   -4.0820   27.6500 C   0  0  0  0  0  0  0  0  0  0  0  0
    5.1650   -5.0440   27.3980 C   0  0  0  0  0  0  0  0  0  0  0  0
    5.4020   -6.1380   26.5910 C   0  0  0  0  0  0  0  0  0  0  0  0
    4.2050   -6.9640   26.1140 C   0  0  0  0  0  0  0  0  0  0  0  0
    3.1480   -6.9450   27.0120 O   0  0  0  0  0  0  0  0  0  0  0  0
    4.1170   -7.6740   24.9080 O   0  0  0  0  0  0  0  0  0  0  0  0
    3.7830   -7.0490   23.6940 C   0  0  0  0  0  0  0  0  0  0  0  0
    7.4020   -2.9690   23.6810 C   0  0  0  0  0  0  0  0  0  0  0  0
    7.7000   -3.0850   22.1860 C   0  0  0  0  0  0  0  0  0  0  0  0
  1  2  1  0
  2  3  2  0
  2  4  1  0
  4  5  1  0
  5  6  1  0
  6  7  1  0
  7  8  1  0
  8  9  2  0
  8 10  1  0
 10 11  1  0
 11 12  1  0
 12 13  1  0
 13 14  1  0
 14 15  1  0
 15 16  1  0
 16 17  1  0
 17 18  1  0
 18 19  1  0
 19 20  1  0
 10 21  1  0
 21 22  1  0
 22 23  1  0
 23 24  1  0
 24 25  2  0
 24 26  1  0
 26 27  1  0
  7 28  1  0
  4 29  1  0
 28 29  1  0
M  END
