piperidine-amides-28039-covalent
     RDKit          3D

 26 28  0  0  0  0  0  0  0  0999 V2000
    7.0820   -3.2780   19.2560 C   0  0  0  0  0  0  0  0  0  0  0  0
    6.3740   -4.0690   20.2890 C   0  0  0  0  0  0  0  0  0  0  0  0
    5.3250   -4.6420   19.9220 O   0  0  0  0  0  0  0  0  0  0  0  0
    6.8900   -4.1990   21.5900 N   0  0  0  0  0  0  0  0  0  0  0  0
    6.6180   -5.3820   22.3350 C   0  0  0  0  0  0  0  0  0  0  0  0
    6.0220   -5.1000   23.6330 C   0  0  0  0  0  0  0  0  0  0  0  0
    6.1120   -3.6780   24.0160 C   0  0  0  0  0  0  0  0  0  0  0  0
    5.6720   -3.4930   25.4320 C   0  0  0  0  0  0  0  0  0  0  0  0
    4.5350   -3.9080   25.7090 O   0  0  0  0  0  0  0  0  0  0  0  0
    6.4340   -2.8980   26.4640 N   0  0  0  0  0  0  0  0  0  0  0  0
    6.4130   -3.4980   27.8270 C   0  0  0  0  0  0  0  0  0  0  0  0
    6.6690   -1.5020   26.3750 C   0  0  0  0  0  0  0  0  0  0  0  0
    5.6310   -0.6120   25.8350 C   0  0  1  0  0  0  0  0  0  0  0  0
    4.3000   -1.1230   25.6210 C   0  0  0  0  0  0  0  0  0  0  0  0
    3.4620   -0.0570   26.0320 N   0  0  0  0  0  0  0  0  0  0  0  0
    2.3210    0.2950   25.2040 C   0  0  0  0  0  0  0  0  0  0  0  0
    1.1180   -0.2530   25.5350 C   0  0  0  0  0  0  0  0  0  0  0  0
   -0.0150    0.0290   24.8080 C   0  0  0  0  0  0  0  0  0  0  0  0
    0.0060    0.8700   23.7210 C   0  0  0  0  0  0  0  0  0  0  0  0
    1.2210    1.4470   23.3520 C   0  0  0  0  0  0  0  0  0  0  0  0
    2.4230    1.1370   24.1370 C   0  0  0  0  0  0  0  0  0  0  0  0
    4.3120    0.8740   26.5630 C   0  0  0  0  0  0  0  0  0  0  0  0
    3.9580    2.0740   27.1510 O   0  0  0  0  0  0  0  0  0  0  0  0
    5.5140    0.6010   26.5120 O   0  0  0  0  0  0  0  0  0  0  0  0
    7.4960   -3.1330   23.6290 C   0  0  0  0  0  0  0  0  0  0  0  0
    7.6840   -3.1440   22.2200 C   0  0  0  0  0  0  0  0  0  0  0  0
  1  2  1  0
  2  3  2  0
  2  4  1  0
  4  5  1  0
  5  6  1  0
  6  7  1  0
  7  8  1  0
  8  9  2  0
  8 10  1  0
 10 11  1  0
 10 12  1  0
 13 12  1  1
 13 14  1  0
 14 15  1  0
 15 16  1  0
 16 17  2  0
 17 18  1  0
 18 19  2  0
 19 20  1  0
 16 21  1  0
 20 21  2  0
 15 22  1  0
 22 23  2  0
 13 24  1  0
 22 24  1  0
  7 25  1  0
  4 26  1  0
 25 26  1  0
M  END
