piperidine-amides-28856-covalent
     RDKit          3D

 25 27  0  0  0  0  0  0  0  0999 V2000
    7.0650   -3.3750   19.3530 C   0  0  0  0  0  0  0  0  0  0  0  0
    6.3940   -4.2070   20.3470 C   0  0  0  0  0  0  0  0  0  0  0  0
    5.3790   -4.8340   19.9840 O   0  0  0  0  0  0  0  0  0  0  0  0
    6.9310   -4.3240   21.6580 N   0  0  0  0  0  0  0  0  0  0  0  0
    6.5690   -5.4600   22.4600 C   0  0  0  0  0  0  0  0  0  0  0  0
    6.5060   -5.0520   23.9130 C   0  0  0  0  0  0  0  0  0  0  0  0
    5.9380   -3.6500   23.9540 C   0  0  0  0  0  0  0  0  0  0  0  0
    5.5330   -3.2040   25.3320 C   0  0  0  0  0  0  0  0  0  0  0  0
    4.3600   -2.8590   25.4370 O   0  0  0  0  0  0  0  0  0  0  0  0
    6.4490   -3.1960   26.3830 N   0  0  0  0  0  0  0  0  0  0  0  0
    6.6800   -4.3980   27.1330 C   0  0  0  0  0  0  0  0  0  0  0  0
    5.6320   -5.3290   27.1730 C   0  0  0  0  0  0  0  0  0  0  0  0
    5.5950   -6.2740   27.9680 C   0  0  0  0  0  0  0  0  0  0  0  0
    4.5950   -5.3510   28.3310 C   0  0  0  0  0  0  0  0  0  0  0  0
    6.4770   -1.8430   27.1640 C   0  0  0  0  0  0  0  0  0  0  0  0
    5.9140   -0.6630   26.3540 C   0  0  0  0  0  0  0  0  0  0  0  0
    5.8960    0.6630   27.0400 C   0  0  0  0  0  0  0  0  0  0  0  0
    6.4410    0.6590   28.4530 C   0  0  0  0  0  0  0  0  0  0  0  0
    6.4610    1.7350   29.1010 O   0  0  0  0  0  0  0  0  0  0  0  0
    5.7700    2.9030   28.8480 C   0  0  0  0  0  0  0  0  0  0  0  0
    6.9220   -0.4820   29.0670 C   0  0  0  0  0  0  0  0  0  0  0  0
    7.5010   -0.2550   30.7000 Cl  0  0  0  0  0  0  0  0  0  0  0  0
    6.9400   -1.7000   28.4390 C   0  0  0  0  0  0  0  0  0  0  0  0
    6.8440   -2.6420   23.3470 C   0  0  0  0  0  0  0  0  0  0  0  0
    7.6770   -3.2510   22.2660 C   0  0  0  0  0  0  0  0  0  0  0  0
  1  2  1  0
  2  3  2  0
  2  4  1  0
  4  5  1  0
  5  6  1  0
  6  7  1  0
  7  8  1  0
  8  9  2  0
  8 10  1  0
 10 11  1  0
 11 12  1  0
 12 13  1  0
 12 14  1  0
 13 14  1  0
 10 15  1  0
 15 16  2  0
 16 17  1  0
 17 18  2  0
 18 19  1  0
 19 20  1  0
 18 21  1  0
 21 22  1  0
 15 23  1  0
 21 23  2  0
  7 24  1  0
  4 25  1  0
 24 25  1  0
M  END
