piperidine-amides-2634-covalent
     RDKit          3D

 25 26  0  0  0  0  0  0  0  0999 V2000
    7.0720   -3.2860   19.2430 C   0  0  0  0  0  0  0  0  0  0  0  0
    6.3390   -4.0940   20.2540 C   0  0  0  0  0  0  0  0  0  0  0  0
    5.2780   -4.5940   19.8950 O   0  0  0  0  0  0  0  0  0  0  0  0
    6.8780   -4.3100   21.5260 N   0  0  0  0  0  0  0  0  0  0  0  0
    6.6220   -5.5110   22.2800 C   0  0  0  0  0  0  0  0  0  0  0  0
    6.0720   -5.1540   23.6370 C   0  0  0  0  0  0  0  0  0  0  0  0
    5.7310   -3.6640   23.6790 C   0  0  0  0  0  0  0  0  0  0  0  0
    5.1480   -3.3700   25.0110 C   0  0  0  0  0  0  0  0  0  0  0  0
    3.9470   -3.5890   25.1910 O   0  0  0  0  0  0  0  0  0  0  0  0
    5.8940   -2.8380   26.0700 N   0  0  0  0  0  0  0  0  0  0  0  0
    6.4580   -3.7110   27.0680 C   0  0  1  0  0  0  0  0  0  0  0  0
    5.5820   -4.9220   27.3220 C   0  0  0  0  0  0  0  0  0  0  0  0
    4.8850   -5.0530   28.4990 C   0  0  0  0  0  0  0  0  0  0  0  0
    5.6320   -5.8450   29.3520 F   0  0  0  0  0  0  0  0  0  0  0  0
    4.4600   -3.8540   29.0650 F   0  0  0  0  0  0  0  0  0  0  0  0
    3.6500   -5.7860   28.3530 F   0  0  0  0  0  0  0  0  0  0  0  0
    7.8270   -4.0310   26.6040 C   0  0  0  0  0  0  0  0  0  0  0  0
    8.2500   -5.1680   27.1240 C   0  0  0  0  0  0  0  0  0  0  0  0
    9.5950   -5.7150   26.8430 C   0  0  0  0  0  0  0  0  0  0  0  0
   10.4310   -4.8600   25.9280 C   0  0  0  0  0  0  0  0  0  0  0  0
    9.9140   -3.5690   25.3420 C   0  0  0  0  0  0  0  0  0  0  0  0
    8.5490   -3.2390   25.7600 C   0  0  0  0  0  0  0  0  0  0  0  0
    7.9140   -1.9890   25.2670 C   0  0  0  0  0  0  0  0  0  0  0  0
    6.8040   -2.7350   23.2490 C   0  0  0  0  0  0  0  0  0  0  0  0
    7.6630   -3.2870   22.1780 C   0  0  0  0  0  0  0  0  0  0  0  0
  1  2  1  0
  2  3  2  0
  2  4  1  0
  4  5  1  0
  5  6  1  0
  6  7  1  0
  7  8  1  0
  8  9  2  0
  8 10  1  0
 10 11  1  0
 11 12  1  6
 12 13  1  0
 13 14  1  0
 13 15  1  0
 13 16  1  0
 11 17  1  0
 17 18  2  0
 18 19  1  0
 19 20  2  0
 20 21  1  0
 17 22  1  0
 21 22  2  0
 22 23  1  0
  7 24  1  0
  4 25  1  0
 24 25  1  0
M  END
