piperidine-amides-21629-covalent
     RDKit          3D

 23 25  0  0  0  0  0  0  0  0999 V2000
    7.0500   -3.3750   19.3910 C   0  0  0  0  0  0  0  0  0  0  0  0
    6.4300   -4.2640   20.3780 C   0  0  0  0  0  0  0  0  0  0  0  0
    5.3930   -4.8680   19.9920 O   0  0  0  0  0  0  0  0  0  0  0  0
    7.0020   -4.4620   21.6470 N   0  0  0  0  0  0  0  0  0  0  0  0
    6.6710   -5.5910   22.4670 C   0  0  0  0  0  0  0  0  0  0  0  0
    5.8750   -5.0970   23.6500 C   0  0  0  0  0  0  0  0  0  0  0  0
    6.3820   -3.8110   24.2800 C   0  0  0  0  0  0  0  0  0  0  0  0
    5.3250   -3.2780   25.1850 C   0  0  0  0  0  0  0  0  0  0  0  0
    4.3870   -2.6690   24.6440 O   0  0  0  0  0  0  0  0  0  0  0  0
    5.2640   -3.4050   26.5910 N   0  0  0  0  0  0  0  0  0  0  0  0
    4.0670   -3.8710   27.2320 C   0  0  0  0  0  0  0  0  0  0  0  0
    4.4220   -4.6050   28.5120 C   0  0  0  0  0  0  0  0  0  0  0  0
    5.6180   -4.4040   29.0780 C   0  0  0  0  0  0  0  0  0  0  0  0
    6.6370   -4.2050   28.2600 C   0  0  0  0  0  0  0  0  0  0  0  0
    6.4260   -3.1740   27.3430 C   0  0  2  0  0  0  0  0  0  0  0  0
    6.4850   -1.8910   27.8640 C   0  0  0  0  0  0  0  0  0  0  0  0
    6.4520   -0.6530   27.2630 C   0  0  0  0  0  0  0  0  0  0  0  0
    6.5510    0.2880   28.2270 N   0  0  0  0  0  0  0  0  0  0  0  0
    6.6500   -0.2280   29.4540 N   0  0  0  0  0  0  0  0  0  0  0  0
    6.7700    0.5420   30.6330 C   0  0  0  0  0  0  0  0  0  0  0  0
    6.6150   -1.5600   29.3070 C   0  0  0  0  0  0  0  0  0  0  0  0
    6.7590   -2.7350   23.2410 C   0  0  0  0  0  0  0  0  0  0  0  0
    7.7480   -3.4020   22.3110 C   0  0  0  0  0  0  0  0  0  0  0  0
  1  2  1  0
  2  3  2  0
  2  4  1  0
  4  5  1  0
  5  6  1  0
  6  7  1  0
  7  8  1  0
  8  9  2  0
  8 10  1  0
 10 11  1  0
 11 12  1  0
 12 13  1  0
 13 14  1  0
 10 15  1  0
 14 15  1  0
 15 16  1  1
 16 17  1  0
 17 18  2  0
 18 19  1  0
 19 20  1  0
 16 21  2  0
 19 21  1  0
  7 22  1  0
  4 23  1  0
 22 23  1  0
M  END
