piperidine-amides-13204-covalent
     RDKit          3D

 19 19  0  0  0  0  0  0  0  0999 V2000
    7.1260   -3.2920   19.1790 C   0  0  0  0  0  0  0  0  0  0  0  0
    6.3470   -4.0020   20.2130 C   0  0  0  0  0  0  0  0  0  0  0  0
    5.2560   -4.4820   19.8580 O   0  0  0  0  0  0  0  0  0  0  0  0
    6.8580   -4.1660   21.5070 N   0  0  0  0  0  0  0  0  0  0  0  0
    6.5100   -5.3130   22.2600 C   0  0  0  0  0  0  0  0  0  0  0  0
    6.0710   -5.0070   23.6200 C   0  0  0  0  0  0  0  0  0  0  0  0
    6.6340   -3.7750   24.2380 C   0  0  0  0  0  0  0  0  0  0  0  0
    5.6220   -3.1620   25.1230 C   0  0  0  0  0  0  0  0  0  0  0  0
    4.5860   -2.6920   24.6200 O   0  0  0  0  0  0  0  0  0  0  0  0
    5.8080   -3.1130   26.5040 N   0  0  0  0  0  0  0  0  0  0  0  0
    5.8720   -4.3440   27.3020 C   0  0  1  0  0  0  0  0  0  0  0  0
    5.3380   -5.5460   26.6190 C   0  0  0  0  0  0  0  0  0  0  0  0
    7.2250   -4.6390   27.6350 C   0  0  2  0  0  0  0  0  0  0  0  0
    7.3980   -5.6350   28.5600 C   0  0  0  0  0  0  0  0  0  0  0  0
    8.1240   -3.5140   28.1070 C   0  0  0  0  0  0  0  0  0  0  0  0
    9.1440   -4.1800   28.4580 O   0  0  0  0  0  0  0  0  0  0  0  0
    9.2830   -5.5280   28.1770 C   0  0  0  0  0  0  0  0  0  0  0  0
    7.2180   -2.7250   23.3310 C   0  0  0  0  0  0  0  0  0  0  0  0
    7.7050   -3.2140   22.1610 C   0  0  0  0  0  0  0  0  0  0  0  0
  1  2  1  0
  2  3  2  0
  2  4  1  0
  4  5  1  0
  5  6  1  0
  6  7  1  0
  7  8  1  0
  8  9  2  0
  8 10  1  0
 10 11  1  0
 11 12  1  6
 11 13  1  0
 13 14  1  1
 13 15  1  0
 15 16  1  0
 16 17  1  0
  7 18  1  0
  4 19  1  0
 18 19  1  0
M  END
