piperidine-amides-671-covalent
     RDKit          3D

 18 19  0  0  0  0  0  0  0  0999 V2000
    7.0660   -3.3950   19.3000 C   0  0  0  0  0  0  0  0  0  0  0  0
    6.4090   -4.1750   20.3220 C   0  0  0  0  0  0  0  0  0  0  0  0
    5.3580   -4.8000   19.9780 O   0  0  0  0  0  0  0  0  0  0  0  0
    6.9060   -4.3260   21.6380 N   0  0  0  0  0  0  0  0  0  0  0  0
    7.7620   -3.2610   22.2130 C   0  0  0  0  0  0  0  0  0  0  0  0
    6.7770   -2.6910   23.2940 C   0  0  0  0  0  0  0  0  0  0  0  0
    6.3890   -3.8910   24.1240 C   0  0  0  0  0  0  0  0  0  0  0  0
    5.5090   -3.4720   25.3780 C   0  0  0  0  0  0  0  0  0  0  0  0
    4.4370   -4.0600   25.3660 O   0  0  0  0  0  0  0  0  0  0  0  0
    6.1220   -2.6190   26.0800 N   0  0  0  0  0  0  0  0  0  0  0  0
    6.7220   -1.6710   26.8320 C   0  0  2  0  0  0  0  0  0  0  0  0
    6.8480   -1.2370   27.9840 C   0  0  0  0  0  0  0  0  0  0  0  0
    5.7500   -0.5400   27.3100 C   0  0  1  0  0  0  0  0  0  0  0  0
    5.8660    0.6290   26.4090 C   0  0  2  0  0  0  0  0  0  0  0  0
    6.3370    1.5160   27.5750 C   0  0  0  0  0  0  0  0  0  0  0  0
    4.6000    1.0900   26.0500 O   0  0  0  0  0  0  0  0  0  0  0  0
    5.8020   -5.1000   23.4180 C   0  0  0  0  0  0  0  0  0  0  0  0
    6.6580   -5.5210   22.3960 C   0  0  0  0  0  0  0  0  0  0  0  0
  1  2  1  0
  2  3  2  0
  2  4  1  0
  4  5  1  0
  5  6  1  0
  6  7  1  0
  7  8  1  0
  8  9  2  0
  8 10  1  0
 11 10  1  1
 11 12  1  0
 11 13  1  0
 13 12  1  1
 13 14  1  0
 14 15  1  1
 14 16  1  0
  7 17  1  0
  4 18  1  0
 17 18  1  0
M  END
