piperidine-amides-29074-covalent
     RDKit          3D

 26 28  0  0  0  0  0  0  0  0999 V2000
    7.1020   -3.3390   19.2830 C   0  0  0  0  0  0  0  0  0  0  0  0
    6.4300   -4.1750   20.2680 C   0  0  0  0  0  0  0  0  0  0  0  0
    5.3690   -4.7380   19.9510 O   0  0  0  0  0  0  0  0  0  0  0  0
    7.0350   -4.3810   21.5310 N   0  0  0  0  0  0  0  0  0  0  0  0
    6.6080   -5.5100   22.2940 C   0  0  0  0  0  0  0  0  0  0  0  0
    5.7130   -5.0130   23.3850 C   0  0  0  0  0  0  0  0  0  0  0  0
    6.5010   -3.9660   24.1410 C   0  0  0  0  0  0  0  0  0  0  0  0
    5.6720   -3.4030   25.2380 C   0  0  0  0  0  0  0  0  0  0  0  0
    4.8530   -2.5600   24.9080 O   0  0  0  0  0  0  0  0  0  0  0  0
    5.8590   -3.8650   26.5220 N   0  0  0  0  0  0  0  0  0  0  0  0
    5.0230   -4.8520   27.0460 C   0  0  0  0  0  0  0  0  0  0  0  0
    5.3210   -5.2460   28.3500 C   0  0  0  0  0  0  0  0  0  0  0  0
    5.6160   -4.2980   29.2880 C   0  0  0  0  0  0  0  0  0  0  0  0
    4.6820   -3.3500   29.7360 C   0  0  2  0  0  0  0  0  0  0  0  0
    3.9250   -3.9640   30.7470 O   0  0  0  0  0  0  0  0  0  0  0  0
    2.6160   -3.8380   30.3700 C   0  0  0  0  0  0  0  0  0  0  0  0
    2.3990   -3.0450   29.0820 C   0  0  0  0  0  0  0  0  0  0  0  0
    3.8180   -2.7150   28.8160 C   0  0  1  0  0  0  0  0  0  0  0  0
    3.8760   -1.2080   28.7440 C   0  0  0  0  0  0  0  0  0  0  0  0
    4.5510   -0.5590   29.5790 O   0  0  0  0  0  0  0  0  0  0  0  0
    3.1930   -0.4990   27.7740 O   0  0  0  0  0  0  0  0  0  0  0  0
    2.8390   -1.1550   26.5690 C   0  0  0  0  0  0  0  0  0  0  0  0
    6.7990   -3.8690   28.4680 C   0  0  0  0  0  0  0  0  0  0  0  0
    6.3760   -3.0000   27.4930 C   0  0  0  0  0  0  0  0  0  0  0  0
    6.9590   -2.8260   23.3120 C   0  0  0  0  0  0  0  0  0  0  0  0
    7.7760   -3.3300   22.1760 C   0  0  0  0  0  0  0  0  0  0  0  0
  1  2  1  0
  2  3  2  0
  2  4  1  0
  4  5  1  0
  5  6  1  0
  6  7  1  0
  7  8  1  0
  8  9  2  0
  8 10  1  0
 10 11  1  0
 11 12  1  0
 12 13  1  0
 14 13  1  6
 14 15  1  0
 15 16  1  0
 16 17  1  0
 14 18  1  0
 17 18  1  0
 18 19  1  1
 19 20  2  0
 19 21  1  0
 21 22  1  0
 13 23  1  0
 10 24  1  0
 23 24  1  0
  7 25  1  0
  4 26  1  0
 25 26  1  0
M  END
