piperidine-amides-10190-covalent
     RDKit          3D

 25 26  0  0  0  0  0  0  0  0999 V2000
    7.0890   -3.2830   19.2590 C   0  0  0  0  0  0  0  0  0  0  0  0
    6.3610   -4.0540   20.2720 C   0  0  0  0  0  0  0  0  0  0  0  0
    5.2830   -4.5850   19.8970 O   0  0  0  0  0  0  0  0  0  0  0  0
    6.8760   -4.2270   21.5590 N   0  0  0  0  0  0  0  0  0  0  0  0
    6.5660   -5.3860   22.3540 C   0  0  0  0  0  0  0  0  0  0  0  0
    5.8460   -4.9170   23.5900 C   0  0  0  0  0  0  0  0  0  0  0  0
    6.5680   -3.7860   24.2890 C   0  0  0  0  0  0  0  0  0  0  0  0
    5.8040   -3.3310   25.4850 C   0  0  0  0  0  0  0  0  0  0  0  0
    4.5580   -3.2520   25.3720 O   0  0  0  0  0  0  0  0  0  0  0  0
    6.3970   -2.9650   26.7210 N   0  0  0  0  0  0  0  0  0  0  0  0
    6.2860   -3.7450   27.9500 C   0  0  2  0  0  0  0  0  0  0  0  0
    5.9190   -5.2090   27.7290 C   0  0  0  0  0  0  0  0  0  0  0  0
    6.5540   -6.1200   28.3130 O   0  0  0  0  0  0  0  0  0  0  0  0
    4.8760   -5.6040   26.8940 O   0  0  0  0  0  0  0  0  0  0  0  0
    4.3890   -6.9190   26.9850 C   0  0  0  0  0  0  0  0  0  0  0  0
    5.3590   -3.0540   28.9400 C   0  0  0  0  0  0  0  0  0  0  0  0
    5.8680   -1.8670   29.4590 C   0  0  0  0  0  0  0  0  0  0  0  0
    5.1450   -1.1270   30.3780 C   0  0  0  0  0  0  0  0  0  0  0  0
    5.8540    0.0230   30.7540 F   0  0  0  0  0  0  0  0  0  0  0  0
    3.9090   -1.5260   30.8130 C   0  0  0  0  0  0  0  0  0  0  0  0
    3.2380   -2.7870   30.3340 C   0  0  0  0  0  0  0  0  0  0  0  0
    4.1150   -3.5340   29.3220 C   0  0  0  0  0  0  0  0  0  0  0  0
    3.5330   -4.7130   28.8530 F   0  0  0  0  0  0  0  0  0  0  0  0
    6.8190   -2.6190   23.3220 C   0  0  0  0  0  0  0  0  0  0  0  0
    7.6650   -3.1750   22.1940 C   0  0  0  0  0  0  0  0  0  0  0  0
  1  2  1  0
  2  3  2  0
  2  4  1  0
  4  5  1  0
  5  6  1  0
  6  7  1  0
  7  8  1  0
  8  9  2  0
  8 10  1  0
 11 10  1  6
 11 12  1  0
 12 13  2  0
 12 14  1  0
 14 15  1  0
 11 16  1  0
 16 17  2  0
 17 18  1  0
 18 19  1  0
 18 20  2  0
 20 21  1  0
 16 22  1  0
 21 22  2  0
 22 23  1  0
  7 24  1  0
  4 25  1  0
 24 25  1  0
M  END
