piperidine-amides-11242-covalent
     RDKit          3D

 18 19  0  0  0  0  0  0  0  0999 V2000
    7.0890   -3.3330   19.2870 C   0  0  0  0  0  0  0  0  0  0  0  0
    6.3800   -4.1340   20.2820 C   0  0  0  0  0  0  0  0  0  0  0  0
    5.3490   -4.7440   19.9540 O   0  0  0  0  0  0  0  0  0  0  0  0
    6.8810   -4.2650   21.5790 N   0  0  0  0  0  0  0  0  0  0  0  0
    7.7000   -3.2480   22.1970 C   0  0  0  0  0  0  0  0  0  0  0  0
    6.9070   -2.7730   23.3750 C   0  0  0  0  0  0  0  0  0  0  0  0
    6.5080   -3.9210   24.2450 C   0  0  0  0  0  0  0  0  0  0  0  0
    5.7540   -3.4860   25.4510 C   0  0  0  0  0  0  0  0  0  0  0  0
    4.4820   -3.5200   25.4900 O   0  0  0  0  0  0  0  0  0  0  0  0
    6.3920   -2.9930   26.6050 N   0  0  0  0  0  0  0  0  0  0  0  0
    5.7940   -1.8640   27.3420 C   0  0  0  0  0  0  0  0  0  0  0  0
    5.1410   -2.2690   28.6080 C   0  0  0  0  0  0  0  0  0  0  0  0
    3.7370   -2.7000   28.4470 C   0  0  0  0  0  0  0  0  0  0  0  0
    3.3680   -4.0490   29.0070 C   0  0  0  0  0  0  0  0  0  0  0  0
    5.9380   -0.3840   27.1570 C   0  0  0  0  0  0  0  0  0  0  0  0
    6.9320   -0.9570   27.8170 C   0  0  0  0  0  0  0  0  0  0  0  0
    5.7300   -4.9440   23.4410 C   0  0  0  0  0  0  0  0  0  0  0  0
    6.4840   -5.4110   22.3590 C   0  0  0  0  0  0  0  0  0  0  0  0
  1  2  1  0
  2  3  2  0
  2  4  1  0
  4  5  1  0
  5  6  1  0
  6  7  1  0
  7  8  1  0
  8  9  2  0
  8 10  1  0
 11 10  1  0
 11 12  1  0
 12 13  1  0
 13 14  2  3
 11 15  1  0
 11 16  1  0
 15 16  1  0
  7 17  1  0
  4 18  1  0
 17 18  1  0
M  END
