piperidine-amides-18944-covalent
     RDKit          3D

 20 21  0  0  0  0  0  0  0  0999 V2000
    7.0220   -3.4190   19.3290 C   0  0  0  0  0  0  0  0  0  0  0  0
    6.3400   -4.1480   20.3780 C   0  0  0  0  0  0  0  0  0  0  0  0
    5.3900   -4.9050   20.0060 O   0  0  0  0  0  0  0  0  0  0  0  0
    6.7250   -4.0820   21.7460 N   0  0  0  0  0  0  0  0  0  0  0  0
    6.7190   -5.4040   22.4380 C   0  0  0  0  0  0  0  0  0  0  0  0
    6.2430   -5.0780   23.9170 C   0  0  0  0  0  0  0  0  0  0  0  0
    6.3050   -3.5810   24.1050 C   0  0  0  0  0  0  0  0  0  0  0  0
    5.4060   -3.1360   25.3510 C   0  0  0  0  0  0  0  0  0  0  0  0
    4.3530   -2.7310   24.8940 O   0  0  0  0  0  0  0  0  0  0  0  0
    5.9540   -3.3250   26.5030 N   0  0  0  0  0  0  0  0  0  0  0  0
    6.4100   -4.0560   27.5700 C   0  0  0  0  0  0  0  0  0  0  0  0
    5.8190   -2.0930   27.2280 C   0  0  1  0  0  0  0  0  0  0  0  0
    6.8960   -1.6240   27.9910 C   0  0  0  0  0  0  0  0  0  0  0  0
    6.5510   -0.4160   28.7350 C   0  0  0  0  0  0  0  0  0  0  0  0
    5.5370    0.0780   27.6610 C   0  0  0  0  0  0  0  0  0  0  0  0
    5.9840   -0.7080   26.5620 C   0  0  2  0  0  0  0  0  0  0  0  0
    4.8690   -0.5200   25.1590 S   0  0  0  0  0  0  0  0  0  0  0  0
    3.2840   -0.9250   25.9070 C   0  0  0  0  0  0  0  0  0  0  0  0
    7.4860   -2.8710   23.7300 C   0  0  0  0  0  0  0  0  0  0  0  0
    7.6560   -3.1130   22.2030 C   0  0  0  0  0  0  0  0  0  0  0  0
  1  2  1  0
  2  3  2  0
  2  4  1  0
  4  5  1  0
  5  6  1  0
  6  7  1  0
  7  8  1  0
  8  9  2  0
  8 10  1  0
 10 11  1  0
 12 10  1  6
 12 13  1  0
 13 14  1  0
 14 15  1  0
 12 16  1  0
 15 16  1  0
 16 17  1  6
 17 18  1  0
  7 19  1  0
  4 20  1  0
 19 20  1  0
M  END
