piperidine-amides-13969-covalent
     RDKit          3D

 26 28  0  0  0  0  0  0  0  0999 V2000
    7.1140   -3.2660   19.2070 C   0  0  0  0  0  0  0  0  0  0  0  0
    6.3360   -4.0460   20.2110 C   0  0  0  0  0  0  0  0  0  0  0  0
    5.2560   -4.5530   19.8760 O   0  0  0  0  0  0  0  0  0  0  0  0
    6.8650   -4.2410   21.5000 N   0  0  0  0  0  0  0  0  0  0  0  0
    6.4690   -5.3760   22.2900 C   0  0  0  0  0  0  0  0  0  0  0  0
    5.5760   -4.8290   23.4120 C   0  0  0  0  0  0  0  0  0  0  0  0
    6.4020   -3.8330   24.1620 C   0  0  0  0  0  0  0  0  0  0  0  0
    5.7670   -3.3530   25.4060 C   0  0  0  0  0  0  0  0  0  0  0  0
    4.5340   -3.2420   25.4120 O   0  0  0  0  0  0  0  0  0  0  0  0
    6.5960   -3.0390   26.4820 N   0  0  0  0  0  0  0  0  0  0  0  0
    6.2630   -2.7850   27.8340 C   0  0  0  0  0  0  0  0  0  0  0  0
    5.5410   -3.5910   28.6770 C   0  0  0  0  0  0  0  0  0  0  0  0
    4.3430   -3.2110   29.3270 C   0  0  0  0  0  0  0  0  0  0  0  0
    3.6500   -4.0530   30.1780 C   0  0  0  0  0  0  0  0  0  0  0  0
    4.1670   -5.4180   30.4340 C   0  0  0  0  0  0  0  0  0  0  0  0
    3.4430   -6.2560   31.3110 N   0  0  0  0  0  0  0  0  0  0  0  0
    3.3530   -5.9310   32.7110 C   0  0  0  0  0  0  0  0  0  0  0  0
    2.7860   -7.0690   33.5600 C   0  0  0  0  0  0  0  0  0  0  0  0
    2.8520   -8.2880   32.9200 C   0  0  0  0  0  0  0  0  0  0  0  0
    4.2150   -8.4530   32.7880 O   0  0  0  0  0  0  0  0  0  0  0  0
    2.2800   -8.3270   31.5400 C   0  0  0  0  0  0  0  0  0  0  0  0
    3.4760   -7.6090   30.9210 C   0  0  0  0  0  0  0  0  0  0  0  0
    5.3090   -5.9010   29.8660 C   0  0  0  0  0  0  0  0  0  0  0  0
    6.0700   -4.9590   28.9240 C   0  0  0  0  0  0  0  0  0  0  0  0
    6.8800   -2.6840   23.3450 C   0  0  0  0  0  0  0  0  0  0  0  0
    7.6550   -3.2110   22.1460 C   0  0  0  0  0  0  0  0  0  0  0  0
  1  2  1  0
  2  3  2  0
  2  4  1  0
  4  5  1  0
  5  6  1  0
  6  7  1  0
  7  8  1  0
  8  9  2  0
  8 10  1  0
 10 11  1  0
 11 12  1  0
 12 13  2  0
 13 14  1  0
 14 15  2  0
 15 16  1  0
 16 17  1  0
 17 18  1  0
 18 19  1  0
 19 20  1  0
 19 21  1  0
 16 22  1  0
 21 22  1  0
 15 23  1  0
 12 24  1  0
 23 24  2  0
  7 25  1  0
  4 26  1  0
 25 26  1  0
M  END
