piperidine-amides-4297-covalent
     RDKit          3D

 26 28  0  0  0  0  0  0  0  0999 V2000
    7.0750   -3.3400   19.3290 C   0  0  0  0  0  0  0  0  0  0  0  0
    6.4080   -4.1780   20.3380 C   0  0  0  0  0  0  0  0  0  0  0  0
    5.3670   -4.7760   19.9680 O   0  0  0  0  0  0  0  0  0  0  0  0
    6.9480   -4.3500   21.6440 N   0  0  0  0  0  0  0  0  0  0  0  0
    7.6660   -3.2620   22.2320 C   0  0  0  0  0  0  0  0  0  0  0  0
    7.2860   -2.9810   23.6090 C   0  0  0  0  0  0  0  0  0  0  0  0
    6.0630   -3.6840   24.0240 C   0  0  0  0  0  0  0  0  0  0  0  0
    5.6100   -3.2920   25.3990 C   0  0  0  0  0  0  0  0  0  0  0  0
    4.3990   -3.3640   25.6670 O   0  0  0  0  0  0  0  0  0  0  0  0
    6.4900   -2.8280   26.3920 N   0  0  0  0  0  0  0  0  0  0  0  0
    6.4200   -1.6090   27.1000 C   0  0  0  0  0  0  0  0  0  0  0  0
    5.8220   -0.3540   26.6110 C   0  0  0  0  0  0  0  0  0  0  0  0
    5.8370    0.8760   27.5360 C   0  0  0  0  0  0  0  0  0  0  0  0
    6.4180    0.7030   28.7580 C   0  0  0  0  0  0  0  0  0  0  0  0
    6.3730    2.2120   29.7560 S   0  0  0  0  0  0  0  0  0  0  0  0
    4.9320    2.0920   30.8470 C   0  0  0  0  0  0  0  0  0  0  0  0
    3.6110    2.6880   30.4030 C   0  0  0  0  0  0  0  0  0  0  0  0
    2.5460    2.4520   31.5020 C   0  0  0  0  0  0  0  0  0  0  0  0
    2.6300    1.7690   32.8430 C   0  0  0  0  0  0  0  0  0  0  0  0
    3.9800    1.2170   33.1810 C   0  0  0  0  0  0  0  0  0  0  0  0
    5.1070    1.3870   32.1770 C   0  0  0  0  0  0  0  0  0  0  0  0
    6.6960    0.7300   32.5900 Cl  0  0  0  0  0  0  0  0  0  0  0  0
    7.0200   -0.5420   29.2570 C   0  0  0  0  0  0  0  0  0  0  0  0
    7.0270   -1.6780   28.4610 C   0  0  0  0  0  0  0  0  0  0  0  0
    6.1050   -5.1600   23.8030 C   0  0  0  0  0  0  0  0  0  0  0  0
    6.6010   -5.5160   22.4140 C   0  0  0  0  0  0  0  0  0  0  0  0
  1  2  1  0
  2  3  2  0
  2  4  1  0
  4  5  1  0
  5  6  1  0
  6  7  1  0
  7  8  1  0
  8  9  2  0
  8 10  1  0
 10 11  1  0
 11 12  2  0
 12 13  1  0
 13 14  2  0
 14 15  1  0
 15 16  1  0
 16 17  2  0
 17 18  1  0
 18 19  2  0
 19 20  1  0
 16 21  1  0
 20 21  2  0
 21 22  1  0
 14 23  1  0
 11 24  1  0
 23 24  2  0
  7 25  1  0
  4 26  1  0
 25 26  1  0
M  END
