piperidine-amides-28790-covalent
     RDKit          3D

 27 29  0  0  0  0  0  0  0  0999 V2000
    7.0900   -3.2580   19.2250 C   0  0  0  0  0  0  0  0  0  0  0  0
    6.3660   -4.0190   20.2460 C   0  0  0  0  0  0  0  0  0  0  0  0
    5.3140   -4.5920   19.9010 O   0  0  0  0  0  0  0  0  0  0  0  0
    6.8720   -4.1390   21.5680 N   0  0  0  0  0  0  0  0  0  0  0  0
    6.5330   -5.3190   22.3100 C   0  0  0  0  0  0  0  0  0  0  0  0
    5.6760   -4.9450   23.4890 C   0  0  0  0  0  0  0  0  0  0  0  0
    5.9710   -3.4910   23.8210 C   0  0  0  0  0  0  0  0  0  0  0  0
    5.4300   -3.1140   25.1850 C   0  0  0  0  0  0  0  0  0  0  0  0
    4.2040   -3.0680   25.2390 O   0  0  0  0  0  0  0  0  0  0  0  0
    6.2520   -2.8530   26.2880 N   0  0  0  0  0  0  0  0  0  0  0  0
    5.7720   -3.1820   27.5910 C   0  0  0  0  0  0  0  0  0  0  0  0
    5.8750   -4.5200   27.8990 C   0  0  0  0  0  0  0  0  0  0  0  0
    6.9870   -5.0060   27.3680 C   0  0  0  0  0  0  0  0  0  0  0  0
    8.0340   -5.2130   28.2100 C   0  0  0  0  0  0  0  0  0  0  0  0
    9.2860   -5.7280   27.6300 C   0  0  0  0  0  0  0  0  0  0  0  0
    9.4280   -6.0250   26.1380 C   0  0  0  0  0  0  0  0  0  0  0  0
    8.2450   -5.7780   25.3230 C   0  0  0  0  0  0  0  0  0  0  0  0
    7.0670   -5.2670   26.0350 C   0  0  0  0  0  0  0  0  0  0  0  0
    6.9190   -1.5560   26.3190 C   0  0  0  0  0  0  0  0  0  0  0  0
    6.2230   -0.5290   26.9180 C   0  0  0  0  0  0  0  0  0  0  0  0
    6.3780   -0.2310   28.2720 C   0  0  0  0  0  0  0  0  0  0  0  0
    5.6380    0.8860   28.9660 C   0  0  0  0  0  0  0  0  0  0  0  0
    4.6900    1.7240   28.1860 C   0  0  0  0  0  0  0  0  0  0  0  0
    4.5090    1.4190   26.7300 C   0  0  0  0  0  0  0  0  0  0  0  0
    5.3350    0.2490   26.1720 C   0  0  0  0  0  0  0  0  0  0  0  0
    7.3780   -3.0420   23.6010 C   0  0  0  0  0  0  0  0  0  0  0  0
    7.7280   -3.1190   22.1320 C   0  0  0  0  0  0  0  0  0  0  0  0
  1  2  1  0
  2  3  2  0
  2  4  1  0
  4  5  1  0
  5  6  1  0
  6  7  1  0
  7  8  1  0
  8  9  2  0
  8 10  1  0
 10 11  1  0
 11 12  1  0
 12 13  1  0
 13 14  2  0
 14 15  1  0
 15 16  2  0
 16 17  1  0
 13 18  1  0
 17 18  2  0
 10 19  1  0
 19 20  1  0
 20 21  2  0
 21 22  1  0
 22 23  2  0
 23 24  1  0
 20 25  1  0
 24 25  2  0
  7 26  1  0
  4 27  1  0
 26 27  1  0
M  END
