piperidine-amides-8121-covalent
     RDKit          3D

 25 26  0  0  0  0  0  0  0  0999 V2000
    7.0790   -3.3580   19.3800 C   0  0  0  0  0  0  0  0  0  0  0  0
    6.3790   -4.1860   20.3540 C   0  0  0  0  0  0  0  0  0  0  0  0
    5.3540   -4.7790   19.9710 O   0  0  0  0  0  0  0  0  0  0  0  0
    6.8950   -4.3500   21.6700 N   0  0  0  0  0  0  0  0  0  0  0  0
    6.4900   -5.5070   22.4190 C   0  0  0  0  0  0  0  0  0  0  0  0
    6.2220   -5.1590   23.8660 C   0  0  0  0  0  0  0  0  0  0  0  0
    5.9620   -3.6650   23.9560 C   0  0  0  0  0  0  0  0  0  0  0  0
    5.4110   -3.2530   25.2940 C   0  0  0  0  0  0  0  0  0  0  0  0
    4.2070   -3.0250   25.3110 O   0  0  0  0  0  0  0  0  0  0  0  0
    6.2340   -3.1430   26.4090 N   0  0  0  0  0  0  0  0  0  0  0  0
    6.6230   -1.8880   26.9710 C   0  0  2  0  0  0  0  0  0  0  0  0
    6.5780   -1.8060   28.3820 C   0  0  0  0  0  0  0  0  0  0  0  0
    6.8790   -0.6220   29.0190 C   0  0  0  0  0  0  0  0  0  0  0  0
    6.2720    0.5540   28.6270 C   0  0  2  0  0  0  0  0  0  0  0  0
    5.5300    1.0200   29.7170 O   0  0  0  0  0  0  0  0  0  0  0  0
    4.1940    1.2630   29.4810 C   0  0  0  0  0  0  0  0  0  0  0  0
    3.5710    2.6000   29.0120 C   0  0  0  0  0  0  0  0  0  0  0  0
    3.9920    3.7450   29.4930 O   0  0  0  0  0  0  0  0  0  0  0  0
    2.5400    2.5700   28.0620 O   0  0  0  0  0  0  0  0  0  0  0  0
    2.0670    3.7580   27.4560 C   0  0  0  0  0  0  0  0  0  0  0  0
    0.5680    3.6980   27.3620 C   0  0  0  0  0  0  0  0  0  0  0  0
    5.6740    0.4420   27.3700 C   0  0  0  0  0  0  0  0  0  0  0  0
    5.5310   -0.8400   26.8590 C   0  0  0  0  0  0  0  0  0  0  0  0
    7.2590   -3.0040   23.6500 C   0  0  0  0  0  0  0  0  0  0  0  0
    7.6720   -3.2590   22.2340 C   0  0  0  0  0  0  0  0  0  0  0  0
  1  2  1  0
  2  3  2  0
  2  4  1  0
  4  5  1  0
  5  6  1  0
  6  7  1  0
  7  8  1  0
  8  9  2  0
  8 10  1  0
 11 10  1  1
 11 12  1  0
 12 13  1  0
 13 14  1  0
 14 15  1  1
 15 16  1  0
 16 17  1  0
 17 18  2  0
 17 19  1  0
 19 20  1  0
 20 21  1  0
 14 22  1  0
 11 23  1  0
 22 23  1  0
  7 24  1  0
  4 25  1  0
 24 25  1  0
M  END
