piperidine-amides-12532-covalent
     RDKit          3D

 23 24  0  0  0  0  0  0  0  0999 V2000
    7.1100   -3.2890   19.2150 C   0  0  0  0  0  0  0  0  0  0  0  0
    6.3830   -4.0510   20.2580 C   0  0  0  0  0  0  0  0  0  0  0  0
    5.3050   -4.5680   19.9020 O   0  0  0  0  0  0  0  0  0  0  0  0
    6.9180   -4.2280   21.5480 N   0  0  0  0  0  0  0  0  0  0  0  0
    7.6860   -3.1950   22.1760 C   0  0  0  0  0  0  0  0  0  0  0  0
    7.2020   -2.8650   23.5100 C   0  0  0  0  0  0  0  0  0  0  0  0
    5.9340   -3.5450   23.8260 C   0  0  0  0  0  0  0  0  0  0  0  0
    5.4880   -3.2130   25.1950 C   0  0  0  0  0  0  0  0  0  0  0  0
    4.5670   -2.3910   25.3290 O   0  0  0  0  0  0  0  0  0  0  0  0
    6.0690   -3.8000   26.3160 N   0  0  0  0  0  0  0  0  0  0  0  0
    5.4610   -4.9400   27.0330 C   0  0  2  0  0  0  0  0  0  0  0  0
    4.0350   -4.8010   27.2220 C   0  0  0  0  0  0  0  0  0  0  0  0
    4.3330   -4.9720   28.5980 C   0  0  1  0  0  0  0  0  0  0  0  0
    3.5950   -5.8490   29.1530 O   0  0  0  0  0  0  0  0  0  0  0  0
    3.2890   -5.5300   30.4750 C   0  0  0  0  0  0  0  0  0  0  0  0
    3.5770   -6.4100   31.4980 C   0  0  0  0  0  0  0  0  0  0  0  0
    2.6690   -6.2500   32.4950 C   0  0  0  0  0  0  0  0  0  0  0  0
    3.7670   -7.6600   30.6950 C   0  0  0  0  0  0  0  0  0  0  0  0
    5.7350   -5.1610   28.4310 C   0  0  0  0  0  0  0  0  0  0  0  0
    6.1160   -6.4070   28.9350 C   0  0  0  0  0  0  0  0  0  0  0  0
    6.5040   -4.1620   28.9520 C   0  0  0  0  0  0  0  0  0  0  0  0
    5.9750   -5.0270   23.6370 C   0  0  0  0  0  0  0  0  0  0  0  0
    6.6110   -5.4120   22.3240 C   0  0  0  0  0  0  0  0  0  0  0  0
  1  2  1  0
  2  3  2  0
  2  4  1  0
  4  5  1  0
  5  6  1  0
  6  7  1  0
  7  8  1  0
  8  9  2  0
  8 10  1  0
 11 10  1  1
 11 12  1  0
 12 13  1  0
 13 14  1  6
 14 15  1  0
 15 16  1  0
 16 17  1  0
 16 18  1  0
 11 19  1  0
 13 19  1  0
 19 20  1  0
 19 21  1  0
  7 22  1  0
  4 23  1  0
 22 23  1  0
M  END
