piperidine-amides-5101-covalent
     RDKit          3D

 22 24  0  0  0  0  0  0  0  0999 V2000
    7.0600   -3.3370   19.3300 C   0  0  0  0  0  0  0  0  0  0  0  0
    6.3990   -4.1930   20.3440 C   0  0  0  0  0  0  0  0  0  0  0  0
    5.3760   -4.8010   19.9720 O   0  0  0  0  0  0  0  0  0  0  0  0
    6.9350   -4.3380   21.6380 N   0  0  0  0  0  0  0  0  0  0  0  0
    7.6900   -3.2840   22.2340 C   0  0  0  0  0  0  0  0  0  0  0  0
    7.2550   -2.9450   23.5810 C   0  0  0  0  0  0  0  0  0  0  0  0
    5.9950   -3.6100   23.9740 C   0  0  0  0  0  0  0  0  0  0  0  0
    5.6240   -3.2430   25.3620 C   0  0  0  0  0  0  0  0  0  0  0  0
    4.4290   -3.3470   25.6970 O   0  0  0  0  0  0  0  0  0  0  0  0
    6.5940   -2.7910   26.2700 N   0  0  0  0  0  0  0  0  0  0  0  0
    6.4930   -1.5470   27.0740 C   0  0  0  0  0  0  0  0  0  0  0  0
    7.0380   -1.5920   28.4430 C   0  0  0  0  0  0  0  0  0  0  0  0
    6.9850   -0.4290   29.2870 C   0  0  0  0  0  0  0  0  0  0  0  0
    6.4080    0.7020   28.7510 C   0  0  0  0  0  0  0  0  0  0  0  0
    5.8880    0.7580   27.4550 C   0  0  0  0  0  0  0  0  0  0  0  0
    5.8980   -0.3140   26.5780 C   0  0  0  0  0  0  0  0  0  0  0  0
    5.3750   -0.1950   25.3230 C   0  0  0  0  0  0  0  0  0  0  0  0
    4.5380    0.7230   25.2880 O   0  0  0  0  0  0  0  0  0  0  0  0
    5.0860    1.9100   25.6430 C   0  0  0  0  0  0  0  0  0  0  0  0
    5.3310    1.9420   27.0120 C   0  0  0  0  0  0  0  0  0  0  0  0
    5.9480   -5.0800   23.7560 C   0  0  0  0  0  0  0  0  0  0  0  0
    6.6610   -5.5000   22.4840 C   0  0  0  0  0  0  0  0  0  0  0  0
  1  2  1  0
  2  3  2  0
  2  4  1  0
  4  5  1  0
  5  6  1  0
  6  7  1  0
  7  8  1  0
  8  9  2  0
  8 10  1  0
 10 11  1  0
 11 12  2  0
 12 13  1  0
 13 14  2  0
 14 15  1  0
 11 16  1  0
 15 16  2  0
 16 17  1  0
 17 18  1  0
 18 19  1  0
 15 20  1  0
 19 20  1  0
  7 21  1  0
  4 22  1  0
 21 22  1  0
M  END
