piperidine-amides-13310-covalent
     RDKit          3D

 22 24  0  0  0  0  0  0  0  0999 V2000
    7.0870   -3.3610   19.2750 C   0  0  0  0  0  0  0  0  0  0  0  0
    6.3870   -4.1520   20.3040 C   0  0  0  0  0  0  0  0  0  0  0  0
    5.3310   -4.7070   19.9470 O   0  0  0  0  0  0  0  0  0  0  0  0
    6.9350   -4.3110   21.5910 N   0  0  0  0  0  0  0  0  0  0  0  0
    7.6800   -3.2510   22.2020 C   0  0  0  0  0  0  0  0  0  0  0  0
    7.3010   -3.0170   23.5930 C   0  0  0  0  0  0  0  0  0  0  0  0
    6.1120   -3.7930   23.9840 C   0  0  0  0  0  0  0  0  0  0  0  0
    5.6950   -3.5060   25.3740 C   0  0  0  0  0  0  0  0  0  0  0  0
    4.5790   -3.9190   25.7280 O   0  0  0  0  0  0  0  0  0  0  0  0
    6.4770   -2.7740   26.2720 N   0  0  0  0  0  0  0  0  0  0  0  0
    5.7990   -1.7510   27.0890 C   0  0  0  0  0  0  0  0  0  0  0  0
    6.4270   -1.5060   28.4250 C   0  0  0  0  0  0  0  0  0  0  0  0
    6.6240   -0.0890   28.5280 C   0  0  2  0  0  0  0  0  0  0  0  0
    6.3970    0.7160   29.6170 C   0  0  0  0  0  0  0  0  0  0  0  0
    6.0660    2.4010   29.0020 S   0  0  0  0  0  0  0  0  0  0  0  0
    7.2530    3.2860   29.0160 O   0  0  0  0  0  0  0  0  0  0  0  0
    4.7870    2.9580   29.4990 O   0  0  0  0  0  0  0  0  0  0  0  0
    5.7950    1.8160   27.3530 C   0  0  0  0  0  0  0  0  0  0  0  0
    5.6900    0.4630   27.5210 C   0  0  1  0  0  0  0  0  0  0  0  0
    5.6450   -0.3890   26.4720 C   0  0  0  0  0  0  0  0  0  0  0  0
    6.1700   -5.2320   23.6470 C   0  0  0  0  0  0  0  0  0  0  0  0
    6.6440   -5.4980   22.3590 C   0  0  0  0  0  0  0  0  0  0  0  0
  1  2  1  0
  2  3  2  0
  2  4  1  0
  4  5  1  0
  5  6  1  0
  6  7  1  0
  7  8  1  0
  8  9  2  0
  8 10  1  0
 10 11  1  0
 11 12  1  0
 13 12  1  1
 13 14  1  0
 15 14  1  0
 15 16  2  0
 15 17  2  0
 15 18  1  0
 13 19  1  0
 19 18  1  6
 11 20  1  0
 19 20  1  0
  7 21  1  0
  4 22  1  0
 21 22  1  0
M  END
