piperidine-amides-34879-covalent
     RDKit          3D

 24 26  0  0  0  0  0  0  0  0999 V2000
    7.0260   -3.3670   19.3710 C   0  0  0  0  0  0  0  0  0  0  0  0
    6.3810   -4.2430   20.3850 C   0  0  0  0  0  0  0  0  0  0  0  0
    5.4120   -4.9030   19.9980 O   0  0  0  0  0  0  0  0  0  0  0  0
    6.8960   -4.3340   21.6910 N   0  0  0  0  0  0  0  0  0  0  0  0
    6.7020   -5.5290   22.4900 C   0  0  0  0  0  0  0  0  0  0  0  0
    6.0940   -5.1760   23.8320 C   0  0  0  0  0  0  0  0  0  0  0  0
    6.1900   -3.6610   23.9960 C   0  0  0  0  0  0  0  0  0  0  0  0
    5.6650   -3.2060   25.3100 C   0  0  0  0  0  0  0  0  0  0  0  0
    5.1490   -2.0850   25.3610 O   0  0  0  0  0  0  0  0  0  0  0  0
    5.6740   -3.9660   26.4890 N   0  0  0  0  0  0  0  0  0  0  0  0
    6.3340   -3.4050   27.6150 C   0  0  0  0  0  0  0  0  0  0  0  0
    6.6180   -4.5760   28.5280 C   0  0  0  0  0  0  0  0  0  0  0  0
    5.3470   -4.6300   29.2320 N   0  0  0  0  0  0  0  0  0  0  0  0
    5.3480   -5.7540   30.1610 C   0  0  0  0  0  0  0  0  0  0  0  0
    4.1380   -5.2970   30.5940 N   0  0  0  0  0  0  0  0  0  0  0  0
    3.6380   -6.0810   31.6060 C   0  0  0  0  0  0  0  0  0  0  0  0
    4.3190   -7.1720   32.0790 C   0  0  0  0  0  0  0  0  0  0  0  0
    3.4400   -8.2870   33.6420 I   0  0  0  0  0  0  0  0  0  0  0  0
    5.6390   -7.5300   31.4830 C   0  0  0  0  0  0  0  0  0  0  0  0
    6.1600   -6.7770   30.4770 N   0  0  0  0  0  0  0  0  0  0  0  0
    4.3270   -4.4620   28.4010 C   0  0  0  0  0  0  0  0  0  0  0  0
    4.3810   -4.4450   26.8890 C   0  0  0  0  0  0  0  0  0  0  0  0
    7.4920   -3.0950   23.6460 C   0  0  0  0  0  0  0  0  0  0  0  0
    7.7400   -3.2630   22.1930 C   0  0  0  0  0  0  0  0  0  0  0  0
  1  2  1  0
  2  3  2  0
  2  4  1  0
  4  5  1  0
  5  6  1  0
  6  7  1  0
  7  8  1  0
  8  9  2  0
  8 10  1  0
 10 11  1  0
 11 12  1  0
 12 13  1  0
 13 14  1  0
 14 15  2  0
 15 16  1  0
 16 17  2  0
 17 18  1  0
 17 19  1  0
 14 20  1  0
 19 20  2  0
 13 21  1  0
 10 22  1  0
 21 22  1  0
  7 23  1  0
  4 24  1  0
 23 24  1  0
M  END
