piperidine-amides-21765-covalent
     RDKit          3D

 23 25  0  0  0  0  0  0  0  0999 V2000
    7.0190   -3.3760   19.4150 C   0  0  0  0  0  0  0  0  0  0  0  0
    6.3910   -4.2620   20.4050 C   0  0  0  0  0  0  0  0  0  0  0  0
    5.3890   -4.9060   19.9970 O   0  0  0  0  0  0  0  0  0  0  0  0
    6.9110   -4.4170   21.7060 N   0  0  0  0  0  0  0  0  0  0  0  0
    6.6660   -5.6110   22.4940 C   0  0  0  0  0  0  0  0  0  0  0  0
    6.1220   -5.2150   23.8540 C   0  0  0  0  0  0  0  0  0  0  0  0
    6.0030   -3.7210   23.9790 C   0  0  0  0  0  0  0  0  0  0  0  0
    5.4310   -3.2550   25.2850 C   0  0  0  0  0  0  0  0  0  0  0  0
    4.7460   -2.2200   25.2330 O   0  0  0  0  0  0  0  0  0  0  0  0
    5.5520   -3.8470   26.5620 N   0  0  0  0  0  0  0  0  0  0  0  0
    6.4700   -3.3240   27.4710 C   0  0  0  0  0  0  0  0  0  0  0  0
    6.7900   -4.4920   28.3880 C   0  0  0  0  0  0  0  0  0  0  0  0
    5.5870   -4.7020   29.1810 N   0  0  0  0  0  0  0  0  0  0  0  0
    5.4990   -5.8240   29.8670 C   0  0  0  0  0  0  0  0  0  0  0  0
    6.2380   -6.9520   29.6570 C   0  0  0  0  0  0  0  0  0  0  0  0
    5.9300   -7.9220   30.5250 N   0  0  0  0  0  0  0  0  0  0  0  0
    4.9900   -7.4120   31.2920 N   0  0  0  0  0  0  0  0  0  0  0  0
    4.2810   -7.9780   32.3900 C   0  0  0  0  0  0  0  0  0  0  0  0
    4.6470   -6.0470   30.9250 C   0  0  0  0  0  0  0  0  0  0  0  0
    4.4270   -4.2160   28.7010 C   0  0  0  0  0  0  0  0  0  0  0  0
    4.4290   -4.4130   27.1880 C   0  0  0  0  0  0  0  0  0  0  0  0
    7.3030   -3.0570   23.6960 C   0  0  0  0  0  0  0  0  0  0  0  0
    7.6810   -3.2880   22.2520 C   0  0  0  0  0  0  0  0  0  0  0  0
  1  2  1  0
  2  3  2  0
  2  4  1  0
  4  5  1  0
  5  6  1  0
  6  7  1  0
  7  8  1  0
  8  9  2  0
  8 10  1  0
 10 11  1  0
 11 12  1  0
 12 13  1  0
 13 14  1  0
 14 15  1  0
 15 16  2  0
 16 17  1  0
 17 18  1  0
 14 19  2  0
 17 19  1  0
 13 20  1  0
 10 21  1  0
 20 21  1  0
  7 22  1  0
  4 23  1  0
 22 23  1  0
M  END
