piperidine-amides-27299-covalent
     RDKit          3D

 25 26  0  0  0  0  0  0  0  0999 V2000
    6.9610   -3.3870   19.4480 C   0  0  0  0  0  0  0  0  0  0  0  0
    6.3460   -4.2750   20.4480 C   0  0  0  0  0  0  0  0  0  0  0  0
    5.4090   -4.9980   20.0090 O   0  0  0  0  0  0  0  0  0  0  0  0
    6.8010   -4.3300   21.7850 N   0  0  0  0  0  0  0  0  0  0  0  0
    6.5840   -5.5210   22.5860 C   0  0  0  0  0  0  0  0  0  0  0  0
    5.9160   -5.0970   23.8740 C   0  0  0  0  0  0  0  0  0  0  0  0
    5.7930   -3.6000   23.8940 C   0  0  0  0  0  0  0  0  0  0  0  0
    5.1070   -2.9930   25.1060 C   0  0  0  0  0  0  0  0  0  0  0  0
    4.5040   -1.9330   24.9040 O   0  0  0  0  0  0  0  0  0  0  0  0
    5.0530   -3.4750   26.4410 N   0  0  0  0  0  0  0  0  0  0  0  0
    6.2240   -4.1000   26.8600 C   0  0  0  0  0  0  0  0  0  0  0  0
    6.1820   -4.4960   28.2840 C   0  0  0  0  0  0  0  0  0  0  0  0
    5.1180   -3.8960   28.7380 C   0  0  2  0  0  0  0  0  0  0  0  0
    3.9820   -4.6040   29.0740 C   0  0  0  0  0  0  0  0  0  0  0  0
    3.3520   -4.0700   30.1390 N   0  0  0  0  0  0  0  0  0  0  0  0
    3.0270   -4.8640   31.1580 C   0  0  0  0  0  0  0  0  0  0  0  0
    1.7350   -4.8050   31.6400 O   0  0  0  0  0  0  0  0  0  0  0  0
    3.9130   -5.7470   31.7630 O   0  0  0  0  0  0  0  0  0  0  0  0
    4.3830   -6.8780   31.0780 C   0  0  0  0  0  0  0  0  0  0  0  0
    5.4180   -7.5280   31.7160 C   0  0  0  0  0  0  0  0  0  0  0  0
    5.7230   -7.0270   30.3250 C   0  0  0  0  0  0  0  0  0  0  0  0
    3.2970   -7.7830   30.5780 C   0  0  0  0  0  0  0  0  0  0  0  0
    4.6890   -2.9560   27.8060 C   0  0  0  0  0  0  0  0  0  0  0  0
    7.1490   -2.9800   23.6750 C   0  0  0  0  0  0  0  0  0  0  0  0
    7.6220   -3.2640   22.3940 C   0  0  0  0  0  0  0  0  0  0  0  0
  1  2  1  0
  2  3  2  0
  2  4  1  0
  4  5  1  0
  5  6  1  0
  6  7  1  0
  7  8  1  0
  8  9  2  0
  8 10  1  0
 10 11  1  0
 11 12  1  0
 12 13  1  0
 13 14  1  6
 14 15  1  0
 15 16  1  0
 16 17  2  0
 16 18  1  0
 19 18  1  0
 19 20  1  0
 19 21  1  0
 19 22  1  0
 10 23  1  0
 13 23  1  0
  7 24  1  0
  4 25  1  0
 24 25  1  0
M  END
