piperidine-amides-30506-covalent
     RDKit          3D

 28 30  0  0  0  0  0  0  0  0999 V2000
    7.0870   -3.2920   19.2610 C   0  0  0  0  0  0  0  0  0  0  0  0
    6.3590   -4.0630   20.2720 C   0  0  0  0  0  0  0  0  0  0  0  0
    5.3290   -4.6680   19.9320 O   0  0  0  0  0  0  0  0  0  0  0  0
    6.8200   -4.1860   21.6000 N   0  0  0  0  0  0  0  0  0  0  0  0
    6.5610   -5.4040   22.3410 C   0  0  0  0  0  0  0  0  0  0  0  0
    6.1900   -5.0370   23.7670 C   0  0  0  0  0  0  0  0  0  0  0  0
    6.1890   -3.5530   24.0350 C   0  0  0  0  0  0  0  0  0  0  0  0
    5.6290   -3.1990   25.3660 C   0  0  0  0  0  0  0  0  0  0  0  0
    4.6690   -2.3780   25.4290 O   0  0  0  0  0  0  0  0  0  0  0  0
    6.0760   -3.7290   26.6010 N   0  0  0  0  0  0  0  0  0  0  0  0
    6.4410   -2.7800   27.6870 C   0  0  0  0  0  0  0  0  0  0  0  0
    5.2570   -2.4450   28.5080 C   0  0  0  0  0  0  0  0  0  0  0  0
    4.6110   -3.4850   29.3200 C   0  0  0  0  0  0  0  0  0  0  0  0
    3.4110   -3.1210   30.1520 C   0  0  0  0  0  0  0  0  0  0  0  0
    2.8900   -1.6970   30.1410 C   0  0  0  0  0  0  0  0  0  0  0  0
    3.6790   -0.7960   29.2590 C   0  0  0  0  0  0  0  0  0  0  0  0
    4.7710   -1.1720   28.5160 C   0  0  0  0  0  0  0  0  0  0  0  0
    5.8940   -5.1280   26.8810 C   0  0  2  0  0  0  0  0  0  0  0  0
    4.4670   -5.5280   26.7960 C   0  0  0  0  0  0  0  0  0  0  0  0
    6.3480   -5.6900   28.1860 C   0  0  0  0  0  0  0  0  0  0  0  0
    5.2950   -6.5720   28.8060 C   0  0  0  0  0  0  0  0  0  0  0  0
    4.3670   -7.3910   28.8840 C   0  0  0  0  0  0  0  0  0  0  0  0
    3.6170   -7.9510   30.0370 C   0  0  0  0  0  0  0  0  0  0  0  0
    3.8280   -7.6490   31.3240 C   0  0  0  0  0  0  0  0  0  0  0  0
    4.9330   -6.6610   31.4070 C   0  0  0  0  0  0  0  0  0  0  0  0
    5.6260   -6.1560   30.1510 C   0  0  0  0  0  0  0  0  0  0  0  0
    7.4560   -2.9510   23.6190 C   0  0  0  0  0  0  0  0  0  0  0  0
    7.6650   -3.1640   22.1490 C   0  0  0  0  0  0  0  0  0  0  0  0
  1  2  1  0
  2  3  2  0
  2  4  1  0
  4  5  1  0
  5  6  1  0
  6  7  1  0
  7  8  1  0
  8  9  2  0
  8 10  1  0
 10 11  1  0
 11 12  1  0
 12 13  2  0
 13 14  1  0
 14 15  2  0
 15 16  1  0
 12 17  1  0
 16 17  2  0
 10 18  1  0
 18 19  1  1
 18 20  1  0
 20 21  1  0
 21 22  2  0
 22 23  1  0
 23 24  2  0
 24 25  1  0
 21 26  1  0
 25 26  2  0
  7 27  1  0
  4 28  1  0
 27 28  1  0
M  END
