piperidine-amides-3894-covalent
     RDKit          3D

 20 21  0  0  0  0  0  0  0  0999 V2000
    7.1310   -3.2610   19.2030 C   0  0  0  0  0  0  0  0  0  0  0  0
    6.3710   -4.0080   20.2230 C   0  0  0  0  0  0  0  0  0  0  0  0
    5.2770   -4.5070   19.8650 O   0  0  0  0  0  0  0  0  0  0  0  0
    6.8740   -4.2050   21.5280 N   0  0  0  0  0  0  0  0  0  0  0  0
    7.6150   -3.1590   22.1390 C   0  0  0  0  0  0  0  0  0  0  0  0
    7.1150   -2.8170   23.4570 C   0  0  0  0  0  0  0  0  0  0  0  0
    5.8420   -3.4830   23.8090 C   0  0  0  0  0  0  0  0  0  0  0  0
    5.3860   -3.1100   25.1880 C   0  0  0  0  0  0  0  0  0  0  0  0
    4.1850   -2.8400   25.3690 O   0  0  0  0  0  0  0  0  0  0  0  0
    6.2520   -3.0680   26.2950 N   0  0  0  0  0  0  0  0  0  0  0  0
    6.2040   -3.8950   27.4330 C   0  0  0  0  0  0  0  0  0  0  0  0
    7.3880   -4.2730   28.1610 C   0  0  0  0  0  0  0  0  0  0  0  0
    8.4650   -4.5950   27.1360 C   0  0  0  0  0  0  0  0  0  0  0  0
    8.2780   -4.4890   25.7730 C   0  0  0  0  0  0  0  0  0  0  0  0
    9.4640   -4.4190   25.0780 O   0  0  0  0  0  0  0  0  0  0  0  0
    7.9410   -5.7430   26.1900 C   0  0  0  0  0  0  0  0  0  0  0  0
    9.3700   -6.1910   26.5590 C   0  0  0  0  0  0  0  0  0  0  0  0
    8.8990   -5.7320   27.8580 C   0  0  0  0  0  0  0  0  0  0  0  0
    5.7960   -4.9870   23.5840 C   0  0  0  0  0  0  0  0  0  0  0  0
    6.5270   -5.3750   22.3010 C   0  0  0  0  0  0  0  0  0  0  0  0
  1  2  1  0
  2  3  2  0
  2  4  1  0
  4  5  1  0
  5  6  1  0
  6  7  1  0
  7  8  1  0
  8  9  2  0
  8 10  1  0
 10 11  1  0
 11 12  1  0
 13 12  1  0
 13 14  1  0
 14 15  1  0
 13 16  1  0
 16 17  1  0
 13 18  1  0
 17 18  1  0
  7 19  1  0
  4 20  1  0
 19 20  1  0
M  END
