piperidine-amides-3749-covalent
     RDKit          3D

 22 24  0  0  0  0  0  0  0  0999 V2000
    7.1510   -3.3100   19.2410 C   0  0  0  0  0  0  0  0  0  0  0  0
    6.3850   -4.0340   20.2620 C   0  0  0  0  0  0  0  0  0  0  0  0
    5.3020   -4.5510   19.8980 O   0  0  0  0  0  0  0  0  0  0  0  0
    6.9010   -4.1800   21.5740 N   0  0  0  0  0  0  0  0  0  0  0  0
    6.5540   -5.3350   22.3320 C   0  0  0  0  0  0  0  0  0  0  0  0
    6.0510   -5.0010   23.6570 C   0  0  0  0  0  0  0  0  0  0  0  0
    6.0770   -3.5520   23.9210 C   0  0  0  0  0  0  0  0  0  0  0  0
    5.5290   -3.2170   25.2690 C   0  0  0  0  0  0  0  0  0  0  0  0
    4.3100   -2.9880   25.3670 O   0  0  0  0  0  0  0  0  0  0  0  0
    6.3160   -3.1640   26.4280 N   0  0  0  0  0  0  0  0  0  0  0  0
    5.9810   -3.7390   27.6720 C   0  0  0  0  0  0  0  0  0  0  0  0
    6.0570   -3.0500   28.9520 C   0  0  1  0  0  0  0  0  0  0  0  0
    6.8340   -1.7710   28.8650 C   0  0  0  0  0  0  0  0  0  0  0  0
    5.8950   -1.2130   29.6590 C   0  0  1  0  0  0  0  0  0  0  0  0
    5.2340   -0.0690   29.1760 N   0  0  0  0  0  0  0  0  0  0  0  0
    4.3200    0.6350   29.9470 C   0  0  0  0  0  0  0  0  0  0  0  0
    3.7930    1.7650   29.2030 C   0  0  0  0  0  0  0  0  0  0  0  0
    4.4140    1.6890   28.0150 N   0  0  0  0  0  0  0  0  0  0  0  0
    5.2470    0.6100   28.0280 N   0  0  0  0  0  0  0  0  0  0  0  0
    4.9050   -2.3730   29.6410 C   0  0  0  0  0  0  0  0  0  0  0  0
    7.4180   -2.9340   23.6380 C   0  0  0  0  0  0  0  0  0  0  0  0
    7.7240   -3.1330   22.1650 C   0  0  0  0  0  0  0  0  0  0  0  0
  1  2  1  0
  2  3  2  0
  2  4  1  0
  4  5  1  0
  5  6  1  0
  6  7  1  0
  7  8  1  0
  8  9  2  0
  8 10  1  0
 10 11  1  0
 12 11  1  6
 12 13  1  0
 13 14  1  0
 14 15  1  6
 15 16  1  0
 16 17  2  0
 17 18  1  0
 15 19  1  0
 18 19  2  0
 12 20  1  0
 14 20  1  0
  7 21  1  0
  4 22  1  0
 21 22  1  0
M  END
