piperidine-amides-3526-covalent
     RDKit          3D

 20 20  0  0  0  0  0  0  0  0999 V2000
    7.1480   -3.2300   19.1720 C   0  0  0  0  0  0  0  0  0  0  0  0
    6.3480   -3.9510   20.1580 C   0  0  0  0  0  0  0  0  0  0  0  0
    5.2770   -4.4730   19.8510 O   0  0  0  0  0  0  0  0  0  0  0  0
    6.8400   -4.0950   21.4880 N   0  0  0  0  0  0  0  0  0  0  0  0
    7.7350   -3.0990   22.0340 C   0  0  0  0  0  0  0  0  0  0  0  0
    7.1730   -2.5280   23.2930 C   0  0  0  0  0  0  0  0  0  0  0  0
    6.7330   -3.7040   24.1310 C   0  0  0  0  0  0  0  0  0  0  0  0
    6.2570   -3.2100   25.4510 C   0  0  0  0  0  0  0  0  0  0  0  0
    5.0480   -2.9920   25.7070 O   0  0  0  0  0  0  0  0  0  0  0  0
    7.2710   -2.9740   26.4230 N   0  0  0  0  0  0  0  0  0  0  0  0
    7.0510   -3.3130   27.8080 C   0  0  0  0  0  0  0  0  0  0  0  0
    7.6310   -4.6790   28.0950 C   0  0  0  0  0  0  0  0  0  0  0  0
    6.7510   -5.6900   28.4240 C   0  0  0  0  0  0  0  0  0  0  0  0
    6.8470   -6.3520   29.4820 O   0  0  0  0  0  0  0  0  0  0  0  0
    5.7220   -5.9120   27.4620 N   0  0  0  0  0  0  0  0  0  0  0  0
    6.2000   -5.8710   26.1160 C   0  0  0  0  0  0  0  0  0  0  0  0
    7.5770   -5.9940   26.0120 C   0  0  0  0  0  0  0  0  0  0  0  0
    8.4040   -5.0010   25.3440 C   0  0  0  0  0  0  0  0  0  0  0  0
    5.7340   -4.6020   23.4370 C   0  0  0  0  0  0  0  0  0  0  0  0
    6.3900   -5.1750   22.3660 C   0  0  0  0  0  0  0  0  0  0  0  0
  1  2  1  0
  2  3  2  0
  2  4  1  0
  4  5  1  0
  5  6  1  0
  6  7  1  0
  7  8  1  0
  8  9  2  0
  8 10  1  0
 10 11  1  0
 11 12  1  0
 12 13  1  0
 13 14  2  0
 13 15  1  0
 15 16  1  0
 16 17  1  0
 17 18  3  0
  7 19  1  0
  4 20  1  0
 19 20  1  0
M  END
