piperidine-amides-31698-covalent
     RDKit          3D

 28 29  0  0  0  0  0  0  0  0999 V2000
    7.1430   -3.3610   19.2340 C   0  0  0  0  0  0  0  0  0  0  0  0
    6.3640   -4.0220   20.2570 C   0  0  0  0  0  0  0  0  0  0  0  0
    5.2720   -4.5570   19.8960 O   0  0  0  0  0  0  0  0  0  0  0  0
    6.7870   -4.1460   21.5960 N   0  0  0  0  0  0  0  0  0  0  0  0
    7.6630   -3.0970   22.1730 C   0  0  0  0  0  0  0  0  0  0  0  0
    6.7300   -2.5930   23.3240 C   0  0  0  0  0  0  0  0  0  0  0  0
    6.4760   -3.8300   24.1490 C   0  0  0  0  0  0  0  0  0  0  0  0
    5.7470   -3.4540   25.5160 C   0  0  0  0  0  0  0  0  0  0  0  0
    4.8420   -4.2350   25.7490 O   0  0  0  0  0  0  0  0  0  0  0  0
    6.2850   -2.4130   26.0080 N   0  0  0  0  0  0  0  0  0  0  0  0
    6.7860   -1.1640   26.0860 C   0  0  0  0  0  0  0  0  0  0  0  0
    6.2350    0.0870   26.1740 C   0  0  0  0  0  0  0  0  0  0  0  0
    6.1820   -2.6670   27.4330 C   0  0  0  0  0  0  0  0  0  0  0  0
    6.1580   -4.0230   27.9720 C   0  0  0  0  0  0  0  0  0  0  0  0
    7.1310   -4.2650   28.9180 O   0  0  0  0  0  0  0  0  0  0  0  0
    5.2940   -5.0970   27.7970 N   0  0  0  0  0  0  0  0  0  0  0  0
    5.1370   -5.9410   28.9540 C   0  0  0  0  0  0  0  0  0  0  0  0
    3.9970   -5.8510   29.6940 C   0  0  0  0  0  0  0  0  0  0  0  0
    3.5390   -6.5040   30.8700 C   0  0  0  0  0  0  0  0  0  0  0  0
    4.7170   -7.5090   31.2800 C   0  0  0  0  0  0  0  0  0  0  0  0
    4.6140   -8.3220   32.4180 N   0  0  0  0  0  0  0  0  0  0  0  0
    5.4960   -7.9520   33.4840 C   0  0  0  0  0  0  0  0  0  0  0  0
    5.7420   -8.5310   34.6990 C   0  0  0  0  0  0  0  0  0  0  0  0
    6.2530   -6.9450   33.4160 O   0  0  0  0  0  0  0  0  0  0  0  0
    5.9140   -7.5460   30.4110 C   0  0  0  0  0  0  0  0  0  0  0  0
    6.1880   -6.8560   29.3260 C   0  0  0  0  0  0  0  0  0  0  0  0
    5.8170   -4.9940   23.4610 C   0  0  0  0  0  0  0  0  0  0  0  0
    6.5670   -5.3470   22.3420 C   0  0  0  0  0  0  0  0  0  0  0  0
  1  2  1  0
  2  3  2  0
  2  4  1  0
  4  5  1  0
  5  6  1  0
  6  7  1  0
  7  8  1  0
  8  9  2  0
  8 10  1  0
 10 11  1  0
 11 12  1  0
 10 13  1  0
 13 14  1  0
 14 15  2  0
 14 16  1  0
 16 17  1  0
 17 18  2  0
 18 19  1  0
 19 20  2  0
 20 21  1  0
 21 22  1  0
 22 23  1  0
 22 24  2  0
 20 25  1  0
 17 26  1  0
 25 26  2  0
  7 27  1  0
  4 28  1  0
 27 28  1  0
M  END
