piperidine-amides-2792-covalent
     RDKit          3D

 24 26  0  0  0  0  0  0  0  0999 V2000
    7.0690   -3.2930   19.3060 C   0  0  0  0  0  0  0  0  0  0  0  0
    6.3580   -4.0990   20.2960 C   0  0  0  0  0  0  0  0  0  0  0  0
    5.3710   -4.7530   19.9580 O   0  0  0  0  0  0  0  0  0  0  0  0
    6.8240   -4.1700   21.6580 N   0  0  0  0  0  0  0  0  0  0  0  0
    6.6160   -5.3910   22.3960 C   0  0  0  0  0  0  0  0  0  0  0  0
    6.0200   -5.0710   23.7390 C   0  0  0  0  0  0  0  0  0  0  0  0
    6.1530   -3.5730   23.9160 C   0  0  0  0  0  0  0  0  0  0  0  0
    5.6200   -3.1570   25.2520 C   0  0  0  0  0  0  0  0  0  0  0  0
    4.3950   -3.0380   25.4390 O   0  0  0  0  0  0  0  0  0  0  0  0
    6.4880   -2.8900   26.3430 N   0  0  0  0  0  0  0  0  0  0  0  0
    6.1750   -3.4950   27.6240 C   0  0  0  0  0  0  0  0  0  0  0  0
    6.0100   -2.4300   28.6870 C   0  0  0  0  0  0  0  0  0  0  0  0
    7.0490   -1.5820   29.0670 C   0  0  0  0  0  0  0  0  0  0  0  0
    6.8930   -0.6110   30.0620 C   0  0  0  0  0  0  0  0  0  0  0  0
    5.7000   -0.4480   30.7140 C   0  0  0  0  0  0  0  0  0  0  0  0
    4.6640   -1.3250   30.2980 C   0  0  0  0  0  0  0  0  0  0  0  0
    4.7950   -2.2840   29.3230 C   0  0  0  0  0  0  0  0  0  0  0  0
    3.5140   -1.0960   30.9960 C   0  0  0  0  0  0  0  0  0  0  0  0
    3.6620   -0.2070   32.1030 C   0  0  0  0  0  0  0  0  0  0  0  0
    5.2720    0.6230   31.9320 S   0  0  0  0  0  0  0  0  0  0  0  0
    6.1040    0.5230   33.1650 O   0  0  0  0  0  0  0  0  0  0  0  0
    5.1400    2.0360   31.4810 O   0  0  0  0  0  0  0  0  0  0  0  0
    7.4650   -3.0430   23.5980 C   0  0  0  0  0  0  0  0  0  0  0  0
    7.6830   -3.1450   22.2280 C   0  0  0  0  0  0  0  0  0  0  0  0
  1  2  1  0
  2  3  2  0
  2  4  1  0
  4  5  1  0
  5  6  1  0
  6  7  1  0
  7  8  1  0
  8  9  2  0
  8 10  1  0
 10 11  1  0
 11 12  1  0
 12 13  2  0
 13 14  1  0
 14 15  2  0
 15 16  1  0
 12 17  1  0
 16 17  2  0
 16 18  1  0
 18 19  1  0
 15 20  1  0
 20 19  1  0
 20 21  2  0
 20 22  2  0
  7 23  1  0
  4 24  1  0
 23 24  1  0
M  END
