piperidine-amides-13520-covalent
     RDKit          3D

 21 23  0  0  0  0  0  0  0  0999 V2000
    7.0970   -3.3320   19.3200 C   0  0  0  0  0  0  0  0  0  0  0  0
    6.3240   -4.1380   20.3040 C   0  0  0  0  0  0  0  0  0  0  0  0
    5.2890   -4.7140   19.9340 O   0  0  0  0  0  0  0  0  0  0  0  0
    6.8140   -4.2670   21.6150 N   0  0  0  0  0  0  0  0  0  0  0  0
    6.6700   -5.4840   22.3800 C   0  0  0  0  0  0  0  0  0  0  0  0
    6.0570   -5.1330   23.7450 C   0  0  0  0  0  0  0  0  0  0  0  0
    6.1430   -3.6540   23.9210 C   0  0  0  0  0  0  0  0  0  0  0  0
    5.7760   -3.1680   25.2590 C   0  0  0  0  0  0  0  0  0  0  0  0
    4.6500   -3.4580   25.6810 O   0  0  0  0  0  0  0  0  0  0  0  0
    6.7110   -2.4000   25.9480 N   0  0  0  0  0  0  0  0  0  0  0  0
    6.5650   -1.6940   27.1630 C   0  0  2  0  0  0  0  0  0  0  0  0
    6.3830   -2.4250   28.3350 C   0  0  0  0  0  0  0  0  0  0  0  0
    6.0620   -1.3750   29.2330 O   0  0  0  0  0  0  0  0  0  0  0  0
    6.1780   -0.3230   28.3960 C   0  0  2  0  0  0  0  0  0  0  0  0
    5.8430    0.8620   28.9120 C   0  0  0  0  0  0  0  0  0  0  0  0
    6.3530    1.9970   28.1620 C   0  0  0  0  0  0  0  0  0  0  0  0
    6.0650    1.9390   26.6440 C   0  0  0  0  0  0  0  0  0  0  0  0
    5.8830    0.4790   26.1720 C   0  0  0  0  0  0  0  0  0  0  0  0
    5.7640   -0.5270   27.1160 C   0  0  1  0  0  0  0  0  0  0  0  0
    7.4780   -3.0920   23.6020 C   0  0  0  0  0  0  0  0  0  0  0  0
    7.6830   -3.2230   22.1220 C   0  0  0  0  0  0  0  0  0  0  0  0
  1  2  1  0
  2  3  2  0
  2  4  1  0
  4  5  1  0
  5  6  1  0
  6  7  1  0
  7  8  1  0
  8  9  2  0
  8 10  1  0
 11 10  1  6
 11 12  1  0
 12 13  1  0
 13 14  1  0
 14 15  1  1
 15 16  1  0
 16 17  1  0
 17 18  1  0
 11 19  1  0
 14 19  1  0
 19 18  1  6
  7 20  1  0
  4 21  1  0
 20 21  1  0
M  END
