piperidine-amides-8043-covalent
     RDKit          3D

 26 27  0  0  0  0  0  0  0  0999 V2000
    7.1190   -3.2830   19.2080 C   0  0  0  0  0  0  0  0  0  0  0  0
    6.3890   -4.0530   20.2150 C   0  0  0  0  0  0  0  0  0  0  0  0
    5.3040   -4.5670   19.8900 O   0  0  0  0  0  0  0  0  0  0  0  0
    6.9480   -4.2470   21.4960 N   0  0  0  0  0  0  0  0  0  0  0  0
    7.7520   -3.1810   22.0420 C   0  0  0  0  0  0  0  0  0  0  0  0
    7.4490   -3.0190   23.4870 C   0  0  0  0  0  0  0  0  0  0  0  0
    6.0360   -3.4540   23.6480 C   0  0  0  0  0  0  0  0  0  0  0  0
    5.4450   -2.9340   24.9090 C   0  0  0  0  0  0  0  0  0  0  0  0
    4.2820   -2.5540   24.8170 O   0  0  0  0  0  0  0  0  0  0  0  0
    6.1600   -2.8950   26.0980 N   0  0  0  0  0  0  0  0  0  0  0  0
    5.3300   -2.9390   27.2360 C   0  0  2  0  0  0  0  0  0  0  0  0
    5.8770   -2.8900   28.4970 C   0  0  0  0  0  0  0  0  0  0  0  0
    5.9690   -4.1500   28.8840 C   0  0  0  0  0  0  0  0  0  0  0  0
    5.1280   -4.7780   29.7890 C   0  0  0  0  0  0  0  0  0  0  0  0
    5.3920   -6.2280   30.0680 C   0  0  0  0  0  0  0  0  0  0  0  0
    6.5540   -6.9510   29.3590 C   0  0  0  0  0  0  0  0  0  0  0  0
    7.3580   -6.1220   28.4210 C   0  0  0  0  0  0  0  0  0  0  0  0
    8.4160   -6.6510   27.7370 F   0  0  0  0  0  0  0  0  0  0  0  0
    6.9600   -4.7650   28.2780 C   0  0  0  0  0  0  0  0  0  0  0  0
    4.6430   -4.2630   27.1630 C   0  0  0  0  0  0  0  0  0  0  0  0
    3.7090   -4.5290   27.9700 O   0  0  0  0  0  0  0  0  0  0  0  0
    4.9530   -5.2210   26.2410 O   0  0  0  0  0  0  0  0  0  0  0  0
    4.1900   -6.3490   25.9660 C   0  0  0  0  0  0  0  0  0  0  0  0
    4.0520   -7.2000   27.0380 C   0  0  0  0  0  0  0  0  0  0  0  0
    5.9280   -4.9330   23.5510 C   0  0  0  0  0  0  0  0  0  0  0  0
    6.6010   -5.3980   22.2950 C   0  0  0  0  0  0  0  0  0  0  0  0
  1  2  1  0
  2  3  2  0
  2  4  1  0
  4  5  1  0
  5  6  1  0
  6  7  1  0
  7  8  1  0
  8  9  2  0
  8 10  1  0
 10 11  1  0
 11 12  1  1
 12 13  1  0
 13 14  2  0
 14 15  1  0
 15 16  2  0
 16 17  1  0
 17 18  1  0
 13 19  1  0
 17 19  2  0
 11 20  1  0
 20 21  2  0
 20 22  1  0
 22 23  1  0
 23 24  1  0
  7 25  1  0
  4 26  1  0
 25 26  1  0
M  END
