piperidine-amides-2567-covalent
     RDKit          3D

 25 27  0  0  0  0  0  0  0  0999 V2000
    7.0350   -3.3330   19.3440 C   0  0  0  0  0  0  0  0  0  0  0  0
    6.3770   -4.1930   20.3620 C   0  0  0  0  0  0  0  0  0  0  0  0
    5.3940   -4.8320   19.9830 O   0  0  0  0  0  0  0  0  0  0  0  0
    6.8860   -4.2940   21.6670 N   0  0  0  0  0  0  0  0  0  0  0  0
    6.7690   -5.5260   22.4050 C   0  0  0  0  0  0  0  0  0  0  0  0
    6.0790   -5.2390   23.7020 C   0  0  0  0  0  0  0  0  0  0  0  0
    6.0360   -3.7310   23.8880 C   0  0  0  0  0  0  0  0  0  0  0  0
    5.5750   -3.4460   25.2640 C   0  0  0  0  0  0  0  0  0  0  0  0
    4.4350   -3.7980   25.5710 O   0  0  0  0  0  0  0  0  0  0  0  0
    6.3570   -2.7900   26.2300 N   0  0  0  0  0  0  0  0  0  0  0  0
    5.6220   -2.0310   27.2270 C   0  0  1  0  0  0  0  0  0  0  0  0
    4.1260   -1.8230   27.0740 C   0  0  0  0  0  0  0  0  0  0  0  0
    3.3400   -2.7600   27.6880 C   0  0  0  0  0  0  0  0  0  0  0  0
    2.0440   -2.7000   27.6520 C   0  0  0  0  0  0  0  0  0  0  0  0
    1.4670   -1.7210   27.0180 C   0  0  0  0  0  0  0  0  0  0  0  0
   -0.2870   -1.6400   26.9780 Cl  0  0  0  0  0  0  0  0  0  0  0  0
    2.1410   -0.5990   26.2830 C   0  0  0  0  0  0  0  0  0  0  0  0
    3.6910   -0.6000   26.2710 C   0  0  0  0  0  0  0  0  0  0  0  0
    6.1540   -0.6060   27.0290 C   0  0  0  0  0  0  0  0  0  0  0  0
    6.1400   -0.9950   28.3130 C   0  0  2  0  0  0  0  0  0  0  0  0
    7.3950   -1.2850   29.0280 C   0  0  0  0  0  0  0  0  0  0  0  0
    7.5070   -0.5250   30.3410 C   0  0  0  0  0  0  0  0  0  0  0  0
    6.2080   -0.3020   31.0320 C   0  0  0  0  0  0  0  0  0  0  0  0
    7.3940   -3.1220   23.6010 C   0  0  0  0  0  0  0  0  0  0  0  0
    7.6920   -3.2150   22.2510 C   0  0  0  0  0  0  0  0  0  0  0  0
  1  2  1  0
  2  3  2  0
  2  4  1  0
  4  5  1  0
  5  6  1  0
  6  7  1  0
  7  8  1  0
  8  9  2  0
  8 10  1  0
 11 10  1  6
 11 12  1  0
 12 13  2  0
 13 14  1  0
 14 15  2  0
 15 16  1  0
 15 17  1  0
 12 18  1  0
 17 18  2  0
 11 19  1  0
 11 20  1  0
 19 20  1  0
 20 21  1  6
 21 22  1  0
 22 23  1  0
  7 24  1  0
  4 25  1  0
 24 25  1  0
M  END
