piperidine-amides-33939-covalent
     RDKit          3D

 30 32  0  0  0  0  0  0  0  0999 V2000
    7.0460   -3.3840   19.3830 C   0  0  0  0  0  0  0  0  0  0  0  0
    6.4170   -4.2560   20.3870 C   0  0  0  0  0  0  0  0  0  0  0  0
    5.4060   -4.8960   20.0010 O   0  0  0  0  0  0  0  0  0  0  0  0
    6.9560   -4.4050   21.6980 N   0  0  0  0  0  0  0  0  0  0  0  0
    6.5050   -5.4990   22.4880 C   0  0  0  0  0  0  0  0  0  0  0  0
    6.0000   -5.0900   23.8040 C   0  0  0  0  0  0  0  0  0  0  0  0
    5.9300   -3.6170   23.9790 C   0  0  0  0  0  0  0  0  0  0  0  0
    5.1710   -3.1090   25.2000 C   0  0  0  0  0  0  0  0  0  0  0  0
    4.4710   -2.1030   25.0440 O   0  0  0  0  0  0  0  0  0  0  0  0
    5.1800   -3.6690   26.4970 N   0  0  0  0  0  0  0  0  0  0  0  0
    4.6820   -3.0830   27.6720 C   0  0  0  0  0  0  0  0  0  0  0  0
    4.8630   -3.7570   28.9590 C   0  0  2  0  0  0  0  0  0  0  0  0
    4.7290   -2.6560   30.0210 C   0  0  0  0  0  0  0  0  0  0  0  0
    3.4010   -2.5230   30.3670 O   0  0  0  0  0  0  0  0  0  0  0  0
    5.6260   -1.9650   30.5250 O   0  0  0  0  0  0  0  0  0  0  0  0
    6.0340   -0.7510   30.1930 C   0  0  0  0  0  0  0  0  0  0  0  0
    7.5280   -0.6990   29.9050 C   0  0  0  0  0  0  0  0  0  0  0  0
    5.2420   -0.0620   29.0680 C   0  0  0  0  0  0  0  0  0  0  0  0
    6.2300    0.1460   31.3580 C   0  0  0  0  0  0  0  0  0  0  0  0
    6.1710   -4.4990   29.1240 C   0  0  0  0  0  0  0  0  0  0  0  0
    6.1550   -5.2830   27.8470 C   0  0  1  0  0  0  0  0  0  0  0  0
    4.9080   -6.1720   27.6990 C   0  0  0  0  0  0  0  0  0  0  0  0
    4.3060   -6.6890   26.4650 C   0  0  0  0  0  0  0  0  0  0  0  0
    3.1710   -7.4800   26.5160 N   0  0  0  0  0  0  0  0  0  0  0  0
    2.9010   -7.5710   27.8000 N   0  0  0  0  0  0  0  0  0  0  0  0
    1.7620   -8.3310   28.3060 C   0  0  0  0  0  0  0  0  0  0  0  0
    3.8670   -6.8340   28.6230 C   0  0  0  0  0  0  0  0  0  0  0  0
    6.2810   -4.4090   26.8220 C   0  0  0  0  0  0  0  0  0  0  0  0
    7.2780   -3.0060   23.7390 C   0  0  0  0  0  0  0  0  0  0  0  0
    7.6590   -3.2950   22.2920 C   0  0  0  0  0  0  0  0  0  0  0  0
  1  2  1  0
  2  3  2  0
  2  4  1  0
  4  5  1  0
  5  6  1  0
  6  7  1  0
  7  8  1  0
  8  9  2  0
  8 10  1  0
 10 11  1  0
 11 12  1  0
 12 13  1  1
 13 14  2  0
 13 15  1  0
 16 15  1  0
 16 17  1  0
 16 18  1  0
 16 19  1  0
 12 20  1  0
 20 21  1  0
 21 22  1  6
 22 23  1  0
 23 24  2  0
 24 25  1  0
 25 26  1  0
 22 27  2  0
 25 27  1  0
 10 28  1  0
 21 28  1  0
  7 29  1  0
  4 30  1  0
 29 30  1  0
M  END
