piperidine-amides-4711-covalent
     RDKit          3D

 24 25  0  0  0  0  0  0  0  0999 V2000
    7.1470   -3.2620   19.2130 C   0  0  0  0  0  0  0  0  0  0  0  0
    6.3940   -4.0230   20.2340 C   0  0  0  0  0  0  0  0  0  0  0  0
    5.3030   -4.5190   19.8760 O   0  0  0  0  0  0  0  0  0  0  0  0
    6.9230   -4.2110   21.5160 N   0  0  0  0  0  0  0  0  0  0  0  0
    7.7080   -3.1920   22.1250 C   0  0  0  0  0  0  0  0  0  0  0  0
    7.2910   -2.9460   23.4880 C   0  0  0  0  0  0  0  0  0  0  0  0
    6.0010   -3.5940   23.8040 C   0  0  0  0  0  0  0  0  0  0  0  0
    5.6520   -3.3140   25.2100 C   0  0  0  0  0  0  0  0  0  0  0  0
    4.4630   -3.0710   25.4760 O   0  0  0  0  0  0  0  0  0  0  0  0
    6.6330   -3.3230   26.2100 N   0  0  0  0  0  0  0  0  0  0  0  0
    6.5930   -4.2540   27.3520 C   0  0  1  0  0  0  0  0  0  0  0  0
    7.8250   -4.0250   28.1150 C   0  0  0  0  0  0  0  0  0  0  0  0
    8.1040   -2.6310   28.4640 C   0  0  0  0  0  0  0  0  0  0  0  0
    5.4330   -3.8380   28.1190 C   0  0  0  0  0  0  0  0  0  0  0  0
    5.2700   -2.5140   28.5960 N   0  0  0  0  0  0  0  0  0  0  0  0
    4.0690   -2.2130   29.3530 C   0  0  0  0  0  0  0  0  0  0  0  0
    3.9990   -0.9160   29.7730 C   0  0  0  0  0  0  0  0  0  0  0  0
    4.2630    0.1080   28.8950 F   0  0  0  0  0  0  0  0  0  0  0  0
    4.9360   -0.7810   30.8230 F   0  0  0  0  0  0  0  0  0  0  0  0
    2.7930   -0.7200   30.3660 F   0  0  0  0  0  0  0  0  0  0  0  0
    3.1650   -3.3810   29.5170 C   0  0  0  0  0  0  0  0  0  0  0  0
    3.9310   -4.7240   28.7000 S   0  0  0  0  0  0  0  0  0  0  0  0
    5.8570   -5.0290   23.4280 C   0  0  0  0  0  0  0  0  0  0  0  0
    6.6070   -5.3870   22.2900 C   0  0  0  0  0  0  0  0  0  0  0  0
  1  2  1  0
  2  3  2  0
  2  4  1  0
  4  5  1  0
  5  6  1  0
  6  7  1  0
  7  8  1  0
  8  9  2  0
  8 10  1  0
 10 11  1  0
 11 12  1  1
 12 13  1  0
 11 14  1  0
 14 15  2  0
 15 16  1  0
 16 17  1  0
 17 18  1  0
 17 19  1  0
 17 20  1  0
 16 21  2  0
 14 22  1  0
 21 22  1  0
  7 23  1  0
  4 24  1  0
 23 24  1  0
M  END
