piperidine-amides-15280-covalent
     RDKit          3D

 18 19  0  0  0  0  0  0  0  0999 V2000
    7.1530   -3.2830   19.2220 C   0  0  0  0  0  0  0  0  0  0  0  0
    6.3610   -4.0240   20.2050 C   0  0  0  0  0  0  0  0  0  0  0  0
    5.2850   -4.5770   19.8930 O   0  0  0  0  0  0  0  0  0  0  0  0
    6.8600   -4.1440   21.4940 N   0  0  0  0  0  0  0  0  0  0  0  0
    6.5970   -5.3340   22.2740 C   0  0  0  0  0  0  0  0  0  0  0  0
    5.7840   -4.8980   23.5060 C   0  0  0  0  0  0  0  0  0  0  0  0
    6.5900   -3.8470   24.2560 C   0  0  0  0  0  0  0  0  0  0  0  0
    5.8260   -3.3930   25.4280 C   0  0  0  0  0  0  0  0  0  0  0  0
    4.7240   -2.8350   25.2370 O   0  0  0  0  0  0  0  0  0  0  0  0
    6.3540   -3.6020   26.7260 N   0  0  0  0  0  0  0  0  0  0  0  0
    6.9220   -4.8700   27.0800 C   0  0  0  0  0  0  0  0  0  0  0  0
    5.8140   -5.8850   27.2240 C   0  0  2  0  0  0  0  0  0  0  0  0
    5.0910   -5.7830   26.0150 O   0  0  0  0  0  0  0  0  0  0  0  0
    4.9690   -5.8100   28.2880 C   0  0  0  0  0  0  0  0  0  0  0  0
    5.3330   -5.9280   29.4150 C   0  0  0  0  0  0  0  0  0  0  0  0
    4.8330   -4.6040   29.0500 C   0  0  0  0  0  0  0  0  0  0  0  0
    6.9030   -2.6720   23.4030 C   0  0  0  0  0  0  0  0  0  0  0  0
    7.5550   -3.0580   22.1180 C   0  0  0  0  0  0  0  0  0  0  0  0
  1  2  1  0
  2  3  2  0
  2  4  1  0
  4  5  1  0
  5  6  1  0
  6  7  1  0
  7  8  1  0
  8  9  2  0
  8 10  1  0
 10 11  1  0
 11 12  1  0
 12 13  1  6
 12 14  1  0
 14 15  1  0
 14 16  1  0
 15 16  1  0
  7 17  1  0
  4 18  1  0
 17 18  1  0
M  END
