piperidine-amides-12468-covalent
     RDKit          3D

 23 24  0  0  0  0  0  0  0  0999 V2000
    7.1090   -3.2930   19.1970 C   0  0  0  0  0  0  0  0  0  0  0  0
    6.3560   -4.0370   20.1990 C   0  0  0  0  0  0  0  0  0  0  0  0
    5.2870   -4.5640   19.8950 O   0  0  0  0  0  0  0  0  0  0  0  0
    6.8930   -4.2120   21.5190 N   0  0  0  0  0  0  0  0  0  0  0  0
    7.6880   -3.1660   22.1050 C   0  0  0  0  0  0  0  0  0  0  0  0
    6.9520   -2.5780   23.2650 C   0  0  0  0  0  0  0  0  0  0  0  0
    6.6090   -3.7060   24.2230 C   0  0  0  0  0  0  0  0  0  0  0  0
    5.8410   -3.1200   25.3470 C   0  0  0  0  0  0  0  0  0  0  0  0
    4.6110   -2.9170   25.2810 O   0  0  0  0  0  0  0  0  0  0  0  0
    6.5340   -2.7800   26.5320 N   0  0  0  0  0  0  0  0  0  0  0  0
    6.2500   -3.5290   27.7360 C   0  0  0  0  0  0  0  0  0  0  0  0
    5.7660   -4.8790   27.2910 C   0  0  1  0  0  0  0  0  0  0  0  0
    6.6000   -5.9610   27.2500 C   0  0  0  0  0  0  0  0  0  0  0  0
    7.7650   -6.0240   27.9960 C   0  0  0  0  0  0  0  0  0  0  0  0
    8.9180   -6.3150   27.2540 O   0  0  0  0  0  0  0  0  0  0  0  0
    4.7190   -5.2610   28.4170 C   0  0  0  0  0  0  0  0  0  0  0  0
    3.5150   -4.4570   28.5830 C   0  0  0  0  0  0  0  0  0  0  0  0
    2.8190   -4.9970   29.5840 N   0  0  0  0  0  0  0  0  0  0  0  0
    3.5670   -6.1310   30.0500 C   0  0  0  0  0  0  0  0  0  0  0  0
    4.7460   -6.3550   29.3810 N   0  0  0  0  0  0  0  0  0  0  0  0
    5.7250   -7.4110   29.6060 C   0  0  0  0  0  0  0  0  0  0  0  0
    5.9310   -4.8940   23.6220 C   0  0  0  0  0  0  0  0  0  0  0  0
    6.4400   -5.2990   22.3040 C   0  0  0  0  0  0  0  0  0  0  0  0
  1  2  1  0
  2  3  2  0
  2  4  1  0
  4  5  1  0
  5  6  1  0
  6  7  1  0
  7  8  1  0
  8  9  2  0
  8 10  1  0
 10 11  1  0
 12 11  1  1
 12 13  1  0
 13 14  1  0
 14 15  1  0
 12 16  1  0
 16 17  2  0
 17 18  1  0
 18 19  2  0
 16 20  1  0
 19 20  1  0
 20 21  1  0
  7 22  1  0
  4 23  1  0
 22 23  1  0
M  END
