piperidine-amides-29779-covalent
     RDKit          3D

 27 29  0  0  0  0  0  0  0  0999 V2000
    7.0650   -3.3520   19.2940 C   0  0  0  0  0  0  0  0  0  0  0  0
    6.3290   -4.1270   20.2830 C   0  0  0  0  0  0  0  0  0  0  0  0
    5.3220   -4.7450   19.9500 O   0  0  0  0  0  0  0  0  0  0  0  0
    6.8060   -4.2200   21.6330 N   0  0  0  0  0  0  0  0  0  0  0  0
    7.6640   -3.1880   22.1730 C   0  0  0  0  0  0  0  0  0  0  0  0
    7.5890   -3.1450   23.6730 C   0  0  0  0  0  0  0  0  0  0  0  0
    6.2280   -3.6830   24.0570 C   0  0  0  0  0  0  0  0  0  0  0  0
    5.8580   -3.3700   25.4670 C   0  0  0  0  0  0  0  0  0  0  0  0
    4.6650   -3.4160   25.8320 O   0  0  0  0  0  0  0  0  0  0  0  0
    6.8410   -2.9910   26.4280 N   0  0  0  0  0  0  0  0  0  0  0  0
    7.4740   -4.0610   27.1960 C   0  0  0  0  0  0  0  0  0  0  0  0
    8.4650   -4.8190   26.3410 C   0  0  0  0  0  0  0  0  0  0  0  0
    6.4800   -1.8630   27.2600 C   0  0  2  0  0  0  0  0  0  0  0  0
    5.9320   -0.7000   26.7340 C   0  0  0  0  0  0  0  0  0  0  0  0
    5.9200    0.1580   27.7570 C   0  0  0  0  0  0  0  0  0  0  0  0
    6.5170   -0.4890   28.8820 N   0  0  0  0  0  0  0  0  0  0  0  0
    6.3940    0.0260   30.2160 C   0  0  1  0  0  0  0  0  0  0  0  0
    7.5850    0.6650   30.4750 C   0  0  0  0  0  0  0  0  0  0  0  0
    5.2160    0.5280   30.6480 C   0  0  0  0  0  0  0  0  0  0  0  0
    4.6170   -0.0230   31.7890 C   0  0  0  0  0  0  0  0  0  0  0  0
    3.3390    0.4780   32.3090 C   0  0  0  0  0  0  0  0  0  0  0  0
    2.6400    1.5130   31.7260 C   0  0  0  0  0  0  0  0  0  0  0  0
    3.2340    2.0520   30.6030 C   0  0  0  0  0  0  0  0  0  0  0  0
    4.5330    1.5540   30.0620 C   0  0  0  0  0  0  0  0  0  0  0  0
    7.1500   -1.6480   28.4750 C   0  0  0  0  0  0  0  0  0  0  0  0
    6.0940   -5.1290   23.7000 C   0  0  0  0  0  0  0  0  0  0  0  0
    6.6350   -5.4620   22.3510 C   0  0  0  0  0  0  0  0  0  0  0  0
  1  2  1  0
  2  3  2  0
  2  4  1  0
  4  5  1  0
  5  6  1  0
  6  7  1  0
  7  8  1  0
  8  9  2  0
  8 10  1  0
 10 11  1  0
 11 12  1  0
 13 10  1  6
 13 14  1  0
 14 15  1  0
 15 16  1  0
 16 17  1  0
 17 18  1  6
 17 19  1  0
 19 20  2  0
 20 21  1  0
 21 22  2  0
 22 23  1  0
 19 24  1  0
 23 24  2  0
 13 25  1  0
 16 25  1  0
  7 26  1  0
  4 27  1  0
 26 27  1  0
M  END
