piperidine-amides-35647-covalent
     RDKit          3D

 39 43  0  0  0  0  0  0  0  0999 V2000
    7.1410   -3.3650   19.3060 C   0  0  0  0  0  0  0  0  0  0  0  0
    6.4250   -4.1960   20.2910 C   0  0  0  0  0  0  0  0  0  0  0  0
    5.3500   -4.6800   19.9440 O   0  0  0  0  0  0  0  0  0  0  0  0
    7.0300   -4.4560   21.5210 N   0  0  0  0  0  0  0  0  0  0  0  0
    6.7110   -5.6320   22.2730 C   0  0  0  0  0  0  0  0  0  0  0  0
    5.8150   -5.2390   23.4120 C   0  0  0  0  0  0  0  0  0  0  0  0
    6.3350   -3.9900   24.1450 C   0  0  0  0  0  0  0  0  0  0  0  0
    5.1740   -3.4740   24.8740 C   0  0  0  0  0  0  0  0  0  0  0  0
    4.0410   -3.6100   24.4180 O   0  0  0  0  0  0  0  0  0  0  0  0
    5.3710   -2.8200   26.0690 N   0  0  0  0  0  0  0  0  0  0  0  0
    6.0560   -3.4790   26.8890 C   0  0  0  0  0  0  0  0  0  0  0  0
    6.4340   -2.6900   27.9420 C   0  0  0  0  0  0  0  0  0  0  0  0
    6.5330   -1.5200   28.6580 C   0  0  0  0  0  0  0  0  0  0  0  0
    7.0620   -3.2380   28.8860 C   0  0  0  0  0  0  0  0  0  0  0  0
    7.3410   -4.6100   28.8040 C   0  0  0  0  0  0  0  0  0  0  0  0
    7.1520   -5.8320   27.8660 C   0  0  0  0  0  0  0  0  0  0  0  0
    6.4260   -4.8650   26.9250 C   0  0  0  0  0  0  0  0  0  0  0  0
    6.7540   -4.1480   28.1680 C   0  0  0  0  0  0  0  0  0  0  0  0
    6.1620   -3.5780   29.2960 O   0  0  0  0  0  0  0  0  0  0  0  0
    5.3700   -4.1890   28.0420 N   0  0  0  0  0  0  0  0  0  0  0  0
    4.5320   -3.1470   27.2340 C   0  0  0  0  0  0  0  0  0  0  0  0
    4.0270   -1.8920   27.8530 C   0  0  0  0  0  0  0  0  0  0  0  0
    2.5260   -1.6830   27.6700 C   0  0  0  0  0  0  0  0  0  0  0  0
    1.8920   -2.6860   28.2710 N   0  0  0  0  0  0  0  0  0  0  0  0
    1.4520   -2.4060   29.8480 S   0  0  0  0  0  0  0  0  0  0  0  0
    0.8680   -1.0220   29.8900 O   0  0  0  0  0  0  0  0  0  0  0  0
    2.7120   -2.4300   30.6650 O   0  0  0  0  0  0  0  0  0  0  0  0
    0.3360   -3.5700   30.4670 C   0  0  0  0  0  0  0  0  0  0  0  0
   -1.0100   -2.9150   30.5970 C   0  0  0  0  0  0  0  0  0  0  0  0
   -2.0560   -3.6640   31.0770 C   0  0  0  0  0  0  0  0  0  0  0  0
   -1.8420   -5.1120   31.4630 C   0  0  0  0  0  0  0  0  0  0  0  0
   -2.7460   -5.8250   31.8980 O   0  0  0  0  0  0  0  0  0  0  0  0
   -2.7680   -6.3280   33.2300 C   0  0  0  0  0  0  0  0  0  0  0  0
   -0.5260   -5.6130   31.2940 C   0  0  0  0  0  0  0  0  0  0  0  0
    0.5310   -4.8910   30.8180 C   0  0  0  0  0  0  0  0  0  0  0  0
    2.4330   -3.9970   27.9690 C   0  0  0  0  0  0  0  0  0  0  0  0
    3.5180   -3.9760   26.9270 C   0  0  0  0  0  0  0  0  0  0  0  0
    6.8620   -2.8980   23.2870 C   0  0  0  0  0  0  0  0  0  0  0  0
    7.7280   -3.3870   22.1820 C   0  0  0  0  0  0  0  0  0  0  0  0
  1  2  1  0
  2  3  2  0
  2  4  1  0
  4  5  1  0
  5  6  1  0
  6  7  1  0
  7  8  1  0
  8  9  2  0
  8 10  1  0
 10 11  1  0
 11 12  2  0
 12 13  1  0
 12 14  1  0
 14 15  2  0
 15 16  1  0
 11 17  1  0
 16 17  2  0
 17 18  1  0
 18 19  2  0
 18 20  1  0
 21 10  1  0
 20 21  1  0
 21 22  1  0
 22 23  1  0
 23 24  1  0
 24 25  1  0
 25 26  2  0
 25 27  2  0
 25 28  1  0
 28 29  2  0
 29 30  1  0
 30 31  2  0
 31 32  1  0
 32 33  1  0
 31 34  1  0
 28 35  1  0
 34 35  2  0
 24 36  1  0
 21 37  1  0
 36 37  1  0
  7 38  1  0
  4 39  1  0
 38 39  1  0
M  END
