piperidine-amides-2093-covalent
     RDKit          3D

 24 25  0  0  0  0  0  0  0  0999 V2000
    7.0970   -3.2640   19.2070 C   0  0  0  0  0  0  0  0  0  0  0  0
    6.3280   -4.0410   20.2150 C   0  0  0  0  0  0  0  0  0  0  0  0
    5.2590   -4.5310   19.8640 O   0  0  0  0  0  0  0  0  0  0  0  0
    6.8590   -4.2250   21.4840 N   0  0  0  0  0  0  0  0  0  0  0  0
    7.6130   -3.1710   22.1020 C   0  0  0  0  0  0  0  0  0  0  0  0
    7.2800   -3.1350   23.5510 C   0  0  0  0  0  0  0  0  0  0  0  0
    5.8770   -3.6470   23.7970 C   0  0  0  0  0  0  0  0  0  0  0  0
    5.6210   -3.4230   25.2230 C   0  0  0  0  0  0  0  0  0  0  0  0
    4.5240   -2.9790   25.5880 O   0  0  0  0  0  0  0  0  0  0  0  0
    6.6200   -3.7070   26.1680 N   0  0  0  0  0  0  0  0  0  0  0  0
    6.2690   -3.6560   27.5620 C   0  0  0  0  0  0  0  0  0  0  0  0
    6.7040   -4.9680   28.1830 C   0  0  0  0  0  0  0  0  0  0  0  0
    5.5150   -5.6480   28.7670 N   0  0  0  0  0  0  0  0  0  0  0  0
    4.6670   -4.6130   29.3980 C   0  0  0  0  0  0  0  0  0  0  0  0
    3.8680   -5.1290   30.3810 C   0  0  1  0  0  0  0  0  0  0  0  0
    2.8660   -6.0120   30.0700 C   0  0  0  0  0  0  0  0  0  0  0  0
    1.7400   -5.4530   30.5490 N   0  0  0  0  0  0  0  0  0  0  0  0
    3.9660   -6.4650   30.9040 C   0  0  0  0  0  0  0  0  0  0  0  0
    3.2880   -6.8360   32.0430 O   0  0  0  0  0  0  0  0  0  0  0  0
    4.7610   -7.3760   30.2390 N   0  0  0  0  0  0  0  0  0  0  0  0
    5.7840   -6.8430   29.3350 C   0  0  0  0  0  0  0  0  0  0  0  0
    6.9300   -7.5080   29.0840 O   0  0  0  0  0  0  0  0  0  0  0  0
    5.7190   -5.0740   23.4550 C   0  0  0  0  0  0  0  0  0  0  0  0
    6.4610   -5.4010   22.2080 C   0  0  0  0  0  0  0  0  0  0  0  0
  1  2  1  0
  2  3  2  0
  2  4  1  0
  4  5  1  0
  5  6  1  0
  6  7  1  0
  7  8  1  0
  8  9  2  0
  8 10  1  0
 10 11  1  0
 11 12  1  0
 12 13  1  0
 13 14  1  0
 14 15  1  0
 15 16  1  6
 16 17  3  0
 15 18  1  0
 18 19  2  0
 18 20  1  0
 13 21  1  0
 20 21  1  0
 21 22  2  0
  7 23  1  0
  4 24  1  0
 23 24  1  0
M  END
