piperidine-amides-29820-covalent
     RDKit          3D

 27 29  0  0  0  0  0  0  0  0999 V2000
    7.0500   -3.3470   19.2810 C   0  0  0  0  0  0  0  0  0  0  0  0
    6.3640   -4.1570   20.2750 C   0  0  0  0  0  0  0  0  0  0  0  0
    5.3460   -4.7750   19.9640 O   0  0  0  0  0  0  0  0  0  0  0  0
    6.9020   -4.2830   21.6030 N   0  0  0  0  0  0  0  0  0  0  0  0
    7.7010   -3.2220   22.1640 C   0  0  0  0  0  0  0  0  0  0  0  0
    7.0090   -2.6330   23.3530 C   0  0  0  0  0  0  0  0  0  0  0  0
    6.6070   -3.7740   24.2600 C   0  0  0  0  0  0  0  0  0  0  0  0
    5.7310   -3.2520   25.3450 C   0  0  0  0  0  0  0  0  0  0  0  0
    4.5340   -2.9760   25.1410 O   0  0  0  0  0  0  0  0  0  0  0  0
    6.2560   -3.0580   26.6430 N   0  0  0  0  0  0  0  0  0  0  0  0
    6.1140   -4.1560   27.5760 C   0  0  0  0  0  0  0  0  0  0  0  0
    4.7890   -4.0350   28.2820 C   0  0  0  0  0  0  0  0  0  0  0  0
    3.9500   -2.9270   28.0980 C   0  0  0  0  0  0  0  0  0  0  0  0
    2.7160   -2.8220   28.7650 C   0  0  0  0  0  0  0  0  0  0  0  0
    2.3340   -3.8290   29.6090 C   0  0  0  0  0  0  0  0  0  0  0  0
    3.2070   -4.9550   29.7830 C   0  0  0  0  0  0  0  0  0  0  0  0
    4.4050   -5.0550   29.1360 C   0  0  0  0  0  0  0  0  0  0  0  0
    5.1920   -6.1270   29.3300 F   0  0  0  0  0  0  0  0  0  0  0  0
    6.3200   -1.7390   27.2380 C   0  0  0  0  0  0  0  0  0  0  0  0
    5.8240   -0.5660   26.6560 C   0  0  0  0  0  0  0  0  0  0  0  0
    5.9280    0.7150   27.3650 C   0  0  0  0  0  0  0  0  0  0  0  0
    6.5090    0.8260   28.6090 C   0  0  0  0  0  0  0  0  0  0  0  0
    6.5930    2.0620   29.2640 F   0  0  0  0  0  0  0  0  0  0  0  0
    7.0020   -0.3370   29.1760 C   0  0  0  0  0  0  0  0  0  0  0  0
    6.9010   -1.6380   28.4650 C   0  0  0  0  0  0  0  0  0  0  0  0
    5.8260   -4.8720   23.5940 C   0  0  0  0  0  0  0  0  0  0  0  0
    6.5870   -5.4220   22.4060 C   0  0  0  0  0  0  0  0  0  0  0  0
  1  2  1  0
  2  3  2  0
  2  4  1  0
  4  5  1  0
  5  6  1  0
  6  7  1  0
  7  8  1  0
  8  9  2  0
  8 10  1  0
 10 11  1  0
 11 12  1  0
 12 13  2  0
 13 14  1  0
 14 15  2  0
 15 16  1  0
 12 17  1  0
 16 17  2  0
 17 18  1  0
 10 19  1  0
 19 20  2  0
 20 21  1  0
 21 22  2  0
 22 23  1  0
 22 24  1  0
 19 25  1  0
 24 25  2  0
  7 26  1  0
  4 27  1  0
 26 27  1  0
M  END
