piperidine-amides-23313-covalent
     RDKit          3D

 23 25  0  0  0  0  0  0  0  0999 V2000
    7.0990   -3.3170   19.2840 C   0  0  0  0  0  0  0  0  0  0  0  0
    6.3880   -4.1420   20.2760 C   0  0  0  0  0  0  0  0  0  0  0  0
    5.3020   -4.6530   19.9160 O   0  0  0  0  0  0  0  0  0  0  0  0
    6.9360   -4.4030   21.5520 N   0  0  0  0  0  0  0  0  0  0  0  0
    6.3360   -5.4490   22.2930 C   0  0  0  0  0  0  0  0  0  0  0  0
    5.7260   -5.0090   23.5480 C   0  0  0  0  0  0  0  0  0  0  0  0
    6.4080   -3.8930   24.2620 C   0  0  0  0  0  0  0  0  0  0  0  0
    5.5980   -3.4000   25.4280 C   0  0  0  0  0  0  0  0  0  0  0  0
    4.7140   -2.5530   25.2040 O   0  0  0  0  0  0  0  0  0  0  0  0
    5.7500   -3.8450   26.7640 N   0  0  0  0  0  0  0  0  0  0  0  0
    4.7000   -3.9720   27.6580 C   0  0  0  0  0  0  0  0  0  0  0  0
    5.0490   -4.0630   29.0550 C   0  0  0  0  0  0  0  0  0  0  0  0
    6.1150   -4.6980   29.3490 O   0  0  0  0  0  0  0  0  0  0  0  0
    7.0530   -4.8210   28.3520 C   0  0  0  0  0  0  0  0  0  0  0  0
    6.9770   -3.7510   27.4800 C   0  0  1  0  0  0  0  0  0  0  0  0
    8.1450   -4.4400   26.8760 C   0  0  0  0  0  0  0  0  0  0  0  0
    8.2660   -3.3610   25.8270 C   0  0  0  0  0  0  0  0  0  0  0  0
    8.4880   -4.6940   25.1320 C   0  0  0  0  0  0  0  0  0  0  0  0
    8.0720   -4.8950   23.8530 F   0  0  0  0  0  0  0  0  0  0  0  0
    9.8490   -4.5990   25.0830 F   0  0  0  0  0  0  0  0  0  0  0  0
    8.0120   -5.6970   26.1210 C   0  0  0  0  0  0  0  0  0  0  0  0
    6.7800   -2.7580   23.3250 C   0  0  0  0  0  0  0  0  0  0  0  0
    7.6430   -3.3360   22.1970 C   0  0  0  0  0  0  0  0  0  0  0  0
  1  2  1  0
  2  3  2  0
  2  4  1  0
  4  5  1  0
  5  6  1  0
  6  7  1  0
  7  8  1  0
  8  9  2  0
  8 10  1  0
 10 11  1  0
 11 12  1  0
 12 13  1  0
 13 14  1  0
 10 15  1  0
 14 15  1  0
 15 16  1  6
 16 17  1  0
 17 18  1  0
 18 19  1  0
 18 20  1  0
 16 21  1  0
 18 21  1  0
  7 22  1  0
  4 23  1  0
 22 23  1  0
M  END
