piperidine-amides-27015-covalent
     RDKit          3D

 24 26  0  0  0  0  0  0  0  0999 V2000
    7.1080   -3.3030   19.2430 C   0  0  0  0  0  0  0  0  0  0  0  0
    6.3920   -4.0850   20.2540 C   0  0  0  0  0  0  0  0  0  0  0  0
    5.3020   -4.6070   19.9050 O   0  0  0  0  0  0  0  0  0  0  0  0
    6.9510   -4.2720   21.5150 N   0  0  0  0  0  0  0  0  0  0  0  0
    6.6760   -5.4530   22.2870 C   0  0  0  0  0  0  0  0  0  0  0  0
    5.9950   -5.0170   23.5510 C   0  0  0  0  0  0  0  0  0  0  0  0
    6.7190   -3.8760   24.2290 C   0  0  0  0  0  0  0  0  0  0  0  0
    5.9630   -3.3930   25.4060 C   0  0  0  0  0  0  0  0  0  0  0  0
    5.2120   -2.4060   25.2670 O   0  0  0  0  0  0  0  0  0  0  0  0
    6.0300   -4.0250   26.6550 N   0  0  0  0  0  0  0  0  0  0  0  0
    5.2850   -3.4620   27.7520 C   0  0  0  0  0  0  0  0  0  0  0  0
    5.0460   -2.1530   27.9280 N   0  0  0  0  0  0  0  0  0  0  0  0
    4.3460   -1.7010   28.9160 C   0  0  0  0  0  0  0  0  0  0  0  0
    3.8040   -2.6900   29.8420 N   0  0  0  0  0  0  0  0  0  0  0  0
    4.0090   -4.0420   29.7210 C   0  0  0  0  0  0  0  0  0  0  0  0
    3.3060   -5.2000   30.8430 Cl  0  0  0  0  0  0  0  0  0  0  0  0
    4.7630   -4.4930   28.6970 C   0  0  0  0  0  0  0  0  0  0  0  0
    5.0270   -5.8040   28.5220 N   0  0  0  0  0  0  0  0  0  0  0  0
    6.1890   -6.0170   27.7750 C   0  0  0  0  0  0  0  0  0  0  0  0
    7.2760   -6.6830   28.2730 O   0  0  0  0  0  0  0  0  0  0  0  0
    5.9220   -5.4460   26.5540 C   0  0  1  0  0  0  0  0  0  0  0  0
    4.6450   -5.7620   26.1480 C   0  0  0  0  0  0  0  0  0  0  0  0
    6.9190   -2.7010   23.2900 C   0  0  0  0  0  0  0  0  0  0  0  0
    7.7200   -3.2070   22.1080 C   0  0  0  0  0  0  0  0  0  0  0  0
  1  2  1  0
  2  3  2  0
  2  4  1  0
  4  5  1  0
  5  6  1  0
  6  7  1  0
  7  8  1  0
  8  9  2  0
  8 10  1  0
 10 11  1  0
 11 12  2  0
 12 13  1  0
 13 14  2  0
 14 15  1  0
 15 16  1  0
 11 17  1  0
 15 17  2  0
 17 18  1  0
 18 19  1  0
 19 20  2  0
 10 21  1  0
 19 21  1  0
 21 22  1  1
  7 23  1  0
  4 24  1  0
 23 24  1  0
M  END
