piperidine-amides-6930-covalent
     RDKit          3D

 22 23  0  0  0  0  0  0  0  0999 V2000
    7.1530   -3.3080   19.2430 C   0  0  0  0  0  0  0  0  0  0  0  0
    6.3800   -4.0710   20.2300 C   0  0  0  0  0  0  0  0  0  0  0  0
    5.2930   -4.5950   19.9080 O   0  0  0  0  0  0  0  0  0  0  0  0
    6.9040   -4.2690   21.5140 N   0  0  0  0  0  0  0  0  0  0  0  0
    7.7080   -3.2550   22.1430 C   0  0  0  0  0  0  0  0  0  0  0  0
    6.8310   -2.6570   23.2330 C   0  0  0  0  0  0  0  0  0  0  0  0
    6.5770   -3.7620   24.2350 C   0  0  0  0  0  0  0  0  0  0  0  0
    5.7490   -3.2240   25.3280 C   0  0  0  0  0  0  0  0  0  0  0  0
    4.7630   -2.5370   24.9960 O   0  0  0  0  0  0  0  0  0  0  0  0
    6.0190   -3.4720   26.6990 N   0  0  0  0  0  0  0  0  0  0  0  0
    4.8870   -3.2910   27.5690 C   0  0  1  0  0  0  0  0  0  0  0  0
    5.0680   -3.7220   28.9590 C   0  0  0  0  0  0  0  0  0  0  0  0
    4.7880   -2.4750   29.3650 C   0  0  2  0  0  0  0  0  0  0  0  0
    3.5430   -2.3040   30.0270 N   0  0  0  0  0  0  0  0  0  0  0  0
    3.4390   -2.3560   31.4270 C   0  0  0  0  0  0  0  0  0  0  0  0
    3.5470   -1.0950   32.0190 C   0  0  0  0  0  0  0  0  0  0  0  0
    3.5050   -1.1530   33.3980 F   0  0  0  0  0  0  0  0  0  0  0  0
    4.7330   -0.5120   31.6590 F   0  0  0  0  0  0  0  0  0  0  0  0
    2.5210   -0.2580   31.6250 F   0  0  0  0  0  0  0  0  0  0  0  0
    4.7770   -1.8500   28.0680 C   0  0  0  0  0  0  0  0  0  0  0  0
    5.7750   -4.8930   23.5640 C   0  0  0  0  0  0  0  0  0  0  0  0
    6.5330   -5.3760   22.3540 C   0  0  0  0  0  0  0  0  0  0  0  0
  1  2  1  0
  2  3  2  0
  2  4  1  0
  4  5  1  0
  5  6  1  0
  6  7  1  0
  7  8  1  0
  8  9  2  0
  8 10  1  0
 11 10  1  6
 11 12  1  0
 12 13  1  0
 13 14  1  6
 14 15  1  0
 15 16  1  0
 16 17  1  0
 16 18  1  0
 16 19  1  0
 11 20  1  0
 13 20  1  0
  7 21  1  0
  4 22  1  0
 21 22  1  0
M  END
