piperidine-amides-5152-covalent
     RDKit          3D

 22 23  0  0  0  0  0  0  0  0999 V2000
    7.1110   -3.2720   19.2320 C   0  0  0  0  0  0  0  0  0  0  0  0
    6.3840   -4.0520   20.2580 C   0  0  0  0  0  0  0  0  0  0  0  0
    5.3090   -4.5680   19.8950 O   0  0  0  0  0  0  0  0  0  0  0  0
    6.9170   -4.2370   21.5500 N   0  0  0  0  0  0  0  0  0  0  0  0
    7.6510   -3.1920   22.1940 C   0  0  0  0  0  0  0  0  0  0  0  0
    7.0690   -2.7770   23.4700 C   0  0  0  0  0  0  0  0  0  0  0  0
    5.8260   -3.5060   23.8180 C   0  0  0  0  0  0  0  0  0  0  0  0
    5.3220   -3.1480   25.1700 C   0  0  0  0  0  0  0  0  0  0  0  0
    4.0880   -3.1240   25.3290 O   0  0  0  0  0  0  0  0  0  0  0  0
    6.1610   -2.8400   26.2520 N   0  0  0  0  0  0  0  0  0  0  0  0
    6.4420   -3.8080   27.3270 C   0  0  1  0  0  0  0  0  0  0  0  0
    5.3090   -4.7140   27.6400 C   0  0  0  0  0  0  0  0  0  0  0  0
    5.4830   -6.1560   27.4450 C   0  0  0  0  0  0  0  0  0  0  0  0
    4.3980   -6.8910   27.0230 C   0  0  0  0  0  0  0  0  0  0  0  0
    5.7390   -6.6970   28.8740 C   0  0  0  0  0  0  0  0  0  0  0  0
    7.6050   -4.5240   27.0420 C   0  0  0  0  0  0  0  0  0  0  0  0
    8.3110   -5.0900   27.9420 C   0  0  0  0  0  0  0  0  0  0  0  0
    9.3540   -5.7100   27.4610 C   0  0  0  0  0  0  0  0  0  0  0  0
    9.6260   -5.7260   26.0820 C   0  0  0  0  0  0  0  0  0  0  0  0
    8.3010   -4.7850   25.3970 S   0  0  0  0  0  0  0  0  0  0  0  0
    5.8560   -4.9830   23.6200 C   0  0  0  0  0  0  0  0  0  0  0  0
    6.6000   -5.4010   22.3670 C   0  0  0  0  0  0  0  0  0  0  0  0
  1  2  1  0
  2  3  2  0
  2  4  1  0
  4  5  1  0
  5  6  1  0
  6  7  1  0
  7  8  1  0
  8  9  2  0
  8 10  1  0
 10 11  1  0
 11 12  1  6
 12 13  1  0
 13 14  1  0
 13 15  1  0
 11 16  1  0
 16 17  2  0
 17 18  1  0
 18 19  2  0
 16 20  1  0
 19 20  1  0
  7 21  1  0
  4 22  1  0
 21 22  1  0
M  END
