piperidine-amides-1443-covalent
     RDKit          3D

 21 22  0  0  0  0  0  0  0  0999 V2000
    7.0990   -3.2990   19.2980 C   0  0  0  0  0  0  0  0  0  0  0  0
    6.3050   -4.0720   20.2930 C   0  0  0  0  0  0  0  0  0  0  0  0
    5.2640   -4.6280   19.9130 O   0  0  0  0  0  0  0  0  0  0  0  0
    6.7800   -4.2000   21.6230 N   0  0  0  0  0  0  0  0  0  0  0  0
    6.6540   -5.4540   22.3350 C   0  0  0  0  0  0  0  0  0  0  0  0
    6.0550   -5.1390   23.7080 C   0  0  0  0  0  0  0  0  0  0  0  0
    6.1070   -3.6590   23.8560 C   0  0  0  0  0  0  0  0  0  0  0  0
    5.6470   -3.1740   25.1820 C   0  0  0  0  0  0  0  0  0  0  0  0
    4.4590   -2.8490   25.2540 O   0  0  0  0  0  0  0  0  0  0  0  0
    6.5150   -3.0970   26.2750 N   0  0  0  0  0  0  0  0  0  0  0  0
    6.2250   -3.4950   27.6140 C   0  0  0  0  0  0  0  0  0  0  0  0
    6.0840   -4.7940   28.0410 C   0  0  0  0  0  0  0  0  0  0  0  0
    5.6160   -5.7970   27.1930 C   0  0  0  0  0  0  0  0  0  0  0  0
    4.5800   -6.5570   27.6510 C   0  0  0  0  0  0  0  0  0  0  0  0
    3.3430   -6.7440   27.1090 N   0  0  0  0  0  0  0  0  0  0  0  0
    2.7050   -7.6030   27.9920 N   0  0  0  0  0  0  0  0  0  0  0  0
    3.4890   -7.9330   29.0200 N   0  0  0  0  0  0  0  0  0  0  0  0
    4.6180   -7.3250   28.8500 C   0  0  0  0  0  0  0  0  0  0  0  0
    5.7040   -7.5430   29.9150 C   0  0  0  0  0  0  0  0  0  0  0  0
    7.4330   -3.0500   23.5230 C   0  0  0  0  0  0  0  0  0  0  0  0
    7.6380   -3.1670   22.1590 C   0  0  0  0  0  0  0  0  0  0  0  0
  1  2  1  0
  2  3  2  0
  2  4  1  0
  4  5  1  0
  5  6  1  0
  6  7  1  0
  7  8  1  0
  8  9  2  0
  8 10  1  0
 10 11  1  0
 11 12  1  0
 12 13  1  0
 13 14  1  0
 14 15  1  0
 15 16  2  0
 16 17  1  0
 14 18  2  0
 17 18  1  0
 18 19  1  0
  7 20  1  0
  4 21  1  0
 20 21  1  0
M  END
