piperidine-amides-3954-covalent
     RDKit          3D

 20 21  0  0  0  0  0  0  0  0999 V2000
    7.1390   -3.2650   19.1630 C   0  0  0  0  0  0  0  0  0  0  0  0
    6.3130   -3.9400   20.1730 C   0  0  0  0  0  0  0  0  0  0  0  0
    5.2070   -4.3890   19.8070 O   0  0  0  0  0  0  0  0  0  0  0  0
    6.7750   -4.1410   21.4890 N   0  0  0  0  0  0  0  0  0  0  0  0
    7.4310   -3.0400   22.1250 C   0  0  0  0  0  0  0  0  0  0  0  0
    6.7990   -2.5640   23.3550 C   0  0  0  0  0  0  0  0  0  0  0  0
    6.1820   -3.6360   24.1560 C   0  0  0  0  0  0  0  0  0  0  0  0
    5.5360   -3.1500   25.4160 C   0  0  0  0  0  0  0  0  0  0  0  0
    4.7960   -2.1490   25.4110 O   0  0  0  0  0  0  0  0  0  0  0  0
    5.7690   -3.8590   26.6070 N   0  0  0  0  0  0  0  0  0  0  0  0
    6.1730   -5.2050   26.6250 C   0  0  2  0  0  0  0  0  0  0  0  0
    5.1810   -6.2490   26.5810 C   0  0  0  0  0  0  0  0  0  0  0  0
    6.9460   -5.6230   27.8380 C   0  0  0  0  0  0  0  0  0  0  0  0
    6.5460   -5.0810   29.0360 O   0  0  0  0  0  0  0  0  0  0  0  0
    5.8030   -6.0530   29.6910 C   0  0  0  0  0  0  0  0  0  0  0  0
    6.9610   -5.4190   25.3250 C   0  0  0  0  0  0  0  0  0  0  0  0
    8.3270   -5.6480   25.4820 C   0  0  0  0  0  0  0  0  0  0  0  0
    7.8320   -4.4460   24.5230 C   0  0  0  0  0  0  0  0  0  0  0  0
    5.2880   -4.5420   23.3440 C   0  0  0  0  0  0  0  0  0  0  0  0
    6.1640   -5.1840   22.2810 C   0  0  0  0  0  0  0  0  0  0  0  0
  1  2  1  0
  2  3  2  0
  2  4  1  0
  4  5  1  0
  5  6  1  0
  6  7  1  0
  7  8  1  0
  8  9  2  0
  8 10  1  0
 11 10  1  0
 11 12  1  6
 11 13  1  0
 13 14  1  0
 14 15  1  0
 11 16  1  0
 16 17  1  0
 16 18  1  0
 17 18  1  0
  7 19  1  0
  4 20  1  0
 19 20  1  0
M  END
