piperidine-amides-6790-covalent
     RDKit          3D

 23 24  0  0  0  0  0  0  0  0999 V2000
    7.1400   -3.2530   19.2080 C   0  0  0  0  0  0  0  0  0  0  0  0
    6.3790   -4.0240   20.2040 C   0  0  0  0  0  0  0  0  0  0  0  0
    5.3120   -4.5960   19.8990 O   0  0  0  0  0  0  0  0  0  0  0  0
    6.8750   -4.1620   21.4990 N   0  0  0  0  0  0  0  0  0  0  0  0
    7.7160   -3.1030   22.0150 C   0  0  0  0  0  0  0  0  0  0  0  0
    7.5030   -3.0750   23.5210 C   0  0  0  0  0  0  0  0  0  0  0  0
    6.0820   -3.5300   23.7300 C   0  0  0  0  0  0  0  0  0  0  0  0
    5.7120   -3.2560   25.1130 C   0  0  0  0  0  0  0  0  0  0  0  0
    4.5060   -3.2660   25.4390 O   0  0  0  0  0  0  0  0  0  0  0  0
    6.7520   -2.9910   26.0190 N   0  0  0  0  0  0  0  0  0  0  0  0
    6.7690   -3.6730   27.2600 C   0  0  1  0  0  0  0  0  0  0  0  0
    7.8860   -4.6990   27.1360 C   0  0  0  0  0  0  0  0  0  0  0  0
    8.2620   -5.4310   28.2100 C   0  0  0  0  0  0  0  0  0  0  0  0
    7.6730   -6.5300   28.4220 O   0  0  0  0  0  0  0  0  0  0  0  0
    6.7410   -2.7060   28.3640 C   0  0  0  0  0  0  0  0  0  0  0  0
    5.4810   -2.5210   29.0230 C   0  0  0  0  0  0  0  0  0  0  0  0
    5.3610   -1.6270   30.0490 C   0  0  0  0  0  0  0  0  0  0  0  0
    6.5760   -0.8920   30.4210 C   0  0  0  0  0  0  0  0  0  0  0  0
    5.7290   -0.2110   31.4730 C   0  0  0  0  0  0  0  0  0  0  0  0
    7.8740   -0.9960   29.8430 C   0  0  0  0  0  0  0  0  0  0  0  0
    7.9020   -1.9810   28.7440 C   0  0  0  0  0  0  0  0  0  0  0  0
    5.9900   -5.0070   23.4740 C   0  0  0  0  0  0  0  0  0  0  0  0
    6.5240   -5.3160   22.2590 C   0  0  0  0  0  0  0  0  0  0  0  0
  1  2  1  0
  2  3  2  0
  2  4  1  0
  4  5  1  0
  5  6  1  0
  6  7  1  0
  7  8  1  0
  8  9  2  0
  8 10  1  0
 10 11  1  0
 11 12  1  1
 12 13  1  0
 13 14  1  0
 11 15  1  0
 15 16  2  0
 16 17  1  0
 17 18  2  0
 18 19  1  0
 18 20  1  0
 15 21  1  0
 20 21  2  0
  7 22  1  0
  4 23  1  0
 22 23  1  0
M  END
