piperidine-amides-32750-covalent
     RDKit          3D

 28 31  0  0  0  0  0  0  0  0999 V2000
    7.0890   -3.3200   19.2890 C   0  0  0  0  0  0  0  0  0  0  0  0
    6.3790   -4.1580   20.2970 C   0  0  0  0  0  0  0  0  0  0  0  0
    5.3530   -4.7680   19.9590 O   0  0  0  0  0  0  0  0  0  0  0  0
    6.9200   -4.2830   21.5960 N   0  0  0  0  0  0  0  0  0  0  0  0
    6.6230   -5.4300   22.4220 C   0  0  0  0  0  0  0  0  0  0  0  0
    5.8080   -4.9310   23.6260 C   0  0  0  0  0  0  0  0  0  0  0  0
    5.9230   -3.4380   23.6770 C   0  0  0  0  0  0  0  0  0  0  0  0
    5.3410   -2.8190   24.8830 C   0  0  0  0  0  0  0  0  0  0  0  0
    4.2150   -2.3320   24.7750 O   0  0  0  0  0  0  0  0  0  0  0  0
    6.0470   -2.8350   26.0650 N   0  0  0  0  0  0  0  0  0  0  0  0
    6.1490   -3.9870   26.8250 C   0  0  0  0  0  0  0  0  0  0  0  0
    7.2940   -4.6460   26.8480 C   0  0  0  0  0  0  0  0  0  0  0  0
    8.0960   -5.2030   25.8310 C   0  0  0  0  0  0  0  0  0  0  0  0
    9.2340   -5.7990   26.2760 C   0  0  0  0  0  0  0  0  0  0  0  0
    9.3600   -5.7190   27.7330 C   0  0  0  0  0  0  0  0  0  0  0  0
    8.0160   -4.8980   28.4460 S   0  0  0  0  0  0  0  0  0  0  0  0
    6.2620   -1.6810   26.9480 C   0  0  0  0  0  0  0  0  0  0  0  0
    5.5940   -0.3910   26.5380 C   0  0  0  0  0  0  0  0  0  0  0  0
    5.7300    0.7450   27.3160 C   0  0  0  0  0  0  0  0  0  0  0  0
    6.5170    0.8210   28.5920 C   0  0  0  0  0  0  0  0  0  0  0  0
    7.1620   -0.5430   28.9150 C   0  0  0  0  0  0  0  0  0  0  0  0
    7.0490   -1.6850   28.1700 C   0  0  0  0  0  0  0  0  0  0  0  0
    7.9170   -0.5250   30.0920 O   0  0  0  0  0  0  0  0  0  0  0  0
    7.3960    0.1030   31.1970 C   0  0  0  0  0  0  0  0  0  0  0  0
    7.0400    1.5100   30.7910 C   0  0  0  0  0  0  0  0  0  0  0  0
    6.7270    1.9040   29.4600 O   0  0  0  0  0  0  0  0  0  0  0  0
    7.3550   -2.9790   23.5590 C   0  0  0  0  0  0  0  0  0  0  0  0
    7.7350   -3.1950   22.1470 C   0  0  0  0  0  0  0  0  0  0  0  0
  1  2  1  0
  2  3  2  0
  2  4  1  0
  4  5  1  0
  5  6  1  0
  6  7  1  0
  7  8  1  0
  8  9  2  0
  8 10  1  0
 10 11  1  0
 11 12  1  0
 12 13  2  0
 13 14  1  0
 14 15  2  0
 12 16  1  0
 15 16  1  0
 10 17  1  0
 17 18  2  0
 18 19  1  0
 19 20  2  0
 20 21  1  0
 17 22  1  0
 21 22  2  0
 21 23  1  0
 23 24  1  0
 24 25  1  0
 20 26  1  0
 25 26  1  0
  7 27  1  0
  4 28  1  0
 27 28  1  0
M  END
