piperidine-amides-27147-covalent
     RDKit          3D

 25 26  0  0  0  0  0  0  0  0999 V2000
    7.0570   -3.3550   19.3520 C   0  0  0  0  0  0  0  0  0  0  0  0
    6.3990   -4.2010   20.3530 C   0  0  0  0  0  0  0  0  0  0  0  0
    5.3720   -4.8220   19.9750 O   0  0  0  0  0  0  0  0  0  0  0  0
    6.9360   -4.3320   21.6380 N   0  0  0  0  0  0  0  0  0  0  0  0
    6.6100   -5.4520   22.4860 C   0  0  0  0  0  0  0  0  0  0  0  0
    5.9180   -4.9190   23.7150 C   0  0  0  0  0  0  0  0  0  0  0  0
    6.6680   -3.7920   24.4010 C   0  0  0  0  0  0  0  0  0  0  0  0
    5.7820   -3.1660   25.4250 C   0  0  0  0  0  0  0  0  0  0  0  0
    4.5560   -3.1140   25.1780 O   0  0  0  0  0  0  0  0  0  0  0  0
    6.2450   -2.6370   26.6590 N   0  0  0  0  0  0  0  0  0  0  0  0
    7.5120   -3.1190   27.0960 C   0  0  0  0  0  0  0  0  0  0  0  0
    7.0510   -4.3710   27.7330 C   0  0  1  0  0  0  0  0  0  0  0  0
    7.7640   -5.4500   27.7650 C   0  0  0  0  0  0  0  0  0  0  0  0
    9.0330   -5.3060   28.0900 C   0  0  0  0  0  0  0  0  0  0  0  0
    7.1020   -6.2970   28.5970 C   0  0  0  0  0  0  0  0  0  0  0  0
    7.6300   -6.0410   26.5930 C   0  0  0  0  0  0  0  0  0  0  0  0
    6.3360   -4.1890   28.8470 C   0  0  0  0  0  0  0  0  0  0  0  0
    4.9410   -3.7840   28.5450 C   0  0  0  0  0  0  0  0  0  0  0  0
    5.3180   -2.5070   27.7790 C   0  0  1  0  0  0  0  0  0  0  0  0
    5.7410   -1.3610   28.6830 C   0  0  0  0  0  0  0  0  0  0  0  0
    6.3960   -0.3570   27.9540 O   0  0  0  0  0  0  0  0  0  0  0  0
    5.4190   -1.4920   30.0210 O   0  0  0  0  0  0  0  0  0  0  0  0
    5.8860   -0.5350   30.8620 C   0  0  0  0  0  0  0  0  0  0  0  0
    7.1320   -2.7180   23.4740 C   0  0  0  0  0  0  0  0  0  0  0  0
    7.7160   -3.2650   22.1970 C   0  0  0  0  0  0  0  0  0  0  0  0
  1  2  1  0
  2  3  2  0
  2  4  1  0
  4  5  1  0
  5  6  1  0
  6  7  1  0
  7  8  1  0
  8  9  2  0
  8 10  1  0
 10 11  1  0
 11 12  1  0
 12 13  1  1
 13 14  1  0
 13 15  1  0
 13 16  1  0
 12 17  1  0
 17 18  1  0
 10 19  1  0
 18 19  1  0
 19 20  1  1
 20 21  2  0
 20 22  1  0
 22 23  1  0
  7 24  1  0
  4 25  1  0
 24 25  1  0
M  END
