piperidine-amides-2331-covalent
     RDKit          3D

 27 30  0  0  0  0  0  0  0  0999 V2000
    7.0180   -3.3400   19.3280 C   0  0  0  0  0  0  0  0  0  0  0  0
    6.3580   -4.1900   20.3540 C   0  0  0  0  0  0  0  0  0  0  0  0
    5.3870   -4.8470   19.9830 O   0  0  0  0  0  0  0  0  0  0  0  0
    6.8590   -4.2510   21.6620 N   0  0  0  0  0  0  0  0  0  0  0  0
    7.7170   -3.2160   22.2010 C   0  0  0  0  0  0  0  0  0  0  0  0
    7.3330   -2.8990   23.6150 C   0  0  0  0  0  0  0  0  0  0  0  0
    6.0300   -3.6170   23.9470 C   0  0  0  0  0  0  0  0  0  0  0  0
    5.6320   -3.2300   25.3130 C   0  0  0  0  0  0  0  0  0  0  0  0
    4.4360   -3.2590   25.6270 O   0  0  0  0  0  0  0  0  0  0  0  0
    6.5920   -2.8280   26.2560 N   0  0  0  0  0  0  0  0  0  0  0  0
    6.4370   -1.5590   26.9340 C   0  0  0  0  0  0  0  0  0  0  0  0
    6.9640   -1.5500   28.3450 C   0  0  0  0  0  0  0  0  0  0  0  0
    6.9600   -0.5150   29.2300 C   0  0  0  0  0  0  0  0  0  0  0  0
    6.4050    0.6390   28.7590 C   0  0  0  0  0  0  0  0  0  0  0  0
    5.8730    0.7810   27.4650 C   0  0  0  0  0  0  0  0  0  0  0  0
    5.8880   -0.3850   26.4900 C   0  0  0  0  0  0  0  0  0  0  0  0
    5.3890    1.9910   27.2300 N   0  0  0  0  0  0  0  0  0  0  0  0
    4.9060    2.2200   26.0150 N   0  0  0  0  0  0  0  0  0  0  0  0
    4.4240    3.5900   25.9500 C   0  0  0  0  0  0  0  0  0  0  0  0
    4.6440    4.1420   27.1620 N   0  0  0  0  0  0  0  0  0  0  0  0
    5.2510    3.1680   28.0030 C   0  0  0  0  0  0  0  0  0  0  0  0
    5.6530    3.2840   29.3290 N   0  0  0  0  0  0  0  0  0  0  0  0
    6.4340    1.9030   29.9450 S   0  0  0  0  0  0  0  0  0  0  0  0
    5.7190    1.4270   31.1660 O   0  0  0  0  0  0  0  0  0  0  0  0
    7.8630    2.2460   30.2640 O   0  0  0  0  0  0  0  0  0  0  0  0
    6.0390   -5.0800   23.7320 C   0  0  0  0  0  0  0  0  0  0  0  0
    6.6550   -5.4560   22.4250 C   0  0  0  0  0  0  0  0  0  0  0  0
  1  2  1  0
  2  3  2  0
  2  4  1  0
  4  5  1  0
  5  6  1  0
  6  7  1  0
  7  8  1  0
  8  9  2  0
  8 10  1  0
 10 11  1  0
 11 12  2  0
 12 13  1  0
 13 14  2  0
 14 15  1  0
 11 16  1  0
 15 16  2  0
 15 17  1  0
 17 18  1  0
 18 19  2  0
 19 20  1  0
 17 21  1  0
 20 21  2  0
 21 22  1  0
 14 23  1  0
 23 22  1  0
 23 24  2  0
 23 25  2  0
  7 26  1  0
  4 27  1  0
 26 27  1  0
M  END
