piperidine-amides-27884-covalent
     RDKit          3D

 26 28  0  0  0  0  0  0  0  0999 V2000
    7.0550   -3.3500   19.3450 C   0  0  0  0  0  0  0  0  0  0  0  0
    6.4010   -4.2160   20.3510 C   0  0  0  0  0  0  0  0  0  0  0  0
    5.3760   -4.8250   19.9750 O   0  0  0  0  0  0  0  0  0  0  0  0
    6.9400   -4.3760   21.6410 N   0  0  0  0  0  0  0  0  0  0  0  0
    6.5530   -5.4810   22.4470 C   0  0  0  0  0  0  0  0  0  0  0  0
    5.9390   -5.1140   23.7340 C   0  0  0  0  0  0  0  0  0  0  0  0
    6.3520   -3.8210   24.3520 C   0  0  0  0  0  0  0  0  0  0  0  0
    5.3130   -3.3380   25.3110 C   0  0  0  0  0  0  0  0  0  0  0  0
    4.3570   -2.7190   24.8260 O   0  0  0  0  0  0  0  0  0  0  0  0
    5.3560   -3.5460   26.7190 N   0  0  0  0  0  0  0  0  0  0  0  0
    4.1260   -3.5540   27.5290 C   0  0  0  0  0  0  0  0  0  0  0  0
    4.4320   -3.8340   28.9630 C   0  0  0  0  0  0  0  0  0  0  0  0
    5.6370   -4.4510   29.3050 N   0  0  0  0  0  0  0  0  0  0  0  0
    5.5680   -5.7770   29.8580 C   0  0  0  0  0  0  0  0  0  0  0  0
    6.3800   -6.7520   29.8230 O   0  0  0  0  0  0  0  0  0  0  0  0
    4.4220   -6.0330   30.5190 N   0  0  0  0  0  0  0  0  0  0  0  0
    4.6960   -6.5720   31.7310 C   0  0  0  0  0  0  0  0  0  0  0  0
    5.5050   -7.6710   31.9370 C   0  0  0  0  0  0  0  0  0  0  0  0
    5.7110   -8.1390   33.2040 C   0  0  0  0  0  0  0  0  0  0  0  0
    5.1340   -7.5380   34.2740 C   0  0  0  0  0  0  0  0  0  0  0  0
    4.3330   -6.4550   34.1420 C   0  0  0  0  0  0  0  0  0  0  0  0
    4.1290   -5.9920   32.8440 C   0  0  0  0  0  0  0  0  0  0  0  0
    6.7520   -4.4770   28.3760 C   0  0  0  0  0  0  0  0  0  0  0  0
    6.4350   -3.2700   27.4980 C   0  0  0  0  0  0  0  0  0  0  0  0
    6.7220   -2.7810   23.2830 C   0  0  0  0  0  0  0  0  0  0  0  0
    7.6180   -3.2980   22.3280 C   0  0  0  0  0  0  0  0  0  0  0  0
  1  2  1  0
  2  3  2  0
  2  4  1  0
  4  5  1  0
  5  6  1  0
  6  7  1  0
  7  8  1  0
  8  9  2  0
  8 10  1  0
 10 11  1  0
 11 12  1  0
 12 13  1  0
 13 14  1  0
 14 15  2  0
 14 16  1  0
 16 17  1  0
 17 18  2  0
 18 19  1  0
 19 20  2  0
 20 21  1  0
 17 22  1  0
 21 22  2  0
 13 23  1  0
 10 24  1  0
 23 24  1  0
  7 25  1  0
  4 26  1  0
 25 26  1  0
M  END
