piperidine-amides-1627-covalent
     RDKit          3D

 21 22  0  0  0  0  0  0  0  0999 V2000
    7.0980   -3.2710   19.2720 C   0  0  0  0  0  0  0  0  0  0  0  0
    6.3400   -4.0830   20.2660 C   0  0  0  0  0  0  0  0  0  0  0  0
    5.2820   -4.6250   19.9080 O   0  0  0  0  0  0  0  0  0  0  0  0
    6.8590   -4.2630   21.5700 N   0  0  0  0  0  0  0  0  0  0  0  0
    6.5690   -5.4220   22.3690 C   0  0  0  0  0  0  0  0  0  0  0  0
    5.6870   -4.9460   23.5300 C   0  0  0  0  0  0  0  0  0  0  0  0
    6.4370   -3.8740   24.2610 C   0  0  0  0  0  0  0  0  0  0  0  0
    5.7040   -3.3690   25.4540 C   0  0  0  0  0  0  0  0  0  0  0  0
    4.5200   -3.0700   25.2650 O   0  0  0  0  0  0  0  0  0  0  0  0
    6.3300   -3.2380   26.7150 N   0  0  0  0  0  0  0  0  0  0  0  0
    6.2590   -4.1250   27.8410 C   0  0  2  0  0  0  0  0  0  0  0  0
    5.9900   -5.4770   27.7670 C   0  0  0  0  0  0  0  0  0  0  0  0
    5.3330   -3.5390   28.8980 C   0  0  0  0  0  0  0  0  0  0  0  0
    4.2780   -4.2600   29.3980 C   0  0  0  0  0  0  0  0  0  0  0  0
    3.3520   -3.7500   30.4270 C   0  0  0  0  0  0  0  0  0  0  0  0
    3.4940   -2.3560   31.0290 C   0  0  0  0  0  0  0  0  0  0  0  0
    2.3920   -1.5630   32.3490 Br  0  0  0  0  0  0  0  0  0  0  0  0
    4.7080   -1.6960   30.3680 C   0  0  0  0  0  0  0  0  0  0  0  0
    5.5210   -2.2690   29.4000 C   0  0  0  0  0  0  0  0  0  0  0  0
    6.8340   -2.7190   23.4070 C   0  0  0  0  0  0  0  0  0  0  0  0
    7.6070   -3.1870   22.1880 C   0  0  0  0  0  0  0  0  0  0  0  0
  1  2  1  0
  2  3  2  0
  2  4  1  0
  4  5  1  0
  5  6  1  0
  6  7  1  0
  7  8  1  0
  8  9  2  0
  8 10  1  0
 10 11  1  0
 11 12  1  6
 11 13  1  0
 13 14  2  0
 14 15  1  0
 15 16  2  0
 16 17  1  0
 16 18  1  0
 13 19  1  0
 18 19  2  0
  7 20  1  0
  4 21  1  0
 20 21  1  0
M  END
