piperidine-amides-13070-covalent
     RDKit          3D

 20 21  0  0  0  0  0  0  0  0999 V2000
    7.1020   -3.2970   19.2330 C   0  0  0  0  0  0  0  0  0  0  0  0
    6.3800   -4.0890   20.2550 C   0  0  0  0  0  0  0  0  0  0  0  0
    5.3080   -4.6200   19.9050 O   0  0  0  0  0  0  0  0  0  0  0  0
    6.9230   -4.2650   21.5310 N   0  0  0  0  0  0  0  0  0  0  0  0
    7.6850   -3.2090   22.1100 C   0  0  0  0  0  0  0  0  0  0  0  0
    7.3330   -2.8560   23.4810 C   0  0  0  0  0  0  0  0  0  0  0  0
    6.6330   -3.8970   24.2560 C   0  0  0  0  0  0  0  0  0  0  0  0
    5.9500   -3.2150   25.3780 C   0  0  0  0  0  0  0  0  0  0  0  0
    4.7410   -3.4490   25.5760 O   0  0  0  0  0  0  0  0  0  0  0  0
    6.6590   -2.3050   26.1860 N   0  0  0  0  0  0  0  0  0  0  0  0
    6.0090   -1.4740   27.2150 C   0  0  2  0  0  0  0  0  0  0  0  0
    6.2090   -0.0010   27.0540 C   0  0  1  0  0  0  0  0  0  0  0  0
    4.9960    0.7540   26.7830 C   0  0  0  0  0  0  0  0  0  0  0  0
    6.7450    0.4270   28.1450 O   0  0  0  0  0  0  0  0  0  0  0  0
    6.7820   -0.5000   29.1830 C   0  0  2  0  0  0  0  0  0  0  0  0
    7.8390   -0.7660   30.0260 C   0  0  0  0  0  0  0  0  0  0  0  0
    6.4200   -1.7850   28.5540 C   0  0  1  0  0  0  0  0  0  0  0  0
    5.6320   -2.5980   29.2870 C   0  0  0  0  0  0  0  0  0  0  0  0
    5.7860   -4.8430   23.4950 C   0  0  0  0  0  0  0  0  0  0  0  0
    6.4520   -5.3330   22.3710 C   0  0  0  0  0  0  0  0  0  0  0  0
  1  2  1  0
  2  3  2  0
  2  4  1  0
  4  5  1  0
  5  6  1  0
  6  7  1  0
  7  8  1  0
  8  9  2  0
  8 10  1  0
 11 10  1  6
 11 12  1  0
 12 13  1  1
 12 14  1  0
 14 15  1  0
 15 16  1  6
 11 17  1  0
 15 17  1  0
 17 18  1  1
  7 19  1  0
  4 20  1  0
 19 20  1  0
M  END
