piperidine-amides-28649-covalent
     RDKit          3D

 27 30  0  0  0  0  0  0  0  0999 V2000
    6.9860   -3.3600   19.4390 C   0  0  0  0  0  0  0  0  0  0  0  0
    6.3410   -4.2450   20.4160 C   0  0  0  0  0  0  0  0  0  0  0  0
    5.4060   -4.9550   20.0010 O   0  0  0  0  0  0  0  0  0  0  0  0
    6.7800   -4.3250   21.7730 N   0  0  0  0  0  0  0  0  0  0  0  0
    7.6030   -3.2610   22.3140 C   0  0  0  0  0  0  0  0  0  0  0  0
    7.3860   -3.1200   23.7990 C   0  0  0  0  0  0  0  0  0  0  0  0
    5.9990   -3.6440   24.0850 C   0  0  0  0  0  0  0  0  0  0  0  0
    5.3720   -3.0540   25.3510 C   0  0  0  0  0  0  0  0  0  0  0  0
    4.9620   -1.9170   25.2070 O   0  0  0  0  0  0  0  0  0  0  0  0
    5.2440   -3.7340   26.5790 N   0  0  0  0  0  0  0  0  0  0  0  0
    6.0670   -4.7680   26.8710 C   0  0  0  0  0  0  0  0  0  0  0  0
    5.7420   -5.5820   27.9050 C   0  0  0  0  0  0  0  0  0  0  0  0
    5.4690   -5.0490   29.0980 C   0  0  0  0  0  0  0  0  0  0  0  0
    5.1020   -5.8270   30.1790 C   0  0  0  0  0  0  0  0  0  0  0  0
    5.9410   -7.0640   30.2180 C   0  0  0  0  0  0  0  0  0  0  0  0
    5.7540   -7.9740   31.2040 N   0  0  0  0  0  0  0  0  0  0  0  0
    4.8070   -7.6950   32.0980 C   0  0  0  0  0  0  0  0  0  0  0  0
    3.9560   -6.4870   32.0870 C   0  0  0  0  0  0  0  0  0  0  0  0
    2.9380   -6.3470   33.1770 C   0  0  0  0  0  0  0  0  0  0  0  0
    2.1200   -5.0420   33.0480 C   0  0  0  0  0  0  0  0  0  0  0  0
    2.3210   -4.1290   32.0410 C   0  0  0  0  0  0  0  0  0  0  0  0
    3.2720   -4.2990   31.0560 C   0  0  0  0  0  0  0  0  0  0  0  0
    4.1280   -5.5470   31.0920 C   0  0  0  0  0  0  0  0  0  0  0  0
    5.5980   -3.5560   29.0670 C   0  0  0  0  0  0  0  0  0  0  0  0
    4.9000   -2.9730   27.8130 C   0  0  0  0  0  0  0  0  0  0  0  0
    6.0280   -5.1570   23.9510 C   0  0  0  0  0  0  0  0  0  0  0  0
    6.6320   -5.5230   22.5750 C   0  0  0  0  0  0  0  0  0  0  0  0
  1  2  1  0
  2  3  2  0
  2  4  1  0
  4  5  1  0
  5  6  1  0
  6  7  1  0
  7  8  1  0
  8  9  2  0
  8 10  1  0
 10 11  1  0
 11 12  1  0
 12 13  2  0
 13 14  1  0
 14 15  2  0
 15 16  1  0
 16 17  2  0
 17 18  1  0
 18 19  1  0
 19 20  2  0
 20 21  1  0
 21 22  2  0
 14 23  1  0
 18 23  2  0
 22 23  1  0
 13 24  1  0
 10 25  1  0
 24 25  1  0
  7 26  1  0
  4 27  1  0
 26 27  1  0
M  END
