piperidine-amides-12581-covalent
     RDKit          3D

 23 24  0  0  0  0  0  0  0  0999 V2000
    7.1710   -3.2650   19.1960 C   0  0  0  0  0  0  0  0  0  0  0  0
    6.3650   -3.9660   20.2160 C   0  0  0  0  0  0  0  0  0  0  0  0
    5.2740   -4.4440   19.8460 O   0  0  0  0  0  0  0  0  0  0  0  0
    6.8510   -4.1260   21.5210 N   0  0  0  0  0  0  0  0  0  0  0  0
    7.6650   -3.1180   22.1030 C   0  0  0  0  0  0  0  0  0  0  0  0
    7.2400   -2.7770   23.4550 C   0  0  0  0  0  0  0  0  0  0  0  0
    5.8580   -3.2100   23.7530 C   0  0  0  0  0  0  0  0  0  0  0  0
    5.4190   -2.8010   25.1170 C   0  0  0  0  0  0  0  0  0  0  0  0
    4.2210   -2.9890   25.4030 O   0  0  0  0  0  0  0  0  0  0  0  0
    6.2790   -2.2260   26.0850 N   0  0  0  0  0  0  0  0  0  0  0  0
    6.2190   -2.7070   27.4800 C   0  0  0  0  0  0  0  0  0  0  0  0
    5.8570   -4.1390   27.4420 C   0  0  2  0  0  0  0  0  0  0  0  0
    5.9230   -4.8650   28.6940 C   0  0  0  0  0  0  0  0  0  0  0  0
    6.8180   -5.9080   28.6810 C   0  0  0  0  0  0  0  0  0  0  0  0
    7.9980   -5.7440   27.9620 C   0  0  0  0  0  0  0  0  0  0  0  0
    7.8700   -5.0590   26.8040 C   0  0  1  0  0  0  0  0  0  0  0  0
    8.7040   -5.3430   25.7820 C   0  0  0  0  0  0  0  0  0  0  0  0
    9.7650   -6.2170   26.0050 F   0  0  0  0  0  0  0  0  0  0  0  0
    7.9440   -5.8540   24.7760 F   0  0  0  0  0  0  0  0  0  0  0  0
    9.2890   -4.1740   25.4040 F   0  0  0  0  0  0  0  0  0  0  0  0
    6.5720   -4.8280   26.4820 C   0  0  0  0  0  0  0  0  0  0  0  0
    5.6340   -4.6940   23.4950 C   0  0  0  0  0  0  0  0  0  0  0  0
    6.4640   -5.2210   22.3740 C   0  0  0  0  0  0  0  0  0  0  0  0
  1  2  1  0
  2  3  2  0
  2  4  1  0
  4  5  1  0
  5  6  1  0
  6  7  1  0
  7  8  1  0
  8  9  2  0
  8 10  1  0
 10 11  1  0
 12 11  1  1
 12 13  1  0
 13 14  1  0
 14 15  1  0
 15 16  1  0
 16 17  1  6
 17 18  1  0
 17 19  1  0
 17 20  1  0
 12 21  1  0
 16 21  1  0
  7 22  1  0
  4 23  1  0
 22 23  1  0
M  END
