piperidine-amides-4939-covalent
     RDKit          3D

 23 24  0  0  0  0  0  0  0  0999 V2000
    7.0890   -3.2580   19.2370 C   0  0  0  0  0  0  0  0  0  0  0  0
    6.3340   -4.0430   20.2430 C   0  0  0  0  0  0  0  0  0  0  0  0
    5.2520   -4.5320   19.8700 O   0  0  0  0  0  0  0  0  0  0  0  0
    6.8400   -4.2650   21.5270 N   0  0  0  0  0  0  0  0  0  0  0  0
    7.5240   -3.2130   22.2070 C   0  0  0  0  0  0  0  0  0  0  0  0
    6.8670   -2.7830   23.4360 C   0  0  0  0  0  0  0  0  0  0  0  0
    6.3400   -3.8910   24.2580 C   0  0  0  0  0  0  0  0  0  0  0  0
    5.5860   -3.3350   25.4120 C   0  0  0  0  0  0  0  0  0  0  0  0
    4.3400   -3.3580   25.3680 O   0  0  0  0  0  0  0  0  0  0  0  0
    6.2470   -2.7800   26.5320 N   0  0  0  0  0  0  0  0  0  0  0  0
    7.3040   -3.5040   27.2730 C   0  0  0  0  0  0  0  0  0  0  0  0
    8.3930   -3.9250   26.3550 C   0  0  1  0  0  0  0  0  0  0  0  0
    8.4960   -5.3830   26.2340 C   0  0  0  0  0  0  0  0  0  0  0  0
    8.5160   -3.3250   25.2130 O   0  0  0  0  0  0  0  0  0  0  0  0
    9.5900   -2.6710   24.5410 C   0  0  0  0  0  0  0  0  0  0  0  0
    9.5500   -1.6490   23.6030 C   0  0  0  0  0  0  0  0  0  0  0  0
   10.6970   -1.1450   23.0600 C   0  0  0  0  0  0  0  0  0  0  0  0
   11.9180   -1.6330   23.4280 C   0  0  0  0  0  0  0  0  0  0  0  0
   11.9990   -2.6350   24.3460 C   0  0  0  0  0  0  0  0  0  0  0  0
   10.8150   -3.1370   24.8860 C   0  0  0  0  0  0  0  0  0  0  0  0
   10.8580   -4.5190   26.1450 Br  0  0  0  0  0  0  0  0  0  0  0  0
    5.5730   -4.9010   23.4900 C   0  0  0  0  0  0  0  0  0  0  0  0
    6.4210   -5.4050   22.3390 C   0  0  0  0  0  0  0  0  0  0  0  0
  1  2  1  0
  2  3  2  0
  2  4  1  0
  4  5  1  0
  5  6  1  0
  6  7  1  0
  7  8  1  0
  8  9  2  0
  8 10  1  0
 10 11  1  0
 11 12  1  0
 12 13  1  6
 12 14  1  0
 14 15  1  0
 15 16  2  0
 16 17  1  0
 17 18  2  0
 18 19  1  0
 15 20  1  0
 19 20  2  0
 20 21  1  0
  7 22  1  0
  4 23  1  0
 22 23  1  0
M  END
