piperidine-amides-6837-covalent
     RDKit          3D

 23 25  0  0  0  0  0  0  0  0999 V2000
    7.0430   -3.3310   19.3130 C   0  0  0  0  0  0  0  0  0  0  0  0
    6.3660   -4.1580   20.3310 C   0  0  0  0  0  0  0  0  0  0  0  0
    5.4080   -4.8870   19.9930 O   0  0  0  0  0  0  0  0  0  0  0  0
    6.8040   -4.1690   21.6670 N   0  0  0  0  0  0  0  0  0  0  0  0
    7.7240   -3.1360   22.1150 C   0  0  0  0  0  0  0  0  0  0  0  0
    7.6480   -3.1290   23.6330 C   0  0  0  0  0  0  0  0  0  0  0  0
    6.2430   -3.5790   23.9220 C   0  0  0  0  0  0  0  0  0  0  0  0
    5.8190   -3.2220   25.2880 C   0  0  0  0  0  0  0  0  0  0  0  0
    4.6700   -3.5610   25.6420 O   0  0  0  0  0  0  0  0  0  0  0  0
    6.6910   -2.5010   26.1470 N   0  0  0  0  0  0  0  0  0  0  0  0
    6.1350   -1.6490   27.1650 C   0  0  0  0  0  0  0  0  0  0  0  0
    4.9560   -2.4140   27.7370 C   0  0  0  0  0  0  0  0  0  0  0  0
    3.6490   -1.7740   27.6820 N   0  0  0  0  0  0  0  0  0  0  0  0
    2.5440   -2.5170   28.2320 C   0  0  0  0  0  0  0  0  0  0  0  0
    2.9650   -3.7190   28.7110 C   0  0  0  0  0  0  0  0  0  0  0  0
    4.7160   -3.9270   28.4830 S   0  0  0  0  0  0  0  0  0  0  0  0
    7.1160   -1.3740   28.2490 C   0  0  0  0  0  0  0  0  0  0  0  0
    6.6930   -0.3230   29.0290 C   0  0  0  0  0  0  0  0  0  0  0  0
    6.5570    1.0710   28.4170 C   0  0  0  0  0  0  0  0  0  0  0  0
    5.3620    0.2020   28.0830 C   0  0  0  0  0  0  0  0  0  0  0  0
    5.4780   -0.3860   26.6990 C   0  0  0  0  0  0  0  0  0  0  0  0
    6.1010   -5.0650   23.6840 C   0  0  0  0  0  0  0  0  0  0  0  0
    6.7070   -5.3880   22.4530 C   0  0  0  0  0  0  0  0  0  0  0  0
  1  2  1  0
  2  3  2  0
  2  4  1  0
  4  5  1  0
  5  6  1  0
  6  7  1  0
  7  8  1  0
  8  9  2  0
  8 10  1  0
 11 10  1  0
 11 12  1  0
 12 13  2  0
 13 14  1  0
 14 15  2  0
 12 16  1  0
 15 16  1  0
 11 17  1  0
 17 18  1  0
 18 19  1  0
 19 20  1  0
 11 21  1  0
 20 21  1  0
  7 22  1  0
  4 23  1  0
 22 23  1  0
M  END
