piperidine-amides-35464-covalent
     RDKit          3D

 33 35  0  0  0  0  0  0  0  0999 V2000
    7.1030   -3.2760   19.2720 C   0  0  0  0  0  0  0  0  0  0  0  0
    6.3300   -4.0430   20.2820 C   0  0  0  0  0  0  0  0  0  0  0  0
    5.2910   -4.5780   19.8970 O   0  0  0  0  0  0  0  0  0  0  0  0
    6.8070   -4.1760   21.5900 N   0  0  0  0  0  0  0  0  0  0  0  0
    7.6840   -3.1950   22.1990 C   0  0  0  0  0  0  0  0  0  0  0  0
    7.3360   -2.9950   23.6510 C   0  0  0  0  0  0  0  0  0  0  0  0
    6.0260   -3.7200   23.9460 C   0  0  0  0  0  0  0  0  0  0  0  0
    5.5270   -3.3770   25.2990 C   0  0  0  0  0  0  0  0  0  0  0  0
    4.3040   -3.3500   25.4700 O   0  0  0  0  0  0  0  0  0  0  0  0
    6.3680   -3.0720   26.3880 N   0  0  0  0  0  0  0  0  0  0  0  0
    6.1580   -3.8160   27.6240 C   0  0  0  0  0  0  0  0  0  0  0  0
    5.9210   -5.2850   27.2880 C   0  0  0  0  0  0  0  0  0  0  0  0
    5.3900   -5.5800   26.0510 O   0  0  0  0  0  0  0  0  0  0  0  0
    6.2870   -6.2440   28.3370 N   0  0  0  0  0  0  0  0  0  0  0  0
    5.0990   -6.2400   29.1840 C   0  0  0  0  0  0  0  0  0  0  0  0
    4.5140   -7.4590   29.2860 C   0  0  0  0  0  0  0  0  0  0  0  0
    3.3830   -7.6930   30.0260 C   0  0  0  0  0  0  0  0  0  0  0  0
    2.5330   -6.7590   30.8670 C   0  0  0  0  0  0  0  0  0  0  0  0
    1.0940   -7.0740   31.8030 Cl  0  0  0  0  0  0  0  0  0  0  0  0
    3.2090   -5.4360   30.7280 C   0  0  0  0  0  0  0  0  0  0  0  0
    2.5610   -4.2980   31.4770 C   0  0  0  0  0  0  0  0  0  0  0  0
    3.3590   -3.1910   31.5270 F   0  0  0  0  0  0  0  0  0  0  0  0
    2.0370   -4.5640   32.6910 F   0  0  0  0  0  0  0  0  0  0  0  0
    1.3910   -3.8050   30.8360 F   0  0  0  0  0  0  0  0  0  0  0  0
    4.4470   -5.0890   29.9400 C   0  0  0  0  0  0  0  0  0  0  0  0
    6.6500   -1.6870   26.8020 C   0  0  0  0  0  0  0  0  0  0  0  0
    5.5640   -0.7100   26.3770 C   0  0  0  0  0  0  0  0  0  0  0  0
    5.5690    0.0700   25.1230 C   0  0  0  0  0  0  0  0  0  0  0  0
    4.3220    0.8530   25.1690 C   0  0  0  0  0  0  0  0  0  0  0  0
    3.7050    0.5200   26.3510 C   0  0  0  0  0  0  0  0  0  0  0  0
    4.4570   -0.4430   27.1090 O   0  0  0  0  0  0  0  0  0  0  0  0
    6.2060   -5.1810   23.6970 C   0  0  0  0  0  0  0  0  0  0  0  0
    6.6720   -5.4710   22.2710 C   0  0  0  0  0  0  0  0  0  0  0  0
  1  2  1  0
  2  3  2  0
  2  4  1  0
  4  5  1  0
  5  6  1  0
  6  7  1  0
  7  8  1  0
  8  9  2  0
  8 10  1  0
 10 11  1  0
 11 12  1  0
 12 13  2  0
 12 14  1  0
 14 15  1  0
 15 16  2  0
 16 17  1  0
 17 18  2  0
 18 19  1  0
 18 20  1  0
 20 21  1  0
 21 22  1  0
 21 23  1  0
 21 24  1  0
 15 25  1  0
 20 25  2  0
 10 26  1  0
 26 27  1  0
 27 28  2  0
 28 29  1  0
 29 30  2  0
 27 31  1  0
 30 31  1  0
  7 32  1  0
  4 33  1  0
 32 33  1  0
M  END
