piperidine-amides-19147-covalent
     RDKit          3D

 22 24  0  0  0  0  0  0  0  0999 V2000
    7.0580   -3.4090   19.3260 C   0  0  0  0  0  0  0  0  0  0  0  0
    6.4260   -4.2060   20.3510 C   0  0  0  0  0  0  0  0  0  0  0  0
    5.3990   -4.8700   20.0030 O   0  0  0  0  0  0  0  0  0  0  0  0
    6.9290   -4.3180   21.6730 N   0  0  0  0  0  0  0  0  0  0  0  0
    6.6270   -5.5290   22.4610 C   0  0  0  0  0  0  0  0  0  0  0  0
    5.6800   -4.9010   23.5570 C   0  0  0  0  0  0  0  0  0  0  0  0
    6.4420   -3.7690   24.2260 C   0  0  0  0  0  0  0  0  0  0  0  0
    5.5970   -3.1650   25.4280 C   0  0  0  0  0  0  0  0  0  0  0  0
    4.6200   -2.5660   25.0010 O   0  0  0  0  0  0  0  0  0  0  0  0
    6.1580   -3.4760   26.5300 N   0  0  0  0  0  0  0  0  0  0  0  0
    6.6670   -4.3240   27.4800 C   0  0  0  0  0  0  0  0  0  0  0  0
    6.3560   -2.2160   27.1950 C   0  0  0  0  0  0  0  0  0  0  0  0
    6.8160   -2.0490   28.6650 N   0  0  0  0  0  0  0  0  0  0  0  0
    7.0670   -0.8430   29.4640 C   0  0  0  0  0  0  0  0  0  0  0  0
    6.8950    0.4470   28.9130 N   0  0  0  0  0  0  0  0  0  0  0  0
    6.5050    0.2520   27.7090 C   0  0  0  0  0  0  0  0  0  0  0  0
    6.8620   -0.4250   28.8110 N   0  0  0  0  0  0  0  0  0  0  0  0
    6.8490   -1.5730   28.7540 N   0  0  0  0  0  0  0  0  0  0  0  0
    6.4810   -1.7630   27.5980 C   0  0  0  0  0  0  0  0  0  0  0  0
    6.1430   -0.8520   26.5640 C   0  0  0  0  0  0  0  0  0  0  0  0
    6.8310   -2.6490   23.2800 C   0  0  0  0  0  0  0  0  0  0  0  0
    7.7660   -3.2910   22.2700 C   0  0  0  0  0  0  0  0  0  0  0  0
  1  2  1  0
  2  3  2  0
  2  4  1  0
  4  5  1  0
  5  6  1  0
  6  7  1  0
  7  8  1  0
  8  9  2  0
  8 10  1  0
 10 11  1  0
 10 12  1  0
 12 13  2  0
 13 14  1  0
 14 15  2  0
 15 16  1  0
 16 17  1  0
 17 18  1  0
 18 19  2  0
 12 20  1  0
 16 20  2  0
 19 20  1  0
  7 21  1  0
  4 22  1  0
 21 22  1  0
M  END
