piperidine-amides-34961-covalent
     RDKit          3D

 28 30  0  0  0  0  0  0  0  0999 V2000
    7.0970   -3.3560   19.4040 C   0  0  0  0  0  0  0  0  0  0  0  0
    6.3990   -4.2090   20.3930 C   0  0  0  0  0  0  0  0  0  0  0  0
    5.4070   -4.8220   19.9870 O   0  0  0  0  0  0  0  0  0  0  0  0
    6.8970   -4.3280   21.7020 N   0  0  0  0  0  0  0  0  0  0  0  0
    6.6030   -5.4960   22.4960 C   0  0  0  0  0  0  0  0  0  0  0  0
    6.1310   -5.0800   23.8720 C   0  0  0  0  0  0  0  0  0  0  0  0
    6.0880   -3.5510   23.9770 C   0  0  0  0  0  0  0  0  0  0  0  0
    5.5580   -3.1260   25.3000 C   0  0  0  0  0  0  0  0  0  0  0  0
    4.3470   -2.8850   25.3600 O   0  0  0  0  0  0  0  0  0  0  0  0
    6.3180   -2.9920   26.4870 N   0  0  0  0  0  0  0  0  0  0  0  0
    6.1160   -4.0830   27.4170 C   0  0  0  0  0  0  0  0  0  0  0  0
    4.8140   -3.8180   28.1390 C   0  0  0  0  0  0  0  0  0  0  0  0
    4.4910   -2.7460   28.9230 C   0  0  0  0  0  0  0  0  0  0  0  0
    3.2850   -2.6040   29.5320 C   0  0  0  0  0  0  0  0  0  0  0  0
    2.2760   -3.5230   29.4200 C   0  0  0  0  0  0  0  0  0  0  0  0
    2.4670   -4.6000   28.6910 N   0  0  0  0  0  0  0  0  0  0  0  0
    3.7420   -4.8460   27.9890 C   0  0  0  0  0  0  0  0  0  0  0  0
    6.3710   -1.7190   27.1410 C   0  0  0  0  0  0  0  0  0  0  0  0
    6.9650   -1.5450   28.5440 C   0  0  0  0  0  0  0  0  0  0  0  0
    6.9670   -0.1820   29.1950 C   0  0  0  0  0  0  0  0  0  0  0  0
    7.7020    0.0190   30.9560 Br  0  0  0  0  0  0  0  0  0  0  0  0
    6.3930    0.9490   28.4350 C   0  0  0  0  0  0  0  0  0  0  0  0
    5.8320    0.7430   27.0720 C   0  0  0  0  0  0  0  0  0  0  0  0
    5.8480   -0.6040   26.4840 C   0  0  0  0  0  0  0  0  0  0  0  0
    5.3010   -0.7590   25.2000 O   0  0  0  0  0  0  0  0  0  0  0  0
    3.9820   -0.3920   25.1980 C   0  0  0  0  0  0  0  0  0  0  0  0
    7.4610   -3.0250   23.6810 C   0  0  0  0  0  0  0  0  0  0  0  0
    7.7180   -3.2560   22.2170 C   0  0  0  0  0  0  0  0  0  0  0  0
  1  2  1  0
  2  3  2  0
  2  4  1  0
  4  5  1  0
  5  6  1  0
  6  7  1  0
  7  8  1  0
  8  9  2  0
  8 10  1  0
 10 11  1  0
 11 12  1  0
 12 13  2  0
 13 14  1  0
 14 15  2  0
 15 16  1  0
 12 17  1  0
 16 17  2  0
 10 18  1  0
 18 19  2  0
 19 20  1  0
 20 21  1  0
 20 22  2  0
 22 23  1  0
 18 24  1  0
 23 24  2  0
 24 25  1  0
 25 26  1  0
  7 27  1  0
  4 28  1  0
 27 28  1  0
M  END
