piperidine-amides-1956-covalent
     RDKit          3D

 25 26  0  0  0  0  0  0  0  0999 V2000
    7.0670   -3.2920   19.2590 C   0  0  0  0  0  0  0  0  0  0  0  0
    6.3560   -4.0920   20.2900 C   0  0  0  0  0  0  0  0  0  0  0  0
    5.3270   -4.6600   19.9290 O   0  0  0  0  0  0  0  0  0  0  0  0
    6.8790   -4.2160   21.5880 N   0  0  0  0  0  0  0  0  0  0  0  0
    6.5970   -5.3520   22.4180 C   0  0  0  0  0  0  0  0  0  0  0  0
    5.8090   -4.9040   23.6250 C   0  0  0  0  0  0  0  0  0  0  0  0
    6.4040   -3.6290   24.2470 C   0  0  0  0  0  0  0  0  0  0  0  0
    5.3900   -3.0150   25.1450 C   0  0  0  0  0  0  0  0  0  0  0  0
    4.5190   -2.2990   24.6460 O   0  0  0  0  0  0  0  0  0  0  0  0
    5.3780   -3.2260   26.5460 N   0  0  0  0  0  0  0  0  0  0  0  0
    6.1510   -4.3160   27.0420 C   0  0  0  0  0  0  0  0  0  0  0  0
    5.3950   -5.1750   28.0050 C   0  0  1  0  0  0  0  0  0  0  0  0
    5.7720   -6.3980   28.5040 C   0  0  0  0  0  0  0  0  0  0  0  0
    4.7100   -4.4530   28.9570 O   0  0  0  0  0  0  0  0  0  0  0  0
    4.5410   -6.2800   27.6660 C   0  0  2  0  0  0  0  0  0  0  0  0
    4.0430   -6.4270   26.3970 C   0  0  0  0  0  0  0  0  0  0  0  0
    2.5860   -6.6150   26.0090 C   0  0  0  0  0  0  0  0  0  0  0  0
    2.4150   -7.7740   26.9300 C   0  0  2  0  0  0  0  0  0  0  0  0
    1.2230   -8.5050   26.3830 C   0  0  0  0  0  0  0  0  0  0  0  0
    1.8580   -9.3440   25.3180 C   0  0  0  0  0  0  0  0  0  0  0  0
    0.1760   -7.5980   25.7650 C   0  0  0  0  0  0  0  0  0  0  0  0
    2.2970   -7.2600   28.3190 C   0  0  0  0  0  0  0  0  0  0  0  0
    3.4100   -6.3370   28.6610 C   0  0  0  0  0  0  0  0  0  0  0  0
    6.7890   -2.6030   23.1890 C   0  0  0  0  0  0  0  0  0  0  0  0
    7.6090   -3.1350   22.2180 C   0  0  0  0  0  0  0  0  0  0  0  0
  1  2  1  0
  2  3  2  0
  2  4  1  0
  4  5  1  0
  5  6  1  0
  6  7  1  0
  7  8  1  0
  8  9  2  0
  8 10  1  0
 10 11  1  0
 11 12  1  0
 12 13  1  1
 12 14  1  0
 12 15  1  0
 15 16  1  6
 16 17  1  0
 17 18  1  0
 18 19  1  6
 19 20  1  0
 19 21  1  0
 18 22  1  0
 15 23  1  0
 22 23  1  0
  7 24  1  0
  4 25  1  0
 24 25  1  0
M  END
