piperidine-amides-24670-covalent
     RDKit          3D

 24 25  0  0  0  0  0  0  0  0999 V2000
    7.1480   -3.2710   19.2130 C   0  0  0  0  0  0  0  0  0  0  0  0
    6.4220   -4.0720   20.2100 C   0  0  0  0  0  0  0  0  0  0  0  0
    5.3380   -4.6280   19.9180 O   0  0  0  0  0  0  0  0  0  0  0  0
    6.9740   -4.2710   21.4740 N   0  0  0  0  0  0  0  0  0  0  0  0
    6.5340   -5.4120   22.2250 C   0  0  0  0  0  0  0  0  0  0  0  0
    5.7030   -4.8240   23.3660 C   0  0  0  0  0  0  0  0  0  0  0  0
    6.5960   -3.8420   24.1030 C   0  0  0  0  0  0  0  0  0  0  0  0
    5.8080   -3.2280   25.1760 C   0  0  0  0  0  0  0  0  0  0  0  0
    4.9270   -2.4030   24.8630 O   0  0  0  0  0  0  0  0  0  0  0  0
    6.0200   -3.5840   26.5140 N   0  0  0  0  0  0  0  0  0  0  0  0
    5.0560   -4.5120   26.9950 C   0  0  0  0  0  0  0  0  0  0  0  0
    5.6350   -5.2440   28.1530 C   0  0  0  0  0  0  0  0  0  0  0  0
    5.8900   -4.4670   29.1900 C   0  0  0  0  0  0  0  0  0  0  0  0
    4.7490   -4.0760   29.8360 C   0  0  0  0  0  0  0  0  0  0  0  0
    4.4190   -2.7410   29.9950 O   0  0  0  0  0  0  0  0  0  0  0  0
    3.9390   -5.1340   30.3330 N   0  0  0  0  0  0  0  0  0  0  0  0
    4.3900   -6.3830   30.7150 C   0  0  0  0  0  0  0  0  0  0  0  0
    3.4890   -7.2140   30.0830 C   0  0  0  0  0  0  0  0  0  0  0  0
    2.7770   -4.6070   30.7510 C   0  0  0  0  0  0  0  0  0  0  0  0
    3.0870   -4.0560   32.1200 C   0  0  0  0  0  0  0  0  0  0  0  0
    6.6590   -3.4310   28.8280 C   0  0  0  0  0  0  0  0  0  0  0  0
    6.3580   -2.6900   27.5960 C   0  0  0  0  0  0  0  0  0  0  0  0
    7.0450   -2.7320   23.2030 C   0  0  0  0  0  0  0  0  0  0  0  0
    7.6720   -3.1980   22.0960 C   0  0  0  0  0  0  0  0  0  0  0  0
  1  2  1  0
  2  3  2  0
  2  4  1  0
  4  5  1  0
  5  6  1  0
  6  7  1  0
  7  8  1  0
  8  9  2  0
  8 10  1  0
 10 11  1  0
 11 12  1  0
 12 13  1  0
 13 14  1  0
 14 15  2  0
 14 16  1  0
 16 17  1  0
 17 18  1  0
 16 19  1  0
 19 20  1  0
 13 21  1  0
 10 22  1  0
 21 22  1  0
  7 23  1  0
  4 24  1  0
 23 24  1  0
M  END
