piperidine-amides-12701-covalent
     RDKit          3D

 22 24  0  0  0  0  0  0  0  0999 V2000
    7.1070   -3.2910   19.2530 C   0  0  0  0  0  0  0  0  0  0  0  0
    6.3750   -4.0880   20.2630 C   0  0  0  0  0  0  0  0  0  0  0  0
    5.3030   -4.6070   19.9020 O   0  0  0  0  0  0  0  0  0  0  0  0
    6.9090   -4.2850   21.5390 N   0  0  0  0  0  0  0  0  0  0  0  0
    7.6410   -3.2270   22.1630 C   0  0  0  0  0  0  0  0  0  0  0  0
    7.2130   -2.8880   23.5150 C   0  0  0  0  0  0  0  0  0  0  0  0
    6.4780   -3.9520   24.2300 C   0  0  0  0  0  0  0  0  0  0  0  0
    5.7800   -3.3580   25.3960 C   0  0  0  0  0  0  0  0  0  0  0  0
    4.5460   -3.2020   25.3280 O   0  0  0  0  0  0  0  0  0  0  0  0
    6.4860   -2.9810   26.5500 N   0  0  0  0  0  0  0  0  0  0  0  0
    6.4000   -1.6310   27.1500 C   0  0  0  0  0  0  0  0  0  0  0  0
    6.9300   -1.4280   28.5420 C   0  0  0  0  0  0  0  0  0  0  0  0
    6.8850   -0.1430   29.2380 C   0  0  0  0  0  0  0  0  0  0  0  0
    7.5580    0.0990   31.0230 Br  0  0  0  0  0  0  0  0  0  0  0  0
    6.3310    0.8960   28.5510 C   0  0  0  0  0  0  0  0  0  0  0  0
    6.0910    2.2330   28.8090 C   0  0  0  0  0  0  0  0  0  0  0  0
    5.4610    2.8610   27.6820 N   0  0  0  0  0  0  0  0  0  0  0  0
    5.2910    1.9940   26.7300 N   0  0  0  0  0  0  0  0  0  0  0  0
    5.8170    0.6950   27.1860 C   0  0  0  0  0  0  0  0  0  0  0  0
    5.8120   -0.4510   26.4600 C   0  0  0  0  0  0  0  0  0  0  0  0
    5.6380   -4.8390   23.3970 C   0  0  0  0  0  0  0  0  0  0  0  0
    6.4070   -5.3560   22.3590 C   0  0  0  0  0  0  0  0  0  0  0  0
  1  2  1  0
  2  3  2  0
  2  4  1  0
  4  5  1  0
  5  6  1  0
  6  7  1  0
  7  8  1  0
  8  9  2  0
  8 10  1  0
 10 11  1  0
 11 12  1  0
 12 13  2  0
 13 14  1  0
 13 15  1  0
 15 16  2  0
 16 17  1  0
 17 18  1  0
 15 19  1  0
 18 19  2  0
 11 20  2  0
 19 20  1  0
  7 21  1  0
  4 22  1  0
 21 22  1  0
M  END
