piperidine-amides-24207-covalent
     RDKit          3D

 24 25  0  0  0  0  0  0  0  0999 V2000
    7.1040   -3.2520   19.2610 C   0  0  0  0  0  0  0  0  0  0  0  0
    6.3580   -4.0490   20.2490 C   0  0  0  0  0  0  0  0  0  0  0  0
    5.3150   -4.6540   19.9180 O   0  0  0  0  0  0  0  0  0  0  0  0
    6.8260   -4.1790   21.5610 N   0  0  0  0  0  0  0  0  0  0  0  0
    7.7240   -3.1710   22.1020 C   0  0  0  0  0  0  0  0  0  0  0  0
    7.4160   -3.0390   23.5920 C   0  0  0  0  0  0  0  0  0  0  0  0
    6.0340   -3.6170   23.7530 C   0  0  0  0  0  0  0  0  0  0  0  0
    5.4380   -3.3380   25.0690 C   0  0  0  0  0  0  0  0  0  0  0  0
    4.1930   -3.3220   25.1470 O   0  0  0  0  0  0  0  0  0  0  0  0
    6.2400   -3.1020   26.2050 N   0  0  0  0  0  0  0  0  0  0  0  0
    5.8040   -3.7610   27.4090 C   0  0  0  0  0  0  0  0  0  0  0  0
    6.9530   -4.4910   28.0420 C   0  0  0  0  0  0  0  0  0  0  0  0
    8.1150   -3.8380   28.0490 C   0  0  0  0  0  0  0  0  0  0  0  0
    8.1470   -2.5250   28.4770 C   0  0  0  0  0  0  0  0  0  0  0  0
    7.0680   -1.8840   29.0950 C   0  0  0  0  0  0  0  0  0  0  0  0
    7.3580   -0.9180   30.0270 C   0  0  0  0  0  0  0  0  0  0  0  0
    6.7860   -1.7360   26.3070 C   0  0  0  0  0  0  0  0  0  0  0  0
    5.7330   -0.7580   26.7890 C   0  0  0  0  0  0  0  0  0  0  0  0
    5.8550    0.7630   26.6130 C   0  0  0  0  0  0  0  0  0  0  0  0
    4.5670    0.8570   27.2880 C   0  0  0  0  0  0  0  0  0  0  0  0
    4.0120   -0.3240   27.6680 C   0  0  0  0  0  0  0  0  0  0  0  0
    4.7110   -1.2870   27.3680 O   0  0  0  0  0  0  0  0  0  0  0  0
    6.1280   -5.1310   23.6190 C   0  0  0  0  0  0  0  0  0  0  0  0
    6.6690   -5.4410   22.2500 C   0  0  0  0  0  0  0  0  0  0  0  0
  1  2  1  0
  2  3  2  0
  2  4  1  0
  4  5  1  0
  5  6  1  0
  6  7  1  0
  7  8  1  0
  8  9  2  0
  8 10  1  0
 10 11  1  0
 11 12  1  0
 12 13  1  0
 13 14  1  0
 14 15  1  0
 15 16  1  0
 10 17  1  0
 17 18  1  0
 18 19  2  0
 19 20  1  0
 20 21  2  0
 18 22  1  0
 21 22  1  0
  7 23  1  0
  4 24  1  0
 23 24  1  0
M  END
