piperidine-amides-14497-covalent
     RDKit          3D

 23 24  0  0  0  0  0  0  0  0999 V2000
    7.0850   -3.3390   19.3290 C   0  0  0  0  0  0  0  0  0  0  0  0
    6.4240   -4.1880   20.3140 C   0  0  0  0  0  0  0  0  0  0  0  0
    5.3800   -4.7760   19.9720 O   0  0  0  0  0  0  0  0  0  0  0  0
    7.0080   -4.3740   21.5980 N   0  0  0  0  0  0  0  0  0  0  0  0
    7.6730   -3.2580   22.2050 C   0  0  0  0  0  0  0  0  0  0  0  0
    6.7730   -2.7020   23.2590 C   0  0  0  0  0  0  0  0  0  0  0  0
    6.5620   -3.8070   24.2640 C   0  0  0  0  0  0  0  0  0  0  0  0
    5.7660   -3.2740   25.4090 C   0  0  0  0  0  0  0  0  0  0  0  0
    4.5920   -2.9890   25.1750 O   0  0  0  0  0  0  0  0  0  0  0  0
    6.3920   -3.1380   26.6370 N   0  0  0  0  0  0  0  0  0  0  0  0
    6.4760   -1.9010   27.3280 C   0  0  0  0  0  0  0  0  0  0  0  0
    7.0120   -1.6080   28.6130 C   0  0  0  0  0  0  0  0  0  0  0  0
    7.0760   -0.3840   29.2760 C   0  0  0  0  0  0  0  0  0  0  0  0
    7.6800   -0.4030   30.5840 N   0  0  0  0  0  0  0  0  0  0  0  0
    6.6090    0.8320   28.7830 C   0  0  0  0  0  0  0  0  0  0  0  0
    6.0120    0.7280   27.4350 C   0  0  0  0  0  0  0  0  0  0  0  0
    5.4380    1.9560   26.6970 C   0  0  0  0  0  0  0  0  0  0  0  0
    6.4960    2.9990   26.6770 C   0  0  0  0  0  0  0  0  0  0  0  0
    5.1300    1.5810   25.2690 C   0  0  0  0  0  0  0  0  0  0  0  0
    4.2110    2.4060   27.1800 C   0  0  0  0  0  0  0  0  0  0  0  0
    5.9680   -0.6030   26.7720 C   0  0  0  0  0  0  0  0  0  0  0  0
    5.7830   -4.9100   23.6020 C   0  0  0  0  0  0  0  0  0  0  0  0
    6.4770   -5.4560   22.3830 C   0  0  0  0  0  0  0  0  0  0  0  0
  1  2  1  0
  2  3  2  0
  2  4  1  0
  4  5  1  0
  5  6  1  0
  6  7  1  0
  7  8  1  0
  8  9  2  0
  8 10  1  0
 10 11  1  0
 11 12  2  0
 12 13  1  0
 13 14  1  0
 13 15  2  0
 15 16  1  0
 16 17  1  0
 17 18  1  0
 17 19  1  0
 17 20  1  0
 11 21  1  0
 16 21  2  0
  7 22  1  0
  4 23  1  0
 22 23  1  0
M  END
