piperidine-amides-25763-covalent
     RDKit          3D

 25 27  0  0  0  0  0  0  0  0999 V2000
    7.0420   -3.2830   19.2310 C   0  0  0  0  0  0  0  0  0  0  0  0
    6.2990   -4.0720   20.2550 C   0  0  0  0  0  0  0  0  0  0  0  0
    5.2610   -4.6170   19.8950 O   0  0  0  0  0  0  0  0  0  0  0  0
    6.8020   -4.2040   21.5490 N   0  0  0  0  0  0  0  0  0  0  0  0
    7.6410   -3.2050   22.1420 C   0  0  0  0  0  0  0  0  0  0  0  0
    7.2940   -3.1260   23.5880 C   0  0  0  0  0  0  0  0  0  0  0  0
    5.8790   -3.6180   23.7920 C   0  0  0  0  0  0  0  0  0  0  0  0
    5.4910   -3.4440   25.2100 C   0  0  0  0  0  0  0  0  0  0  0  0
    4.3450   -3.7590   25.5480 O   0  0  0  0  0  0  0  0  0  0  0  0
    6.3760   -2.9220   26.1840 N   0  0  0  0  0  0  0  0  0  0  0  0
    6.7880   -1.5350   26.0660 C   0  0  0  0  0  0  0  0  0  0  0  0
    5.6150   -0.6370   25.7140 C   0  0  0  0  0  0  0  0  0  0  0  0
    4.3350   -1.0910   26.0140 C   0  0  0  0  0  0  0  0  0  0  0  0
    3.2340   -0.4080   25.7680 C   0  0  0  0  0  0  0  0  0  0  0  0
    3.4150    0.7640   25.2070 C   0  0  0  0  0  0  0  0  0  0  0  0
    2.3350    1.5390   24.9220 O   0  0  0  0  0  0  0  0  0  0  0  0
    4.6980    1.4060   24.8170 C   0  0  0  0  0  0  0  0  0  0  0  0
    6.0160    0.6840   25.0640 C   0  0  0  0  0  0  0  0  0  0  0  0
    6.2510   -3.4030   27.5470 C   0  0  1  0  0  0  0  0  0  0  0  0
    6.8680   -4.7410   27.8550 C   0  0  0  0  0  0  0  0  0  0  0  0
    6.6010   -2.5080   28.7340 C   0  0  0  0  0  0  0  0  0  0  0  0
    6.0660   -1.2880   28.3910 C   0  0  0  0  0  0  0  0  0  0  0  0
    5.4710   -1.7930   29.6740 C   0  0  0  0  0  0  0  0  0  0  0  0
    5.7630   -5.0980   23.4280 C   0  0  0  0  0  0  0  0  0  0  0  0
    6.5510   -5.4070   22.3310 C   0  0  0  0  0  0  0  0  0  0  0  0
  1  2  1  0
  2  3  2  0
  2  4  1  0
  4  5  1  0
  5  6  1  0
  6  7  1  0
  7  8  1  0
  8  9  2  0
  8 10  1  0
 10 11  1  0
 11 12  1  0
 12 13  2  0
 13 14  1  0
 14 15  2  0
 15 16  1  0
 15 17  1  0
 12 18  1  0
 17 18  2  0
 10 19  1  0
 19 20  1  6
 19 21  1  0
 21 22  1  0
 21 23  1  0
 22 23  1  0
  7 24  1  0
  4 25  1  0
 24 25  1  0
M  END
