piperidine-amides-12741-covalent
     RDKit          3D

 22 24  0  0  0  0  0  0  0  0999 V2000
    7.0990   -3.3170   19.2120 C   0  0  0  0  0  0  0  0  0  0  0  0
    6.3260   -4.0510   20.2310 C   0  0  0  0  0  0  0  0  0  0  0  0
    5.2420   -4.5390   19.8720 O   0  0  0  0  0  0  0  0  0  0  0  0
    6.8420   -4.2310   21.5150 N   0  0  0  0  0  0  0  0  0  0  0  0
    7.5250   -3.1580   22.1600 C   0  0  0  0  0  0  0  0  0  0  0  0
    6.9330   -2.7500   23.4330 C   0  0  0  0  0  0  0  0  0  0  0  0
    6.5270   -3.8850   24.2740 C   0  0  0  0  0  0  0  0  0  0  0  0
    5.7400   -3.4560   25.4640 C   0  0  0  0  0  0  0  0  0  0  0  0
    5.1490   -4.3280   26.1130 O   0  0  0  0  0  0  0  0  0  0  0  0
    5.6000   -2.1130   25.8530 N   0  0  0  0  0  0  0  0  0  0  0  0
    6.5030   -1.3760   26.7590 C   0  0  2  0  0  0  0  0  0  0  0  0
    6.5490   -1.8110   28.2000 C   0  0  0  0  0  0  0  0  0  0  0  0
    6.5070   -0.6160   29.0170 C   0  0  0  0  0  0  0  0  0  0  0  0
    6.2180    0.3930   28.1480 C   0  0  0  0  0  0  0  0  0  0  0  0
    5.9480    1.6840   28.2900 C   0  0  0  0  0  0  0  0  0  0  0  0
    5.8940    1.2570   26.6060 Cl  0  0  0  0  0  0  0  0  0  0  0  0
    5.6560    2.7490   27.5650 C   0  0  0  0  0  0  0  0  0  0  0  0
    5.6240    2.3900   26.2250 C   0  0  0  0  0  0  0  0  0  0  0  0
    5.8830    1.0560   25.8120 C   0  0  0  0  0  0  0  0  0  0  0  0
    6.1810    0.0800   26.8190 C   0  0  0  0  0  0  0  0  0  0  0  0
    5.8540   -5.0020   23.5710 C   0  0  0  0  0  0  0  0  0  0  0  0
    6.5570   -5.4150   22.3100 C   0  0  0  0  0  0  0  0  0  0  0  0
  1  2  1  0
  2  3  2  0
  2  4  1  0
  4  5  1  0
  5  6  1  0
  6  7  1  0
  7  8  1  0
  8  9  2  0
  8 10  1  0
 11 10  1  6
 11 12  1  0
 12 13  1  0
 13 14  1  0
 14 15  1  0
 15 16  1  0
 15 17  2  0
 17 18  1  0
 18 19  2  0
 11 20  1  0
 14 20  2  0
 19 20  1  0
  7 21  1  0
  4 22  1  0
 21 22  1  0
M  END
