piperidine-amides-9165-covalent
     RDKit          3D

 21 22  0  0  0  0  0  0  0  0999 V2000
    7.1510   -3.2800   19.2130 C   0  0  0  0  0  0  0  0  0  0  0  0
    6.3270   -3.9870   20.1900 C   0  0  0  0  0  0  0  0  0  0  0  0
    5.2320   -4.4580   19.8450 O   0  0  0  0  0  0  0  0  0  0  0  0
    6.7730   -4.2100   21.4970 N   0  0  0  0  0  0  0  0  0  0  0  0
    6.4390   -5.3940   22.2490 C   0  0  0  0  0  0  0  0  0  0  0  0
    5.6660   -4.8910   23.4390 C   0  0  0  0  0  0  0  0  0  0  0  0
    6.4610   -3.8740   24.2050 C   0  0  0  0  0  0  0  0  0  0  0  0
    5.7670   -3.3980   25.4290 C   0  0  0  0  0  0  0  0  0  0  0  0
    4.5400   -3.0850   25.3840 O   0  0  0  0  0  0  0  0  0  0  0  0
    6.4120   -3.2630   26.6830 N   0  0  0  0  0  0  0  0  0  0  0  0
    6.1610   -4.2120   27.8030 C   0  0  0  0  0  0  0  0  0  0  0  0
    5.7880   -5.5380   27.2390 C   0  0  0  0  0  0  0  0  0  0  0  0
    5.2300   -6.3350   28.1750 N   0  0  0  0  0  0  0  0  0  0  0  0
    5.9000   -7.0630   29.2170 C   0  0  0  0  0  0  0  0  0  0  0  0
    4.9890   -7.7450   29.9410 N   0  0  0  0  0  0  0  0  0  0  0  0
    3.7020   -7.6020   29.5510 C   0  0  0  0  0  0  0  0  0  0  0  0
    2.3610   -8.1330   30.0160 C   0  0  0  0  0  0  0  0  0  0  0  0
    3.8260   -6.6650   28.3690 C   0  0  0  0  0  0  0  0  0  0  0  0
    2.7960   -6.1980   27.6000 C   0  0  0  0  0  0  0  0  0  0  0  0
    6.8450   -2.6980   23.3450 C   0  0  0  0  0  0  0  0  0  0  0  0
    7.6060   -3.2180   22.1530 C   0  0  0  0  0  0  0  0  0  0  0  0
  1  2  1  0
  2  3  2  0
  2  4  1  0
  4  5  1  0
  5  6  1  0
  6  7  1  0
  7  8  1  0
  8  9  2  0
  8 10  1  0
 10 11  1  0
 11 12  1  0
 12 13  1  0
 13 14  1  0
 14 15  2  0
 15 16  1  0
 16 17  1  0
 13 18  1  0
 16 18  2  0
 18 19  1  0
  7 20  1  0
  4 21  1  0
 20 21  1  0
M  END
