piperidine-amides-11882-covalent
     RDKit          3D

 26 29  0  0  0  0  0  0  0  0999 V2000
    7.0560   -3.3520   19.3080 C   0  0  0  0  0  0  0  0  0  0  0  0
    6.3740   -4.1720   20.3020 C   0  0  0  0  0  0  0  0  0  0  0  0
    5.3700   -4.8080   19.9750 O   0  0  0  0  0  0  0  0  0  0  0  0
    6.8940   -4.2880   21.6360 N   0  0  0  0  0  0  0  0  0  0  0  0
    7.6930   -3.2230   22.1950 C   0  0  0  0  0  0  0  0  0  0  0  0
    7.0170   -2.6560   23.4030 C   0  0  0  0  0  0  0  0  0  0  0  0
    6.5260   -3.8190   24.2450 C   0  0  0  0  0  0  0  0  0  0  0  0
    5.7280   -3.2740   25.3820 C   0  0  0  0  0  0  0  0  0  0  0  0
    4.4940   -3.1160   25.2990 O   0  0  0  0  0  0  0  0  0  0  0  0
    6.3750   -2.9230   26.5990 N   0  0  0  0  0  0  0  0  0  0  0  0
    6.5730   -1.5140   26.9050 C   0  0  2  0  0  0  0  0  0  0  0  0
    7.1360   -1.4320   28.3020 C   0  0  0  0  0  0  0  0  0  0  0  0
    6.4810   -0.4600   29.0040 C   0  0  0  0  0  0  0  0  0  0  0  0
    5.5730    0.0950   28.0440 N   0  0  0  0  0  0  0  0  0  0  0  0
    4.3550    0.6010   28.6150 C   0  0  0  0  0  0  0  0  0  0  0  0
    3.2950    0.8300   27.7290 C   0  0  0  0  0  0  0  0  0  0  0  0
    2.0630    1.3410   28.2950 C   0  0  0  0  0  0  0  0  0  0  0  0
    2.0050    1.5660   29.6210 C   0  0  0  0  0  0  0  0  0  0  0  0
    0.8750    2.0420   30.1720 N   0  0  0  0  0  0  0  0  0  0  0  0
    1.1190    2.1530   31.4410 N   0  0  0  0  0  0  0  0  0  0  0  0
    2.4930    1.7170   31.6810 C   0  0  0  0  0  0  0  0  0  0  0  0
    3.0330    1.3430   30.4640 N   0  0  0  0  0  0  0  0  0  0  0  0
    4.1640    0.8730   29.9490 N   0  0  0  0  0  0  0  0  0  0  0  0
    5.6150   -0.5500   26.8390 C   0  0  0  0  0  0  0  0  0  0  0  0
    5.8020   -4.8730   23.5400 C   0  0  0  0  0  0  0  0  0  0  0  0
    6.5600   -5.3860   22.5000 C   0  0  0  0  0  0  0  0  0  0  0  0
  1  2  1  0
  2  3  2  0
  2  4  1  0
  4  5  1  0
  5  6  1  0
  6  7  1  0
  7  8  1  0
  8  9  2  0
  8 10  1  0
 11 10  1  1
 11 12  1  0
 12 13  1  0
 13 14  1  0
 14 15  1  0
 15 16  1  0
 16 17  2  0
 17 18  1  0
 18 19  2  0
 19 20  1  0
 20 21  2  0
 18 22  1  0
 21 22  1  0
 15 23  2  0
 22 23  1  0
 11 24  1  0
 14 24  1  0
  7 25  1  0
  4 26  1  0
 25 26  1  0
M  END
