piperidine-amides-15343-covalent
     RDKit          3D

 17 18  0  0  0  0  0  0  0  0999 V2000
    7.0560   -3.3170   19.3340 C   0  0  0  0  0  0  0  0  0  0  0  0
    6.3810   -4.1820   20.3170 C   0  0  0  0  0  0  0  0  0  0  0  0
    5.3710   -4.8380   19.9800 O   0  0  0  0  0  0  0  0  0  0  0  0
    6.8920   -4.3100   21.6200 N   0  0  0  0  0  0  0  0  0  0  0  0
    6.6660   -5.5570   22.3430 C   0  0  0  0  0  0  0  0  0  0  0  0
    6.3120   -5.2730   23.8240 C   0  0  0  0  0  0  0  0  0  0  0  0
    6.1370   -3.7820   23.9960 C   0  0  0  0  0  0  0  0  0  0  0  0
    5.5900   -3.4460   25.3300 C   0  0  0  0  0  0  0  0  0  0  0  0
    4.3940   -3.0940   25.3730 O   0  0  0  0  0  0  0  0  0  0  0  0
    6.3450   -3.5110   26.5230 N   0  0  0  0  0  0  0  0  0  0  0  0
    5.7050   -3.6770   27.8210 C   0  0  0  0  0  0  0  0  0  0  0  0
    6.4890   -4.7670   28.4600 C   0  0  0  0  0  0  0  0  0  0  0  0
    7.6860   -4.7650   27.8700 C   0  0  0  0  0  0  0  0  0  0  0  0
    7.7210   -3.7040   26.9880 C   0  0  2  0  0  0  0  0  0  0  0  0
    7.9900   -2.4010   27.4090 C   0  0  0  0  0  0  0  0  0  0  0  0
    7.3620   -3.0360   23.6540 C   0  0  0  0  0  0  0  0  0  0  0  0
    7.7100   -3.2710   22.2160 C   0  0  0  0  0  0  0  0  0  0  0  0
  1  2  1  0
  2  3  2  0
  2  4  1  0
  4  5  1  0
  5  6  1  0
  6  7  1  0
  7  8  1  0
  8  9  2  0
  8 10  1  0
 10 11  1  0
 11 12  1  0
 12 13  1  0
 10 14  1  0
 13 14  1  0
 14 15  1  1
  7 16  1  0
  4 17  1  0
 16 17  1  0
M  END
