piperidine-amides-19587-covalent
     RDKit          3D

 22 24  0  0  0  0  0  0  0  0999 V2000
    7.1030   -3.3570   19.4640 C   0  0  0  0  0  0  0  0  0  0  0  0
    6.4330   -4.2090   20.4220 C   0  0  0  0  0  0  0  0  0  0  0  0
    5.4630   -4.9270   20.0070 O   0  0  0  0  0  0  0  0  0  0  0  0
    6.8510   -4.2850   21.7770 N   0  0  0  0  0  0  0  0  0  0  0  0
    6.5600   -5.5100   22.5230 C   0  0  0  0  0  0  0  0  0  0  0  0
    5.4930   -4.9150   23.5160 C   0  0  0  0  0  0  0  0  0  0  0  0
    6.1050   -3.7540   24.3000 C   0  0  0  0  0  0  0  0  0  0  0  0
    4.9010   -3.2000   25.2250 C   0  0  0  0  0  0  0  0  0  0  0  0
    3.9790   -2.8980   24.4970 O   0  0  0  0  0  0  0  0  0  0  0  0
    5.1360   -3.1830   26.4920 N   0  0  0  0  0  0  0  0  0  0  0  0
    5.0390   -2.9090   27.7910 C   0  0  0  0  0  0  0  0  0  0  0  0
    5.5060   -3.5730   28.8330 C   0  0  0  0  0  0  0  0  0  0  0  0
    6.3580   -4.5360   28.2930 C   0  0  1  0  0  0  0  0  0  0  0  0
    5.9910   -5.9560   28.4780 C   0  0  0  0  0  0  0  0  0  0  0  0
    4.7700   -6.4040   27.9340 N   0  0  0  0  0  0  0  0  0  0  0  0
    4.3940   -6.7220   26.6030 C   0  0  0  0  0  0  0  0  0  0  0  0
    3.0920   -7.0810   26.8260 C   0  0  0  0  0  0  0  0  0  0  0  0
    2.7340   -6.9850   28.1360 N   0  0  0  0  0  0  0  0  0  0  0  0
    3.8400   -6.5460   28.8390 N   0  0  0  0  0  0  0  0  0  0  0  0
    6.2600   -3.9480   26.8640 C   0  0  0  0  0  0  0  0  0  0  0  0
    6.9380   -2.7630   23.6320 C   0  0  0  0  0  0  0  0  0  0  0  0
    7.7220   -3.3940   22.4260 C   0  0  0  0  0  0  0  0  0  0  0  0
  1  2  1  0
  2  3  2  0
  2  4  1  0
  4  5  1  0
  5  6  1  0
  6  7  1  0
  7  8  1  0
  8  9  2  0
  8 10  1  0
 10 11  1  0
 11 12  1  0
 12 13  1  0
 13 14  1  6
 14 15  1  0
 15 16  1  0
 16 17  2  0
 17 18  1  0
 15 19  1  0
 18 19  2  0
 10 20  1  0
 13 20  1  0
  7 21  1  0
  4 22  1  0
 21 22  1  0
M  END
