piperidine-amides-9262-covalent
     RDKit          3D

 20 21  0  0  0  0  0  0  0  0999 V2000
    7.0970   -3.2670   19.1980 C   0  0  0  0  0  0  0  0  0  0  0  0
    6.3300   -3.9950   20.2140 C   0  0  0  0  0  0  0  0  0  0  0  0
    5.2760   -4.5650   19.8880 O   0  0  0  0  0  0  0  0  0  0  0  0
    6.7910   -4.1020   21.5380 N   0  0  0  0  0  0  0  0  0  0  0  0
    7.7180   -3.1460   22.1020 C   0  0  0  0  0  0  0  0  0  0  0  0
    7.1530   -2.7360   23.4290 C   0  0  0  0  0  0  0  0  0  0  0  0
    6.7620   -3.9070   24.2730 C   0  0  0  0  0  0  0  0  0  0  0  0
    6.1450   -3.4680   25.5460 C   0  0  0  0  0  0  0  0  0  0  0  0
    4.8820   -3.3850   25.6570 O   0  0  0  0  0  0  0  0  0  0  0  0
    6.9290   -3.0940   26.6680 N   0  0  0  0  0  0  0  0  0  0  0  0
    7.6130   -4.1030   27.5190 C   0  0  2  0  0  0  0  0  0  0  0  0
    8.4640   -4.9840   26.6790 C   0  0  0  0  0  0  0  0  0  0  0  0
    6.6260   -5.0470   28.2150 C   0  0  0  0  0  0  0  0  0  0  0  0
    5.2610   -4.4070   28.2770 C   0  0  0  0  0  0  0  0  0  0  0  0
    4.1570   -5.2440   28.9530 C   0  0  0  0  0  0  0  0  0  0  0  0
    4.5890   -6.5860   29.4630 C   0  0  0  0  0  0  0  0  0  0  0  0
    5.8800   -6.9920   29.3130 C   0  0  0  0  0  0  0  0  0  0  0  0
    6.8910   -6.2700   28.7120 C   0  0  0  0  0  0  0  0  0  0  0  0
    5.7980   -4.8720   23.5580 C   0  0  0  0  0  0  0  0  0  0  0  0
    6.5030   -5.3140   22.2680 C   0  0  0  0  0  0  0  0  0  0  0  0
  1  2  1  0
  2  3  2  0
  2  4  1  0
  4  5  1  0
  5  6  1  0
  6  7  1  0
  7  8  1  0
  8  9  2  0
  8 10  1  0
 10 11  1  0
 11 12  1  6
 11 13  1  0
 13 14  2  0
 14 15  1  0
 15 16  2  0
 16 17  1  0
 13 18  1  0
 17 18  2  0
  7 19  1  0
  4 20  1  0
 19 20  1  0
M  END
