piperidine-amides-34971-covalent
     RDKit          3D

 28 30  0  0  0  0  0  0  0  0999 V2000
    7.0310   -3.3220   19.3610 C   0  0  0  0  0  0  0  0  0  0  0  0
    6.3640   -4.1770   20.3770 C   0  0  0  0  0  0  0  0  0  0  0  0
    5.4120   -4.8560   19.9890 O   0  0  0  0  0  0  0  0  0  0  0  0
    6.8400   -4.2180   21.6980 N   0  0  0  0  0  0  0  0  0  0  0  0
    7.7340   -3.2060   22.2230 C   0  0  0  0  0  0  0  0  0  0  0  0
    7.4480   -2.9850   23.6760 C   0  0  0  0  0  0  0  0  0  0  0  0
    6.0790   -3.5900   23.9490 C   0  0  0  0  0  0  0  0  0  0  0  0
    5.4930   -3.0630   25.2140 C   0  0  0  0  0  0  0  0  0  0  0  0
    4.4390   -2.4240   25.1190 O   0  0  0  0  0  0  0  0  0  0  0  0
    6.0350   -3.2410   26.5090 N   0  0  0  0  0  0  0  0  0  0  0  0
    6.2690   -2.0170   27.2820 C   0  0  0  0  0  0  0  0  0  0  0  0
    5.7170   -0.7360   26.6940 C   0  0  0  0  0  0  0  0  0  0  0  0
    5.8240    0.4980   27.2980 C   0  0  0  0  0  0  0  0  0  0  0  0
    6.4630    0.6190   28.5070 C   0  0  0  0  0  0  0  0  0  0  0  0
    6.6000    2.3110   29.3490 Br  0  0  0  0  0  0  0  0  0  0  0  0
    6.9980   -0.5120   29.0860 C   0  0  0  0  0  0  0  0  0  0  0  0
    6.9140   -1.8870   28.4780 C   0  0  0  0  0  0  0  0  0  0  0  0
    5.6180   -4.4150   27.2350 C   0  0  0  0  0  0  0  0  0  0  0  0
    6.6390   -4.7730   28.2240 N   0  0  0  0  0  0  0  0  0  0  0  0
    6.2830   -5.9520   28.9670 C   0  0  0  0  0  0  0  0  0  0  0  0
    5.0510   -6.7600   28.8150 C   0  0  0  0  0  0  0  0  0  0  0  0
    4.0730   -6.3180   27.8020 C   0  0  0  0  0  0  0  0  0  0  0  0
    4.3040   -5.0950   26.9360 C   0  0  0  0  0  0  0  0  0  0  0  0
    3.3480   -4.8090   26.0700 N   0  0  0  0  0  0  0  0  0  0  0  0
    3.0120   -5.7100   25.2100 O   0  0  0  0  0  0  0  0  0  0  0  0
    2.3230   -4.0260   26.5350 O   0  0  0  0  0  0  0  0  0  0  0  0
    6.1640   -5.0990   23.8770 C   0  0  0  0  0  0  0  0  0  0  0  0
    6.6860   -5.4320   22.4910 C   0  0  0  0  0  0  0  0  0  0  0  0
  1  2  1  0
  2  3  2  0
  2  4  1  0
  4  5  1  0
  5  6  1  0
  6  7  1  0
  7  8  1  0
  8  9  2  0
  8 10  1  0
 10 11  1  0
 11 12  2  0
 12 13  1  0
 13 14  2  0
 14 15  1  0
 14 16  1  0
 11 17  1  0
 16 17  2  0
 10 18  1  0
 18 19  2  0
 19 20  1  0
 20 21  2  0
 21 22  1  0
 18 23  1  0
 22 23  2  0
 23 24  1  0
 24 25  2  0
 24 26  1  0
  7 27  1  0
  4 28  1  0
 27 28  1  0
M  CHG  2  24   1  26  -1
M  END
