piperidine-amides-35501-covalent
     RDKit          3D

 32 35  0  0  0  0  0  0  0  0999 V2000
    7.0660   -3.3260   19.3410 C   0  0  0  0  0  0  0  0  0  0  0  0
    6.3830   -4.2100   20.3200 C   0  0  0  0  0  0  0  0  0  0  0  0
    5.3450   -4.7500   19.9500 O   0  0  0  0  0  0  0  0  0  0  0  0
    6.9350   -4.4470   21.5800 N   0  0  0  0  0  0  0  0  0  0  0  0
    6.6550   -5.6540   22.3000 C   0  0  0  0  0  0  0  0  0  0  0  0
    6.1820   -5.2760   23.6700 C   0  0  0  0  0  0  0  0  0  0  0  0
    5.7380   -3.8160   23.6520 C   0  0  0  0  0  0  0  0  0  0  0  0
    5.2340   -3.4750   24.9890 C   0  0  0  0  0  0  0  0  0  0  0  0
    4.0450   -3.6610   25.2650 O   0  0  0  0  0  0  0  0  0  0  0  0
    6.0770   -2.9330   25.9480 N   0  0  0  0  0  0  0  0  0  0  0  0
    7.0700   -3.7750   26.5610 C   0  0  0  0  0  0  0  0  0  0  0  0
    8.4390   -3.4880   25.9680 C   0  0  0  0  0  0  0  0  0  0  0  0
    8.6300   -2.3940   25.1640 C   0  0  0  0  0  0  0  0  0  0  0  0
    9.7890   -2.0780   24.6370 C   0  0  0  0  0  0  0  0  0  0  0  0
   10.7940   -2.8710   24.9170 C   0  0  0  0  0  0  0  0  0  0  0  0
   12.3760   -2.4890   24.2510 Cl  0  0  0  0  0  0  0  0  0  0  0  0
   10.7930   -4.1110   25.7630 C   0  0  0  0  0  0  0  0  0  0  0  0
    9.4490   -4.5070   26.3900 C   0  0  0  0  0  0  0  0  0  0  0  0
    9.0930   -5.8550   27.4130 Cl  0  0  0  0  0  0  0  0  0  0  0  0
    6.0310   -1.5150   26.2010 C   0  0  0  0  0  0  0  0  0  0  0  0
    5.6620   -1.0800   27.3620 N   0  0  0  0  0  0  0  0  0  0  0  0
    5.6810    0.3850   27.4600 C   0  0  0  0  0  0  0  0  0  0  0  0
    5.3160    1.1540   28.6910 C   0  0  0  0  0  0  0  0  0  0  0  0
    5.3570    2.6660   28.7630 C   0  0  0  0  0  0  0  0  0  0  0  0
    5.7850    3.3640   27.5280 C   0  0  0  0  0  0  0  0  0  0  0  0
    5.8270    4.7650   27.6060 O   0  0  0  0  0  0  0  0  0  0  0  0
    7.1140    5.1890   27.4060 C   0  0  0  0  0  0  0  0  0  0  0  0
    6.1340    2.5800   26.3250 C   0  0  0  0  0  0  0  0  0  0  0  0
    6.0730    1.0660   26.3150 C   0  0  0  0  0  0  0  0  0  0  0  0
    6.3730   -0.1820   25.2140 S   0  0  0  0  0  0  0  0  0  0  0  0
    6.8380   -2.7930   23.3130 C   0  0  0  0  0  0  0  0  0  0  0  0
    7.6960   -3.3960   22.2160 C   0  0  0  0  0  0  0  0  0  0  0  0
  1  2  1  0
  2  3  2  0
  2  4  1  0
  4  5  1  0
  5  6  1  0
  6  7  1  0
  7  8  1  0
  8  9  2  0
  8 10  1  0
 10 11  1  0
 11 12  1  0
 12 13  2  0
 13 14  1  0
 14 15  2  0
 15 16  1  0
 15 17  1  0
 12 18  1  0
 17 18  2  0
 18 19  1  0
 10 20  1  0
 20 21  2  0
 21 22  1  0
 22 23  2  0
 23 24  1  0
 24 25  2  0
 25 26  1  0
 26 27  1  0
 25 28  1  0
 22 29  1  0
 28 29  2  0
 20 30  1  0
 29 30  1  0
  7 31  1  0
  4 32  1  0
 31 32  1  0
M  END
