piperidine-amides-35422-covalent
     RDKit          3D

 34 37  0  0  0  0  0  0  0  0999 V2000
    7.0940   -3.3600   19.3140 C   0  0  0  0  0  0  0  0  0  0  0  0
    6.4040   -4.1860   20.3310 C   0  0  0  0  0  0  0  0  0  0  0  0
    5.3860   -4.7820   19.9730 O   0  0  0  0  0  0  0  0  0  0  0  0
    6.9530   -4.2980   21.6120 N   0  0  0  0  0  0  0  0  0  0  0  0
    7.7590   -3.2560   22.1800 C   0  0  0  0  0  0  0  0  0  0  0  0
    7.0340   -2.6910   23.3550 C   0  0  0  0  0  0  0  0  0  0  0  0
    6.5490   -3.8160   24.2720 C   0  0  0  0  0  0  0  0  0  0  0  0
    5.7320   -3.1470   25.3030 C   0  0  0  0  0  0  0  0  0  0  0  0
    4.6630   -2.6160   24.9720 O   0  0  0  0  0  0  0  0  0  0  0  0
    6.1270   -3.1130   26.6480 N   0  0  0  0  0  0  0  0  0  0  0  0
    6.2900   -1.8290   27.3130 C   0  0  0  0  0  0  0  0  0  0  0  0
    5.6800   -0.6070   26.6730 C   0  0  0  0  0  0  0  0  0  0  0  0
    5.7710    0.6510   27.2230 C   0  0  0  0  0  0  0  0  0  0  0  0
    6.4480    0.7920   28.3970 C   0  0  0  0  0  0  0  0  0  0  0  0
    7.0430   -0.2470   29.0610 C   0  0  0  0  0  0  0  0  0  0  0  0
    7.7220   -0.0910   30.2250 O   0  0  0  0  0  0  0  0  0  0  0  0
    7.0600   -0.1390   31.4040 C   0  0  0  0  0  0  0  0  0  0  0  0
    7.0190   -1.6150   28.5970 C   0  0  0  0  0  0  0  0  0  0  0  0
    5.7070   -4.2290   27.4540 C   0  0  0  0  0  0  0  0  0  0  0  0
    5.5820   -4.0790   28.7500 N   0  0  0  0  0  0  0  0  0  0  0  0
    5.1590   -5.3490   29.2750 C   0  0  0  0  0  0  0  0  0  0  0  0
    4.8130   -5.9820   30.5750 C   0  0  0  0  0  0  0  0  0  0  0  0
    3.6820   -5.5950   31.5170 C   0  0  0  0  0  0  0  0  0  0  0  0
    3.5080   -6.3810   32.7700 C   0  0  0  0  0  0  0  0  0  0  0  0
    4.4820   -7.5060   33.0020 C   0  0  0  0  0  0  0  0  0  0  0  0
    4.5080   -8.3650   34.0740 N   0  0  0  0  0  0  0  0  0  0  0  0
    3.9170   -8.1820   35.2940 O   0  0  0  0  0  0  0  0  0  0  0  0
    5.0870   -9.5160   33.8600 O   0  0  0  0  0  0  0  0  0  0  0  0
    5.4920   -7.8140   32.1280 C   0  0  0  0  0  0  0  0  0  0  0  0
    5.6680   -7.0230   30.8570 C   0  0  0  0  0  0  0  0  0  0  0  0
    4.9240   -6.5700   28.4660 C   0  0  0  0  0  0  0  0  0  0  0  0
    5.3120   -5.8460   26.9830 S   0  0  0  0  0  0  0  0  0  0  0  0
    5.7490   -4.8430   23.4660 C   0  0  0  0  0  0  0  0  0  0  0  0
    6.5850   -5.3510   22.5180 C   0  0  0  0  0  0  0  0  0  0  0  0
  1  2  1  0
  2  3  2  0
  2  4  1  0
  4  5  1  0
  5  6  1  0
  6  7  1  0
  7  8  1  0
  8  9  2  0
  8 10  1  0
 10 11  1  0
 11 12  2  0
 12 13  1  0
 13 14  2  0
 14 15  1  0
 15 16  1  0
 16 17  1  0
 11 18  1  0
 15 18  2  0
 10 19  1  0
 19 20  2  0
 20 21  1  0
 21 22  1  0
 22 23  2  0
 23 24  1  0
 24 25  2  0
 25 26  1  0
 26 27  2  0
 26 28  1  0
 25 29  1  0
 22 30  1  0
 29 30  2  0
 21 31  2  0
 19 32  1  0
 31 32  1  0
  7 33  1  0
  4 34  1  0
 33 34  1  0
M  CHG  2  26   1  28  -1
M  END
