piperidine-amides-30293-covalent
     RDKit          3D

 27 30  0  0  0  0  0  0  0  0999 V2000
    7.0480   -3.3400   19.3370 C   0  0  0  0  0  0  0  0  0  0  0  0
    6.3500   -4.1950   20.2880 C   0  0  0  0  0  0  0  0  0  0  0  0
    5.3290   -4.7910   19.9560 O   0  0  0  0  0  0  0  0  0  0  0  0
    6.8810   -4.3850   21.6010 N   0  0  0  0  0  0  0  0  0  0  0  0
    7.6070   -3.3090   22.2340 C   0  0  0  0  0  0  0  0  0  0  0  0
    7.3460   -3.3250   23.7060 C   0  0  0  0  0  0  0  0  0  0  0  0
    5.9670   -3.8690   23.9140 C   0  0  0  0  0  0  0  0  0  0  0  0
    5.4180   -3.5490   25.2660 C   0  0  0  0  0  0  0  0  0  0  0  0
    4.2480   -3.1490   25.3930 O   0  0  0  0  0  0  0  0  0  0  0  0
    6.1890   -3.6750   26.4480 N   0  0  0  0  0  0  0  0  0  0  0  0
    5.9100   -2.6170   27.4120 C   0  0  0  0  0  0  0  0  0  0  0  0
    5.9840   -3.2020   28.7720 C   0  0  0  0  0  0  0  0  0  0  0  0
    6.8870   -4.1810   28.8640 C   0  0  0  0  0  0  0  0  0  0  0  0
    6.7400   -5.2540   28.0710 C   0  0  1  0  0  0  0  0  0  0  0  0
    7.5580   -6.2860   28.4560 C   0  0  0  0  0  0  0  0  0  0  0  0
    6.6770   -7.3470   28.9300 C   0  0  0  0  0  0  0  0  0  0  0  0
    6.7120   -8.6870   29.3570 C   0  0  0  0  0  0  0  0  0  0  0  0
    5.5930   -9.0950   29.6690 O   0  0  0  0  0  0  0  0  0  0  0  0
    7.9040   -9.5010   29.3690 N   0  0  0  0  0  0  0  0  0  0  0  0
    8.2260  -10.9670   29.5590 C   0  0  0  0  0  0  0  0  0  0  0  0
    9.4800  -11.3540   29.2960 C   0  0  0  0  0  0  0  0  0  0  0  0
    9.4000  -11.5870   30.5770 C   0  0  0  0  0  0  0  0  0  0  0  0
    5.4620   -6.8040   28.7950 N   0  0  0  0  0  0  0  0  0  0  0  0
    5.4620   -5.6540   28.3390 O   0  0  0  0  0  0  0  0  0  0  0  0
    6.8230   -4.9440   26.6980 C   0  0  0  0  0  0  0  0  0  0  0  0
    5.9770   -5.3420   23.6380 C   0  0  0  0  0  0  0  0  0  0  0  0
    6.5580   -5.5940   22.2830 C   0  0  0  0  0  0  0  0  0  0  0  0
  1  2  1  0
  2  3  2  0
  2  4  1  0
  4  5  1  0
  5  6  1  0
  6  7  1  0
  7  8  1  0
  8  9  2  0
  8 10  1  0
 10 11  1  0
 11 12  1  0
 12 13  1  0
 14 13  1  1
 14 15  1  0
 15 16  1  0
 16 17  1  0
 17 18  2  0
 17 19  1  0
 19 20  1  0
 20 21  1  0
 20 22  1  0
 21 22  1  0
 16 23  2  0
 14 24  1  0
 23 24  1  0
 10 25  1  0
 14 25  1  0
  7 26  1  0
  4 27  1  0
 26 27  1  0
M  END
