piperidine-amides-13947-covalent
     RDKit          3D

 26 27  0  0  0  0  0  0  0  0999 V2000
    7.0810   -3.3120   19.3120 C   0  0  0  0  0  0  0  0  0  0  0  0
    6.3760   -4.1530   20.3160 C   0  0  0  0  0  0  0  0  0  0  0  0
    5.3470   -4.7610   19.9620 O   0  0  0  0  0  0  0  0  0  0  0  0
    6.9090   -4.2930   21.6230 N   0  0  0  0  0  0  0  0  0  0  0  0
    7.6500   -3.2480   22.2790 C   0  0  0  0  0  0  0  0  0  0  0  0
    6.7000   -2.6150   23.3020 C   0  0  0  0  0  0  0  0  0  0  0  0
    6.2460   -3.6510   24.2930 C   0  0  0  0  0  0  0  0  0  0  0  0
    5.2040   -3.1110   25.2190 C   0  0  0  0  0  0  0  0  0  0  0  0
    4.3960   -2.3430   24.7060 O   0  0  0  0  0  0  0  0  0  0  0  0
    5.1390   -3.4570   26.5850 N   0  0  0  0  0  0  0  0  0  0  0  0
    6.1450   -4.0730   27.3290 C   0  0  1  0  0  0  0  0  0  0  0  0
    6.4860   -3.8550   28.6370 C   0  0  0  0  0  0  0  0  0  0  0  0
    5.9560   -5.5970   27.2470 C   0  0  0  0  0  0  0  0  0  0  0  0
    4.7370   -6.1110   26.8700 C   0  0  0  0  0  0  0  0  0  0  0  0
    3.8600   -6.7820   27.8630 C   0  0  0  0  0  0  0  0  0  0  0  0
    2.3490   -7.0040   27.6410 C   0  0  0  0  0  0  0  0  0  0  0  0
    1.5380   -7.7120   28.7410 C   0  0  0  0  0  0  0  0  0  0  0  0
    2.1200   -8.1490   29.9120 C   0  0  0  0  0  0  0  0  0  0  0  0
    1.2170   -8.7590   30.7640 O   0  0  0  0  0  0  0  0  0  0  0  0
    0.4360   -9.8710   30.3850 C   0  0  0  0  0  0  0  0  0  0  0  0
    0.8140  -10.4020   29.0100 C   0  0  0  0  0  0  0  0  0  0  0  0
    0.4500  -11.0230   31.3540 C   0  0  0  0  0  0  0  0  0  0  0  0
    3.5790   -7.9200   30.1020 C   0  0  0  0  0  0  0  0  0  0  0  0
    4.4060   -7.2350   29.0530 C   0  0  0  0  0  0  0  0  0  0  0  0
    5.6570   -4.8910   23.6230 C   0  0  0  0  0  0  0  0  0  0  0  0
    6.4540   -5.3870   22.4600 C   0  0  0  0  0  0  0  0  0  0  0  0
  1  2  1  0
  2  3  2  0
  2  4  1  0
  4  5  1  0
  5  6  1  0
  6  7  1  0
  7  8  1  0
  8  9  2  0
  8 10  1  0
 10 11  1  0
 11 12  1  1
 11 13  1  0
 13 14  1  0
 14 15  1  0
 15 16  2  0
 16 17  1  0
 17 18  2  0
 18 19  1  0
 19 20  1  0
 20 21  1  0
 20 22  1  0
 18 23  1  0
 15 24  1  0
 23 24  2  0
  7 25  1  0
  4 26  1  0
 25 26  1  0
M  END
