piperidine-amides-33673-covalent
     RDKit          3D

 30 32  0  0  0  0  0  0  0  0999 V2000
    7.1160   -3.3060   19.2520 C   0  0  0  0  0  0  0  0  0  0  0  0
    6.4240   -4.1040   20.2780 C   0  0  0  0  0  0  0  0  0  0  0  0
    5.3390   -4.6280   19.9290 O   0  0  0  0  0  0  0  0  0  0  0  0
    6.9860   -4.3330   21.5710 N   0  0  0  0  0  0  0  0  0  0  0  0
    7.6370   -3.2400   22.2190 C   0  0  0  0  0  0  0  0  0  0  0  0
    7.0260   -2.8990   23.4990 C   0  0  0  0  0  0  0  0  0  0  0  0
    5.7480   -3.6080   23.7060 C   0  0  0  0  0  0  0  0  0  0  0  0
    4.9740   -3.1190   24.8950 C   0  0  0  0  0  0  0  0  0  0  0  0
    3.7360   -3.1790   24.8760 O   0  0  0  0  0  0  0  0  0  0  0  0
    5.5860   -2.6020   26.0310 N   0  0  0  0  0  0  0  0  0  0  0  0
    6.2330   -3.4180   26.9230 C   0  0  0  0  0  0  0  0  0  0  0  0
    6.1610   -3.2110   28.3460 C   0  0  0  0  0  0  0  0  0  0  0  0
    6.9610   -2.3490   28.8240 O   0  0  0  0  0  0  0  0  0  0  0  0
    5.3290   -3.8120   29.2000 N   0  0  0  0  0  0  0  0  0  0  0  0
    4.2580   -4.6810   28.7710 C   0  0  0  0  0  0  0  0  0  0  0  0
    3.1060   -4.0580   28.3370 C   0  0  0  0  0  0  0  0  0  0  0  0
    1.8720   -4.9090   27.8500 C   0  0  0  0  0  0  0  0  0  0  0  0
    1.9810   -6.4390   27.8700 C   0  0  0  0  0  0  0  0  0  0  0  0
    3.3340   -6.9200   28.3820 C   0  0  0  0  0  0  0  0  0  0  0  0
    4.4710   -6.1140   28.8300 C   0  0  0  0  0  0  0  0  0  0  0  0
    5.6240   -6.6620   29.2610 O   0  0  0  0  0  0  0  0  0  0  0  0
    6.8310   -6.1890   28.7040 C   0  0  0  0  0  0  0  0  0  0  0  0
    5.9590   -1.2060   25.9400 C   0  0  0  0  0  0  0  0  0  0  0  0
    5.1990   -0.2940   25.0340 C   0  0  0  0  0  0  0  0  0  0  0  0
    4.3030   -0.5710   24.0120 C   0  0  0  0  0  0  0  0  0  0  0  0
    3.8900    0.5920   23.4970 C   0  0  0  0  0  0  0  0  0  0  0  0
    4.5500    1.7270   24.2170 C   0  0  0  0  0  0  0  0  0  0  0  0
    5.3150    1.1350   25.1190 O   0  0  0  0  0  0  0  0  0  0  0  0
    5.9720   -5.0890   23.6630 C   0  0  0  0  0  0  0  0  0  0  0  0
    6.5470   -5.4870   22.3030 C   0  0  0  0  0  0  0  0  0  0  0  0
  1  2  1  0
  2  3  2  0
  2  4  1  0
  4  5  1  0
  5  6  1  0
  6  7  1  0
  7  8  1  0
  8  9  2  0
  8 10  1  0
 10 11  1  0
 11 12  1  0
 12 13  2  0
 12 14  1  0
 14 15  1  0
 15 16  2  0
 16 17  1  0
 17 18  2  0
 18 19  1  0
 15 20  1  0
 19 20  2  0
 20 21  1  0
 21 22  1  0
 10 23  1  0
 23 24  1  0
 24 25  2  0
 25 26  1  0
 26 27  2  0
 24 28  1  0
 27 28  1  0
  7 29  1  0
  4 30  1  0
 29 30  1  0
M  END
