piperidine-amides-32942-covalent
     RDKit          3D

 28 30  0  0  0  0  0  0  0  0999 V2000
    7.1550   -3.2460   19.2130 C   0  0  0  0  0  0  0  0  0  0  0  0
    6.3990   -4.0110   20.2390 C   0  0  0  0  0  0  0  0  0  0  0  0
    5.3270   -4.5490   19.9000 O   0  0  0  0  0  0  0  0  0  0  0  0
    6.9330   -4.1670   21.5400 N   0  0  0  0  0  0  0  0  0  0  0  0
    6.6400   -5.3570   22.2990 C   0  0  0  0  0  0  0  0  0  0  0  0
    5.9480   -4.9220   23.6010 C   0  0  0  0  0  0  0  0  0  0  0  0
    5.7970   -3.4370   23.5770 C   0  0  0  0  0  0  0  0  0  0  0  0
    5.0830   -2.8270   24.7380 C   0  0  0  0  0  0  0  0  0  0  0  0
    3.8860   -2.6290   24.5430 O   0  0  0  0  0  0  0  0  0  0  0  0
    5.6700   -2.5090   25.9660 N   0  0  0  0  0  0  0  0  0  0  0  0
    6.8030   -1.6550   26.1350 C   0  0  0  0  0  0  0  0  0  0  0  0
    5.2480   -3.2370   27.1120 C   0  0  1  0  0  0  0  0  0  0  0  0
    3.9020   -3.6120   27.2190 C   0  0  0  0  0  0  0  0  0  0  0  0
    3.5540   -4.7990   27.8340 C   0  0  0  0  0  0  0  0  0  0  0  0
    2.1330   -5.2140   27.9580 C   0  0  0  0  0  0  0  0  0  0  0  0
    0.9890   -4.3510   27.4130 C   0  0  0  0  0  0  0  0  0  0  0  0
    1.5780   -3.0960   26.7790 C   0  0  0  0  0  0  0  0  0  0  0  0
    2.9180   -2.7940   26.7110 C   0  0  0  0  0  0  0  0  0  0  0  0
    6.1870   -4.1330   27.1810 C   0  0  0  0  0  0  0  0  0  0  0  0
    7.1660   -3.4400   28.0550 C   0  0  0  0  0  0  0  0  0  0  0  0
    8.3900   -3.8180   28.4930 C   0  0  0  0  0  0  0  0  0  0  0  0
    8.4510   -5.2010   27.7600 C   0  0  0  0  0  0  0  0  0  0  0  0
    9.5920   -5.8330   27.9790 F   0  0  0  0  0  0  0  0  0  0  0  0
    7.4780   -5.9120   26.8820 C   0  0  0  0  0  0  0  0  0  0  0  0
    6.1820   -5.3070   26.5730 C   0  0  0  0  0  0  0  0  0  0  0  0
    4.8870   -5.9800   25.5830 Cl  0  0  0  0  0  0  0  0  0  0  0  0
    7.1120   -2.7310   23.3830 C   0  0  0  0  0  0  0  0  0  0  0  0
    7.6160   -3.0560   22.1430 C   0  0  0  0  0  0  0  0  0  0  0  0
  1  2  1  0
  2  3  2  0
  2  4  1  0
  4  5  1  0
  5  6  1  0
  6  7  1  0
  7  8  1  0
  8  9  2  0
  8 10  1  0
 10 11  1  0
 12 10  1  6
 12 13  1  0
 13 14  2  0
 14 15  1  0
 15 16  2  0
 16 17  1  0
 13 18  1  0
 17 18  2  0
 12 19  1  0
 19 20  2  0
 20 21  1  0
 21 22  2  0
 22 23  1  0
 22 24  1  0
 19 25  1  0
 24 25  2  0
 25 26  1  0
  7 27  1  0
  4 28  1  0
 27 28  1  0
M  END
