piperidine-amides-34376-covalent
     RDKit          3D

 29 32  0  0  0  0  0  0  0  0999 V2000
    7.0850   -3.3320   19.4050 C   0  0  0  0  0  0  0  0  0  0  0  0
    6.3690   -4.1720   20.3740 C   0  0  0  0  0  0  0  0  0  0  0  0
    5.3830   -4.8430   19.9900 O   0  0  0  0  0  0  0  0  0  0  0  0
    6.8020   -4.2740   21.7140 N   0  0  0  0  0  0  0  0  0  0  0  0
    6.6150   -5.5480   22.3840 C   0  0  0  0  0  0  0  0  0  0  0  0
    6.2160   -5.2730   23.8470 C   0  0  0  0  0  0  0  0  0  0  0  0
    6.1020   -3.7760   24.0000 C   0  0  0  0  0  0  0  0  0  0  0  0
    5.5790   -3.4300   25.3490 C   0  0  0  0  0  0  0  0  0  0  0  0
    4.3830   -3.7140   25.5610 O   0  0  0  0  0  0  0  0  0  0  0  0
    6.3330   -2.7800   26.3710 N   0  0  0  0  0  0  0  0  0  0  0  0
    6.2160   -3.3450   27.7040 C   0  0  0  0  0  0  0  0  0  0  0  0
    5.9900   -2.2620   28.7520 C   0  0  0  0  0  0  0  0  0  0  0  0
    4.7650   -1.7980   29.2400 C   0  0  0  0  0  0  0  0  0  0  0  0
    4.6530   -0.8010   30.2050 C   0  0  0  0  0  0  0  0  0  0  0  0
    5.7600   -0.1850   30.7660 C   0  0  0  0  0  0  0  0  0  0  0  0
    6.9940   -0.5490   30.3760 C   0  0  0  0  0  0  0  0  0  0  0  0
    7.2320   -1.6040   29.3490 C   0  0  0  0  0  0  0  0  0  0  0  0
    6.2660   -1.3260   26.4630 C   0  0  0  0  0  0  0  0  0  0  0  0
    6.3930   -0.5820   27.7630 N   0  0  0  0  0  0  0  0  0  0  0  0
    6.2720    0.8460   27.4810 C   0  0  0  0  0  0  0  0  0  0  0  0
    6.3460    1.8930   28.5050 C   0  0  0  0  0  0  0  0  0  0  0  0
    6.2150    3.2450   28.1000 C   0  0  0  0  0  0  0  0  0  0  0  0
    6.0210    3.6650   26.7920 C   0  0  0  0  0  0  0  0  0  0  0  0
    5.8830    5.3820   26.4580 Cl  0  0  0  0  0  0  0  0  0  0  0  0
    5.9400    2.6130   25.7160 C   0  0  0  0  0  0  0  0  0  0  0  0
    6.0850    1.2170   26.2200 C   0  0  0  0  0  0  0  0  0  0  0  0
    6.0330   -0.1420   25.2200 S   0  0  0  0  0  0  0  0  0  0  0  0
    7.3200   -3.0140   23.6210 C   0  0  0  0  0  0  0  0  0  0  0  0
    7.6000   -3.1940   22.2840 C   0  0  0  0  0  0  0  0  0  0  0  0
  1  2  1  0
  2  3  2  0
  2  4  1  0
  4  5  1  0
  5  6  1  0
  6  7  1  0
  7  8  1  0
  8  9  2  0
  8 10  1  0
 10 11  1  0
 11 12  1  0
 12 13  2  0
 13 14  1  0
 14 15  2  0
 15 16  1  0
 12 17  1  0
 16 17  2  0
 10 18  1  0
 18 19  2  0
 19 20  1  0
 20 21  2  0
 21 22  1  0
 22 23  2  0
 23 24  1  0
 23 25  1  0
 20 26  1  0
 25 26  2  0
 18 27  1  0
 26 27  1  0
  7 28  1  0
  4 29  1  0
 28 29  1  0
M  END
