piperidine-amides-14772-covalent
     RDKit          3D

 23 25  0  0  0  0  0  0  0  0999 V2000
    7.0840   -3.2910   19.2240 C   0  0  0  0  0  0  0  0  0  0  0  0
    6.3850   -4.0580   20.2520 C   0  0  0  0  0  0  0  0  0  0  0  0
    5.3410   -4.6530   19.9270 O   0  0  0  0  0  0  0  0  0  0  0  0
    6.9150   -4.1520   21.5670 N   0  0  0  0  0  0  0  0  0  0  0  0
    7.7020   -3.0590   22.0850 C   0  0  0  0  0  0  0  0  0  0  0  0
    7.5380   -2.9750   23.5780 C   0  0  0  0  0  0  0  0  0  0  0  0
    6.1350   -3.4450   23.8650 C   0  0  0  0  0  0  0  0  0  0  0  0
    5.6510   -3.0280   25.2290 C   0  0  0  0  0  0  0  0  0  0  0  0
    4.4910   -2.6320   25.2750 O   0  0  0  0  0  0  0  0  0  0  0  0
    6.4870   -3.1110   26.3430 N   0  0  0  0  0  0  0  0  0  0  0  0
    6.1790   -4.0350   27.3840 C   0  0  0  0  0  0  0  0  0  0  0  0
    5.7300   -5.2510   26.8590 C   0  0  0  0  0  0  0  0  0  0  0  0
    5.8420   -6.2580   27.9170 N   0  0  0  0  0  0  0  0  0  0  0  0
    5.9670   -6.1770   29.3150 C   0  0  0  0  0  0  0  0  0  0  0  0
    4.7980   -6.6900   29.9800 C   0  0  0  0  0  0  0  0  0  0  0  0
    3.9640   -7.0760   28.7680 C   0  0  0  0  0  0  0  0  0  0  0  0
    2.5580   -7.6950   28.6910 C   0  0  0  0  0  0  0  0  0  0  0  0
    1.9270   -7.9990   27.3790 C   0  0  0  0  0  0  0  0  0  0  0  0
    2.6690   -7.6970   26.0910 C   0  0  0  0  0  0  0  0  0  0  0  0
    4.0800   -7.0690   26.2650 C   0  0  0  0  0  0  0  0  0  0  0  0
    4.6320   -6.8020   27.4930 C   0  0  0  0  0  0  0  0  0  0  0  0
    6.1450   -4.9420   23.7430 C   0  0  0  0  0  0  0  0  0  0  0  0
    6.5370   -5.3100   22.3340 C   0  0  0  0  0  0  0  0  0  0  0  0
  1  2  1  0
  2  3  2  0
  2  4  1  0
  4  5  1  0
  5  6  1  0
  6  7  1  0
  7  8  1  0
  8  9  2  0
  8 10  1  0
 10 11  1  0
 11 12  1  0
 12 13  1  0
 13 14  1  0
 14 15  1  0
 15 16  1  0
 16 17  1  0
 17 18  2  0
 18 19  1  0
 19 20  2  0
 13 21  1  0
 16 21  2  0
 20 21  1  0
  7 22  1  0
  4 23  1  0
 22 23  1  0
M  END
