piperidine-amides-28914-covalent
     RDKit          3D

 26 28  0  0  0  0  0  0  0  0999 V2000
    6.9550   -3.3800   19.4710 C   0  0  0  0  0  0  0  0  0  0  0  0
    6.3320   -4.2830   20.4490 C   0  0  0  0  0  0  0  0  0  0  0  0
    5.4290   -5.0260   20.0170 O   0  0  0  0  0  0  0  0  0  0  0  0
    6.7460   -4.3230   21.8240 N   0  0  0  0  0  0  0  0  0  0  0  0
    6.5310   -5.5250   22.5960 C   0  0  0  0  0  0  0  0  0  0  0  0
    5.9770   -5.1780   23.9630 C   0  0  0  0  0  0  0  0  0  0  0  0
    5.8220   -3.6760   23.9670 C   0  0  0  0  0  0  0  0  0  0  0  0
    5.1620   -3.0250   25.2010 C   0  0  0  0  0  0  0  0  0  0  0  0
    4.7060   -1.9190   24.9680 O   0  0  0  0  0  0  0  0  0  0  0  0
    5.0470   -3.6030   26.4910 N   0  0  0  0  0  0  0  0  0  0  0  0
    4.7590   -2.8110   27.6380 C   0  0  0  0  0  0  0  0  0  0  0  0
    4.2410   -3.4720   28.7800 C   0  0  0  0  0  0  0  0  0  0  0  0
    5.1410   -4.5700   29.1640 N   0  0  0  0  0  0  0  0  0  0  0  0
    4.8870   -5.7670   29.8780 C   0  0  0  0  0  0  0  0  0  0  0  0
    3.9420   -5.7050   30.8960 C   0  0  0  0  0  0  0  0  0  0  0  0
    3.3150   -6.7950   31.4220 N   0  0  0  0  0  0  0  0  0  0  0  0
    2.4310   -6.3560   32.4150 C   0  0  0  0  0  0  0  0  0  0  0  0
    1.4660   -7.1460   33.3340 C   0  0  0  0  0  0  0  0  0  0  0  0
    1.0780   -8.0940   32.6070 O   0  0  0  0  0  0  0  0  0  0  0  0
    2.0450   -9.0320   32.3600 C   0  0  0  0  0  0  0  0  0  0  0  0
    2.5980   -5.0200   32.4130 N   0  0  0  0  0  0  0  0  0  0  0  0
    3.4930   -4.6820   31.5070 O   0  0  0  0  0  0  0  0  0  0  0  0
    6.2400   -4.8230   28.2870 C   0  0  0  0  0  0  0  0  0  0  0  0
    6.1910   -4.2620   26.8550 C   0  0  0  0  0  0  0  0  0  0  0  0
    7.1890   -3.0660   23.7330 C   0  0  0  0  0  0  0  0  0  0  0  0
    7.5500   -3.2540   22.4010 C   0  0  0  0  0  0  0  0  0  0  0  0
  1  2  1  0
  2  3  2  0
  2  4  1  0
  4  5  1  0
  5  6  1  0
  6  7  1  0
  7  8  1  0
  8  9  2  0
  8 10  1  0
 10 11  1  0
 11 12  1  0
 12 13  1  0
 13 14  1  0
 14 15  1  0
 15 16  2  0
 16 17  1  0
 17 18  1  0
 18 19  1  0
 19 20  1  0
 17 21  2  0
 15 22  1  0
 21 22  1  0
 13 23  1  0
 10 24  1  0
 23 24  1  0
  7 25  1  0
  4 26  1  0
 25 26  1  0
M  END
