piperidine-amides-27012-covalent
     RDKit          3D

 24 25  0  0  0  0  0  0  0  0999 V2000
    7.0770   -3.2520   19.2240 C   0  0  0  0  0  0  0  0  0  0  0  0
    6.3060   -3.9980   20.2290 C   0  0  0  0  0  0  0  0  0  0  0  0
    5.2200   -4.4930   19.8450 O   0  0  0  0  0  0  0  0  0  0  0  0
    6.7730   -4.1850   21.5270 N   0  0  0  0  0  0  0  0  0  0  0  0
    7.6390   -3.2110   22.1720 C   0  0  0  0  0  0  0  0  0  0  0  0
    7.0210   -2.7700   23.4710 C   0  0  0  0  0  0  0  0  0  0  0  0
    6.4820   -3.9460   24.2320 C   0  0  0  0  0  0  0  0  0  0  0  0
    5.7720   -3.5140   25.4720 C   0  0  0  0  0  0  0  0  0  0  0  0
    4.5230   -3.5240   25.4530 O   0  0  0  0  0  0  0  0  0  0  0  0
    6.4310   -3.0610   26.6490 N   0  0  0  0  0  0  0  0  0  0  0  0
    6.8680   -1.6850   26.6420 C   0  0  0  0  0  0  0  0  0  0  0  0
    6.1420   -3.6650   27.9530 C   0  0  2  0  0  0  0  0  0  0  0  0
    6.8270   -4.8210   28.2450 C   0  0  0  0  0  0  0  0  0  0  0  0
    4.6960   -4.0110   28.1510 C   0  0  0  0  0  0  0  0  0  0  0  0
    3.4700   -3.1300   28.8930 S   0  0  0  0  0  0  0  0  0  0  0  0
    2.2450   -4.3970   28.6050 C   0  0  0  0  0  0  0  0  0  0  0  0
    0.9240   -4.3090   28.9990 C   0  0  0  0  0  0  0  0  0  0  0  0
    0.5870   -4.8020   30.2420 C   0  0  0  0  0  0  0  0  0  0  0  0
    0.6570   -3.3610   30.1850 C   0  0  0  0  0  0  0  0  0  0  0  0
    2.7660   -5.4710   27.9490 N   0  0  0  0  0  0  0  0  0  0  0  0
    4.1660   -5.2140   27.7090 C   0  0  0  0  0  0  0  0  0  0  0  0
    4.9220   -6.3160   26.9850 C   0  0  0  0  0  0  0  0  0  0  0  0
    5.5790   -4.7670   23.3730 C   0  0  0  0  0  0  0  0  0  0  0  0
    6.2960   -5.3090   22.3330 C   0  0  0  0  0  0  0  0  0  0  0  0
  1  2  1  0
  2  3  2  0
  2  4  1  0
  4  5  1  0
  5  6  1  0
  6  7  1  0
  7  8  1  0
  8  9  2  0
  8 10  1  0
 10 11  1  0
 10 12  1  0
 12 13  1  6
 12 14  1  0
 14 15  1  0
 15 16  1  0
 16 17  1  0
 17 18  1  0
 17 19  1  0
 16 20  2  0
 14 21  2  0
 20 21  1  0
 21 22  1  0
  7 23  1  0
  4 24  1  0
 23 24  1  0
M  END
