piperidine-amides-9905-covalent
     RDKit          3D

 27 28  0  0  0  0  0  0  0  0999 V2000
    7.0660   -3.3300   19.2730 C   0  0  0  0  0  0  0  0  0  0  0  0
    6.3820   -4.1390   20.2850 C   0  0  0  0  0  0  0  0  0  0  0  0
    5.3170   -4.7070   19.9350 O   0  0  0  0  0  0  0  0  0  0  0  0
    6.9450   -4.2940   21.5500 N   0  0  0  0  0  0  0  0  0  0  0  0
    7.7040   -3.2210   22.1530 C   0  0  0  0  0  0  0  0  0  0  0  0
    6.8990   -2.6820   23.2930 C   0  0  0  0  0  0  0  0  0  0  0  0
    6.5680   -3.7770   24.2540 C   0  0  0  0  0  0  0  0  0  0  0  0
    5.7980   -3.2270   25.3910 C   0  0  0  0  0  0  0  0  0  0  0  0
    4.5900   -2.9550   25.2100 O   0  0  0  0  0  0  0  0  0  0  0  0
    6.3610   -3.0000   26.6610 N   0  0  0  0  0  0  0  0  0  0  0  0
    6.3690   -1.7010   27.2900 C   0  0  0  0  0  0  0  0  0  0  0  0
    5.7070   -0.4440   26.7680 C   0  0  0  0  0  0  0  0  0  0  0  0
    5.8010    0.7170   27.4920 C   0  0  0  0  0  0  0  0  0  0  0  0
    6.5050    0.7270   28.6910 C   0  0  0  0  0  0  0  0  0  0  0  0
    7.1670   -0.3530   29.2910 C   0  0  0  0  0  0  0  0  0  0  0  0
    7.8700   -0.3050   30.4860 C   0  0  0  0  0  0  0  0  0  0  0  0
    7.1270    0.5360   31.8710 S   0  0  0  0  0  0  0  0  0  0  0  0
    5.8110   -0.0730   32.2000 O   0  0  0  0  0  0  0  0  0  0  0  0
    7.0990    2.0090   31.6690 O   0  0  0  0  0  0  0  0  0  0  0  0
    8.2070    0.2020   33.1930 N   0  0  0  0  0  0  0  0  0  0  0  0
    7.6920    0.5410   34.3950 C   0  0  1  0  0  0  0  0  0  0  0  0
    7.4120   -0.8010   35.0310 C   0  0  0  0  0  0  0  0  0  0  0  0
    8.6880    1.2740   34.9700 C   0  0  0  0  0  0  0  0  0  0  0  0
    8.3370    1.9170   36.2960 C   0  0  0  0  0  0  0  0  0  0  0  0
    7.0850   -1.5340   28.5850 C   0  0  0  0  0  0  0  0  0  0  0  0
    5.8350   -4.9150   23.6310 C   0  0  0  0  0  0  0  0  0  0  0  0
    6.5200   -5.3910   22.3680 C   0  0  0  0  0  0  0  0  0  0  0  0
  1  2  1  0
  2  3  2  0
  2  4  1  0
  4  5  1  0
  5  6  1  0
  6  7  1  0
  7  8  1  0
  8  9  2  0
  8 10  1  0
 10 11  1  0
 11 12  2  0
 12 13  1  0
 13 14  2  0
 14 15  1  0
 15 16  1  0
 16 17  1  0
 17 18  2  0
 17 19  2  0
 17 20  1  0
 20 21  1  0
 21 22  1  1
 21 23  1  0
 23 24  1  0
 11 25  1  0
 15 25  2  0
  7 26  1  0
  4 27  1  0
 26 27  1  0
M  END
