piperidine-amides-17232-covalent
     RDKit          3D

 20 21  0  0  0  0  0  0  0  0999 V2000
    7.0600   -3.3710   19.3640 C   0  0  0  0  0  0  0  0  0  0  0  0
    6.4190   -4.2320   20.3710 C   0  0  0  0  0  0  0  0  0  0  0  0
    5.4010   -4.8630   19.9890 O   0  0  0  0  0  0  0  0  0  0  0  0
    6.9520   -4.3780   21.6830 N   0  0  0  0  0  0  0  0  0  0  0  0
    6.4510   -5.4070   22.5130 C   0  0  0  0  0  0  0  0  0  0  0  0
    6.0420   -5.0020   23.8720 C   0  0  0  0  0  0  0  0  0  0  0  0
    6.3730   -3.6300   24.3800 C   0  0  0  0  0  0  0  0  0  0  0  0
    5.2390   -3.0870   25.2380 C   0  0  0  0  0  0  0  0  0  0  0  0
    4.1790   -2.7650   24.6850 O   0  0  0  0  0  0  0  0  0  0  0  0
    5.3340   -2.9470   26.6500 N   0  0  0  0  0  0  0  0  0  0  0  0
    6.3900   -3.4850   27.3000 C   0  0  0  0  0  0  0  0  0  0  0  0
    6.0830   -4.8390   27.7700 C   0  0  0  0  0  0  0  0  0  0  0  0
    6.8590   -5.2930   28.9860 C   0  0  0  0  0  0  0  0  0  0  0  0
    5.8260   -5.9970   26.9290 C   0  0  0  0  0  0  0  0  0  0  0  0
    4.7040   -4.4280   28.3860 C   0  0  0  0  0  0  0  0  0  0  0  0
    4.2710   -3.2380   27.5770 C   0  0  2  0  0  0  0  0  0  0  0  0
    3.1710   -4.1280   26.9730 C   0  0  0  0  0  0  0  0  0  0  0  0
    2.2100   -4.7360   27.7880 O   0  0  0  0  0  0  0  0  0  0  0  0
    6.8000   -2.6300   23.3260 C   0  0  0  0  0  0  0  0  0  0  0  0
    7.6970   -3.3170   22.3160 C   0  0  0  0  0  0  0  0  0  0  0  0
  1  2  1  0
  2  3  2  0
  2  4  1  0
  4  5  1  0
  5  6  1  0
  6  7  1  0
  7  8  1  0
  8  9  2  0
  8 10  1  0
 10 11  1  0
 11 12  1  0
 12 13  1  0
 12 14  1  0
 12 15  1  0
 10 16  1  0
 15 16  1  0
 16 17  1  6
 17 18  1  0
  7 19  1  0
  4 20  1  0
 19 20  1  0
M  END
