piperidine-amides-597-covalent
     RDKit          3D

 26 27  0  0  0  0  0  0  0  0999 V2000
    7.1270   -3.3450   19.1950 C   0  0  0  0  0  0  0  0  0  0  0  0
    6.4130   -4.0640   20.2250 C   0  0  0  0  0  0  0  0  0  0  0  0
    5.2970   -4.5760   19.9050 O   0  0  0  0  0  0  0  0  0  0  0  0
    6.9280   -4.2830   21.5180 N   0  0  0  0  0  0  0  0  0  0  0  0
    7.8240   -3.2720   22.1210 C   0  0  0  0  0  0  0  0  0  0  0  0
    6.8180   -2.6450   23.1360 C   0  0  0  0  0  0  0  0  0  0  0  0
    6.3600   -3.8040   23.9920 C   0  0  0  0  0  0  0  0  0  0  0  0
    5.3200   -3.2560   25.0340 C   0  0  0  0  0  0  0  0  0  0  0  0
    4.2180   -3.1130   24.5290 O   0  0  0  0  0  0  0  0  0  0  0  0
    5.9000   -3.1060   26.1310 N   0  0  0  0  0  0  0  0  0  0  0  0
    6.4260   -2.8850   27.3320 C   0  0  0  0  0  0  0  0  0  0  0  0
    6.5180   -3.3730   28.5820 C   0  0  2  0  0  0  0  0  0  0  0  0
    6.4650   -5.0410   28.9480 S   0  0  0  0  0  0  0  0  0  0  0  0
    5.0360   -5.9590   29.3050 C   0  0  0  0  0  0  0  0  0  0  0  0
    5.2500   -7.4150   29.4300 C   0  0  0  0  0  0  0  0  0  0  0  0
    4.0390   -7.7420   30.3160 C   0  0  0  0  0  0  0  0  0  0  0  0
    5.0850   -7.0330   30.9140 C   0  0  0  0  0  0  0  0  0  0  0  0
    5.6710   -2.8140   29.4460 C   0  0  0  0  0  0  0  0  0  0  0  0
    4.3230   -3.3780   29.8800 C   0  0  0  0  0  0  0  0  0  0  0  0
    3.4990   -2.5570   30.8950 C   0  0  0  0  0  0  0  0  0  0  0  0
    4.0460   -1.3860   31.3220 C   0  0  0  0  0  0  0  0  0  0  0  0
    5.2660   -0.8940   30.9120 C   0  0  0  0  0  0  0  0  0  0  0  0
    5.8630    0.6420   31.5410 Cl  0  0  0  0  0  0  0  0  0  0  0  0
    6.0180   -1.6110   30.0080 C   0  0  0  0  0  0  0  0  0  0  0  0
    5.8550   -5.0580   23.3410 C   0  0  0  0  0  0  0  0  0  0  0  0
    6.6320   -5.4630   22.2660 C   0  0  0  0  0  0  0  0  0  0  0  0
  1  2  1  0
  2  3  2  0
  2  4  1  0
  4  5  1  0
  5  6  1  0
  6  7  1  0
  7  8  1  0
  8  9  2  0
  8 10  1  0
 10 11  1  0
 12 11  1  6
 12 13  1  0
 13 14  1  0
 14 15  1  0
 15 16  1  0
 15 17  1  0
 12 18  1  0
 18 19  2  0
 19 20  1  0
 20 21  2  0
 21 22  1  0
 22 23  1  0
 18 24  1  0
 22 24  2  0
  7 25  1  0
  4 26  1  0
 25 26  1  0
M  END
