piperidine-amides-15289-covalent
     RDKit          3D

 16 17  0  0  0  0  0  0  0  0999 V2000
    7.0820   -3.3380   19.3810 C   0  0  0  0  0  0  0  0  0  0  0  0
    6.3280   -4.1630   20.3300 C   0  0  0  0  0  0  0  0  0  0  0  0
    5.3180   -4.7960   19.9590 O   0  0  0  0  0  0  0  0  0  0  0  0
    6.7590   -4.2900   21.6520 N   0  0  0  0  0  0  0  0  0  0  0  0
    6.6570   -5.5740   22.3040 C   0  0  0  0  0  0  0  0  0  0  0  0
    5.8420   -5.3410   23.5750 C   0  0  0  0  0  0  0  0  0  0  0  0
    5.9850   -3.8750   23.8900 C   0  0  0  0  0  0  0  0  0  0  0  0
    5.5520   -3.6040   25.2830 C   0  0  0  0  0  0  0  0  0  0  0  0
    4.3770   -3.2350   25.4830 O   0  0  0  0  0  0  0  0  0  0  0  0
    6.4000   -3.7840   26.3890 N   0  0  0  0  0  0  0  0  0  0  0  0
    7.0940   -5.0790   26.4600 C   0  0  0  0  0  0  0  0  0  0  0  0
    7.1550   -5.4070   27.8760 C   0  0  0  0  0  0  0  0  0  0  0  0
    6.6330   -4.4820   28.6020 C   0  0  0  0  0  0  0  0  0  0  0  0
    6.1910   -3.4280   27.8420 C   0  0  0  0  0  0  0  0  0  0  0  0
    7.3600   -3.3610   23.6480 C   0  0  0  0  0  0  0  0  0  0  0  0
    7.5800   -3.2780   22.2940 C   0  0  0  0  0  0  0  0  0  0  0  0
  1  2  1  0
  2  3  2  0
  2  4  1  0
  4  5  1  0
  5  6  1  0
  6  7  1  0
  7  8  1  0
  8  9  2  0
  8 10  1  0
 10 11  1  0
 11 12  1  0
 12 13  2  0
 10 14  1  0
 13 14  1  0
  7 15  1  0
  4 16  1  0
 15 16  1  0
M  END
