piperidine-amides-23734-covalent
     RDKit          3D

 24 26  0  0  0  0  0  0  0  0999 V2000
    6.9870   -3.3690   19.3650 C   0  0  0  0  0  0  0  0  0  0  0  0
    6.3520   -4.2320   20.3770 C   0  0  0  0  0  0  0  0  0  0  0  0
    5.3650   -4.9040   19.9910 O   0  0  0  0  0  0  0  0  0  0  0  0
    6.8470   -4.3410   21.6990 N   0  0  0  0  0  0  0  0  0  0  0  0
    6.4590   -5.4760   22.4630 C   0  0  0  0  0  0  0  0  0  0  0  0
    5.6220   -5.1390   23.6100 C   0  0  0  0  0  0  0  0  0  0  0  0
    5.5460   -3.6880   23.8510 C   0  0  0  0  0  0  0  0  0  0  0  0
    4.7090   -3.3230   25.0900 C   0  0  0  0  0  0  0  0  0  0  0  0
    3.4800   -3.2620   24.9900 O   0  0  0  0  0  0  0  0  0  0  0  0
    5.2660   -3.0570   26.3500 N   0  0  0  0  0  0  0  0  0  0  0  0
    4.7700   -3.3390   27.5730 C   0  0  0  0  0  0  0  0  0  0  0  0
    5.5750   -4.3320   28.1230 C   0  0  0  0  0  0  0  0  0  0  0  0
    6.9530   -4.2380   27.3810 C   0  0  0  0  0  0  0  0  0  0  0  0
    8.2370   -4.8400   27.7100 C   0  0  0  0  0  0  0  0  0  0  0  0
    9.4110   -4.4480   26.6700 C   0  0  0  0  0  0  0  0  0  0  0  0
   10.5450   -4.8890   26.9020 O   0  0  0  0  0  0  0  0  0  0  0  0
   10.0220   -5.0060   28.1800 C   0  0  0  0  0  0  0  0  0  0  0  0
    8.9460   -3.6130   25.6430 C   0  0  0  0  0  0  0  0  0  0  0  0
    9.3450   -3.0170   24.6290 O   0  0  0  0  0  0  0  0  0  0  0  0
   10.7090   -2.5670   24.5540 C   0  0  0  0  0  0  0  0  0  0  0  0
    7.7910   -3.7890   26.3720 C   0  0  0  0  0  0  0  0  0  0  0  0
    6.5940   -3.2700   26.1200 C   0  0  0  0  0  0  0  0  0  0  0  0
    6.9500   -3.1460   23.7480 C   0  0  0  0  0  0  0  0  0  0  0  0
    7.3370   -3.1550   22.3930 C   0  0  0  0  0  0  0  0  0  0  0  0
  1  2  1  0
  2  3  2  0
  2  4  1  0
  4  5  1  0
  5  6  1  0
  6  7  1  0
  7  8  1  0
  8  9  2  0
  8 10  1  0
 10 11  1  0
 11 12  1  0
 12 13  1  0
 13 14  1  0
 14 15  2  0
 15 16  1  0
 16 17  1  0
 15 18  1  0
 18 19  1  0
 19 20  1  0
 18 21  2  0
 10 22  1  0
 13 22  2  0
 21 22  1  0
  7 23  1  0
  4 24  1  0
 23 24  1  0
M  END
