piperidine-amides-2802-covalent
     RDKit          3D

 24 26  0  0  0  0  0  0  0  0999 V2000
    7.0590   -3.3440   19.3120 C   0  0  0  0  0  0  0  0  0  0  0  0
    6.3760   -4.1620   20.3080 C   0  0  0  0  0  0  0  0  0  0  0  0
    5.3850   -4.8180   19.9790 O   0  0  0  0  0  0  0  0  0  0  0  0
    6.8800   -4.2410   21.6480 N   0  0  0  0  0  0  0  0  0  0  0  0
    7.7470   -3.2030   22.1590 C   0  0  0  0  0  0  0  0  0  0  0  0
    7.5740   -3.0470   23.6370 C   0  0  0  0  0  0  0  0  0  0  0  0
    6.2060   -3.6090   23.9750 C   0  0  0  0  0  0  0  0  0  0  0  0
    5.7920   -3.2710   25.3570 C   0  0  0  0  0  0  0  0  0  0  0  0
    4.6900   -3.6290   25.8150 O   0  0  0  0  0  0  0  0  0  0  0  0
    6.6530   -2.5020   26.1760 N   0  0  0  0  0  0  0  0  0  0  0  0
    6.0160   -1.5740   27.0750 C   0  0  1  0  0  0  0  0  0  0  0  0
    6.8870   -1.3820   28.2640 C   0  0  0  0  0  0  0  0  0  0  0  0
    6.5060   -0.1920   28.7510 C   0  0  0  0  0  0  0  0  0  0  0  0
    5.6670    0.4450   27.8250 C   0  0  1  0  0  0  0  0  0  0  0  0
    5.7730    1.8190   27.7180 C   0  0  0  0  0  0  0  0  0  0  0  0
    6.4950    2.5000   26.6530 C   0  0  0  0  0  0  0  0  0  0  0  0
    6.5970    3.8730   26.5550 C   0  0  0  0  0  0  0  0  0  0  0  0
    5.9920    4.6860   27.5010 C   0  0  0  0  0  0  0  0  0  0  0  0
    6.1120    6.4370   27.3950 Cl  0  0  0  0  0  0  0  0  0  0  0  0
    5.2880    4.0790   28.5410 C   0  0  0  0  0  0  0  0  0  0  0  0
    5.1710    2.6230   28.6600 C   0  0  0  0  0  0  0  0  0  0  0  0
    5.6570   -0.2800   26.5920 C   0  0  0  0  0  0  0  0  0  0  0  0
    6.1830   -5.0950   23.7740 C   0  0  0  0  0  0  0  0  0  0  0  0
    6.6110   -5.4310   22.3860 C   0  0  0  0  0  0  0  0  0  0  0  0
  1  2  1  0
  2  3  2  0
  2  4  1  0
  4  5  1  0
  5  6  1  0
  6  7  1  0
  7  8  1  0
  8  9  2  0
  8 10  1  0
 11 10  1  6
 11 12  1  0
 12 13  1  0
 13 14  1  0
 14 15  1  6
 15 16  2  0
 16 17  1  0
 17 18  2  0
 18 19  1  0
 18 20  1  0
 15 21  1  0
 20 21  2  0
 11 22  1  0
 14 22  1  0
  7 23  1  0
  4 24  1  0
 23 24  1  0
M  END
