piperidine-amides-31218-covalent
     RDKit          3D

 28 31  0  0  0  0  0  0  0  0999 V2000
    7.0990   -3.3790   19.3480 C   0  0  0  0  0  0  0  0  0  0  0  0
    6.4000   -4.2010   20.3350 C   0  0  0  0  0  0  0  0  0  0  0  0
    5.3770   -4.8140   19.9800 O   0  0  0  0  0  0  0  0  0  0  0  0
    6.8880   -4.3590   21.6470 N   0  0  0  0  0  0  0  0  0  0  0  0
    6.6380   -5.5370   22.4320 C   0  0  0  0  0  0  0  0  0  0  0  0
    5.8230   -5.0760   23.6190 C   0  0  0  0  0  0  0  0  0  0  0  0
    6.3630   -3.8430   24.3120 C   0  0  0  0  0  0  0  0  0  0  0  0
    5.3660   -3.2480   25.2470 C   0  0  0  0  0  0  0  0  0  0  0  0
    4.4070   -2.5940   24.7600 O   0  0  0  0  0  0  0  0  0  0  0  0
    5.3700   -3.3380   26.6650 N   0  0  0  0  0  0  0  0  0  0  0  0
    4.2460   -2.8640   27.4270 C   0  0  0  0  0  0  0  0  0  0  0  0
    4.2060   -3.6740   28.6550 C   0  0  0  0  0  0  0  0  0  0  0  0
    5.4550   -4.1640   29.2600 C   0  0  0  0  0  0  0  0  0  0  0  0
    5.0000   -5.3310   30.0910 C   0  0  0  0  0  0  0  0  0  0  0  0
    4.0150   -4.9270   30.9580 O   0  0  0  0  0  0  0  0  0  0  0  0
    5.3540   -6.6980   30.1120 N   0  0  0  0  0  0  0  0  0  0  0  0
    4.4860   -7.2080   29.0090 C   0  0  0  0  0  0  0  0  0  0  0  0
    3.1970   -7.6430   29.6660 C   0  0  0  0  0  0  0  0  0  0  0  0
    3.5910   -7.8470   30.9370 C   0  0  0  0  0  0  0  0  0  0  0  0
    2.9160   -8.5250   32.0250 C   0  0  0  0  0  0  0  0  0  0  0  0
    3.5270   -8.6840   33.4430 C   0  0  0  0  0  0  0  0  0  0  0  0
    4.9050   -8.0660   33.6010 C   0  0  0  0  0  0  0  0  0  0  0  0
    5.1990   -7.4970   32.2910 C   0  0  0  0  0  0  0  0  0  0  0  0
    4.8120   -7.3340   31.2060 C   0  0  0  0  0  0  0  0  0  0  0  0
    6.4810   -4.4250   28.2340 C   0  0  0  0  0  0  0  0  0  0  0  0
    6.5500   -3.3570   27.3330 C   0  0  0  0  0  0  0  0  0  0  0  0
    6.8540   -2.7680   23.3760 C   0  0  0  0  0  0  0  0  0  0  0  0
    7.7150   -3.3520   22.2740 C   0  0  0  0  0  0  0  0  0  0  0  0
  1  2  1  0
  2  3  2  0
  2  4  1  0
  4  5  1  0
  5  6  1  0
  6  7  1  0
  7  8  1  0
  8  9  2  0
  8 10  1  0
 10 11  1  0
 11 12  1  0
 12 13  1  0
 13 14  1  0
 14 15  2  0
 14 16  1  0
 16 17  1  0
 17 18  1  0
 18 19  1  0
 19 20  1  0
 20 21  2  0
 21 22  1  0
 22 23  2  0
 16 24  1  0
 19 24  2  0
 23 24  1  0
 13 25  1  0
 10 26  1  0
 25 26  1  0
  7 27  1  0
  4 28  1  0
 27 28  1  0
M  END
