piperidine-amides-35-covalent
     RDKit          3D

 26 27  0  0  0  0  0  0  0  0999 V2000
    7.0520   -3.3700   19.3150 C   0  0  0  0  0  0  0  0  0  0  0  0
    6.3660   -4.1120   20.3540 C   0  0  0  0  0  0  0  0  0  0  0  0
    5.3810   -4.8280   19.9840 O   0  0  0  0  0  0  0  0  0  0  0  0
    6.7550   -4.1160   21.7190 N   0  0  0  0  0  0  0  0  0  0  0  0
    7.7270   -3.0470   22.1130 C   0  0  0  0  0  0  0  0  0  0  0  0
    7.7180   -3.1710   23.6770 C   0  0  0  0  0  0  0  0  0  0  0  0
    6.3160   -3.6060   23.9550 C   0  0  0  0  0  0  0  0  0  0  0  0
    5.6500   -2.8710   25.2060 C   0  0  0  0  0  0  0  0  0  0  0  0
    5.0110   -1.9120   24.8130 O   0  0  0  0  0  0  0  0  0  0  0  0
    5.9190   -3.4520   26.3090 N   0  0  0  0  0  0  0  0  0  0  0  0
    6.0480   -4.0100   27.5490 C   0  0  0  0  0  0  0  0  0  0  0  0
    6.0740   -5.1870   28.2420 C   0  0  0  0  0  0  0  0  0  0  0  0
    4.7690   -5.7020   28.4710 C   0  0  1  0  0  0  0  0  0  0  0  0
    3.8760   -4.6540   28.7410 O   0  0  0  0  0  0  0  0  0  0  0  0
    4.1600   -6.5140   27.3860 C   0  0  0  0  0  0  0  0  0  0  0  0
    4.4390   -6.5400   26.0150 N   0  0  0  0  0  0  0  0  0  0  0  0
    3.6310   -7.4690   25.2650 C   0  0  0  0  0  0  0  0  0  0  0  0
    2.8460   -8.0000   26.2890 C   0  0  0  0  0  0  0  0  0  0  0  0
    1.9020   -8.9810   25.9620 C   0  0  0  0  0  0  0  0  0  0  0  0
    3.1460   -7.4330   27.5730 O   0  0  0  0  0  0  0  0  0  0  0  0
    4.6150   -6.8200   29.4650 C   0  0  0  0  0  0  0  0  0  0  0  0
    5.0880   -7.9440   28.9230 F   0  0  0  0  0  0  0  0  0  0  0  0
    5.4650   -6.5930   30.5820 F   0  0  0  0  0  0  0  0  0  0  0  0
    3.3150   -7.0280   29.8790 F   0  0  0  0  0  0  0  0  0  0  0  0
    6.1310   -5.0620   23.6970 C   0  0  0  0  0  0  0  0  0  0  0  0
    6.6870   -5.3570   22.4620 C   0  0  0  0  0  0  0  0  0  0  0  0
  1  2  1  0
  2  3  2  0
  2  4  1  0
  4  5  1  0
  5  6  1  0
  6  7  1  0
  7  8  1  0
  8  9  2  0
  8 10  1  0
 10 11  1  0
 11 12  1  0
 12 13  1  0
 13 14  1  1
 13 15  1  0
 15 16  2  0
 16 17  1  0
 17 18  2  0
 18 19  1  0
 15 20  1  0
 18 20  1  0
 13 21  1  0
 21 22  1  0
 21 23  1  0
 21 24  1  0
  7 25  1  0
  4 26  1  0
 25 26  1  0
M  END
