piperidine-amides-2508-covalent
     RDKit          3D

 26 28  0  0  0  0  0  0  0  0999 V2000
    7.0800   -3.3190   19.2710 C   0  0  0  0  0  0  0  0  0  0  0  0
    6.3250   -4.0940   20.2920 C   0  0  0  0  0  0  0  0  0  0  0  0
    5.2910   -4.6400   19.9200 O   0  0  0  0  0  0  0  0  0  0  0  0
    6.8280   -4.2110   21.5890 N   0  0  0  0  0  0  0  0  0  0  0  0
    7.6970   -3.2150   22.1730 C   0  0  0  0  0  0  0  0  0  0  0  0
    7.0270   -2.6200   23.3690 C   0  0  0  0  0  0  0  0  0  0  0  0
    6.5300   -3.7630   24.2420 C   0  0  0  0  0  0  0  0  0  0  0  0
    5.7900   -3.1590   25.3670 C   0  0  0  0  0  0  0  0  0  0  0  0
    4.6170   -2.7990   25.2100 O   0  0  0  0  0  0  0  0  0  0  0  0
    6.4110   -3.0110   26.6150 N   0  0  0  0  0  0  0  0  0  0  0  0
    6.4280   -1.7300   27.2940 C   0  0  0  0  0  0  0  0  0  0  0  0
    5.9040   -0.5450   26.5800 C   0  0  0  0  0  0  0  0  0  0  0  0
    5.8550    0.6960   27.0970 C   0  0  0  0  0  0  0  0  0  0  0  0
    6.3320    0.8200   28.3710 C   0  0  0  0  0  0  0  0  0  0  0  0
    6.2790    2.0990   28.9070 O   0  0  0  0  0  0  0  0  0  0  0  0
    7.1510    2.9930   28.3100 C   0  0  0  0  0  0  0  0  0  0  0  0
    8.1300    3.6900   29.2570 C   0  0  0  0  0  0  0  0  0  0  0  0
    9.0210    4.6220   28.4810 C   0  0  0  0  0  0  0  0  0  0  0  0
    8.8000    4.7010   26.9990 C   0  0  0  0  0  0  0  0  0  0  0  0
    7.9340    4.0610   26.3200 N   0  0  0  0  0  0  0  0  0  0  0  0
    7.1640    3.2510   26.9980 N   0  0  0  0  0  0  0  0  0  0  0  0
    6.8700   -0.1950   29.2080 C   0  0  0  0  0  0  0  0  0  0  0  0
    7.4230    0.1870   30.8290 Cl  0  0  0  0  0  0  0  0  0  0  0  0
    6.9460   -1.6080   28.6610 C   0  0  0  0  0  0  0  0  0  0  0  0
    5.7930   -4.8530   23.5530 C   0  0  0  0  0  0  0  0  0  0  0  0
    6.5420   -5.3870   22.3840 C   0  0  0  0  0  0  0  0  0  0  0  0
  1  2  1  0
  2  3  2  0
  2  4  1  0
  4  5  1  0
  5  6  1  0
  6  7  1  0
  7  8  1  0
  8  9  2  0
  8 10  1  0
 10 11  1  0
 11 12  2  0
 12 13  1  0
 13 14  2  0
 14 15  1  0
 15 16  1  0
 16 17  2  0
 17 18  1  0
 18 19  2  0
 19 20  1  0
 16 21  1  0
 20 21  2  0
 14 22  1  0
 22 23  1  0
 11 24  1  0
 22 24  2  0
  7 25  1  0
  4 26  1  0
 25 26  1  0
M  END
