piperidine-amides-18819-covalent
     RDKit          3D

 20 21  0  0  0  0  0  0  0  0999 V2000
    7.1990   -3.2940   19.3630 C   0  0  0  0  0  0  0  0  0  0  0  0
    6.3920   -4.0410   20.2970 C   0  0  0  0  0  0  0  0  0  0  0  0
    5.3010   -4.5540   19.8910 O   0  0  0  0  0  0  0  0  0  0  0  0
    6.8020   -4.2550   21.6210 N   0  0  0  0  0  0  0  0  0  0  0  0
    6.3910   -5.4950   22.2980 C   0  0  0  0  0  0  0  0  0  0  0  0
    5.4410   -4.8410   23.3630 C   0  0  0  0  0  0  0  0  0  0  0  0
    6.3280   -3.9050   24.1510 C   0  0  0  0  0  0  0  0  0  0  0  0
    5.6080   -3.4840   25.5090 C   0  0  0  0  0  0  0  0  0  0  0  0
    4.5380   -4.0600   25.6220 O   0  0  0  0  0  0  0  0  0  0  0  0
    6.3240   -2.6300   26.1200 N   0  0  0  0  0  0  0  0  0  0  0  0
    7.0930   -1.5260   26.2680 C   0  0  0  0  0  0  0  0  0  0  0  0
    6.1730   -2.8910   27.5030 C   0  0  0  0  0  0  0  0  0  0  0  0
    5.8830   -4.1900   27.9940 C   0  0  0  0  0  0  0  0  0  0  0  0
    4.4900   -4.7210   28.0250 C   0  0  0  0  0  0  0  0  0  0  0  0
    4.6160   -6.1600   28.6430 C   0  0  0  0  0  0  0  0  0  0  0  0
    3.4260   -7.4120   29.0090 Cl  0  0  0  0  0  0  0  0  0  0  0  0
    5.9990   -6.1930   28.8430 C   0  0  0  0  0  0  0  0  0  0  0  0
    6.7050   -5.0780   28.4760 N   0  0  0  0  0  0  0  0  0  0  0  0
    6.8350   -2.7260   23.3380 C   0  0  0  0  0  0  0  0  0  0  0  0
    7.7360   -3.3540   22.2730 C   0  0  0  0  0  0  0  0  0  0  0  0
  1  2  1  0
  2  3  2  0
  2  4  1  0
  4  5  1  0
  5  6  1  0
  6  7  1  0
  7  8  1  0
  8  9  2  0
  8 10  1  0
 10 11  1  0
 10 12  1  0
 12 13  1  0
 13 14  2  0
 14 15  1  0
 15 16  1  0
 15 17  2  0
 13 18  1  0
 17 18  1  0
  7 19  1  0
  4 20  1  0
 19 20  1  0
M  END
