piperidine-amides-1697-covalent
     RDKit          3D

 20 20  0  0  0  0  0  0  0  0999 V2000
    7.0860   -3.2760   19.2680 C   0  0  0  0  0  0  0  0  0  0  0  0
    6.3480   -4.0840   20.2780 C   0  0  0  0  0  0  0  0  0  0  0  0
    5.3140   -4.6800   19.9300 O   0  0  0  0  0  0  0  0  0  0  0  0
    6.8590   -4.1890   21.5880 N   0  0  0  0  0  0  0  0  0  0  0  0
    7.6720   -3.1320   22.1730 C   0  0  0  0  0  0  0  0  0  0  0  0
    7.4770   -3.0950   23.7000 C   0  0  0  0  0  0  0  0  0  0  0  0
    6.1070   -3.5940   24.0000 C   0  0  0  0  0  0  0  0  0  0  0  0
    5.5850   -3.2460   25.3420 C   0  0  0  0  0  0  0  0  0  0  0  0
    4.4230   -2.8340   25.3780 O   0  0  0  0  0  0  0  0  0  0  0  0
    6.3820   -3.3860   26.4820 N   0  0  0  0  0  0  0  0  0  0  0  0
    6.0980   -4.1400   27.6620 C   0  0  0  0  0  0  0  0  0  0  0  0
    6.0160   -5.5240   27.7480 C   0  0  1  0  0  0  0  0  0  0  0  0
    6.4950   -6.1470   28.9050 C   0  0  0  0  0  0  0  0  0  0  0  0
    4.6450   -6.0680   27.4010 C   0  0  0  0  0  0  0  0  0  0  0  0
    3.6870   -5.9750   28.5480 C   0  0  0  0  0  0  0  0  0  0  0  0
    2.3450   -5.8030   28.2610 F   0  0  0  0  0  0  0  0  0  0  0  0
    4.0490   -4.8970   29.3310 F   0  0  0  0  0  0  0  0  0  0  0  0
    3.7480   -7.1130   29.3500 F   0  0  0  0  0  0  0  0  0  0  0  0
    6.0720   -5.0660   23.7210 C   0  0  0  0  0  0  0  0  0  0  0  0
    6.6610   -5.3800   22.3560 C   0  0  0  0  0  0  0  0  0  0  0  0
  1  2  1  0
  2  3  2  0
  2  4  1  0
  4  5  1  0
  5  6  1  0
  6  7  1  0
  7  8  1  0
  8  9  2  0
  8 10  1  0
 10 11  1  0
 11 12  1  0
 12 13  1  1
 12 14  1  0
 14 15  1  0
 15 16  1  0
 15 17  1  0
 15 18  1  0
  7 19  1  0
  4 20  1  0
 19 20  1  0
M  END
