piperidine-amides-29439-covalent
     RDKit          3D

 24 26  0  0  0  0  0  0  0  0999 V2000
    7.1160   -3.3430   19.3060 C   0  0  0  0  0  0  0  0  0  0  0  0
    6.4480   -4.1920   20.2830 C   0  0  0  0  0  0  0  0  0  0  0  0
    5.3830   -4.7480   19.9620 O   0  0  0  0  0  0  0  0  0  0  0  0
    7.0630   -4.4120   21.5380 N   0  0  0  0  0  0  0  0  0  0  0  0
    6.6340   -5.5380   22.3040 C   0  0  0  0  0  0  0  0  0  0  0  0
    5.8440   -5.0390   23.4780 C   0  0  0  0  0  0  0  0  0  0  0  0
    6.6950   -4.0320   24.2300 C   0  0  0  0  0  0  0  0  0  0  0  0
    5.9340   -3.5430   25.4070 C   0  0  0  0  0  0  0  0  0  0  0  0
    4.9390   -2.8570   25.1760 O   0  0  0  0  0  0  0  0  0  0  0  0
    6.4000   -3.9040   26.6490 N   0  0  0  0  0  0  0  0  0  0  0  0
    7.0250   -5.1460   26.8760 C   0  0  0  0  0  0  0  0  0  0  0  0
    6.9610   -5.3000   28.2470 C   0  0  0  0  0  0  0  0  0  0  0  0
    6.1330   -4.2990   28.7330 C   0  0  0  0  0  0  0  0  0  0  0  0
    5.7240   -3.3440   27.8030 C   0  0  2  0  0  0  0  0  0  0  0  0
    4.2230   -3.4010   27.7310 C   0  0  0  0  0  0  0  0  0  0  0  0
    3.5020   -2.0340   27.5960 C   0  0  0  0  0  0  0  0  0  0  0  0
    2.0240   -1.9510   27.5110 C   0  0  0  0  0  0  0  0  0  0  0  0
    1.3180   -3.2660   27.5670 C   0  0  0  0  0  0  0  0  0  0  0  0
    2.0720   -4.6060   27.7030 C   0  0  0  0  0  0  0  0  0  0  0  0
    1.1510   -6.1080   27.7600 Cl  0  0  0  0  0  0  0  0  0  0  0  0
    3.4470   -4.7150   27.7830 C   0  0  0  0  0  0  0  0  0  0  0  0
    4.2200   -6.2920   27.9330 Cl  0  0  0  0  0  0  0  0  0  0  0  0
    6.9280   -2.8570   23.3390 C   0  0  0  0  0  0  0  0  0  0  0  0
    7.7020   -3.2710   22.1360 C   0  0  0  0  0  0  0  0  0  0  0  0
  1  2  1  0
  2  3  2  0
  2  4  1  0
  4  5  1  0
  5  6  1  0
  6  7  1  0
  7  8  1  0
  8  9  2  0
  8 10  1  0
 10 11  1  0
 11 12  1  0
 12 13  1  0
 10 14  1  0
 13 14  1  0
 14 15  1  6
 15 16  2  0
 16 17  1  0
 17 18  2  0
 18 19  1  0
 19 20  1  0
 15 21  1  0
 19 21  2  0
 21 22  1  0
  7 23  1  0
  4 24  1  0
 23 24  1  0
M  END
