piperidine-amides-5020-covalent
     RDKit          3D

 22 23  0  0  0  0  0  0  0  0999 V2000
    7.1370   -3.2810   19.1670 C   0  0  0  0  0  0  0  0  0  0  0  0
    6.3300   -3.9770   20.1920 C   0  0  0  0  0  0  0  0  0  0  0  0
    5.2280   -4.4270   19.8290 O   0  0  0  0  0  0  0  0  0  0  0  0
    6.8220   -4.1710   21.4860 N   0  0  0  0  0  0  0  0  0  0  0  0
    7.5800   -3.1400   22.1080 C   0  0  0  0  0  0  0  0  0  0  0  0
    7.1230   -2.7670   23.4490 C   0  0  0  0  0  0  0  0  0  0  0  0
    6.4970   -3.8530   24.2380 C   0  0  0  0  0  0  0  0  0  0  0  0
    5.7700   -3.2950   25.4080 C   0  0  0  0  0  0  0  0  0  0  0  0
    4.5570   -3.0410   25.2770 O   0  0  0  0  0  0  0  0  0  0  0  0
    6.4250   -3.0460   26.6320 N   0  0  0  0  0  0  0  0  0  0  0  0
    6.2230   -3.8680   27.8560 C   0  0  0  0  0  0  0  0  0  0  0  0
    5.8540   -5.2940   27.5660 C   0  0  2  0  0  0  0  0  0  0  0  0
    6.1690   -6.2930   28.5910 C   0  0  0  0  0  0  0  0  0  0  0  0
    5.9140   -5.7560   26.3940 O   0  0  0  0  0  0  0  0  0  0  0  0
    4.6680   -5.9400   28.1740 C   0  0  2  0  0  0  0  0  0  0  0  0
    4.6510   -5.8170   29.5560 C   0  0  0  0  0  0  0  0  0  0  0  0
    3.5410   -6.2370   30.2240 C   0  0  0  0  0  0  0  0  0  0  0  0
    2.6680   -7.0720   29.5960 C   0  0  0  0  0  0  0  0  0  0  0  0
    2.8590   -7.2800   28.2040 O   0  0  0  0  0  0  0  0  0  0  0  0
    4.1940   -7.1880   27.7530 C   0  0  0  0  0  0  0  0  0  0  0  0
    5.6160   -4.7370   23.3960 C   0  0  0  0  0  0  0  0  0  0  0  0
    6.4350   -5.2970   22.2990 C   0  0  0  0  0  0  0  0  0  0  0  0
  1  2  1  0
  2  3  2  0
  2  4  1  0
  4  5  1  0
  5  6  1  0
  6  7  1  0
  7  8  1  0
  8  9  2  0
  8 10  1  0
 10 11  1  0
 11 12  1  0
 12 13  1  1
 12 14  1  0
 12 15  1  0
 15 16  1  1
 16 17  1  0
 17 18  1  0
 18 19  1  0
 15 20  1  0
 19 20  1  0
  7 21  1  0
  4 22  1  0
 21 22  1  0
M  END
