piperidine-amides-1069-covalent
     RDKit          3D

 23 24  0  0  0  0  0  0  0  0999 V2000
    7.1190   -3.2640   19.2300 C   0  0  0  0  0  0  0  0  0  0  0  0
    6.3580   -4.0440   20.2440 C   0  0  0  0  0  0  0  0  0  0  0  0
    5.3020   -4.6010   19.9040 O   0  0  0  0  0  0  0  0  0  0  0  0
    6.8790   -4.1690   21.5490 N   0  0  0  0  0  0  0  0  0  0  0  0
    7.7270   -3.1580   22.1360 C   0  0  0  0  0  0  0  0  0  0  0  0
    6.9590   -2.5750   23.3170 C   0  0  0  0  0  0  0  0  0  0  0  0
    6.5270   -3.7370   24.1360 C   0  0  0  0  0  0  0  0  0  0  0  0
    5.7710   -3.3150   25.3390 C   0  0  0  0  0  0  0  0  0  0  0  0
    4.5820   -3.0220   25.1610 O   0  0  0  0  0  0  0  0  0  0  0  0
    6.3910   -3.2610   26.5900 N   0  0  0  0  0  0  0  0  0  0  0  0
    6.2180   -4.1640   27.6730 C   0  0  0  0  0  0  0  0  0  0  0  0
    6.0690   -5.5300   27.5310 C   0  0  0  0  0  0  0  0  0  0  0  0
    5.3260   -6.2510   28.4630 C   0  0  0  0  0  0  0  0  0  0  0  0
    5.9410   -6.6400   29.6170 C   0  0  0  0  0  0  0  0  0  0  0  0
    5.2630   -7.3980   30.6720 C   0  0  0  0  0  0  0  0  0  0  0  0
    3.8070   -7.7830   30.5050 C   0  0  0  0  0  0  0  0  0  0  0  0
    3.2080   -7.3520   29.2780 N   0  0  0  0  0  0  0  0  0  0  0  0
    3.9700   -6.6130   28.3070 C   0  0  0  0  0  0  0  0  0  0  0  0
    3.2090   -6.3260   27.2400 N   0  0  0  0  0  0  0  0  0  0  0  0
    3.3810   -7.2390   26.2800 C   0  0  0  0  0  0  0  0  0  0  0  0
    1.8310   -6.2840   27.6820 C   0  0  0  0  0  0  0  0  0  0  0  0
    5.7440   -4.7880   23.4070 C   0  0  0  0  0  0  0  0  0  0  0  0
    6.5130   -5.2770   22.3810 C   0  0  0  0  0  0  0  0  0  0  0  0
  1  2  1  0
  2  3  2  0
  2  4  1  0
  4  5  1  0
  5  6  1  0
  6  7  1  0
  7  8  1  0
  8  9  2  0
  8 10  1  0
 10 11  1  0
 11 12  1  0
 12 13  1  0
 13 14  2  0
 14 15  1  0
 15 16  2  0
 16 17  1  0
 13 18  1  0
 17 18  2  0
 18 19  1  0
 19 20  1  0
 19 21  1  0
  7 22  1  0
  4 23  1  0
 22 23  1  0
M  END
