piperidine-amides-2762-covalent
     RDKit          3D

 24 26  0  0  0  0  0  0  0  0999 V2000
    6.2460   -3.7900   19.5510 C   0  0  0  0  0  0  0  0  0  0  0  0
    5.7750   -5.0170   20.2430 C   0  0  0  0  0  0  0  0  0  0  0  0
    4.8330   -5.8220   19.7010 O   0  0  0  0  0  0  0  0  0  0  0  0
    6.2820   -5.1010   21.8220 N   0  0  0  0  0  0  0  0  0  0  0  0
    6.9600   -3.9650   22.9600 C   0  0  0  0  0  0  0  0  0  0  0  0
    5.8250   -3.7920   23.8410 C   0  0  0  0  0  0  0  0  0  0  0  0
    5.0520   -4.9560   24.4880 C   0  0  0  0  0  0  0  0  0  0  0  0
    4.1120   -4.1530   25.5300 C   0  0  0  0  0  0  0  0  0  0  0  0
    2.8400   -3.7210   25.1090 O   0  0  0  0  0  0  0  0  0  0  0  0
    4.6730   -3.2190   26.5620 N   0  0  0  0  0  0  0  0  0  0  0  0
    4.0390   -2.7730   27.5770 C   0  0  1  0  0  0  0  0  0  0  0  0
    4.3420   -3.1610   28.7150 C   0  0  0  0  0  0  0  0  0  0  0  0
    3.9240   -2.1900   29.3650 C   0  0  0  0  0  0  0  0  0  0  0  0
    3.9460   -1.6510   28.3180 O   0  0  0  0  0  0  0  0  0  0  0  0
    4.8500   -1.7670   28.5330 C   0  0  0  0  0  0  0  0  0  0  0  0
    4.6200   -1.4540   28.6120 C   0  0  0  0  0  0  0  0  0  0  0  0
    3.8000   -0.3400   28.8950 C   0  0  0  0  0  0  0  0  0  0  0  0
    4.0190    0.2990   29.1870 C   0  0  0  0  0  0  0  0  0  0  0  0
    4.7760   -1.1500   28.8210 C   0  0  0  0  0  0  0  0  0  0  0  0
    6.4510   -0.8660   29.4050 C   0  0  0  0  0  0  0  0  0  0  0  0
    4.6750   -0.3550   29.1880 C   0  0  0  0  0  0  0  0  0  0  0  0
    4.4860    1.0260   29.8250 C   0  0  0  0  0  0  0  0  0  0  0  0
    4.6740   -5.9760   23.2960 C   0  0  0  0  0  0  0  0  0  0  0  0
    5.7580   -6.3510   22.2520 C   0  0  0  0  0  0  0  0  0  0  0  0
  1  2  1  0
  2  3  2  0
  2  4  1  0
  4  5  1  0
  5  6  1  0
  6  7  1  0
  7  8  1  0
  8  9  2  0
  8 10  1  0
 11 10  1  6
 11 12  1  0
 12 13  1  0
 13 14  1  0
 14 15  1  0
 11 16  1  0
 15 16  2  0
 16 17  1  0
 17 18  2  0
 18 19  1  0
 19 20  1  0
 15 21  1  0
 19 21  2  0
 21 22  1  0
  7 23  1  0
  4 24  1  0
 23 24  1  0
M  END
