piperidine-amides-26017-covalent
     RDKit          3D

 25 27  0  0  0  0  0  0  0  0999 V2000
    7.0340   -3.3430   19.3670 C   0  0  0  0  0  0  0  0  0  0  0  0
    6.3770   -4.1880   20.3680 C   0  0  0  0  0  0  0  0  0  0  0  0
    5.4080   -4.8790   19.9970 O   0  0  0  0  0  0  0  0  0  0  0  0
    6.8260   -4.2790   21.7050 N   0  0  0  0  0  0  0  0  0  0  0  0
    6.7380   -5.5280   22.4490 C   0  0  0  0  0  0  0  0  0  0  0  0
    6.1840   -5.1900   23.8100 C   0  0  0  0  0  0  0  0  0  0  0  0
    6.0760   -3.7100   23.9800 C   0  0  0  0  0  0  0  0  0  0  0  0
    5.4610   -3.2640   25.2620 C   0  0  0  0  0  0  0  0  0  0  0  0
    4.2740   -2.8250   25.2210 O   0  0  0  0  0  0  0  0  0  0  0  0
    6.0280   -3.2710   26.5660 N   0  0  0  0  0  0  0  0  0  0  0  0
    6.1320   -1.9170   27.1790 C   0  0  0  0  0  0  0  0  0  0  0  0
    5.8450   -0.7690   26.3750 C   0  0  0  0  0  0  0  0  0  0  0  0
    5.9160    0.5690   26.9910 C   0  0  0  0  0  0  0  0  0  0  0  0
    6.2670    1.0020   28.4360 C   0  0  0  0  0  0  0  0  0  0  0  0
    6.6480    1.0360   29.8920 C   0  0  0  0  0  0  0  0  0  0  0  0
    5.6100    1.2530   30.8310 O   0  0  0  0  0  0  0  0  0  0  0  0
    7.8700    0.8740   30.2280 O   0  0  0  0  0  0  0  0  0  0  0  0
    8.2770   -0.3450   30.7650 C   0  0  0  0  0  0  0  0  0  0  0  0
    6.4820   -0.3810   28.8780 N   0  0  0  0  0  0  0  0  0  0  0  0
    6.4480   -1.6180   28.4310 N   0  0  0  0  0  0  0  0  0  0  0  0
    5.4020   -4.2190   27.4590 C   0  0  0  0  0  0  0  0  0  0  0  0
    6.0250   -5.0300   28.2670 C   0  0  0  0  0  0  0  0  0  0  0  0
    5.7500   -5.8590   27.1620 C   0  0  0  0  0  0  0  0  0  0  0  0
    7.3450   -2.9720   23.6890 C   0  0  0  0  0  0  0  0  0  0  0  0
    7.7060   -3.2400   22.2470 C   0  0  0  0  0  0  0  0  0  0  0  0
  1  2  1  0
  2  3  2  0
  2  4  1  0
  4  5  1  0
  5  6  1  0
  6  7  1  0
  7  8  1  0
  8  9  2  0
  8 10  1  0
 10 11  1  0
 11 12  2  0
 12 13  1  0
 13 14  2  0
 14 15  1  0
 15 16  2  0
 15 17  1  0
 17 18  1  0
 14 19  1  0
 11 20  1  0
 19 20  2  0
 10 21  1  0
 21 22  1  0
 21 23  1  0
 22 23  1  0
  7 24  1  0
  4 25  1  0
 24 25  1  0
M  END
