piperidine-amides-12917-covalent
     RDKit          3D

 22 23  0  0  0  0  0  0  0  0999 V2000
    7.1620   -3.2120   19.0430 C   0  0  0  0  0  0  0  0  0  0  0  0
    6.3480   -3.8620   20.0900 C   0  0  0  0  0  0  0  0  0  0  0  0
    5.2260   -4.2860   19.7570 O   0  0  0  0  0  0  0  0  0  0  0  0
    6.8260   -4.0590   21.3850 N   0  0  0  0  0  0  0  0  0  0  0  0
    6.0340   -4.8900   22.1990 C   0  0  0  0  0  0  0  0  0  0  0  0
    5.1500   -4.1140   23.0760 C   0  0  0  0  0  0  0  0  0  0  0  0
    5.7610   -2.8760   23.6350 C   0  0  0  0  0  0  0  0  0  0  0  0
    5.3880   -2.7330   25.0680 C   0  0  0  0  0  0  0  0  0  0  0  0
    4.2400   -3.0910   25.4060 O   0  0  0  0  0  0  0  0  0  0  0  0
    6.2650   -2.2090   26.0420 N   0  0  0  0  0  0  0  0  0  0  0  0
    6.4840   -2.8830   27.3320 C   0  0  0  0  0  0  0  0  0  0  0  0
    7.6590   -3.7530   27.2230 C   0  0  1  0  0  0  0  0  0  0  0  0
    8.1270   -4.4830   28.3970 C   0  0  0  0  0  0  0  0  0  0  0  0
    8.7640   -5.6330   28.0640 C   0  0  0  0  0  0  0  0  0  0  0  0
    8.7130   -5.7540   26.7360 C   0  0  0  0  0  0  0  0  0  0  0  0
    7.7210   -4.8330   26.3030 N   0  0  0  0  0  0  0  0  0  0  0  0
    6.5230   -5.2780   25.9070 C   0  0  0  0  0  0  0  0  0  0  0  0
    6.5560   -5.4540   24.5710 C   0  0  0  0  0  0  0  0  0  0  0  0
    5.6160   -6.3300   23.9860 F   0  0  0  0  0  0  0  0  0  0  0  0
    7.7940   -5.9460   24.2710 F   0  0  0  0  0  0  0  0  0  0  0  0
    7.2120   -2.6930   23.3430 C   0  0  0  0  0  0  0  0  0  0  0  0
    7.5890   -3.0060   22.0300 C   0  0  0  0  0  0  0  0  0  0  0  0
  1  2  1  0
  2  3  2  0
  2  4  1  0
  4  5  1  0
  5  6  1  0
  6  7  1  0
  7  8  1  0
  8  9  2  0
  8 10  1  0
 10 11  1  0
 12 11  1  1
 12 13  1  0
 13 14  1  0
 14 15  1  0
 12 16  1  0
 15 16  1  0
 16 17  1  0
 17 18  1  0
 18 19  1  0
 18 20  1  0
  7 21  1  0
  4 22  1  0
 21 22  1  0
M  END
