piperidine-amides-31381-covalent
     RDKit          3D

 27 29  0  0  0  0  0  0  0  0999 V2000
    7.0220   -3.4230   19.3980 C   0  0  0  0  0  0  0  0  0  0  0  0
    6.3920   -4.2350   20.4180 C   0  0  0  0  0  0  0  0  0  0  0  0
    5.4270   -4.9650   20.0200 O   0  0  0  0  0  0  0  0  0  0  0  0
    6.8120   -4.2950   21.7770 N   0  0  0  0  0  0  0  0  0  0  0  0
    7.6700   -3.2450   22.3530 C   0  0  0  0  0  0  0  0  0  0  0  0
    6.6500   -2.6210   23.3800 C   0  0  0  0  0  0  0  0  0  0  0  0
    6.2510   -3.7040   24.3750 C   0  0  0  0  0  0  0  0  0  0  0  0
    5.0280   -3.2080   25.3110 C   0  0  0  0  0  0  0  0  0  0  0  0
    4.0780   -2.9860   24.5880 O   0  0  0  0  0  0  0  0  0  0  0  0
    5.2920   -3.1420   26.5820 N   0  0  0  0  0  0  0  0  0  0  0  0
    5.3060   -2.7400   27.8840 C   0  0  0  0  0  0  0  0  0  0  0  0
    4.9120   -3.2320   29.1030 C   0  0  0  0  0  0  0  0  0  0  0  0
    5.2800   -4.6370   29.1770 N   0  0  0  0  0  0  0  0  0  0  0  0
    4.4410   -5.6660   28.9680 C   0  0  0  0  0  0  0  0  0  0  0  0
    4.2570   -6.3520   27.8370 N   0  0  0  0  0  0  0  0  0  0  0  0
    3.4440   -7.3880   27.5450 C   0  0  0  0  0  0  0  0  0  0  0  0
    2.5390   -7.9150   28.6960 C   0  0  0  0  0  0  0  0  0  0  0  0
    2.7650   -7.1670   29.8640 C   0  0  0  0  0  0  0  0  0  0  0  0
    2.0910   -7.4150   31.0730 C   0  0  0  0  0  0  0  0  0  0  0  0
    1.3940   -8.5910   31.0590 F   0  0  0  0  0  0  0  0  0  0  0  0
    2.9240   -7.4170   32.1630 F   0  0  0  0  0  0  0  0  0  0  0  0
    1.1780   -6.3850   31.2500 F   0  0  0  0  0  0  0  0  0  0  0  0
    3.6930   -6.0700   29.9900 N   0  0  0  0  0  0  0  0  0  0  0  0
    6.4240   -4.8950   28.3580 C   0  0  0  0  0  0  0  0  0  0  0  0
    6.1970   -4.0860   27.0220 C   0  0  0  0  0  0  0  0  0  0  0  0
    5.8420   -5.0480   23.6870 C   0  0  0  0  0  0  0  0  0  0  0  0
    6.6130   -5.4530   22.6170 C   0  0  0  0  0  0  0  0  0  0  0  0
  1  2  1  0
  2  3  2  0
  2  4  1  0
  4  5  1  0
  5  6  1  0
  6  7  1  0
  7  8  1  0
  8  9  2  0
  8 10  1  0
 10 11  1  0
 11 12  1  0
 12 13  1  0
 13 14  1  0
 14 15  2  0
 15 16  1  0
 16 17  2  0
 17 18  1  0
 18 19  1  0
 19 20  1  0
 19 21  1  0
 19 22  1  0
 14 23  1  0
 18 23  2  0
 13 24  1  0
 10 25  1  0
 24 25  1  0
  7 26  1  0
  4 27  1  0
 26 27  1  0
M  END
