piperidine-amides-11194-covalent
     RDKit          3D

 19 20  0  0  0  0  0  0  0  0999 V2000
    7.0880   -3.2780   19.1960 C   0  0  0  0  0  0  0  0  0  0  0  0
    6.3360   -4.0150   20.2160 C   0  0  0  0  0  0  0  0  0  0  0  0
    5.2870   -4.5940   19.8960 O   0  0  0  0  0  0  0  0  0  0  0  0
    6.8020   -4.1180   21.5370 N   0  0  0  0  0  0  0  0  0  0  0  0
    7.7280   -3.1620   22.1030 C   0  0  0  0  0  0  0  0  0  0  0  0
    7.3670   -3.0420   23.5520 C   0  0  0  0  0  0  0  0  0  0  0  0
    6.0000   -3.5940   23.8120 C   0  0  0  0  0  0  0  0  0  0  0  0
    5.5770   -3.3380   25.1990 C   0  0  0  0  0  0  0  0  0  0  0  0
    4.3570   -3.1740   25.4900 O   0  0  0  0  0  0  0  0  0  0  0  0
    6.5160   -3.2690   26.2340 N   0  0  0  0  0  0  0  0  0  0  0  0
    6.1010   -3.0600   27.6250 C   0  0  1  0  0  0  0  0  0  0  0  0
    6.4310   -4.2550   28.4500 C   0  0  0  0  0  0  0  0  0  0  0  0
    6.1710   -5.5880   27.8690 C   0  0  0  0  0  0  0  0  0  0  0  0
    6.7380   -1.8030   28.1740 C   0  0  1  0  0  0  0  0  0  0  0  0
    5.7210   -0.8750   28.3530 C   0  0  0  0  0  0  0  0  0  0  0  0
    6.4040   -1.3860   29.6520 C   0  0  2  0  0  0  0  0  0  0  0  0
    7.4890   -0.7780   30.2260 C   0  0  0  0  0  0  0  0  0  0  0  0
    5.9350   -5.0730   23.5440 C   0  0  0  0  0  0  0  0  0  0  0  0
    6.6450   -5.3790   22.2420 C   0  0  0  0  0  0  0  0  0  0  0  0
  1  2  1  0
  2  3  2  0
  2  4  1  0
  4  5  1  0
  5  6  1  0
  6  7  1  0
  7  8  1  0
  8  9  2  0
  8 10  1  0
 10 11  1  0
 11 12  1  1
 12 13  1  0
 11 14  1  0
 14 15  1  6
 14 16  1  0
 15 16  1  0
 16 17  1  6
  7 18  1  0
  4 19  1  0
 18 19  1  0
M  END
