piperidine-amides-13479-covalent
     RDKit          3D

 22 24  0  0  0  0  0  0  0  0999 V2000
    7.0600   -3.3620   19.3670 C   0  0  0  0  0  0  0  0  0  0  0  0
    6.3350   -4.1860   20.3660 C   0  0  0  0  0  0  0  0  0  0  0  0
    5.3680   -4.8670   19.9900 O   0  0  0  0  0  0  0  0  0  0  0  0
    6.7990   -4.2050   21.7000 N   0  0  0  0  0  0  0  0  0  0  0  0
    7.7180   -3.1850   22.1760 C   0  0  0  0  0  0  0  0  0  0  0  0
    7.5630   -3.1120   23.6910 C   0  0  0  0  0  0  0  0  0  0  0  0
    6.1920   -3.6130   23.9580 C   0  0  0  0  0  0  0  0  0  0  0  0
    5.6790   -3.3030   25.3150 C   0  0  0  0  0  0  0  0  0  0  0  0
    4.4650   -3.4630   25.4740 O   0  0  0  0  0  0  0  0  0  0  0  0
    6.5230   -2.8400   26.3350 N   0  0  0  0  0  0  0  0  0  0  0  0
    6.6690   -1.4910   26.7790 C   0  0  1  0  0  0  0  0  0  0  0  0
    5.8830   -0.5190   26.7300 C   0  0  0  0  0  0  0  0  0  0  0  0
    5.6960   -1.1560   27.9940 C   0  0  2  0  0  0  0  0  0  0  0  0
    5.9880   -0.4770   29.1560 C   0  0  0  0  0  0  0  0  0  0  0  0
    5.0100    0.5150   29.7230 C   0  0  0  0  0  0  0  0  0  0  0  0
    5.2430    1.3240   31.0220 C   0  0  0  0  0  0  0  0  0  0  0  0
    6.5970    0.9670   31.6330 C   0  0  0  0  0  0  0  0  0  0  0  0
    7.4410    0.0580   31.0700 C   0  0  0  0  0  0  0  0  0  0  0  0
    7.1690   -0.6840   29.8300 C   0  0  0  0  0  0  0  0  0  0  0  0
    8.0780   -1.5570   29.3670 F   0  0  0  0  0  0  0  0  0  0  0  0
    5.9890   -5.0690   23.6470 C   0  0  0  0  0  0  0  0  0  0  0  0
    6.6790   -5.4010   22.4960 C   0  0  0  0  0  0  0  0  0  0  0  0
  1  2  1  0
  2  3  2  0
  2  4  1  0
  4  5  1  0
  5  6  1  0
  6  7  1  0
  7  8  1  0
  8  9  2  0
  8 10  1  0
 11 10  1  6
 11 12  1  0
 11 13  1  0
 12 13  1  0
 13 14  1  1
 14 15  2  0
 15 16  1  0
 16 17  2  0
 17 18  1  0
 14 19  1  0
 18 19  2  0
 19 20  1  0
  7 21  1  0
  4 22  1  0
 21 22  1  0
M  END
