piperidine-amides-32610-covalent
     RDKit          3D

 28 29  0  0  0  0  0  0  0  0999 V2000
    7.0770   -3.2570   19.2470 C   0  0  0  0  0  0  0  0  0  0  0  0
    6.3100   -4.0460   20.2550 C   0  0  0  0  0  0  0  0  0  0  0  0
    5.2620   -4.6020   19.8970 O   0  0  0  0  0  0  0  0  0  0  0  0
    6.8060   -4.1850   21.5710 N   0  0  0  0  0  0  0  0  0  0  0  0
    6.6630   -5.4540   22.2530 C   0  0  0  0  0  0  0  0  0  0  0  0
    6.2270   -5.2130   23.7060 C   0  0  0  0  0  0  0  0  0  0  0  0
    6.1460   -3.7480   23.9560 C   0  0  0  0  0  0  0  0  0  0  0  0
    5.5870   -3.4460   25.2980 C   0  0  0  0  0  0  0  0  0  0  0  0
    4.3790   -3.6760   25.4270 O   0  0  0  0  0  0  0  0  0  0  0  0
    6.3650   -2.9270   26.3370 N   0  0  0  0  0  0  0  0  0  0  0  0
    6.7530   -1.5640   26.3840 C   0  0  0  0  0  0  0  0  0  0  0  0
    5.9560   -0.5500   25.8950 C   0  0  0  0  0  0  0  0  0  0  0  0
    4.7550   -0.2350   26.5430 C   0  0  0  0  0  0  0  0  0  0  0  0
    4.7370    0.7180   27.5260 C   0  0  0  0  0  0  0  0  0  0  0  0
    3.4620    1.0250   28.1860 C   0  0  0  0  0  0  0  0  0  0  0  0
    2.2090    0.2780   27.7590 C   0  0  0  0  0  0  0  0  0  0  0  0
    0.9950    0.5520   28.3720 O   0  0  0  0  0  0  0  0  0  0  0  0
    0.3270   -0.4110   29.1580 C   0  0  0  0  0  0  0  0  0  0  0  0
    2.2670   -0.6960   26.7430 C   0  0  0  0  0  0  0  0  0  0  0  0
    1.1500   -1.3910   26.3340 O   0  0  0  0  0  0  0  0  0  0  0  0
    1.1660   -2.7140   25.8740 C   0  0  0  0  0  0  0  0  0  0  0  0
    3.5540   -0.8970   26.1860 C   0  0  0  0  0  0  0  0  0  0  0  0
    6.1730   -3.6420   27.6170 C   0  0  0  0  0  0  0  0  0  0  0  0
    5.8040   -5.1490   27.6870 C   0  0  0  0  0  0  0  0  0  0  0  0
    5.9480   -5.7610   26.4960 F   0  0  0  0  0  0  0  0  0  0  0  0
    6.5900   -5.7880   28.6320 F   0  0  0  0  0  0  0  0  0  0  0  0
    7.4110   -3.0190   23.6480 C   0  0  0  0  0  0  0  0  0  0  0  0
    7.6720   -3.1670   22.1520 C   0  0  0  0  0  0  0  0  0  0  0  0
  1  2  1  0
  2  3  2  0
  2  4  1  0
  4  5  1  0
  5  6  1  0
  6  7  1  0
  7  8  1  0
  8  9  2  0
  8 10  1  0
 10 11  1  0
 11 12  1  0
 12 13  1  0
 13 14  2  0
 14 15  1  0
 15 16  2  0
 16 17  1  0
 17 18  1  0
 16 19  1  0
 19 20  1  0
 20 21  1  0
 13 22  1  0
 19 22  2  0
 10 23  1  0
 23 24  1  0
 24 25  1  0
 24 26  1  0
  7 27  1  0
  4 28  1  0
 27 28  1  0
M  END
