piperidine-amides-31720-covalent
     RDKit          3D

 28 31  0  0  0  0  0  0  0  0999 V2000
    7.0790   -3.4010   19.2860 C   0  0  0  0  0  0  0  0  0  0  0  0
    6.3630   -4.1400   20.2930 C   0  0  0  0  0  0  0  0  0  0  0  0
    5.2970   -4.7230   19.9500 O   0  0  0  0  0  0  0  0  0  0  0  0
    6.8420   -4.2890   21.6070 N   0  0  0  0  0  0  0  0  0  0  0  0
    6.5030   -5.5430   22.3050 C   0  0  0  0  0  0  0  0  0  0  0  0
    5.5300   -4.9270   23.3710 C   0  0  0  0  0  0  0  0  0  0  0  0
    6.4680   -4.2130   24.3000 C   0  0  0  0  0  0  0  0  0  0  0  0
    5.7180   -3.2630   25.3390 C   0  0  0  0  0  0  0  0  0  0  0  0
    5.5170   -2.1610   24.8630 O   0  0  0  0  0  0  0  0  0  0  0  0
    5.4940   -3.9090   26.4090 N   0  0  0  0  0  0  0  0  0  0  0  0
    4.8980   -4.8020   27.2210 C   0  0  0  0  0  0  0  0  0  0  0  0
    5.1350   -5.4030   28.4160 C   0  0  0  0  0  0  0  0  0  0  0  0
    5.5610   -4.4890   29.3780 C   0  0  0  0  0  0  0  0  0  0  0  0
    4.7410   -3.2950   29.7000 C   0  0  0  0  0  0  0  0  0  0  0  0
    3.7490   -4.0870   30.5810 C   0  0  0  0  0  0  0  0  0  0  0  0
    3.2860   -3.4050   31.7420 N   0  0  0  0  0  0  0  0  0  0  0  0
    2.4280   -4.4130   32.2670 C   0  0  0  0  0  0  0  0  0  0  0  0
    1.7330   -4.1640   33.4680 C   0  0  0  0  0  0  0  0  0  0  0  0
    1.0390   -3.5330   32.2700 C   0  0  0  0  0  0  0  0  0  0  0  0
   -0.4290   -3.8480   32.5670 C   0  0  0  0  0  0  0  0  0  0  0  0
   -0.4620   -4.5820   33.7270 C   0  0  0  0  0  0  0  0  0  0  0  0
    0.8210   -5.0180   34.1090 C   0  0  0  0  0  0  0  0  0  0  0  0
    2.4150   -5.5440   31.4790 N   0  0  0  0  0  0  0  0  0  0  0  0
    3.2190   -5.3740   30.4310 O   0  0  0  0  0  0  0  0  0  0  0  0
    6.6270   -4.1590   28.3910 C   0  0  0  0  0  0  0  0  0  0  0  0
    6.2740   -3.2350   27.4170 C   0  0  0  0  0  0  0  0  0  0  0  0
    7.6810   -3.5530   23.7180 C   0  0  0  0  0  0  0  0  0  0  0  0
    7.5700   -3.2200   22.2570 C   0  0  0  0  0  0  0  0  0  0  0  0
  1  2  1  0
  2  3  2  0
  2  4  1  0
  4  5  1  0
  5  6  1  0
  6  7  1  0
  7  8  1  0
  8  9  2  0
  8 10  1  0
 10 11  1  0
 11 12  1  0
 12 13  1  0
 13 14  1  0
 14 15  1  0
 15 16  2  0
 16 17  1  0
 17 18  1  0
 18 19  1  0
 19 20  1  0
 20 21  1  0
 18 22  1  0
 21 22  1  0
 17 23  2  0
 15 24  1  0
 23 24  1  0
 13 25  1  0
 10 26  1  0
 25 26  1  0
  7 27  1  0
  4 28  1  0
 27 28  1  0
M  END
