piperidine-amides-23655-covalent
     RDKit          3D

 22 23  0  0  0  0  0  0  0  0999 V2000
    6.9910   -3.3870   19.4270 C   0  0  0  0  0  0  0  0  0  0  0  0
    6.3670   -4.2710   20.4320 C   0  0  0  0  0  0  0  0  0  0  0  0
    5.4240   -4.9890   20.0130 O   0  0  0  0  0  0  0  0  0  0  0  0
    6.8280   -4.3300   21.7810 N   0  0  0  0  0  0  0  0  0  0  0  0
    6.5190   -5.4680   22.5890 C   0  0  0  0  0  0  0  0  0  0  0  0
    6.0460   -5.1410   23.9460 C   0  0  0  0  0  0  0  0  0  0  0  0
    5.9740   -3.6880   24.2010 C   0  0  0  0  0  0  0  0  0  0  0  0
    5.3690   -3.1830   25.5260 C   0  0  0  0  0  0  0  0  0  0  0  0
    4.8700   -2.0520   25.4910 O   0  0  0  0  0  0  0  0  0  0  0  0
    5.2820   -3.8620   26.7900 N   0  0  0  0  0  0  0  0  0  0  0  0
    6.1830   -4.7160   27.3200 C   0  0  0  0  0  0  0  0  0  0  0  0
    6.0000   -5.5140   28.5090 C   0  0  0  0  0  0  0  0  0  0  0  0
    5.3090   -5.1360   29.5990 N   0  0  0  0  0  0  0  0  0  0  0  0
    4.9680   -6.5640   30.4470 S   0  0  0  0  0  0  0  0  0  0  0  0
    5.3150   -7.7890   29.2320 C   0  0  0  0  0  0  0  0  0  0  0  0
    5.9170   -6.8060   31.6050 O   0  0  0  0  0  0  0  0  0  0  0  0
    3.5640   -6.6420   30.9300 O   0  0  0  0  0  0  0  0  0  0  0  0
    4.2690   -4.6640   28.7190 C   0  0  1  0  0  0  0  0  0  0  0  0
    3.0420   -4.4150   29.6010 C   0  0  0  0  0  0  0  0  0  0  0  0
    4.6430   -3.3590   27.9630 C   0  0  0  0  0  0  0  0  0  0  0  0
    7.3280   -3.0640   23.8560 C   0  0  0  0  0  0  0  0  0  0  0  0
    7.6310   -3.2670   22.3780 C   0  0  0  0  0  0  0  0  0  0  0  0
  1  2  1  0
  2  3  2  0
  2  4  1  0
  4  5  1  0
  5  6  1  0
  6  7  1  0
  7  8  1  0
  8  9  2  0
  8 10  1  0
 10 11  1  0
 11 12  1  0
 12 13  1  0
 13 14  1  0
 14 15  1  0
 14 16  2  0
 14 17  2  0
 13 18  1  0
 18 19  1  1
 10 20  1  0
 18 20  1  0
  7 21  1  0
  4 22  1  0
 21 22  1  0
M  END
