piperidine-amides-3050-covalent
     RDKit          3D

 23 24  0  0  0  0  0  0  0  0999 V2000
    7.1350   -3.3040   19.1770 C   0  0  0  0  0  0  0  0  0  0  0  0
    6.3290   -3.9990   20.1720 C   0  0  0  0  0  0  0  0  0  0  0  0
    5.2440   -4.4800   19.8590 O   0  0  0  0  0  0  0  0  0  0  0  0
    6.8400   -4.1810   21.4980 N   0  0  0  0  0  0  0  0  0  0  0  0
    6.4730   -5.3480   22.2470 C   0  0  0  0  0  0  0  0  0  0  0  0
    5.7800   -4.9300   23.5120 C   0  0  0  0  0  0  0  0  0  0  0  0
    6.5700   -3.7940   24.1480 C   0  0  0  0  0  0  0  0  0  0  0  0
    5.8030   -3.2980   25.3250 C   0  0  0  0  0  0  0  0  0  0  0  0
    4.8850   -2.4630   25.2080 O   0  0  0  0  0  0  0  0  0  0  0  0
    6.1180   -3.7920   26.6140 N   0  0  0  0  0  0  0  0  0  0  0  0
    5.9930   -5.2160   26.8270 C   0  0  2  0  0  0  0  0  0  0  0  0
    4.5590   -5.5820   26.8640 C   0  0  0  0  0  0  0  0  0  0  0  0
    4.0460   -5.6360   25.5820 O   0  0  0  0  0  0  0  0  0  0  0  0
    6.5680   -5.6100   28.1290 C   0  0  0  0  0  0  0  0  0  0  0  0
    5.8380   -5.5870   29.3040 C   0  0  0  0  0  0  0  0  0  0  0  0
    4.5570   -6.0860   29.3960 C   0  0  0  0  0  0  0  0  0  0  0  0
    3.3690   -5.2820   29.5370 C   0  0  0  0  0  0  0  0  0  0  0  0
    2.0710   -5.6720   29.6350 C   0  0  0  0  0  0  0  0  0  0  0  0
    1.7660   -6.9750   29.6100 N   0  0  0  0  0  0  0  0  0  0  0  0
    2.8560   -7.9250   29.4750 C   0  0  0  0  0  0  0  0  0  0  0  0
    4.2160   -7.5430   29.3710 C   0  0  0  0  0  0  0  0  0  0  0  0
    6.9330   -2.6990   23.2730 C   0  0  0  0  0  0  0  0  0  0  0  0
    7.6090   -3.1600   22.1650 C   0  0  0  0  0  0  0  0  0  0  0  0
  1  2  1  0
  2  3  2  0
  2  4  1  0
  4  5  1  0
  5  6  1  0
  6  7  1  0
  7  8  1  0
  8  9  2  0
  8 10  1  0
 10 11  1  0
 11 12  1  1
 12 13  1  0
 11 14  1  0
 14 15  1  0
 15 16  1  0
 16 17  2  0
 17 18  1  0
 18 19  2  0
 19 20  1  0
 16 21  1  0
 20 21  2  0
  7 22  1  0
  4 23  1  0
 22 23  1  0
M  END
