piperidine-amides-11223-covalent
     RDKit          3D

 19 19  0  0  0  0  0  0  0  0999 V2000
    7.1400   -3.2990   19.1990 C   0  0  0  0  0  0  0  0  0  0  0  0
    6.3570   -4.0160   20.1990 C   0  0  0  0  0  0  0  0  0  0  0  0
    5.2710   -4.5260   19.8740 O   0  0  0  0  0  0  0  0  0  0  0  0
    6.8460   -4.1880   21.5000 N   0  0  0  0  0  0  0  0  0  0  0  0
    7.7080   -3.2080   22.1110 C   0  0  0  0  0  0  0  0  0  0  0  0
    6.9860   -2.7550   23.3460 C   0  0  0  0  0  0  0  0  0  0  0  0
    6.4340   -3.8930   24.1680 C   0  0  0  0  0  0  0  0  0  0  0  0
    5.5730   -3.3860   25.2550 C   0  0  0  0  0  0  0  0  0  0  0  0
    4.3150   -3.3390   25.1160 O   0  0  0  0  0  0  0  0  0  0  0  0
    6.0870   -2.9390   26.4870 N   0  0  0  0  0  0  0  0  0  0  0  0
    6.0550   -3.8240   27.6580 C   0  0  0  0  0  0  0  0  0  0  0  0
    7.4200   -3.8400   28.1590 C   0  0  2  0  0  0  0  0  0  0  0  0
    7.9990   -2.5220   28.4870 C   0  0  0  0  0  0  0  0  0  0  0  0
    8.2930   -4.3820   27.0980 C   0  0  0  0  0  0  0  0  0  0  0  0
    8.3720   -3.6960   25.9130 O   0  0  0  0  0  0  0  0  0  0  0  0
    9.0010   -5.4930   27.3150 O   0  0  0  0  0  0  0  0  0  0  0  0
    9.5820   -6.1480   26.2220 C   0  0  0  0  0  0  0  0  0  0  0  0
    5.6330   -4.8400   23.3260 C   0  0  0  0  0  0  0  0  0  0  0  0
    6.3290   -5.2880   22.2390 C   0  0  0  0  0  0  0  0  0  0  0  0
  1  2  1  0
  2  3  2  0
  2  4  1  0
  4  5  1  0
  5  6  1  0
  6  7  1  0
  7  8  1  0
  8  9  2  0
  8 10  1  0
 10 11  1  0
 11 12  1  0
 12 13  1  6
 12 14  1  0
 14 15  2  0
 14 16  1  0
 16 17  1  0
  7 18  1  0
  4 19  1  0
 18 19  1  0
M  END
