piperidine-amides-18927-covalent
     RDKit          3D

 21 22  0  0  0  0  0  0  0  0999 V2000
    7.2150   -3.3770   19.4060 C   0  0  0  0  0  0  0  0  0  0  0  0
    6.4900   -4.1870   20.3400 C   0  0  0  0  0  0  0  0  0  0  0  0
    5.4070   -4.7530   19.9710 O   0  0  0  0  0  0  0  0  0  0  0  0
    7.0220   -4.4020   21.6210 N   0  0  0  0  0  0  0  0  0  0  0  0
    6.6840   -5.6450   22.3130 C   0  0  0  0  0  0  0  0  0  0  0  0
    5.6050   -5.0480   23.2750 C   0  0  0  0  0  0  0  0  0  0  0  0
    6.2440   -3.9050   24.0500 C   0  0  0  0  0  0  0  0  0  0  0  0
    5.0970   -3.4180   25.0070 C   0  0  0  0  0  0  0  0  0  0  0  0
    4.0680   -3.2350   24.3860 O   0  0  0  0  0  0  0  0  0  0  0  0
    5.5280   -3.3360   26.1690 N   0  0  0  0  0  0  0  0  0  0  0  0
    6.3490   -3.1940   27.2120 C   0  0  0  0  0  0  0  0  0  0  0  0
    6.6330   -3.9190   28.3390 C   0  0  0  0  0  0  0  0  0  0  0  0
    5.4200   -4.0330   28.9730 C   0  0  0  0  0  0  0  0  0  0  0  0
    5.3640   -5.0530   29.9270 O   0  0  0  0  0  0  0  0  0  0  0  0
    4.6170   -2.8160   29.3650 C   0  0  0  0  0  0  0  0  0  0  0  0
    5.1810   -1.6130   28.9770 O   0  0  0  0  0  0  0  0  0  0  0  0
    6.4410   -1.4080   29.5900 C   0  0  0  0  0  0  0  0  0  0  0  0
    4.4170   -4.3670   28.0010 C   0  0  0  0  0  0  0  0  0  0  0  0
    4.4030   -3.3460   27.0520 C   0  0  0  0  0  0  0  0  0  0  0  0
    7.0110   -2.8650   23.4070 C   0  0  0  0  0  0  0  0  0  0  0  0
    7.8680   -3.5170   22.3020 C   0  0  0  0  0  0  0  0  0  0  0  0
  1  2  1  0
  2  3  2  0
  2  4  1  0
  4  5  1  0
  5  6  1  0
  6  7  1  0
  7  8  1  0
  8  9  2  0
  8 10  1  0
 10 11  1  0
 11 12  1  0
 12 13  1  0
 13 14  1  0
 13 15  1  0
 15 16  1  0
 16 17  1  0
 13 18  1  0
 10 19  1  0
 18 19  1  0
  7 20  1  0
  4 21  1  0
 20 21  1  0
M  END
