piperidine-amides-15307-covalent
     RDKit          3D

 16 16  0  0  0  0  0  0  0  0999 V2000
    7.0900   -3.2810   19.2200 C   0  0  0  0  0  0  0  0  0  0  0  0
    6.3330   -4.0550   20.2160 C   0  0  0  0  0  0  0  0  0  0  0  0
    5.2630   -4.6080   19.8990 O   0  0  0  0  0  0  0  0  0  0  0  0
    6.8270   -4.2300   21.5090 N   0  0  0  0  0  0  0  0  0  0  0  0
    7.5880   -3.1730   22.1360 C   0  0  0  0  0  0  0  0  0  0  0  0
    6.7340   -2.6550   23.2920 C   0  0  0  0  0  0  0  0  0  0  0  0
    6.5110   -3.8520   24.1890 C   0  0  0  0  0  0  0  0  0  0  0  0
    5.7810   -3.4330   25.4060 C   0  0  0  0  0  0  0  0  0  0  0  0
    4.5350   -3.5150   25.4080 O   0  0  0  0  0  0  0  0  0  0  0  0
    6.4900   -2.9320   26.5230 N   0  0  0  0  0  0  0  0  0  0  0  0
    6.8730   -1.5520   26.4780 C   0  0  0  0  0  0  0  0  0  0  0  0
    6.2610   -3.4850   27.8480 C   0  0  0  0  0  0  0  0  0  0  0  0
    6.1850   -4.8520   27.7990 C   0  0  0  0  0  0  0  0  0  0  0  0
    5.9300   -5.4290   26.5920 F   0  0  0  0  0  0  0  0  0  0  0  0
    5.7640   -4.8980   23.4270 C   0  0  0  0  0  0  0  0  0  0  0  0
    6.4580   -5.3470   22.3070 C   0  0  0  0  0  0  0  0  0  0  0  0
  1  2  1  0
  2  3  2  0
  2  4  1  0
  4  5  1  0
  5  6  1  0
  6  7  1  0
  7  8  1  0
  8  9  2  0
  8 10  1  0
 10 11  1  0
 10 12  1  0
 12 13  1  0
 13 14  1  0
  7 15  1  0
  4 16  1  0
 15 16  1  0
M  END
