piperidine-amides-29011-covalent
     RDKit          3D

 26 27  0  0  0  0  0  0  0  0999 V2000
    7.0420   -3.3250   19.3330 C   0  0  0  0  0  0  0  0  0  0  0  0
    6.3750   -4.1590   20.3300 C   0  0  0  0  0  0  0  0  0  0  0  0
    5.3800   -4.8140   19.9730 O   0  0  0  0  0  0  0  0  0  0  0  0
    6.8770   -4.2490   21.6580 N   0  0  0  0  0  0  0  0  0  0  0  0
    6.6570   -5.4700   22.3770 C   0  0  0  0  0  0  0  0  0  0  0  0
    6.1510   -5.1820   23.7670 C   0  0  0  0  0  0  0  0  0  0  0  0
    6.1570   -3.6770   23.9670 C   0  0  0  0  0  0  0  0  0  0  0  0
    5.5400   -3.2560   25.2830 C   0  0  0  0  0  0  0  0  0  0  0  0
    4.3640   -2.9140   25.2120 O   0  0  0  0  0  0  0  0  0  0  0  0
    6.2720   -3.2670   26.4730 N   0  0  0  0  0  0  0  0  0  0  0  0
    5.6900   -2.7810   27.6980 C   0  0  0  0  0  0  0  0  0  0  0  0
    5.9400   -3.5260   28.8670 C   0  0  0  0  0  0  0  0  0  0  0  0
    6.8230   -4.5590   28.7310 C   0  0  0  0  0  0  0  0  0  0  0  0
    6.8350   -5.1900   27.5250 C   0  0  1  0  0  0  0  0  0  0  0  0
    7.8760   -6.1630   27.7720 C   0  0  0  0  0  0  0  0  0  0  0  0
    9.1960   -5.5030   27.9340 C   0  0  0  0  0  0  0  0  0  0  0  0
    5.6160   -5.7840   27.1780 C   0  0  0  0  0  0  0  0  0  0  0  0
    5.4900   -6.0410   25.9560 O   0  0  0  0  0  0  0  0  0  0  0  0
    4.5350   -6.1070   28.0700 N   0  0  0  0  0  0  0  0  0  0  0  0
    3.8110   -7.2630   27.6150 C   0  0  0  0  0  0  0  0  0  0  0  0
    2.2740   -7.3790   27.6480 C   0  0  0  0  0  0  0  0  0  0  0  0
    4.9280   -6.3840   29.4380 C   0  0  0  0  0  0  0  0  0  0  0  0
    5.8520   -7.3850   29.6480 C   0  0  0  0  0  0  0  0  0  0  0  0
    7.2450   -4.3040   26.5870 C   0  0  0  0  0  0  0  0  0  0  0  0
    7.5750   -3.1670   23.7200 C   0  0  0  0  0  0  0  0  0  0  0  0
    7.7360   -3.2350   22.2130 C   0  0  0  0  0  0  0  0  0  0  0  0
  1  2  1  0
  2  3  2  0
  2  4  1  0
  4  5  1  0
  5  6  1  0
  6  7  1  0
  7  8  1  0
  8  9  2  0
  8 10  1  0
 10 11  1  0
 11 12  1  0
 12 13  1  0
 13 14  1  0
 14 15  1  1
 15 16  1  0
 14 17  1  0
 17 18  2  0
 17 19  1  0
 19 20  1  0
 20 21  1  0
 19 22  1  0
 22 23  1  0
 10 24  1  0
 14 24  1  0
  7 25  1  0
  4 26  1  0
 25 26  1  0
M  END
