piperidine-amides-28656-covalent
     RDKit          3D

 26 28  0  0  0  0  0  0  0  0999 V2000
    7.1910   -4.0400   19.6730 C   0  0  0  0  0  0  0  0  0  0  0  0
    6.0280   -4.0600   20.4080 C   0  0  0  0  0  0  0  0  0  0  0  0
    5.0050   -4.1970   19.7360 O   0  0  0  0  0  0  0  0  0  0  0  0
    6.1720   -4.0410   21.7920 N   0  0  0  0  0  0  0  0  0  0  0  0
    5.9900   -5.3220   22.4470 C   0  0  0  0  0  0  0  0  0  0  0  0
    6.1100   -5.1370   23.9270 C   0  0  0  0  0  0  0  0  0  0  0  0
    5.9660   -3.6550   24.1280 C   0  0  0  0  0  0  0  0  0  0  0  0
    5.6400   -3.2440   25.5190 C   0  0  0  0  0  0  0  0  0  0  0  0
    4.6060   -2.5970   25.6180 O   0  0  0  0  0  0  0  0  0  0  0  0
    6.4430   -3.5870   26.5980 N   0  0  0  0  0  0  0  0  0  0  0  0
    6.3600   -2.6990   27.7610 C   0  0  0  0  0  0  0  0  0  0  0  0
    5.8890   -3.1090   29.0290 C   0  0  0  0  0  0  0  0  0  0  0  0
    5.7780   -4.3030   29.2460 O   0  0  0  0  0  0  0  0  0  0  0  0
    5.4240   -4.9180   28.1430 C   0  0  2  0  0  0  0  0  0  0  0  0
    4.6830   -6.0730   28.0910 C   0  0  0  0  0  0  0  0  0  0  0  0
    3.6090   -6.3150   27.2050 N   0  0  0  0  0  0  0  0  0  0  0  0
    3.1310   -7.6090   27.5250 C   0  0  0  0  0  0  0  0  0  0  0  0
    1.9360   -8.1730   26.7190 C   0  0  0  0  0  0  0  0  0  0  0  0
    2.4590   -8.9310   25.5530 C   0  0  0  0  0  0  0  0  0  0  0  0
    1.1410   -9.1250   27.5820 C   0  0  0  0  0  0  0  0  0  0  0  0
    0.9850   -7.2110   26.3730 C   0  0  0  0  0  0  0  0  0  0  0  0
    3.8780   -8.0590   28.5140 N   0  0  0  0  0  0  0  0  0  0  0  0
    4.8130   -7.1850   28.8810 N   0  0  0  0  0  0  0  0  0  0  0  0
    6.7010   -4.7600   27.4040 C   0  0  0  0  0  0  0  0  0  0  0  0
    7.2360   -3.0550   23.6660 C   0  0  0  0  0  0  0  0  0  0  0  0
    7.2700   -3.1890   22.1930 C   0  0  0  0  0  0  0  0  0  0  0  0
  1  2  1  0
  2  3  2  0
  2  4  1  0
  4  5  1  0
  5  6  1  0
  6  7  1  0
  7  8  1  0
  8  9  2  0
  8 10  1  0
 10 11  1  0
 11 12  1  0
 12 13  1  0
 13 14  1  0
 14 15  1  1
 15 16  2  0
 16 17  1  0
 17 18  1  0
 18 19  1  0
 18 20  1  0
 18 21  1  0
 17 22  2  0
 15 23  1  0
 22 23  1  0
 10 24  1  0
 14 24  1  0
  7 25  1  0
  4 26  1  0
 25 26  1  0
M  END
