piperidine-amides-27097-covalent
     RDKit          3D

 26 28  0  0  0  0  0  0  0  0999 V2000
    7.1380   -3.2920   19.2300 C   0  0  0  0  0  0  0  0  0  0  0  0
    6.3610   -4.0040   20.2480 C   0  0  0  0  0  0  0  0  0  0  0  0
    5.2730   -4.5130   19.8740 O   0  0  0  0  0  0  0  0  0  0  0  0
    6.8620   -4.1400   21.5430 N   0  0  0  0  0  0  0  0  0  0  0  0
    6.6030   -5.3330   22.3140 C   0  0  0  0  0  0  0  0  0  0  0  0
    5.8580   -4.9160   23.5500 C   0  0  0  0  0  0  0  0  0  0  0  0
    5.8010   -3.4120   23.6660 C   0  0  0  0  0  0  0  0  0  0  0  0
    5.2040   -2.9810   24.9450 C   0  0  0  0  0  0  0  0  0  0  0  0
    4.0490   -2.5180   24.9240 O   0  0  0  0  0  0  0  0  0  0  0  0
    5.8520   -3.0900   26.1690 N   0  0  0  0  0  0  0  0  0  0  0  0
    5.9240   -4.3960   26.7460 C   0  0  0  0  0  0  0  0  0  0  0  0
    7.3410   -4.6550   27.0720 C   0  0  0  0  0  0  0  0  0  0  0  0
    7.9510   -4.1430   28.1440 C   0  0  0  0  0  0  0  0  0  0  0  0
    9.2370   -4.4120   28.3750 C   0  0  0  0  0  0  0  0  0  0  0  0
    9.9700   -5.1890   27.5800 N   0  0  0  0  0  0  0  0  0  0  0  0
    9.4470   -5.7310   26.5070 C   0  0  0  0  0  0  0  0  0  0  0  0
    8.1260   -5.4660   26.2460 C   0  0  0  0  0  0  0  0  0  0  0  0
    6.6000   -2.0110   26.7560 C   0  0  0  0  0  0  0  0  0  0  0  0
    5.8820   -1.2660   27.8580 C   0  0  0  0  0  0  0  0  0  0  0  0
    4.9070   -2.1420   28.6490 C   0  0  0  0  0  0  0  0  0  0  0  0
    4.0980   -1.6030   29.7780 C   0  0  0  0  0  0  0  0  0  0  0  0
    4.2340   -0.1620   30.1580 C   0  0  0  0  0  0  0  0  0  0  0  0
    5.1420    0.6390   29.4170 N   0  0  0  0  0  0  0  0  0  0  0  0
    5.9280    0.0750   28.3050 C   0  0  0  0  0  0  0  0  0  0  0  0
    7.2100   -2.8660   23.5470 C   0  0  0  0  0  0  0  0  0  0  0  0
    7.7390   -3.1460   22.1520 C   0  0  0  0  0  0  0  0  0  0  0  0
  1  2  1  0
  2  3  2  0
  2  4  1  0
  4  5  1  0
  5  6  1  0
  6  7  1  0
  7  8  1  0
  8  9  2  0
  8 10  1  0
 10 11  1  0
 11 12  1  0
 12 13  2  0
 13 14  1  0
 14 15  2  0
 15 16  1  0
 12 17  1  0
 16 17  2  0
 10 18  1  0
 18 19  1  0
 19 20  2  0
 20 21  1  0
 21 22  2  0
 22 23  1  0
 19 24  1  0
 23 24  2  0
  7 25  1  0
  4 26  1  0
 25 26  1  0
M  END
