piperidine-amides-33327-covalent
     RDKit          3D

 30 34  0  0  0  0  0  0  0  0999 V2000
    7.0180   -3.3680   19.3800 C   0  0  0  0  0  0  0  0  0  0  0  0
    6.4000   -4.2570   20.3800 C   0  0  0  0  0  0  0  0  0  0  0  0
    5.4020   -4.9150   19.9960 O   0  0  0  0  0  0  0  0  0  0  0  0
    6.9340   -4.3950   21.6950 N   0  0  0  0  0  0  0  0  0  0  0  0
    6.5880   -5.5400   22.4750 C   0  0  0  0  0  0  0  0  0  0  0  0
    6.1660   -5.2220   23.8450 C   0  0  0  0  0  0  0  0  0  0  0  0
    6.1380   -3.7750   24.1010 C   0  0  0  0  0  0  0  0  0  0  0  0
    5.6900   -3.3210   25.4700 C   0  0  0  0  0  0  0  0  0  0  0  0
    5.5470   -2.1030   25.6370 O   0  0  0  0  0  0  0  0  0  0  0  0
    5.3680   -4.1370   26.5840 N   0  0  0  0  0  0  0  0  0  0  0  0
    4.4290   -3.7590   27.5780 C   0  0  0  0  0  0  0  0  0  0  0  0
    4.1980   -4.6520   28.7150 C   0  0  0  0  0  0  0  0  0  0  0  0
    5.3670   -5.6270   28.7190 C   0  0  0  0  0  0  0  0  0  0  0  0
    5.9830   -6.1970   27.6420 C   0  0  0  0  0  0  0  0  0  0  0  0
    6.4380   -4.8460   27.2540 C   0  0  0  0  0  0  0  0  0  0  0  0
    6.5070   -5.1360   29.3680 C   0  0  0  0  0  0  0  0  0  0  0  0
    5.5370   -6.0620   30.1240 C   0  0  2  0  0  0  0  0  0  0  0  0
    6.0000   -7.4720   30.3080 C   0  0  0  0  0  0  0  0  0  0  0  0
    6.3180   -8.2060   29.1360 N   0  0  0  0  0  0  0  0  0  0  0  0
    6.6860   -9.2570   29.7860 N   0  0  0  0  0  0  0  0  0  0  0  0
    6.6210   -9.2700   31.2410 C   0  0  0  0  0  0  0  0  0  0  0  0
    7.0280  -10.4810   32.1280 C   0  0  0  0  0  0  0  0  0  0  0  0
    6.4380  -10.4640   33.4910 C   0  0  0  0  0  0  0  0  0  0  0  0
    6.6850  -11.4520   34.4330 C   0  0  0  0  0  0  0  0  0  0  0  0
    7.5170  -12.4860   34.0730 C   0  0  0  0  0  0  0  0  0  0  0  0
    8.1380  -12.5380   32.6960 C   0  0  0  0  0  0  0  0  0  0  0  0
    7.8570  -11.5210   31.7860 C   0  0  0  0  0  0  0  0  0  0  0  0
    6.1810   -8.1300   31.5640 O   0  0  0  0  0  0  0  0  0  0  0  0
    7.5090   -3.2460   23.7600 C   0  0  0  0  0  0  0  0  0  0  0  0
    7.7150   -3.3070   22.2540 C   0  0  0  0  0  0  0  0  0  0  0  0
  1  2  1  0
  2  3  2  0
  2  4  1  0
  4  5  1  0
  5  6  1  0
  6  7  1  0
  7  8  1  0
  8  9  2  0
  8 10  1  0
 10 11  1  0
 11 12  1  0
 13 12  1  0
 13 14  1  0
 10 15  1  0
 14 15  1  0
 13 16  1  0
 13 17  1  0
 16 17  1  0
 17 18  1  6
 18 19  2  0
 19 20  1  0
 20 21  2  0
 21 22  1  0
 22 23  2  0
 23 24  1  0
 24 25  2  0
 25 26  1  0
 22 27  1  0
 26 27  2  0
 18 28  1  0
 21 28  1  0
  7 29  1  0
  4 30  1  0
 29 30  1  0
M  END
