piperidine-amides-314-covalent
     RDKit          3D

 29 32  0  0  0  0  0  0  0  0999 V2000
    7.0830   -3.3520   19.2410 C   0  0  0  0  0  0  0  0  0  0  0  0
    6.3880   -4.0670   20.2840 C   0  0  0  0  0  0  0  0  0  0  0  0
    5.3440   -4.7120   19.9520 O   0  0  0  0  0  0  0  0  0  0  0  0
    6.8530   -4.1190   21.6110 N   0  0  0  0  0  0  0  0  0  0  0  0
    6.8000   -5.4240   22.3010 C   0  0  0  0  0  0  0  0  0  0  0  0
    5.7570   -5.1080   23.4330 C   0  0  0  0  0  0  0  0  0  0  0  0
    6.1060   -3.7440   24.0060 C   0  0  0  0  0  0  0  0  0  0  0  0
    5.5630   -3.6910   25.4900 C   0  0  0  0  0  0  0  0  0  0  0  0
    4.9430   -4.7070   25.7200 O   0  0  0  0  0  0  0  0  0  0  0  0
    5.8750   -2.6070   26.0630 N   0  0  0  0  0  0  0  0  0  0  0  0
    6.0990   -1.4370   26.7120 C   0  0  0  0  0  0  0  0  0  0  0  0
    6.2440   -0.1230   26.4660 C   0  0  0  0  0  0  0  0  0  0  0  0
    6.4650    0.8410   27.4690 C   0  0  0  0  0  0  0  0  0  0  0  0
    6.5910    0.6580   28.9300 C   0  0  0  0  0  0  0  0  0  0  0  0
    6.4330   -0.8370   29.2880 C   0  0  0  0  0  0  0  0  0  0  0  0
    6.2030   -1.7020   28.2040 C   0  0  0  0  0  0  0  0  0  0  0  0
    6.0100   -3.0560   28.5420 C   0  0  0  0  0  0  0  0  0  0  0  0
    6.9880   -3.9570   28.7580 N   0  0  0  0  0  0  0  0  0  0  0  0
    6.3710   -5.1260   29.0490 N   0  0  0  0  0  0  0  0  0  0  0  0
    4.9850   -4.7980   28.9790 C   0  0  0  0  0  0  0  0  0  0  0  0
    4.0660   -6.0240   29.2900 C   0  0  0  0  0  0  0  0  0  0  0  0
    3.2480   -6.5470   28.3320 C   0  0  0  0  0  0  0  0  0  0  0  0
    2.4030   -7.6030   28.4840 C   0  0  0  0  0  0  0  0  0  0  0  0
    2.3500   -8.2140   29.6950 C   0  0  0  0  0  0  0  0  0  0  0  0
    3.1540   -7.7390   30.7190 C   0  0  0  0  0  0  0  0  0  0  0  0
    4.0080   -6.6490   30.5140 C   0  0  0  0  0  0  0  0  0  0  0  0
    4.7490   -3.5410   28.6720 N   0  0  0  0  0  0  0  0  0  0  0  0
    7.4400   -3.1540   23.7070 C   0  0  0  0  0  0  0  0  0  0  0  0
    7.6850   -3.1300   22.2370 C   0  0  0  0  0  0  0  0  0  0  0  0
  1  2  1  0
  2  3  2  0
  2  4  1  0
  4  5  1  0
  5  6  1  0
  6  7  1  0
  7  8  1  0
  8  9  2  0
  8 10  1  0
 10 11  1  0
 11 12  2  0
 12 13  1  0
 13 14  2  0
 14 15  1  0
 11 16  1  0
 15 16  2  0
 16 17  1  0
 17 18  2  0
 18 19  1  0
 19 20  2  0
 20 21  1  0
 21 22  2  0
 22 23  1  0
 23 24  2  0
 24 25  1  0
 21 26  1  0
 25 26  2  0
 17 27  1  0
 20 27  1  0
  7 28  1  0
  4 29  1  0
 28 29  1  0
M  END
