piperidine-amides-4441-covalent
     RDKit          3D

 25 26  0  0  0  0  0  0  0  0999 V2000
    7.0990   -3.3650   19.3370 C   0  0  0  0  0  0  0  0  0  0  0  0
    6.4040   -4.1910   20.3330 C   0  0  0  0  0  0  0  0  0  0  0  0
    5.3470   -4.7570   19.9620 O   0  0  0  0  0  0  0  0  0  0  0  0
    6.9500   -4.3810   21.6290 N   0  0  0  0  0  0  0  0  0  0  0  0
    6.5330   -5.4980   22.4030 C   0  0  0  0  0  0  0  0  0  0  0  0
    6.0120   -5.1120   23.7090 C   0  0  0  0  0  0  0  0  0  0  0  0
    6.0820   -3.6620   23.9540 C   0  0  0  0  0  0  0  0  0  0  0  0
    5.6300   -3.2660   25.3250 C   0  0  0  0  0  0  0  0  0  0  0  0
    4.4200   -3.3300   25.6100 O   0  0  0  0  0  0  0  0  0  0  0  0
    6.5410   -2.8150   26.2870 N   0  0  0  0  0  0  0  0  0  0  0  0
    6.4740   -1.6300   27.0490 C   0  0  0  0  0  0  0  0  0  0  0  0
    6.9910   -1.5980   28.4160 C   0  0  0  0  0  0  0  0  0  0  0  0
    6.9310   -0.3080   29.2770 C   0  0  0  0  0  0  0  0  0  0  0  0
    6.3890    0.9020   28.8300 C   0  0  0  0  0  0  0  0  0  0  0  0
    5.8750    0.7810   27.4020 C   0  0  0  0  0  0  0  0  0  0  0  0
    5.3420    2.1500   27.1180 C   0  0  0  0  0  0  0  0  0  0  0  0
    5.9470    2.7870   26.0300 O   0  0  0  0  0  0  0  0  0  0  0  0
    4.3600    2.7270   27.8260 N   0  0  0  0  0  0  0  0  0  0  0  0
    4.5270    4.2210   28.5610 S   0  0  0  0  0  0  0  0  0  0  0  0
    2.9540    5.0060   28.9190 C   0  0  0  0  0  0  0  0  0  0  0  0
    5.3780    3.7180   30.0200 C   0  0  0  0  0  0  0  0  0  0  0  0
    5.3600    5.1740   27.7820 O   0  0  0  0  0  0  0  0  0  0  0  0
    5.9530   -0.4500   26.6280 C   0  0  0  0  0  0  0  0  0  0  0  0
    7.4950   -3.1420   23.6770 C   0  0  0  0  0  0  0  0  0  0  0  0
    7.6720   -3.2220   22.2000 C   0  0  0  0  0  0  0  0  0  0  0  0
  1  2  1  0
  2  3  2  0
  2  4  1  0
  4  5  1  0
  5  6  1  0
  6  7  1  0
  7  8  1  0
  8  9  2  0
  8 10  1  0
 10 11  1  0
 11 12  2  0
 12 13  1  0
 13 14  2  0
 14 15  1  0
 15 16  1  0
 16 17  2  0
 16 18  1  0
 18 19  2  0
 19 20  1  0
 19 21  1  0
 19 22  2  0
 11 23  1  0
 15 23  2  0
  7 24  1  0
  4 25  1  0
 24 25  1  0
M  END
