piperidine-amides-27576-covalent
     RDKit          3D

 25 26  0  0  0  0  0  0  0  0999 V2000
    7.1000   -3.3510   19.3740 C   0  0  0  0  0  0  0  0  0  0  0  0
    6.3550   -4.1770   20.3290 C   0  0  0  0  0  0  0  0  0  0  0  0
    5.2640   -4.6360   19.9130 O   0  0  0  0  0  0  0  0  0  0  0  0
    6.8680   -4.4880   21.5980 N   0  0  0  0  0  0  0  0  0  0  0  0
    6.5020   -5.6770   22.3130 C   0  0  0  0  0  0  0  0  0  0  0  0
    6.3370   -5.2580   23.7460 C   0  0  0  0  0  0  0  0  0  0  0  0
    5.9120   -3.8170   23.8370 C   0  0  0  0  0  0  0  0  0  0  0  0
    5.4690   -3.4570   25.2050 C   0  0  0  0  0  0  0  0  0  0  0  0
    4.2700   -3.6650   25.4870 O   0  0  0  0  0  0  0  0  0  0  0  0
    6.2780   -2.8850   26.2080 N   0  0  0  0  0  0  0  0  0  0  0  0
    6.1580   -3.4960   27.5290 C   0  0  0  0  0  0  0  0  0  0  0  0
    5.8290   -4.9910   27.4680 C   0  0  0  0  0  0  0  0  0  0  0  0
    4.4850   -5.2050   27.7150 F   0  0  0  0  0  0  0  0  0  0  0  0
    6.4030   -5.7440   28.5030 F   0  0  0  0  0  0  0  0  0  0  0  0
    6.5650   -1.4860   26.2970 C   0  0  2  0  0  0  0  0  0  0  0  0
    5.6290   -0.7880   27.0300 C   0  0  0  0  0  0  0  0  0  0  0  0
    6.6850   -0.9730   25.0090 C   0  0  0  0  0  0  0  0  0  0  0  0
    7.7500   -0.8490   24.1540 C   0  0  0  0  0  0  0  0  0  0  0  0
    7.3420   -0.2520   22.9860 N   0  0  0  0  0  0  0  0  0  0  0  0
    6.0020    0.0070   23.0850 N   0  0  0  0  0  0  0  0  0  0  0  0
    5.4010    0.6310   21.9330 C   0  0  0  0  0  0  0  0  0  0  0  0
    5.0680   -0.2010   20.7100 C   0  0  0  0  0  0  0  0  0  0  0  0
    5.5430   -0.4060   24.2910 C   0  0  0  0  0  0  0  0  0  0  0  0
    6.9660   -2.8390   23.3080 C   0  0  0  0  0  0  0  0  0  0  0  0
    7.7850   -3.5970   22.2950 C   0  0  0  0  0  0  0  0  0  0  0  0
  1  2  1  0
  2  3  2  0
  2  4  1  0
  4  5  1  0
  5  6  1  0
  6  7  1  0
  7  8  1  0
  8  9  2  0
  8 10  1  0
 10 11  1  0
 11 12  1  0
 12 13  1  0
 12 14  1  0
 10 15  1  0
 15 16  1  6
 15 17  1  0
 17 18  1  0
 18 19  2  0
 19 20  1  0
 20 21  1  0
 21 22  1  0
 17 23  2  0
 20 23  1  0
  7 24  1  0
  4 25  1  0
 24 25  1  0
M  END
