piperidine-amides-32533-covalent
     RDKit          3D

 27 29  0  0  0  0  0  0  0  0999 V2000
    7.0340   -3.3550   19.4060 C   0  0  0  0  0  0  0  0  0  0  0  0
    6.3630   -4.2430   20.3990 C   0  0  0  0  0  0  0  0  0  0  0  0
    5.4130   -4.9470   20.0100 O   0  0  0  0  0  0  0  0  0  0  0  0
    6.8480   -4.2890   21.7340 N   0  0  0  0  0  0  0  0  0  0  0  0
    7.7410   -3.2500   22.2370 C   0  0  0  0  0  0  0  0  0  0  0  0
    7.5610   -3.1490   23.7510 C   0  0  0  0  0  0  0  0  0  0  0  0
    6.2160   -3.7100   24.0050 C   0  0  0  0  0  0  0  0  0  0  0  0
    5.5580   -3.2580   25.2710 C   0  0  0  0  0  0  0  0  0  0  0  0
    4.8460   -2.2650   25.1300 O   0  0  0  0  0  0  0  0  0  0  0  0
    5.6750   -3.8730   26.5310 N   0  0  0  0  0  0  0  0  0  0  0  0
    4.5620   -4.3600   27.2370 C   0  0  0  0  0  0  0  0  0  0  0  0
    4.3610   -4.0680   28.5630 C   0  0  0  0  0  0  0  0  0  0  0  0
    5.5320   -4.5250   29.2560 N   0  0  0  0  0  0  0  0  0  0  0  0
    5.0680   -5.9970   29.9880 S   0  0  0  0  0  0  0  0  0  0  0  0
    4.7070   -7.0160   28.9240 O   0  0  0  0  0  0  0  0  0  0  0  0
    6.2080   -6.5090   30.8020 O   0  0  0  0  0  0  0  0  0  0  0  0
    3.6640   -5.6000   31.0170 C   0  0  0  0  0  0  0  0  0  0  0  0
    3.2470   -4.3680   31.4680 C   0  0  0  0  0  0  0  0  0  0  0  0
    2.1090   -4.7550   32.2120 N   0  0  0  0  0  0  0  0  0  0  0  0
    1.8900   -6.0360   32.1960 N   0  0  0  0  0  0  0  0  0  0  0  0
    0.8820   -6.6640   32.8160 C   0  0  0  0  0  0  0  0  0  0  0  0
    2.9050   -6.6790   31.4060 C   0  0  0  0  0  0  0  0  0  0  0  0
    3.0930   -8.1550   31.0850 C   0  0  0  0  0  0  0  0  0  0  0  0
    6.6390   -4.5110   28.4930 C   0  0  0  0  0  0  0  0  0  0  0  0
    6.3980   -3.3030   27.6380 C   0  0  0  0  0  0  0  0  0  0  0  0
    6.1290   -5.1820   23.7790 C   0  0  0  0  0  0  0  0  0  0  0  0
    6.6740   -5.4810   22.5420 C   0  0  0  0  0  0  0  0  0  0  0  0
  1  2  1  0
  2  3  2  0
  2  4  1  0
  4  5  1  0
  5  6  1  0
  6  7  1  0
  7  8  1  0
  8  9  2  0
  8 10  1  0
 10 11  1  0
 11 12  1  0
 12 13  1  0
 13 14  1  0
 14 15  2  0
 14 16  2  0
 14 17  1  0
 17 18  1  0
 18 19  2  0
 19 20  1  0
 20 21  1  0
 17 22  2  0
 20 22  1  0
 22 23  1  0
 13 24  1  0
 10 25  1  0
 24 25  1  0
  7 26  1  0
  4 27  1  0
 26 27  1  0
M  END
