piperidine-amides-13012-covalent
     RDKit          3D

 23 23  0  0  0  0  0  0  0  0999 V2000
    7.1230   -3.2760   19.1500 C   0  0  0  0  0  0  0  0  0  0  0  0
    6.3710   -4.0180   20.1850 C   0  0  0  0  0  0  0  0  0  0  0  0
    5.2600   -4.4730   19.8520 O   0  0  0  0  0  0  0  0  0  0  0  0
    6.9230   -4.2510   21.4460 N   0  0  0  0  0  0  0  0  0  0  0  0
    6.4900   -5.3730   22.2020 C   0  0  0  0  0  0  0  0  0  0  0  0
    5.9460   -5.0150   23.5110 C   0  0  0  0  0  0  0  0  0  0  0  0
    6.5300   -3.8030   24.1350 C   0  0  0  0  0  0  0  0  0  0  0  0
    5.6570   -3.3370   25.2320 C   0  0  0  0  0  0  0  0  0  0  0  0
    4.4680   -3.0820   24.9740 O   0  0  0  0  0  0  0  0  0  0  0  0
    6.1540   -3.1780   26.5290 N   0  0  0  0  0  0  0  0  0  0  0  0
    6.0320   -4.2080   27.5880 C   0  0  1  0  0  0  0  0  0  0  0  0
    6.6600   -3.6820   28.8110 C   0  0  0  0  0  0  0  0  0  0  0  0
    7.0050   -2.2560   28.8860 C   0  0  0  0  0  0  0  0  0  0  0  0
    5.8670   -1.4960   29.8920 S   0  0  0  0  0  0  0  0  0  0  0  0
    6.8280   -0.3140   30.7620 C   0  0  0  0  0  0  0  0  0  0  0  0
    4.7190   -4.7600   27.7920 C   0  0  0  0  0  0  0  0  0  0  0  0
    3.7210   -3.9190   27.8480 O   0  0  0  0  0  0  0  0  0  0  0  0
    4.3360   -6.1340   27.9560 N   0  0  0  0  0  0  0  0  0  0  0  0
    5.1280   -7.0650   28.5370 C   0  0  0  0  0  0  0  0  0  0  0  0
    3.1950   -6.6420   27.3130 O   0  0  0  0  0  0  0  0  0  0  0  0
    3.6560   -7.2400   26.1500 C   0  0  0  0  0  0  0  0  0  0  0  0
    6.9450   -2.7190   23.2190 C   0  0  0  0  0  0  0  0  0  0  0  0
    7.6440   -3.2040   22.1240 C   0  0  0  0  0  0  0  0  0  0  0  0
  1  2  1  0
  2  3  2  0
  2  4  1  0
  4  5  1  0
  5  6  1  0
  6  7  1  0
  7  8  1  0
  8  9  2  0
  8 10  1  0
 10 11  1  0
 11 12  1  1
 12 13  1  0
 13 14  1  0
 14 15  1  0
 11 16  1  0
 16 17  2  0
 16 18  1  0
 18 19  1  0
 18 20  1  0
 20 21  1  0
  7 22  1  0
  4 23  1  0
 22 23  1  0
M  END
