piperidine-amides-17126-covalent
     RDKit          3D

 20 21  0  0  0  0  0  0  0  0999 V2000
    7.1050   -3.3050   19.2980 C   0  0  0  0  0  0  0  0  0  0  0  0
    6.4060   -4.1100   20.3150 C   0  0  0  0  0  0  0  0  0  0  0  0
    5.3470   -4.6760   19.9390 O   0  0  0  0  0  0  0  0  0  0  0  0
    6.9250   -4.2820   21.6270 N   0  0  0  0  0  0  0  0  0  0  0  0
    6.4470   -5.3450   22.4290 C   0  0  0  0  0  0  0  0  0  0  0  0
    6.0450   -4.9850   23.7980 C   0  0  0  0  0  0  0  0  0  0  0  0
    6.3250   -3.6160   24.3290 C   0  0  0  0  0  0  0  0  0  0  0  0
    5.1100   -3.1360   25.0810 C   0  0  0  0  0  0  0  0  0  0  0  0
    3.9940   -3.2970   24.5670 O   0  0  0  0  0  0  0  0  0  0  0  0
    5.1500   -2.5120   26.3490 N   0  0  0  0  0  0  0  0  0  0  0  0
    6.2410   -2.2690   27.1320 C   0  0  0  0  0  0  0  0  0  0  0  0
    5.5120   -2.7100   28.2450 C   0  0  0  0  0  0  0  0  0  0  0  0
    6.2020   -3.9960   28.7360 C   0  0  0  0  0  0  0  0  0  0  0  0
    5.2920   -1.8490   29.4060 C   0  0  0  0  0  0  0  0  0  0  0  0
    4.1410   -2.3820   30.2640 C   0  0  0  0  0  0  0  0  0  0  0  0
    4.1690   -1.8700   31.5600 O   0  0  0  0  0  0  0  0  0  0  0  0
    4.1670   -0.4770   31.4920 C   0  0  0  0  0  0  0  0  0  0  0  0
    4.2680   -2.9980   27.4480 C   0  0  0  0  0  0  0  0  0  0  0  0
    6.7900   -2.5810   23.3200 C   0  0  0  0  0  0  0  0  0  0  0  0
    7.6760   -3.2400   22.2840 C   0  0  0  0  0  0  0  0  0  0  0  0
  1  2  1  0
  2  3  2  0
  2  4  1  0
  4  5  1  0
  5  6  1  0
  6  7  1  0
  7  8  1  0
  8  9  2  0
  8 10  1  0
 10 11  1  0
 11 12  1  0
 12 13  1  0
 12 14  1  0
 14 15  1  0
 15 16  1  0
 16 17  1  0
 10 18  1  0
 12 18  1  0
  7 19  1  0
  4 20  1  0
 19 20  1  0
M  END
