piperidine-amides-24794-covalent
     RDKit          3D

 25 28  0  0  0  0  0  0  0  0999 V2000
    7.1430   -3.2830   19.2360 C   0  0  0  0  0  0  0  0  0  0  0  0
    6.3830   -4.0500   20.2290 C   0  0  0  0  0  0  0  0  0  0  0  0
    5.3150   -4.6170   19.9130 O   0  0  0  0  0  0  0  0  0  0  0  0
    6.8900   -4.1910   21.5220 N   0  0  0  0  0  0  0  0  0  0  0  0
    6.5940   -5.3720   22.2850 C   0  0  0  0  0  0  0  0  0  0  0  0
    5.7040   -4.8960   23.4320 C   0  0  0  0  0  0  0  0  0  0  0  0
    6.5010   -3.8730   24.2220 C   0  0  0  0  0  0  0  0  0  0  0  0
    5.6570   -3.3700   25.3240 C   0  0  0  0  0  0  0  0  0  0  0  0
    4.4230   -3.5170   25.2060 O   0  0  0  0  0  0  0  0  0  0  0  0
    6.1880   -2.7310   26.4760 N   0  0  0  0  0  0  0  0  0  0  0  0
    5.9300   -3.3430   27.7380 C   0  0  0  0  0  0  0  0  0  0  0  0
    5.2320   -2.0970   28.0490 C   0  0  0  0  0  0  0  0  0  0  0  0
    5.4490   -1.4480   29.2330 C   0  0  0  0  0  0  0  0  0  0  0  0
    4.3940   -1.2170   30.0730 C   0  0  0  0  0  0  0  0  0  0  0  0
    4.6250   -0.5440   31.2830 N   0  0  0  0  0  0  0  0  0  0  0  0
    5.8390   -0.0860   31.7100 C   0  0  0  0  0  0  0  0  0  0  0  0
    5.8470    0.5180   32.8730 C   0  0  0  0  0  0  0  0  0  0  0  0
    6.9940    1.1210   33.6110 C   0  0  0  0  0  0  0  0  0  0  0  0
    8.1190    0.7950   32.5680 C   0  0  0  0  0  0  0  0  0  0  0  0
    8.2790    0.1060   31.1780 C   0  0  0  0  0  0  0  0  0  0  0  0
    6.8990   -0.2910   30.9210 C   0  0  0  0  0  0  0  0  0  0  0  0
    6.6060   -0.9550   29.7550 N   0  0  0  0  0  0  0  0  0  0  0  0
    5.6580   -1.3940   26.9290 C   0  0  0  0  0  0  0  0  0  0  0  0
    6.8220   -2.6820   23.3230 C   0  0  0  0  0  0  0  0  0  0  0  0
    7.6460   -3.1350   22.1500 C   0  0  0  0  0  0  0  0  0  0  0  0
  1  2  1  0
  2  3  2  0
  2  4  1  0
  4  5  1  0
  5  6  1  0
  6  7  1  0
  7  8  1  0
  8  9  2  0
  8 10  1  0
 10 11  1  0
 11 12  1  0
 12 13  1  0
 13 14  2  0
 14 15  1  0
 15 16  2  0
 16 17  1  0
 17 18  2  0
 18 19  1  0
 19 20  2  0
 16 21  1  0
 20 21  1  0
 13 22  1  0
 21 22  2  0
 10 23  1  0
 12 23  1  0
  7 24  1  0
  4 25  1  0
 24 25  1  0
M  END
