piperidine-amides-1259-covalent
     RDKit          3D

 23 25  0  0  0  0  0  0  0  0999 V2000
    7.1880   -3.3030   19.2090 C   0  0  0  0  0  0  0  0  0  0  0  0
    6.4000   -4.0680   20.2070 C   0  0  0  0  0  0  0  0  0  0  0  0
    5.2950   -4.5290   19.8840 O   0  0  0  0  0  0  0  0  0  0  0  0
    6.9770   -4.3010   21.4710 N   0  0  0  0  0  0  0  0  0  0  0  0
    7.7250   -3.2820   22.1430 C   0  0  0  0  0  0  0  0  0  0  0  0
    6.7780   -2.7250   23.1970 C   0  0  0  0  0  0  0  0  0  0  0  0
    6.4240   -3.8380   24.1290 C   0  0  0  0  0  0  0  0  0  0  0  0
    5.6840   -3.2960   25.2760 C   0  0  0  0  0  0  0  0  0  0  0  0
    4.4520   -3.3370   25.1890 O   0  0  0  0  0  0  0  0  0  0  0  0
    6.3410   -2.7720   26.3790 N   0  0  0  0  0  0  0  0  0  0  0  0
    5.7250   -2.4320   27.5970 C   0  0  0  0  0  0  0  0  0  0  0  0
    5.4560   -1.1000   27.8090 C   0  0  0  0  0  0  0  0  0  0  0  0
    6.4200   -0.3140   28.4720 C   0  0  0  0  0  0  0  0  0  0  0  0
    6.2460    1.0280   28.7320 C   0  0  0  0  0  0  0  0  0  0  0  0
    5.0140    1.7350   28.3210 C   0  0  0  0  0  0  0  0  0  0  0  0
    4.8230    3.4480   28.6690 Cl  0  0  0  0  0  0  0  0  0  0  0  0
    3.9070    0.9850   27.5970 C   0  0  0  0  0  0  0  0  0  0  0  0
    4.3030   -0.4780   27.4130 C   0  0  0  0  0  0  0  0  0  0  0  0
    4.6310   -3.1440   27.7980 C   0  0  0  0  0  0  0  0  0  0  0  0
    4.8690   -3.5480   29.1070 C   0  0  0  0  0  0  0  0  0  0  0  0
    6.3020   -2.9090   28.9490 C   0  0  0  0  0  0  0  0  0  0  0  0
    5.6790   -4.8800   23.3990 C   0  0  0  0  0  0  0  0  0  0  0  0
    6.5520   -5.4170   22.2510 C   0  0  0  0  0  0  0  0  0  0  0  0
  1  2  1  0
  2  3  2  0
  2  4  1  0
  4  5  1  0
  5  6  1  0
  6  7  1  0
  7  8  1  0
  8  9  2  0
  8 10  1  0
 11 10  1  0
 11 12  1  0
 12 13  2  0
 13 14  1  0
 14 15  2  0
 15 16  1  0
 15 17  1  0
 12 18  1  0
 17 18  2  0
 11 19  1  0
 19 20  1  0
 11 21  1  0
 20 21  1  0
  7 22  1  0
  4 23  1  0
 22 23  1  0
M  END
