piperidine-amides-8729-covalent
     RDKit          3D

 23 24  0  0  0  0  0  0  0  0999 V2000
    7.1290   -3.3140   19.2650 C   0  0  0  0  0  0  0  0  0  0  0  0
    6.3730   -4.0710   20.2560 C   0  0  0  0  0  0  0  0  0  0  0  0
    5.2940   -4.5770   19.9030 O   0  0  0  0  0  0  0  0  0  0  0  0
    6.9110   -4.2630   21.5550 N   0  0  0  0  0  0  0  0  0  0  0  0
    7.5970   -3.1740   22.1740 C   0  0  0  0  0  0  0  0  0  0  0  0
    6.7460   -2.6570   23.2950 C   0  0  0  0  0  0  0  0  0  0  0  0
    6.5660   -3.8040   24.2650 C   0  0  0  0  0  0  0  0  0  0  0  0
    5.8110   -3.3250   25.4720 C   0  0  0  0  0  0  0  0  0  0  0  0
    4.6190   -3.0910   25.2960 O   0  0  0  0  0  0  0  0  0  0  0  0
    6.4840   -3.1800   26.6850 N   0  0  0  0  0  0  0  0  0  0  0  0
    5.9430   -3.6480   27.9220 C   0  0  1  0  0  0  0  0  0  0  0  0
    6.6200   -4.6800   28.5910 C   0  0  0  0  0  0  0  0  0  0  0  0
    6.0130   -2.5070   28.8630 C   0  0  0  0  0  0  0  0  0  0  0  0
    7.0150   -1.5530   28.9810 C   0  0  0  0  0  0  0  0  0  0  0  0
    6.8220   -0.5060   30.0310 C   0  0  0  0  0  0  0  0  0  0  0  0
    5.5790   -0.4730   30.9440 C   0  0  0  0  0  0  0  0  0  0  0  0
    5.4340    0.5250   31.9190 N   0  0  0  0  0  0  0  0  0  0  0  0
    4.0670    0.8830   32.1490 C   0  0  0  0  0  0  0  0  0  0  0  0
    6.1730    0.2380   33.1250 C   0  0  0  0  0  0  0  0  0  0  0  0
    4.6440   -1.4770   30.7340 C   0  0  0  0  0  0  0  0  0  0  0  0
    4.8080   -2.4470   29.7740 C   0  0  0  0  0  0  0  0  0  0  0  0
    5.7490   -4.8610   23.5800 C   0  0  0  0  0  0  0  0  0  0  0  0
    6.3880   -5.3680   22.3120 C   0  0  0  0  0  0  0  0  0  0  0  0
  1  2  1  0
  2  3  2  0
  2  4  1  0
  4  5  1  0
  5  6  1  0
  6  7  1  0
  7  8  1  0
  8  9  2  0
  8 10  1  0
 10 11  1  0
 11 12  1  1
 11 13  1  0
 13 14  2  0
 14 15  1  0
 15 16  2  0
 16 17  1  0
 17 18  1  0
 17 19  1  0
 16 20  1  0
 13 21  1  0
 20 21  2  0
  7 22  1  0
  4 23  1  0
 22 23  1  0
M  END
