piperidine-amides-11023-covalent
     RDKit          3D

 21 22  0  0  0  0  0  0  0  0999 V2000
    7.1150   -3.2950   19.2410 C   0  0  0  0  0  0  0  0  0  0  0  0
    6.3130   -4.0080   20.2340 C   0  0  0  0  0  0  0  0  0  0  0  0
    5.2490   -4.5370   19.8790 O   0  0  0  0  0  0  0  0  0  0  0  0
    6.7460   -4.1580   21.5610 N   0  0  0  0  0  0  0  0  0  0  0  0
    6.6330   -5.4190   22.2540 C   0  0  0  0  0  0  0  0  0  0  0  0
    6.0220   -5.1060   23.5910 C   0  0  0  0  0  0  0  0  0  0  0  0
    6.0530   -3.6330   23.8860 C   0  0  0  0  0  0  0  0  0  0  0  0
    5.6500   -3.2800   25.2670 C   0  0  0  0  0  0  0  0  0  0  0  0
    4.4310   -3.0900   25.5480 O   0  0  0  0  0  0  0  0  0  0  0  0
    6.5750   -3.1290   26.3200 N   0  0  0  0  0  0  0  0  0  0  0  0
    6.2730   -3.5880   27.6960 C   0  0  0  0  0  0  0  0  0  0  0  0
    5.6430   -4.9270   27.6710 C   0  0  1  0  0  0  0  0  0  0  0  0
    5.5380   -5.6660   26.4020 C   0  0  0  0  0  0  0  0  0  0  0  0
    6.3110   -5.8790   28.6160 C   0  0  0  0  0  0  0  0  0  0  0  0
    5.2320   -6.6760   29.3070 C   0  0  0  0  0  0  0  0  0  0  0  0
    5.3250   -7.0610   30.6750 C   0  0  0  0  0  0  0  0  0  0  0  0
    4.1770   -7.7440   30.9370 C   0  0  0  0  0  0  0  0  0  0  0  0
    3.2060   -7.9230   29.8830 C   0  0  0  0  0  0  0  0  0  0  0  0
    3.7820   -7.1560   28.3980 S   0  0  0  0  0  0  0  0  0  0  0  0
    7.4250   -3.0220   23.5970 C   0  0  0  0  0  0  0  0  0  0  0  0
    7.6360   -3.1310   22.0860 C   0  0  0  0  0  0  0  0  0  0  0  0
  1  2  1  0
  2  3  2  0
  2  4  1  0
  4  5  1  0
  5  6  1  0
  6  7  1  0
  7  8  1  0
  8  9  2  0
  8 10  1  0
 10 11  1  0
 11 12  1  0
 12 13  1  6
 12 14  1  0
 14 15  1  0
 15 16  2  0
 16 17  1  0
 17 18  2  0
 15 19  1  0
 18 19  1  0
  7 20  1  0
  4 21  1  0
 20 21  1  0
M  END
