piperidine-amides-31345-covalent
     RDKit          3D

 28 30  0  0  0  0  0  0  0  0999 V2000
    7.1080   -3.3320   19.1470 C   0  0  0  0  0  0  0  0  0  0  0  0
    6.3100   -3.9440   20.1720 C   0  0  0  0  0  0  0  0  0  0  0  0
    5.2060   -4.4700   19.8430 O   0  0  0  0  0  0  0  0  0  0  0  0
    6.7580   -4.0250   21.4940 N   0  0  0  0  0  0  0  0  0  0  0  0
    6.4900   -5.2750   22.2250 C   0  0  0  0  0  0  0  0  0  0  0  0
    5.1790   -4.8570   22.9890 C   0  0  0  0  0  0  0  0  0  0  0  0
    5.6260   -3.8200   23.9890 C   0  0  0  0  0  0  0  0  0  0  0  0
    4.4740   -3.6210   25.1020 C   0  0  0  0  0  0  0  0  0  0  0  0
    3.3870   -3.5620   24.5550 O   0  0  0  0  0  0  0  0  0  0  0  0
    4.9570   -3.5510   26.2860 N   0  0  0  0  0  0  0  0  0  0  0  0
    5.3780   -2.9970   27.4020 C   0  0  0  0  0  0  0  0  0  0  0  0
    6.5560   -2.5090   27.4950 C   0  0  0  0  0  0  0  0  0  0  0  0
    7.3200   -1.9460   28.4990 C   0  0  0  0  0  0  0  0  0  0  0  0
    8.6410   -1.5430   28.0320 C   0  0  0  0  0  0  0  0  0  0  0  0
    8.4240   -2.0030   26.5700 C   0  0  0  0  0  0  0  0  0  0  0  0
    9.4270   -1.8390   25.6060 C   0  0  0  0  0  0  0  0  0  0  0  0
    7.2360   -2.5710   26.2370 N   0  0  0  0  0  0  0  0  0  0  0  0
    6.9370   -3.0430   24.9240 C   0  0  0  0  0  0  0  0  0  0  0  0
    5.5580   -4.7790   26.7620 C   0  0  0  0  0  0  0  0  0  0  0  0
    5.7000   -5.8400   25.6560 C   0  0  0  0  0  0  0  0  0  0  0  0
    4.6350   -6.4840   25.1210 C   0  0  0  0  0  0  0  0  0  0  0  0
    5.1000   -7.3000   24.1810 C   0  0  0  0  0  0  0  0  0  0  0  0
    6.4400   -7.1640   24.1370 C   0  0  0  0  0  0  0  0  0  0  0  0
    7.2060   -7.8740   23.2480 C   0  0  0  0  0  0  0  0  0  0  0  0
    6.8630   -6.2160   25.1110 N   0  0  0  0  0  0  0  0  0  0  0  0
    8.2250   -5.8210   25.3650 C   0  0  0  0  0  0  0  0  0  0  0  0
    6.2210   -2.5960   23.3470 C   0  0  0  0  0  0  0  0  0  0  0  0
    7.2100   -2.9030   22.2580 C   0  0  0  0  0  0  0  0  0  0  0  0
  1  2  1  0
  2  3  2  0
  2  4  1  0
  4  5  1  0
  5  6  1  0
  6  7  1  0
  7  8  1  0
  8  9  2  0
  8 10  1  0
 10 11  1  0
 11 12  1  0
 12 13  2  0
 13 14  1  0
 14 15  2  0
 15 16  1  0
 12 17  1  0
 15 17  1  0
 17 18  1  0
 10 19  1  0
 19 20  1  0
 20 21  2  0
 21 22  1  0
 22 23  2  0
 23 24  1  0
 20 25  1  0
 23 25  1  0
 25 26  1  0
  7 27  1  0
  4 28  1  0
 27 28  1  0
M  END
