piperidine-amides-1121-covalent
     RDKit          3D

 23 25  0  0  0  0  0  0  0  0999 V2000
    7.0970   -3.3330   19.3300 C   0  0  0  0  0  0  0  0  0  0  0  0
    6.3360   -4.1450   20.3070 C   0  0  0  0  0  0  0  0  0  0  0  0
    5.3070   -4.7320   19.9410 O   0  0  0  0  0  0  0  0  0  0  0  0
    6.8360   -4.2690   21.6120 N   0  0  0  0  0  0  0  0  0  0  0  0
    7.3740   -3.1260   22.2940 C   0  0  0  0  0  0  0  0  0  0  0  0
    7.6330   -3.5250   23.7580 C   0  0  0  0  0  0  0  0  0  0  0  0
    6.3870   -4.0310   24.4450 C   0  0  0  0  0  0  0  0  0  0  0  0
    5.8220   -3.0260   25.3830 C   0  0  0  0  0  0  0  0  0  0  0  0
    4.5960   -2.8660   25.3160 O   0  0  0  0  0  0  0  0  0  0  0  0
    6.6520   -2.3200   26.2850 N   0  0  0  0  0  0  0  0  0  0  0  0
    6.2410   -1.5040   27.3960 C   0  0  1  0  0  0  0  0  0  0  0  0
    6.8720   -1.5890   28.6580 C   0  0  0  0  0  0  0  0  0  0  0  0
    7.0030   -0.4770   28.1770 C   0  0  0  0  0  0  0  0  0  0  0  0
    6.1880    0.3210   27.4910 C   0  0  0  0  0  0  0  0  0  0  0  0
    4.8230   -0.4170   27.4440 C   0  0  0  0  0  0  0  0  0  0  0  0
    4.6590   -1.8340   28.1990 C   0  0  0  0  0  0  0  0  0  0  0  0
    6.0510   -2.1010   28.8170 C   0  0  0  0  0  0  0  0  0  0  0  0
    5.5240   -3.2660   29.3750 O   0  0  0  0  0  0  0  0  0  0  0  0
    6.2190   -4.3370   28.8420 C   0  0  0  0  0  0  0  0  0  0  0  0
    5.6840   -0.9920   27.9940 C   0  0  0  0  0  0  0  0  0  0  0  0
    6.0920    0.1380   27.3620 C   0  0  0  0  0  0  0  0  0  0  0  0
    5.4640   -4.6140   23.4600 C   0  0  0  0  0  0  0  0  0  0  0  0
    6.3520   -5.3280   22.4290 C   0  0  0  0  0  0  0  0  0  0  0  0
  1  2  1  0
  2  3  2  0
  2  4  1  0
  4  5  1  0
  5  6  1  0
  6  7  1  0
  7  8  1  0
  8  9  2  0
  8 10  1  0
 11 10  1  6
 11 12  1  0
 12 13  1  0
 13 14  1  0
 14 15  2  0
 15 16  1  0
 16 17  2  0
 17 18  1  0
 18 19  1  0
 13 20  2  0
 17 20  1  0
 11 21  1  0
 20 21  1  0
  7 22  1  0
  4 23  1  0
 22 23  1  0
M  END
