piperidine-amides-3324-covalent
     RDKit          3D

 22 23  0  0  0  0  0  0  0  0999 V2000
    7.1190   -3.2630   19.2340 C   0  0  0  0  0  0  0  0  0  0  0  0
    6.3570   -4.0380   20.2090 C   0  0  0  0  0  0  0  0  0  0  0  0
    5.2950   -4.5600   19.8870 O   0  0  0  0  0  0  0  0  0  0  0  0
    6.8730   -4.2380   21.5280 N   0  0  0  0  0  0  0  0  0  0  0  0
    7.6380   -3.1980   22.1710 C   0  0  0  0  0  0  0  0  0  0  0  0
    6.9160   -2.6810   23.3840 C   0  0  0  0  0  0  0  0  0  0  0  0
    6.5370   -3.8650   24.2610 C   0  0  0  0  0  0  0  0  0  0  0  0
    5.7660   -3.3910   25.4470 C   0  0  0  0  0  0  0  0  0  0  0  0
    4.5220   -3.4080   25.4850 O   0  0  0  0  0  0  0  0  0  0  0  0
    6.4950   -2.8850   26.5520 N   0  0  0  0  0  0  0  0  0  0  0  0
    6.3590   -3.4350   27.8940 C   0  0  2  0  0  0  0  0  0  0  0  0
    5.9070   -4.8740   27.9330 C   0  0  0  0  0  0  0  0  0  0  0  0
    5.7880   -5.6930   28.9930 N   0  0  0  0  0  0  0  0  0  0  0  0
    5.5440   -5.4800   26.7490 O   0  0  0  0  0  0  0  0  0  0  0  0
    5.4440   -2.5960   28.6970 C   0  0  0  0  0  0  0  0  0  0  0  0
    6.0440   -1.5520   29.4710 C   0  0  0  0  0  0  0  0  0  0  0  0
    5.2700   -0.7150   30.2580 C   0  0  0  0  0  0  0  0  0  0  0  0
    3.8590   -0.9360   30.2630 C   0  0  0  0  0  0  0  0  0  0  0  0
    3.2860   -1.9130   29.5410 C   0  0  0  0  0  0  0  0  0  0  0  0
    4.0490   -2.7490   28.7580 C   0  0  0  0  0  0  0  0  0  0  0  0
    5.8780   -5.0060   23.5750 C   0  0  0  0  0  0  0  0  0  0  0  0
    6.4100   -5.3540   22.2600 C   0  0  0  0  0  0  0  0  0  0  0  0
  1  2  1  0
  2  3  2  0
  2  4  1  0
  4  5  1  0
  5  6  1  0
  6  7  1  0
  7  8  1  0
  8  9  2  0
  8 10  1  0
 11 10  1  6
 11 12  1  0
 12 13  1  0
 12 14  2  0
 11 15  1  0
 15 16  2  0
 16 17  1  0
 17 18  2  0
 18 19  1  0
 15 20  1  0
 19 20  2  0
  7 21  1  0
  4 22  1  0
 21 22  1  0
M  END
