piperidine-amides-25303-covalent
     RDKit          3D

 24 25  0  0  0  0  0  0  0  0999 V2000
    6.9930   -3.3450   19.4300 C   0  0  0  0  0  0  0  0  0  0  0  0
    6.3520   -4.2490   20.4290 C   0  0  0  0  0  0  0  0  0  0  0  0
    5.4220   -4.9370   20.0040 O   0  0  0  0  0  0  0  0  0  0  0  0
    6.8110   -4.3290   21.7620 N   0  0  0  0  0  0  0  0  0  0  0  0
    6.5950   -5.5240   22.5460 C   0  0  0  0  0  0  0  0  0  0  0  0
    5.9240   -5.1660   23.8500 C   0  0  0  0  0  0  0  0  0  0  0  0
    5.7720   -3.6410   23.9300 C   0  0  0  0  0  0  0  0  0  0  0  0
    4.8720   -3.2470   25.0850 C   0  0  0  0  0  0  0  0  0  0  0  0
    3.6860   -3.0470   24.8360 O   0  0  0  0  0  0  0  0  0  0  0  0
    5.2810   -3.0900   26.4300 N   0  0  0  0  0  0  0  0  0  0  0  0
    6.4030   -3.8240   26.7530 C   0  0  0  0  0  0  0  0  0  0  0  0
    6.4120   -4.0470   28.2490 C   0  0  2  0  0  0  0  0  0  0  0  0
    6.5800   -5.2830   28.8060 C   0  0  0  0  0  0  0  0  0  0  0  0
    6.0220   -6.2420   28.0340 C   0  0  0  0  0  0  0  0  0  0  0  0
    4.9840   -3.7650   28.5150 C   0  0  2  0  0  0  0  0  0  0  0  0
    4.3940   -3.9690   29.7580 F   0  0  0  0  0  0  0  0  0  0  0  0
    5.9230   -2.5760   28.7360 C   0  0  0  0  0  0  0  0  0  0  0  0
    6.4920   -1.8830   27.6960 O   0  0  0  0  0  0  0  0  0  0  0  0
    6.1750   -2.1620   30.0200 O   0  0  0  0  0  0  0  0  0  0  0  0
    5.7210   -0.9000   30.4700 C   0  0  0  0  0  0  0  0  0  0  0  0
    4.4320   -0.9830   31.2360 C   0  0  0  0  0  0  0  0  0  0  0  0
    4.2690   -2.9380   27.4760 C   0  0  0  0  0  0  0  0  0  0  0  0
    7.0970   -2.9440   23.7850 C   0  0  0  0  0  0  0  0  0  0  0  0
    7.5680   -3.2280   22.3540 C   0  0  0  0  0  0  0  0  0  0  0  0
  1  2  1  0
  2  3  2  0
  2  4  1  0
  4  5  1  0
  5  6  1  0
  6  7  1  0
  7  8  1  0
  8  9  2  0
  8 10  1  0
 10 11  1  0
 11 12  1  0
 12 13  1  6
 13 14  1  0
 12 15  1  0
 15 16  1  1
 15 17  1  0
 17 18  2  0
 17 19  1  0
 19 20  1  0
 20 21  1  0
 10 22  1  0
 15 22  1  0
  7 23  1  0
  4 24  1  0
 23 24  1  0
M  END
