piperidine-amides-11351-covalent
     RDKit          3D

 28 30  0  0  0  0  0  0  0  0999 V2000
    7.0880   -3.3540   19.3330 C   0  0  0  0  0  0  0  0  0  0  0  0
    6.3540   -4.1320   20.3300 C   0  0  0  0  0  0  0  0  0  0  0  0
    5.3560   -4.7800   19.9700 O   0  0  0  0  0  0  0  0  0  0  0  0
    6.7970   -4.1970   21.6650 N   0  0  0  0  0  0  0  0  0  0  0  0
    7.7300   -3.2100   22.1750 C   0  0  0  0  0  0  0  0  0  0  0  0
    7.4630   -3.0680   23.6450 C   0  0  0  0  0  0  0  0  0  0  0  0
    6.1230   -3.6270   24.0020 C   0  0  0  0  0  0  0  0  0  0  0  0
    5.6760   -3.2160   25.3540 C   0  0  0  0  0  0  0  0  0  0  0  0
    4.4400   -3.1890   25.6280 O   0  0  0  0  0  0  0  0  0  0  0  0
    6.5630   -2.8430   26.3830 N   0  0  0  0  0  0  0  0  0  0  0  0
    6.3990   -1.5490   27.0860 C   0  0  0  0  0  0  0  0  0  0  0  0
    7.0170   -1.6250   28.4330 C   0  0  0  0  0  0  0  0  0  0  0  0
    6.9750   -0.4600   29.3230 C   0  0  0  0  0  0  0  0  0  0  0  0
    6.2950    0.7900   28.8370 C   0  0  0  0  0  0  0  0  0  0  0  0
    6.2620    1.9670   29.8030 C   0  0  0  0  0  0  0  0  0  0  0  0
    6.1100    1.2990   31.1250 C   0  0  0  0  0  0  0  0  0  0  0  0
    5.1770    0.3000   31.1860 O   0  0  0  0  0  0  0  0  0  0  0  0
    6.7120    1.5170   32.2010 O   0  0  0  0  0  0  0  0  0  0  0  0
    7.4710    0.5670   32.8880 C   0  0  0  0  0  0  0  0  0  0  0  0
    5.2970    2.9300   29.5360 C   0  0  0  0  0  0  0  0  0  0  0  0
    5.5840    4.0590   28.5610 C   0  0  0  0  0  0  0  0  0  0  0  0
    6.8820    4.3700   28.2830 O   0  0  0  0  0  0  0  0  0  0  0  0
    7.9290    3.4400   28.5750 C   0  0  0  0  0  0  0  0  0  0  0  0
    7.5920    2.6990   29.8480 C   0  0  0  0  0  0  0  0  0  0  0  0
    5.7430    0.8050   27.5750 C   0  0  0  0  0  0  0  0  0  0  0  0
    5.7980   -0.3860   26.6830 C   0  0  0  0  0  0  0  0  0  0  0  0
    6.0500   -5.1190   23.7650 C   0  0  0  0  0  0  0  0  0  0  0  0
    6.6230   -5.4340   22.3820 C   0  0  0  0  0  0  0  0  0  0  0  0
  1  2  1  0
  2  3  2  0
  2  4  1  0
  4  5  1  0
  5  6  1  0
  6  7  1  0
  7  8  1  0
  8  9  2  0
  8 10  1  0
 10 11  1  0
 11 12  2  0
 12 13  1  0
 13 14  2  0
 14 15  1  0
 15 16  1  0
 16 17  2  0
 16 18  1  0
 18 19  1  0
 15 20  1  0
 20 21  1  0
 21 22  1  0
 22 23  1  0
 15 24  1  0
 23 24  1  0
 14 25  1  0
 11 26  1  0
 25 26  2  0
  7 27  1  0
  4 28  1  0
 27 28  1  0
M  END
