piperidine-amides-34311-covalent
     RDKit          3D

 26 27  0  0  0  0  0  0  0  0999 V2000
    7.0490   -3.3020   19.3260 C   0  0  0  0  0  0  0  0  0  0  0  0
    6.3240   -4.1540   20.2820 C   0  0  0  0  0  0  0  0  0  0  0  0
    5.2860   -4.7540   19.9390 O   0  0  0  0  0  0  0  0  0  0  0  0
    6.8140   -4.3450   21.5720 N   0  0  0  0  0  0  0  0  0  0  0  0
    7.3820   -3.2130   22.2390 C   0  0  0  0  0  0  0  0  0  0  0  0
    6.3150   -2.7900   23.2500 C   0  0  0  0  0  0  0  0  0  0  0  0
    6.1310   -3.9660   24.1980 C   0  0  0  0  0  0  0  0  0  0  0  0
    5.1550   -3.6580   25.3020 C   0  0  0  0  0  0  0  0  0  0  0  0
    4.0300   -4.1680   25.2210 O   0  0  0  0  0  0  0  0  0  0  0  0
    5.4710   -2.8640   26.4460 N   0  0  0  0  0  0  0  0  0  0  0  0
    4.9110   -1.5710   26.6910 C   0  0  0  0  0  0  0  0  0  0  0  0
    6.6630   -3.1770   27.0940 C   0  0  1  0  0  0  0  0  0  0  0  0
    6.4700   -4.4320   27.6410 C   0  0  0  0  0  0  0  0  0  0  0  0
    5.9330   -4.5290   28.9420 N   0  0  0  0  0  0  0  0  0  0  0  0
    6.6770   -5.5770   27.1480 O   0  0  0  0  0  0  0  0  0  0  0  0
    7.7270   -3.1980   26.0750 C   0  0  0  0  0  0  0  0  0  0  0  0
    8.4960   -4.2410   26.1960 C   0  0  0  0  0  0  0  0  0  0  0  0
    9.4610   -4.3830   25.3620 C   0  0  0  0  0  0  0  0  0  0  0  0
   10.1770   -5.4890   25.6010 O   0  0  0  0  0  0  0  0  0  0  0  0
    9.5620   -6.3400   26.5540 C   0  0  0  0  0  0  0  0  0  0  0  0
    9.7090   -3.3930   24.2900 C   0  0  0  0  0  0  0  0  0  0  0  0
    8.9280   -2.1270   23.9910 C   0  0  0  0  0  0  0  0  0  0  0  0
    7.9120   -2.2420   25.0800 C   0  0  0  0  0  0  0  0  0  0  0  0
    6.6620   -0.7700   25.0140 Br  0  0  0  0  0  0  0  0  0  0  0  0
    5.5720   -5.1150   23.3820 C   0  0  0  0  0  0  0  0  0  0  0  0
    6.3650   -5.4690   22.3200 C   0  0  0  0  0  0  0  0  0  0  0  0
  1  2  1  0
  2  3  2  0
  2  4  1  0
  4  5  1  0
  5  6  1  0
  6  7  1  0
  7  8  1  0
  8  9  2  0
  8 10  1  0
 10 11  1  0
 10 12  1  0
 12 13  1  6
 13 14  1  0
 13 15  2  0
 12 16  1  0
 16 17  2  0
 17 18  1  0
 18 19  1  0
 19 20  1  0
 18 21  2  0
 21 22  1  0
 16 23  1  0
 22 23  2  0
 23 24  1  0
  7 25  1  0
  4 26  1  0
 25 26  1  0
M  END
