piperidine-amides-5288-covalent
     RDKit          3D

 21 22  0  0  0  0  0  0  0  0999 V2000
    7.0980   -3.2530   19.2200 C   0  0  0  0  0  0  0  0  0  0  0  0
    6.3550   -4.0210   20.2460 C   0  0  0  0  0  0  0  0  0  0  0  0
    5.2880   -4.5520   19.8820 O   0  0  0  0  0  0  0  0  0  0  0  0
    6.8590   -4.1780   21.5450 N   0  0  0  0  0  0  0  0  0  0  0  0
    6.5050   -5.3400   22.2900 C   0  0  0  0  0  0  0  0  0  0  0  0
    6.0850   -5.0670   23.6700 C   0  0  0  0  0  0  0  0  0  0  0  0
    6.6660   -3.8450   24.2740 C   0  0  0  0  0  0  0  0  0  0  0  0
    5.8380   -3.3760   25.4160 C   0  0  0  0  0  0  0  0  0  0  0  0
    4.7010   -2.9270   25.1640 O   0  0  0  0  0  0  0  0  0  0  0  0
    6.3090   -3.4260   26.7460 N   0  0  0  0  0  0  0  0  0  0  0  0
    6.7580   -4.6880   27.3940 C   0  0  0  0  0  0  0  0  0  0  0  0
    5.8120   -5.8140   27.2220 C   0  0  0  0  0  0  0  0  0  0  0  0
    4.7950   -6.0620   28.1860 N   0  0  0  0  0  0  0  0  0  0  0  0
    5.3170   -6.2700   29.3800 N   0  0  0  0  0  0  0  0  0  0  0  0
    4.6920   -6.9910   30.4320 C   0  0  0  0  0  0  0  0  0  0  0  0
    3.4850   -7.4890   30.1230 C   0  0  0  0  0  0  0  0  0  0  0  0
    3.0320   -7.5020   28.8390 C   0  0  0  0  0  0  0  0  0  0  0  0
    3.8390   -6.9990   27.8410 C   0  0  0  0  0  0  0  0  0  0  0  0
    3.5400   -7.5450   26.5750 O   0  0  0  0  0  0  0  0  0  0  0  0
    6.9340   -2.7330   23.3080 C   0  0  0  0  0  0  0  0  0  0  0  0
    7.6410   -3.1840   22.2340 C   0  0  0  0  0  0  0  0  0  0  0  0
  1  2  1  0
  2  3  2  0
  2  4  1  0
  4  5  1  0
  5  6  1  0
  6  7  1  0
  7  8  1  0
  8  9  2  0
  8 10  1  0
 10 11  1  0
 11 12  1  0
 12 13  1  0
 13 14  1  0
 14 15  2  0
 15 16  1  0
 16 17  2  0
 13 18  1  0
 17 18  1  0
 18 19  2  0
  7 20  1  0
  4 21  1  0
 20 21  1  0
M  END
