piperidine-amides-30613-covalent
     RDKit          3D

 26 28  0  0  0  0  0  0  0  0999 V2000
    7.0390   -3.3600   19.4500 C   0  0  0  0  0  0  0  0  0  0  0  0
    6.3790   -4.2470   20.4220 C   0  0  0  0  0  0  0  0  0  0  0  0
    5.4190   -4.9210   20.0070 O   0  0  0  0  0  0  0  0  0  0  0  0
    6.7840   -4.4210   21.7760 N   0  0  0  0  0  0  0  0  0  0  0  0
    6.6050   -5.6760   22.4550 C   0  0  0  0  0  0  0  0  0  0  0  0
    6.3500   -5.2240   23.8580 C   0  0  0  0  0  0  0  0  0  0  0  0
    5.8510   -3.8140   23.8170 C   0  0  0  0  0  0  0  0  0  0  0  0
    5.2740   -3.2450   25.0860 C   0  0  0  0  0  0  0  0  0  0  0  0
    4.6000   -2.1850   25.0220 O   0  0  0  0  0  0  0  0  0  0  0  0
    5.3910   -3.7840   26.3890 N   0  0  0  0  0  0  0  0  0  0  0  0
    4.3140   -4.2330   27.2300 C   0  0  0  0  0  0  0  0  0  0  0  0
    4.8290   -4.6250   28.8000 S   0  0  0  0  0  0  0  0  0  0  0  0
    6.4760   -4.3950   28.3380 C   0  0  0  0  0  0  0  0  0  0  0  0
    6.3770   -3.3150   27.2920 C   0  0  2  0  0  0  0  0  0  0  0  0
    6.1220   -1.9690   27.9240 C   0  0  0  0  0  0  0  0  0  0  0  0
    4.8880   -1.4370   27.6460 O   0  0  0  0  0  0  0  0  0  0  0  0
    7.0860   -1.2850   28.7330 N   0  0  0  0  0  0  0  0  0  0  0  0
    6.3960   -0.8420   29.9450 C   0  0  0  0  0  0  0  0  0  0  0  0
    4.9380   -1.0300   30.1920 C   0  0  0  0  0  0  0  0  0  0  0  0
    4.2480   -0.6290   31.3170 C   0  0  0  0  0  0  0  0  0  0  0  0
    4.8960    0.0230   32.3730 C   0  0  0  0  0  0  0  0  0  0  0  0
    4.1880    0.3970   33.4480 F   0  0  0  0  0  0  0  0  0  0  0  0
    6.3790    0.2760   32.2480 C   0  0  0  0  0  0  0  0  0  0  0  0
    7.1920   -0.1460   31.0270 C   0  0  0  0  0  0  0  0  0  0  0  0
    6.8950   -2.8780   23.1400 C   0  0  0  0  0  0  0  0  0  0  0  0
    7.6960   -3.4480   22.4090 C   0  0  0  0  0  0  0  0  0  0  0  0
  1  2  1  0
  2  3  2  0
  2  4  1  0
  4  5  1  0
  5  6  1  0
  6  7  1  0
  7  8  1  0
  8  9  2  0
  8 10  1  0
 10 11  1  0
 11 12  1  0
 12 13  1  0
 10 14  1  0
 13 14  1  0
 14 15  1  1
 15 16  2  0
 15 17  1  0
 17 18  1  0
 18 19  2  0
 19 20  1  0
 20 21  2  0
 21 22  1  0
 21 23  1  0
 18 24  1  0
 23 24  2  0
  7 25  1  0
  4 26  1  0
 25 26  1  0
M  END
