piperidine-amides-3786-covalent
     RDKit          3D

 25 26  0  0  0  0  0  0  0  0999 V2000
    7.1260   -3.2680   19.2120 C   0  0  0  0  0  0  0  0  0  0  0  0
    6.3600   -4.0310   20.2150 C   0  0  0  0  0  0  0  0  0  0  0  0
    5.2550   -4.4960   19.8540 O   0  0  0  0  0  0  0  0  0  0  0  0
    6.8720   -4.2920   21.5050 N   0  0  0  0  0  0  0  0  0  0  0  0
    7.5840   -3.2480   22.1510 C   0  0  0  0  0  0  0  0  0  0  0  0
    6.8600   -2.7130   23.2700 C   0  0  0  0  0  0  0  0  0  0  0  0
    5.8700   -3.6660   23.8020 C   0  0  0  0  0  0  0  0  0  0  0  0
    5.6130   -3.4080   25.2550 C   0  0  0  0  0  0  0  0  0  0  0  0
    4.6520   -2.6790   25.5790 O   0  0  0  0  0  0  0  0  0  0  0  0
    6.4290   -3.9750   26.2590 N   0  0  0  0  0  0  0  0  0  0  0  0
    6.0210   -4.6350   27.4420 C   0  0  1  0  0  0  0  0  0  0  0  0
    5.6070   -6.0270   27.4370 C   0  0  0  0  0  0  0  0  0  0  0  0
    4.0740   -6.0690   27.6240 C   0  0  0  0  0  0  0  0  0  0  0  0
    3.7630   -5.6100   28.8870 O   0  0  0  0  0  0  0  0  0  0  0  0
    3.2060   -6.4420   26.8050 O   0  0  0  0  0  0  0  0  0  0  0  0
    3.2970   -7.4650   25.9520 C   0  0  0  0  0  0  0  0  0  0  0  0
    7.1850   -4.7000   28.4270 C   0  0  0  0  0  0  0  0  0  0  0  0
    8.3280   -3.9000   27.9780 C   0  0  0  0  0  0  0  0  0  0  0  0
    8.7190   -5.1930   27.2660 C   0  0  0  0  0  0  0  0  0  0  0  0
    9.2550   -5.1750   25.8740 C   0  0  0  0  0  0  0  0  0  0  0  0
    8.9590   -3.8890   25.1050 C   0  0  0  0  0  0  0  0  0  0  0  0
    8.4780   -2.5840   25.8140 C   0  0  0  0  0  0  0  0  0  0  0  0
    8.1360   -2.7340   27.2680 C   0  0  0  0  0  0  0  0  0  0  0  0
    6.2100   -5.1130   23.5740 C   0  0  0  0  0  0  0  0  0  0  0  0
    6.4070   -5.4430   22.2350 C   0  0  0  0  0  0  0  0  0  0  0  0
  1  2  1  0
  2  3  2  0
  2  4  1  0
  4  5  1  0
  5  6  1  0
  6  7  1  0
  7  8  1  0
  8  9  2  0
  8 10  1  0
 10 11  1  0
 11 12  1  6
 12 13  1  0
 13 14  2  0
 13 15  1  0
 15 16  1  0
 11 17  1  0
 17 18  1  0
 18 19  1  0
 19 20  1  0
 20 21  1  0
 21 22  1  0
 18 23  1  0
 22 23  1  0
  7 24  1  0
  4 25  1  0
 24 25  1  0
M  END
