piperidine-amides-19816-covalent
     RDKit          3D

 22 24  0  0  0  0  0  0  0  0999 V2000
    7.0410   -3.3480   19.3390 C   0  0  0  0  0  0  0  0  0  0  0  0
    6.3070   -4.1680   20.3380 C   0  0  0  0  0  0  0  0  0  0  0  0
    5.2960   -4.7390   19.9460 O   0  0  0  0  0  0  0  0  0  0  0  0
    6.7970   -4.3020   21.6390 N   0  0  0  0  0  0  0  0  0  0  0  0
    7.6110   -3.2890   22.2720 C   0  0  0  0  0  0  0  0  0  0  0  0
    7.2710   -3.1840   23.7320 C   0  0  0  0  0  0  0  0  0  0  0  0
    5.8980   -3.7620   23.9800 C   0  0  0  0  0  0  0  0  0  0  0  0
    5.4320   -3.4720   25.3670 C   0  0  0  0  0  0  0  0  0  0  0  0
    4.2130   -3.4510   25.5780 O   0  0  0  0  0  0  0  0  0  0  0  0
    6.2610   -3.2040   26.4800 N   0  0  0  0  0  0  0  0  0  0  0  0
    5.8520   -2.0070   27.2330 C   0  0  0  0  0  0  0  0  0  0  0  0
    6.5710   -2.0480   28.5690 C   0  0  0  0  0  0  0  0  0  0  0  0
    7.3750   -1.0620   29.0420 C   0  0  0  0  0  0  0  0  0  0  0  0
    6.6680    0.0320   29.3850 C   0  0  0  0  0  0  0  0  0  0  0  0
    6.1580    0.6760   28.3030 C   0  0  0  0  0  0  0  0  0  0  0  0
    5.0820    0.0650   27.4210 C   0  0  0  0  0  0  0  0  0  0  0  0
    6.0410   -0.6800   26.5300 C   0  0  0  0  0  0  0  0  0  0  0  0
    6.5300   -4.3630   27.3100 C   0  0  0  0  0  0  0  0  0  0  0  0
    5.8280   -5.5200   27.1450 C   0  0  0  0  0  0  0  0  0  0  0  0
    7.3350   -5.6730   26.9070 C   0  0  0  0  0  0  0  0  0  0  0  0
    5.7820   -5.1800   23.5790 C   0  0  0  0  0  0  0  0  0  0  0  0
    6.5750   -5.5350   22.3720 C   0  0  0  0  0  0  0  0  0  0  0  0
  1  2  1  0
  2  3  2  0
  2  4  1  0
  4  5  1  0
  5  6  1  0
  6  7  1  0
  7  8  1  0
  8  9  2  0
  8 10  1  0
 10 11  1  0
 11 12  1  0
 12 13  1  0
 13 14  1  0
 14 15  1  0
 15 16  1  0
 11 17  1  0
 16 17  1  0
 10 18  1  0
 18 19  1  0
 18 20  1  0
 19 20  1  0
  7 21  1  0
  4 22  1  0
 21 22  1  0
M  END
