piperidine-amides-9087-covalent
     RDKit          3D

 21 21  0  0  0  0  0  0  0  0999 V2000
    7.1400   -3.2710   19.1770 C   0  0  0  0  0  0  0  0  0  0  0  0
    6.3680   -4.0010   20.1830 C   0  0  0  0  0  0  0  0  0  0  0  0
    5.2810   -4.5140   19.8710 O   0  0  0  0  0  0  0  0  0  0  0  0
    6.8680   -4.1820   21.4760 N   0  0  0  0  0  0  0  0  0  0  0  0
    7.7190   -3.2080   22.1120 C   0  0  0  0  0  0  0  0  0  0  0  0
    6.9230   -2.6780   23.2620 C   0  0  0  0  0  0  0  0  0  0  0  0
    6.3720   -3.7860   24.1110 C   0  0  0  0  0  0  0  0  0  0  0  0
    5.5720   -3.2910   25.2460 C   0  0  0  0  0  0  0  0  0  0  0  0
    4.4740   -2.6860   25.0620 O   0  0  0  0  0  0  0  0  0  0  0  0
    5.9890   -3.4720   26.5740 N   0  0  0  0  0  0  0  0  0  0  0  0
    6.6350   -4.7460   26.9260 C   0  0  1  0  0  0  0  0  0  0  0  0
    8.0650   -4.4590   27.0210 C   0  0  2  0  0  0  0  0  0  0  0  0
    8.6580   -4.1230   25.7070 C   0  0  0  0  0  0  0  0  0  0  0  0
    8.8100   -5.6950   27.4050 C   0  0  0  0  0  0  0  0  0  0  0  0
    9.5710   -6.1910   26.2150 C   0  0  0  0  0  0  0  0  0  0  0  0
    6.1030   -5.1720   28.2290 C   0  0  0  0  0  0  0  0  0  0  0  0
    7.1110   -5.7480   28.9840 F   0  0  0  0  0  0  0  0  0  0  0  0
    5.5040   -4.1640   28.9250 F   0  0  0  0  0  0  0  0  0  0  0  0
    5.0910   -6.1150   28.1090 F   0  0  0  0  0  0  0  0  0  0  0  0
    5.5770   -4.7550   23.2550 C   0  0  0  0  0  0  0  0  0  0  0  0
    6.3800   -5.2930   22.2480 C   0  0  0  0  0  0  0  0  0  0  0  0
  1  2  1  0
  2  3  2  0
  2  4  1  0
  4  5  1  0
  5  6  1  0
  6  7  1  0
  7  8  1  0
  8  9  2  0
  8 10  1  0
 11 10  1  1
 11 12  1  0
 12 13  1  6
 12 14  1  0
 14 15  1  0
 11 16  1  0
 16 17  1  0
 16 18  1  0
 16 19  1  0
  7 20  1  0
  4 21  1  0
 20 21  1  0
M  END
