piperidine-amides-7372-covalent
     RDKit          3D

 19 20  0  0  0  0  0  0  0  0999 V2000
    7.0320   -3.3390   19.3090 C   0  0  0  0  0  0  0  0  0  0  0  0
    6.3810   -4.1580   20.3390 C   0  0  0  0  0  0  0  0  0  0  0  0
    5.3700   -4.8130   19.9730 O   0  0  0  0  0  0  0  0  0  0  0  0
    6.9050   -4.2230   21.6370 N   0  0  0  0  0  0  0  0  0  0  0  0
    7.7440   -3.1700   22.1770 C   0  0  0  0  0  0  0  0  0  0  0  0
    7.4250   -3.0300   23.6340 C   0  0  0  0  0  0  0  0  0  0  0  0
    6.0840   -3.6290   23.9300 C   0  0  0  0  0  0  0  0  0  0  0  0
    5.6410   -3.3310   25.3060 C   0  0  0  0  0  0  0  0  0  0  0  0
    4.4230   -3.4250   25.5560 O   0  0  0  0  0  0  0  0  0  0  0  0
    6.5120   -2.9350   26.3360 N   0  0  0  0  0  0  0  0  0  0  0  0
    6.0530   -2.0590   27.3790 C   0  0  0  0  0  0  0  0  0  0  0  0
    4.8820   -2.5850   28.2090 C   0  0  0  0  0  0  0  0  0  0  0  0
    3.9670   -1.6840   28.7070 C   0  0  0  0  0  0  0  0  0  0  0  0
    3.3150   -2.0010   29.8810 C   0  0  0  0  0  0  0  0  0  0  0  0
    4.1690   -1.7570   30.8470 O   0  0  0  0  0  0  0  0  0  0  0  0
    6.1520   -0.5460   26.9810 C   0  0  0  0  0  0  0  0  0  0  0  0
    6.8320   -0.9830   27.9250 C   0  0  0  0  0  0  0  0  0  0  0  0
    6.0760   -5.1450   23.7600 C   0  0  0  0  0  0  0  0  0  0  0  0
    6.6360   -5.4530   22.3910 C   0  0  0  0  0  0  0  0  0  0  0  0
  1  2  1  0
  2  3  2  0
  2  4  1  0
  4  5  1  0
  5  6  1  0
  6  7  1  0
  7  8  1  0
  8  9  2  0
  8 10  1  0
 11 10  1  0
 11 12  1  0
 12 13  1  0
 13 14  1  0
 14 15  1  0
 11 16  1  0
 11 17  1  0
 16 17  1  0
  7 18  1  0
  4 19  1  0
 18 19  1  0
M  END
