piperidine-amides-6602-covalent
     RDKit          3D

 24 26  0  0  0  0  0  0  0  0999 V2000
    7.0890   -3.3170   19.3250 C   0  0  0  0  0  0  0  0  0  0  0  0
    6.3980   -4.1680   20.3050 C   0  0  0  0  0  0  0  0  0  0  0  0
    5.3790   -4.8150   19.9740 O   0  0  0  0  0  0  0  0  0  0  0  0
    6.9100   -4.3000   21.6010 N   0  0  0  0  0  0  0  0  0  0  0  0
    7.7050   -3.2350   22.1700 C   0  0  0  0  0  0  0  0  0  0  0  0
    6.8330   -2.5960   23.2410 C   0  0  0  0  0  0  0  0  0  0  0  0
    6.6400   -3.6750   24.2680 C   0  0  0  0  0  0  0  0  0  0  0  0
    5.8820   -3.1520   25.4230 C   0  0  0  0  0  0  0  0  0  0  0  0
    4.6440   -3.0070   25.3010 O   0  0  0  0  0  0  0  0  0  0  0  0
    6.5650   -2.8350   26.6280 N   0  0  0  0  0  0  0  0  0  0  0  0
    6.5560   -1.5080   27.2050 C   0  0  2  0  0  0  0  0  0  0  0  0
    6.4660   -1.8550   28.6480 C   0  0  0  0  0  0  0  0  0  0  0  0
    6.8210   -0.7800   29.2520 C   0  0  0  0  0  0  0  0  0  0  0  0
    7.0950   -0.0090   28.3200 O   0  0  0  0  0  0  0  0  0  0  0  0
    6.0380    0.5310   27.5980 C   0  0  0  0  0  0  0  0  0  0  0  0
    6.6160    1.3600   28.4760 C   0  0  0  0  0  0  0  0  0  0  0  0
    6.8070    2.5480   29.1530 C   0  0  0  0  0  0  0  0  0  0  0  0
    7.6090    3.6060   28.4140 C   0  0  0  0  0  0  0  0  0  0  0  0
    5.5550    2.1980   27.8670 C   0  0  0  0  0  0  0  0  0  0  0  0
    4.4970    1.9510   26.7980 C   0  0  0  0  0  0  0  0  0  0  0  0
    4.7380    0.5040   26.4000 C   0  0  0  0  0  0  0  0  0  0  0  0
    5.6330   -0.5520   26.7680 C   0  0  0  0  0  0  0  0  0  0  0  0
    5.8090   -4.8010   23.6380 C   0  0  0  0  0  0  0  0  0  0  0  0
    6.5220   -5.3980   22.4460 C   0  0  0  0  0  0  0  0  0  0  0  0
  1  2  1  0
  2  3  2  0
  2  4  1  0
  4  5  1  0
  5  6  1  0
  6  7  1  0
  7  8  1  0
  8  9  2  0
  8 10  1  0
 11 10  1  6
 11 12  1  0
 12 13  1  0
 13 14  1  0
 14 15  1  0
 15 16  2  0
 16 17  1  0
 17 18  1  0
 16 19  1  0
 19 20  2  0
 20 21  1  0
 11 22  1  0
 15 22  1  0
 21 22  2  0
  7 23  1  0
  4 24  1  0
 23 24  1  0
M  END
