piperidine-amides-3103-covalent
     RDKit          3D

 23 25  0  0  0  0  0  0  0  0999 V2000
    7.1240   -3.2970   19.1730 C   0  0  0  0  0  0  0  0  0  0  0  0
    6.3790   -4.0420   20.1800 C   0  0  0  0  0  0  0  0  0  0  0  0
    5.2930   -4.5450   19.8900 O   0  0  0  0  0  0  0  0  0  0  0  0
    6.9460   -4.2460   21.4820 N   0  0  0  0  0  0  0  0  0  0  0  0
    7.7120   -3.1880   22.0790 C   0  0  0  0  0  0  0  0  0  0  0  0
    6.9870   -2.6890   23.2840 C   0  0  0  0  0  0  0  0  0  0  0  0
    6.5430   -3.8840   24.1110 C   0  0  0  0  0  0  0  0  0  0  0  0
    5.8050   -3.3870   25.2930 C   0  0  0  0  0  0  0  0  0  0  0  0
    4.5670   -3.4840   25.4130 O   0  0  0  0  0  0  0  0  0  0  0  0
    6.5520   -2.7680   26.3090 N   0  0  0  0  0  0  0  0  0  0  0  0
    6.2460   -3.0970   27.6710 C   0  0  0  0  0  0  0  0  0  0  0  0
    6.3340   -1.8050   28.4430 C   0  0  0  0  0  0  0  0  0  0  0  0
    6.5970   -0.5450   27.8940 N   0  0  0  0  0  0  0  0  0  0  0  0
    6.5990    0.3270   28.8890 N   0  0  0  0  0  0  0  0  0  0  0  0
    6.3350   -0.4140   30.0390 C   0  0  0  0  0  0  0  0  0  0  0  0
    6.2950    0.3080   31.2340 C   0  0  0  0  0  0  0  0  0  0  0  0
    7.2820    0.3950   32.1860 C   0  0  0  0  0  0  0  0  0  0  0  0
    6.9400    1.2140   33.3090 C   0  0  0  0  0  0  0  0  0  0  0  0
    5.7190    1.8090   33.3320 C   0  0  0  0  0  0  0  0  0  0  0  0
    4.9560    1.3260   31.8880 S   0  0  0  0  0  0  0  0  0  0  0  0
    6.1670   -1.7020   29.7890 N   0  0  0  0  0  0  0  0  0  0  0  0
    5.6200   -4.7720   23.2810 C   0  0  0  0  0  0  0  0  0  0  0  0
    6.3880   -5.3260   22.2630 C   0  0  0  0  0  0  0  0  0  0  0  0
  1  2  1  0
  2  3  2  0
  2  4  1  0
  4  5  1  0
  5  6  1  0
  6  7  1  0
  7  8  1  0
  8  9  2  0
  8 10  1  0
 10 11  1  0
 11 12  1  0
 12 13  2  0
 13 14  1  0
 14 15  2  0
 15 16  1  0
 16 17  2  0
 17 18  1  0
 18 19  2  0
 16 20  1  0
 19 20  1  0
 12 21  1  0
 15 21  1  0
  7 22  1  0
  4 23  1  0
 22 23  1  0
M  END
