piperidine-amides-10003-covalent
     RDKit          3D

 26 28  0  0  0  0  0  0  0  0999 V2000
    7.1140   -3.2770   19.2040 C   0  0  0  0  0  0  0  0  0  0  0  0
    6.3770   -4.0320   20.2200 C   0  0  0  0  0  0  0  0  0  0  0  0
    5.2740   -4.5240   19.8730 O   0  0  0  0  0  0  0  0  0  0  0  0
    6.9280   -4.2300   21.4860 N   0  0  0  0  0  0  0  0  0  0  0  0
    7.6720   -3.1710   22.1190 C   0  0  0  0  0  0  0  0  0  0  0  0
    6.8850   -2.7610   23.3200 C   0  0  0  0  0  0  0  0  0  0  0  0
    6.6370   -3.9280   24.2360 C   0  0  0  0  0  0  0  0  0  0  0  0
    5.9300   -3.4260   25.4180 C   0  0  0  0  0  0  0  0  0  0  0  0
    4.7040   -3.1870   25.3320 O   0  0  0  0  0  0  0  0  0  0  0  0
    6.5910   -3.2040   26.6290 N   0  0  0  0  0  0  0  0  0  0  0  0
    6.1580   -3.8250   27.8420 C   0  0  1  0  0  0  0  0  0  0  0  0
    7.0890   -4.9740   28.2530 C   0  0  0  0  0  0  0  0  0  0  0  0
    5.9750   -2.7900   28.8910 C   0  0  0  0  0  0  0  0  0  0  0  0
    4.8830   -2.7410   29.7490 C   0  0  0  0  0  0  0  0  0  0  0  0
    4.7400   -1.7410   30.7310 C   0  0  0  0  0  0  0  0  0  0  0  0
    5.6780   -0.7260   30.9210 C   0  0  0  0  0  0  0  0  0  0  0  0
    5.5470    0.2400   31.8850 C   0  0  0  0  0  0  0  0  0  0  0  0
    4.2590    1.0670   31.9800 C   0  0  0  0  0  0  0  0  0  0  0  0
    4.2830    2.0960   33.1100 C   0  0  0  0  0  0  0  0  0  0  0  0
    5.4660    2.2480   34.0100 C   0  0  0  0  0  0  0  0  0  0  0  0
    6.6540    1.3660   33.7920 C   0  0  0  0  0  0  0  0  0  0  0  0
    6.6180    0.4450   32.7720 C   0  0  0  0  0  0  0  0  0  0  0  0
    6.7500   -0.7510   30.0930 C   0  0  0  0  0  0  0  0  0  0  0  0
    6.9100   -1.8100   29.0440 C   0  0  0  0  0  0  0  0  0  0  0  0
    5.9100   -5.0310   23.5330 C   0  0  0  0  0  0  0  0  0  0  0  0
    6.5270   -5.3830   22.2360 C   0  0  0  0  0  0  0  0  0  0  0  0
  1  2  1  0
  2  3  2  0
  2  4  1  0
  4  5  1  0
  5  6  1  0
  6  7  1  0
  7  8  1  0
  8  9  2  0
  8 10  1  0
 10 11  1  0
 11 12  1  1
 11 13  1  0
 13 14  2  0
 14 15  1  0
 15 16  2  0
 16 17  1  0
 17 18  2  0
 18 19  1  0
 19 20  2  0
 20 21  1  0
 17 22  1  0
 21 22  2  0
 16 23  1  0
 13 24  1  0
 23 24  2  0
  7 25  1  0
  4 26  1  0
 25 26  1  0
M  END
