piperidine-amides-9291-covalent
     RDKit          3D

 19 20  0  0  0  0  0  0  0  0999 V2000
    7.1680   -3.2930   19.2190 C   0  0  0  0  0  0  0  0  0  0  0  0
    6.3530   -3.9800   20.2160 C   0  0  0  0  0  0  0  0  0  0  0  0
    5.2810   -4.5080   19.8770 O   0  0  0  0  0  0  0  0  0  0  0  0
    6.8090   -4.0940   21.5360 N   0  0  0  0  0  0  0  0  0  0  0  0
    7.7650   -3.1460   22.0810 C   0  0  0  0  0  0  0  0  0  0  0  0
    7.4290   -3.0230   23.5290 C   0  0  0  0  0  0  0  0  0  0  0  0
    6.0720   -3.5890   23.7710 C   0  0  0  0  0  0  0  0  0  0  0  0
    5.5410   -3.3010   25.1030 C   0  0  0  0  0  0  0  0  0  0  0  0
    4.3270   -2.9710   25.2490 O   0  0  0  0  0  0  0  0  0  0  0  0
    6.3190   -3.3790   26.2600 N   0  0  0  0  0  0  0  0  0  0  0  0
    5.5990   -3.5750   27.5120 C   0  0  1  0  0  0  0  0  0  0  0  0
    6.3370   -4.5120   28.3950 C   0  0  0  0  0  0  0  0  0  0  0  0
    5.7090   -5.0190   29.3520 O   0  0  0  0  0  0  0  0  0  0  0  0
    5.3350   -2.2050   28.1860 C   0  0  0  0  0  0  0  0  0  0  0  0
    6.2770   -1.1990   27.5510 C   0  0  0  0  0  0  0  0  0  0  0  0
    6.9750   -0.8750   28.8680 C   0  0  0  0  0  0  0  0  0  0  0  0
    6.0870   -1.8840   29.4690 C   0  0  0  0  0  0  0  0  0  0  0  0
    6.1050   -5.0770   23.5070 C   0  0  0  0  0  0  0  0  0  0  0  0
    6.5770   -5.3520   22.2220 C   0  0  0  0  0  0  0  0  0  0  0  0
  1  2  1  0
  2  3  2  0
  2  4  1  0
  4  5  1  0
  5  6  1  0
  6  7  1  0
  7  8  1  0
  8  9  2  0
  8 10  1  0
 10 11  1  0
 11 12  1  1
 12 13  1  0
 11 14  1  0
 14 15  1  0
 15 16  1  0
 14 17  1  0
 16 17  1  0
  7 18  1  0
  4 19  1  0
 18 19  1  0
M  END
