piperidine-amides-25907-covalent
     RDKit          3D

 25 27  0  0  0  0  0  0  0  0999 V2000
    7.0680   -3.3460   19.2870 C   0  0  0  0  0  0  0  0  0  0  0  0
    6.4150   -4.2080   20.3030 C   0  0  0  0  0  0  0  0  0  0  0  0
    5.3790   -4.7840   19.9660 O   0  0  0  0  0  0  0  0  0  0  0  0
    7.0030   -4.3870   21.5560 N   0  0  0  0  0  0  0  0  0  0  0  0
    6.6540   -5.4880   22.4030 C   0  0  0  0  0  0  0  0  0  0  0  0
    5.8770   -4.9600   23.5770 C   0  0  0  0  0  0  0  0  0  0  0  0
    6.6270   -3.7960   24.2500 C   0  0  0  0  0  0  0  0  0  0  0  0
    5.7930   -3.2880   25.3580 C   0  0  0  0  0  0  0  0  0  0  0  0
    5.0540   -2.3180   25.1700 O   0  0  0  0  0  0  0  0  0  0  0  0
    5.7930   -3.8990   26.6180 N   0  0  0  0  0  0  0  0  0  0  0  0
    6.3670   -3.2930   27.7580 C   0  0  0  0  0  0  0  0  0  0  0  0
    6.6920   -4.5130   28.5910 C   0  0  0  0  0  0  0  0  0  0  0  0
    5.8000   -5.0070   29.4780 C   0  0  0  0  0  0  0  0  0  0  0  0
    6.1080   -5.8810   30.3440 O   0  0  0  0  0  0  0  0  0  0  0  0
    5.0150   -6.4350   31.0200 C   0  0  0  0  0  0  0  0  0  0  0  0
    5.1800   -7.5320   31.8080 C   0  0  0  0  0  0  0  0  0  0  0  0
    4.1280   -8.2750   32.6230 C   0  0  0  0  0  0  0  0  0  0  0  0
    2.8120   -7.5640   32.4030 C   0  0  0  0  0  0  0  0  0  0  0  0
    1.5870   -8.0920   33.0950 C   0  0  0  0  0  0  0  0  0  0  0  0
    2.6830   -6.3420   31.5140 C   0  0  0  0  0  0  0  0  0  0  0  0
    3.7620   -5.7790   30.8290 N   0  0  0  0  0  0  0  0  0  0  0  0
    5.0000   -5.3450   28.4090 C   0  0  0  0  0  0  0  0  0  0  0  0
    4.6040   -4.3830   27.2950 C   0  0  0  0  0  0  0  0  0  0  0  0
    6.8990   -2.6890   23.2670 C   0  0  0  0  0  0  0  0  0  0  0  0
    7.7340   -3.3100   22.1960 C   0  0  0  0  0  0  0  0  0  0  0  0
  1  2  1  0
  2  3  2  0
  2  4  1  0
  4  5  1  0
  5  6  1  0
  6  7  1  0
  7  8  1  0
  8  9  2  0
  8 10  1  0
 10 11  1  0
 11 12  1  0
 12 13  1  0
 13 14  1  0
 14 15  1  0
 15 16  2  0
 16 17  1  0
 17 18  2  0
 18 19  1  0
 18 20  1  0
 15 21  1  0
 20 21  2  0
 13 22  1  0
 10 23  1  0
 22 23  1  0
  7 24  1  0
  4 25  1  0
 24 25  1  0
M  END
