piperidine-amides-11814-covalent
     RDKit          3D

 27 29  0  0  0  0  0  0  0  0999 V2000
    7.0330   -3.3600   19.3760 C   0  0  0  0  0  0  0  0  0  0  0  0
    6.3560   -4.2210   20.3400 C   0  0  0  0  0  0  0  0  0  0  0  0
    5.3900   -4.8990   19.9900 O   0  0  0  0  0  0  0  0  0  0  0  0
    6.8480   -4.3070   21.6890 N   0  0  0  0  0  0  0  0  0  0  0  0
    7.7470   -3.2860   22.1760 C   0  0  0  0  0  0  0  0  0  0  0  0
    7.6320   -3.1640   23.6560 C   0  0  0  0  0  0  0  0  0  0  0  0
    6.2670   -3.6950   24.0410 C   0  0  0  0  0  0  0  0  0  0  0  0
    5.9590   -3.2960   25.4480 C   0  0  0  0  0  0  0  0  0  0  0  0
    4.9540   -3.6790   26.0780 O   0  0  0  0  0  0  0  0  0  0  0  0
    6.9020   -2.4270   26.0390 N   0  0  0  0  0  0  0  0  0  0  0  0
    6.5840   -1.3990   27.0190 C   0  0  0  0  0  0  0  0  0  0  0  0
    7.1610   -1.4990   28.4060 C   0  0  0  0  0  0  0  0  0  0  0  0
    6.8970   -0.5280   29.3460 C   0  0  0  0  0  0  0  0  0  0  0  0
    6.0790    0.5620   29.0020 C   0  0  0  0  0  0  0  0  0  0  0  0
    5.5000    0.7090   27.7190 N   0  0  0  0  0  0  0  0  0  0  0  0
    5.7240   -0.2360   26.7170 C   0  0  0  0  0  0  0  0  0  0  0  0
    5.1910   -0.0810   25.6100 O   0  0  0  0  0  0  0  0  0  0  0  0
    5.6060   -0.1080   24.3040 C   0  0  0  0  0  0  0  0  0  0  0  0
    6.4510    0.8770   23.8360 C   0  0  0  0  0  0  0  0  0  0  0  0
    6.8640    0.8740   22.5160 C   0  0  0  0  0  0  0  0  0  0  0  0
    6.4400   -0.1160   21.6310 C   0  0  0  0  0  0  0  0  0  0  0  0
    6.9740   -0.0850   19.9650 Cl  0  0  0  0  0  0  0  0  0  0  0  0
    5.5470   -1.1290   22.2040 C   0  0  0  0  0  0  0  0  0  0  0  0
    5.1310   -1.1310   23.5270 C   0  0  0  0  0  0  0  0  0  0  0  0
    4.0510   -2.3350   24.2450 Cl  0  0  0  0  0  0  0  0  0  0  0  0
    6.2030   -5.1840   23.8460 C   0  0  0  0  0  0  0  0  0  0  0  0
    6.5880   -5.4990   22.4310 C   0  0  0  0  0  0  0  0  0  0  0  0
  1  2  1  0
  2  3  2  0
  2  4  1  0
  4  5  1  0
  5  6  1  0
  6  7  1  0
  7  8  1  0
  8  9  2  0
  8 10  1  0
 10 11  1  0
 11 12  2  0
 12 13  1  0
 13 14  2  0
 14 15  1  0
 11 16  1  0
 15 16  2  0
 16 17  1  0
 17 18  1  0
 18 19  2  0
 19 20  1  0
 20 21  2  0
 21 22  1  0
 21 23  1  0
 18 24  1  0
 23 24  2  0
 24 25  1  0
  7 26  1  0
  4 27  1  0
 26 27  1  0
M  END
