piperidine-amides-11298-covalent
     RDKit          3D

 19 20  0  0  0  0  0  0  0  0999 V2000
    7.0620   -3.3410   19.3200 C   0  0  0  0  0  0  0  0  0  0  0  0
    6.3930   -4.1570   20.3340 C   0  0  0  0  0  0  0  0  0  0  0  0
    5.4110   -4.8420   19.9910 O   0  0  0  0  0  0  0  0  0  0  0  0
    6.8740   -4.2080   21.6590 N   0  0  0  0  0  0  0  0  0  0  0  0
    7.7130   -3.1420   22.1810 C   0  0  0  0  0  0  0  0  0  0  0  0
    7.4490   -3.0590   23.6580 C   0  0  0  0  0  0  0  0  0  0  0  0
    6.1100   -3.6330   23.9870 C   0  0  0  0  0  0  0  0  0  0  0  0
    5.6510   -3.3750   25.3730 C   0  0  0  0  0  0  0  0  0  0  0  0
    4.4620   -3.6570   25.7010 O   0  0  0  0  0  0  0  0  0  0  0  0
    6.4560   -2.7850   26.3740 N   0  0  0  0  0  0  0  0  0  0  0  0
    6.3190   -1.3340   26.6190 C   0  0  0  0  0  0  0  0  0  0  0  0
    6.2480    0.0860   27.2100 C   0  0  0  0  0  0  0  0  0  0  0  0
    6.4410    0.4180   28.4870 N   0  0  0  0  0  0  0  0  0  0  0  0
    6.7310   -0.4050   29.4910 C   0  0  0  0  0  0  0  0  0  0  0  0
    6.9450    0.0120   30.9230 C   0  0  0  0  0  0  0  0  0  0  0  0
    6.8080   -1.5940   29.1010 N   0  0  0  0  0  0  0  0  0  0  0  0
    6.6410   -2.0760   27.8640 C   0  0  0  0  0  0  0  0  0  0  0  0
    6.1250   -5.0960   23.6970 C   0  0  0  0  0  0  0  0  0  0  0  0
    6.5460   -5.3780   22.4220 C   0  0  0  0  0  0  0  0  0  0  0  0
  1  2  1  0
  2  3  2  0
  2  4  1  0
  4  5  1  0
  5  6  1  0
  6  7  1  0
  7  8  1  0
  8  9  2  0
  8 10  1  0
 10 11  1  0
 11 12  2  0
 12 13  1  0
 13 14  2  0
 14 15  1  0
 14 16  1  0
 11 17  1  0
 16 17  2  0
  7 18  1  0
  4 19  1  0
 18 19  1  0
M  END
