piperidine-amides-12842-covalent
     RDKit          3D

 21 22  0  0  0  0  0  0  0  0999 V2000
    7.0940   -3.2870   19.2960 C   0  0  0  0  0  0  0  0  0  0  0  0
    6.3900   -4.0860   20.3260 C   0  0  0  0  0  0  0  0  0  0  0  0
    5.3540   -4.6690   19.9390 O   0  0  0  0  0  0  0  0  0  0  0  0
    6.8860   -4.2120   21.6410 N   0  0  0  0  0  0  0  0  0  0  0  0
    7.6770   -3.1680   22.2200 C   0  0  0  0  0  0  0  0  0  0  0  0
    7.3050   -2.8940   23.6030 C   0  0  0  0  0  0  0  0  0  0  0  0
    6.0380   -3.5600   23.9600 C   0  0  0  0  0  0  0  0  0  0  0  0
    5.5940   -3.2700   25.3530 C   0  0  0  0  0  0  0  0  0  0  0  0
    4.3750   -3.3750   25.5830 O   0  0  0  0  0  0  0  0  0  0  0  0
    6.4660   -2.8880   26.3910 N   0  0  0  0  0  0  0  0  0  0  0  0
    6.5800   -1.4920   26.8880 C   0  0  0  0  0  0  0  0  0  0  0  0
    5.4370   -1.0650   27.7640 C   0  0  0  0  0  0  0  0  0  0  0  0
    5.1650   -1.7810   29.0170 C   0  0  0  0  0  0  0  0  0  0  0  0
    4.1810   -1.5730   29.9870 C   0  0  0  0  0  0  0  0  0  0  0  0
    4.0430   -2.2560   31.0280 O   0  0  0  0  0  0  0  0  0  0  0  0
    2.7880   -2.4370   31.3350 C   0  0  0  0  0  0  0  0  0  0  0  0
    3.3130   -0.4940   29.7010 N   0  0  0  0  0  0  0  0  0  0  0  0
    3.5380    0.1790   28.5580 C   0  0  0  0  0  0  0  0  0  0  0  0
    4.5500   -0.0740   27.6150 N   0  0  0  0  0  0  0  0  0  0  0  0
    5.9500   -5.0240   23.6180 C   0  0  0  0  0  0  0  0  0  0  0  0
    6.6560   -5.3630   22.4810 C   0  0  0  0  0  0  0  0  0  0  0  0
  1  2  1  0
  2  3  2  0
  2  4  1  0
  4  5  1  0
  5  6  1  0
  6  7  1  0
  7  8  1  0
  8  9  2  0
  8 10  1  0
 10 11  1  0
 11 12  1  0
 12 13  2  0
 13 14  1  0
 14 15  1  0
 15 16  1  0
 14 17  2  0
 17 18  1  0
 12 19  1  0
 18 19  2  0
  7 20  1  0
  4 21  1  0
 20 21  1  0
M  END
