piperidine-amides-13240-covalent
     RDKit          3D

 18 19  0  0  0  0  0  0  0  0999 V2000
    7.0850   -3.2870   19.2100 C   0  0  0  0  0  0  0  0  0  0  0  0
    6.2890   -3.9970   20.2360 C   0  0  0  0  0  0  0  0  0  0  0  0
    5.2110   -4.4880   19.8520 O   0  0  0  0  0  0  0  0  0  0  0  0
    6.7610   -4.1530   21.5500 N   0  0  0  0  0  0  0  0  0  0  0  0
    7.5490   -3.1280   22.1610 C   0  0  0  0  0  0  0  0  0  0  0  0
    7.2130   -2.8370   23.5640 C   0  0  0  0  0  0  0  0  0  0  0  0
    6.6000   -3.9540   24.3270 C   0  0  0  0  0  0  0  0  0  0  0  0
    5.6830   -3.4270   25.3770 C   0  0  0  0  0  0  0  0  0  0  0  0
    4.8150   -2.6020   25.0280 O   0  0  0  0  0  0  0  0  0  0  0  0
    5.7590   -3.8260   26.7320 N   0  0  0  0  0  0  0  0  0  0  0  0
    6.1420   -5.1910   27.1630 C   0  0  1  0  0  0  0  0  0  0  0  0
    7.3220   -5.6820   26.4460 C   0  0  0  0  0  0  0  0  0  0  0  0
    6.3720   -5.3360   28.6170 C   0  0  0  0  0  0  0  0  0  0  0  0
    5.6480   -6.2630   29.3360 C   0  0  0  0  0  0  0  0  0  0  0  0
    4.4520   -6.1810   29.6450 C   0  0  0  0  0  0  0  0  0  0  0  0
    4.5720   -7.1220   28.6090 C   0  0  0  0  0  0  0  0  0  0  0  0
    5.9070   -5.0100   23.5080 C   0  0  0  0  0  0  0  0  0  0  0  0
    6.5430   -5.3230   22.3440 C   0  0  0  0  0  0  0  0  0  0  0  0
  1  2  1  0
  2  3  2  0
  2  4  1  0
  4  5  1  0
  5  6  1  0
  6  7  1  0
  7  8  1  0
  8  9  2  0
  8 10  1  0
 10 11  1  0
 11 12  1  6
 11 13  1  0
 13 14  1  0
 14 15  1  0
 14 16  1  0
 15 16  1  0
  7 17  1  0
  4 18  1  0
 17 18  1  0
M  END
