piperidine-amides-32161-covalent
     RDKit          3D

 28 30  0  0  0  0  0  0  0  0999 V2000
    7.0290   -3.3870   19.4670 C   0  0  0  0  0  0  0  0  0  0  0  0
    6.3240   -4.2740   20.4340 C   0  0  0  0  0  0  0  0  0  0  0  0
    5.3770   -4.9550   20.0040 O   0  0  0  0  0  0  0  0  0  0  0  0
    6.7570   -4.3620   21.7830 N   0  0  0  0  0  0  0  0  0  0  0  0
    6.5530   -5.5710   22.5590 C   0  0  0  0  0  0  0  0  0  0  0  0
    6.0640   -5.2220   23.9880 C   0  0  0  0  0  0  0  0  0  0  0  0
    5.8750   -3.7410   24.0990 C   0  0  0  0  0  0  0  0  0  0  0  0
    5.2370   -3.1870   25.3560 C   0  0  0  0  0  0  0  0  0  0  0  0
    4.6750   -2.1080   25.2000 O   0  0  0  0  0  0  0  0  0  0  0  0
    5.2390   -3.8220   26.6270 N   0  0  0  0  0  0  0  0  0  0  0  0
    6.3540   -4.3900   27.1330 C   0  0  0  0  0  0  0  0  0  0  0  0
    6.5960   -4.8070   28.4090 C   0  0  0  0  0  0  0  0  0  0  0  0
    5.6780   -4.4360   29.3380 C   0  0  0  0  0  0  0  0  0  0  0  0
    4.4610   -4.0870   28.8220 C   0  0  2  0  0  0  0  0  0  0  0  0
    3.4900   -5.2150   28.7190 C   0  0  0  0  0  0  0  0  0  0  0  0
    2.0510   -4.9440   28.4520 C   0  0  0  0  0  0  0  0  0  0  0  0
    1.7290   -5.4870   29.7080 N   0  0  0  0  0  0  0  0  0  0  0  0
    0.7190   -6.4790   29.8060 C   0  0  0  0  0  0  0  0  0  0  0  0
   -0.0630   -6.7460   28.6940 O   0  0  0  0  0  0  0  0  0  0  0  0
    0.4540   -7.2120   30.9500 O   0  0  0  0  0  0  0  0  0  0  0  0
   -0.8000   -7.0920   31.5750 C   0  0  0  0  0  0  0  0  0  0  0  0
   -1.2650   -5.6900   31.4230 C   0  0  0  0  0  0  0  0  0  0  0  0
   -1.0420   -7.7450   32.7880 C   0  0  0  0  0  0  0  0  0  0  0  0
   -1.8780   -7.4950   30.5600 C   0  0  0  0  0  0  0  0  0  0  0  0
    3.1310   -5.7420   30.0650 C   0  0  0  0  0  0  0  0  0  0  0  0
    4.5190   -3.1970   27.7590 C   0  0  0  0  0  0  0  0  0  0  0  0
    7.1760   -3.0270   23.7840 C   0  0  0  0  0  0  0  0  0  0  0  0
    7.5580   -3.2780   22.3670 C   0  0  0  0  0  0  0  0  0  0  0  0
  1  2  1  0
  2  3  2  0
  2  4  1  0
  4  5  1  0
  5  6  1  0
  6  7  1  0
  7  8  1  0
  8  9  2  0
  8 10  1  0
 10 11  1  0
 11 12  1  0
 12 13  1  0
 13 14  1  0
 14 15  1  6
 15 16  1  0
 16 17  1  0
 17 18  1  0
 18 19  2  0
 18 20  1  0
 21 20  1  0
 21 22  1  0
 21 23  1  0
 21 24  1  0
 15 25  1  0
 17 25  1  0
 10 26  1  0
 14 26  1  0
  7 27  1  0
  4 28  1  0
 27 28  1  0
M  END
