piperidine-amides-25033-covalent
     RDKit          3D

 23 24  0  0  0  0  0  0  0  0999 V2000
    7.0850   -3.3290   19.3240 C   0  0  0  0  0  0  0  0  0  0  0  0
    6.3760   -4.1510   20.3380 C   0  0  0  0  0  0  0  0  0  0  0  0
    5.3890   -4.7860   19.9700 O   0  0  0  0  0  0  0  0  0  0  0  0
    6.8690   -4.1950   21.6410 N   0  0  0  0  0  0  0  0  0  0  0  0
    7.5590   -3.0630   22.1870 C   0  0  0  0  0  0  0  0  0  0  0  0
    6.7890   -2.5310   23.3500 C   0  0  0  0  0  0  0  0  0  0  0  0
    6.6060   -3.6540   24.3580 C   0  0  0  0  0  0  0  0  0  0  0  0
    5.7620   -3.1130   25.4530 C   0  0  0  0  0  0  0  0  0  0  0  0
    4.5450   -2.9890   25.2510 O   0  0  0  0  0  0  0  0  0  0  0  0
    6.2950   -2.7450   26.7170 N   0  0  0  0  0  0  0  0  0  0  0  0
    6.2720   -3.7740   27.7340 C   0  0  0  0  0  0  0  0  0  0  0  0
    6.3060   -1.3520   27.1240 C   0  0  0  0  0  0  0  0  0  0  0  0
    6.0350   -0.4960   26.0830 C   0  0  0  0  0  0  0  0  0  0  0  0
    5.9900    0.8370   26.2430 C   0  0  0  0  0  0  0  0  0  0  0  0
    5.6400    1.8910   24.8830 Cl  0  0  0  0  0  0  0  0  0  0  0  0
    6.2190    1.3390   27.4510 C   0  0  0  0  0  0  0  0  0  0  0  0
    6.5260    0.5730   28.6710 C   0  0  0  0  0  0  0  0  0  0  0  0
    6.5790   -0.9140   28.5350 C   0  0  0  0  0  0  0  0  0  0  0  0
    6.8370   -1.8390   29.5670 N   0  0  0  0  0  0  0  0  0  0  0  0
    5.6370   -2.2650   29.9990 O   0  0  0  0  0  0  0  0  0  0  0  0
    7.6760   -1.3720   30.4890 O   0  0  0  0  0  0  0  0  0  0  0  0
    5.9900   -4.8920   23.8070 C   0  0  0  0  0  0  0  0  0  0  0  0
    6.5000   -5.3100   22.4640 C   0  0  0  0  0  0  0  0  0  0  0  0
  1  2  1  0
  2  3  2  0
  2  4  1  0
  4  5  1  0
  5  6  1  0
  6  7  1  0
  7  8  1  0
  8  9  2  0
  8 10  1  0
 10 11  1  0
 10 12  1  0
 12 13  2  0
 13 14  1  0
 14 15  1  0
 14 16  2  0
 16 17  1  0
 12 18  1  0
 17 18  2  0
 18 19  1  0
 19 20  2  0
 19 21  1  0
  7 22  1  0
  4 23  1  0
 22 23  1  0
M  CHG  2  19   1  21  -1
M  END
