piperidine-amides-31038-covalent
     RDKit          3D

 28 31  0  0  0  0  0  0  0  0999 V2000
    7.0320   -3.3630   19.3820 C   0  0  0  0  0  0  0  0  0  0  0  0
    6.3800   -4.2240   20.3750 C   0  0  0  0  0  0  0  0  0  0  0  0
    5.4050   -4.9020   20.0020 O   0  0  0  0  0  0  0  0  0  0  0  0
    6.8490   -4.3400   21.7090 N   0  0  0  0  0  0  0  0  0  0  0  0
    6.7210   -5.6050   22.4330 C   0  0  0  0  0  0  0  0  0  0  0  0
    6.1850   -5.3060   23.8200 C   0  0  0  0  0  0  0  0  0  0  0  0
    6.0650   -3.8390   24.0410 C   0  0  0  0  0  0  0  0  0  0  0  0
    5.5540   -3.4140   25.3850 C   0  0  0  0  0  0  0  0  0  0  0  0
    4.5120   -2.7000   25.4050 O   0  0  0  0  0  0  0  0  0  0  0  0
    6.0790   -3.7200   26.6740 N   0  0  0  0  0  0  0  0  0  0  0  0
    5.5170   -4.8880   27.3940 C   0  0  0  0  0  0  0  0  0  0  0  0
    4.8390   -4.4720   28.6570 C   0  0  0  0  0  0  0  0  0  0  0  0
    5.5570   -3.4900   29.1940 N   0  0  0  0  0  0  0  0  0  0  0  0
    5.0660   -2.3910   29.9390 C   0  0  0  0  0  0  0  0  0  0  0  0
    3.9370   -2.5310   30.8360 C   0  0  0  0  0  0  0  0  0  0  0  0
    3.9290   -1.1250   31.2850 C   0  0  0  0  0  0  0  0  0  0  0  0
    2.9030   -0.7100   32.2730 C   0  0  0  0  0  0  0  0  0  0  0  0
    2.3400   -1.4880   33.2590 C   0  0  0  0  0  0  0  0  0  0  0  0
    1.3870   -1.0210   34.1430 C   0  0  0  0  0  0  0  0  0  0  0  0
    0.8620    0.3700   34.1290 C   0  0  0  0  0  0  0  0  0  0  0  0
    1.4100    1.2040   33.1350 N   0  0  0  0  0  0  0  0  0  0  0  0
    2.4200    0.7530   32.1800 C   0  0  0  0  0  0  0  0  0  0  0  0
    4.9150   -0.3720   30.6990 N   0  0  0  0  0  0  0  0  0  0  0  0
    5.6380   -1.1840   29.8390 N   0  0  0  0  0  0  0  0  0  0  0  0
    6.6900   -3.1540   28.4520 C   0  0  0  0  0  0  0  0  0  0  0  0
    6.3570   -2.5470   27.4610 C   0  0  0  0  0  0  0  0  0  0  0  0
    7.2430   -3.0660   23.6230 C   0  0  0  0  0  0  0  0  0  0  0  0
    7.6420   -3.3030   22.3270 C   0  0  0  0  0  0  0  0  0  0  0  0
  1  2  1  0
  2  3  2  0
  2  4  1  0
  4  5  1  0
  5  6  1  0
  6  7  1  0
  7  8  1  0
  8  9  2  0
  8 10  1  0
 10 11  1  0
 11 12  1  0
 12 13  1  0
 13 14  1  0
 14 15  2  0
 15 16  1  0
 16 17  1  0
 17 18  2  0
 18 19  1  0
 19 20  2  0
 20 21  1  0
 17 22  1  0
 21 22  2  0
 16 23  2  0
 14 24  1  0
 23 24  1  0
 13 25  1  0
 10 26  1  0
 25 26  1  0
  7 27  1  0
  4 28  1  0
 27 28  1  0
M  END
