piperidine-amides-30112-covalent
     RDKit          3D

 27 29  0  0  0  0  0  0  0  0999 V2000
    7.0870   -3.3330   19.3300 C   0  0  0  0  0  0  0  0  0  0  0  0
    6.3940   -4.1740   20.2970 C   0  0  0  0  0  0  0  0  0  0  0  0
    5.3770   -4.7870   19.9690 O   0  0  0  0  0  0  0  0  0  0  0  0
    6.9320   -4.3320   21.6200 N   0  0  0  0  0  0  0  0  0  0  0  0
    7.7820   -3.2990   22.1770 C   0  0  0  0  0  0  0  0  0  0  0  0
    7.5340   -3.1420   23.6470 C   0  0  0  0  0  0  0  0  0  0  0  0
    6.1150   -3.6030   23.8560 C   0  0  0  0  0  0  0  0  0  0  0  0
    5.5740   -3.2080   25.1870 C   0  0  0  0  0  0  0  0  0  0  0  0
    4.7690   -2.2710   25.2940 O   0  0  0  0  0  0  0  0  0  0  0  0
    5.9320   -3.8920   26.3600 N   0  0  0  0  0  0  0  0  0  0  0  0
    6.8950   -4.9580   26.1710 C   0  0  0  0  0  0  0  0  0  0  0  0
    7.1550   -5.6690   27.4560 C   0  0  0  0  0  0  0  0  0  0  0  0
    6.2600   -5.4980   28.4600 C   0  0  0  0  0  0  0  0  0  0  0  0
    6.3500   -6.2780   29.5920 C   0  0  0  0  0  0  0  0  0  0  0  0
    5.5230   -6.2150   30.6720 C   0  0  0  0  0  0  0  0  0  0  0  0
    5.7410   -6.9450   31.6520 O   0  0  0  0  0  0  0  0  0  0  0  0
    4.9100   -7.8110   32.3210 C   0  0  0  0  0  0  0  0  0  0  0  0
    4.4900   -5.3460   30.6770 C   0  0  0  0  0  0  0  0  0  0  0  0
    4.3100   -4.5270   29.6080 C   0  0  0  0  0  0  0  0  0  0  0  0
    3.3650   -3.7060   29.5960 O   0  0  0  0  0  0  0  0  0  0  0  0
    2.2000   -4.3540   29.9170 C   0  0  0  0  0  0  0  0  0  0  0  0
    5.2330   -4.6120   28.4760 C   0  0  0  0  0  0  0  0  0  0  0  0
    4.9880   -3.7500   27.4370 C   0  0  0  0  0  0  0  0  0  0  0  0
    5.0570   -2.4370   27.8860 C   0  0  0  0  0  0  0  0  0  0  0  0
    3.8020   -4.0420   26.8210 C   0  0  0  0  0  0  0  0  0  0  0  0
    5.9110   -5.0680   23.6440 C   0  0  0  0  0  0  0  0  0  0  0  0
    6.6190   -5.5090   22.3820 C   0  0  0  0  0  0  0  0  0  0  0  0
  1  2  1  0
  2  3  2  0
  2  4  1  0
  4  5  1  0
  5  6  1  0
  6  7  1  0
  7  8  1  0
  8  9  2  0
  8 10  1  0
 10 11  1  0
 11 12  1  0
 12 13  1  0
 13 14  2  0
 14 15  1  0
 15 16  1  0
 16 17  1  0
 15 18  2  0
 18 19  1  0
 19 20  1  0
 20 21  1  0
 13 22  1  0
 19 22  2  0
 10 23  1  0
 22 23  1  0
 23 24  1  0
 23 25  1  0
  7 26  1  0
  4 27  1  0
 26 27  1  0
M  END
