piperidine-amides-24808-covalent
     RDKit          3D

 24 26  0  0  0  0  0  0  0  0999 V2000
    7.1140   -3.3670   19.4180 C   0  0  0  0  0  0  0  0  0  0  0  0
    6.4210   -4.2380   20.3670 C   0  0  0  0  0  0  0  0  0  0  0  0
    5.4030   -4.8720   20.0010 O   0  0  0  0  0  0  0  0  0  0  0  0
    6.9380   -4.4030   21.6630 N   0  0  0  0  0  0  0  0  0  0  0  0
    6.4650   -5.4990   22.4560 C   0  0  0  0  0  0  0  0  0  0  0  0
    5.4800   -4.8670   23.4480 C   0  0  0  0  0  0  0  0  0  0  0  0
    6.1860   -3.7600   24.2300 C   0  0  0  0  0  0  0  0  0  0  0  0
    5.1720   -3.0470   25.0720 C   0  0  0  0  0  0  0  0  0  0  0  0
    4.3110   -2.3650   24.4980 O   0  0  0  0  0  0  0  0  0  0  0  0
    5.2180   -3.1650   26.4790 N   0  0  0  0  0  0  0  0  0  0  0  0
    6.2130   -4.0100   26.8540 C   0  0  0  0  0  0  0  0  0  0  0  0
    5.9050   -4.7400   28.1060 C   0  0  2  0  0  0  0  0  0  0  0  0
    6.4430   -4.4350   29.2530 C   0  0  0  0  0  0  0  0  0  0  0  0
    6.3050   -5.3430   30.1220 O   0  0  0  0  0  0  0  0  0  0  0  0
    6.1790   -6.1880   28.0300 C   0  0  0  0  0  0  0  0  0  0  0  0
    5.1010   -6.8280   28.6360 C   0  0  0  0  0  0  0  0  0  0  0  0
    3.9290   -6.0690   28.6630 C   0  0  0  0  0  0  0  0  0  0  0  0
    3.7110   -4.8490   29.5870 C   0  0  0  0  0  0  0  0  0  0  0  0
    4.4050   -4.4810   28.2940 C   0  0  2  0  0  0  0  0  0  0  0  0
    3.6070   -4.4030   27.0190 C   0  0  0  0  0  0  0  0  0  0  0  0
    2.2680   -4.8060   27.0550 O   0  0  0  0  0  0  0  0  0  0  0  0
    4.2500   -3.1390   27.5740 C   0  0  0  0  0  0  0  0  0  0  0  0
    6.8430   -2.7550   23.3150 C   0  0  0  0  0  0  0  0  0  0  0  0
    7.5740   -3.3050   22.3020 C   0  0  0  0  0  0  0  0  0  0  0  0
  1  2  1  0
  2  3  2  0
  2  4  1  0
  4  5  1  0
  5  6  1  0
  6  7  1  0
  7  8  1  0
  8  9  2  0
  8 10  1  0
 10 11  1  0
 11 12  1  0
 12 13  1  1
 13 14  1  0
 12 15  1  0
 15 16  1  0
 16 17  1  0
 17 18  1  0
 12 19  1  0
 18 19  1  0
 19 20  1  6
 20 21  1  0
 10 22  1  0
 19 22  1  0
  7 23  1  0
  4 24  1  0
 23 24  1  0
M  END
