piperidine-amides-14803-covalent
     RDKit          3D

 22 23  0  0  0  0  0  0  0  0999 V2000
    7.0980   -3.2700   19.2150 C   0  0  0  0  0  0  0  0  0  0  0  0
    6.3540   -4.0240   20.2240 C   0  0  0  0  0  0  0  0  0  0  0  0
    5.2830   -4.5570   19.8870 O   0  0  0  0  0  0  0  0  0  0  0  0
    6.8780   -4.1800   21.5320 N   0  0  0  0  0  0  0  0  0  0  0  0
    6.5240   -5.3330   22.3020 C   0  0  0  0  0  0  0  0  0  0  0  0
    5.8020   -4.8810   23.5390 C   0  0  0  0  0  0  0  0  0  0  0  0
    6.6450   -3.7870   24.1610 C   0  0  0  0  0  0  0  0  0  0  0  0
    5.8730   -3.1110   25.2490 C   0  0  0  0  0  0  0  0  0  0  0  0
    4.6950   -2.8390   25.0090 O   0  0  0  0  0  0  0  0  0  0  0  0
    6.5350   -2.8510   26.4380 N   0  0  0  0  0  0  0  0  0  0  0  0
    7.1920   -3.8920   27.1450 C   0  0  0  0  0  0  0  0  0  0  0  0
    6.3770   -5.0100   27.4210 C   0  0  0  0  0  0  0  0  0  0  0  0
    5.1540   -5.1840   26.7790 C   0  0  0  0  0  0  0  0  0  0  0  0
    4.2790   -6.2470   26.9860 C   0  0  0  0  0  0  0  0  0  0  0  0
    4.7290   -7.2490   27.9820 C   0  0  0  0  0  0  0  0  0  0  0  0
    5.8980   -7.0970   28.5990 N   0  0  0  0  0  0  0  0  0  0  0  0
    6.6510   -6.0460   28.3200 C   0  0  0  0  0  0  0  0  0  0  0  0
    7.7490   -5.8890   28.8900 O   0  0  0  0  0  0  0  0  0  0  0  0
    8.8080   -5.4670   28.1270 C   0  0  0  0  0  0  0  0  0  0  0  0
    8.9180   -5.9550   26.7150 C   0  0  0  0  0  0  0  0  0  0  0  0
    7.0970   -2.7000   23.2800 C   0  0  0  0  0  0  0  0  0  0  0  0
    7.7160   -3.1830   22.1550 C   0  0  0  0  0  0  0  0  0  0  0  0
  1  2  1  0
  2  3  2  0
  2  4  1  0
  4  5  1  0
  5  6  1  0
  6  7  1  0
  7  8  1  0
  8  9  2  0
  8 10  1  0
 10 11  1  0
 11 12  1  0
 12 13  2  0
 13 14  1  0
 14 15  2  0
 15 16  1  0
 12 17  1  0
 16 17  2  0
 17 18  1  0
 18 19  1  0
 19 20  1  0
  7 21  1  0
  4 22  1  0
 21 22  1  0
M  END
