piperidine-amides-26006-covalent
     RDKit          3D

 24 26  0  0  0  0  0  0  0  0999 V2000
    7.0650   -3.3520   19.3640 C   0  0  0  0  0  0  0  0  0  0  0  0
    6.3850   -4.1980   20.3430 C   0  0  0  0  0  0  0  0  0  0  0  0
    5.3740   -4.8280   19.9840 O   0  0  0  0  0  0  0  0  0  0  0  0
    6.8720   -4.3700   21.6600 N   0  0  0  0  0  0  0  0  0  0  0  0
    6.5420   -5.5030   22.4850 C   0  0  0  0  0  0  0  0  0  0  0  0
    5.6210   -4.9660   23.5590 C   0  0  0  0  0  0  0  0  0  0  0  0
    6.1860   -3.7790   24.3050 C   0  0  0  0  0  0  0  0  0  0  0  0
    5.2060   -3.2090   25.2990 C   0  0  0  0  0  0  0  0  0  0  0  0
    4.4330   -2.2710   24.9790 O   0  0  0  0  0  0  0  0  0  0  0  0
    5.1040   -3.6970   26.6310 N   0  0  0  0  0  0  0  0  0  0  0  0
    5.0750   -2.7300   27.7460 C   0  0  0  0  0  0  0  0  0  0  0  0
    5.2430   -3.4490   29.0410 C   0  0  0  0  0  0  0  0  0  0  0  0
    6.2830   -4.4900   29.1210 C   0  0  0  0  0  0  0  0  0  0  0  0
    6.1930   -5.4690   28.0210 C   0  0  1  0  0  0  0  0  0  0  0  0
    4.8410   -6.1640   27.8670 C   0  0  0  0  0  0  0  0  0  0  0  0
    4.3910   -6.5500   29.2340 C   0  0  0  0  0  0  0  0  0  0  0  0
    3.4380   -7.5620   29.1620 F   0  0  0  0  0  0  0  0  0  0  0  0
    5.4010   -6.9050   30.0840 F   0  0  0  0  0  0  0  0  0  0  0  0
    3.7740   -5.4990   29.8950 F   0  0  0  0  0  0  0  0  0  0  0  0
    4.1200   -5.6620   26.8880 N   0  0  0  0  0  0  0  0  0  0  0  0
    4.6400   -6.9400   26.7170 N   0  0  0  0  0  0  0  0  0  0  0  0
    6.0790   -4.6340   26.7610 C   0  0  0  0  0  0  0  0  0  0  0  0
    6.6770   -2.6980   23.3640 C   0  0  0  0  0  0  0  0  0  0  0  0
    7.6020   -3.3130   22.3300 C   0  0  0  0  0  0  0  0  0  0  0  0
  1  2  1  0
  2  3  2  0
  2  4  1  0
  4  5  1  0
  5  6  1  0
  6  7  1  0
  7  8  1  0
  8  9  2  0
  8 10  1  0
 10 11  1  0
 11 12  1  0
 12 13  1  0
 13 14  1  0
 14 15  1  1
 15 16  1  0
 16 17  1  0
 16 18  1  0
 16 19  1  0
 15 20  1  0
 15 21  1  0
 20 21  2  0
 10 22  1  0
 14 22  1  0
  7 23  1  0
  4 24  1  0
 23 24  1  0
M  END
