piperidine-amides-33883-covalent
     RDKit          3D

 29 32  0  0  0  0  0  0  0  0999 V2000
    7.1090   -3.2960   19.2160 C   0  0  0  0  0  0  0  0  0  0  0  0
    6.3680   -4.0660   20.2260 C   0  0  0  0  0  0  0  0  0  0  0  0
    5.2630   -4.5400   19.8780 O   0  0  0  0  0  0  0  0  0  0  0  0
    6.9090   -4.3280   21.5030 N   0  0  0  0  0  0  0  0  0  0  0  0
    6.4990   -5.5220   22.1490 C   0  0  0  0  0  0  0  0  0  0  0  0
    5.9470   -5.2820   23.4640 C   0  0  0  0  0  0  0  0  0  0  0  0
    6.5420   -4.1300   24.1570 C   0  0  0  0  0  0  0  0  0  0  0  0
    5.6660   -3.7350   25.3020 C   0  0  0  0  0  0  0  0  0  0  0  0
    4.4410   -3.6250   25.0970 O   0  0  0  0  0  0  0  0  0  0  0  0
    6.1540   -3.4620   26.5920 N   0  0  0  0  0  0  0  0  0  0  0  0
    6.0900   -4.3320   27.7230 C   0  0  0  0  0  0  0  0  0  0  0  0
    4.8680   -4.5250   28.5140 C   0  0  1  0  0  0  0  0  0  0  0  0
    4.2820   -3.1690   28.9220 C   0  0  0  0  0  0  0  0  0  0  0  0
    3.0720   -3.3470   29.5670 C   0  0  0  0  0  0  0  0  0  0  0  0
    2.7240   -4.3800   28.4790 C   0  0  0  0  0  0  0  0  0  0  0  0
    3.8470   -5.0360   27.9750 O   0  0  0  0  0  0  0  0  0  0  0  0
    6.1900   -2.0900   26.9800 C   0  0  0  0  0  0  0  0  0  0  0  0
    5.7630   -1.2200   26.1350 N   0  0  0  0  0  0  0  0  0  0  0  0
    5.8040    0.0500   26.5610 C   0  0  0  0  0  0  0  0  0  0  0  0
    5.2250    1.2760   25.4280 Cl  0  0  0  0  0  0  0  0  0  0  0  0
    6.2830    0.4140   27.8500 N   0  0  0  0  0  0  0  0  0  0  0  0
    6.7770   -0.4300   28.8530 C   0  0  0  0  0  0  0  0  0  0  0  0
    6.7760    0.9320   29.2090 C   0  0  0  0  0  0  0  0  0  0  0  0
    6.2360    1.6810   28.0780 C   0  0  0  0  0  0  0  0  0  0  0  0
    5.7990    0.9740   26.8080 C   0  0  0  0  0  0  0  0  0  0  0  0
    6.0680   -0.4810   27.0890 C   0  0  0  0  0  0  0  0  0  0  0  0
    6.5670   -1.4410   28.0740 C   0  0  0  0  0  0  0  0  0  0  0  0
    6.7500   -2.9580   23.2520 C   0  0  0  0  0  0  0  0  0  0  0  0
    7.6360   -3.3280   22.2530 C   0  0  0  0  0  0  0  0  0  0  0  0
  1  2  1  0
  2  3  2  0
  2  4  1  0
  4  5  1  0
  5  6  1  0
  6  7  1  0
  7  8  1  0
  8  9  2  0
  8 10  1  0
 10 11  1  0
 12 11  1  6
 12 13  1  0
 13 14  1  0
 14 15  1  0
 12 16  1  0
 15 16  1  0
 10 17  1  0
 17 18  2  0
 18 19  1  0
 19 20  1  0
 19 21  2  0
 21 22  1  0
 22 23  1  0
 23 24  2  0
 24 25  1  0
 25 26  2  0
 17 27  1  0
 22 27  2  0
 26 27  1  0
  7 28  1  0
  4 29  1  0
 28 29  1  0
M  END
