piperidine-amides-2308-covalent
     RDKit          3D

 28 30  0  0  0  0  0  0  0  0999 V2000
    7.0560   -3.3630   19.3330 C   0  0  0  0  0  0  0  0  0  0  0  0
    6.3530   -4.1790   20.3510 C   0  0  0  0  0  0  0  0  0  0  0  0
    5.3680   -4.8120   19.9760 O   0  0  0  0  0  0  0  0  0  0  0  0
    6.8520   -4.2330   21.6560 N   0  0  0  0  0  0  0  0  0  0  0  0
    7.6940   -3.1780   22.1630 C   0  0  0  0  0  0  0  0  0  0  0  0
    7.4950   -3.0370   23.6400 C   0  0  0  0  0  0  0  0  0  0  0  0
    6.0970   -3.5360   23.9980 C   0  0  0  0  0  0  0  0  0  0  0  0
    5.8070   -3.1650   25.3980 C   0  0  0  0  0  0  0  0  0  0  0  0
    4.7020   -3.4510   25.8790 O   0  0  0  0  0  0  0  0  0  0  0  0
    6.7620   -2.4800   26.1750 N   0  0  0  0  0  0  0  0  0  0  0  0
    6.3010   -1.5160   27.1510 C   0  0  2  0  0  0  0  0  0  0  0  0
    5.3520   -2.2370   28.0810 C   0  0  0  0  0  0  0  0  0  0  0  0
    5.6040   -0.3000   26.5320 C   0  0  0  0  0  0  0  0  0  0  0  0
    5.7460    0.5130   27.6310 C   0  0  0  0  0  0  0  0  0  0  0  0
    6.8320    0.1450   28.4580 N   0  0  0  0  0  0  0  0  0  0  0  0
    7.0640    0.9610   29.6220 C   0  0  0  0  0  0  0  0  0  0  0  0
    7.4620    2.2560   29.5090 O   0  0  0  0  0  0  0  0  0  0  0  0
    6.8990    0.4950   30.9040 O   0  0  0  0  0  0  0  0  0  0  0  0
    6.9860    1.3520   32.0110 C   0  0  0  0  0  0  0  0  0  0  0  0
    7.2390    0.5660   33.2600 C   0  0  0  0  0  0  0  0  0  0  0  0
    5.8880    0.0300   33.7170 C   0  0  0  0  0  0  0  0  0  0  0  0
    5.9370   -0.7970   34.9790 C   0  0  0  0  0  0  0  0  0  0  0  0
    7.2310   -1.0300   35.6680 C   0  0  0  0  0  0  0  0  0  0  0  0
    8.4880   -0.4430   35.1100 C   0  0  0  0  0  0  0  0  0  0  0  0
    8.4600    0.3650   33.8790 C   0  0  0  0  0  0  0  0  0  0  0  0
    7.4590   -1.0170   28.1050 C   0  0  0  0  0  0  0  0  0  0  0  0
    6.0710   -5.0330   23.8080 C   0  0  0  0  0  0  0  0  0  0  0  0
    6.5560   -5.4080   22.4270 C   0  0  0  0  0  0  0  0  0  0  0  0
  1  2  1  0
  2  3  2  0
  2  4  1  0
  4  5  1  0
  5  6  1  0
  6  7  1  0
  7  8  1  0
  8  9  2  0
  8 10  1  0
 11 10  1  0
 11 12  1  1
 11 13  1  0
 13 14  1  0
 14 15  1  0
 15 16  1  0
 16 17  2  0
 16 18  1  0
 18 19  1  0
 19 20  1  0
 20 21  2  0
 21 22  1  0
 22 23  2  0
 23 24  1  0
 20 25  1  0
 24 25  2  0
 11 26  1  0
 15 26  1  0
  7 27  1  0
  4 28  1  0
 27 28  1  0
M  END
