piperidine-amides-27614-covalent
     RDKit          3D

 26 29  0  0  0  0  0  0  0  0999 V2000
    7.0340   -3.3910   19.4540 C   0  0  0  0  0  0  0  0  0  0  0  0
    6.3660   -4.2410   20.4450 C   0  0  0  0  0  0  0  0  0  0  0  0
    5.4020   -4.9250   20.0040 O   0  0  0  0  0  0  0  0  0  0  0  0
    6.8100   -4.3100   21.7810 N   0  0  0  0  0  0  0  0  0  0  0  0
    6.5870   -5.5090   22.5700 C   0  0  0  0  0  0  0  0  0  0  0  0
    6.0040   -5.1060   23.9080 C   0  0  0  0  0  0  0  0  0  0  0  0
    5.8170   -3.6140   23.9900 C   0  0  0  0  0  0  0  0  0  0  0  0
    5.0370   -3.1190   25.1980 C   0  0  0  0  0  0  0  0  0  0  0  0
    4.0800   -2.3750   24.9370 O   0  0  0  0  0  0  0  0  0  0  0  0
    5.2270   -3.3930   26.5860 N   0  0  0  0  0  0  0  0  0  0  0  0
    6.4180   -3.9310   26.9160 C   0  0  2  0  0  0  0  0  0  0  0  0
    6.0140   -5.3820   26.8340 C   0  0  0  0  0  0  0  0  0  0  0  0
    4.6860   -5.3870   27.0430 C   0  0  0  0  0  0  0  0  0  0  0  0
    4.2590   -4.1060   27.3890 C   0  0  1  0  0  0  0  0  0  0  0  0
    4.4800   -3.8110   28.7380 C   0  0  0  0  0  0  0  0  0  0  0  0
    5.7760   -3.6700   29.2470 C   0  0  2  0  0  0  0  0  0  0  0  0
    5.9530   -2.5190   30.0370 O   0  0  0  0  0  0  0  0  0  0  0  0
    4.8230   -1.8390   30.5640 C   0  0  0  0  0  0  0  0  0  0  0  0
    4.8340   -0.2980   30.5520 C   0  0  0  0  0  0  0  0  0  0  0  0
    3.5660    0.3200   31.1490 C   0  0  0  0  0  0  0  0  0  0  0  0
    2.4520   -0.5080   31.6800 C   0  0  0  0  0  0  0  0  0  0  0  0
    2.5760   -1.9960   31.6280 C   0  0  0  0  0  0  0  0  0  0  0  0
    3.7210   -2.5360   31.0890 C   0  0  0  0  0  0  0  0  0  0  0  0
    6.7650   -3.8340   28.3450 C   0  0  0  0  0  0  0  0  0  0  0  0
    7.1430   -2.9390   23.7840 C   0  0  0  0  0  0  0  0  0  0  0  0
    7.6240   -3.2310   22.3450 C   0  0  0  0  0  0  0  0  0  0  0  0
  1  2  1  0
  2  3  2  0
  2  4  1  0
  4  5  1  0
  5  6  1  0
  6  7  1  0
  7  8  1  0
  8  9  2  0
  8 10  1  0
 10 11  1  0
 11 12  1  1
 12 13  1  0
 10 14  1  0
 14 13  1  1
 14 15  1  0
 15 16  1  0
 16 17  1  6
 17 18  1  0
 18 19  2  0
 19 20  1  0
 20 21  2  0
 21 22  1  0
 18 23  1  0
 22 23  2  0
 11 24  1  0
 16 24  1  0
  7 25  1  0
  4 26  1  0
 25 26  1  0
M  END
