piperidine-amides-1931-covalent
     RDKit          3D

 23 25  0  0  0  0  0  0  0  0999 V2000
    7.0630   -3.3150   19.3000 C   0  0  0  0  0  0  0  0  0  0  0  0
    6.3680   -4.1500   20.3110 C   0  0  0  0  0  0  0  0  0  0  0  0
    5.3630   -4.7630   19.9550 O   0  0  0  0  0  0  0  0  0  0  0  0
    6.8890   -4.2490   21.6010 N   0  0  0  0  0  0  0  0  0  0  0  0
    7.7620   -3.2230   22.1300 C   0  0  0  0  0  0  0  0  0  0  0  0
    7.4860   -2.9920   23.5840 C   0  0  0  0  0  0  0  0  0  0  0  0
    6.1830   -3.6820   23.9540 C   0  0  0  0  0  0  0  0  0  0  0  0
    5.9310   -3.3770   25.3640 C   0  0  0  0  0  0  0  0  0  0  0  0
    5.0620   -4.0180   25.9630 O   0  0  0  0  0  0  0  0  0  0  0  0
    6.6710   -2.3610   26.0050 N   0  0  0  0  0  0  0  0  0  0  0  0
    6.3120   -1.9600   27.3420 C   0  0  2  0  0  0  0  0  0  0  0  0
    4.9310   -2.3690   27.5980 C   0  0  0  0  0  0  0  0  0  0  0  0
    4.2300   -0.9790   28.0950 S   0  0  0  0  0  0  0  0  0  0  0  0
    3.0600   -0.5730   27.2610 O   0  0  0  0  0  0  0  0  0  0  0  0
    3.9380   -1.1260   29.5630 O   0  0  0  0  0  0  0  0  0  0  0  0
    5.9600   -0.4890   27.5480 C   0  0  0  0  0  0  0  0  0  0  0  0
    6.7460   -0.3880   28.6420 C   0  0  0  0  0  0  0  0  0  0  0  0
    6.5050    0.8640   29.1170 C   0  0  0  0  0  0  0  0  0  0  0  0
    6.1030    1.8920   28.0810 C   0  0  0  0  0  0  0  0  0  0  0  0
    5.1700    0.9200   27.4440 C   0  0  0  0  0  0  0  0  0  0  0  0
    6.0330    0.3950   26.3240 C   0  0  0  0  0  0  0  0  0  0  0  0
    6.1150   -5.1240   23.6560 C   0  0  0  0  0  0  0  0  0  0  0  0
    6.6890   -5.4710   22.3290 C   0  0  0  0  0  0  0  0  0  0  0  0
  1  2  1  0
  2  3  2  0
  2  4  1  0
  4  5  1  0
  5  6  1  0
  6  7  1  0
  7  8  1  0
  8  9  2  0
  8 10  1  0
 11 10  1  6
 11 12  1  0
 13 12  1  0
 13 14  2  0
 13 15  2  0
 11 16  1  0
 13 16  1  0
 16 17  1  0
 17 18  1  0
 18 19  1  0
 19 20  1  0
 16 21  1  0
 20 21  1  0
  7 22  1  0
  4 23  1  0
 22 23  1  0
M  END
