piperidine-amides-16193-covalent
     RDKit          3D

 19 20  0  0  0  0  0  0  0  0999 V2000
    7.0990   -3.2890   19.3080 C   0  0  0  0  0  0  0  0  0  0  0  0
    6.3130   -4.0490   20.3140 C   0  0  0  0  0  0  0  0  0  0  0  0
    5.2940   -4.6070   19.9100 O   0  0  0  0  0  0  0  0  0  0  0  0
    6.7600   -4.1480   21.6390 N   0  0  0  0  0  0  0  0  0  0  0  0
    7.6220   -3.1500   22.2510 C   0  0  0  0  0  0  0  0  0  0  0  0
    7.2610   -2.9230   23.7020 C   0  0  0  0  0  0  0  0  0  0  0  0
    6.0020   -3.7230   24.0500 C   0  0  0  0  0  0  0  0  0  0  0  0
    5.5140   -3.4070   25.4250 C   0  0  0  0  0  0  0  0  0  0  0  0
    4.2890   -3.4010   25.6050 O   0  0  0  0  0  0  0  0  0  0  0  0
    6.3480   -3.0880   26.5270 N   0  0  0  0  0  0  0  0  0  0  0  0
    6.2660   -3.9750   27.6960 C   0  0  0  0  0  0  0  0  0  0  0  0
    5.9990   -5.4320   27.3270 C   0  0  0  0  0  0  0  0  0  0  0  0
    5.7040   -5.5990   25.9950 O   0  0  0  0  0  0  0  0  0  0  0  0
    6.6630   -1.7270   26.5160 C   0  0  0  0  0  0  0  0  0  0  0  0
    6.6480   -1.0920   27.7280 C   0  0  0  0  0  0  0  0  0  0  0  0
    6.8840   -1.6680   28.8200 C   0  0  0  0  0  0  0  0  0  0  0  0
    5.5440   -1.3920   28.9120 C   0  0  0  0  0  0  0  0  0  0  0  0
    6.1820   -5.1760   23.7640 C   0  0  0  0  0  0  0  0  0  0  0  0
    6.5730   -5.4060   22.3340 C   0  0  0  0  0  0  0  0  0  0  0  0
  1  2  1  0
  2  3  2  0
  2  4  1  0
  4  5  1  0
  5  6  1  0
  6  7  1  0
  7  8  1  0
  8  9  2  0
  8 10  1  0
 10 11  1  0
 11 12  1  0
 12 13  1  0
 10 14  1  0
 14 15  1  0
 15 16  1  0
 15 17  1  0
 16 17  1  0
  7 18  1  0
  4 19  1  0
 18 19  1  0
M  END
