piperidine-amides-30661-covalent
     RDKit          3D

 27 30  0  0  0  0  0  0  0  0999 V2000
    7.0690   -3.3330   19.3080 C   0  0  0  0  0  0  0  0  0  0  0  0
    6.3860   -4.1590   20.3070 C   0  0  0  0  0  0  0  0  0  0  0  0
    5.3740   -4.7980   19.9730 O   0  0  0  0  0  0  0  0  0  0  0  0
    6.8760   -4.2860   21.6180 N   0  0  0  0  0  0  0  0  0  0  0  0
    7.7340   -3.2810   22.2180 C   0  0  0  0  0  0  0  0  0  0  0  0
    7.0500   -2.8190   23.4750 C   0  0  0  0  0  0  0  0  0  0  0  0
    6.6280   -3.9670   24.3370 C   0  0  0  0  0  0  0  0  0  0  0  0
    5.6800   -3.5240   25.4060 C   0  0  0  0  0  0  0  0  0  0  0  0
    4.6580   -2.8610   25.0630 O   0  0  0  0  0  0  0  0  0  0  0  0
    5.8140   -3.7600   26.8110 N   0  0  0  0  0  0  0  0  0  0  0  0
    5.7210   -2.6200   27.7370 C   0  0  0  0  0  0  0  0  0  0  0  0
    6.3070   -3.0290   29.0190 C   0  0  0  0  0  0  0  0  0  0  0  0
    5.6090   -3.6750   29.8150 O   0  0  0  0  0  0  0  0  0  0  0  0
    5.4720   -4.9740   29.5390 C   0  0  0  0  0  0  0  0  0  0  0  0
    4.9810   -5.4680   28.2130 C   0  0  1  0  0  0  0  0  0  0  0  0
    4.9640   -6.9640   28.4040 C   0  0  0  0  0  0  0  0  0  0  0  0
    4.3880   -7.4810   27.3950 O   0  0  0  0  0  0  0  0  0  0  0  0
    3.1690   -6.9380   27.0210 C   0  0  0  0  0  0  0  0  0  0  0  0
    2.9520   -5.5890   26.8710 C   0  0  1  0  0  0  0  0  0  0  0  0
    1.5910   -5.3330   26.6610 C   0  0  0  0  0  0  0  0  0  0  0  0
    0.9740   -4.1410   27.3480 C   0  0  0  0  0  0  0  0  0  0  0  0
    1.8840   -3.3720   28.2990 C   0  0  0  0  0  0  0  0  0  0  0  0
    3.0980   -4.0770   28.8620 C   0  0  0  0  0  0  0  0  0  0  0  0
    3.7250   -4.8260   27.8870 N   0  0  0  0  0  0  0  0  0  0  0  0
    5.9040   -5.1310   27.3000 C   0  0  0  0  0  0  0  0  0  0  0  0
    6.0100   -5.1080   23.6250 C   0  0  0  0  0  0  0  0  0  0  0  0
    6.5790   -5.4320   22.4150 C   0  0  0  0  0  0  0  0  0  0  0  0
  1  2  1  0
  2  3  2  0
  2  4  1  0
  4  5  1  0
  5  6  1  0
  6  7  1  0
  7  8  1  0
  8  9  2  0
  8 10  1  0
 10 11  1  0
 11 12  1  0
 12 13  1  0
 13 14  1  0
 15 14  1  1
 15 16  1  0
 16 17  1  0
 17 18  1  0
 19 18  1  1
 19 20  1  0
 20 21  1  0
 21 22  1  0
 22 23  1  0
 15 24  1  0
 19 24  1  0
 23 24  1  0
 10 25  1  0
 15 25  1  0
  7 26  1  0
  4 27  1  0
 26 27  1  0
M  END
