piperidine-amides-32409-covalent
     RDKit          3D

 27 28  0  0  0  0  0  0  0  0999 V2000
    7.0150   -3.3620   19.4140 C   0  0  0  0  0  0  0  0  0  0  0  0
    6.3620   -4.2560   20.4130 C   0  0  0  0  0  0  0  0  0  0  0  0
    5.4240   -4.9730   20.0130 O   0  0  0  0  0  0  0  0  0  0  0  0
    6.8390   -4.2970   21.7580 N   0  0  0  0  0  0  0  0  0  0  0  0
    7.6990   -3.2340   22.2820 C   0  0  0  0  0  0  0  0  0  0  0  0
    7.4910   -3.1040   23.7980 C   0  0  0  0  0  0  0  0  0  0  0  0
    6.2010   -3.7810   24.0510 C   0  0  0  0  0  0  0  0  0  0  0  0
    5.4510   -3.4040   25.3000 C   0  0  0  0  0  0  0  0  0  0  0  0
    4.3610   -2.8940   25.0540 O   0  0  0  0  0  0  0  0  0  0  0  0
    5.8590   -3.5640   26.6540 N   0  0  0  0  0  0  0  0  0  0  0  0
    5.2230   -2.9360   27.7250 C   0  0  0  0  0  0  0  0  0  0  0  0
    4.9610   -3.7710   28.7600 C   0  0  1  0  0  0  0  0  0  0  0  0
    5.8980   -3.5390   29.6950 F   0  0  0  0  0  0  0  0  0  0  0  0
    3.7640   -3.5950   29.4810 C   0  0  0  0  0  0  0  0  0  0  0  0
    2.5770   -3.3350   28.8150 O   0  0  0  0  0  0  0  0  0  0  0  0
    3.7110   -3.6530   30.8570 O   0  0  0  0  0  0  0  0  0  0  0  0
    3.1930   -4.7730   31.5780 C   0  0  0  0  0  0  0  0  0  0  0  0
    2.1300   -5.4520   30.7950 C   0  0  0  0  0  0  0  0  0  0  0  0
    5.1900   -5.1010   28.3980 C   0  0  1  0  0  0  0  0  0  0  0  0
    6.0170   -5.8760   29.4260 C   0  0  0  0  0  0  0  0  0  0  0  0
    4.0900   -5.7520   27.7920 C   0  0  0  0  0  0  0  0  0  0  0  0
    3.2410   -4.7890   27.1800 F   0  0  0  0  0  0  0  0  0  0  0  0
    4.5200   -6.5390   26.7000 F   0  0  0  0  0  0  0  0  0  0  0  0
    3.4280   -6.5970   28.6540 F   0  0  0  0  0  0  0  0  0  0  0  0
    6.2010   -4.8120   27.3480 C   0  0  0  0  0  0  0  0  0  0  0  0
    6.2250   -5.2500   23.8100 C   0  0  0  0  0  0  0  0  0  0  0  0
    6.7000   -5.5130   22.5380 C   0  0  0  0  0  0  0  0  0  0  0  0
  1  2  1  0
  2  3  2  0
  2  4  1  0
  4  5  1  0
  5  6  1  0
  6  7  1  0
  7  8  1  0
  8  9  2  0
  8 10  1  0
 10 11  1  0
 11 12  1  0
 12 13  1  1
 12 14  1  0
 14 15  2  0
 14 16  1  0
 16 17  1  0
 17 18  1  0
 12 19  1  0
 19 20  1  1
 19 21  1  0
 21 22  1  0
 21 23  1  0
 21 24  1  0
 10 25  1  0
 19 25  1  0
  7 26  1  0
  4 27  1  0
 26 27  1  0
M  END
