piperidine-amides-28806-covalent
     RDKit          3D

 27 30  0  0  0  0  0  0  0  0999 V2000
    7.0690   -3.3460   19.3260 C   0  0  0  0  0  0  0  0  0  0  0  0
    6.4000   -4.1910   20.3090 C   0  0  0  0  0  0  0  0  0  0  0  0
    5.3600   -4.7780   19.9640 O   0  0  0  0  0  0  0  0  0  0  0  0
    6.9710   -4.3730   21.5940 N   0  0  0  0  0  0  0  0  0  0  0  0
    7.7320   -3.3050   22.1830 C   0  0  0  0  0  0  0  0  0  0  0  0
    6.9730   -2.7630   23.3470 C   0  0  0  0  0  0  0  0  0  0  0  0
    6.7030   -3.9440   24.2390 C   0  0  0  0  0  0  0  0  0  0  0  0
    5.8990   -3.5040   25.4120 C   0  0  0  0  0  0  0  0  0  0  0  0
    4.9010   -2.8280   25.1800 O   0  0  0  0  0  0  0  0  0  0  0  0
    6.3350   -3.8880   26.6650 N   0  0  0  0  0  0  0  0  0  0  0  0
    6.9350   -5.1420   26.8970 C   0  0  0  0  0  0  0  0  0  0  0  0
    7.0010   -5.2090   28.2750 C   0  0  0  0  0  0  0  0  0  0  0  0
    6.1820   -4.2060   28.7730 C   0  0  0  0  0  0  0  0  0  0  0  0
    5.6890   -3.3030   27.8290 C   0  0  2  0  0  0  0  0  0  0  0  0
    4.2020   -3.4900   27.8990 C   0  0  0  0  0  0  0  0  0  0  0  0
    3.3340   -2.3360   27.3490 C   0  0  0  0  0  0  0  0  0  0  0  0
    2.3380   -2.6900   26.2990 C   0  0  0  0  0  0  0  0  0  0  0  0
    1.4940   -1.5420   25.7760 C   0  0  0  0  0  0  0  0  0  0  0  0
    1.7110   -0.1130   26.3420 C   0  0  0  0  0  0  0  0  0  0  0  0
    0.9310    0.9510   25.8580 C   0  0  0  0  0  0  0  0  0  0  0  0
    1.0020    2.2810   26.2590 C   0  0  0  0  0  0  0  0  0  0  0  0
    2.0000    2.6330   27.3100 C   0  0  0  0  0  0  0  0  0  0  0  0
    2.8400    1.5440   27.8460 C   0  0  0  0  0  0  0  0  0  0  0  0
    2.6580    0.1440   27.3200 C   0  0  0  0  0  0  0  0  0  0  0  0
    3.4840   -1.0310   27.8200 C   0  0  0  0  0  0  0  0  0  0  0  0
    5.9940   -5.0970   23.5950 C   0  0  0  0  0  0  0  0  0  0  0  0
    6.6690   -5.5670   22.3290 C   0  0  0  0  0  0  0  0  0  0  0  0
  1  2  1  0
  2  3  2  0
  2  4  1  0
  4  5  1  0
  5  6  1  0
  6  7  1  0
  7  8  1  0
  8  9  2  0
  8 10  1  0
 10 11  1  0
 11 12  1  0
 12 13  1  0
 10 14  1  0
 13 14  1  0
 14 15  1  6
 15 16  1  0
 16 17  2  0
 17 18  1  0
 18 19  2  0
 19 20  1  0
 20 21  2  0
 21 22  1  0
 22 23  2  0
 19 24  1  0
 23 24  1  0
 16 25  1  0
 24 25  2  0
  7 26  1  0
  4 27  1  0
 26 27  1  0
M  END
