piperidine-amides-682-covalent
     RDKit          3D

 26 27  0  0  0  0  0  0  0  0999 V2000
    7.0910   -3.3000   19.1850 C   0  0  0  0  0  0  0  0  0  0  0  0
    6.3420   -3.9520   20.2370 C   0  0  0  0  0  0  0  0  0  0  0  0
    5.2810   -4.5600   19.8930 O   0  0  0  0  0  0  0  0  0  0  0  0
    6.7350   -4.0070   21.5940 N   0  0  0  0  0  0  0  0  0  0  0  0
    7.7120   -3.0330   22.1400 C   0  0  0  0  0  0  0  0  0  0  0  0
    6.8130   -2.2950   23.2090 C   0  0  0  0  0  0  0  0  0  0  0  0
    6.1880   -3.3660   24.0790 C   0  0  0  0  0  0  0  0  0  0  0  0
    5.2040   -2.7300   25.1760 C   0  0  0  0  0  0  0  0  0  0  0  0
    4.0470   -2.9700   24.8930 O   0  0  0  0  0  0  0  0  0  0  0  0
    5.8590   -2.1270   26.0910 N   0  0  0  0  0  0  0  0  0  0  0  0
    6.5390   -1.5430   27.1100 C   0  0  0  0  0  0  0  0  0  0  0  0
    7.5840   -1.8550   27.8820 C   0  0  0  0  0  0  0  0  0  0  0  0
    7.8520   -3.0390   27.3350 C   0  0  0  0  0  0  0  0  0  0  0  0
    8.2930   -3.0400   25.9410 C   0  0  0  0  0  0  0  0  0  0  0  0
    8.5170   -4.4530   25.3630 C   0  0  0  0  0  0  0  0  0  0  0  0
    8.2790   -5.5650   26.2110 C   0  0  0  0  0  0  0  0  0  0  0  0
    8.4530   -6.6320   25.6040 O   0  0  0  0  0  0  0  0  0  0  0  0
    7.7740   -6.7950   24.4050 C   0  0  0  0  0  0  0  0  0  0  0  0
    8.3030   -7.8040   23.6540 F   0  0  0  0  0  0  0  0  0  0  0  0
    6.4450   -7.0090   24.6730 F   0  0  0  0  0  0  0  0  0  0  0  0
    7.8450   -5.3900   27.6650 C   0  0  0  0  0  0  0  0  0  0  0  0
    7.5670   -6.2750   28.6700 O   0  0  0  0  0  0  0  0  0  0  0  0
    6.3930   -6.2300   29.4420 C   0  0  0  0  0  0  0  0  0  0  0  0
    7.6600   -4.0810   28.1050 C   0  0  0  0  0  0  0  0  0  0  0  0
    5.4930   -4.5170   23.3420 C   0  0  0  0  0  0  0  0  0  0  0  0
    6.3050   -5.0910   22.4140 C   0  0  0  0  0  0  0  0  0  0  0  0
  1  2  1  0
  2  3  2  0
  2  4  1  0
  4  5  1  0
  5  6  1  0
  6  7  1  0
  7  8  1  0
  8  9  2  0
  8 10  1  0
 10 11  1  0
 11 12  1  0
 12 13  1  0
 13 14  2  0
 14 15  1  0
 15 16  2  0
 16 17  1  0
 17 18  1  0
 18 19  1  0
 18 20  1  0
 16 21  1  0
 21 22  1  0
 22 23  1  0
 13 24  1  0
 21 24  2  0
  7 25  1  0
  4 26  1  0
 25 26  1  0
M  END
