piperidine-amides-25336-covalent
     RDKit          3D

 24 24  0  0  0  0  0  0  0  0999 V2000
    7.0770   -3.3100   19.2940 C   0  0  0  0  0  0  0  0  0  0  0  0
    6.3420   -4.0870   20.3260 C   0  0  0  0  0  0  0  0  0  0  0  0
    5.3310   -4.6740   19.9380 O   0  0  0  0  0  0  0  0  0  0  0  0
    6.8070   -4.1700   21.6480 N   0  0  0  0  0  0  0  0  0  0  0  0
    6.6280   -5.3780   22.4140 C   0  0  0  0  0  0  0  0  0  0  0  0
    6.0740   -5.0500   23.7760 C   0  0  0  0  0  0  0  0  0  0  0  0
    6.1510   -3.5420   24.0360 C   0  0  0  0  0  0  0  0  0  0  0  0
    5.6330   -3.2730   25.4100 C   0  0  0  0  0  0  0  0  0  0  0  0
    4.4170   -3.4130   25.5980 O   0  0  0  0  0  0  0  0  0  0  0  0
    6.4360   -2.8540   26.5050 N   0  0  0  0  0  0  0  0  0  0  0  0
    6.2740   -3.5520   27.7710 C   0  0  0  0  0  0  0  0  0  0  0  0
    6.0790   -5.0450   27.5670 C   0  0  0  0  0  0  0  0  0  0  0  0
    5.4870   -5.4820   26.4010 O   0  0  0  0  0  0  0  0  0  0  0  0
    6.5070   -5.8720   28.5730 O   0  0  0  0  0  0  0  0  0  0  0  0
    5.5790   -6.5710   29.2880 C   0  0  0  0  0  0  0  0  0  0  0  0
    5.8760   -7.5660   30.1550 C   0  0  0  0  0  0  0  0  0  0  0  0
    4.6340   -5.6300   30.0280 C   0  0  0  0  0  0  0  0  0  0  0  0
    4.7380   -7.1930   28.2230 C   0  0  0  0  0  0  0  0  0  0  0  0
    6.6780   -1.4530   26.6360 C   0  0  0  0  0  0  0  0  0  0  0  0
    6.1540   -0.4890   27.6790 C   0  0  2  0  0  0  0  0  0  0  0  0
    5.6780    0.5840   26.7560 C   0  0  0  0  0  0  0  0  0  0  0  0
    6.9870   -0.0990   28.7450 O   0  0  0  0  0  0  0  0  0  0  0  0
    7.4970   -2.9790   23.6920 C   0  0  0  0  0  0  0  0  0  0  0  0
    7.6680   -3.1190   22.1850 C   0  0  0  0  0  0  0  0  0  0  0  0
  1  2  1  0
  2  3  2  0
  2  4  1  0
  4  5  1  0
  5  6  1  0
  6  7  1  0
  7  8  1  0
  8  9  2  0
  8 10  1  0
 10 11  1  0
 11 12  1  0
 12 13  2  0
 12 14  1  0
 15 14  1  0
 15 16  1  0
 15 17  1  0
 15 18  1  0
 10 19  1  0
 19 20  1  0
 20 21  1  6
 20 22  1  0
  7 23  1  0
  4 24  1  0
 23 24  1  0
M  END
