piperidine-amides-14395-covalent
     RDKit          3D

 24 25  0  0  0  0  0  0  0  0999 V2000
    7.1050   -3.2650   19.1880 C   0  0  0  0  0  0  0  0  0  0  0  0
    6.3360   -4.0230   20.1760 C   0  0  0  0  0  0  0  0  0  0  0  0
    5.2300   -4.4800   19.8430 O   0  0  0  0  0  0  0  0  0  0  0  0
    6.8680   -4.2830   21.4540 N   0  0  0  0  0  0  0  0  0  0  0  0
    7.6170   -3.2390   22.0960 C   0  0  0  0  0  0  0  0  0  0  0  0
    6.7830   -2.6660   23.1930 C   0  0  0  0  0  0  0  0  0  0  0  0
    6.4630   -3.8360   24.0900 C   0  0  0  0  0  0  0  0  0  0  0  0
    5.7950   -3.3500   25.3310 C   0  0  0  0  0  0  0  0  0  0  0  0
    4.5760   -3.1730   25.2870 O   0  0  0  0  0  0  0  0  0  0  0  0
    6.6130   -3.1440   26.4350 N   0  0  0  0  0  0  0  0  0  0  0  0
    6.5680   -4.0110   27.5490 C   0  0  0  0  0  0  0  0  0  0  0  0
    7.6710   -4.8390   27.8100 C   0  0  1  0  0  0  0  0  0  0  0  0
    7.4240   -6.1610   28.0240 C   0  0  0  0  0  0  0  0  0  0  0  0
    8.7480   -4.6140   26.8030 N   0  0  0  0  0  0  0  0  0  0  0  0
    9.9130   -5.3320   26.9950 C   0  0  0  0  0  0  0  0  0  0  0  0
    8.6250   -3.8310   25.5610 C   0  0  0  0  0  0  0  0  0  0  0  0
    9.9470   -3.1280   25.1120 C   0  0  0  0  0  0  0  0  0  0  0  0
   11.2400   -3.7810   25.4660 C   0  0  0  0  0  0  0  0  0  0  0  0
   12.4440   -3.0040   24.9810 C   0  0  0  0  0  0  0  0  0  0  0  0
   12.1890   -1.7000   24.2140 C   0  0  0  0  0  0  0  0  0  0  0  0
   10.9410   -1.2190   23.9550 C   0  0  0  0  0  0  0  0  0  0  0  0
    9.8560   -1.9320   24.4050 C   0  0  0  0  0  0  0  0  0  0  0  0
    5.6340   -4.8630   23.4040 C   0  0  0  0  0  0  0  0  0  0  0  0
    6.3810   -5.4030   22.2160 C   0  0  0  0  0  0  0  0  0  0  0  0
  1  2  1  0
  2  3  2  0
  2  4  1  0
  4  5  1  0
  5  6  1  0
  6  7  1  0
  7  8  1  0
  8  9  2  0
  8 10  1  0
 10 11  1  0
 11 12  1  0
 12 13  1  6
 12 14  1  0
 14 15  1  0
 14 16  1  0
 16 17  1  0
 17 18  2  0
 18 19  1  0
 19 20  2  0
 20 21  1  0
 17 22  1  0
 21 22  2  0
  7 23  1  0
  4 24  1  0
 23 24  1  0
M  END
