piperidine-amides-5138-covalent
     RDKit          3D

 22 22  0  0  0  0  0  0  0  0999 V2000
    7.0630   -3.2870   19.2090 C   0  0  0  0  0  0  0  0  0  0  0  0
    6.3360   -4.0460   20.2570 C   0  0  0  0  0  0  0  0  0  0  0  0
    5.2700   -4.5820   19.8900 O   0  0  0  0  0  0  0  0  0  0  0  0
    6.8310   -4.2040   21.5650 N   0  0  0  0  0  0  0  0  0  0  0  0
    7.5980   -3.1710   22.1800 C   0  0  0  0  0  0  0  0  0  0  0  0
    7.1770   -2.9130   23.5520 C   0  0  0  0  0  0  0  0  0  0  0  0
    5.9200   -3.6140   23.9090 C   0  0  0  0  0  0  0  0  0  0  0  0
    5.4480   -3.3060   25.2940 C   0  0  0  0  0  0  0  0  0  0  0  0
    4.2820   -2.8820   25.4120 O   0  0  0  0  0  0  0  0  0  0  0  0
    6.2490   -3.4660   26.4480 N   0  0  0  0  0  0  0  0  0  0  0  0
    5.9000   -4.3720   27.5810 C   0  0  2  0  0  0  0  0  0  0  0  0
    7.1200   -4.8000   28.2750 C   0  0  0  0  0  0  0  0  0  0  0  0
    8.3080   -4.2510   27.7370 C   0  0  0  0  0  0  0  0  0  0  0  0
    8.2990   -4.0670   26.3700 C   0  0  0  0  0  0  0  0  0  0  0  0
    9.0750   -4.8530   25.5790 C   0  0  0  0  0  0  0  0  0  0  0  0
    9.7920   -5.8060   26.1940 C   0  0  0  0  0  0  0  0  0  0  0  0
    5.1410   -5.5890   27.2630 C   0  0  0  0  0  0  0  0  0  0  0  0
    5.1950   -6.0980   26.1310 O   0  0  0  0  0  0  0  0  0  0  0  0
    4.3280   -6.1870   28.2680 O   0  0  0  0  0  0  0  0  0  0  0  0
    4.2640   -7.5970   28.3140 C   0  0  0  0  0  0  0  0  0  0  0  0
    6.0000   -5.1010   23.6440 C   0  0  0  0  0  0  0  0  0  0  0  0
    6.6340   -5.4200   22.3310 C   0  0  0  0  0  0  0  0  0  0  0  0
  1  2  1  0
  2  3  2  0
  2  4  1  0
  4  5  1  0
  5  6  1  0
  6  7  1  0
  7  8  1  0
  8  9  2  0
  8 10  1  0
 10 11  1  0
 11 12  1  6
 12 13  1  0
 13 14  1  0
 14 15  1  0
 15 16  1  0
 11 17  1  0
 17 18  2  0
 17 19  1  0
 19 20  1  0
  7 21  1  0
  4 22  1  0
 21 22  1  0
M  END
