piperidine-amides-29330-covalent
     RDKit          3D

 26 27  0  0  0  0  0  0  0  0999 V2000
    7.0440   -3.3690   19.3830 C   0  0  0  0  0  0  0  0  0  0  0  0
    6.4190   -4.2660   20.3490 C   0  0  0  0  0  0  0  0  0  0  0  0
    5.3920   -4.8740   19.9900 O   0  0  0  0  0  0  0  0  0  0  0  0
    6.9990   -4.4860   21.6330 N   0  0  0  0  0  0  0  0  0  0  0  0
    6.4750   -5.5490   22.4070 C   0  0  0  0  0  0  0  0  0  0  0  0
    5.4850   -4.9440   23.3550 C   0  0  0  0  0  0  0  0  0  0  0  0
    6.2390   -4.0650   24.3360 C   0  0  0  0  0  0  0  0  0  0  0  0
    5.2390   -3.4000   25.2550 C   0  0  0  0  0  0  0  0  0  0  0  0
    4.3540   -2.7740   24.6870 O   0  0  0  0  0  0  0  0  0  0  0  0
    5.3410   -3.5090   26.6450 N   0  0  0  0  0  0  0  0  0  0  0  0
    4.3310   -3.9200   27.5550 C   0  0  1  0  0  0  0  0  0  0  0  0
    3.2700   -4.7030   27.0740 C   0  0  0  0  0  0  0  0  0  0  0  0
    2.3230   -5.0250   28.0230 C   0  0  0  0  0  0  0  0  0  0  0  0
    1.1160   -4.3400   27.9450 C   0  0  0  0  0  0  0  0  0  0  0  0
    0.8020   -3.8440   26.6890 O   0  0  0  0  0  0  0  0  0  0  0  0
    0.3440   -4.1690   28.9150 O   0  0  0  0  0  0  0  0  0  0  0  0
   -0.0010   -2.8370   29.2500 C   0  0  0  0  0  0  0  0  0  0  0  0
    5.1410   -4.3370   28.6920 C   0  0  0  0  0  0  0  0  0  0  0  0
    6.5680   -4.2640   28.3620 C   0  0  0  0  0  0  0  0  0  0  0  0
    6.5380   -3.1920   27.2970 C   0  0  2  0  0  0  0  0  0  0  0  0
    6.3970   -1.8020   27.9690 C   0  0  0  0  0  0  0  0  0  0  0  0
    6.2090   -0.6610   27.2150 O   0  0  0  0  0  0  0  0  0  0  0  0
    6.4310   -1.5470   29.3310 O   0  0  0  0  0  0  0  0  0  0  0  0
    7.5890   -0.9960   29.9190 C   0  0  0  0  0  0  0  0  0  0  0  0
    6.9690   -2.9720   23.5870 C   0  0  0  0  0  0  0  0  0  0  0  0
    7.6190   -3.3530   22.2750 C   0  0  0  0  0  0  0  0  0  0  0  0
  1  2  1  0
  2  3  2  0
  2  4  1  0
  4  5  1  0
  5  6  1  0
  6  7  1  0
  7  8  1  0
  8  9  2  0
  8 10  1  0
 10 11  1  0
 11 12  1  6
 12 13  1  0
 13 14  1  0
 14 15  2  0
 14 16  1  0
 16 17  1  0
 11 18  1  0
 18 19  1  0
 10 20  1  0
 19 20  1  0
 20 21  1  1
 21 22  2  0
 21 23  1  0
 23 24  1  0
  7 25  1  0
  4 26  1  0
 25 26  1  0
M  END
