piperidine-amides-19238-covalent
     RDKit          3D

 20 21  0  0  0  0  0  0  0  0999 V2000
    7.1000   -3.3560   19.4610 C   0  0  0  0  0  0  0  0  0  0  0  0
    6.4260   -4.2220   20.3980 C   0  0  0  0  0  0  0  0  0  0  0  0
    5.4100   -4.8770   19.9900 O   0  0  0  0  0  0  0  0  0  0  0  0
    6.8740   -4.4020   21.7290 N   0  0  0  0  0  0  0  0  0  0  0  0
    6.4780   -5.6290   22.4380 C   0  0  0  0  0  0  0  0  0  0  0  0
    5.4350   -5.0030   23.4390 C   0  0  0  0  0  0  0  0  0  0  0  0
    6.2050   -3.9550   24.2120 C   0  0  0  0  0  0  0  0  0  0  0  0
    5.3590   -3.4160   25.4750 C   0  0  0  0  0  0  0  0  0  0  0  0
    4.5610   -2.5640   25.1240 O   0  0  0  0  0  0  0  0  0  0  0  0
    5.7500   -4.0330   26.5220 N   0  0  0  0  0  0  0  0  0  0  0  0
    6.3020   -4.9980   27.2740 C   0  0  0  0  0  0  0  0  0  0  0  0
    6.1330   -6.0230   28.1200 C   0  0  0  0  0  0  0  0  0  0  0  0
    5.8310   -5.5320   29.3640 C   0  0  0  0  0  0  0  0  0  0  0  0
    4.2550   -4.8010   29.2200 S   0  0  0  0  0  0  0  0  0  0  0  0
    3.6650   -4.4980   30.5340 O   0  0  0  0  0  0  0  0  0  0  0  0
    3.3780   -5.6910   28.4000 O   0  0  0  0  0  0  0  0  0  0  0  0
    4.4390   -3.2710   28.3650 C   0  0  0  0  0  0  0  0  0  0  0  0
    5.8100   -3.1540   27.6760 C   0  0  0  0  0  0  0  0  0  0  0  0
    6.9040   -2.8640   23.4110 C   0  0  0  0  0  0  0  0  0  0  0  0
    7.7050   -3.4270   22.4020 C   0  0  0  0  0  0  0  0  0  0  0  0
  1  2  1  0
  2  3  2  0
  2  4  1  0
  4  5  1  0
  5  6  1  0
  6  7  1  0
  7  8  1  0
  8  9  2  0
  8 10  1  0
 10 11  1  0
 11 12  1  0
 12 13  1  0
 14 13  1  0
 14 15  2  0
 14 16  2  0
 14 17  1  0
 10 18  1  0
 17 18  1  0
  7 19  1  0
  4 20  1  0
 19 20  1  0
M  END
