piperidine-amides-14159-covalent
     RDKit          3D

 24 25  0  0  0  0  0  0  0  0999 V2000
    7.1190   -3.2720   19.2050 C   0  0  0  0  0  0  0  0  0  0  0  0
    6.3610   -4.0500   20.2220 C   0  0  0  0  0  0  0  0  0  0  0  0
    5.2860   -4.5800   19.8950 O   0  0  0  0  0  0  0  0  0  0  0  0
    6.9100   -4.2080   21.5090 N   0  0  0  0  0  0  0  0  0  0  0  0
    7.7100   -3.1900   22.1530 C   0  0  0  0  0  0  0  0  0  0  0  0
    6.8540   -2.6220   23.2780 C   0  0  0  0  0  0  0  0  0  0  0  0
    6.5330   -3.7620   24.1790 C   0  0  0  0  0  0  0  0  0  0  0  0
    5.7880   -3.3430   25.3860 C   0  0  0  0  0  0  0  0  0  0  0  0
    4.5740   -3.1610   25.2410 O   0  0  0  0  0  0  0  0  0  0  0  0
    6.4500   -3.1760   26.6040 N   0  0  0  0  0  0  0  0  0  0  0  0
    6.0240   -3.6570   27.8700 C   0  0  1  0  0  0  0  0  0  0  0  0
    6.6610   -4.6060   28.6380 C   0  0  0  0  0  0  0  0  0  0  0  0
    5.8850   -2.4480   28.7950 C   0  0  0  0  0  0  0  0  0  0  0  0
    6.5810   -1.1230   28.7370 N   0  0  0  0  0  0  0  0  0  0  0  0
    6.2290   -0.3490   29.6590 O   0  0  0  0  0  0  0  0  0  0  0  0
    5.3320   -1.0900   30.3240 C   0  0  0  0  0  0  0  0  0  0  0  0
    4.5910   -0.6320   31.5320 C   0  0  0  0  0  0  0  0  0  0  0  0
    5.3990   -0.4210   32.6410 O   0  0  0  0  0  0  0  0  0  0  0  0
    6.2530    0.7070   32.7520 C   0  0  0  0  0  0  0  0  0  0  0  0
    7.7120    0.2370   32.7100 C   0  0  0  0  0  0  0  0  0  0  0  0
    5.8110    1.4000   33.8890 C   0  0  0  0  0  0  0  0  0  0  0  0
    5.0580   -2.3730   29.8770 N   0  0  0  0  0  0  0  0  0  0  0  0
    5.7730   -4.8710   23.5300 C   0  0  0  0  0  0  0  0  0  0  0  0
    6.5130   -5.3490   22.2990 C   0  0  0  0  0  0  0  0  0  0  0  0
  1  2  1  0
  2  3  2  0
  2  4  1  0
  4  5  1  0
  5  6  1  0
  6  7  1  0
  7  8  1  0
  8  9  2  0
  8 10  1  0
 10 11  1  0
 11 12  1  1
 11 13  1  0
 13 14  2  0
 14 15  1  0
 15 16  1  0
 16 17  1  0
 17 18  1  0
 18 19  1  0
 19 20  1  0
 19 21  1  0
 13 22  1  0
 16 22  2  0
  7 23  1  0
  4 24  1  0
 23 24  1  0
M  END
