piperidine-amides-2583-covalent
     RDKit          3D

 26 27  0  0  0  0  0  0  0  0999 V2000
    7.0740   -3.3290   19.3090 C   0  0  0  0  0  0  0  0  0  0  0  0
    6.3890   -4.1860   20.3110 C   0  0  0  0  0  0  0  0  0  0  0  0
    5.3630   -4.7630   19.9550 O   0  0  0  0  0  0  0  0  0  0  0  0
    6.9450   -4.3410   21.5790 N   0  0  0  0  0  0  0  0  0  0  0  0
    7.7010   -3.2810   22.2000 C   0  0  0  0  0  0  0  0  0  0  0  0
    6.8680   -2.6820   23.2880 C   0  0  0  0  0  0  0  0  0  0  0  0
    6.5250   -3.7730   24.2900 C   0  0  0  0  0  0  0  0  0  0  0  0
    5.7970   -3.1550   25.4190 C   0  0  0  0  0  0  0  0  0  0  0  0
    4.5830   -2.9290   25.3250 O   0  0  0  0  0  0  0  0  0  0  0  0
    6.5030   -2.8390   26.5950 N   0  0  0  0  0  0  0  0  0  0  0  0
    6.0830   -1.7960   27.5100 C   0  0  0  0  0  0  0  0  0  0  0  0
    5.8390   -0.5420   26.6880 C   0  0  0  0  0  0  0  0  0  0  0  0
    5.7530    0.6360   27.3610 C   0  0  0  0  0  0  0  0  0  0  0  0
    5.8580    0.6200   28.7580 N   0  0  0  0  0  0  0  0  0  0  0  0
    6.8710    1.4080   29.4280 C   0  0  0  0  0  0  0  0  0  0  0  0
    6.5580    1.6990   30.7310 C   0  0  0  0  0  0  0  0  0  0  0  0
    6.2950    0.7430   31.6640 O   0  0  0  0  0  0  0  0  0  0  0  0
    6.5400    3.0220   30.9540 N   0  0  0  0  0  0  0  0  0  0  0  0
    7.8560    3.6170   30.6460 C   0  0  0  0  0  0  0  0  0  0  0  0
    9.0680    2.7880   30.9380 C   0  0  0  0  0  0  0  0  0  0  0  0
    6.0220    3.2730   32.2470 C   0  0  0  0  0  0  0  0  0  0  0  0
    4.5460    3.4950   32.2480 C   0  0  0  0  0  0  0  0  0  0  0  0
    5.8650   -0.7680   29.0720 C   0  0  0  0  0  0  0  0  0  0  0  0
    7.1130   -1.5210   28.6300 C   0  0  0  0  0  0  0  0  0  0  0  0
    5.7160   -4.8630   23.6140 C   0  0  0  0  0  0  0  0  0  0  0  0
    6.5120   -5.4060   22.4530 C   0  0  0  0  0  0  0  0  0  0  0  0
  1  2  1  0
  2  3  2  0
  2  4  1  0
  4  5  1  0
  5  6  1  0
  6  7  1  0
  7  8  1  0
  8  9  2  0
  8 10  1  0
 10 11  1  0
 11 12  1  0
 12 13  1  0
 13 14  1  0
 14 15  1  0
 15 16  1  0
 16 17  2  0
 16 18  1  0
 18 19  1  0
 19 20  1  0
 18 21  1  0
 21 22  1  0
 14 23  1  0
 11 24  1  0
 23 24  1  0
  7 25  1  0
  4 26  1  0
 25 26  1  0
M  END
