piperidine-amides-4246-covalent
     RDKit          3D

 26 28  0  0  0  0  0  0  0  0999 V2000
    7.1580   -3.9800   19.6810 C   0  0  0  0  0  0  0  0  0  0  0  0
    5.9100   -3.7850   20.2960 C   0  0  0  0  0  0  0  0  0  0  0  0
    4.9390   -3.9460   19.5380 O   0  0  0  0  0  0  0  0  0  0  0  0
    5.8810   -3.5380   21.6610 N   0  0  0  0  0  0  0  0  0  0  0  0
    5.4290   -4.6370   22.4430 C   0  0  0  0  0  0  0  0  0  0  0  0
    6.1550   -4.8630   23.6920 C   0  0  0  0  0  0  0  0  0  0  0  0
    6.6970   -3.6680   24.3830 C   0  0  0  0  0  0  0  0  0  0  0  0
    5.9000   -3.3450   25.6010 C   0  0  0  0  0  0  0  0  0  0  0  0
    4.6870   -3.0860   25.4840 O   0  0  0  0  0  0  0  0  0  0  0  0
    6.4940   -3.3170   26.8770 N   0  0  0  0  0  0  0  0  0  0  0  0
    6.4550   -4.3220   27.8740 C   0  0  0  0  0  0  0  0  0  0  0  0
    5.2650   -5.1510   28.0370 C   0  0  0  0  0  0  0  0  0  0  0  0
    5.4790   -6.2970   29.0590 C   0  0  0  0  0  0  0  0  0  0  0  0
    4.5280   -7.2420   29.4000 C   0  0  0  0  0  0  0  0  0  0  0  0
    3.3200   -6.8550   28.5560 C   0  0  0  0  0  0  0  0  0  0  0  0
    2.2310   -7.6930   28.7440 O   0  0  0  0  0  0  0  0  0  0  0  0
    1.7940   -8.1420   27.4930 C   0  0  0  0  0  0  0  0  0  0  0  0
    2.8020   -8.0050   26.3380 C   0  0  0  0  0  0  0  0  0  0  0  0
    2.4190   -8.4580   24.9610 C   0  0  0  0  0  0  0  0  0  0  0  0
    1.0370   -9.0330   24.7930 C   0  0  0  0  0  0  0  0  0  0  0  0
    0.0430   -9.1660   25.9580 C   0  0  0  0  0  0  0  0  0  0  0  0
    0.5260   -8.6800   27.2920 C   0  0  0  0  0  0  0  0  0  0  0  0
    3.1770   -5.8270   27.6710 C   0  0  0  0  0  0  0  0  0  0  0  0
    4.0450   -5.0980   27.4660 N   0  0  0  0  0  0  0  0  0  0  0  0
    6.8190   -2.4500   23.5340 C   0  0  0  0  0  0  0  0  0  0  0  0
    7.0580   -2.8600   22.1230 C   0  0  0  0  0  0  0  0  0  0  0  0
  1  2  1  0
  2  3  2  0
  2  4  1  0
  4  5  1  0
  5  6  1  0
  6  7  1  0
  7  8  1  0
  8  9  2  0
  8 10  1  0
 10 11  1  0
 11 12  1  0
 12 13  2  0
 13 14  1  0
 14 15  2  0
 15 16  1  0
 16 17  1  0
 17 18  2  0
 18 19  1  0
 19 20  2  0
 20 21  1  0
 17 22  1  0
 21 22  2  0
 15 23  1  0
 12 24  1  0
 23 24  2  0
  7 25  1  0
  4 26  1  0
 25 26  1  0
M  END
