piperidine-amides-10902-covalent
     RDKit          3D

 21 22  0  0  0  0  0  0  0  0999 V2000
    7.0860   -3.3310   19.3190 C   0  0  0  0  0  0  0  0  0  0  0  0
    6.3920   -4.1640   20.3000 C   0  0  0  0  0  0  0  0  0  0  0  0
    5.3540   -4.7550   19.9590 O   0  0  0  0  0  0  0  0  0  0  0  0
    6.8950   -4.3660   21.5970 N   0  0  0  0  0  0  0  0  0  0  0  0
    6.6010   -5.5510   22.3570 C   0  0  0  0  0  0  0  0  0  0  0  0
    5.9000   -5.0560   23.5930 C   0  0  0  0  0  0  0  0  0  0  0  0
    6.6360   -3.9240   24.2570 C   0  0  0  0  0  0  0  0  0  0  0  0
    5.8820   -3.3580   25.3950 C   0  0  0  0  0  0  0  0  0  0  0  0
    4.6430   -3.1100   25.2910 O   0  0  0  0  0  0  0  0  0  0  0  0
    6.4920   -3.0900   26.6300 N   0  0  0  0  0  0  0  0  0  0  0  0
    6.4930   -1.7340   27.2340 C   0  0  0  0  0  0  0  0  0  0  0  0
    7.0510   -1.6020   28.5720 C   0  0  0  0  0  0  0  0  0  0  0  0
    7.0880   -0.3100   29.2520 C   0  0  0  0  0  0  0  0  0  0  0  0
    7.6140   -0.4860   30.3640 O   0  0  0  0  0  0  0  0  0  0  0  0
    7.0710    0.2810   31.3900 C   0  0  0  0  0  0  0  0  0  0  0  0
    6.5660    0.9110   28.6220 N   0  0  0  0  0  0  0  0  0  0  0  0
    6.0040    0.7830   27.2650 C   0  0  0  0  0  0  0  0  0  0  0  0
    5.9650   -0.5310   26.5650 C   0  0  0  0  0  0  0  0  0  0  0  0
    5.2350   -0.6560   24.8090 Br  0  0  0  0  0  0  0  0  0  0  0  0
    6.9290   -2.8290   23.2520 C   0  0  0  0  0  0  0  0  0  0  0  0
    7.7070   -3.3370   22.2150 C   0  0  0  0  0  0  0  0  0  0  0  0
  1  2  1  0
  2  3  2  0
  2  4  1  0
  4  5  1  0
  5  6  1  0
  6  7  1  0
  7  8  1  0
  8  9  2  0
  8 10  1  0
 10 11  1  0
 11 12  2  0
 12 13  1  0
 13 14  1  0
 14 15  1  0
 13 16  2  0
 16 17  1  0
 11 18  1  0
 17 18  2  0
 18 19  1  0
  7 20  1  0
  4 21  1  0
 20 21  1  0
M  END
