piperidine-amides-10393-covalent
     RDKit          3D

 24 26  0  0  0  0  0  0  0  0999 V2000
    7.0410   -3.1370   18.9440 C   0  0  0  0  0  0  0  0  0  0  0  0
    6.0950   -3.6740   19.9310 C   0  0  0  0  0  0  0  0  0  0  0  0
    4.9970   -4.1140   19.5540 O   0  0  0  0  0  0  0  0  0  0  0  0
    6.4160   -3.7130   21.2450 N   0  0  0  0  0  0  0  0  0  0  0  0
    7.0280   -2.5150   21.8030 C   0  0  0  0  0  0  0  0  0  0  0  0
    6.1740   -2.0010   22.9290 C   0  0  0  0  0  0  0  0  0  0  0  0
    5.9280   -3.1930   23.7470 C   0  0  0  0  0  0  0  0  0  0  0  0
    5.4800   -3.0040   25.1160 C   0  0  0  0  0  0  0  0  0  0  0  0
    4.7270   -2.0870   25.5030 O   0  0  0  0  0  0  0  0  0  0  0  0
    5.9740   -3.9850   25.9220 N   0  0  0  0  0  0  0  0  0  0  0  0
    6.3760   -5.0700   25.0590 C   0  0  0  0  0  0  0  0  0  0  0  0
    7.4990   -4.7400   23.9810 C   0  0  0  0  0  0  0  0  0  0  0  0
    8.3940   -3.6300   23.7770 C   0  0  0  0  0  0  0  0  0  0  0  0
    8.2030   -2.3600   23.2490 C   0  0  0  0  0  0  0  0  0  0  0  0
    9.3800   -1.6810   23.2540 N   0  0  0  0  0  0  0  0  0  0  0  0
    9.5680   -0.4310   22.8080 C   0  0  0  0  0  0  0  0  0  0  0  0
   10.8590    0.1220   22.8810 C   0  0  0  0  0  0  0  0  0  0  0  0
   11.9310   -0.5900   23.4100 C   0  0  0  0  0  0  0  0  0  0  0  0
   11.6760   -1.9860   23.9030 C   0  0  0  0  0  0  0  0  0  0  0  0
   12.9780   -2.5660   24.4610 C   0  0  0  0  0  0  0  0  0  0  0  0
   10.4130   -2.4970   23.8060 C   0  0  0  0  0  0  0  0  0  0  0  0
    9.7100   -3.6070   24.0670 N   0  0  0  0  0  0  0  0  0  0  0  0
    5.0650   -4.1540   23.0100 C   0  0  0  0  0  0  0  0  0  0  0  0
    5.8590   -4.7930   22.0830 C   0  0  0  0  0  0  0  0  0  0  0  0
  1  2  1  0
  2  3  2  0
  2  4  1  0
  4  5  1  0
  5  6  1  0
  6  7  1  0
  7  8  1  0
  8  9  2  0
  8 10  1  0
 10 11  1  0
 11 12  1  0
 12 13  1  0
 13 14  2  0
 14 15  1  0
 15 16  1  0
 16 17  2  0
 17 18  1  0
 18 19  2  0
 19 20  1  0
 15 21  1  0
 19 21  1  0
 13 22  1  0
 21 22  2  0
  7 23  1  0
  4 24  1  0
 23 24  1  0
M  END
