piperidine-amides-25100-covalent
     RDKit          3D

 25 27  0  0  0  0  0  0  0  0999 V2000
    7.0700   -3.2940   19.2310 C   0  0  0  0  0  0  0  0  0  0  0  0
    6.3210   -4.0930   20.2370 C   0  0  0  0  0  0  0  0  0  0  0  0
    5.2550   -4.5830   19.8850 O   0  0  0  0  0  0  0  0  0  0  0  0
    6.8530   -4.3170   21.5010 N   0  0  0  0  0  0  0  0  0  0  0  0
    6.5820   -5.5340   22.2080 C   0  0  0  0  0  0  0  0  0  0  0  0
    5.8960   -5.1830   23.4880 C   0  0  0  0  0  0  0  0  0  0  0  0
    6.7990   -4.2490   24.2900 C   0  0  0  0  0  0  0  0  0  0  0  0
    6.1070   -3.9450   25.5380 C   0  0  0  0  0  0  0  0  0  0  0  0
    4.8670   -4.0270   25.5980 O   0  0  0  0  0  0  0  0  0  0  0  0
    6.8400   -3.5220   26.6510 N   0  0  0  0  0  0  0  0  0  0  0  0
    7.7880   -4.4290   27.2510 C   0  0  0  0  0  0  0  0  0  0  0  0
    7.0220   -5.6400   27.7200 C   0  0  0  0  0  0  0  0  0  0  0  0
    6.5710   -2.2210   26.9190 C   0  0  0  0  0  0  0  0  0  0  0  0
    5.9060   -1.4140   26.0110 N   0  0  0  0  0  0  0  0  0  0  0  0
    5.7250   -0.1680   26.4670 N   0  0  0  0  0  0  0  0  0  0  0  0
    6.1700    0.2550   27.7260 C   0  0  0  0  0  0  0  0  0  0  0  0
    6.2290    1.3290   28.5910 C   0  0  0  0  0  0  0  0  0  0  0  0
    6.8740   -0.2720   28.9010 C   0  0  0  0  0  0  0  0  0  0  0  0
    6.5410    1.1550   29.1450 C   0  0  0  0  0  0  0  0  0  0  0  0
    5.8270    1.7570   27.9880 C   0  0  0  0  0  0  0  0  0  0  0  0
    5.6510    0.7620   26.9210 C   0  0  0  0  0  0  0  0  0  0  0  0
    6.1640   -0.6480   27.0900 C   0  0  0  0  0  0  0  0  0  0  0  0
    6.9100   -1.5260   28.1280 C   0  0  0  0  0  0  0  0  0  0  0  0
    7.0270   -2.9600   23.5280 C   0  0  0  0  0  0  0  0  0  0  0  0
    7.6170   -3.2950   22.1910 C   0  0  0  0  0  0  0  0  0  0  0  0
  1  2  1  0
  2  3  2  0
  2  4  1  0
  4  5  1  0
  5  6  1  0
  6  7  1  0
  7  8  1  0
  8  9  2  0
  8 10  1  0
 10 11  1  0
 11 12  1  0
 10 13  1  0
 13 14  2  0
 14 15  1  0
 15 16  2  0
 16 17  1  0
 16 18  1  0
 18 19  1  0
 19 20  2  0
 20 21  1  0
 21 22  2  0
 13 23  1  0
 18 23  2  0
 22 23  1  0
  7 24  1  0
  4 25  1  0
 24 25  1  0
M  END
