piperidine-amides-12973-covalent
     RDKit          3D

 21 22  0  0  0  0  0  0  0  0999 V2000
    7.0770   -3.2860   19.2110 C   0  0  0  0  0  0  0  0  0  0  0  0
    6.3580   -4.0500   20.2580 C   0  0  0  0  0  0  0  0  0  0  0  0
    5.2860   -4.5770   19.9010 O   0  0  0  0  0  0  0  0  0  0  0  0
    6.8850   -4.2170   21.5520 N   0  0  0  0  0  0  0  0  0  0  0  0
    6.5190   -5.3460   22.3260 C   0  0  0  0  0  0  0  0  0  0  0  0
    5.8510   -4.9680   23.5690 C   0  0  0  0  0  0  0  0  0  0  0  0
    5.7050   -3.4980   23.7560 C   0  0  0  0  0  0  0  0  0  0  0  0
    5.0490   -3.2400   25.0800 C   0  0  0  0  0  0  0  0  0  0  0  0
    4.2150   -4.0740   25.4550 O   0  0  0  0  0  0  0  0  0  0  0  0
    5.2860   -2.1210   25.9200 N   0  0  0  0  0  0  0  0  0  0  0  0
    4.7890   -2.1060   27.3320 C   0  0  0  0  0  0  0  0  0  0  0  0
    5.3780   -3.2200   28.0840 C   0  0  0  0  0  0  0  0  0  0  0  0
    6.5300   -3.5970   27.3950 C   0  0  0  0  0  0  0  0  0  0  0  0
    7.1160   -3.0200   26.3270 C   0  0  0  0  0  0  0  0  0  0  0  0
    8.5520   -3.8520   25.7420 S   0  0  0  0  0  0  0  0  0  0  0  0
    8.3870   -5.0630   27.0500 C   0  0  0  0  0  0  0  0  0  0  0  0
    9.2380   -6.0120   27.1510 C   0  0  0  0  0  0  0  0  0  0  0  0
    9.8530   -5.9340   25.9890 C   0  0  0  0  0  0  0  0  0  0  0  0
    7.2270   -4.7510   27.8280 N   0  0  0  0  0  0  0  0  0  0  0  0
    6.9070   -2.6940   23.4020 C   0  0  0  0  0  0  0  0  0  0  0  0
    7.5530   -3.1170   22.2250 C   0  0  0  0  0  0  0  0  0  0  0  0
  1  2  1  0
  2  3  2  0
  2  4  1  0
  4  5  1  0
  5  6  1  0
  6  7  1  0
  7  8  1  0
  8  9  2  0
  8 10  1  0
 10 11  1  0
 11 12  1  0
 12 13  1  0
 13 14  2  0
 14 15  1  0
 15 16  1  0
 16 17  1  0
 17 18  1  0
 13 19  1  0
 16 19  2  0
  7 20  1  0
  4 21  1  0
 20 21  1  0
M  END
