piperidine-amides-7279-covalent
     RDKit          3D

 21 22  0  0  0  0  0  0  0  0999 V2000
    7.0980   -3.2730   19.2230 C   0  0  0  0  0  0  0  0  0  0  0  0
    6.3570   -4.0250   20.2370 C   0  0  0  0  0  0  0  0  0  0  0  0
    5.2670   -4.5420   19.8780 O   0  0  0  0  0  0  0  0  0  0  0  0
    6.8860   -4.1890   21.5140 N   0  0  0  0  0  0  0  0  0  0  0  0
    7.6540   -3.1520   22.1690 C   0  0  0  0  0  0  0  0  0  0  0  0
    6.8990   -2.7140   23.3910 C   0  0  0  0  0  0  0  0  0  0  0  0
    6.5200   -3.8880   24.2490 C   0  0  0  0  0  0  0  0  0  0  0  0
    5.7320   -3.4190   25.4170 C   0  0  0  0  0  0  0  0  0  0  0  0
    4.4860   -3.5220   25.3590 O   0  0  0  0  0  0  0  0  0  0  0  0
    6.2990   -2.8490   26.5710 N   0  0  0  0  0  0  0  0  0  0  0  0
    6.6060   -1.4450   26.5470 C   0  0  0  0  0  0  0  0  0  0  0  0
    6.7190   -0.7650   27.9060 C   0  0  0  0  0  0  0  0  0  0  0  0
    7.2570   -1.2790   29.0680 C   0  0  0  0  0  0  0  0  0  0  0  0
    7.3380   -0.6050   30.2620 C   0  0  0  0  0  0  0  0  0  0  0  0
    6.8620    0.6770   30.3650 C   0  0  0  0  0  0  0  0  0  0  0  0
    6.9750    1.5130   31.8530 S   0  0  0  0  0  0  0  0  0  0  0  0
    6.7240    0.2080   32.9190 C   0  0  0  0  0  0  0  0  0  0  0  0
    6.3050    1.2760   29.2750 C   0  0  0  0  0  0  0  0  0  0  0  0
    6.1370    0.6830   27.8920 C   0  0  0  0  0  0  0  0  0  0  0  0
    5.7130   -4.8940   23.5000 C   0  0  0  0  0  0  0  0  0  0  0  0
    6.4130   -5.3550   22.2450 C   0  0  0  0  0  0  0  0  0  0  0  0
  1  2  1  0
  2  3  2  0
  2  4  1  0
  4  5  1  0
  5  6  1  0
  6  7  1  0
  7  8  1  0
  8  9  2  0
  8 10  1  0
 10 11  1  0
 11 12  1  0
 12 13  2  0
 13 14  1  0
 14 15  2  0
 15 16  1  0
 16 17  1  0
 15 18  1  0
 12 19  1  0
 18 19  2  0
  7 20  1  0
  4 21  1  0
 20 21  1  0
M  END
