piperidine-amides-10400-covalent
     RDKit          3D

 24 26  0  0  0  0  0  0  0  0999 V2000
    7.0980   -3.3360   19.3060 C   0  0  0  0  0  0  0  0  0  0  0  0
    6.3850   -4.1280   20.3060 C   0  0  0  0  0  0  0  0  0  0  0  0
    5.3150   -4.6740   19.9360 O   0  0  0  0  0  0  0  0  0  0  0  0
    6.9380   -4.2890   21.5800 N   0  0  0  0  0  0  0  0  0  0  0  0
    7.7460   -3.2610   22.1960 C   0  0  0  0  0  0  0  0  0  0  0  0
    7.0190   -2.7650   23.4060 C   0  0  0  0  0  0  0  0  0  0  0  0
    6.5110   -3.9010   24.2480 C   0  0  0  0  0  0  0  0  0  0  0  0
    5.7860   -3.3490   25.4100 C   0  0  0  0  0  0  0  0  0  0  0  0
    4.5700   -3.0950   25.2680 O   0  0  0  0  0  0  0  0  0  0  0  0
    6.3820   -3.1040   26.6560 N   0  0  0  0  0  0  0  0  0  0  0  0
    6.3660   -1.7770   27.2270 C   0  0  0  0  0  0  0  0  0  0  0  0
    6.9870   -1.5320   28.5990 C   0  0  0  0  0  0  0  0  0  0  0  0
    7.0200   -0.3170   29.2590 C   0  0  0  0  0  0  0  0  0  0  0  0
    6.4760    0.8430   28.7240 C   0  0  0  0  0  0  0  0  0  0  0  0
    6.4140    2.1290   29.2590 C   0  0  0  0  0  0  0  0  0  0  0  0
    5.3430    2.8620   29.6690 N   0  0  0  0  0  0  0  0  0  0  0  0
    5.7970    4.0490   30.1120 C   0  0  0  0  0  0  0  0  0  0  0  0
    7.1490    4.1470   30.0150 C   0  0  0  0  0  0  0  0  0  0  0  0
    7.5410    2.9860   29.4970 N   0  0  0  0  0  0  0  0  0  0  0  0
    5.8320    0.8090   27.3840 C   0  0  0  0  0  0  0  0  0  0  0  0
    5.8110   -0.5370   26.6890 C   0  0  0  0  0  0  0  0  0  0  0  0
    5.0380   -0.5230   25.1190 Cl  0  0  0  0  0  0  0  0  0  0  0  0
    5.6350   -4.8720   23.4410 C   0  0  0  0  0  0  0  0  0  0  0  0
    6.5720   -5.4390   22.3920 C   0  0  0  0  0  0  0  0  0  0  0  0
  1  2  1  0
  2  3  2  0
  2  4  1  0
  4  5  1  0
  5  6  1  0
  6  7  1  0
  7  8  1  0
  8  9  2  0
  8 10  1  0
 10 11  1  0
 11 12  2  0
 12 13  1  0
 13 14  2  0
 14 15  1  0
 15 16  2  0
 16 17  1  0
 17 18  2  0
 15 19  1  0
 18 19  1  0
 14 20  1  0
 11 21  1  0
 20 21  2  0
 21 22  1  0
  7 23  1  0
  4 24  1  0
 23 24  1  0
M  END
