piperidine-amides-30472-covalent
     RDKit          3D

 27 29  0  0  0  0  0  0  0  0999 V2000
    7.1170   -3.3830   19.3290 C   0  0  0  0  0  0  0  0  0  0  0  0
    6.4250   -4.2030   20.3100 C   0  0  0  0  0  0  0  0  0  0  0  0
    5.3790   -4.7850   19.9760 O   0  0  0  0  0  0  0  0  0  0  0  0
    6.9750   -4.3920   21.5880 N   0  0  0  0  0  0  0  0  0  0  0  0
    7.7430   -3.3700   22.2460 C   0  0  0  0  0  0  0  0  0  0  0  0
    6.8400   -2.8590   23.3320 C   0  0  0  0  0  0  0  0  0  0  0  0
    6.3300   -3.9360   24.2570 C   0  0  0  0  0  0  0  0  0  0  0  0
    5.4200   -3.3540   25.2790 C   0  0  0  0  0  0  0  0  0  0  0  0
    4.6000   -2.4560   24.9460 O   0  0  0  0  0  0  0  0  0  0  0  0
    5.3870   -3.7320   26.6340 N   0  0  0  0  0  0  0  0  0  0  0  0
    6.4010   -3.2790   27.5410 C   0  0  0  0  0  0  0  0  0  0  0  0
    6.6220   -4.4490   28.4330 C   0  0  0  0  0  0  0  0  0  0  0  0
    5.4170   -4.9170   29.1060 C   0  0  0  0  0  0  0  0  0  0  0  0
    5.8020   -6.2270   29.7820 C   0  0  0  0  0  0  0  0  0  0  0  0
    4.9610   -6.4400   31.0320 C   0  0  0  0  0  0  0  0  0  0  0  0
    5.8820   -6.7430   32.0670 O   0  0  0  0  0  0  0  0  0  0  0  0
    5.5000   -7.9300   32.6510 C   0  0  0  0  0  0  0  0  0  0  0  0
    4.8030   -3.9070   29.8530 C   0  0  0  0  0  0  0  0  0  0  0  0
    5.2970   -2.5420   29.9250 N   0  0  0  0  0  0  0  0  0  0  0  0
    4.3230   -1.9760   30.7800 C   0  0  0  0  0  0  0  0  0  0  0  0
    4.5930   -0.5100   31.0430 C   0  0  0  0  0  0  0  0  0  0  0  0
    3.4040   -2.8640   31.1510 N   0  0  0  0  0  0  0  0  0  0  0  0
    3.7520   -4.0090   30.5560 O   0  0  0  0  0  0  0  0  0  0  0  0
    4.4020   -5.1600   28.2260 C   0  0  0  0  0  0  0  0  0  0  0  0
    4.1290   -4.0780   27.2170 C   0  0  0  0  0  0  0  0  0  0  0  0
    5.6910   -5.0670   23.4980 C   0  0  0  0  0  0  0  0  0  0  0  0
    6.4790   -5.4960   22.3210 C   0  0  0  0  0  0  0  0  0  0  0  0
  1  2  1  0
  2  3  2  0
  2  4  1  0
  4  5  1  0
  5  6  1  0
  6  7  1  0
  7  8  1  0
  8  9  2  0
  8 10  1  0
 10 11  1  0
 11 12  1  0
 12 13  1  0
 13 14  1  0
 14 15  1  0
 15 16  1  0
 16 17  1  0
 13 18  1  0
 18 19  2  0
 19 20  1  0
 20 21  1  0
 20 22  2  0
 18 23  1  0
 22 23  1  0
 13 24  1  0
 10 25  1  0
 24 25  1  0
  7 26  1  0
  4 27  1  0
 26 27  1  0
M  END
