piperidine-amides-6938-covalent
     RDKit          3D

 23 24  0  0  0  0  0  0  0  0999 V2000
    7.0650   -3.2900   19.2970 C   0  0  0  0  0  0  0  0  0  0  0  0
    6.3590   -4.0970   20.3090 C   0  0  0  0  0  0  0  0  0  0  0  0
    5.3760   -4.7920   19.9680 O   0  0  0  0  0  0  0  0  0  0  0  0
    6.7880   -4.1340   21.6470 N   0  0  0  0  0  0  0  0  0  0  0  0
    7.6920   -3.1020   22.1270 C   0  0  0  0  0  0  0  0  0  0  0  0
    7.5230   -3.0600   23.6410 C   0  0  0  0  0  0  0  0  0  0  0  0
    6.1230   -3.5650   23.8590 C   0  0  0  0  0  0  0  0  0  0  0  0
    5.6140   -3.2380   25.2080 C   0  0  0  0  0  0  0  0  0  0  0  0
    4.3860   -3.3370   25.4000 O   0  0  0  0  0  0  0  0  0  0  0  0
    6.4970   -2.8200   26.2300 N   0  0  0  0  0  0  0  0  0  0  0  0
    6.3610   -3.3290   27.5700 C   0  0  0  0  0  0  0  0  0  0  0  0
    4.9080   -3.2620   27.9890 C   0  0  0  0  0  0  0  0  0  0  0  0
    3.9710   -2.2850   27.6590 C   0  0  0  0  0  0  0  0  0  0  0  0
    2.6610   -2.3150   28.0920 C   0  0  0  0  0  0  0  0  0  0  0  0
    2.2280   -3.3510   28.8910 C   0  0  0  0  0  0  0  0  0  0  0  0
    3.0110   -4.3700   29.2990 C   0  0  0  0  0  0  0  0  0  0  0  0
    4.4530   -4.4210   28.8780 C   0  0  0  0  0  0  0  0  0  0  0  0
    5.2780   -5.4090   29.2550 N   0  0  0  0  0  0  0  0  0  0  0  0
    4.8920   -6.5180   30.0530 C   0  0  0  0  0  0  0  0  0  0  0  0
    5.8590   -7.6360   29.8410 C   0  0  0  0  0  0  0  0  0  0  0  0
    3.9080   -6.5990   30.8410 O   0  0  0  0  0  0  0  0  0  0  0  0
    6.0450   -5.0540   23.6160 C   0  0  0  0  0  0  0  0  0  0  0  0
    6.6840   -5.3680   22.3990 C   0  0  0  0  0  0  0  0  0  0  0  0
  1  2  1  0
  2  3  2  0
  2  4  1  0
  4  5  1  0
  5  6  1  0
  6  7  1  0
  7  8  1  0
  8  9  2  0
  8 10  1  0
 10 11  1  0
 11 12  1  0
 12 13  2  0
 13 14  1  0
 14 15  2  0
 15 16  1  0
 12 17  1  0
 16 17  2  0
 17 18  1  0
 18 19  1  0
 19 20  1  0
 19 21  2  0
  7 22  1  0
  4 23  1  0
 22 23  1  0
M  END
