piperidine-amides-28628-covalent
     RDKit          3D

 25 26  0  0  0  0  0  0  0  0999 V2000
    7.0500   -3.3330   19.4010 C   0  0  0  0  0  0  0  0  0  0  0  0
    6.3420   -4.1440   20.3900 C   0  0  0  0  0  0  0  0  0  0  0  0
    5.3800   -4.8220   19.9820 O   0  0  0  0  0  0  0  0  0  0  0  0
    6.7660   -4.1890   21.7540 N   0  0  0  0  0  0  0  0  0  0  0  0
    6.5920   -5.4130   22.4910 C   0  0  0  0  0  0  0  0  0  0  0  0
    6.0330   -5.0900   23.8480 C   0  0  0  0  0  0  0  0  0  0  0  0
    5.7280   -3.6140   23.8060 C   0  0  0  0  0  0  0  0  0  0  0  0
    4.8700   -3.1530   24.9800 C   0  0  0  0  0  0  0  0  0  0  0  0
    3.6750   -3.1890   24.7310 O   0  0  0  0  0  0  0  0  0  0  0  0
    5.3350   -2.7290   26.2340 N   0  0  0  0  0  0  0  0  0  0  0  0
    6.6000   -2.9910   26.6910 C   0  0  0  0  0  0  0  0  0  0  0  0
    6.4820   -3.7520   27.8550 C   0  0  0  0  0  0  0  0  0  0  0  0
    5.2220   -3.6220   28.3250 C   0  0  1  0  0  0  0  0  0  0  0  0
    5.0920   -3.0670   29.5830 C   0  0  0  0  0  0  0  0  0  0  0  0
    4.2270   -1.9970   29.8860 N   0  0  0  0  0  0  0  0  0  0  0  0
    2.8920   -2.3400   30.3660 C   0  0  0  0  0  0  0  0  0  0  0  0
    2.9890   -3.1990   31.6490 C   0  0  0  0  0  0  0  0  0  0  0  0
    4.8600   -0.8350   30.4520 C   0  0  0  0  0  0  0  0  0  0  0  0
    3.9200    0.3320   30.3080 C   0  0  0  0  0  0  0  0  0  0  0  0
    4.4790    1.5720   30.0660 F   0  0  0  0  0  0  0  0  0  0  0  0
    3.1560    0.0640   29.1950 F   0  0  0  0  0  0  0  0  0  0  0  0
    3.0530    0.3940   31.3660 F   0  0  0  0  0  0  0  0  0  0  0  0
    4.4250   -2.9790   27.3760 C   0  0  0  0  0  0  0  0  0  0  0  0
    7.0300   -2.8590   23.6530 C   0  0  0  0  0  0  0  0  0  0  0  0
    7.5170   -3.1010   22.3680 C   0  0  0  0  0  0  0  0  0  0  0  0
  1  2  1  0
  2  3  2  0
  2  4  1  0
  4  5  1  0
  5  6  1  0
  6  7  1  0
  7  8  1  0
  8  9  2  0
  8 10  1  0
 10 11  1  0
 11 12  1  0
 12 13  1  0
 13 14  1  1
 14 15  1  0
 15 16  1  0
 16 17  1  0
 15 18  1  0
 18 19  1  0
 19 20  1  0
 19 21  1  0
 19 22  1  0
 10 23  1  0
 13 23  1  0
  7 24  1  0
  4 25  1  0
 24 25  1  0
M  END
