piperidine-amides-30068-covalent
     RDKit          3D

 27 30  0  0  0  0  0  0  0  0999 V2000
    7.0930   -3.3600   19.2540 C   0  0  0  0  0  0  0  0  0  0  0  0
    6.3970   -4.1620   20.2530 C   0  0  0  0  0  0  0  0  0  0  0  0
    5.3570   -4.7480   19.9590 O   0  0  0  0  0  0  0  0  0  0  0  0
    6.9720   -4.3200   21.5560 N   0  0  0  0  0  0  0  0  0  0  0  0
    7.8000   -3.2810   22.1050 C   0  0  0  0  0  0  0  0  0  0  0  0
    7.0850   -2.6290   23.2270 C   0  0  0  0  0  0  0  0  0  0  0  0
    6.7910   -3.7090   24.2340 C   0  0  0  0  0  0  0  0  0  0  0  0
    5.9530   -3.0930   25.2870 C   0  0  0  0  0  0  0  0  0  0  0  0
    5.2340   -2.1040   25.0760 O   0  0  0  0  0  0  0  0  0  0  0  0
    5.9100   -3.6640   26.5600 N   0  0  0  0  0  0  0  0  0  0  0  0
    6.3400   -2.8820   27.6810 C   0  0  0  0  0  0  0  0  0  0  0  0
    6.3700   -3.8400   28.8550 C   0  0  0  0  0  0  0  0  0  0  0  0
    5.2360   -4.6080   28.9560 C   0  0  0  0  0  0  0  0  0  0  0  0
    5.1010   -5.2580   27.7710 C   0  0  0  0  0  0  0  0  0  0  0  0
    4.7190   -4.3690   26.8240 C   0  0  0  0  0  0  0  0  0  0  0  0
    4.2550   -3.8690   29.3890 O   0  0  0  0  0  0  0  0  0  0  0  0
    3.5940   -4.3470   30.5070 C   0  0  0  0  0  0  0  0  0  0  0  0
    2.4990   -3.8680   31.1960 O   0  0  0  0  0  0  0  0  0  0  0  0
    4.2240   -5.4580   30.8740 C   0  0  0  0  0  0  0  0  0  0  0  0
    4.0910   -6.3720   31.8860 C   0  0  0  0  0  0  0  0  0  0  0  0
    4.9480   -7.4460   31.9660 C   0  0  0  0  0  0  0  0  0  0  0  0
    5.9950   -7.5970   30.9620 C   0  0  0  0  0  0  0  0  0  0  0  0
    6.1140   -6.6570   29.9480 C   0  0  0  0  0  0  0  0  0  0  0  0
    7.0530   -6.7720   29.0320 F   0  0  0  0  0  0  0  0  0  0  0  0
    5.2150   -5.6130   29.9450 C   0  0  0  0  0  0  0  0  0  0  0  0
    6.0090   -4.8690   23.6430 C   0  0  0  0  0  0  0  0  0  0  0  0
    6.6660   -5.4540   22.3830 C   0  0  0  0  0  0  0  0  0  0  0  0
  1  2  1  0
  2  3  2  0
  2  4  1  0
  4  5  1  0
  5  6  1  0
  6  7  1  0
  7  8  1  0
  8  9  2  0
  8 10  1  0
 10 11  1  0
 11 12  1  0
 12 13  1  0
 13 14  1  0
 10 15  1  0
 14 15  1  0
 13 16  1  0
 16 17  1  0
 17 18  2  0
 17 19  1  0
 19 20  1  0
 20 21  2  0
 21 22  1  0
 22 23  2  0
 23 24  1  0
 13 25  1  0
 19 25  2  0
 23 25  1  0
  7 26  1  0
  4 27  1  0
 26 27  1  0
M  END
