piperidine-amides-15337-covalent
     RDKit          3D

 17 18  0  0  0  0  0  0  0  0999 V2000
    7.1050   -3.2810   19.2780 C   0  0  0  0  0  0  0  0  0  0  0  0
    6.2890   -4.0240   20.2500 C   0  0  0  0  0  0  0  0  0  0  0  0
    5.2280   -4.5650   19.8850 O   0  0  0  0  0  0  0  0  0  0  0  0
    6.7070   -4.1860   21.5750 N   0  0  0  0  0  0  0  0  0  0  0  0
    6.5310   -5.4970   22.1800 C   0  0  0  0  0  0  0  0  0  0  0  0
    6.3540   -5.3810   23.7100 C   0  0  0  0  0  0  0  0  0  0  0  0
    6.0780   -3.9400   24.0730 C   0  0  0  0  0  0  0  0  0  0  0  0
    5.7450   -3.8370   25.5090 C   0  0  0  0  0  0  0  0  0  0  0  0
    5.5630   -2.6950   25.9790 O   0  0  0  0  0  0  0  0  0  0  0  0
    5.5980   -5.0240   26.2950 N   0  0  0  0  0  0  0  0  0  0  0  0
    4.3390   -5.6510   26.2360 C   0  0  0  0  0  0  0  0  0  0  0  0
    4.4630   -5.4460   27.6850 C   0  0  0  0  0  0  0  0  0  0  0  0
    5.7580   -4.9460   27.7940 C   0  0  0  0  0  0  0  0  0  0  0  0
    6.6270   -5.8520   28.3440 C   0  0  0  0  0  0  0  0  0  0  0  0
    5.8780   -3.6350   28.1440 C   0  0  0  0  0  0  0  0  0  0  0  0
    7.1860   -3.0400   23.6800 C   0  0  0  0  0  0  0  0  0  0  0  0
    7.5440   -3.2080   22.2350 C   0  0  0  0  0  0  0  0  0  0  0  0
  1  2  1  0
  2  3  2  0
  2  4  1  0
  4  5  1  0
  5  6  1  0
  6  7  1  0
  7  8  1  0
  8  9  2  0
  8 10  1  0
 10 11  1  0
 11 12  1  0
 10 13  1  0
 12 13  1  0
 13 14  1  0
 13 15  1  0
  7 16  1  0
  4 17  1  0
 16 17  1  0
M  END
