piperidine-amides-19758-covalent
     RDKit          3D

 21 23  0  0  0  0  0  0  0  0999 V2000
    7.0460   -3.3210   19.3690 C   0  0  0  0  0  0  0  0  0  0  0  0
    6.3750   -4.1830   20.3790 C   0  0  0  0  0  0  0  0  0  0  0  0
    5.3980   -4.8250   19.9830 O   0  0  0  0  0  0  0  0  0  0  0  0
    6.8670   -4.2850   21.6920 N   0  0  0  0  0  0  0  0  0  0  0  0
    6.7320   -5.5200   22.4300 C   0  0  0  0  0  0  0  0  0  0  0  0
    6.1080   -5.2490   23.7670 C   0  0  0  0  0  0  0  0  0  0  0  0
    6.1120   -3.7490   24.0390 C   0  0  0  0  0  0  0  0  0  0  0  0
    5.5750   -3.5540   25.4050 C   0  0  0  0  0  0  0  0  0  0  0  0
    4.4440   -3.9950   25.6290 O   0  0  0  0  0  0  0  0  0  0  0  0
    6.2220   -2.8740   26.4610 N   0  0  0  0  0  0  0  0  0  0  0  0
    6.1690   -3.4990   27.7780 C   0  0  0  0  0  0  0  0  0  0  0  0
    5.9280   -2.4230   28.8250 C   0  0  0  0  0  0  0  0  0  0  0  0
    4.7580   -1.9750   29.3910 C   0  0  0  0  0  0  0  0  0  0  0  0
    4.8360   -0.9850   30.3150 C   0  0  0  0  0  0  0  0  0  0  0  0
    6.4720   -0.5440   30.5330 S   0  0  0  0  0  0  0  0  0  0  0  0
    7.0940   -1.6540   29.4120 C   0  0  0  0  0  0  0  0  0  0  0  0
    5.8140   -1.6510   27.0950 C   0  0  0  0  0  0  0  0  0  0  0  0
    6.3480   -0.5140   26.4210 C   0  0  0  0  0  0  0  0  0  0  0  0
    6.9290   -0.6720   27.7240 C   0  0  0  0  0  0  0  0  0  0  0  0
    7.3730   -3.0620   23.7020 C   0  0  0  0  0  0  0  0  0  0  0  0
    7.6830   -3.2190   22.2480 C   0  0  0  0  0  0  0  0  0  0  0  0
  1  2  1  0
  2  3  2  0
  2  4  1  0
  4  5  1  0
  5  6  1  0
  6  7  1  0
  7  8  1  0
  8  9  2  0
  8 10  1  0
 10 11  1  0
 11 12  1  0
 12 13  1  0
 13 14  2  0
 14 15  1  0
 12 16  2  0
 15 16  1  0
 10 17  1  0
 17 18  1  0
 17 19  1  0
 18 19  1  0
  7 20  1  0
  4 21  1  0
 20 21  1  0
M  END
