piperidine-amides-4705-covalent
     RDKit          3D

 24 26  0  0  0  0  0  0  0  0999 V2000
    7.0870   -3.3240   19.3260 C   0  0  0  0  0  0  0  0  0  0  0  0
    6.3660   -4.1180   20.3440 C   0  0  0  0  0  0  0  0  0  0  0  0
    5.3380   -4.7040   19.9460 O   0  0  0  0  0  0  0  0  0  0  0  0
    6.8510   -4.2320   21.6650 N   0  0  0  0  0  0  0  0  0  0  0  0
    6.5720   -5.3950   22.4500 C   0  0  0  0  0  0  0  0  0  0  0  0
    6.0270   -5.0960   23.7830 C   0  0  0  0  0  0  0  0  0  0  0  0
    5.9510   -3.6490   24.0750 C   0  0  0  0  0  0  0  0  0  0  0  0
    5.3950   -3.3450   25.4340 C   0  0  0  0  0  0  0  0  0  0  0  0
    4.2030   -3.0020   25.4650 O   0  0  0  0  0  0  0  0  0  0  0  0
    6.1110   -3.4100   26.6560 N   0  0  0  0  0  0  0  0  0  0  0  0
    6.2550   -4.6470   27.4770 C   0  0  0  0  0  0  0  0  0  0  0  0
    5.0870   -5.1280   28.2580 C   0  0  0  0  0  0  0  0  0  0  0  0
    5.2200   -5.7030   29.5780 C   0  0  0  0  0  0  0  0  0  0  0  0
    4.1610   -6.1570   30.2980 C   0  0  0  0  0  0  0  0  0  0  0  0
    4.4230   -6.8380   31.8870 Cl  0  0  0  0  0  0  0  0  0  0  0  0
    2.9020   -6.0660   29.7430 C   0  0  0  0  0  0  0  0  0  0  0  0
    2.7130   -5.5300   28.4920 C   0  0  0  0  0  0  0  0  0  0  0  0
    3.6940   -5.0330   27.6590 C   0  0  0  0  0  0  0  0  0  0  0  0
    1.3490   -5.5520   28.1500 O   0  0  0  0  0  0  0  0  0  0  0  0
    0.8130   -6.7960   28.2890 C   0  0  0  0  0  0  0  0  0  0  0  0
    0.8160   -7.2500   29.6090 C   0  0  0  0  0  0  0  0  0  0  0  0
    1.7140   -6.4890   30.3490 O   0  0  0  0  0  0  0  0  0  0  0  0
    7.1700   -2.8900   23.7140 C   0  0  0  0  0  0  0  0  0  0  0  0
    7.6590   -3.1880   22.3130 C   0  0  0  0  0  0  0  0  0  0  0  0
  1  2  1  0
  2  3  2  0
  2  4  1  0
  4  5  1  0
  5  6  1  0
  6  7  1  0
  7  8  1  0
  8  9  2  0
  8 10  1  0
 10 11  1  0
 11 12  1  0
 12 13  2  0
 13 14  1  0
 14 15  1  0
 14 16  2  0
 16 17  1  0
 12 18  1  0
 17 18  2  0
 17 19  1  0
 19 20  1  0
 20 21  1  0
 16 22  1  0
 21 22  1  0
  7 23  1  0
  4 24  1  0
 23 24  1  0
M  END
