piperidine-amides-35038-covalent
     RDKit          3D

 30 31  0  0  0  0  0  0  0  0999 V2000
    6.9940   -3.3440   19.3350 C   0  0  0  0  0  0  0  0  0  0  0  0
    6.3370   -4.2080   20.3540 C   0  0  0  0  0  0  0  0  0  0  0  0
    5.3660   -4.8550   19.9770 O   0  0  0  0  0  0  0  0  0  0  0  0
    6.8370   -4.3020   21.6600 N   0  0  0  0  0  0  0  0  0  0  0  0
    6.7040   -5.5240   22.4150 C   0  0  0  0  0  0  0  0  0  0  0  0
    6.1690   -5.2240   23.7880 C   0  0  0  0  0  0  0  0  0  0  0  0
    6.0380   -3.7110   23.9620 C   0  0  0  0  0  0  0  0  0  0  0  0
    5.4700   -3.4100   25.2960 C   0  0  0  0  0  0  0  0  0  0  0  0
    4.2610   -3.1550   25.3600 O   0  0  0  0  0  0  0  0  0  0  0  0
    6.2140   -3.3880   26.4870 N   0  0  0  0  0  0  0  0  0  0  0  0
    6.1420   -2.1170   27.1920 C   0  0  0  0  0  0  0  0  0  0  0  0
    6.0890   -1.9480   28.5570 N   0  0  0  0  0  0  0  0  0  0  0  0
    6.0090   -0.6820   28.9540 C   0  0  0  0  0  0  0  0  0  0  0  0
    5.9220    0.1880   30.0100 C   0  0  0  0  0  0  0  0  0  0  0  0
    7.0480    0.9910   30.0140 F   0  0  0  0  0  0  0  0  0  0  0  0
    5.6680   -0.4300   31.2310 F   0  0  0  0  0  0  0  0  0  0  0  0
    4.8220    1.1180   29.9110 F   0  0  0  0  0  0  0  0  0  0  0  0
    5.9890    0.3500   27.9950 C   0  0  0  0  0  0  0  0  0  0  0  0
    5.9190    1.7230   27.8810 C   0  0  0  0  0  0  0  0  0  0  0  0
    6.6980    2.5890   28.5850 O   0  0  0  0  0  0  0  0  0  0  0  0
    4.9820    2.1650   26.9740 O   0  0  0  0  0  0  0  0  0  0  0  0
    5.3210    2.7240   25.7260 C   0  0  0  0  0  0  0  0  0  0  0  0
    6.8020    2.8540   25.5410 C   0  0  0  0  0  0  0  0  0  0  0  0
    6.0810   -0.4610   26.4970 S   0  0  0  0  0  0  0  0  0  0  0  0
    6.1300   -4.5830   27.3280 C   0  0  1  0  0  0  0  0  0  0  0  0
    6.7790   -4.5140   28.6620 C   0  0  0  0  0  0  0  0  0  0  0  0
    4.8440   -5.2700   27.6490 C   0  0  0  0  0  0  0  0  0  0  0  0
    5.3510   -6.6310   28.1210 C   0  0  0  0  0  0  0  0  0  0  0  0
    7.3700   -3.0510   23.7000 C   0  0  0  0  0  0  0  0  0  0  0  0
    7.6540   -3.2400   22.2320 C   0  0  0  0  0  0  0  0  0  0  0  0
  1  2  1  0
  2  3  2  0
  2  4  1  0
  4  5  1  0
  5  6  1  0
  6  7  1  0
  7  8  1  0
  8  9  2  0
  8 10  1  0
 10 11  1  0
 11 12  2  0
 12 13  1  0
 13 14  1  0
 14 15  1  0
 14 16  1  0
 14 17  1  0
 13 18  2  0
 18 19  1  0
 19 20  2  0
 19 21  1  0
 21 22  1  0
 22 23  1  0
 11 24  1  0
 18 24  1  0
 10 25  1  0
 25 26  1  1
 25 27  1  0
 27 28  1  0
  7 29  1  0
  4 30  1  0
 29 30  1  0
M  END
