piperidine-amides-8487-covalent
     RDKit          3D

 24 26  0  0  0  0  0  0  0  0999 V2000
    7.1240   -3.2700   19.1890 C   0  0  0  0  0  0  0  0  0  0  0  0
    6.3910   -4.0370   20.1960 C   0  0  0  0  0  0  0  0  0  0  0  0
    5.2980   -4.5340   19.8790 O   0  0  0  0  0  0  0  0  0  0  0  0
    6.9570   -4.2560   21.4770 N   0  0  0  0  0  0  0  0  0  0  0  0
    6.4980   -5.3720   22.2460 C   0  0  0  0  0  0  0  0  0  0  0  0
    5.6960   -4.8530   23.4000 C   0  0  0  0  0  0  0  0  0  0  0  0
    6.5650   -3.7960   24.0450 C   0  0  0  0  0  0  0  0  0  0  0  0
    5.8720   -3.1450   25.1950 C   0  0  0  0  0  0  0  0  0  0  0  0
    4.6400   -3.1300   25.1650 O   0  0  0  0  0  0  0  0  0  0  0  0
    6.6630   -2.5990   26.1960 N   0  0  0  0  0  0  0  0  0  0  0  0
    6.3080   -2.7040   27.5630 C   0  0  0  0  0  0  0  0  0  0  0  0
    5.4340   -3.7520   27.8400 C   0  0  0  0  0  0  0  0  0  0  0  0
    4.0370   -3.5970   27.4730 N   0  0  0  0  0  0  0  0  0  0  0  0
    3.3730   -4.7550   27.8430 C   0  0  0  0  0  0  0  0  0  0  0  0
    2.0220   -5.0550   27.6840 C   0  0  0  0  0  0  0  0  0  0  0  0
    1.6320   -6.4250   28.2020 C   0  0  0  0  0  0  0  0  0  0  0  0
    2.6830   -7.3710   28.8480 C   0  0  0  0  0  0  0  0  0  0  0  0
    4.0930   -6.9490   28.9720 C   0  0  0  0  0  0  0  0  0  0  0  0
    5.4030   -7.8510   29.6660 Cl  0  0  0  0  0  0  0  0  0  0  0  0
    4.2860   -5.6070   28.4160 C   0  0  0  0  0  0  0  0  0  0  0  0
    5.4900   -4.9860   28.3940 N   0  0  0  0  0  0  0  0  0  0  0  0
    6.6770   -5.4230   28.8300 C   0  0  0  0  0  0  0  0  0  0  0  0
    6.8500   -2.6870   23.0710 C   0  0  0  0  0  0  0  0  0  0  0  0
    7.6990   -3.2090   22.1360 C   0  0  0  0  0  0  0  0  0  0  0  0
  1  2  1  0
  2  3  2  0
  2  4  1  0
  4  5  1  0
  5  6  1  0
  6  7  1  0
  7  8  1  0
  8  9  2  0
  8 10  1  0
 10 11  1  0
 11 12  1  0
 12 13  2  0
 13 14  1  0
 14 15  2  0
 15 16  1  0
 16 17  2  0
 17 18  1  0
 18 19  1  0
 14 20  1  0
 18 20  2  0
 12 21  1  0
 20 21  1  0
 21 22  1  0
  7 23  1  0
  4 24  1  0
 23 24  1  0
M  END
