piperidine-amides-31741-covalent
     RDKit          3D

 27 29  0  0  0  0  0  0  0  0999 V2000
    7.1110   -3.3900   19.3250 C   0  0  0  0  0  0  0  0  0  0  0  0
    6.4290   -4.1810   20.3240 C   0  0  0  0  0  0  0  0  0  0  0  0
    5.3570   -4.7600   19.9640 O   0  0  0  0  0  0  0  0  0  0  0  0
    6.9070   -4.4030   21.6330 N   0  0  0  0  0  0  0  0  0  0  0  0
    7.9130   -3.4830   22.2120 C   0  0  0  0  0  0  0  0  0  0  0  0
    6.9700   -2.6410   23.1150 C   0  0  0  0  0  0  0  0  0  0  0  0
    6.5370   -3.6160   24.1690 C   0  0  0  0  0  0  0  0  0  0  0  0
    5.2100   -3.1070   24.8750 C   0  0  0  0  0  0  0  0  0  0  0  0
    4.6920   -2.1940   24.2700 O   0  0  0  0  0  0  0  0  0  0  0  0
    5.0240   -3.7880   25.9000 N   0  0  0  0  0  0  0  0  0  0  0  0
    4.4590   -4.5410   26.8670 C   0  0  0  0  0  0  0  0  0  0  0  0
    4.5550   -4.4470   28.1680 C   0  0  1  0  0  0  0  0  0  0  0  0
    5.3020   -5.4610   28.8220 C   0  0  0  0  0  0  0  0  0  0  0  0
    4.7320   -5.9910   29.9120 N   0  0  0  0  0  0  0  0  0  0  0  0
    3.6580   -6.7970   29.5530 C   0  0  0  0  0  0  0  0  0  0  0  0
    3.4470   -7.2190   28.2440 O   0  0  0  0  0  0  0  0  0  0  0  0
    2.7010   -7.1930   30.6930 C   0  0  0  0  0  0  0  0  0  0  0  0
    3.3780   -7.6680   31.8180 F   0  0  0  0  0  0  0  0  0  0  0  0
    1.8240   -8.1960   30.2670 F   0  0  0  0  0  0  0  0  0  0  0  0
    1.9220   -6.1300   31.0730 F   0  0  0  0  0  0  0  0  0  0  0  0
    5.7300   -3.5410   28.1590 C   0  0  0  0  0  0  0  0  0  0  0  0
    5.4690   -2.0980   28.3050 C   0  0  0  0  0  0  0  0  0  0  0  0
    6.5400   -2.4650   29.3040 C   0  0  0  0  0  0  0  0  0  0  0  0
    6.6590   -3.9610   29.1930 C   0  0  0  0  0  0  0  0  0  0  0  0
    6.1540   -3.9680   26.7870 C   0  0  0  0  0  0  0  0  0  0  0  0
    6.5400   -5.0980   23.7900 C   0  0  0  0  0  0  0  0  0  0  0  0
    6.1520   -5.2740   22.4970 C   0  0  0  0  0  0  0  0  0  0  0  0
  1  2  1  0
  2  3  2  0
  2  4  1  0
  4  5  1  0
  5  6  1  0
  6  7  1  0
  7  8  1  0
  8  9  2  0
  8 10  1  0
 10 11  1  0
 11 12  1  0
 12 13  1  1
 13 14  1  0
 14 15  1  0
 15 16  2  0
 15 17  1  0
 17 18  1  0
 17 19  1  0
 17 20  1  0
 12 21  1  0
 21 22  1  0
 22 23  1  0
 21 24  1  0
 23 24  1  0
 10 25  1  0
 21 25  1  0
  7 26  1  0
  4 27  1  0
 26 27  1  0
M  END
