piperidine-amides-10640-covalent
     RDKit          3D

 23 24  0  0  0  0  0  0  0  0999 V2000
    7.0360   -3.3430   19.3220 C   0  0  0  0  0  0  0  0  0  0  0  0
    6.3730   -4.1630   20.3440 C   0  0  0  0  0  0  0  0  0  0  0  0
    5.3710   -4.8290   19.9730 O   0  0  0  0  0  0  0  0  0  0  0  0
    6.8820   -4.2140   21.6450 N   0  0  0  0  0  0  0  0  0  0  0  0
    7.7580   -3.1850   22.1470 C   0  0  0  0  0  0  0  0  0  0  0  0
    7.3790   -2.9010   23.5600 C   0  0  0  0  0  0  0  0  0  0  0  0
    6.0630   -3.5230   23.9360 C   0  0  0  0  0  0  0  0  0  0  0  0
    5.8010   -3.1620   25.3410 C   0  0  0  0  0  0  0  0  0  0  0  0
    4.6750   -3.3700   25.8370 O   0  0  0  0  0  0  0  0  0  0  0  0
    6.8330   -2.5720   26.0850 N   0  0  0  0  0  0  0  0  0  0  0  0
    6.6120   -1.4880   27.0010 C   0  0  0  0  0  0  0  0  0  0  0  0
    5.8920   -0.2730   26.4910 C   0  0  0  0  0  0  0  0  0  0  0  0
    5.6640    0.7970   27.3160 C   0  0  0  0  0  0  0  0  0  0  0  0
    6.0780    0.8200   28.6450 C   0  0  0  0  0  0  0  0  0  0  0  0
    5.7820    2.1650   29.6610 S   0  0  0  0  0  0  0  0  0  0  0  0
    7.0260    2.5620   30.8060 N   0  0  0  0  0  0  0  0  0  0  0  0
    5.5340    3.3810   28.8440 O   0  0  0  0  0  0  0  0  0  0  0  0
    4.6130    1.8110   30.5080 O   0  0  0  0  0  0  0  0  0  0  0  0
    6.7530   -0.3080   29.1360 C   0  0  0  0  0  0  0  0  0  0  0  0
    7.2810   -0.2990   30.8030 Cl  0  0  0  0  0  0  0  0  0  0  0  0
    6.9970   -1.4060   28.3290 C   0  0  0  0  0  0  0  0  0  0  0  0
    6.0640   -5.0470   23.8180 C   0  0  0  0  0  0  0  0  0  0  0  0
    6.5730   -5.4070   22.4380 C   0  0  0  0  0  0  0  0  0  0  0  0
  1  2  1  0
  2  3  2  0
  2  4  1  0
  4  5  1  0
  5  6  1  0
  6  7  1  0
  7  8  1  0
  8  9  2  0
  8 10  1  0
 10 11  1  0
 11 12  2  0
 12 13  1  0
 13 14  2  0
 14 15  1  0
 15 16  1  0
 15 17  2  0
 15 18  2  0
 14 19  1  0
 19 20  1  0
 11 21  1  0
 19 21  2  0
  7 22  1  0
  4 23  1  0
 22 23  1  0
M  END
