piperidine-amides-7341-covalent
     RDKit          3D

 20 21  0  0  0  0  0  0  0  0999 V2000
    7.1010   -3.2730   19.2000 C   0  0  0  0  0  0  0  0  0  0  0  0
    6.3610   -4.0090   20.2340 C   0  0  0  0  0  0  0  0  0  0  0  0
    5.2860   -4.5600   19.8840 O   0  0  0  0  0  0  0  0  0  0  0  0
    6.8790   -4.1120   21.5250 N   0  0  0  0  0  0  0  0  0  0  0  0
    7.7620   -3.1100   22.0710 C   0  0  0  0  0  0  0  0  0  0  0  0
    7.2380   -2.6840   23.4040 C   0  0  0  0  0  0  0  0  0  0  0  0
    6.8950   -3.8600   24.2760 C   0  0  0  0  0  0  0  0  0  0  0  0
    6.3150   -3.3560   25.5370 C   0  0  0  0  0  0  0  0  0  0  0  0
    5.0660   -3.2650   25.6380 O   0  0  0  0  0  0  0  0  0  0  0  0
    7.1420   -2.9480   26.6130 N   0  0  0  0  0  0  0  0  0  0  0  0
    7.3890   -3.7690   27.7810 C   0  0  0  0  0  0  0  0  0  0  0  0
    7.3320   -5.2700   27.5310 C   0  0  0  0  0  0  0  0  0  0  0  0
    6.1990   -6.0090   27.7880 C   0  0  0  0  0  0  0  0  0  0  0  0
    5.8190   -6.5660   28.9760 C   0  0  0  0  0  0  0  0  0  0  0  0
    4.6470   -7.1940   28.8030 N   0  0  0  0  0  0  0  0  0  0  0  0
    4.2210   -7.0860   27.5400 C   0  0  0  0  0  0  0  0  0  0  0  0
    3.0540   -7.6140   27.0210 C   0  0  0  0  0  0  0  0  0  0  0  0
    5.2420   -6.3100   26.8900 N   0  0  0  0  0  0  0  0  0  0  0  0
    5.8760   -4.7990   23.6270 C   0  0  0  0  0  0  0  0  0  0  0  0
    6.4490   -5.2700   22.3120 C   0  0  0  0  0  0  0  0  0  0  0  0
  1  2  1  0
  2  3  2  0
  2  4  1  0
  4  5  1  0
  5  6  1  0
  6  7  1  0
  7  8  1  0
  8  9  2  0
  8 10  1  0
 10 11  1  0
 11 12  1  0
 12 13  1  0
 13 14  2  0
 14 15  1  0
 15 16  2  0
 16 17  1  0
 13 18  1  0
 16 18  1  0
  7 19  1  0
  4 20  1  0
 19 20  1  0
M  END
