piperidine-amides-3469-covalent
     RDKit          3D

 20 21  0  0  0  0  0  0  0  0999 V2000
    7.0370   -3.3450   19.2960 C   0  0  0  0  0  0  0  0  0  0  0  0
    6.3580   -4.1540   20.3030 C   0  0  0  0  0  0  0  0  0  0  0  0
    5.3810   -4.8300   19.9790 O   0  0  0  0  0  0  0  0  0  0  0  0
    6.8420   -4.2080   21.6550 N   0  0  0  0  0  0  0  0  0  0  0  0
    7.7640   -3.2000   22.1410 C   0  0  0  0  0  0  0  0  0  0  0  0
    7.5820   -3.0030   23.6110 C   0  0  0  0  0  0  0  0  0  0  0  0
    6.2260   -3.5920   23.9250 C   0  0  0  0  0  0  0  0  0  0  0  0
    5.7940   -3.2580   25.3060 C   0  0  0  0  0  0  0  0  0  0  0  0
    4.6840   -3.6150   25.7380 O   0  0  0  0  0  0  0  0  0  0  0  0
    6.6600   -2.5010   26.1340 N   0  0  0  0  0  0  0  0  0  0  0  0
    6.1050   -1.8890   27.3240 C   0  0  1  0  0  0  0  0  0  0  0  0
    4.8980   -2.6330   27.8460 C   0  0  0  0  0  0  0  0  0  0  0  0
    3.8900   -2.4980   26.9110 O   0  0  0  0  0  0  0  0  0  0  0  0
    2.6110   -2.0810   27.1340 C   0  0  0  0  0  0  0  0  0  0  0  0
    6.9950   -1.4020   28.4000 C   0  0  0  0  0  0  0  0  0  0  0  0
    6.5810   -0.2230   28.9190 C   0  0  0  0  0  0  0  0  0  0  0  0
    5.7930    0.3980   28.0180 O   0  0  0  0  0  0  0  0  0  0  0  0
    5.6640   -0.4520   26.9630 C   0  0  0  0  0  0  0  0  0  0  0  0
    6.1310   -5.0770   23.6780 C   0  0  0  0  0  0  0  0  0  0  0  0
    6.7020   -5.4260   22.4640 C   0  0  0  0  0  0  0  0  0  0  0  0
  1  2  1  0
  2  3  2  0
  2  4  1  0
  4  5  1  0
  5  6  1  0
  6  7  1  0
  7  8  1  0
  8  9  2  0
  8 10  1  0
 11 10  1  0
 11 12  1  1
 12 13  1  0
 13 14  1  0
 11 15  1  0
 15 16  1  0
 16 17  1  0
 11 18  1  0
 17 18  1  0
  7 19  1  0
  4 20  1  0
 19 20  1  0
M  END
