piperidine-amides-33494-covalent
     RDKit          3D

 30 32  0  0  0  0  0  0  0  0999 V2000
    7.1240   -3.3130   19.2840 C   0  0  0  0  0  0  0  0  0  0  0  0
    6.4330   -4.1240   20.3040 C   0  0  0  0  0  0  0  0  0  0  0  0
    5.3670   -4.6840   19.9460 O   0  0  0  0  0  0  0  0  0  0  0  0
    6.9810   -4.3050   21.6050 N   0  0  0  0  0  0  0  0  0  0  0  0
    7.7870   -3.2400   22.1390 C   0  0  0  0  0  0  0  0  0  0  0  0
    7.5280   -2.9230   23.5310 C   0  0  0  0  0  0  0  0  0  0  0  0
    6.2270   -3.4240   23.9580 C   0  0  0  0  0  0  0  0  0  0  0  0
    5.7420   -2.7560   25.2140 C   0  0  0  0  0  0  0  0  0  0  0  0
    5.1470   -1.6830   25.0500 O   0  0  0  0  0  0  0  0  0  0  0  0
    5.8300   -3.2100   26.5440 N   0  0  0  0  0  0  0  0  0  0  0  0
    5.0960   -2.4230   27.4700 C   0  0  0  0  0  0  0  0  0  0  0  0
    5.5430   -1.7610   28.6980 C   0  0  0  0  0  0  0  0  0  0  0  0
    7.0300   -1.3890   28.8950 C   0  0  0  0  0  0  0  0  0  0  0  0
    7.5640   -0.7410   30.0290 C   0  0  0  0  0  0  0  0  0  0  0  0
    6.5470   -0.3800   31.1440 C   0  0  0  0  0  0  0  0  0  0  0  0
    6.9410    0.2700   32.3130 O   0  0  0  0  0  0  0  0  0  0  0  0
    8.3240    0.4050   32.3830 C   0  0  0  0  0  0  0  0  0  0  0  0
    5.0820   -0.7560   30.9400 C   0  0  0  0  0  0  0  0  0  0  0  0
    4.5390   -1.4410   29.7500 C   0  0  0  0  0  0  0  0  0  0  0  0
    5.5840   -4.6000   26.7160 C   0  0  0  0  0  0  0  0  0  0  0  0
    5.4930   -5.2360   28.1090 C   0  0  0  0  0  0  0  0  0  0  0  0
    4.4240   -4.6830   28.9770 C   0  0  0  0  0  0  0  0  0  0  0  0
    4.1500   -5.1110   30.2740 C   0  0  0  0  0  0  0  0  0  0  0  0
    4.9060   -6.1270   30.8250 C   0  0  0  0  0  0  0  0  0  0  0  0
    4.7580   -6.5840   31.9630 O   0  0  0  0  0  0  0  0  0  0  0  0
    4.3160   -7.8820   32.2340 C   0  0  0  0  0  0  0  0  0  0  0  0
    5.9670   -6.7080   30.0140 C   0  0  0  0  0  0  0  0  0  0  0  0
    6.2810   -6.2490   28.6070 C   0  0  0  0  0  0  0  0  0  0  0  0
    6.1620   -4.8930   23.8500 C   0  0  0  0  0  0  0  0  0  0  0  0
    6.5900   -5.3700   22.5060 C   0  0  0  0  0  0  0  0  0  0  0  0
  1  2  1  0
  2  3  2  0
  2  4  1  0
  4  5  1  0
  5  6  1  0
  6  7  1  0
  7  8  1  0
  8  9  2  0
  8 10  1  0
 10 11  1  0
 11 12  1  0
 12 13  2  0
 13 14  1  0
 14 15  2  0
 15 16  1  0
 16 17  1  0
 15 18  1  0
 12 19  1  0
 18 19  2  0
 10 20  1  0
 20 21  1  0
 21 22  2  0
 22 23  1  0
 23 24  2  0
 24 25  1  0
 25 26  1  0
 24 27  1  0
 21 28  1  0
 27 28  2  0
  7 29  1  0
  4 30  1  0
 29 30  1  0
M  END
