piperidine-amides-25995-covalent
     RDKit          3D

 24 26  0  0  0  0  0  0  0  0999 V2000
    7.1130   -3.2750   19.2200 C   0  0  0  0  0  0  0  0  0  0  0  0
    6.3700   -4.0350   20.2290 C   0  0  0  0  0  0  0  0  0  0  0  0
    5.3050   -4.5800   19.9000 O   0  0  0  0  0  0  0  0  0  0  0  0
    6.8550   -4.2150   21.5360 N   0  0  0  0  0  0  0  0  0  0  0  0
    6.5640   -5.4080   22.2800 C   0  0  0  0  0  0  0  0  0  0  0  0
    5.8530   -4.9320   23.5230 C   0  0  0  0  0  0  0  0  0  0  0  0
    6.5620   -3.7940   24.2160 C   0  0  0  0  0  0  0  0  0  0  0  0
    5.7610   -3.2630   25.3520 C   0  0  0  0  0  0  0  0  0  0  0  0
    4.4980   -3.2370   25.2590 O   0  0  0  0  0  0  0  0  0  0  0  0
    6.2990   -2.7710   26.5650 N   0  0  0  0  0  0  0  0  0  0  0  0
    6.1620   -1.3520   26.8480 C   0  0  0  0  0  0  0  0  0  0  0  0
    5.6340   -1.8090   28.1160 C   0  0  0  0  0  0  0  0  0  0  0  0
    6.2540   -1.1440   29.1090 N   0  0  0  0  0  0  0  0  0  0  0  0
    7.5250   -1.3800   29.2990 N   0  0  0  0  0  0  0  0  0  0  0  0
    7.8910   -0.6110   30.3220 N   0  0  0  0  0  0  0  0  0  0  0  0
    6.8750    0.1150   30.7930 N   0  0  0  0  0  0  0  0  0  0  0  0
    5.8440   -0.1950   30.0590 C   0  0  0  0  0  0  0  0  0  0  0  0
    4.3880    0.2170   30.0050 C   0  0  0  0  0  0  0  0  0  0  0  0
    4.1080    1.0630   31.0760 F   0  0  0  0  0  0  0  0  0  0  0  0
    3.5620   -0.8730   30.1760 F   0  0  0  0  0  0  0  0  0  0  0  0
    4.0690    0.8900   28.8710 F   0  0  0  0  0  0  0  0  0  0  0  0
    5.9210   -3.2780   27.9040 C   0  0  0  0  0  0  0  0  0  0  0  0
    6.8580   -2.6870   23.2660 C   0  0  0  0  0  0  0  0  0  0  0  0
    7.5140   -3.1000   22.1390 C   0  0  0  0  0  0  0  0  0  0  0  0
  1  2  1  0
  2  3  2  0
  2  4  1  0
  4  5  1  0
  5  6  1  0
  6  7  1  0
  7  8  1  0
  8  9  2  0
  8 10  1  0
 10 11  1  0
 11 12  1  0
 12 13  1  0
 13 14  1  0
 14 15  2  0
 15 16  1  0
 13 17  1  0
 16 17  2  0
 17 18  1  0
 18 19  1  0
 18 20  1  0
 18 21  1  0
 10 22  1  0
 12 22  1  0
  7 23  1  0
  4 24  1  0
 23 24  1  0
M  END
