piperidine-amides-21623-covalent
     RDKit          3D

 23 25  0  0  0  0  0  0  0  0999 V2000
    7.0460   -3.3720   19.4060 C   0  0  0  0  0  0  0  0  0  0  0  0
    6.4160   -4.2590   20.3880 C   0  0  0  0  0  0  0  0  0  0  0  0
    5.3890   -4.8710   19.9900 O   0  0  0  0  0  0  0  0  0  0  0  0
    6.9670   -4.4400   21.6700 N   0  0  0  0  0  0  0  0  0  0  0  0
    6.6160   -5.5600   22.4970 C   0  0  0  0  0  0  0  0  0  0  0  0
    5.7440   -5.0540   23.6210 C   0  0  0  0  0  0  0  0  0  0  0  0
    6.2360   -3.7750   24.2770 C   0  0  0  0  0  0  0  0  0  0  0  0
    5.2120   -3.2840   25.2560 C   0  0  0  0  0  0  0  0  0  0  0  0
    4.1410   -2.8400   24.8110 O   0  0  0  0  0  0  0  0  0  0  0  0
    5.3850   -3.2950   26.6590 N   0  0  0  0  0  0  0  0  0  0  0  0
    4.3020   -3.5940   27.5680 C   0  0  0  0  0  0  0  0  0  0  0  0
    4.7380   -4.6510   28.5800 C   0  0  0  0  0  0  0  0  0  0  0  0
    6.0530   -4.8410   28.7850 C   0  0  0  0  0  0  0  0  0  0  0  0
    6.8090   -3.7760   28.4450 C   0  0  2  0  0  0  0  0  0  0  0  0
    6.5950   -2.6100   29.0860 N   0  0  0  0  0  0  0  0  0  0  0  0
    7.4300   -1.5810   29.2780 C   0  0  0  0  0  0  0  0  0  0  0  0
    6.7650   -0.6570   29.9660 C   0  0  0  0  0  0  0  0  0  0  0  0
    5.5260   -1.1030   30.2010 C   0  0  0  0  0  0  0  0  0  0  0  0
    4.3700   -0.4630   30.9330 C   0  0  0  0  0  0  0  0  0  0  0  0
    5.3640   -2.3480   29.6590 N   0  0  0  0  0  0  0  0  0  0  0  0
    6.6080   -3.7480   27.0940 C   0  0  0  0  0  0  0  0  0  0  0  0
    6.6140   -2.6980   23.2400 C   0  0  0  0  0  0  0  0  0  0  0  0
    7.6580   -3.3560   22.3560 C   0  0  0  0  0  0  0  0  0  0  0  0
  1  2  1  0
  2  3  2  0
  2  4  1  0
  4  5  1  0
  5  6  1  0
  6  7  1  0
  7  8  1  0
  8  9  2  0
  8 10  1  0
 10 11  1  0
 11 12  1  0
 12 13  1  0
 13 14  1  0
 14 15  1  1
 15 16  1  0
 16 17  2  0
 17 18  1  0
 18 19  1  0
 15 20  1  0
 18 20  2  0
 10 21  1  0
 14 21  1  0
  7 22  1  0
  4 23  1  0
 22 23  1  0
M  END
