piperidine-amides-6477-covalent
     RDKit          3D

 24 25  0  0  0  0  0  0  0  0999 V2000
    7.1330   -3.2750   19.1700 C   0  0  0  0  0  0  0  0  0  0  0  0
    6.3900   -4.0340   20.1910 C   0  0  0  0  0  0  0  0  0  0  0  0
    5.3120   -4.5980   19.9030 O   0  0  0  0  0  0  0  0  0  0  0  0
    6.9180   -4.1830   21.4760 N   0  0  0  0  0  0  0  0  0  0  0  0
    6.4280   -5.2600   22.2920 C   0  0  0  0  0  0  0  0  0  0  0  0
    5.6650   -4.5760   23.4360 C   0  0  0  0  0  0  0  0  0  0  0  0
    6.6450   -3.6320   24.1180 C   0  0  0  0  0  0  0  0  0  0  0  0
    5.9820   -2.9280   25.2240 C   0  0  0  0  0  0  0  0  0  0  0  0
    4.8140   -2.5080   25.0690 O   0  0  0  0  0  0  0  0  0  0  0  0
    6.6900   -2.7850   26.4330 N   0  0  0  0  0  0  0  0  0  0  0  0
    6.6690   -3.9810   27.1850 C   0  0  2  0  0  0  0  0  0  0  0  0
    5.9430   -3.8110   28.4830 C   0  0  0  0  0  0  0  0  0  0  0  0
    7.9890   -4.5310   27.4460 C   0  0  0  0  0  0  0  0  0  0  0  0
    7.9410   -5.8030   27.8540 C   0  0  2  0  0  0  0  0  0  0  0  0
    8.7380   -6.6550   27.1330 O   0  0  0  0  0  0  0  0  0  0  0  0
    6.6130   -6.2660   28.0130 C   0  0  0  0  0  0  0  0  0  0  0  0
    5.7520   -6.3630   27.0050 C   0  0  0  0  0  0  0  0  0  0  0  0
    4.3290   -6.8050   26.9180 C   0  0  0  0  0  0  0  0  0  0  0  0
    4.1450   -7.1310   28.4250 C   0  0  0  0  0  0  0  0  0  0  0  0
    2.8760   -7.5670   28.6260 F   0  0  0  0  0  0  0  0  0  0  0  0
    4.9680   -7.1040   29.7370 C   0  0  0  0  0  0  0  0  0  0  0  0
    6.2600   -6.6030   29.2600 C   0  0  0  0  0  0  0  0  0  0  0  0
    7.1160   -2.5830   23.1620 C   0  0  0  0  0  0  0  0  0  0  0  0
    7.6600   -3.1060   22.0380 C   0  0  0  0  0  0  0  0  0  0  0  0
  1  2  1  0
  2  3  2  0
  2  4  1  0
  4  5  1  0
  5  6  1  0
  6  7  1  0
  7  8  1  0
  8  9  2  0
  8 10  1  0
 10 11  1  0
 11 12  1  1
 11 13  1  0
 13 14  1  0
 14 15  1  6
 14 16  1  0
 16 17  2  0
 17 18  1  0
 18 19  2  0
 19 20  1  0
 19 21  1  0
 16 22  1  0
 21 22  2  0
  7 23  1  0
  4 24  1  0
 23 24  1  0
M  END
