piperidine-amides-759-covalent
     RDKit          3D

 25 27  0  0  0  0  0  0  0  0999 V2000
    7.0560   -3.3740   19.3160 C   0  0  0  0  0  0  0  0  0  0  0  0
    6.3150   -4.0850   20.3320 C   0  0  0  0  0  0  0  0  0  0  0  0
    5.2920   -4.7270   19.9500 O   0  0  0  0  0  0  0  0  0  0  0  0
    6.7000   -4.1470   21.6890 N   0  0  0  0  0  0  0  0  0  0  0  0
    6.6790   -5.5140   22.2730 C   0  0  0  0  0  0  0  0  0  0  0  0
    6.0730   -5.2490   23.7040 C   0  0  0  0  0  0  0  0  0  0  0  0
    6.1500   -3.7610   23.9220 C   0  0  0  0  0  0  0  0  0  0  0  0
    5.4410   -3.3850   25.3010 C   0  0  0  0  0  0  0  0  0  0  0  0
    4.3460   -3.9220   25.3620 O   0  0  0  0  0  0  0  0  0  0  0  0
    6.1690   -2.6140   25.9960 N   0  0  0  0  0  0  0  0  0  0  0  0
    6.8210   -1.7110   26.7750 C   0  0  2  0  0  0  0  0  0  0  0  0
    7.4110   -1.6390   28.0400 C   0  0  0  0  0  0  0  0  0  0  0  0
    6.6790   -1.0850   29.1250 C   0  0  0  0  0  0  0  0  0  0  0  0
    6.3690    0.3300   28.9580 C   0  0  2  0  0  0  0  0  0  0  0  0
    7.4150    1.0210   29.5640 O   0  0  0  0  0  0  0  0  0  0  0  0
    5.2050    0.0760   29.9390 C   0  0  0  0  0  0  0  0  0  0  0  0
    5.8000    0.0760   31.2190 C   0  0  0  0  0  0  0  0  0  0  0  0
    5.2680   -0.1040   32.5650 C   0  0  0  0  0  0  0  0  0  0  0  0
    3.7500   -0.3180   32.1970 C   0  0  0  0  0  0  0  0  0  0  0  0
    3.1430   -0.3110   30.7700 C   0  0  0  0  0  0  0  0  0  0  0  0
    3.8700   -0.1170   29.6970 C   0  0  0  0  0  0  0  0  0  0  0  0
    6.1110    0.5810   27.6570 C   0  0  0  0  0  0  0  0  0  0  0  0
    5.7870   -0.5500   26.9790 C   0  0  0  0  0  0  0  0  0  0  0  0
    7.4480   -3.1040   23.6180 C   0  0  0  0  0  0  0  0  0  0  0  0
    7.6240   -3.1760   22.2350 C   0  0  0  0  0  0  0  0  0  0  0  0
  1  2  1  0
  2  3  2  0
  2  4  1  0
  4  5  1  0
  5  6  1  0
  6  7  1  0
  7  8  1  0
  8  9  2  0
  8 10  1  0
 11 10  1  1
 11 12  1  0
 12 13  1  0
 13 14  1  0
 14 15  1  1
 14 16  1  0
 16 17  2  0
 17 18  1  0
 18 19  2  0
 19 20  1  0
 16 21  1  0
 20 21  2  0
 14 22  1  0
 11 23  1  0
 22 23  1  0
  7 24  1  0
  4 25  1  0
 24 25  1  0
M  END
