piperidine-amides-31715-covalent
     RDKit          3D

 28 31  0  0  0  0  0  0  0  0999 V2000
    7.1120   -3.3470   19.4400 C   0  0  0  0  0  0  0  0  0  0  0  0
    6.4270   -4.1950   20.3860 C   0  0  0  0  0  0  0  0  0  0  0  0
    5.4150   -4.8580   19.9880 O   0  0  0  0  0  0  0  0  0  0  0  0
    6.8780   -4.3390   21.7130 N   0  0  0  0  0  0  0  0  0  0  0  0
    6.5960   -5.6060   22.4010 C   0  0  0  0  0  0  0  0  0  0  0  0
    5.4950   -5.0680   23.3790 C   0  0  0  0  0  0  0  0  0  0  0  0
    6.2030   -4.0840   24.2870 C   0  0  0  0  0  0  0  0  0  0  0  0
    5.1520   -3.4190   25.2910 C   0  0  0  0  0  0  0  0  0  0  0  0
    4.1870   -3.0140   24.6710 O   0  0  0  0  0  0  0  0  0  0  0  0
    5.5770   -3.4650   26.4910 N   0  0  0  0  0  0  0  0  0  0  0  0
    6.3940   -3.3540   27.4970 C   0  0  0  0  0  0  0  0  0  0  0  0
    6.7960   -4.2140   28.4500 C   0  0  0  0  0  0  0  0  0  0  0  0
    5.7890   -4.1650   29.3500 C   0  0  0  0  0  0  0  0  0  0  0  0
    4.4980   -4.1020   28.6480 C   0  0  2  0  0  0  0  0  0  0  0  0
    4.2980   -5.5530   29.0960 C   0  0  0  0  0  0  0  0  0  0  0  0
    5.0680   -6.3840   28.3950 C   0  0  0  0  0  0  0  0  0  0  0  0
    4.6970   -7.5640   28.9950 C   0  0  0  0  0  0  0  0  0  0  0  0
    3.7460   -7.4000   29.9990 N   0  0  0  0  0  0  0  0  0  0  0  0
    3.5110   -6.0400   30.0290 N   0  0  0  0  0  0  0  0  0  0  0  0
    2.5550   -5.5370   30.9860 C   0  0  0  0  0  0  0  0  0  0  0  0
    1.8140   -6.8400   31.4290 C   0  0  0  0  0  0  0  0  0  0  0  0
    0.5660   -6.6360   31.9580 C   0  0  0  0  0  0  0  0  0  0  0  0
    0.1420   -5.4560   31.8310 O   0  0  0  0  0  0  0  0  0  0  0  0
    0.3780   -4.6970   30.6660 C   0  0  0  0  0  0  0  0  0  0  0  0
    1.7140   -4.5840   30.4300 C   0  0  0  0  0  0  0  0  0  0  0  0
    4.3840   -3.8270   27.2660 C   0  0  0  0  0  0  0  0  0  0  0  0
    7.1420   -3.0530   23.7200 C   0  0  0  0  0  0  0  0  0  0  0  0
    7.6760   -3.3130   22.3390 C   0  0  0  0  0  0  0  0  0  0  0  0
  1  2  1  0
  2  3  2  0
  2  4  1  0
  4  5  1  0
  5  6  1  0
  6  7  1  0
  7  8  1  0
  8  9  2  0
  8 10  1  0
 10 11  1  0
 11 12  1  0
 12 13  1  0
 13 14  1  0
 14 15  1  6
 15 16  2  0
 16 17  1  0
 17 18  2  0
 15 19  1  0
 18 19  1  0
 19 20  1  0
 20 21  1  0
 21 22  1  0
 22 23  1  0
 23 24  1  0
 20 25  1  0
 24 25  1  0
 10 26  1  0
 14 26  1  0
  7 27  1  0
  4 28  1  0
 27 28  1  0
M  END
