piperidine-amides-14326-covalent
     RDKit          3D

 24 26  0  0  0  0  0  0  0  0999 V2000
    7.0830   -3.3600   19.3360 C   0  0  0  0  0  0  0  0  0  0  0  0
    6.3880   -4.1840   20.3170 C   0  0  0  0  0  0  0  0  0  0  0  0
    5.3500   -4.7720   19.9630 O   0  0  0  0  0  0  0  0  0  0  0  0
    6.9320   -4.3440   21.6140 N   0  0  0  0  0  0  0  0  0  0  0  0
    7.6980   -3.2770   22.1930 C   0  0  0  0  0  0  0  0  0  0  0  0
    6.9650   -2.7470   23.3770 C   0  0  0  0  0  0  0  0  0  0  0  0
    6.5940   -3.9490   24.2080 C   0  0  0  0  0  0  0  0  0  0  0  0
    5.7590   -3.5120   25.3750 C   0  0  0  0  0  0  0  0  0  0  0  0
    4.5490   -3.7550   25.3310 O   0  0  0  0  0  0  0  0  0  0  0  0
    6.4000   -2.8470   26.4140 N   0  0  0  0  0  0  0  0  0  0  0  0
    5.7380   -1.8780   27.2190 C   0  0  0  0  0  0  0  0  0  0  0  0
    4.3560   -2.0740   27.3990 C   0  0  0  0  0  0  0  0  0  0  0  0
    4.0000   -3.2630   28.1630 N   0  0  0  0  0  0  0  0  0  0  0  0
    2.7470   -3.2520   28.2040 O   0  0  0  0  0  0  0  0  0  0  0  0
    2.2190   -2.1630   27.5360 C   0  0  0  0  0  0  0  0  0  0  0  0
    0.8990   -1.7950   27.3470 C   0  0  0  0  0  0  0  0  0  0  0  0
    3.2450   -1.4340   27.0390 N   0  0  0  0  0  0  0  0  0  0  0  0
    6.3590   -1.9370   28.5530 C   0  0  0  0  0  0  0  0  0  0  0  0
    7.1860   -0.7230   28.9300 C   0  0  0  0  0  0  0  0  0  0  0  0
    6.2220    0.4130   28.9460 C   0  0  0  0  0  0  0  0  0  0  0  0
    5.9930    0.7580   27.4880 C   0  0  0  0  0  0  0  0  0  0  0  0
    5.9600   -0.5370   26.6200 C   0  0  0  0  0  0  0  0  0  0  0  0
    5.7490   -4.9130   23.3970 C   0  0  0  0  0  0  0  0  0  0  0  0
    6.5720   -5.4630   22.4410 C   0  0  0  0  0  0  0  0  0  0  0  0
  1  2  1  0
  2  3  2  0
  2  4  1  0
  4  5  1  0
  5  6  1  0
  6  7  1  0
  7  8  1  0
  8  9  2  0
  8 10  1  0
 11 10  1  0
 11 12  1  0
 12 13  2  0
 13 14  1  0
 14 15  1  0
 15 16  1  0
 12 17  1  0
 15 17  2  0
 11 18  1  0
 18 19  1  0
 19 20  1  0
 20 21  1  0
 11 22  1  0
 21 22  1  0
  7 23  1  0
  4 24  1  0
 23 24  1  0
M  END
