piperidine-amides-2824-covalent
     RDKit          3D

 24 25  0  0  0  0  0  0  0  0999 V2000
    7.0810   -3.3370   19.3490 C   0  0  0  0  0  0  0  0  0  0  0  0
    6.3810   -4.1750   20.3140 C   0  0  0  0  0  0  0  0  0  0  0  0
    5.3770   -4.8030   19.9740 O   0  0  0  0  0  0  0  0  0  0  0  0
    6.8990   -4.3020   21.6450 N   0  0  0  0  0  0  0  0  0  0  0  0
    7.7280   -3.2410   22.1780 C   0  0  0  0  0  0  0  0  0  0  0  0
    7.4830   -3.0240   23.6420 C   0  0  0  0  0  0  0  0  0  0  0  0
    6.1560   -3.6670   23.9940 C   0  0  0  0  0  0  0  0  0  0  0  0
    5.7500   -3.2780   25.3640 C   0  0  0  0  0  0  0  0  0  0  0  0
    4.5960   -3.4640   25.7950 O   0  0  0  0  0  0  0  0  0  0  0  0
    6.7140   -2.6600   26.1880 N   0  0  0  0  0  0  0  0  0  0  0  0
    6.3280   -1.4390   26.8430 C   0  0  0  0  0  0  0  0  0  0  0  0
    5.6830   -0.4250   26.1220 C   0  0  0  0  0  0  0  0  0  0  0  0
    5.4430    0.5210   26.9130 N   0  0  0  0  0  0  0  0  0  0  0  0
    5.9380    0.0950   28.1230 N   0  0  0  0  0  0  0  0  0  0  0  0
    5.7600    1.0480   29.2170 C   0  0  0  0  0  0  0  0  0  0  0  0
    4.6890    0.5410   29.9600 C   0  0  0  0  0  0  0  0  0  0  0  0
    6.5870   -1.2090   28.2890 C   0  0  0  0  0  0  0  0  0  0  0  0
    6.7420   -0.7850   29.6750 C   0  0  0  0  0  0  0  0  0  0  0  0
    6.0040   -1.3350   30.5710 O   0  0  0  0  0  0  0  0  0  0  0  0
    7.6760    0.1760   30.0380 O   0  0  0  0  0  0  0  0  0  0  0  0
    7.6150    1.0030   31.1730 C   0  0  0  0  0  0  0  0  0  0  0  0
    8.5610    0.5500   32.0630 C   0  0  0  0  0  0  0  0  0  0  0  0
    6.0730   -5.1230   23.7320 C   0  0  0  0  0  0  0  0  0  0  0  0
    6.5830   -5.4630   22.4070 C   0  0  0  0  0  0  0  0  0  0  0  0
  1  2  1  0
  2  3  2  0
  2  4  1  0
  4  5  1  0
  5  6  1  0
  6  7  1  0
  7  8  1  0
  8  9  2  0
  8 10  1  0
 10 11  1  0
 11 12  1  0
 12 13  2  0
 13 14  1  0
 14 15  1  0
 15 16  1  0
 11 17  2  0
 14 17  1  0
 17 18  1  0
 18 19  2  0
 18 20  1  0
 20 21  1  0
 21 22  1  0
  7 23  1  0
  4 24  1  0
 23 24  1  0
M  END
