piperidine-amides-11116-covalent
     RDKit          3D

 20 20  0  0  0  0  0  0  0  0999 V2000
    7.1420   -3.2080   19.0980 C   0  0  0  0  0  0  0  0  0  0  0  0
    6.3310   -3.8540   20.1310 C   0  0  0  0  0  0  0  0  0  0  0  0
    5.2720   -4.4290   19.8280 O   0  0  0  0  0  0  0  0  0  0  0  0
    6.7480   -3.8720   21.4580 N   0  0  0  0  0  0  0  0  0  0  0  0
    7.6680   -2.9030   22.0010 C   0  0  0  0  0  0  0  0  0  0  0  0
    7.4600   -2.9310   23.4860 C   0  0  0  0  0  0  0  0  0  0  0  0
    6.0200   -3.1210   23.8680 C   0  0  0  0  0  0  0  0  0  0  0  0
    5.8260   -3.0860   25.3320 C   0  0  0  0  0  0  0  0  0  0  0  0
    4.6560   -3.0550   25.8250 O   0  0  0  0  0  0  0  0  0  0  0  0
    6.9180   -3.0770   26.2310 N   0  0  0  0  0  0  0  0  0  0  0  0
    7.0950   -4.1750   27.2040 C   0  0  0  0  0  0  0  0  0  0  0  0
    8.1190   -5.1120   26.6900 C   0  0  0  0  0  0  0  0  0  0  0  0
    9.0680   -4.5830   25.6990 C   0  0  0  0  0  0  0  0  0  0  0  0
    8.9590   -5.5230   27.8610 C   0  0  0  0  0  0  0  0  0  0  0  0
    7.7730   -6.1970   26.1510 O   0  0  0  0  0  0  0  0  0  0  0  0
    6.9340   -6.0400   25.0800 C   0  0  0  0  0  0  0  0  0  0  0  0
    7.4090   -6.8340   23.9050 C   0  0  0  0  0  0  0  0  0  0  0  0
    8.3370   -7.6660   23.8830 O   0  0  0  0  0  0  0  0  0  0  0  0
    5.4580   -4.3990   23.2600 C   0  0  0  0  0  0  0  0  0  0  0  0
    6.3000   -4.9500   22.2880 C   0  0  0  0  0  0  0  0  0  0  0  0
  1  2  1  0
  2  3  2  0
  2  4  1  0
  4  5  1  0
  5  6  1  0
  6  7  1  0
  7  8  1  0
  8  9  2  0
  8 10  1  0
 10 11  1  0
 11 12  1  0
 12 13  1  0
 12 14  1  0
 12 15  1  0
 15 16  1  0
 16 17  1  0
 17 18  1  0
  7 19  1  0
  4 20  1  0
 19 20  1  0
M  END
