piperidine-amides-155-covalent
     RDKit          3D

 18 19  0  0  0  0  0  0  0  0999 V2000
    7.1630   -3.3140   19.3900 C   0  0  0  0  0  0  0  0  0  0  0  0
    6.4460   -4.1180   20.3580 C   0  0  0  0  0  0  0  0  0  0  0  0
    5.4150   -4.7600   19.9660 O   0  0  0  0  0  0  0  0  0  0  0  0
    6.8800   -4.2290   21.6950 N   0  0  0  0  0  0  0  0  0  0  0  0
    7.7880   -3.1960   22.2260 C   0  0  0  0  0  0  0  0  0  0  0  0
    6.8270   -2.5460   23.2790 C   0  0  0  0  0  0  0  0  0  0  0  0
    6.3950   -3.6710   24.1940 C   0  0  0  0  0  0  0  0  0  0  0  0
    5.3470   -3.1200   25.2600 C   0  0  0  0  0  0  0  0  0  0  0  0
    4.2360   -3.1130   24.7590 O   0  0  0  0  0  0  0  0  0  0  0  0
    5.8880   -2.8190   26.3780 N   0  0  0  0  0  0  0  0  0  0  0  0
    6.3180   -2.4230   27.6100 C   0  0  1  0  0  0  0  0  0  0  0  0
    6.8020   -1.3330   28.2330 C   0  0  0  0  0  0  0  0  0  0  0  0
    5.9660   -1.4450   29.3420 C   0  0  1  0  0  0  0  0  0  0  0  0
    5.0100   -0.3610   29.6450 C   0  0  0  0  0  0  0  0  0  0  0  0
    5.7620    0.7680   29.9670 F   0  0  0  0  0  0  0  0  0  0  0  0
    5.3030   -2.6730   28.7290 C   0  0  0  0  0  0  0  0  0  0  0  0
    5.9030   -4.9960   23.5980 C   0  0  0  0  0  0  0  0  0  0  0  0
    6.6590   -5.4070   22.4870 C   0  0  0  0  0  0  0  0  0  0  0  0
  1  2  1  0
  2  3  2  0
  2  4  1  0
  4  5  1  0
  5  6  1  0
  6  7  1  0
  7  8  1  0
  8  9  2  0
  8 10  1  0
 11 10  1  6
 11 12  1  0
 12 13  1  0
 13 14  1  6
 14 15  1  0
 11 16  1  0
 13 16  1  0
  7 17  1  0
  4 18  1  0
 17 18  1  0
M  END
