piperidine-amides-122-covalent
     RDKit          3D

 21 23  0  0  0  0  0  0  0  0999 V2000
    7.1560   -3.3130   19.3870 C   0  0  0  0  0  0  0  0  0  0  0  0
    6.4330   -4.1250   20.3310 C   0  0  0  0  0  0  0  0  0  0  0  0
    5.3650   -4.7030   19.9480 O   0  0  0  0  0  0  0  0  0  0  0  0
    6.9140   -4.3310   21.6350 N   0  0  0  0  0  0  0  0  0  0  0  0
    6.5360   -5.5840   22.3120 C   0  0  0  0  0  0  0  0  0  0  0  0
    5.5450   -4.9660   23.3560 C   0  0  0  0  0  0  0  0  0  0  0  0
    6.4130   -4.0460   24.1770 C   0  0  0  0  0  0  0  0  0  0  0  0
    5.7680   -3.8750   25.6220 C   0  0  0  0  0  0  0  0  0  0  0  0
    5.3850   -4.9440   26.0410 O   0  0  0  0  0  0  0  0  0  0  0  0
    5.7870   -2.6620   25.9720 N   0  0  0  0  0  0  0  0  0  0  0  0
    5.7140   -1.3590   26.3280 C   0  0  2  0  0  0  0  0  0  0  0  0
    6.2780   -0.2820   26.2400 C   0  0  0  0  0  0  0  0  0  0  0  0
    6.5800   -0.8950   27.5410 C   0  0  1  0  0  0  0  0  0  0  0  0
    5.7390   -0.6710   28.7420 C   0  0  0  0  0  0  0  0  0  0  0  0
    5.1130   -2.0860   28.5400 C   0  0  0  0  0  0  0  0  0  0  0  0
    5.0610   -2.4360   29.9010 C   0  0  0  0  0  0  0  0  0  0  0  0
    4.6040   -1.6170   30.7270 O   0  0  0  0  0  0  0  0  0  0  0  0
    5.3330   -0.5240   31.0180 C   0  0  0  0  0  0  0  0  0  0  0  0
    6.4000   -0.2820   29.9810 C   0  0  0  0  0  0  0  0  0  0  0  0
    6.8910   -2.8710   23.3880 C   0  0  0  0  0  0  0  0  0  0  0  0
    7.6520   -3.3040   22.3300 C   0  0  0  0  0  0  0  0  0  0  0  0
  1  2  1  0
  2  3  2  0
  2  4  1  0
  4  5  1  0
  5  6  1  0
  6  7  1  0
  7  8  1  0
  8  9  2  0
  8 10  1  0
 11 10  1  6
 11 12  1  0
 11 13  1  0
 12 13  1  0
 13 14  1  1
 14 15  1  0
 15 16  1  0
 16 17  1  0
 17 18  1  0
 14 19  1  0
 18 19  1  0
  7 20  1  0
  4 21  1  0
 20 21  1  0
M  END
