piperidine-amides-4089-covalent
     RDKit          3D

 28 30  0  0  0  0  0  0  0  0999 V2000
    7.0770   -3.3310   19.2750 C   0  0  0  0  0  0  0  0  0  0  0  0
    6.3910   -4.1430   20.2940 C   0  0  0  0  0  0  0  0  0  0  0  0
    5.3250   -4.7010   19.9400 O   0  0  0  0  0  0  0  0  0  0  0  0
    6.9360   -4.3380   21.5890 N   0  0  0  0  0  0  0  0  0  0  0  0
    7.6290   -3.2460   22.1870 C   0  0  0  0  0  0  0  0  0  0  0  0
    7.3480   -3.0090   23.6010 C   0  0  0  0  0  0  0  0  0  0  0  0
    6.4480   -3.9710   24.2790 C   0  0  0  0  0  0  0  0  0  0  0  0
    5.6980   -3.3060   25.4040 C   0  0  0  0  0  0  0  0  0  0  0  0
    4.4690   -3.1300   25.2830 O   0  0  0  0  0  0  0  0  0  0  0  0
    6.3340   -2.8860   26.5980 N   0  0  0  0  0  0  0  0  0  0  0  0
    6.4570   -1.5690   27.1390 C   0  0  0  0  0  0  0  0  0  0  0  0
    7.1660   -1.2940   28.4050 C   0  0  0  0  0  0  0  0  0  0  0  0
    7.3450    0.1070   29.0760 C   0  0  0  0  0  0  0  0  0  0  0  0
    8.1970    0.2540   30.5370 S   0  0  0  0  0  0  0  0  0  0  0  0
    9.3800   -0.6220   30.3390 O   0  0  0  0  0  0  0  0  0  0  0  0
    7.3670   -0.2480   31.6610 O   0  0  0  0  0  0  0  0  0  0  0  0
    8.8050    1.6390   30.8970 N   0  0  0  0  0  0  0  0  0  0  0  0
   10.2180    1.7380   30.6460 C   0  0  0  0  0  0  0  0  0  0  0  0
   10.4780    3.2330   30.4520 C   0  0  0  0  0  0  0  0  0  0  0  0
    9.8180    4.0340   31.3580 O   0  0  0  0  0  0  0  0  0  0  0  0
    8.6430    3.6190   32.0200 C   0  0  0  0  0  0  0  0  0  0  0  0
    8.6030    2.0900   32.1480 C   0  0  0  0  0  0  0  0  0  0  0  0
    6.6890    1.1640   28.2590 C   0  0  0  0  0  0  0  0  0  0  0  0
    5.9570    0.9630   26.9720 C   0  0  0  0  0  0  0  0  0  0  0  0
    5.8290   -0.4220   26.3830 C   0  0  0  0  0  0  0  0  0  0  0  0
    5.1530   -0.6030   25.1980 O   0  0  0  0  0  0  0  0  0  0  0  0
    5.5550   -4.6890   23.3210 C   0  0  0  0  0  0  0  0  0  0  0  0
    6.4190   -5.3600   22.4580 C   0  0  0  0  0  0  0  0  0  0  0  0
  1  2  1  0
  2  3  2  0
  2  4  1  0
  4  5  1  0
  5  6  1  0
  6  7  1  0
  7  8  1  0
  8  9  2  0
  8 10  1  0
 10 11  1  0
 11 12  2  0
 12 13  1  0
 14 13  1  0
 14 15  2  0
 14 16  2  0
 14 17  1  0
 17 18  1  0
 18 19  1  0
 19 20  1  0
 20 21  1  0
 17 22  1  0
 21 22  1  0
 13 23  2  0
 23 24  1  0
 11 25  1  0
 24 25  2  0
 25 26  1  0
  7 27  1  0
  4 28  1  0
 27 28  1  0
M  END
