piperidine-amides-1173-covalent
     RDKit          3D

 23 25  0  0  0  0  0  0  0  0999 V2000
    7.0920   -3.3820   19.3080 C   0  0  0  0  0  0  0  0  0  0  0  0
    6.3940   -4.2420   20.3210 C   0  0  0  0  0  0  0  0  0  0  0  0
    5.3950   -4.9000   19.9940 O   0  0  0  0  0  0  0  0  0  0  0  0
    6.9090   -4.3090   21.6360 N   0  0  0  0  0  0  0  0  0  0  0  0
    7.8610   -3.3200   22.0900 C   0  0  0  0  0  0  0  0  0  0  0  0
    7.7380   -3.2110   23.6010 C   0  0  0  0  0  0  0  0  0  0  0  0
    6.3230   -3.5320   23.9280 C   0  0  0  0  0  0  0  0  0  0  0  0
    5.8620   -2.8270   25.1630 C   0  0  0  0  0  0  0  0  0  0  0  0
    4.7400   -3.1460   25.5710 O   0  0  0  0  0  0  0  0  0  0  0  0
    6.6960   -1.8410   25.7630 N   0  0  0  0  0  0  0  0  0  0  0  0
    6.3960   -0.9660   26.8650 C   0  0  2  0  0  0  0  0  0  0  0  0
    7.2830   -0.3550   27.6930 C   0  0  0  0  0  0  0  0  0  0  0  0
    6.7990   -0.4810   29.0820 C   0  0  0  0  0  0  0  0  0  0  0  0
    5.9650   -1.6380   29.3950 O   0  0  0  0  0  0  0  0  0  0  0  0
    6.4100   -2.6830   28.6310 C   0  0  0  0  0  0  0  0  0  0  0  0
    6.9460   -3.5370   27.2990 C   0  0  0  0  0  0  0  0  0  0  0  0
    7.3200   -3.6600   25.8030 C   0  0  0  0  0  0  0  0  0  0  0  0
    6.6520   -2.4600   27.2800 C   0  0  0  0  0  0  0  0  0  0  0  0
    6.3480   -1.3430   27.2590 C   0  0  0  0  0  0  0  0  0  0  0  0
    6.0880   -0.1380   26.9480 C   0  0  0  0  0  0  0  0  0  0  0  0
    6.0460   -1.1550   28.2330 C   0  0  0  0  0  0  0  0  0  0  0  0
    6.1920   -5.0140   23.8750 C   0  0  0  0  0  0  0  0  0  0  0  0
    6.6410   -5.4740   22.4550 C   0  0  0  0  0  0  0  0  0  0  0  0
  1  2  1  0
  2  3  2  0
  2  4  1  0
  4  5  1  0
  5  6  1  0
  6  7  1  0
  7  8  1  0
  8  9  2  0
  8 10  1  0
 11 10  1  1
 11 12  1  0
 12 13  1  0
 13 14  1  0
 14 15  1  0
 15 16  2  0
 16 17  1  0
 16 18  1  0
 18 19  2  0
 19 20  1  0
 11 21  1  0
 15 21  1  0
 20 21  2  0
  7 22  1  0
  4 23  1  0
 22 23  1  0
M  END
