piperidine-amides-15352-covalent
     RDKit          3D

 17 17  0  0  0  0  0  0  0  0999 V2000
    7.1090   -3.3000   19.2850 C   0  0  0  0  0  0  0  0  0  0  0  0
    6.3140   -4.0420   20.2730 C   0  0  0  0  0  0  0  0  0  0  0  0
    5.2710   -4.6260   19.9140 O   0  0  0  0  0  0  0  0  0  0  0  0
    6.7400   -4.1480   21.6080 N   0  0  0  0  0  0  0  0  0  0  0  0
    6.5350   -5.4070   22.3040 C   0  0  0  0  0  0  0  0  0  0  0  0
    6.1340   -5.1420   23.7770 C   0  0  0  0  0  0  0  0  0  0  0  0
    6.0220   -3.6490   24.0040 C   0  0  0  0  0  0  0  0  0  0  0  0
    5.5320   -3.3730   25.3770 C   0  0  0  0  0  0  0  0  0  0  0  0
    4.2990   -3.4140   25.5530 O   0  0  0  0  0  0  0  0  0  0  0  0
    6.4010   -3.0630   26.4540 N   0  0  0  0  0  0  0  0  0  0  0  0
    6.7330   -1.6740   26.6310 C   0  0  0  0  0  0  0  0  0  0  0  0
    6.8320   -1.3230   28.1110 C   0  0  0  0  0  0  0  0  0  0  0  0
    6.2570   -3.8630   27.6580 C   0  0  0  0  0  0  0  0  0  0  0  0
    6.0670   -5.2180   27.5260 C   0  0  0  0  0  0  0  0  0  0  0  0
    6.0240   -6.1920   28.5170 C   0  0  0  0  0  0  0  0  0  0  0  0
    7.2600   -2.9220   23.6490 C   0  0  0  0  0  0  0  0  0  0  0  0
    7.6070   -3.1590   22.2100 C   0  0  0  0  0  0  0  0  0  0  0  0
  1  2  1  0
  2  3  2  0
  2  4  1  0
  4  5  1  0
  5  6  1  0
  6  7  1  0
  7  8  1  0
  8  9  2  0
  8 10  1  0
 10 11  1  0
 11 12  1  0
 10 13  1  0
 13 14  1  0
 14 15  2  3
  7 16  1  0
  4 17  1  0
 16 17  1  0
M  END
