piperidine-amides-27092-covalent
     RDKit          3D

 26 29  0  0  0  0  0  0  0  0999 V2000
    6.9880   -3.3330   19.3710 C   0  0  0  0  0  0  0  0  0  0  0  0
    6.3560   -4.2290   20.3480 C   0  0  0  0  0  0  0  0  0  0  0  0
    5.3260   -4.8320   19.9660 O   0  0  0  0  0  0  0  0  0  0  0  0
    6.9040   -4.4360   21.6170 N   0  0  0  0  0  0  0  0  0  0  0  0
    6.6480   -5.6580   22.3320 C   0  0  0  0  0  0  0  0  0  0  0  0
    5.7830   -5.3200   23.5150 C   0  0  0  0  0  0  0  0  0  0  0  0
    6.4050   -4.2820   24.4180 C   0  0  0  0  0  0  0  0  0  0  0  0
    5.4380   -3.9060   25.4920 C   0  0  0  0  0  0  0  0  0  0  0  0
    4.2570   -3.6810   25.1590 O   0  0  0  0  0  0  0  0  0  0  0  0
    5.7770   -3.7520   26.8560 N   0  0  0  0  0  0  0  0  0  0  0  0
    5.9520   -4.8690   27.7590 C   0  0  0  0  0  0  0  0  0  0  0  0
    7.4530   -5.0350   28.1030 C   0  0  0  0  0  0  0  0  0  0  0  0
    8.4300   -4.5790   27.2200 C   0  0  0  0  0  0  0  0  0  0  0  0
    9.6800   -4.7160   26.5710 N   0  0  0  0  0  0  0  0  0  0  0  0
    9.9190   -3.6540   25.6780 N   0  0  0  0  0  0  0  0  0  0  0  0
   10.9160   -3.2510   24.8300 C   0  0  0  0  0  0  0  0  0  0  0  0
   10.3310   -2.7470   23.6670 C   0  0  0  0  0  0  0  0  0  0  0  0
   11.1320   -2.2460   22.6480 C   0  0  0  0  0  0  0  0  0  0  0  0
   12.4990   -2.2250   22.7530 C   0  0  0  0  0  0  0  0  0  0  0  0
   13.2400   -2.7370   23.9560 C   0  0  0  0  0  0  0  0  0  0  0  0
   12.2860   -3.2750   25.0250 C   0  0  0  0  0  0  0  0  0  0  0  0
    8.8210   -2.8180   25.7240 C   0  0  0  0  0  0  0  0  0  0  0  0
    7.8850   -3.3490   26.7010 C   0  0  0  0  0  0  0  0  0  0  0  0
    6.7260   -2.7970   27.0500 C   0  0  0  0  0  0  0  0  0  0  0  0
    6.7410   -3.0510   23.5670 C   0  0  0  0  0  0  0  0  0  0  0  0
    7.6020   -3.4120   22.3570 C   0  0  0  0  0  0  0  0  0  0  0  0
  1  2  1  0
  2  3  2  0
  2  4  1  0
  4  5  1  0
  5  6  1  0
  6  7  1  0
  7  8  1  0
  8  9  2  0
  8 10  1  0
 10 11  1  0
 11 12  1  0
 12 13  1  0
 13 14  2  0
 14 15  1  0
 15 16  1  0
 16 17  2  0
 17 18  1  0
 18 19  2  0
 19 20  1  0
 16 21  1  0
 20 21  2  0
 15 22  1  0
 13 23  1  0
 22 23  2  0
 10 24  1  0
 23 24  1  0
  7 25  1  0
  4 26  1  0
 25 26  1  0
M  END
