piperidine-amides-5514-covalent
     RDKit          3D

 20 21  0  0  0  0  0  0  0  0999 V2000
    7.1150   -3.2800   19.2440 C   0  0  0  0  0  0  0  0  0  0  0  0
    6.3590   -4.0350   20.2480 C   0  0  0  0  0  0  0  0  0  0  0  0
    5.3020   -4.5900   19.9040 O   0  0  0  0  0  0  0  0  0  0  0  0
    6.8180   -4.1920   21.5680 N   0  0  0  0  0  0  0  0  0  0  0  0
    6.6640   -5.4370   22.2860 C   0  0  0  0  0  0  0  0  0  0  0  0
    5.9620   -5.0910   23.5700 C   0  0  0  0  0  0  0  0  0  0  0  0
    6.0320   -3.6210   23.8480 C   0  0  0  0  0  0  0  0  0  0  0  0
    5.6310   -3.2550   25.2170 C   0  0  0  0  0  0  0  0  0  0  0  0
    4.4100   -3.0740   25.5090 O   0  0  0  0  0  0  0  0  0  0  0  0
    6.5720   -3.0880   26.2360 N   0  0  0  0  0  0  0  0  0  0  0  0
    6.1570   -2.9200   27.6330 C   0  0  0  0  0  0  0  0  0  0  0  0
    5.6410   -4.1990   28.1770 C   0  0  0  0  0  0  0  0  0  0  0  0
    5.7970   -5.4750   27.4420 C   0  0  0  0  0  0  0  0  0  0  0  0
    5.2450   -6.7270   28.0790 C   0  0  0  0  0  0  0  0  0  0  0  0
    4.5640   -6.6260   29.4240 C   0  0  0  0  0  0  0  0  0  0  0  0
    4.5000   -5.2660   29.9950 C   0  0  0  0  0  0  0  0  0  0  0  0
    5.0130   -4.1580   29.3850 C   0  0  0  0  0  0  0  0  0  0  0  0
    4.9820   -2.8450   29.8690 C   0  0  0  0  0  0  0  0  0  0  0  0
    7.4360   -3.0570   23.6090 C   0  0  0  0  0  0  0  0  0  0  0  0
    7.6860   -3.1550   22.1050 C   0  0  0  0  0  0  0  0  0  0  0  0
  1  2  1  0
  2  3  2  0
  2  4  1  0
  4  5  1  0
  5  6  1  0
  6  7  1  0
  7  8  1  0
  8  9  2  0
  8 10  1  0
 10 11  1  0
 11 12  1  0
 12 13  2  0
 13 14  1  0
 14 15  2  0
 15 16  1  0
 12 17  1  0
 16 17  2  0
 17 18  1  0
  7 19  1  0
  4 20  1  0
 19 20  1  0
M  END
