piperidine-amides-230-covalent
     RDKit          3D

 23 25  0  0  0  0  0  0  0  0999 V2000
    7.0910   -3.3950   19.2720 C   0  0  0  0  0  0  0  0  0  0  0  0
    6.3800   -4.1130   20.2990 C   0  0  0  0  0  0  0  0  0  0  0  0
    5.3190   -4.7190   19.9540 O   0  0  0  0  0  0  0  0  0  0  0  0
    6.8510   -4.2190   21.6240 N   0  0  0  0  0  0  0  0  0  0  0  0
    7.6940   -3.1330   22.1860 C   0  0  0  0  0  0  0  0  0  0  0  0
    6.7390   -2.6370   23.3290 C   0  0  0  0  0  0  0  0  0  0  0  0
    6.5640   -3.8520   24.1950 C   0  0  0  0  0  0  0  0  0  0  0  0
    5.7830   -3.5690   25.5510 C   0  0  0  0  0  0  0  0  0  0  0  0
    4.9470   -4.4310   25.7360 O   0  0  0  0  0  0  0  0  0  0  0  0
    6.1940   -2.5020   26.1160 N   0  0  0  0  0  0  0  0  0  0  0  0
    6.4760   -1.3450   26.7830 C   0  0  1  0  0  0  0  0  0  0  0  0
    5.9930   -0.0670   26.6730 C   0  0  0  0  0  0  0  0  0  0  0  0
    6.1210    0.6910   27.8450 C   0  0  0  0  0  0  0  0  0  0  0  0
    7.2830    0.2410   28.4760 O   0  0  0  0  0  0  0  0  0  0  0  0
    7.0490   -0.9100   29.1710 C   0  0  1  0  0  0  0  0  0  0  0  0
    6.5850   -0.4930   30.5720 C   0  0  0  0  0  0  0  0  0  0  0  0
    7.5640    0.0420   31.3470 C   0  0  0  0  0  0  0  0  0  0  0  0
    7.3650    0.5050   32.6900 C   0  0  0  0  0  0  0  0  0  0  0  0
    5.8020    0.1490   32.7680 C   0  0  0  0  0  0  0  0  0  0  0  0
    5.0850   -0.5570   31.3720 S   0  0  0  0  0  0  0  0  0  0  0  0
    6.3160   -1.8490   28.2580 C   0  0  0  0  0  0  0  0  0  0  0  0
    5.8440   -4.9930   23.4380 C   0  0  0  0  0  0  0  0  0  0  0  0
    6.6490   -5.4100   22.4150 C   0  0  0  0  0  0  0  0  0  0  0  0
  1  2  1  0
  2  3  2  0
  2  4  1  0
  4  5  1  0
  5  6  1  0
  6  7  1  0
  7  8  1  0
  8  9  2  0
  8 10  1  0
 11 10  1  6
 11 12  1  0
 12 13  1  0
 13 14  1  0
 14 15  1  0
 15 16  1  1
 16 17  2  0
 17 18  1  0
 18 19  2  0
 16 20  1  0
 19 20  1  0
 11 21  1  0
 15 21  1  0
  7 22  1  0
  4 23  1  0
 22 23  1  0
M  END
