piperidine-amides-2877-covalent
     RDKit          3D

 24 25  0  0  0  0  0  0  0  0999 V2000
    7.1150   -3.2800   19.2590 C   0  0  0  0  0  0  0  0  0  0  0  0
    6.3820   -4.0690   20.2400 C   0  0  0  0  0  0  0  0  0  0  0  0
    5.3360   -4.6380   19.9220 O   0  0  0  0  0  0  0  0  0  0  0  0
    6.9110   -4.2290   21.5620 N   0  0  0  0  0  0  0  0  0  0  0  0
    7.6330   -3.1450   22.1750 C   0  0  0  0  0  0  0  0  0  0  0  0
    6.8520   -2.6050   23.3390 C   0  0  0  0  0  0  0  0  0  0  0  0
    6.5360   -3.7680   24.2600 C   0  0  0  0  0  0  0  0  0  0  0  0
    5.7850   -3.2970   25.4650 C   0  0  0  0  0  0  0  0  0  0  0  0
    4.6260   -2.8420   25.3640 O   0  0  0  0  0  0  0  0  0  0  0  0
    6.3790   -3.3670   26.7540 N   0  0  0  0  0  0  0  0  0  0  0  0
    5.6620   -4.0710   27.8010 C   0  0  1  0  0  0  0  0  0  0  0  0
    6.4930   -5.1670   28.4160 C   0  0  0  0  0  0  0  0  0  0  0  0
    6.7010   -6.1490   27.4630 O   0  0  0  0  0  0  0  0  0  0  0  0
    5.1710   -3.1720   28.8930 C   0  0  0  0  0  0  0  0  0  0  0  0
    5.9300   -2.0350   29.3260 C   0  0  0  0  0  0  0  0  0  0  0  0
    7.1360   -1.7500   28.7430 C   0  0  0  0  0  0  0  0  0  0  0  0
    5.4960   -1.1860   30.3380 C   0  0  0  0  0  0  0  0  0  0  0  0
    4.3440   -1.2580   31.0710 C   0  0  0  0  0  0  0  0  0  0  0  0
    3.8690   -0.4500   32.0830 C   0  0  0  0  0  0  0  0  0  0  0  0
    3.5280   -2.4290   30.6490 C   0  0  0  0  0  0  0  0  0  0  0  0
    3.9970   -3.3030   29.5910 C   0  0  0  0  0  0  0  0  0  0  0  0
    3.1570   -4.3580   29.2850 C   0  0  0  0  0  0  0  0  0  0  0  0
    5.7240   -4.8240   23.5560 C   0  0  0  0  0  0  0  0  0  0  0  0
    6.4340   -5.3130   22.3380 C   0  0  0  0  0  0  0  0  0  0  0  0
  1  2  1  0
  2  3  2  0
  2  4  1  0
  4  5  1  0
  5  6  1  0
  6  7  1  0
  7  8  1  0
  8  9  2  0
  8 10  1  0
 10 11  1  0
 11 12  1  1
 12 13  1  0
 11 14  1  0
 14 15  2  0
 15 16  1  0
 15 17  1  0
 17 18  2  0
 18 19  1  0
 18 20  1  0
 14 21  1  0
 20 21  2  0
 21 22  1  0
  7 23  1  0
  4 24  1  0
 23 24  1  0
M  END
