piperidine-amides-5347-covalent
     RDKit          3D

 21 22  0  0  0  0  0  0  0  0999 V2000
    7.0780   -3.2710   19.2700 C   0  0  0  0  0  0  0  0  0  0  0  0
    6.3550   -4.0610   20.2980 C   0  0  0  0  0  0  0  0  0  0  0  0
    5.3060   -4.6190   19.9120 O   0  0  0  0  0  0  0  0  0  0  0  0
    6.8380   -4.2130   21.6160 N   0  0  0  0  0  0  0  0  0  0  0  0
    7.6520   -3.1960   22.2080 C   0  0  0  0  0  0  0  0  0  0  0  0
    7.3100   -2.9980   23.6080 C   0  0  0  0  0  0  0  0  0  0  0  0
    6.0250   -3.6410   23.9520 C   0  0  0  0  0  0  0  0  0  0  0  0
    5.5680   -3.3400   25.3360 C   0  0  0  0  0  0  0  0  0  0  0  0
    4.3540   -3.4590   25.5670 O   0  0  0  0  0  0  0  0  0  0  0  0
    6.4340   -2.9280   26.3700 N   0  0  0  0  0  0  0  0  0  0  0  0
    6.6020   -1.5020   26.7210 C   0  0  0  0  0  0  0  0  0  0  0  0
    6.3080   -1.2010   28.1560 C   0  0  0  0  0  0  0  0  0  0  0  0
    7.3560   -1.1100   29.1480 C   0  0  0  0  0  0  0  0  0  0  0  0
    7.1120   -0.8240   30.4640 C   0  0  0  0  0  0  0  0  0  0  0  0
    5.8160   -0.6090   30.9130 C   0  0  0  0  0  0  0  0  0  0  0  0
    4.7840   -0.6890   30.0130 C   0  0  0  0  0  0  0  0  0  0  0  0
    3.5050   -0.4800   30.4350 C   0  0  0  0  0  0  0  0  0  0  0  0
    2.9840   -1.5270   30.8570 O   0  0  0  0  0  0  0  0  0  0  0  0
    5.0270   -0.9770   28.6740 C   0  0  0  0  0  0  0  0  0  0  0  0
    6.0310   -5.1280   23.6690 C   0  0  0  0  0  0  0  0  0  0  0  0
    6.6960   -5.4460   22.3650 C   0  0  0  0  0  0  0  0  0  0  0  0
  1  2  1  0
  2  3  2  0
  2  4  1  0
  4  5  1  0
  5  6  1  0
  6  7  1  0
  7  8  1  0
  8  9  2  0
  8 10  1  0
 10 11  1  0
 11 12  1  0
 12 13  2  0
 13 14  1  0
 14 15  2  0
 15 16  1  0
 16 17  1  0
 17 18  1  0
 12 19  1  0
 16 19  2  0
  7 20  1  0
  4 21  1  0
 20 21  1  0
M  END
