piperidine-amides-9192-covalent
     RDKit          3D

 20 21  0  0  0  0  0  0  0  0999 V2000
    7.0570   -3.3520   19.3430 C   0  0  0  0  0  0  0  0  0  0  0  0
    6.3340   -4.1320   20.3460 C   0  0  0  0  0  0  0  0  0  0  0  0
    5.3690   -4.8260   19.9790 O   0  0  0  0  0  0  0  0  0  0  0  0
    6.7350   -4.1450   21.6960 N   0  0  0  0  0  0  0  0  0  0  0  0
    7.6660   -3.1540   22.2180 C   0  0  0  0  0  0  0  0  0  0  0  0
    7.4200   -3.0370   23.6960 C   0  0  0  0  0  0  0  0  0  0  0  0
    6.0920   -3.6080   24.0580 C   0  0  0  0  0  0  0  0  0  0  0  0
    5.6570   -3.2900   25.4450 C   0  0  0  0  0  0  0  0  0  0  0  0
    4.4380   -3.4220   25.7570 O   0  0  0  0  0  0  0  0  0  0  0  0
    6.5230   -2.8360   26.4710 N   0  0  0  0  0  0  0  0  0  0  0  0
    6.4000   -1.4560   27.0150 C   0  0  0  0  0  0  0  0  0  0  0  0
    7.1750   -1.3390   28.3050 C   0  0  0  0  0  0  0  0  0  0  0  0
    7.1460   -0.1260   28.8940 N   0  0  0  0  0  0  0  0  0  0  0  0
    6.4940    1.0320   28.4980 C   0  0  0  0  0  0  0  0  0  0  0  0
    5.7310    0.9120   27.2300 C   0  0  0  0  0  0  0  0  0  0  0  0
    5.6650   -0.3740   26.4300 C   0  0  0  0  0  0  0  0  0  0  0  0
    4.8740   -0.3980   25.1690 C   0  0  0  0  0  0  0  0  0  0  0  0
    5.6280   -0.2830   24.0290 C   0  0  0  0  0  0  0  0  0  0  0  0
    6.0620   -5.0990   23.8200 C   0  0  0  0  0  0  0  0  0  0  0  0
    6.6230   -5.3920   22.4380 C   0  0  0  0  0  0  0  0  0  0  0  0
  1  2  1  0
  2  3  2  0
  2  4  1  0
  4  5  1  0
  5  6  1  0
  6  7  1  0
  7  8  1  0
  8  9  2  0
  8 10  1  0
 10 11  1  0
 11 12  2  0
 12 13  1  0
 13 14  2  0
 14 15  1  0
 11 16  1  0
 15 16  2  0
 16 17  1  0
 17 18  1  0
  7 19  1  0
  4 20  1  0
 19 20  1  0
M  END
