piperidine-amides-11815-covalent
     RDKit          3D

 27 29  0  0  0  0  0  0  0  0999 V2000
    7.0630   -3.3800   19.3440 C   0  0  0  0  0  0  0  0  0  0  0  0
    6.3600   -4.1890   20.3270 C   0  0  0  0  0  0  0  0  0  0  0  0
    5.3620   -4.8170   19.9810 O   0  0  0  0  0  0  0  0  0  0  0  0
    6.8610   -4.2940   21.6750 N   0  0  0  0  0  0  0  0  0  0  0  0
    7.6990   -3.2520   22.2270 C   0  0  0  0  0  0  0  0  0  0  0  0
    7.3780   -3.0460   23.6820 C   0  0  0  0  0  0  0  0  0  0  0  0
    6.0240   -3.6910   23.9160 C   0  0  0  0  0  0  0  0  0  0  0  0
    5.4190   -3.3170   25.2270 C   0  0  0  0  0  0  0  0  0  0  0  0
    4.1990   -3.0960   25.3370 O   0  0  0  0  0  0  0  0  0  0  0  0
    6.2180   -3.2010   26.3810 N   0  0  0  0  0  0  0  0  0  0  0  0
    6.5890   -1.8820   26.8400 C   0  0  0  0  0  0  0  0  0  0  0  0
    6.8260   -1.9780   28.2840 C   0  0  0  0  0  0  0  0  0  0  0  0
    5.8860   -1.0950   28.5500 N   0  0  0  0  0  0  0  0  0  0  0  0
    6.4360   -0.0570   29.2140 C   0  0  0  0  0  0  0  0  0  0  0  0
    7.4380   -0.1120   30.1770 C   0  0  0  0  0  0  0  0  0  0  0  0
    7.8460    1.0800   30.7310 C   0  0  0  0  0  0  0  0  0  0  0  0
    7.2840    2.3840   30.3600 C   0  0  0  0  0  0  0  0  0  0  0  0
    7.5890    3.6420   30.8290 C   0  0  0  0  0  0  0  0  0  0  0  0
    8.7950    4.0280   31.1680 O   0  0  0  0  0  0  0  0  0  0  0  0
    6.5810    4.5900   30.9660 O   0  0  0  0  0  0  0  0  0  0  0  0
    5.4190    4.2410   31.6890 C   0  0  0  0  0  0  0  0  0  0  0  0
    5.5880    4.7440   32.9760 C   0  0  0  0  0  0  0  0  0  0  0  0
    6.2610    2.2850   29.3540 C   0  0  0  0  0  0  0  0  0  0  0  0
    5.8740    1.0760   28.8200 N   0  0  0  0  0  0  0  0  0  0  0  0
    5.6390   -0.8490   27.1290 C   0  0  0  0  0  0  0  0  0  0  0  0
    6.1270   -5.1830   23.7830 C   0  0  0  0  0  0  0  0  0  0  0  0
    6.5900   -5.4920   22.3960 C   0  0  0  0  0  0  0  0  0  0  0  0
  1  2  1  0
  2  3  2  0
  2  4  1  0
  4  5  1  0
  5  6  1  0
  6  7  1  0
  7  8  1  0
  8  9  2  0
  8 10  1  0
 10 11  1  0
 11 12  1  0
 12 13  1  0
 13 14  1  0
 14 15  2  0
 15 16  1  0
 16 17  2  0
 17 18  1  0
 18 19  2  0
 18 20  1  0
 20 21  1  0
 21 22  1  0
 17 23  1  0
 14 24  1  0
 23 24  2  0
 11 25  1  0
 13 25  1  0
  7 26  1  0
  4 27  1  0
 26 27  1  0
M  END
