piperidine-amides-13393-covalent
     RDKit          3D

 25 27  0  0  0  0  0  0  0  0999 V2000
    7.0360   -3.3290   19.3460 C   0  0  0  0  0  0  0  0  0  0  0  0
    6.3460   -4.1960   20.3450 C   0  0  0  0  0  0  0  0  0  0  0  0
    5.3660   -4.8630   19.9800 O   0  0  0  0  0  0  0  0  0  0  0  0
    6.8370   -4.2690   21.6680 N   0  0  0  0  0  0  0  0  0  0  0  0
    6.7260   -5.4970   22.4300 C   0  0  0  0  0  0  0  0  0  0  0  0
    6.0460   -5.1690   23.7660 C   0  0  0  0  0  0  0  0  0  0  0  0
    6.1850   -3.7050   23.9860 C   0  0  0  0  0  0  0  0  0  0  0  0
    5.8770   -3.2840   25.3770 C   0  0  0  0  0  0  0  0  0  0  0  0
    5.7420   -4.1660   26.2190 O   0  0  0  0  0  0  0  0  0  0  0  0
    5.7110   -1.9280   25.6520 N   0  0  0  0  0  0  0  0  0  0  0  0
    6.2340   -1.1190   26.7000 C   0  0  2  0  0  0  0  0  0  0  0  0
    7.0240   -1.6250   27.6840 C   0  0  0  0  0  0  0  0  0  0  0  0
    6.8690   -1.1740   28.9770 C   0  0  0  0  0  0  0  0  0  0  0  0
    6.4080    0.3890   29.3900 S   0  0  0  0  0  0  0  0  0  0  0  0
    5.3940    0.3140   30.5190 O   0  0  0  0  0  0  0  0  0  0  0  0
    7.6130    1.1720   29.7610 O   0  0  0  0  0  0  0  0  0  0  0  0
    5.6880    0.9460   27.9120 C   0  0  0  0  0  0  0  0  0  0  0  0
    6.3070    1.8360   26.8940 C   0  0  0  0  0  0  0  0  0  0  0  0
    5.4090    2.9600   26.3490 C   0  0  0  0  0  0  0  0  0  0  0  0
    4.7160    3.5610   27.3660 O   0  0  0  0  0  0  0  0  0  0  0  0
    4.8140    2.8290   28.5220 C   0  0  0  0  0  0  0  0  0  0  0  0
    4.5460    1.4840   28.3500 C   0  0  0  0  0  0  0  0  0  0  0  0
    5.2530   -0.2480   27.3420 C   0  0  0  0  0  0  0  0  0  0  0  0
    7.5020   -3.1350   23.5680 C   0  0  0  0  0  0  0  0  0  0  0  0
    7.6530   -3.2090   22.2100 C   0  0  0  0  0  0  0  0  0  0  0  0
  1  2  1  0
  2  3  2  0
  2  4  1  0
  4  5  1  0
  5  6  1  0
  6  7  1  0
  7  8  1  0
  8  9  2  0
  8 10  1  0
 11 10  1  1
 11 12  1  0
 12 13  1  0
 14 13  1  0
 14 15  2  0
 14 16  2  0
 14 17  1  0
 17 18  1  0
 18 19  1  0
 19 20  1  0
 20 21  1  0
 17 22  1  0
 21 22  1  0
 11 23  1  0
 17 23  1  0
  7 24  1  0
  4 25  1  0
 24 25  1  0
M  END
