piperidine-amides-3641-covalent
     RDKit          3D

 16 16  0  0  0  0  0  0  0  0999 V2000
    7.1440   -3.2960   19.2040 C   0  0  0  0  0  0  0  0  0  0  0  0
    6.3970   -4.0340   20.2350 C   0  0  0  0  0  0  0  0  0  0  0  0
    5.3020   -4.5390   19.8880 O   0  0  0  0  0  0  0  0  0  0  0  0
    6.9280   -4.2180   21.5370 N   0  0  0  0  0  0  0  0  0  0  0  0
    6.4820   -5.3410   22.2840 C   0  0  0  0  0  0  0  0  0  0  0  0
    6.0020   -4.9990   23.6190 C   0  0  0  0  0  0  0  0  0  0  0  0
    5.9520   -3.5460   23.9040 C   0  0  0  0  0  0  0  0  0  0  0  0
    5.5180   -3.2600   25.2980 C   0  0  0  0  0  0  0  0  0  0  0  0
    4.4230   -2.7010   25.4940 O   0  0  0  0  0  0  0  0  0  0  0  0
    6.3100   -3.6130   26.3880 N   0  0  0  0  0  0  0  0  0  0  0  0
    5.9530   -4.4220   27.4770 C   0  0  1  0  0  0  0  0  0  0  0  0
    6.2580   -5.8480   27.5750 C   0  0  0  0  0  0  0  0  0  0  0  0
    6.5680   -3.8500   28.6960 C   0  0  0  0  0  0  0  0  0  0  0  0
    6.7130   -2.4850   28.8470 C   0  0  0  0  0  0  0  0  0  0  0  0
    7.2880   -2.9510   23.5750 C   0  0  0  0  0  0  0  0  0  0  0  0
    7.6580   -3.1410   22.1500 C   0  0  0  0  0  0  0  0  0  0  0  0
  1  2  1  0
  2  3  2  0
  2  4  1  0
  4  5  1  0
  5  6  1  0
  6  7  1  0
  7  8  1  0
  8  9  2  0
  8 10  1  0
 10 11  1  0
 11 12  1  6
 11 13  1  0
 13 14  1  0
  7 15  1  0
  4 16  1  0
 15 16  1  0
M  END
