piperidine-amides-14481-covalent
     RDKit          3D

 23 25  0  0  0  0  0  0  0  0999 V2000
    7.0980   -3.2790   19.2470 C   0  0  0  0  0  0  0  0  0  0  0  0
    6.3560   -4.0540   20.2440 C   0  0  0  0  0  0  0  0  0  0  0  0
    5.2880   -4.5830   19.8940 O   0  0  0  0  0  0  0  0  0  0  0  0
    6.8720   -4.2300   21.5530 N   0  0  0  0  0  0  0  0  0  0  0  0
    7.7120   -3.2170   22.1270 C   0  0  0  0  0  0  0  0  0  0  0  0
    7.0470   -2.6680   23.3400 C   0  0  0  0  0  0  0  0  0  0  0  0
    6.6320   -3.8620   24.1560 C   0  0  0  0  0  0  0  0  0  0  0  0
    5.9430   -3.3540   25.3820 C   0  0  0  0  0  0  0  0  0  0  0  0
    4.7850   -3.7120   25.5940 O   0  0  0  0  0  0  0  0  0  0  0  0
    6.7000   -2.4870   26.1550 N   0  0  0  0  0  0  0  0  0  0  0  0
    6.5080   -2.2400   27.5410 C   0  0  0  0  0  0  0  0  0  0  0  0
    7.0940   -1.0110   27.9110 C   0  0  0  0  0  0  0  0  0  0  0  0
    6.8570    0.1370   27.1270 C   0  0  0  0  0  0  0  0  0  0  0  0
    7.3810    1.4190   27.3730 C   0  0  0  0  0  0  0  0  0  0  0  0
    8.2390    1.4510   28.5770 C   0  0  0  0  0  0  0  0  0  0  0  0
    8.5090    0.2970   29.4060 C   0  0  0  0  0  0  0  0  0  0  0  0
    7.9010   -0.9840   29.0460 C   0  0  0  0  0  0  0  0  0  0  0  0
    9.3560    0.6670   30.4560 N   0  0  0  0  0  0  0  0  0  0  0  0
    9.5570    2.1260   30.1690 C   0  0  0  0  0  0  0  0  0  0  0  0
    8.8600    2.4970   29.0460 N   0  0  0  0  0  0  0  0  0  0  0  0
    8.8270    3.7320   28.5190 C   0  0  0  0  0  0  0  0  0  0  0  0
    5.6660   -4.7120   23.3690 C   0  0  0  0  0  0  0  0  0  0  0  0
    6.4210   -5.3240   22.3830 C   0  0  0  0  0  0  0  0  0  0  0  0
  1  2  1  0
  2  3  2  0
  2  4  1  0
  4  5  1  0
  5  6  1  0
  6  7  1  0
  7  8  1  0
  8  9  2  0
  8 10  1  0
 10 11  1  0
 11 12  1  0
 12 13  2  0
 13 14  1  0
 14 15  2  0
 15 16  1  0
 12 17  1  0
 16 17  2  0
 16 18  1  0
 18 19  2  0
 15 20  1  0
 19 20  1  0
 20 21  1  0
  7 22  1  0
  4 23  1  0
 22 23  1  0
M  END
