piperidine-amides-32555-covalent
     RDKit          3D

 28 29  0  0  0  0  0  0  0  0999 V2000
    7.0380   -3.3470   19.3700 C   0  0  0  0  0  0  0  0  0  0  0  0
    6.3610   -4.2310   20.3560 C   0  0  0  0  0  0  0  0  0  0  0  0
    5.3790   -4.8980   19.9890 O   0  0  0  0  0  0  0  0  0  0  0  0
    6.8730   -4.3220   21.6710 N   0  0  0  0  0  0  0  0  0  0  0  0
    6.6970   -5.5450   22.4370 C   0  0  0  0  0  0  0  0  0  0  0  0
    6.1700   -5.2040   23.8490 C   0  0  0  0  0  0  0  0  0  0  0  0
    6.1910   -3.7240   23.9950 C   0  0  0  0  0  0  0  0  0  0  0  0
    5.5770   -3.1810   25.2310 C   0  0  0  0  0  0  0  0  0  0  0  0
    5.0020   -2.1020   25.0980 O   0  0  0  0  0  0  0  0  0  0  0  0
    5.6020   -3.8350   26.4660 N   0  0  0  0  0  0  0  0  0  0  0  0
    4.4600   -4.4070   27.0700 C   0  0  0  0  0  0  0  0  0  0  0  0
    4.5030   -5.2010   28.2010 C   0  0  0  0  0  0  0  0  0  0  0  0
    5.5130   -5.0310   29.1290 C   0  0  0  0  0  0  0  0  0  0  0  0
    5.0840   -4.0730   30.0240 O   0  0  0  0  0  0  0  0  0  0  0  0
    5.8000   -6.2260   29.7600 C   0  0  0  0  0  0  0  0  0  0  0  0
    5.1790   -6.5110   31.0960 C   0  0  0  0  0  0  0  0  0  0  0  0
    4.3290   -7.6360   31.0560 N   0  0  0  0  0  0  0  0  0  0  0  0
    3.6020   -8.0030   32.2490 C   0  0  0  0  0  0  0  0  0  0  0  0
    2.5970   -8.9480   32.3650 O   0  0  0  0  0  0  0  0  0  0  0  0
    4.0430   -7.2540   33.3120 O   0  0  0  0  0  0  0  0  0  0  0  0
    4.9530   -7.9420   34.0860 C   0  0  0  0  0  0  0  0  0  0  0  0
    5.6920   -8.8950   33.4290 C   0  0  0  0  0  0  0  0  0  0  0  0
    5.9570   -7.0780   34.7540 C   0  0  0  0  0  0  0  0  0  0  0  0
    4.1820   -8.6680   35.1840 C   0  0  0  0  0  0  0  0  0  0  0  0
    6.5970   -4.5090   28.4740 C   0  0  0  0  0  0  0  0  0  0  0  0
    6.3680   -3.3000   27.5490 C   0  0  0  0  0  0  0  0  0  0  0  0
    7.5190   -3.1350   23.6970 C   0  0  0  0  0  0  0  0  0  0  0  0
    7.7340   -3.2690   22.2000 C   0  0  0  0  0  0  0  0  0  0  0  0
  1  2  1  0
  2  3  2  0
  2  4  1  0
  4  5  1  0
  5  6  1  0
  6  7  1  0
  7  8  1  0
  8  9  2  0
  8 10  1  0
 10 11  1  0
 11 12  1  0
 12 13  1  0
 13 14  1  0
 13 15  1  0
 15 16  1  0
 16 17  1  0
 17 18  1  0
 18 19  2  0
 18 20  1  0
 21 20  1  0
 21 22  1  0
 21 23  1  0
 21 24  1  0
 13 25  1  0
 10 26  1  0
 25 26  1  0
  7 27  1  0
  4 28  1  0
 27 28  1  0
M  END
