piperidine-amides-27532-covalent
     RDKit          3D

 26 29  0  0  0  0  0  0  0  0999 V2000
    6.9830   -3.3750   19.4470 C   0  0  0  0  0  0  0  0  0  0  0  0
    6.3680   -4.2700   20.4410 C   0  0  0  0  0  0  0  0  0  0  0  0
    5.4120   -4.9670   20.0070 O   0  0  0  0  0  0  0  0  0  0  0  0
    6.8440   -4.3660   21.7670 N   0  0  0  0  0  0  0  0  0  0  0  0
    6.7210   -5.6180   22.4980 C   0  0  0  0  0  0  0  0  0  0  0  0
    6.2950   -5.3480   23.9270 C   0  0  0  0  0  0  0  0  0  0  0  0
    6.2030   -3.8750   24.1980 C   0  0  0  0  0  0  0  0  0  0  0  0
    5.6690   -3.5150   25.5660 C   0  0  0  0  0  0  0  0  0  0  0  0
    4.6950   -2.7350   25.5410 O   0  0  0  0  0  0  0  0  0  0  0  0
    6.0870   -3.9300   26.8830 N   0  0  0  0  0  0  0  0  0  0  0  0
    5.2610   -3.5930   28.0380 C   0  0  0  0  0  0  0  0  0  0  0  0
    4.8380   -4.8380   28.8560 C   0  0  0  0  0  0  0  0  0  0  0  0
    6.0690   -5.4730   29.3380 N   0  0  0  0  0  0  0  0  0  0  0  0
    6.2400   -6.6510   30.0370 C   0  0  0  0  0  0  0  0  0  0  0  0
    5.9680   -7.0380   31.3190 C   0  0  0  0  0  0  0  0  0  0  0  0
    6.3790   -8.3320   31.7140 C   0  0  0  0  0  0  0  0  0  0  0  0
    7.0650   -9.3340   30.8710 C   0  0  0  0  0  0  0  0  0  0  0  0
    7.3250   -9.1170   29.6770 C   0  0  0  0  0  0  0  0  0  0  0  0
    6.8220   -7.5680   29.3190 C   0  0  0  0  0  0  0  0  0  0  0  0
    7.9970  -10.2890   29.1840 C   0  0  0  0  0  0  0  0  0  0  0  0
    8.3840  -11.3720   30.0280 C   0  0  0  0  0  0  0  0  0  0  0  0
    7.5220  -11.1430   31.2670 C   0  0  0  0  0  0  0  0  0  0  0  0
    7.2980   -5.1650   28.5930 C   0  0  0  0  0  0  0  0  0  0  0  0
    7.0810   -4.9470   27.0850 C   0  0  0  0  0  0  0  0  0  0  0  0
    7.5010   -3.2180   23.8530 C   0  0  0  0  0  0  0  0  0  0  0  0
    7.6570   -3.2780   22.3190 C   0  0  0  0  0  0  0  0  0  0  0  0
  1  2  1  0
  2  3  2  0
  2  4  1  0
  4  5  1  0
  5  6  1  0
  6  7  1  0
  7  8  1  0
  8  9  2  0
  8 10  1  0
 10 11  1  0
 11 12  1  0
 12 13  1  0
 13 14  1  0
 14 15  2  0
 15 16  1  0
 16 17  2  0
 17 18  1  0
 14 19  1  0
 18 19  2  0
 18 20  1  0
 20 21  1  0
 17 22  1  0
 21 22  1  0
 13 23  1  0
 10 24  1  0
 23 24  1  0
  7 25  1  0
  4 26  1  0
 25 26  1  0
M  END
