piperidine-amides-8658-covalent
     RDKit          3D

 23 25  0  0  0  0  0  0  0  0999 V2000
    7.1080   -3.3460   19.2880 C   0  0  0  0  0  0  0  0  0  0  0  0
    6.3760   -4.1330   20.2720 C   0  0  0  0  0  0  0  0  0  0  0  0
    5.3080   -4.6670   19.9300 O   0  0  0  0  0  0  0  0  0  0  0  0
    6.9300   -4.3160   21.5570 N   0  0  0  0  0  0  0  0  0  0  0  0
    7.7270   -3.2700   22.1270 C   0  0  0  0  0  0  0  0  0  0  0  0
    6.9860   -2.6900   23.2730 C   0  0  0  0  0  0  0  0  0  0  0  0
    6.6410   -3.8680   24.1410 C   0  0  0  0  0  0  0  0  0  0  0  0
    5.8840   -3.3710   25.3200 C   0  0  0  0  0  0  0  0  0  0  0  0
    4.6880   -3.6610   25.3770 O   0  0  0  0  0  0  0  0  0  0  0  0
    6.5750   -2.6090   26.2500 N   0  0  0  0  0  0  0  0  0  0  0  0
    5.8880   -1.9790   27.3110 C   0  0  1  0  0  0  0  0  0  0  0  0
    6.4470   -2.0130   28.5570 C   0  0  0  0  0  0  0  0  0  0  0  0
    6.7670   -0.7000   28.9130 C   0  0  0  0  0  0  0  0  0  0  0  0
    6.1880    0.2600   27.9900 O   0  0  0  0  0  0  0  0  0  0  0  0
    6.0200    0.3490   26.6130 C   0  0  0  0  0  0  0  0  0  0  0  0
    6.1920    1.4860   27.2710 C   0  0  0  0  0  0  0  0  0  0  0  0
    6.1770    0.4010   28.0660 F   0  0  0  0  0  0  0  0  0  0  0  0
    6.1630    2.3820   26.2020 C   0  0  0  0  0  0  0  0  0  0  0  0
    6.2730    1.9220   27.6940 C   0  0  0  0  0  0  0  0  0  0  0  0
    6.2360    0.5080   28.6200 C   0  0  0  0  0  0  0  0  0  0  0  0
    6.0170   -0.5450   27.3330 C   0  0  0  0  0  0  0  0  0  0  0  0
    5.7480   -4.8320   23.3940 C   0  0  0  0  0  0  0  0  0  0  0  0
    6.5030   -5.4070   22.3950 C   0  0  0  0  0  0  0  0  0  0  0  0
  1  2  1  0
  2  3  2  0
  2  4  1  0
  4  5  1  0
  5  6  1  0
  6  7  1  0
  7  8  1  0
  8  9  2  0
  8 10  1  0
 11 10  1  6
 11 12  1  0
 12 13  1  0
 13 14  1  0
 14 15  1  0
 15 16  2  0
 16 17  1  0
 16 18  1  0
 18 19  2  0
 19 20  1  0
 11 21  1  0
 15 21  1  0
 20 21  2  0
  7 22  1  0
  4 23  1  0
 22 23  1  0
M  END
