piperidine-amides-33408-covalent
     RDKit          3D

 30 33  0  0  0  0  0  0  0  0999 V2000
    7.1280   -3.3380   19.2440 C   0  0  0  0  0  0  0  0  0  0  0  0
    6.4400   -4.1260   20.2730 C   0  0  0  0  0  0  0  0  0  0  0  0
    5.3600   -4.6800   19.9420 O   0  0  0  0  0  0  0  0  0  0  0  0
    7.0170   -4.3010   21.5550 N   0  0  0  0  0  0  0  0  0  0  0  0
    6.5070   -5.3410   22.3670 C   0  0  0  0  0  0  0  0  0  0  0  0
    5.9870   -4.8880   23.6590 C   0  0  0  0  0  0  0  0  0  0  0  0
    6.5960   -3.6610   24.2500 C   0  0  0  0  0  0  0  0  0  0  0  0
    5.7850   -3.1670   25.4030 C   0  0  0  0  0  0  0  0  0  0  0  0
    4.5920   -2.8690   25.2070 O   0  0  0  0  0  0  0  0  0  0  0  0
    6.3080   -3.0190   26.7060 N   0  0  0  0  0  0  0  0  0  0  0  0
    6.1690   -3.9820   27.7390 C   0  0  0  0  0  0  0  0  0  0  0  0
    5.4770   -5.2350   27.5030 C   0  0  0  0  0  0  0  0  0  0  0  0
    5.3680   -6.5210   28.3700 C   0  0  0  0  0  0  0  0  0  0  0  0
    4.5040   -7.4470   27.5660 N   0  0  0  0  0  0  0  0  0  0  0  0
    4.1170   -6.9150   26.4150 N   0  0  0  0  0  0  0  0  0  0  0  0
    3.3310   -7.6860   25.6150 C   0  0  0  0  0  0  0  0  0  0  0  0
    4.6300   -5.6030   26.2610 C   0  0  0  0  0  0  0  0  0  0  0  0
    6.3820   -1.7200   27.3180 C   0  0  0  0  0  0  0  0  0  0  0  0
    5.8390   -0.4910   26.6240 C   0  0  0  0  0  0  0  0  0  0  0  0
    5.8880    0.8690   27.2460 C   0  0  0  0  0  0  0  0  0  0  0  0
    6.5250    0.9320   28.6310 C   0  0  0  0  0  0  0  0  0  0  0  0
    7.0690   -0.3510   29.2920 C   0  0  0  0  0  0  0  0  0  0  0  0
    6.9580   -1.6470   28.5620 C   0  0  0  0  0  0  0  0  0  0  0  0
    7.6470   -0.3000   30.5450 C   0  0  0  0  0  0  0  0  0  0  0  0
    7.5640    0.8890   31.2530 C   0  0  0  0  0  0  0  0  0  0  0  0
    7.4380    2.1440   30.4030 C   0  0  0  0  0  0  0  0  0  0  0  0
    8.2140    3.2100   30.8310 O   0  0  0  0  0  0  0  0  0  0  0  0
    6.6380    2.1490   29.3420 N   0  0  0  0  0  0  0  0  0  0  0  0
    6.8350   -2.6090   23.2270 C   0  0  0  0  0  0  0  0  0  0  0  0
    7.6990   -3.1880   22.1400 C   0  0  0  0  0  0  0  0  0  0  0  0
  1  2  1  0
  2  3  2  0
  2  4  1  0
  4  5  1  0
  5  6  1  0
  6  7  1  0
  7  8  1  0
  8  9  2  0
  8 10  1  0
 10 11  1  0
 11 12  1  0
 12 13  1  0
 13 14  2  0
 14 15  1  0
 15 16  1  0
 12 17  2  0
 15 17  1  0
 10 18  1  0
 18 19  2  0
 19 20  1  0
 20 21  2  0
 21 22  1  0
 18 23  1  0
 22 23  2  0
 22 24  1  0
 24 25  1  0
 25 26  1  0
 26 27  2  0
 21 28  1  0
 26 28  1  0
  7 29  1  0
  4 30  1  0
 29 30  1  0
M  END
