piperidine-amides-9264-covalent
     RDKit          3D

 19 19  0  0  0  0  0  0  0  0999 V2000
    7.1510   -3.2630   19.1820 C   0  0  0  0  0  0  0  0  0  0  0  0
    6.3710   -3.9910   20.1820 C   0  0  0  0  0  0  0  0  0  0  0  0
    5.2850   -4.5020   19.8650 O   0  0  0  0  0  0  0  0  0  0  0  0
    6.8610   -4.1720   21.4770 N   0  0  0  0  0  0  0  0  0  0  0  0
    7.7260   -3.2000   22.1140 C   0  0  0  0  0  0  0  0  0  0  0  0
    6.9400   -2.6740   23.2770 C   0  0  0  0  0  0  0  0  0  0  0  0
    6.4480   -3.8020   24.1200 C   0  0  0  0  0  0  0  0  0  0  0  0
    5.7620   -3.3620   25.3540 C   0  0  0  0  0  0  0  0  0  0  0  0
    4.6250   -2.8080   25.2960 O   0  0  0  0  0  0  0  0  0  0  0  0
    6.3270   -3.5370   26.6340 N   0  0  0  0  0  0  0  0  0  0  0  0
    6.2990   -4.8740   27.2670 C   0  0  2  0  0  0  0  0  0  0  0  0
    4.9090   -5.3050   27.4120 C   0  0  0  0  0  0  0  0  0  0  0  0
    4.2520   -4.8860   28.4030 O   0  0  0  0  0  0  0  0  0  0  0  0
    6.8710   -4.8320   28.6770 C   0  0  0  0  0  0  0  0  0  0  0  0
    6.9560   -6.2980   28.9880 C   0  0  0  0  0  0  0  0  0  0  0  0
    5.5970   -6.8890   29.2870 C   0  0  0  0  0  0  0  0  0  0  0  0
    5.6820   -7.5260   30.6180 C   0  0  0  0  0  0  0  0  0  0  0  0
    5.5830   -4.7230   23.2900 C   0  0  0  0  0  0  0  0  0  0  0  0
    6.3400   -5.2670   22.2520 C   0  0  0  0  0  0  0  0  0  0  0  0
  1  2  1  0
  2  3  2  0
  2  4  1  0
  4  5  1  0
  5  6  1  0
  6  7  1  0
  7  8  1  0
  8  9  2  0
  8 10  1  0
 10 11  1  0
 11 12  1  1
 12 13  1  0
 11 14  1  0
 14 15  1  0
 15 16  3  0
 16 17  1  0
  7 18  1  0
  4 19  1  0
 18 19  1  0
M  END
