piperidine-amides-30513-covalent
     RDKit          3D

 27 29  0  0  0  0  0  0  0  0999 V2000
    7.0430   -3.3690   19.3880 C   0  0  0  0  0  0  0  0  0  0  0  0
    6.3920   -4.2240   20.3800 C   0  0  0  0  0  0  0  0  0  0  0  0
    5.4270   -4.9180   20.0070 O   0  0  0  0  0  0  0  0  0  0  0  0
    6.8560   -4.3080   21.7150 N   0  0  0  0  0  0  0  0  0  0  0  0
    7.7250   -3.2710   22.2740 C   0  0  0  0  0  0  0  0  0  0  0  0
    7.3650   -3.0490   23.7280 C   0  0  0  0  0  0  0  0  0  0  0  0
    6.1270   -3.8020   24.0850 C   0  0  0  0  0  0  0  0  0  0  0  0
    5.5550   -3.5340   25.4490 C   0  0  0  0  0  0  0  0  0  0  0  0
    4.4520   -2.9180   25.5050 O   0  0  0  0  0  0  0  0  0  0  0  0
    6.0930   -3.8830   26.7250 N   0  0  0  0  0  0  0  0  0  0  0  0
    5.8140   -2.9990   27.8630 C   0  0  0  0  0  0  0  0  0  0  0  0
    5.7510   -3.8730   29.0630 C   0  0  0  0  0  0  0  0  0  0  0  0
    4.9440   -4.9270   28.8140 N   0  0  0  0  0  0  0  0  0  0  0  0
    4.5450   -5.9050   29.7630 C   0  0  1  0  0  0  0  0  0  0  0  0
    5.7940   -6.6650   30.1460 C   0  0  0  0  0  0  0  0  0  0  0  0
    3.8350   -5.4200   30.9910 C   0  0  0  0  0  0  0  0  0  0  0  0
    3.2950   -4.1190   31.1160 O   0  0  0  0  0  0  0  0  0  0  0  0
    3.7760   -6.3580   31.9510 N   0  0  0  0  0  0  0  0  0  0  0  0
    3.7420   -5.9200   33.2120 C   0  0  0  0  0  0  0  0  0  0  0  0
    2.4930   -6.2280   33.6900 C   0  0  0  0  0  0  0  0  0  0  0  0
    2.1340   -7.5810   33.6080 C   0  0  0  0  0  0  0  0  0  0  0  0
    2.8100   -8.4490   32.5730 C   0  0  0  0  0  0  0  0  0  0  0  0
    3.8320   -7.7710   31.6540 C   0  0  0  0  0  0  0  0  0  0  0  0
    5.0910   -5.5610   27.5560 C   0  0  0  0  0  0  0  0  0  0  0  0
    6.1030   -5.2850   27.0560 C   0  0  0  0  0  0  0  0  0  0  0  0
    6.1940   -5.2390   23.7780 C   0  0  0  0  0  0  0  0  0  0  0  0
    6.6450   -5.4960   22.4980 C   0  0  0  0  0  0  0  0  0  0  0  0
  1  2  1  0
  2  3  2  0
  2  4  1  0
  4  5  1  0
  5  6  1  0
  6  7  1  0
  7  8  1  0
  8  9  2  0
  8 10  1  0
 10 11  1  0
 11 12  1  0
 12 13  1  0
 13 14  1  0
 14 15  1  1
 14 16  1  0
 16 17  2  0
 16 18  1  0
 18 19  1  0
 19 20  1  0
 20 21  1  0
 21 22  1  0
 18 23  1  0
 22 23  1  0
 13 24  1  0
 10 25  1  0
 24 25  1  0
  7 26  1  0
  4 27  1  0
 26 27  1  0
M  END
