piperidine-amides-19152-covalent
     RDKit          3D

 22 23  0  0  0  0  0  0  0  0999 V2000
    7.1030   -3.3880   19.2940 C   0  0  0  0  0  0  0  0  0  0  0  0
    6.4160   -4.1460   20.3090 C   0  0  0  0  0  0  0  0  0  0  0  0
    5.3480   -4.7380   19.9620 O   0  0  0  0  0  0  0  0  0  0  0  0
    6.9060   -4.3060   21.6210 N   0  0  0  0  0  0  0  0  0  0  0  0
    7.8550   -3.3150   22.1810 C   0  0  0  0  0  0  0  0  0  0  0  0
    6.9210   -2.6540   23.2420 C   0  0  0  0  0  0  0  0  0  0  0  0
    6.5750   -3.7660   24.1970 C   0  0  0  0  0  0  0  0  0  0  0  0
    5.7460   -3.1790   25.4060 C   0  0  0  0  0  0  0  0  0  0  0  0
    4.6240   -2.8300   25.0540 O   0  0  0  0  0  0  0  0  0  0  0  0
    6.4840   -3.2360   26.4320 N   0  0  0  0  0  0  0  0  0  0  0  0
    7.2710   -3.7570   27.4070 C   0  0  0  0  0  0  0  0  0  0  0  0
    7.4820   -5.0290   27.8800 C   0  0  0  0  0  0  0  0  0  0  0  0
    6.4120   -5.9370   27.6950 C   0  0  0  0  0  0  0  0  0  0  0  0
    6.4830   -1.9110   27.1410 C   0  0  0  0  0  0  0  0  0  0  0  0
    7.2970   -1.9650   28.4060 C   0  0  0  0  0  0  0  0  0  0  0  0
    7.1880   -0.6530   28.9910 C   0  0  0  0  0  0  0  0  0  0  0  0
    6.5750    0.6610   28.7610 C   0  0  0  0  0  0  0  0  0  0  0  0
    5.7980    0.5290   27.4240 C   0  0  0  0  0  0  0  0  0  0  0  0
    5.1420    1.6250   26.9960 F   0  0  0  0  0  0  0  0  0  0  0  0
    5.7670   -0.7780   26.6250 C   0  0  0  0  0  0  0  0  0  0  0  0
    5.8120   -4.9250   23.5120 C   0  0  0  0  0  0  0  0  0  0  0  0
    6.5210   -5.4260   22.4540 C   0  0  0  0  0  0  0  0  0  0  0  0
  1  2  1  0
  2  3  2  0
  2  4  1  0
  4  5  1  0
  5  6  1  0
  6  7  1  0
  7  8  1  0
  8  9  2  0
  8 10  1  0
 10 11  1  0
 11 12  1  0
 12 13  3  0
 10 14  1  0
 14 15  2  0
 15 16  1  0
 16 17  2  0
 17 18  1  0
 18 19  1  0
 14 20  1  0
 18 20  2  0
  7 21  1  0
  4 22  1  0
 21 22  1  0
M  END
