piperidine-amides-14268-covalent
     RDKit          3D

 24 25  0  0  0  0  0  0  0  0999 V2000
    7.1490   -3.3010   19.2640 C   0  0  0  0  0  0  0  0  0  0  0  0
    6.4170   -4.1390   20.2480 C   0  0  0  0  0  0  0  0  0  0  0  0
    5.3300   -4.6440   19.9230 O   0  0  0  0  0  0  0  0  0  0  0  0
    7.0130   -4.3930   21.5020 N   0  0  0  0  0  0  0  0  0  0  0  0
    6.5750   -5.4990   22.2870 C   0  0  0  0  0  0  0  0  0  0  0  0
    5.4960   -4.9050   23.1900 C   0  0  0  0  0  0  0  0  0  0  0  0
    6.0690   -3.8100   24.0430 C   0  0  0  0  0  0  0  0  0  0  0  0
    5.0030   -3.3650   24.9570 C   0  0  0  0  0  0  0  0  0  0  0  0
    3.8570   -3.4510   24.5230 O   0  0  0  0  0  0  0  0  0  0  0  0
    5.2710   -2.8830   26.2170 N   0  0  0  0  0  0  0  0  0  0  0  0
    5.5020   -3.6400   27.3730 C   0  0  1  0  0  0  0  0  0  0  0  0
    5.7470   -5.0070   27.3980 C   0  0  0  0  0  0  0  0  0  0  0  0
    6.7320   -2.9920   27.8860 C   0  0  1  0  0  0  0  0  0  0  0  0
    7.0550   -2.6140   29.1700 O   0  0  0  0  0  0  0  0  0  0  0  0
    7.6790   -1.4060   29.4480 C   0  0  0  0  0  0  0  0  0  0  0  0
    7.7490   -3.7440   27.1850 C   0  0  0  0  0  0  0  0  0  0  0  0
    8.2940   -3.2100   25.8510 C   0  0  0  0  0  0  0  0  0  0  0  0
    9.3330   -4.0610   25.1820 C   0  0  0  0  0  0  0  0  0  0  0  0
    9.7040   -5.2100   25.8080 C   0  0  0  0  0  0  0  0  0  0  0  0
    9.2800   -5.8290   27.0300 C   0  0  0  0  0  0  0  0  0  0  0  0
    8.2330   -5.0310   27.7510 C   0  0  0  0  0  0  0  0  0  0  0  0
    7.7460   -5.5190   28.9180 F   0  0  0  0  0  0  0  0  0  0  0  0
    6.6210   -2.7230   23.1990 C   0  0  0  0  0  0  0  0  0  0  0  0
    7.6400   -3.3360   22.2260 C   0  0  0  0  0  0  0  0  0  0  0  0
  1  2  1  0
  2  3  2  0
  2  4  1  0
  4  5  1  0
  5  6  1  0
  6  7  1  0
  7  8  1  0
  8  9  2  0
  8 10  1  0
 10 11  1  0
 11 12  1  6
 11 13  1  0
 13 14  1  1
 14 15  1  0
 13 16  1  0
 16 17  2  0
 17 18  1  0
 18 19  2  0
 19 20  1  0
 16 21  1  0
 20 21  2  0
 21 22  1  0
  7 23  1  0
  4 24  1  0
 23 24  1  0
M  END
