piperidine-amides-24778-covalent
     RDKit          3D

 24 25  0  0  0  0  0  0  0  0999 V2000
    7.0650   -3.3240   19.3490 C   0  0  0  0  0  0  0  0  0  0  0  0
    6.3830   -4.2000   20.3110 C   0  0  0  0  0  0  0  0  0  0  0  0
    5.3540   -4.8230   19.9730 O   0  0  0  0  0  0  0  0  0  0  0  0
    6.9040   -4.3980   21.5960 N   0  0  0  0  0  0  0  0  0  0  0  0
    6.4540   -5.5340   22.3530 C   0  0  0  0  0  0  0  0  0  0  0  0
    5.5160   -4.9550   23.4140 C   0  0  0  0  0  0  0  0  0  0  0  0
    6.4120   -4.1660   24.3360 C   0  0  0  0  0  0  0  0  0  0  0  0
    5.5900   -3.5390   25.4110 C   0  0  0  0  0  0  0  0  0  0  0  0
    4.5990   -2.8810   25.0440 O   0  0  0  0  0  0  0  0  0  0  0  0
    5.8990   -3.6700   26.8030 N   0  0  0  0  0  0  0  0  0  0  0  0
    5.1880   -2.9250   27.7920 C   0  0  0  0  0  0  0  0  0  0  0  0
    4.9020   -3.9020   28.9230 C   0  0  1  0  0  0  0  0  0  0  0  0
    3.6020   -4.0650   29.3070 C   0  0  0  0  0  0  0  0  0  0  0  0
    3.0100   -2.9360   29.8120 C   0  0  0  0  0  0  0  0  0  0  0  0
    1.5920   -2.9020   29.6980 N   0  0  0  0  0  0  0  0  0  0  0  0
    3.7500   -1.9140   30.3890 O   0  0  0  0  0  0  0  0  0  0  0  0
    5.3970   -5.2090   28.5530 C   0  0  2  0  0  0  0  0  0  0  0  0
    6.2380   -5.8400   29.4250 C   0  0  0  0  0  0  0  0  0  0  0  0
    5.8630   -7.0060   30.3200 C   0  0  0  0  0  0  0  0  0  0  0  0
    5.5220   -8.0740   29.6060 N   0  0  0  0  0  0  0  0  0  0  0  0
    5.9680   -6.8750   31.6730 O   0  0  0  0  0  0  0  0  0  0  0  0
    6.2970   -4.8760   27.4720 C   0  0  0  0  0  0  0  0  0  0  0  0
    7.1980   -3.1000   23.6700 C   0  0  0  0  0  0  0  0  0  0  0  0
    7.5850   -3.3420   22.2760 C   0  0  0  0  0  0  0  0  0  0  0  0
  1  2  1  0
  2  3  2  0
  2  4  1  0
  4  5  1  0
  5  6  1  0
  6  7  1  0
  7  8  1  0
  8  9  2  0
  8 10  1  0
 10 11  1  0
 11 12  1  0
 12 13  1  6
 13 14  1  0
 14 15  1  0
 14 16  2  0
 12 17  1  0
 17 18  1  1
 18 19  1  0
 19 20  1  0
 19 21  2  0
 10 22  1  0
 17 22  1  0
  7 23  1  0
  4 24  1  0
 23 24  1  0
M  END
