piperidine-amides-1782-covalent
     RDKit          3D

 19 20  0  0  0  0  0  0  0  0999 V2000
    7.1290   -3.2600   19.2000 C   0  0  0  0  0  0  0  0  0  0  0  0
    6.3360   -4.0330   20.1950 C   0  0  0  0  0  0  0  0  0  0  0  0
    5.2440   -4.5130   19.8610 O   0  0  0  0  0  0  0  0  0  0  0  0
    6.8690   -4.2550   21.4770 N   0  0  0  0  0  0  0  0  0  0  0  0
    7.6460   -3.2530   22.1620 C   0  0  0  0  0  0  0  0  0  0  0  0
    6.7580   -2.6920   23.2740 C   0  0  0  0  0  0  0  0  0  0  0  0
    6.4690   -3.8170   24.2130 C   0  0  0  0  0  0  0  0  0  0  0  0
    5.7850   -3.3750   25.4470 C   0  0  0  0  0  0  0  0  0  0  0  0
    4.6810   -2.8350   25.3190 O   0  0  0  0  0  0  0  0  0  0  0  0
    6.4040   -3.6000   26.6750 N   0  0  0  0  0  0  0  0  0  0  0  0
    7.3780   -4.5900   26.9180 C   0  0  0  0  0  0  0  0  0  0  0  0
    8.6610   -4.4940   26.4550 C   0  0  0  0  0  0  0  0  0  0  0  0
    9.7640   -5.3310   26.6510 C   0  0  0  0  0  0  0  0  0  0  0  0
   10.8960   -4.7540   25.9450 N   0  0  0  0  0  0  0  0  0  0  0  0
   10.5010   -3.6550   25.3670 N   0  0  0  0  0  0  0  0  0  0  0  0
   11.3280   -2.9080   24.6530 C   0  0  0  0  0  0  0  0  0  0  0  0
    9.1410   -3.3900   25.6010 C   0  0  0  0  0  0  0  0  0  0  0  0
    5.7090   -4.9010   23.4990 C   0  0  0  0  0  0  0  0  0  0  0  0
    6.4480   -5.3710   22.2510 C   0  0  0  0  0  0  0  0  0  0  0  0
  1  2  1  0
  2  3  2  0
  2  4  1  0
  4  5  1  0
  5  6  1  0
  6  7  1  0
  7  8  1  0
  8  9  2  0
  8 10  1  0
 10 11  1  0
 11 12  1  0
 12 13  1  0
 13 14  2  0
 14 15  1  0
 15 16  1  0
 12 17  2  0
 15 17  1  0
  7 18  1  0
  4 19  1  0
 18 19  1  0
M  END
