piperidine-amides-8445-covalent
     RDKit          3D

 24 25  0  0  0  0  0  0  0  0999 V2000
    7.0770   -3.3670   19.3540 C   0  0  0  0  0  0  0  0  0  0  0  0
    6.3700   -4.1790   20.3330 C   0  0  0  0  0  0  0  0  0  0  0  0
    5.3500   -4.7900   19.9670 O   0  0  0  0  0  0  0  0  0  0  0  0
    6.8830   -4.2940   21.6440 N   0  0  0  0  0  0  0  0  0  0  0  0
    7.6580   -3.2050   22.1810 C   0  0  0  0  0  0  0  0  0  0  0  0
    7.4700   -3.1460   23.6640 C   0  0  0  0  0  0  0  0  0  0  0  0
    6.0700   -3.6480   23.9340 C   0  0  0  0  0  0  0  0  0  0  0  0
    5.6260   -3.2730   25.3100 C   0  0  0  0  0  0  0  0  0  0  0  0
    4.4210   -3.3460   25.5410 O   0  0  0  0  0  0  0  0  0  0  0  0
    6.5960   -2.8680   26.2080 N   0  0  0  0  0  0  0  0  0  0  0  0
    6.4780   -1.6830   26.9880 C   0  0  0  0  0  0  0  0  0  0  0  0
    6.9280   -1.4890   28.3080 C   0  0  0  0  0  0  0  0  0  0  0  0
    6.7860   -0.3020   29.0100 C   0  0  0  0  0  0  0  0  0  0  0  0
    7.1660    0.0610   30.2760 C   0  0  0  0  0  0  0  0  0  0  0  0
    6.4230   -0.4700   31.3210 O   0  0  0  0  0  0  0  0  0  0  0  0
    8.1160    0.8460   30.4520 O   0  0  0  0  0  0  0  0  0  0  0  0
    9.1350    0.4820   31.3600 C   0  0  0  0  0  0  0  0  0  0  0  0
    6.1210    0.9000   28.3970 C   0  0  0  0  0  0  0  0  0  0  0  0
    5.6060    0.8210   27.0230 C   0  0  0  0  0  0  0  0  0  0  0  0
    5.7990   -0.4860   26.3390 C   0  0  0  0  0  0  0  0  0  0  0  0
    5.2600   -0.5710   24.8850 C   0  0  0  0  0  0  0  0  0  0  0  0
    3.9260   -0.8850   24.7050 C   0  0  0  0  0  0  0  0  0  0  0  0
    6.1160   -5.1400   23.7920 C   0  0  0  0  0  0  0  0  0  0  0  0
    6.5400   -5.4800   22.3920 C   0  0  0  0  0  0  0  0  0  0  0  0
  1  2  1  0
  2  3  2  0
  2  4  1  0
  4  5  1  0
  5  6  1  0
  6  7  1  0
  7  8  1  0
  8  9  2  0
  8 10  1  0
 10 11  1  0
 11 12  2  0
 12 13  1  0
 13 14  1  0
 14 15  2  0
 14 16  1  0
 16 17  1  0
 13 18  2  0
 18 19  1  0
 11 20  1  0
 19 20  2  0
 20 21  1  0
 21 22  1  0
  7 23  1  0
  4 24  1  0
 23 24  1  0
M  END
