piperidine-amides-30818-covalent
     RDKit          3D

 26 28  0  0  0  0  0  0  0  0999 V2000
    7.0360   -3.3580   19.3750 C   0  0  0  0  0  0  0  0  0  0  0  0
    6.3640   -4.2220   20.3460 C   0  0  0  0  0  0  0  0  0  0  0  0
    5.3590   -4.8520   19.9810 O   0  0  0  0  0  0  0  0  0  0  0  0
    6.8490   -4.4010   21.6560 N   0  0  0  0  0  0  0  0  0  0  0  0
    6.6050   -5.5950   22.4280 C   0  0  0  0  0  0  0  0  0  0  0  0
    6.0040   -5.1240   23.7310 C   0  0  0  0  0  0  0  0  0  0  0  0
    6.6420   -3.8640   24.2640 C   0  0  0  0  0  0  0  0  0  0  0  0
    5.9650   -3.3110   25.4880 C   0  0  0  0  0  0  0  0  0  0  0  0
    5.4310   -2.1700   25.4240 O   0  0  0  0  0  0  0  0  0  0  0  0
    5.7820   -3.9700   26.7530 N   0  0  0  0  0  0  0  0  0  0  0  0
    4.3870   -4.0770   27.1680 C   0  0  0  0  0  0  0  0  0  0  0  0
    4.2720   -5.0750   28.2580 C   0  0  0  0  0  0  0  0  0  0  0  0
    4.9010   -4.7650   29.5480 C   0  0  0  0  0  0  0  0  0  0  0  0
    6.2030   -5.3210   29.6890 N   0  0  0  0  0  0  0  0  0  0  0  0
    5.9330   -6.6470   30.3740 C   0  0  0  0  0  0  0  0  0  0  0  0
    5.0260   -6.6900   31.4030 O   0  0  0  0  0  0  0  0  0  0  0  0
    6.5700   -7.9990   30.0830 C   0  0  0  0  0  0  0  0  0  0  0  0
    6.8800   -8.9350   31.1390 C   0  0  0  0  0  0  0  0  0  0  0  0
    7.4380  -10.2630   30.5260 C   0  0  0  0  0  0  0  0  0  0  0  0
    7.8040  -11.9660   31.5120 Cl  0  0  0  0  0  0  0  0  0  0  0  0
    7.4840   -9.9070   29.3260 C   0  0  0  0  0  0  0  0  0  0  0  0
    6.9740   -8.6070   29.0310 N   0  0  0  0  0  0  0  0  0  0  0  0
    6.9750   -4.9430   28.6660 C   0  0  0  0  0  0  0  0  0  0  0  0
    6.5310   -3.6290   27.9550 C   0  0  0  0  0  0  0  0  0  0  0  0
    6.7130   -2.8460   23.1140 C   0  0  0  0  0  0  0  0  0  0  0  0
    7.4970   -3.2600   22.2990 C   0  0  0  0  0  0  0  0  0  0  0  0
  1  2  1  0
  2  3  2  0
  2  4  1  0
  4  5  1  0
  5  6  1  0
  6  7  1  0
  7  8  1  0
  8  9  2  0
  8 10  1  0
 10 11  1  0
 11 12  1  0
 12 13  1  0
 13 14  1  0
 14 15  1  0
 15 16  2  0
 15 17  1  0
 17 18  2  0
 18 19  1  0
 19 20  1  0
 19 21  2  0
 17 22  1  0
 21 22  1  0
 14 23  1  0
 10 24  1  0
 23 24  1  0
  7 25  1  0
  4 26  1  0
 25 26  1  0
M  END
