piperidine-amides-23911-covalent
     RDKit          3D

 24 25  0  0  0  0  0  0  0  0999 V2000
    7.1330   -3.2670   19.1450 C   0  0  0  0  0  0  0  0  0  0  0  0
    6.3630   -3.9940   20.1660 C   0  0  0  0  0  0  0  0  0  0  0  0
    5.2460   -4.4440   19.8350 O   0  0  0  0  0  0  0  0  0  0  0  0
    6.8960   -4.2330   21.4480 N   0  0  0  0  0  0  0  0  0  0  0  0
    7.6230   -3.1760   22.0640 C   0  0  0  0  0  0  0  0  0  0  0  0
    7.3200   -2.9710   23.4660 C   0  0  0  0  0  0  0  0  0  0  0  0
    6.5220   -4.0310   24.1050 C   0  0  0  0  0  0  0  0  0  0  0  0
    5.7710   -3.4380   25.2420 C   0  0  0  0  0  0  0  0  0  0  0  0
    4.5410   -3.2270   25.1790 O   0  0  0  0  0  0  0  0  0  0  0  0
    6.4980   -3.1180   26.3790 N   0  0  0  0  0  0  0  0  0  0  0  0
    6.7930   -1.7800   26.7410 C   0  0  0  0  0  0  0  0  0  0  0  0
    6.1150   -1.1300   27.8600 C   0  0  0  0  0  0  0  0  0  0  0  0
    5.2490   -2.0920   28.6200 C   0  0  0  0  0  0  0  0  0  0  0  0
    4.5170   -1.7300   29.7060 C   0  0  0  0  0  0  0  0  0  0  0  0
    4.5690   -0.2670   30.1960 C   0  0  0  0  0  0  0  0  0  0  0  0
    5.4410    0.7400   29.4450 C   0  0  0  0  0  0  0  0  0  0  0  0
    6.2560    0.2720   28.2080 C   0  0  0  0  0  0  0  0  0  0  0  0
    7.3870   -4.0230   27.0140 C   0  0  1  0  0  0  0  0  0  0  0  0
    7.8620   -3.7060   28.3990 C   0  0  0  0  0  0  0  0  0  0  0  0
    8.2110   -2.2340   28.6980 C   0  0  0  0  0  0  0  0  0  0  0  0
    6.7840   -5.4120   27.1410 C   0  0  0  0  0  0  0  0  0  0  0  0
    7.4080   -6.0950   27.9870 O   0  0  0  0  0  0  0  0  0  0  0  0
    5.6240   -4.8090   23.2020 C   0  0  0  0  0  0  0  0  0  0  0  0
    6.4270   -5.3420   22.2210 C   0  0  0  0  0  0  0  0  0  0  0  0
  1  2  1  0
  2  3  2  0
  2  4  1  0
  4  5  1  0
  5  6  1  0
  6  7  1  0
  7  8  1  0
  8  9  2  0
  8 10  1  0
 10 11  1  0
 11 12  1  0
 12 13  2  0
 13 14  1  0
 14 15  2  0
 15 16  1  0
 12 17  1  0
 16 17  2  0
 10 18  1  0
 18 19  1  1
 19 20  1  0
 18 21  1  0
 21 22  1  0
  7 23  1  0
  4 24  1  0
 23 24  1  0
M  END
