piperidine-amides-13738-covalent
     RDKit          3D

 27 28  0  0  0  0  0  0  0  0999 V2000
    7.1080   -3.2630   19.2310 C   0  0  0  0  0  0  0  0  0  0  0  0
    6.3420   -4.0400   20.2460 C   0  0  0  0  0  0  0  0  0  0  0  0
    5.2930   -4.6130   19.9060 O   0  0  0  0  0  0  0  0  0  0  0  0
    6.8520   -4.1430   21.5530 N   0  0  0  0  0  0  0  0  0  0  0  0
    7.7240   -3.1300   22.1200 C   0  0  0  0  0  0  0  0  0  0  0  0
    7.4650   -3.0340   23.6240 C   0  0  0  0  0  0  0  0  0  0  0  0
    6.1050   -3.5880   23.8650 C   0  0  0  0  0  0  0  0  0  0  0  0
    5.6020   -3.3460   25.2280 C   0  0  0  0  0  0  0  0  0  0  0  0
    4.3830   -3.1720   25.3510 O   0  0  0  0  0  0  0  0  0  0  0  0
    6.5010   -3.3190   26.2860 N   0  0  0  0  0  0  0  0  0  0  0  0
    6.1960   -3.4330   27.6570 C   0  0  0  0  0  0  0  0  0  0  0  0
    5.7650   -2.3480   28.3440 C   0  0  1  0  0  0  0  0  0  0  0  0
    4.6490   -2.3910   29.1860 C   0  0  0  0  0  0  0  0  0  0  0  0
    4.5580   -1.4650   30.2030 C   0  0  0  0  0  0  0  0  0  0  0  0
    6.8510   -1.9280   29.2120 O   0  0  0  0  0  0  0  0  0  0  0  0
    6.8630   -0.6320   29.4170 C   0  0  0  0  0  0  0  0  0  0  0  0
    7.4720   -0.1640   30.7660 C   0  0  0  0  0  0  0  0  0  0  0  0
    7.4940    1.3600   31.0420 C   0  0  0  0  0  0  0  0  0  0  0  0
    6.9820    2.2210   30.0940 C   0  0  0  0  0  0  0  0  0  0  0  0
    6.4110    1.7740   28.8250 C   0  0  0  0  0  0  0  0  0  0  0  0
    5.9590    3.0090   28.0580 C   0  0  0  0  0  0  0  0  0  0  0  0
    6.9060    3.9920   27.9200 F   0  0  0  0  0  0  0  0  0  0  0  0
    5.5430    2.7810   26.7650 F   0  0  0  0  0  0  0  0  0  0  0  0
    4.8900    3.5710   28.7210 F   0  0  0  0  0  0  0  0  0  0  0  0
    6.3810    0.3160   28.5420 C   0  0  0  0  0  0  0  0  0  0  0  0
    6.0000   -5.0480   23.6020 C   0  0  0  0  0  0  0  0  0  0  0  0
    6.6680   -5.3810   22.2960 C   0  0  0  0  0  0  0  0  0  0  0  0
  1  2  1  0
  2  3  2  0
  2  4  1  0
  4  5  1  0
  5  6  1  0
  6  7  1  0
  7  8  1  0
  8  9  2  0
  8 10  1  0
 10 11  1  0
 12 11  1  1
 12 13  1  0
 13 14  1  0
 12 15  1  0
 15 16  1  0
 16 17  2  0
 17 18  1  0
 18 19  2  0
 19 20  1  0
 20 21  1  0
 21 22  1  0
 21 23  1  0
 21 24  1  0
 16 25  1  0
 20 25  2  0
  7 26  1  0
  4 27  1  0
 26 27  1  0
M  END
