piperidine-amides-32594-covalent
     RDKit          3D

 29 31  0  0  0  0  0  0  0  0999 V2000
    7.0590   -3.3360   19.3210 C   0  0  0  0  0  0  0  0  0  0  0  0
    6.3510   -4.2010   20.3100 C   0  0  0  0  0  0  0  0  0  0  0  0
    5.3250   -4.7990   19.9580 O   0  0  0  0  0  0  0  0  0  0  0  0
    6.8820   -4.3660   21.6070 N   0  0  0  0  0  0  0  0  0  0  0  0
    6.5580   -5.5260   22.4050 C   0  0  0  0  0  0  0  0  0  0  0  0
    6.0970   -5.0640   23.8090 C   0  0  0  0  0  0  0  0  0  0  0  0
    5.8000   -3.5940   23.7660 C   0  0  0  0  0  0  0  0  0  0  0  0
    5.1670   -3.0290   24.9880 C   0  0  0  0  0  0  0  0  0  0  0  0
    3.9580   -2.8030   24.9180 O   0  0  0  0  0  0  0  0  0  0  0  0
    5.9080   -2.7840   26.1480 N   0  0  0  0  0  0  0  0  0  0  0  0
    6.6190   -3.8180   26.7540 C   0  0  0  0  0  0  0  0  0  0  0  0
    7.9290   -3.9180   26.5490 C   0  0  0  0  0  0  0  0  0  0  0  0
    8.6030   -4.8360   27.3430 C   0  0  0  0  0  0  0  0  0  0  0  0
    9.9280   -5.0320   27.2620 C   0  0  0  0  0  0  0  0  0  0  0  0
   10.7500   -4.2630   26.2950 C   0  0  0  0  0  0  0  0  0  0  0  0
   12.1040   -4.4400   26.2250 F   0  0  0  0  0  0  0  0  0  0  0  0
   10.0910   -3.2620   25.3960 C   0  0  0  0  0  0  0  0  0  0  0  0
    8.6070   -3.1710   25.6300 C   0  0  0  0  0  0  0  0  0  0  0  0
    7.9870   -2.2380   24.8190 F   0  0  0  0  0  0  0  0  0  0  0  0
    5.7830   -1.4880   26.7600 C   0  0  0  0  0  0  0  0  0  0  0  0
    6.1350   -0.4260   26.0650 N   0  0  0  0  0  0  0  0  0  0  0  0
    6.0990    0.9500   26.4610 C   0  0  0  0  0  0  0  0  0  0  0  0
    5.5350    0.7630   27.8880 C   0  0  0  0  0  0  0  0  0  0  0  0
    5.0980   -0.1660   28.8130 C   0  0  0  0  0  0  0  0  0  0  0  0
    5.2580   -1.5220   28.1180 C   0  0  0  0  0  0  0  0  0  0  0  0
    4.8740   -2.7980   28.8300 C   0  0  0  0  0  0  0  0  0  0  0  0
    3.9980   -2.6930   29.8430 N   0  0  0  0  0  0  0  0  0  0  0  0
    7.0430   -2.8080   23.4580 C   0  0  0  0  0  0  0  0  0  0  0  0
    7.6520   -3.2760   22.2010 C   0  0  0  0  0  0  0  0  0  0  0  0
  1  2  1  0
  2  3  2  0
  2  4  1  0
  4  5  1  0
  5  6  1  0
  6  7  1  0
  7  8  1  0
  8  9  2  0
  8 10  1  0
 10 11  1  0
 11 12  1  0
 12 13  2  0
 13 14  1  0
 14 15  2  0
 15 16  1  0
 15 17  1  0
 12 18  1  0
 17 18  2  0
 18 19  1  0
 10 20  1  0
 20 21  2  0
 21 22  1  0
 22 23  2  0
 23 24  1  0
 20 25  1  0
 24 25  2  0
 25 26  1  0
 26 27  3  0
  7 28  1  0
  4 29  1  0
 28 29  1  0
M  END
