piperidine-amides-11018-covalent
     RDKit          3D

 21 22  0  0  0  0  0  0  0  0999 V2000
    7.0980   -3.2140   19.1430 C   0  0  0  0  0  0  0  0  0  0  0  0
    6.2810   -3.9010   20.1520 C   0  0  0  0  0  0  0  0  0  0  0  0
    5.2090   -4.4170   19.8100 O   0  0  0  0  0  0  0  0  0  0  0  0
    6.6700   -4.0520   21.4860 N   0  0  0  0  0  0  0  0  0  0  0  0
    6.2020   -5.1770   22.2490 C   0  0  0  0  0  0  0  0  0  0  0  0
    5.4980   -4.6120   23.4640 C   0  0  0  0  0  0  0  0  0  0  0  0
    6.2670   -3.5250   24.1770 C   0  0  0  0  0  0  0  0  0  0  0  0
    5.4850   -2.9340   25.3100 C   0  0  0  0  0  0  0  0  0  0  0  0
    4.2290   -2.8180   25.1960 O   0  0  0  0  0  0  0  0  0  0  0  0
    6.0410   -2.4960   26.5510 N   0  0  0  0  0  0  0  0  0  0  0  0
    6.1820   -3.4270   27.7040 C   0  0  1  0  0  0  0  0  0  0  0  0
    5.0900   -4.4180   27.7290 C   0  0  0  0  0  0  0  0  0  0  0  0
    7.3210   -4.3180   27.4110 C   0  0  0  0  0  0  0  0  0  0  0  0
    7.0330   -4.6200   25.9860 C   0  0  0  0  0  0  0  0  0  0  0  0
    7.9910   -5.4960   25.3480 C   0  0  0  0  0  0  0  0  0  0  0  0
    7.7180   -5.8020   23.9270 C   0  0  0  0  0  0  0  0  0  0  0  0
    9.1580   -6.0280   26.1250 C   0  0  0  0  0  0  0  0  0  0  0  0
    9.2920   -5.6710   27.4560 C   0  0  0  0  0  0  0  0  0  0  0  0
    8.4620   -4.8700   28.1150 N   0  0  0  0  0  0  0  0  0  0  0  0
    6.6970   -2.4070   23.2170 C   0  0  0  0  0  0  0  0  0  0  0  0
    7.5270   -3.0560   22.1040 C   0  0  0  0  0  0  0  0  0  0  0  0
  1  2  1  0
  2  3  2  0
  2  4  1  0
  4  5  1  0
  5  6  1  0
  6  7  1  0
  7  8  1  0
  8  9  2  0
  8 10  1  0
 10 11  1  0
 11 12  1  6
 11 13  1  0
 13 14  2  0
 14 15  1  0
 15 16  1  0
 15 17  2  0
 17 18  1  0
 13 19  1  0
 18 19  2  0
  7 20  1  0
  4 21  1  0
 20 21  1  0
M  END
