piperidine-amides-10541-covalent
     RDKit          3D

 23 25  0  0  0  0  0  0  0  0999 V2000
    7.0970   -3.2740   19.2280 C   0  0  0  0  0  0  0  0  0  0  0  0
    6.3620   -4.0340   20.2420 C   0  0  0  0  0  0  0  0  0  0  0  0
    5.2760   -4.5550   19.8850 O   0  0  0  0  0  0  0  0  0  0  0  0
    6.8970   -4.2000   21.5220 N   0  0  0  0  0  0  0  0  0  0  0  0
    7.7110   -3.1970   22.1600 C   0  0  0  0  0  0  0  0  0  0  0  0
    7.0120   -2.7360   23.3990 C   0  0  0  0  0  0  0  0  0  0  0  0
    6.4700   -3.8870   24.2090 C   0  0  0  0  0  0  0  0  0  0  0  0
    5.7790   -3.3490   25.4040 C   0  0  0  0  0  0  0  0  0  0  0  0
    4.5270   -3.3510   25.4160 O   0  0  0  0  0  0  0  0  0  0  0  0
    6.4710   -2.8130   26.5120 N   0  0  0  0  0  0  0  0  0  0  0  0
    6.2870   -3.2810   27.8710 C   0  0  0  0  0  0  0  0  0  0  0  0
    4.9620   -3.9740   28.1570 C   0  0  0  0  0  0  0  0  0  0  0  0
    3.6780   -3.2980   27.9290 N   0  0  0  0  0  0  0  0  0  0  0  0
    2.8110   -4.1880   28.2910 O   0  0  0  0  0  0  0  0  0  0  0  0
    3.4970   -5.3150   28.7080 C   0  0  0  0  0  0  0  0  0  0  0  0
    4.8530   -5.3660   28.6900 C   0  0  0  0  0  0  0  0  0  0  0  0
    5.9050   -6.1740   28.9740 C   0  0  0  0  0  0  0  0  0  0  0  0
    5.4140   -7.3420   29.5420 C   0  0  1  0  0  0  0  0  0  0  0  0
    5.1060   -7.4490   30.8810 C   0  0  0  0  0  0  0  0  0  0  0  0
    3.8960   -7.3830   29.9600 C   0  0  0  0  0  0  0  0  0  0  0  0
    2.9310   -6.4620   29.1700 C   0  0  0  0  0  0  0  0  0  0  0  0
    5.5530   -4.7930   23.3720 C   0  0  0  0  0  0  0  0  0  0  0  0
    6.5010   -5.3460   22.3240 C   0  0  0  0  0  0  0  0  0  0  0  0
  1  2  1  0
  2  3  2  0
  2  4  1  0
  4  5  1  0
  5  6  1  0
  6  7  1  0
  7  8  1  0
  8  9  2  0
  8 10  1  0
 10 11  1  0
 11 12  1  0
 12 13  2  0
 13 14  1  0
 14 15  1  0
 12 16  1  0
 15 16  2  0
 16 17  1  0
 17 18  1  0
 18 19  1  1
 18 20  1  0
 15 21  1  0
 20 21  1  0
  7 22  1  0
  4 23  1  0
 22 23  1  0
M  END
