piperidine-amides-8206-covalent
     RDKit          3D

 25 26  0  0  0  0  0  0  0  0999 V2000
    7.0760   -3.3340   19.3250 C   0  0  0  0  0  0  0  0  0  0  0  0
    6.3990   -4.1790   20.3040 C   0  0  0  0  0  0  0  0  0  0  0  0
    5.3550   -4.7610   19.9590 O   0  0  0  0  0  0  0  0  0  0  0  0
    6.9630   -4.3700   21.5890 N   0  0  0  0  0  0  0  0  0  0  0  0
    6.5420   -5.4950   22.3670 C   0  0  0  0  0  0  0  0  0  0  0  0
    5.7300   -4.9920   23.5240 C   0  0  0  0  0  0  0  0  0  0  0  0
    6.5570   -3.9100   24.1820 C   0  0  0  0  0  0  0  0  0  0  0  0
    5.7980   -3.2790   25.3070 C   0  0  0  0  0  0  0  0  0  0  0  0
    4.6120   -3.0250   25.0910 O   0  0  0  0  0  0  0  0  0  0  0  0
    6.4640   -3.0270   26.4990 N   0  0  0  0  0  0  0  0  0  0  0  0
    6.4160   -1.7580   27.1490 C   0  0  0  0  0  0  0  0  0  0  0  0
    6.8910   -1.5570   28.4520 C   0  0  0  0  0  0  0  0  0  0  0  0
    6.8560   -0.3510   29.1170 C   0  0  0  0  0  0  0  0  0  0  0  0
    7.2810   -0.0120   30.3780 C   0  0  0  0  0  0  0  0  0  0  0  0
    6.4340   -0.3710   31.4190 O   0  0  0  0  0  0  0  0  0  0  0  0
    8.3520    0.5920   30.5570 O   0  0  0  0  0  0  0  0  0  0  0  0
    8.8320    0.6760   31.8880 C   0  0  0  0  0  0  0  0  0  0  0  0
    6.2920    0.8990   28.4900 C   0  0  0  0  0  0  0  0  0  0  0  0
    6.2810    2.0990   29.2110 O   0  0  0  0  0  0  0  0  0  0  0  0
    5.2040    2.4330   30.0710 C   0  0  0  0  0  0  0  0  0  0  0  0
    5.7630    0.7740   27.0940 C   0  0  0  0  0  0  0  0  0  0  0  0
    5.8370   -0.6050   26.4220 C   0  0  0  0  0  0  0  0  0  0  0  0
    5.3700   -0.8040   25.1450 F   0  0  0  0  0  0  0  0  0  0  0  0
    6.8270   -2.8040   23.1970 C   0  0  0  0  0  0  0  0  0  0  0  0
    7.6840   -3.3070   22.2510 C   0  0  0  0  0  0  0  0  0  0  0  0
  1  2  1  0
  2  3  2  0
  2  4  1  0
  4  5  1  0
  5  6  1  0
  6  7  1  0
  7  8  1  0
  8  9  2  0
  8 10  1  0
 10 11  1  0
 11 12  2  0
 12 13  1  0
 13 14  1  0
 14 15  2  0
 14 16  1  0
 16 17  1  0
 13 18  2  0
 18 19  1  0
 19 20  1  0
 18 21  1  0
 11 22  1  0
 21 22  2  0
 22 23  1  0
  7 24  1  0
  4 25  1  0
 24 25  1  0
M  END
