piperidine-amides-14175-covalent
     RDKit          3D

 24 25  0  0  0  0  0  0  0  0999 V2000
    7.1080   -3.3410   19.2980 C   0  0  0  0  0  0  0  0  0  0  0  0
    6.3500   -4.1390   20.2950 C   0  0  0  0  0  0  0  0  0  0  0  0
    5.3130   -4.7240   19.9450 O   0  0  0  0  0  0  0  0  0  0  0  0
    6.8670   -4.2490   21.6020 N   0  0  0  0  0  0  0  0  0  0  0  0
    7.7170   -3.2320   22.1730 C   0  0  0  0  0  0  0  0  0  0  0  0
    6.9360   -2.6280   23.3290 C   0  0  0  0  0  0  0  0  0  0  0  0
    6.5480   -3.7710   24.1920 C   0  0  0  0  0  0  0  0  0  0  0  0
    5.7840   -3.3210   25.3780 C   0  0  0  0  0  0  0  0  0  0  0  0
    4.5560   -3.2470   25.2470 O   0  0  0  0  0  0  0  0  0  0  0  0
    6.4490   -3.0020   26.5650 N   0  0  0  0  0  0  0  0  0  0  0  0
    6.4520   -1.7450   27.2290 C   0  0  0  0  0  0  0  0  0  0  0  0
    6.9900   -1.5730   28.4820 C   0  0  0  0  0  0  0  0  0  0  0  0
    6.9990   -0.3510   29.1620 C   0  0  0  0  0  0  0  0  0  0  0  0
    6.4510    0.7760   28.5930 C   0  0  0  0  0  0  0  0  0  0  0  0
    5.8530    0.6770   27.2430 C   0  0  0  0  0  0  0  0  0  0  0  0
    5.3380    1.9190   26.8040 N   0  0  0  0  0  0  0  0  0  0  0  0
    4.1560    1.9430   25.9890 C   0  0  0  0  0  0  0  0  0  0  0  0
    6.0630    3.1150   27.0340 C   0  0  0  0  0  0  0  0  0  0  0  0
    5.4260    4.2340   27.5420 O   0  0  0  0  0  0  0  0  0  0  0  0
    7.3440    2.9280   26.6830 N   0  0  0  0  0  0  0  0  0  0  0  0
    8.0680    3.9830   27.0470 C   0  0  0  0  0  0  0  0  0  0  0  0
    5.8690   -0.5450   26.6150 C   0  0  0  0  0  0  0  0  0  0  0  0
    5.7910   -4.8700   23.5010 C   0  0  0  0  0  0  0  0  0  0  0  0
    6.5220   -5.3530   22.4450 C   0  0  0  0  0  0  0  0  0  0  0  0
  1  2  1  0
  2  3  2  0
  2  4  1  0
  4  5  1  0
  5  6  1  0
  6  7  1  0
  7  8  1  0
  8  9  2  0
  8 10  1  0
 10 11  1  0
 11 12  2  0
 12 13  1  0
 13 14  2  0
 14 15  1  0
 15 16  1  0
 16 17  1  0
 16 18  1  0
 18 19  2  0
 18 20  1  0
 20 21  1  0
 11 22  1  0
 15 22  2  0
  7 23  1  0
  4 24  1  0
 23 24  1  0
M  END
