piperidine-amides-13651-covalent
     RDKit          3D

 28 30  0  0  0  0  0  0  0  0999 V2000
    7.0390   -3.2340   19.2080 C   0  0  0  0  0  0  0  0  0  0  0  0
    6.2420   -3.9670   20.2380 C   0  0  0  0  0  0  0  0  0  0  0  0
    5.2600   -4.6360   19.8920 O   0  0  0  0  0  0  0  0  0  0  0  0
    6.6350   -3.9050   21.5840 N   0  0  0  0  0  0  0  0  0  0  0  0
    7.4520   -2.8250   22.0640 C   0  0  0  0  0  0  0  0  0  0  0  0
    7.2080   -2.6770   23.5700 C   0  0  0  0  0  0  0  0  0  0  0  0
    5.9850   -3.4480   23.9830 C   0  0  0  0  0  0  0  0  0  0  0  0
    5.6740   -3.2530   25.4310 C   0  0  0  0  0  0  0  0  0  0  0  0
    4.4800   -3.3360   25.7430 O   0  0  0  0  0  0  0  0  0  0  0  0
    6.7130   -2.9720   26.3540 N   0  0  0  0  0  0  0  0  0  0  0  0
    6.8630   -3.3510   27.7320 C   0  0  2  0  0  0  0  0  0  0  0  0
    6.5100   -4.6100   28.2110 C   0  0  0  0  0  0  0  0  0  0  0  0
    7.3700   -5.6600   27.9160 C   0  0  0  0  0  0  0  0  0  0  0  0
    8.2880   -5.2300   27.0310 C   0  0  0  0  0  0  0  0  0  0  0  0
    9.7210   -5.1150   27.3160 C   0  0  0  0  0  0  0  0  0  0  0  0
   10.7120   -4.5840   26.2860 C   0  0  0  0  0  0  0  0  0  0  0  0
   10.0910   -4.1840   24.9710 C   0  0  0  0  0  0  0  0  0  0  0  0
    8.7560   -4.3310   24.7650 C   0  0  0  0  0  0  0  0  0  0  0  0
    8.2540   -3.9770   23.5560 F   0  0  0  0  0  0  0  0  0  0  0  0
    7.8670   -4.8560   25.8000 C   0  0  0  0  0  0  0  0  0  0  0  0
    6.4790   -2.4160   28.8040 C   0  0  0  0  0  0  0  0  0  0  0  0
    7.4880   -1.4740   29.1990 C   0  0  0  0  0  0  0  0  0  0  0  0
    6.7440   -0.6630   30.3170 C   0  0  0  0  0  0  0  0  0  0  0  0
    5.3670   -0.8070   30.8490 C   0  0  0  0  0  0  0  0  0  0  0  0
    4.4790   -1.8420   30.3130 C   0  0  0  0  0  0  0  0  0  0  0  0
    5.1510   -2.6150   29.2640 C   0  0  0  0  0  0  0  0  0  0  0  0
    5.9450   -4.9280   23.5650 C   0  0  0  0  0  0  0  0  0  0  0  0
    6.5890   -5.1200   22.3690 C   0  0  0  0  0  0  0  0  0  0  0  0
  1  2  1  0
  2  3  2  0
  2  4  1  0
  4  5  1  0
  5  6  1  0
  6  7  1  0
  7  8  1  0
  8  9  2  0
  8 10  1  0
 10 11  1  0
 11 12  1  6
 12 13  1  0
 13 14  1  0
 14 15  2  0
 15 16  1  0
 16 17  2  0
 17 18  1  0
 18 19  1  0
 14 20  1  0
 18 20  2  0
 11 21  1  0
 21 22  2  0
 22 23  1  0
 23 24  2  0
 24 25  1  0
 21 26  1  0
 25 26  2  0
  7 27  1  0
  4 28  1  0
 27 28  1  0
M  END
