piperidine-amides-30976-covalent
     RDKit          3D

 26 28  0  0  0  0  0  0  0  0999 V2000
    7.0550   -3.3650   19.4460 C   0  0  0  0  0  0  0  0  0  0  0  0
    6.3920   -4.2490   20.4110 C   0  0  0  0  0  0  0  0  0  0  0  0
    5.4190   -4.9140   20.0060 O   0  0  0  0  0  0  0  0  0  0  0  0
    6.8260   -4.4180   21.7540 N   0  0  0  0  0  0  0  0  0  0  0  0
    6.6080   -5.6330   22.4840 C   0  0  0  0  0  0  0  0  0  0  0  0
    5.9600   -5.2210   23.7890 C   0  0  0  0  0  0  0  0  0  0  0  0
    6.4000   -3.8710   24.2990 C   0  0  0  0  0  0  0  0  0  0  0  0
    5.4050   -3.2760   25.2640 C   0  0  0  0  0  0  0  0  0  0  0  0
    4.5630   -2.4630   24.8020 O   0  0  0  0  0  0  0  0  0  0  0  0
    5.2820   -3.5390   26.6740 N   0  0  0  0  0  0  0  0  0  0  0  0
    6.4350   -3.4290   27.5230 C   0  0  0  0  0  0  0  0  0  0  0  0
    6.5380   -4.7210   28.2550 C   0  0  0  0  0  0  0  0  0  0  0  0
    5.3410   -4.8260   28.7990 N   0  0  0  0  0  0  0  0  0  0  0  0
    4.4290   -3.7640   28.7460 C   0  0  0  0  0  0  0  0  0  0  0  0
    4.0200   -3.0990   29.7140 O   0  0  0  0  0  0  0  0  0  0  0  0
    4.0030   -3.5500   27.2960 C   0  0  1  0  0  0  0  0  0  0  0  0
    3.2440   -2.2300   27.2540 C   0  0  0  0  0  0  0  0  0  0  0  0
    1.7700   -2.3120   26.9280 C   0  0  0  0  0  0  0  0  0  0  0  0
    1.2830   -3.5980   26.7040 F   0  0  0  0  0  0  0  0  0  0  0  0
    1.0030   -1.1820   26.8660 C   0  0  0  0  0  0  0  0  0  0  0  0
    1.4790    0.0920   27.0870 C   0  0  0  0  0  0  0  0  0  0  0  0
    2.9170    0.3150   27.4170 C   0  0  0  0  0  0  0  0  0  0  0  0
    3.9000   -0.8540   27.5230 C   0  0  0  0  0  0  0  0  0  0  0  0
    5.5910   -0.6000   27.9120 Cl  0  0  0  0  0  0  0  0  0  0  0  0
    6.6380   -2.9560   23.0760 C   0  0  0  0  0  0  0  0  0  0  0  0
    7.5780   -3.3370   22.4140 C   0  0  0  0  0  0  0  0  0  0  0  0
  1  2  1  0
  2  3  2  0
  2  4  1  0
  4  5  1  0
  5  6  1  0
  6  7  1  0
  7  8  1  0
  8  9  2  0
  8 10  1  0
 10 11  1  0
 11 12  1  0
 12 13  1  0
 13 14  1  0
 14 15  2  0
 10 16  1  0
 14 16  1  0
 16 17  1  1
 17 18  2  0
 18 19  1  0
 18 20  1  0
 20 21  2  0
 21 22  1  0
 17 23  1  0
 22 23  2  0
 23 24  1  0
  7 25  1  0
  4 26  1  0
 25 26  1  0
M  END
