piperidine-amides-8640-covalent
     RDKit          3D

 23 24  0  0  0  0  0  0  0  0999 V2000
    7.1330   -3.2540   19.1820 C   0  0  0  0  0  0  0  0  0  0  0  0
    6.3940   -4.0100   20.1880 C   0  0  0  0  0  0  0  0  0  0  0  0
    5.3000   -4.5040   19.8710 O   0  0  0  0  0  0  0  0  0  0  0  0
    6.9460   -4.2200   21.4740 N   0  0  0  0  0  0  0  0  0  0  0  0
    7.6880   -3.1510   22.0920 C   0  0  0  0  0  0  0  0  0  0  0  0
    6.9310   -2.6050   23.2710 C   0  0  0  0  0  0  0  0  0  0  0  0
    6.5690   -3.7830   24.1510 C   0  0  0  0  0  0  0  0  0  0  0  0
    5.9060   -3.3090   25.4060 C   0  0  0  0  0  0  0  0  0  0  0  0
    4.8430   -2.6990   25.2770 O   0  0  0  0  0  0  0  0  0  0  0  0
    6.5370   -3.6000   26.6130 N   0  0  0  0  0  0  0  0  0  0  0  0
    6.9500   -4.9270   26.9300 C   0  0  1  0  0  0  0  0  0  0  0  0
    8.1080   -5.0460   27.6800 C   0  0  0  0  0  0  0  0  0  0  0  0
    9.0830   -5.8380   27.1460 C   0  0  0  0  0  0  0  0  0  0  0  0
    9.4880   -5.3720   25.9210 O   0  0  0  0  0  0  0  0  0  0  0  0
    5.8460   -5.5310   27.7430 C   0  0  0  0  0  0  0  0  0  0  0  0
    4.8400   -6.3160   26.9540 C   0  0  0  0  0  0  0  0  0  0  0  0
    4.8320   -6.2650   25.4140 C   0  0  0  0  0  0  0  0  0  0  0  0
    3.8760   -7.0120   24.5740 C   0  0  0  0  0  0  0  0  0  0  0  0
    2.8490   -7.8700   25.2360 C   0  0  0  0  0  0  0  0  0  0  0  0
    2.8980   -7.8840   26.7850 C   0  0  0  0  0  0  0  0  0  0  0  0
    3.7830   -7.1970   27.5980 C   0  0  0  0  0  0  0  0  0  0  0  0
    5.5980   -4.6010   23.3590 C   0  0  0  0  0  0  0  0  0  0  0  0
    6.3210   -5.2680   22.2310 C   0  0  0  0  0  0  0  0  0  0  0  0
  1  2  1  0
  2  3  2  0
  2  4  1  0
  4  5  1  0
  5  6  1  0
  6  7  1  0
  7  8  1  0
  8  9  2  0
  8 10  1  0
 10 11  1  0
 11 12  1  1
 12 13  1  0
 13 14  1  0
 11 15  1  0
 15 16  1  0
 16 17  2  0
 17 18  1  0
 18 19  2  0
 19 20  1  0
 16 21  1  0
 20 21  2  0
  7 22  1  0
  4 23  1  0
 22 23  1  0
M  END
