piperidine-amides-13059-covalent
     RDKit          3D

 20 21  0  0  0  0  0  0  0  0999 V2000
    7.1190   -3.2360   19.1480 C   0  0  0  0  0  0  0  0  0  0  0  0
    6.3020   -3.9730   20.1420 C   0  0  0  0  0  0  0  0  0  0  0  0
    5.1900   -4.3850   19.7820 O   0  0  0  0  0  0  0  0  0  0  0  0
    6.7810   -4.2370   21.4190 N   0  0  0  0  0  0  0  0  0  0  0  0
    7.5060   -3.2170   22.0890 C   0  0  0  0  0  0  0  0  0  0  0  0
    7.4470   -3.2790   23.5380 C   0  0  0  0  0  0  0  0  0  0  0  0
    6.2880   -3.9590   24.1350 C   0  0  0  0  0  0  0  0  0  0  0  0
    5.4960   -3.0030   24.9550 C   0  0  0  0  0  0  0  0  0  0  0  0
    4.2980   -2.8360   24.6690 O   0  0  0  0  0  0  0  0  0  0  0  0
    6.0540   -2.3200   26.0560 N   0  0  0  0  0  0  0  0  0  0  0  0
    5.6960   -2.7790   27.4050 C   0  0  0  0  0  0  0  0  0  0  0  0
    5.3510   -4.2130   27.3090 C   0  0  0  0  0  0  0  0  0  0  0  0
    6.5160   -4.9480   27.0140 C   0  0  0  0  0  0  0  0  0  0  0  0
    7.2710   -4.8110   25.8740 C   0  0  0  0  0  0  0  0  0  0  0  0
    8.3940   -5.5140   25.6700 C   0  0  0  0  0  0  0  0  0  0  0  0
    8.4950   -6.4080   27.0930 S   0  0  0  0  0  0  0  0  0  0  0  0
    7.0360   -5.9490   27.9560 C   0  0  0  0  0  0  0  0  0  0  0  0
    6.2190   -6.4600   29.5920 Br  0  0  0  0  0  0  0  0  0  0  0  0
    5.4650   -4.7760   23.1950 C   0  0  0  0  0  0  0  0  0  0  0  0
    6.2720   -5.3030   22.2270 C   0  0  0  0  0  0  0  0  0  0  0  0
  1  2  1  0
  2  3  2  0
  2  4  1  0
  4  5  1  0
  5  6  1  0
  6  7  1  0
  7  8  1  0
  8  9  2  0
  8 10  1  0
 10 11  1  0
 11 12  1  0
 12 13  1  0
 13 14  1  0
 14 15  2  0
 15 16  1  0
 13 17  2  0
 16 17  1  0
 17 18  1  0
  7 19  1  0
  4 20  1  0
 19 20  1  0
M  END
