piperidine-amides-13980-covalent
     RDKit          3D

 25 27  0  0  0  0  0  0  0  0999 V2000
    7.1420   -3.2660   19.2030 C   0  0  0  0  0  0  0  0  0  0  0  0
    6.3800   -4.0380   20.2200 C   0  0  0  0  0  0  0  0  0  0  0  0
    5.3040   -4.5670   19.8950 O   0  0  0  0  0  0  0  0  0  0  0  0
    6.9250   -4.1990   21.5090 N   0  0  0  0  0  0  0  0  0  0  0  0
    7.7030   -3.1640   22.1400 C   0  0  0  0  0  0  0  0  0  0  0  0
    6.7980   -2.5380   23.1990 C   0  0  0  0  0  0  0  0  0  0  0  0
    6.4620   -3.6030   24.1920 C   0  0  0  0  0  0  0  0  0  0  0  0
    5.6090   -3.1000   25.2950 C   0  0  0  0  0  0  0  0  0  0  0  0
    4.5910   -2.4870   24.9580 O   0  0  0  0  0  0  0  0  0  0  0  0
    5.9550   -3.3330   26.6320 N   0  0  0  0  0  0  0  0  0  0  0  0
    5.8870   -4.5830   27.2880 C   0  0  0  0  0  0  0  0  0  0  0  0
    6.9710   -5.1430   27.8310 C   0  0  0  0  0  0  0  0  0  0  0  0
    7.8120   -5.7420   26.9530 C   0  0  0  0  0  0  0  0  0  0  0  0
    8.9860   -5.9500   27.5130 C   0  0  0  0  0  0  0  0  0  0  0  0
    9.7380   -4.7380   27.3760 C   0  0  0  0  0  0  0  0  0  0  0  0
    9.3440   -4.2010   25.9930 C   0  0  0  0  0  0  0  0  0  0  0  0
    8.1090   -5.0640   25.7870 C   0  0  0  0  0  0  0  0  0  0  0  0
    4.8340   -4.7780   28.1380 C   0  0  0  0  0  0  0  0  0  0  0  0
    3.7460   -5.7160   27.7480 C   0  0  0  0  0  0  0  0  0  0  0  0
    2.9840   -5.4210   29.0260 C   0  0  0  0  0  0  0  0  0  0  0  0
    1.9090   -6.2390   29.4470 C   0  0  0  0  0  0  0  0  0  0  0  0
    3.0110   -7.3100   29.0650 C   0  0  0  0  0  0  0  0  0  0  0  0
    3.8240   -7.0260   27.8480 C   0  0  0  0  0  0  0  0  0  0  0  0
    5.7380   -4.7770   23.5460 C   0  0  0  0  0  0  0  0  0  0  0  0
    6.4390   -5.2900   22.3390 C   0  0  0  0  0  0  0  0  0  0  0  0
  1  2  1  0
  2  3  2  0
  2  4  1  0
  4  5  1  0
  5  6  1  0
  6  7  1  0
  7  8  1  0
  8  9  2  0
  8 10  1  0
 10 11  1  0
 11 12  1  0
 12 13  1  0
 13 14  1  0
 14 15  1  0
 15 16  1  0
 13 17  1  0
 16 17  1  0
 11 18  1  0
 18 19  1  0
 19 20  1  0
 20 21  1  0
 21 22  1  0
 19 23  1  0
 22 23  1  0
  7 24  1  0
  4 25  1  0
 24 25  1  0
M  END
