piperidine-amides-2990-covalent
     RDKit          3D

 23 24  0  0  0  0  0  0  0  0999 V2000
    7.1740   -3.2830   19.2540 C   0  0  0  0  0  0  0  0  0  0  0  0
    6.3620   -4.0130   20.2170 C   0  0  0  0  0  0  0  0  0  0  0  0
    5.2960   -4.5200   19.8780 O   0  0  0  0  0  0  0  0  0  0  0  0
    6.8490   -4.1830   21.5530 N   0  0  0  0  0  0  0  0  0  0  0  0
    7.7510   -3.2060   22.1090 C   0  0  0  0  0  0  0  0  0  0  0  0
    7.3210   -2.9430   23.5040 C   0  0  0  0  0  0  0  0  0  0  0  0
    5.9500   -3.5760   23.5800 C   0  0  0  0  0  0  0  0  0  0  0  0
    5.2470   -3.1410   24.7970 C   0  0  0  0  0  0  0  0  0  0  0  0
    4.1120   -3.5480   25.1070 O   0  0  0  0  0  0  0  0  0  0  0  0
    5.8760   -2.2210   25.6410 N   0  0  0  0  0  0  0  0  0  0  0  0
    5.6220   -2.3920   27.0280 C   0  0  0  0  0  0  0  0  0  0  0  0
    6.4750   -3.5280   27.4210 C   0  0  0  0  0  0  0  0  0  0  0  0
    6.1040   -4.7990   27.0030 C   0  0  0  0  0  0  0  0  0  0  0  0
    6.8860   -5.9380   27.3390 N   0  0  0  0  0  0  0  0  0  0  0  0
    8.0350   -5.6560   28.1090 C   0  0  0  0  0  0  0  0  0  0  0  0
    8.3190   -4.3750   28.4780 C   0  0  0  0  0  0  0  0  0  0  0  0
    7.5770   -3.1670   28.1810 C   0  0  0  0  0  0  0  0  0  0  0  0
    7.7180   -1.8050   28.4680 C   0  0  0  0  0  0  0  0  0  0  0  0
    8.5610   -1.3260   29.4350 C   0  0  0  0  0  0  0  0  0  0  0  0
    8.1300   -1.1450   27.1580 C   0  0  0  0  0  0  0  0  0  0  0  0
    6.4070   -1.1970   28.8610 C   0  0  0  0  0  0  0  0  0  0  0  0
    5.9680   -5.0920   23.4610 C   0  0  0  0  0  0  0  0  0  0  0  0
    6.6100   -5.4140   22.2590 C   0  0  0  0  0  0  0  0  0  0  0  0
  1  2  1  0
  2  3  2  0
  2  4  1  0
  4  5  1  0
  5  6  1  0
  6  7  1  0
  7  8  1  0
  8  9  2  0
  8 10  1  0
 10 11  1  0
 11 12  1  0
 12 13  2  0
 13 14  1  0
 14 15  2  0
 15 16  1  0
 12 17  1  0
 16 17  2  0
 17 18  1  0
 18 19  1  0
 18 20  1  0
 18 21  1  0
  7 22  1  0
  4 23  1  0
 22 23  1  0
M  END
