piperidine-amides-9259-covalent
     RDKit          3D

 20 21  0  0  0  0  0  0  0  0999 V2000
    7.1240   -3.2840   19.2230 C   0  0  0  0  0  0  0  0  0  0  0  0
    6.3050   -3.9860   20.2100 C   0  0  0  0  0  0  0  0  0  0  0  0
    5.2360   -4.5020   19.8580 O   0  0  0  0  0  0  0  0  0  0  0  0
    6.7300   -4.1400   21.5390 N   0  0  0  0  0  0  0  0  0  0  0  0
    6.4250   -5.3320   22.2880 C   0  0  0  0  0  0  0  0  0  0  0  0
    5.7060   -4.8520   23.5270 C   0  0  0  0  0  0  0  0  0  0  0  0
    5.7980   -3.3520   23.7010 C   0  0  0  0  0  0  0  0  0  0  0  0
    5.3270   -2.8710   25.0370 C   0  0  0  0  0  0  0  0  0  0  0  0
    4.5280   -3.5850   25.7100 O   0  0  0  0  0  0  0  0  0  0  0  0
    5.6830   -1.6210   25.6290 N   0  0  0  0  0  0  0  0  0  0  0  0
    6.5730   -1.6080   26.8020 C   0  0  0  0  0  0  0  0  0  0  0  0
    7.4130   -2.7160   26.4720 C   0  0  0  0  0  0  0  0  0  0  0  0
    7.1400   -3.7920   27.1390 N   0  0  0  0  0  0  0  0  0  0  0  0
    8.0130   -4.6750   26.6270 C   0  0  0  0  0  0  0  0  0  0  0  0
    8.1520   -6.0660   27.0070 C   0  0  0  0  0  0  0  0  0  0  0  0
    9.5800   -6.2760   26.6890 C   0  0  0  0  0  0  0  0  0  0  0  0
    8.7710   -4.1190   25.6930 N   0  0  0  0  0  0  0  0  0  0  0  0
    8.3600   -2.8500   25.6350 O   0  0  0  0  0  0  0  0  0  0  0  0
    7.2000   -2.9180   23.4250 C   0  0  0  0  0  0  0  0  0  0  0  0
    7.4740   -3.0490   22.0920 C   0  0  0  0  0  0  0  0  0  0  0  0
  1  2  1  0
  2  3  2  0
  2  4  1  0
  4  5  1  0
  5  6  1  0
  6  7  1  0
  7  8  1  0
  8  9  2  0
  8 10  1  0
 10 11  1  0
 11 12  1  0
 12 13  2  0
 13 14  1  0
 14 15  1  0
 15 16  1  0
 14 17  2  0
 12 18  1  0
 17 18  1  0
  7 19  1  0
  4 20  1  0
 19 20  1  0
M  END
