piperidine-amides-12668-covalent
     RDKit          3D

 23 24  0  0  0  0  0  0  0  0999 V2000
    7.1020   -3.2970   19.2280 C   0  0  0  0  0  0  0  0  0  0  0  0
    6.3820   -4.0980   20.2470 C   0  0  0  0  0  0  0  0  0  0  0  0
    5.3050   -4.6210   19.9010 O   0  0  0  0  0  0  0  0  0  0  0  0
    6.9270   -4.2950   21.5180 N   0  0  0  0  0  0  0  0  0  0  0  0
    7.6560   -3.2300   22.1360 C   0  0  0  0  0  0  0  0  0  0  0  0
    7.1630   -2.8350   23.4510 C   0  0  0  0  0  0  0  0  0  0  0  0
    6.5450   -3.9220   24.2240 C   0  0  0  0  0  0  0  0  0  0  0  0
    5.8020   -3.3560   25.3770 C   0  0  0  0  0  0  0  0  0  0  0  0
    4.5660   -3.2220   25.2710 O   0  0  0  0  0  0  0  0  0  0  0  0
    6.4600   -2.9830   26.5650 N   0  0  0  0  0  0  0  0  0  0  0  0
    6.3810   -1.6190   27.1410 C   0  0  0  0  0  0  0  0  0  0  0  0
    6.8080   -1.2880   28.5160 C   0  0  0  0  0  0  0  0  0  0  0  0
    6.7140    0.0550   29.0870 C   0  0  0  0  0  0  0  0  0  0  0  0
    7.1120    0.3070   30.3700 C   0  0  0  0  0  0  0  0  0  0  0  0
    6.1090    0.2390   31.3170 C   0  0  0  0  0  0  0  0  0  0  0  0
    7.6250    1.6970   30.5490 C   0  0  0  0  0  0  0  0  0  0  0  0
    8.1940   -0.4540   30.6610 C   0  0  0  0  0  0  0  0  0  0  0  0
    6.2240    1.1470   28.3990 C   0  0  0  0  0  0  0  0  0  0  0  0
    5.8030    0.9130   27.0810 C   0  0  0  0  0  0  0  0  0  0  0  0
    5.8490   -0.3980   26.4090 C   0  0  0  0  0  0  0  0  0  0  0  0
    5.4020   -0.5160   25.1080 O   0  0  0  0  0  0  0  0  0  0  0  0
    5.6730   -4.8380   23.4440 C   0  0  0  0  0  0  0  0  0  0  0  0
    6.5020   -5.4020   22.3330 C   0  0  0  0  0  0  0  0  0  0  0  0
  1  2  1  0
  2  3  2  0
  2  4  1  0
  4  5  1  0
  5  6  1  0
  6  7  1  0
  7  8  1  0
  8  9  2  0
  8 10  1  0
 10 11  1  0
 11 12  2  0
 12 13  1  0
 13 14  1  0
 14 15  1  0
 14 16  1  0
 14 17  1  0
 13 18  2  0
 18 19  1  0
 11 20  1  0
 19 20  2  0
 20 21  1  0
  7 22  1  0
  4 23  1  0
 22 23  1  0
M  END
