piperidine-amides-12293-covalent
     RDKit          3D

 24 25  0  0  0  0  0  0  0  0999 V2000
    7.1370   -3.2750   19.1940 C   0  0  0  0  0  0  0  0  0  0  0  0
    6.3720   -3.9980   20.2040 C   0  0  0  0  0  0  0  0  0  0  0  0
    5.3090   -4.5370   19.8900 O   0  0  0  0  0  0  0  0  0  0  0  0
    6.8760   -4.1380   21.5410 N   0  0  0  0  0  0  0  0  0  0  0  0
    6.5940   -5.3450   22.2700 C   0  0  0  0  0  0  0  0  0  0  0  0
    6.1920   -4.9890   23.6710 C   0  0  0  0  0  0  0  0  0  0  0  0
    6.2260   -3.4710   23.7860 C   0  0  0  0  0  0  0  0  0  0  0  0
    5.8560   -3.0030   25.1470 C   0  0  0  0  0  0  0  0  0  0  0  0
    4.7210   -2.5490   25.4060 O   0  0  0  0  0  0  0  0  0  0  0  0
    6.8280   -3.0720   26.1730 N   0  0  0  0  0  0  0  0  0  0  0  0
    6.3980   -3.3850   27.5190 C   0  0  0  0  0  0  0  0  0  0  0  0
    5.0040   -4.0000   27.4790 C   0  0  2  0  0  0  0  0  0  0  0  0
    4.7170   -4.7530   28.6000 C   0  0  0  0  0  0  0  0  0  0  0  0
    5.3800   -5.9960   28.4090 N   0  0  0  0  0  0  0  0  0  0  0  0
    6.2020   -6.4170   29.4950 C   0  0  0  0  0  0  0  0  0  0  0  0
    5.5380   -7.0980   30.4950 C   0  0  0  0  0  0  0  0  0  0  0  0
    5.8280   -6.8250   31.6820 O   0  0  0  0  0  0  0  0  0  0  0  0
    6.1860   -6.2110   27.2650 C   0  0  0  0  0  0  0  0  0  0  0  0
    7.4890   -6.6180   27.4360 O   0  0  0  0  0  0  0  0  0  0  0  0
    5.5350   -5.9080   26.1350 N   0  0  0  0  0  0  0  0  0  0  0  0
    4.7950   -4.8110   26.3830 C   0  0  0  0  0  0  0  0  0  0  0  0
    3.7860   -4.5640   25.4730 O   0  0  0  0  0  0  0  0  0  0  0  0
    7.6360   -3.0220   23.4490 C   0  0  0  0  0  0  0  0  0  0  0  0
    7.7080   -3.0530   22.0620 C   0  0  0  0  0  0  0  0  0  0  0  0
  1  2  1  0
  2  3  2  0
  2  4  1  0
  4  5  1  0
  5  6  1  0
  6  7  1  0
  7  8  1  0
  8  9  2  0
  8 10  1  0
 10 11  1  0
 12 11  1  1
 12 13  1  0
 13 14  1  0
 14 15  1  0
 15 16  1  0
 16 17  1  0
 14 18  1  0
 18 19  2  0
 18 20  1  0
 12 21  1  0
 20 21  1  0
 21 22  2  0
  7 23  1  0
  4 24  1  0
 23 24  1  0
M  END
