piperidine-amides-2575-covalent
     RDKit          3D

 25 27  0  0  0  0  0  0  0  0999 V2000
    7.0680   -3.3460   19.3760 C   0  0  0  0  0  0  0  0  0  0  0  0
    6.3540   -4.1710   20.3820 C   0  0  0  0  0  0  0  0  0  0  0  0
    5.3880   -4.8240   19.9810 O   0  0  0  0  0  0  0  0  0  0  0  0
    6.8080   -4.2220   21.7070 N   0  0  0  0  0  0  0  0  0  0  0  0
    6.6820   -5.4270   22.4930 C   0  0  0  0  0  0  0  0  0  0  0  0
    6.0110   -5.0970   23.7990 C   0  0  0  0  0  0  0  0  0  0  0  0
    6.0990   -3.5900   24.0180 C   0  0  0  0  0  0  0  0  0  0  0  0
    5.6440   -3.2840   25.3940 C   0  0  0  0  0  0  0  0  0  0  0  0
    4.4410   -3.3940   25.6630 O   0  0  0  0  0  0  0  0  0  0  0  0
    6.5360   -2.8710   26.4030 N   0  0  0  0  0  0  0  0  0  0  0  0
    6.3240   -1.5900   27.0500 C   0  0  0  0  0  0  0  0  0  0  0  0
    7.0290   -1.4460   28.3120 C   0  0  0  0  0  0  0  0  0  0  0  0
    6.9820   -0.3800   29.0600 C   0  0  0  0  0  0  0  0  0  0  0  0
    6.2100    0.6460   28.6060 C   0  0  0  0  0  0  0  0  0  0  0  0
    5.4350    0.7260   27.4150 C   0  0  0  0  0  0  0  0  0  0  0  0
    4.5740    1.8980   26.9460 C   0  0  0  0  0  0  0  0  0  0  0  0
    4.0300    1.3520   25.6540 C   0  0  0  0  0  0  0  0  0  0  0  0
    3.0880    2.1990   24.8280 C   0  0  0  0  0  0  0  0  0  0  0  0
    3.7640    3.1590   24.0930 O   0  0  0  0  0  0  0  0  0  0  0  0
    1.7090    1.9470   24.8900 O   0  0  0  0  0  0  0  0  0  0  0  0
    0.7570    2.7030   24.1830 C   0  0  0  0  0  0  0  0  0  0  0  0
    4.4750   -0.2010   25.1430 S   0  0  0  0  0  0  0  0  0  0  0  0
    5.4690   -0.5330   26.4870 C   0  0  0  0  0  0  0  0  0  0  0  0
    7.3920   -2.9800   23.6480 C   0  0  0  0  0  0  0  0  0  0  0  0
    7.7140   -3.1930   22.2110 C   0  0  0  0  0  0  0  0  0  0  0  0
  1  2  1  0
  2  3  2  0
  2  4  1  0
  4  5  1  0
  5  6  1  0
  6  7  1  0
  7  8  1  0
  8  9  2  0
  8 10  1  0
 10 11  1  0
 11 12  2  0
 12 13  1  0
 13 14  2  0
 14 15  1  0
 15 16  1  0
 16 17  2  0
 17 18  1  0
 18 19  2  0
 18 20  1  0
 20 21  1  0
 17 22  1  0
 11 23  1  0
 15 23  2  0
 22 23  1  0
  7 24  1  0
  4 25  1  0
 24 25  1  0
M  END
