piperidine-amides-890-covalent
     RDKit          3D

 24 26  0  0  0  0  0  0  0  0999 V2000
    7.0390   -3.3540   19.4860 C   0  0  0  0  0  0  0  0  0  0  0  0
    6.3260   -4.2370   20.3920 C   0  0  0  0  0  0  0  0  0  0  0  0
    5.3160   -4.8650   19.9560 O   0  0  0  0  0  0  0  0  0  0  0  0
    6.6920   -4.4670   21.7280 N   0  0  0  0  0  0  0  0  0  0  0  0
    7.6730   -3.5670   22.3570 C   0  0  0  0  0  0  0  0  0  0  0  0
    6.8480   -3.0190   23.5730 C   0  0  0  0  0  0  0  0  0  0  0  0
    5.8520   -4.0710   24.0160 C   0  0  0  0  0  0  0  0  0  0  0  0
    5.2510   -3.6910   25.4540 C   0  0  0  0  0  0  0  0  0  0  0  0
    4.3500   -4.4300   25.8010 O   0  0  0  0  0  0  0  0  0  0  0  0
    5.9090   -2.6820   25.8150 N   0  0  0  0  0  0  0  0  0  0  0  0
    6.7210   -1.6300   25.9880 C   0  0  0  0  0  0  0  0  0  0  0  0
    7.6460   -1.3210   25.0120 C   0  0  0  0  0  0  0  0  0  0  0  0
    7.3300   -0.3800   23.9790 N   0  0  0  0  0  0  0  0  0  0  0  0
    8.4410   -0.3900   23.2550 C   0  0  0  0  0  0  0  0  0  0  0  0
    8.3890    0.5140   22.0870 C   0  0  0  0  0  0  0  0  0  0  0  0
    9.4050   -1.2350   23.7360 N   0  0  0  0  0  0  0  0  0  0  0  0
    8.9310   -1.8360   24.8460 O   0  0  0  0  0  0  0  0  0  0  0  0
    5.8880   -0.3430   26.0920 C   0  0  0  0  0  0  0  0  0  0  0  0
    5.8910    0.3340   27.3080 C   0  0  0  0  0  0  0  0  0  0  0  0
    6.0450   -0.5190   28.3940 O   0  0  0  0  0  0  0  0  0  0  0  0
    7.0990   -1.3730   28.5770 C   0  0  0  0  0  0  0  0  0  0  0  0
    7.5480   -1.9620   27.2070 C   0  0  0  0  0  0  0  0  0  0  0  0
    6.3080   -5.4670   23.7380 C   0  0  0  0  0  0  0  0  0  0  0  0
    6.3220   -5.6890   22.3780 C   0  0  0  0  0  0  0  0  0  0  0  0
  1  2  1  0
  2  3  2  0
  2  4  1  0
  4  5  1  0
  5  6  1  0
  6  7  1  0
  7  8  1  0
  8  9  2  0
  8 10  1  0
 11 10  1  0
 11 12  1  0
 12 13  2  0
 13 14  1  0
 14 15  1  0
 14 16  2  0
 12 17  1  0
 16 17  1  0
 11 18  1  0
 18 19  1  0
 19 20  1  0
 20 21  1  0
 11 22  1  0
 21 22  1  0
  7 23  1  0
  4 24  1  0
 23 24  1  0
M  END
