piperidine-amides-29674-covalent
     RDKit          3D

 27 30  0  0  0  0  0  0  0  0999 V2000
    7.0420   -3.3710   19.4780 C   0  0  0  0  0  0  0  0  0  0  0  0
    6.3430   -4.2340   20.4240 C   0  0  0  0  0  0  0  0  0  0  0  0
    5.4050   -4.9200   20.0070 O   0  0  0  0  0  0  0  0  0  0  0  0
    6.7550   -4.3370   21.8160 N   0  0  0  0  0  0  0  0  0  0  0  0
    7.6170   -3.3230   22.4120 C   0  0  0  0  0  0  0  0  0  0  0  0
    7.3480   -3.1390   23.9000 C   0  0  0  0  0  0  0  0  0  0  0  0
    6.0910   -3.9290   24.2180 C   0  0  0  0  0  0  0  0  0  0  0  0
    5.4350   -3.7220   25.5850 C   0  0  0  0  0  0  0  0  0  0  0  0
    4.1950   -3.6780   25.6130 O   0  0  0  0  0  0  0  0  0  0  0  0
    6.0720   -3.5360   26.8710 N   0  0  0  0  0  0  0  0  0  0  0  0
    5.6400   -2.3510   27.5600 C   0  0  0  0  0  0  0  0  0  0  0  0
    4.4670   -2.7830   28.3920 C   0  0  0  0  0  0  0  0  0  0  0  0
    4.6420   -3.9180   29.0880 C   0  0  0  0  0  0  0  0  0  0  0  0
    3.7290   -4.2460   30.1720 N   0  0  0  0  0  0  0  0  0  0  0  0
    4.0540   -5.4120   30.9530 C   0  0  0  0  0  0  0  0  0  0  0  0
    3.2690   -5.6970   32.0510 C   0  0  0  0  0  0  0  0  0  0  0  0
    3.5910   -6.8530   32.8470 C   0  0  0  0  0  0  0  0  0  0  0  0
    4.6170   -7.7130   32.6180 C   0  0  0  0  0  0  0  0  0  0  0  0
    4.8760   -8.7790   33.3980 F   0  0  0  0  0  0  0  0  0  0  0  0
    5.3750   -7.3940   31.5080 C   0  0  0  0  0  0  0  0  0  0  0  0
    5.1070   -6.2760   30.6930 C   0  0  0  0  0  0  0  0  0  0  0  0
    5.9240   -5.9620   29.5390 C   0  0  0  0  0  0  0  0  0  0  0  0
    6.8670   -6.6150   29.1000 O   0  0  0  0  0  0  0  0  0  0  0  0
    5.6370   -4.8120   28.8700 C   0  0  0  0  0  0  0  0  0  0  0  0
    6.4960   -4.5460   27.8660 C   0  0  0  0  0  0  0  0  0  0  0  0
    6.3080   -5.3930   23.9490 C   0  0  0  0  0  0  0  0  0  0  0  0
    6.6940   -5.6220   22.4720 C   0  0  0  0  0  0  0  0  0  0  0  0
  1  2  1  0
  2  3  2  0
  2  4  1  0
  4  5  1  0
  5  6  1  0
  6  7  1  0
  7  8  1  0
  8  9  2  0
  8 10  1  0
 10 11  1  0
 11 12  1  0
 12 13  1  0
 13 14  1  0
 14 15  1  0
 15 16  2  0
 16 17  1  0
 17 18  2  0
 18 19  1  0
 18 20  1  0
 15 21  1  0
 20 21  2  0
 21 22  1  0
 22 23  2  0
 13 24  2  0
 22 24  1  0
 10 25  1  0
 24 25  1  0
  7 26  1  0
  4 27  1  0
 26 27  1  0
M  END
