piperidine-amides-23982-covalent
     RDKit          3D

 24 26  0  0  0  0  0  0  0  0999 V2000
    7.0940   -3.3530   19.3310 C   0  0  0  0  0  0  0  0  0  0  0  0
    6.4460   -4.2130   20.3300 C   0  0  0  0  0  0  0  0  0  0  0  0
    5.3870   -4.7940   19.9770 O   0  0  0  0  0  0  0  0  0  0  0  0
    7.0360   -4.4220   21.6070 N   0  0  0  0  0  0  0  0  0  0  0  0
    6.5340   -5.4520   22.4290 C   0  0  0  0  0  0  0  0  0  0  0  0
    6.2330   -5.0380   23.8040 C   0  0  0  0  0  0  0  0  0  0  0  0
    6.6650   -3.6800   24.2520 C   0  0  0  0  0  0  0  0  0  0  0  0
    5.6440   -3.1100   25.1950 C   0  0  0  0  0  0  0  0  0  0  0  0
    4.5260   -2.8060   24.7470 O   0  0  0  0  0  0  0  0  0  0  0  0
    5.8730   -2.9190   26.5730 N   0  0  0  0  0  0  0  0  0  0  0  0
    4.8630   -2.9180   27.5910 C   0  0  0  0  0  0  0  0  0  0  0  0
    4.5650   -4.3120   28.2250 C   0  0  0  0  0  0  0  0  0  0  0  0
    5.2500   -4.7100   29.6390 C   0  0  0  0  0  0  0  0  0  0  0  0
    6.2780   -5.7340   29.3470 N   0  0  0  0  0  0  0  0  0  0  0  0
    5.7020   -7.0470   29.3130 C   0  0  0  0  0  0  0  0  0  0  0  0
    6.4680   -5.0890   28.2370 C   0  0  0  0  0  0  0  0  0  0  0  0
    5.5780   -4.8720   29.5190 C   0  0  0  0  0  0  0  0  0  0  0  0
    4.6130   -3.7150   29.7930 C   0  0  0  0  0  0  0  0  0  0  0  0
    3.8700   -3.6100   30.9470 F   0  0  0  0  0  0  0  0  0  0  0  0
    4.4530   -2.6970   28.8450 C   0  0  0  0  0  0  0  0  0  0  0  0
    5.2700   -2.9020   27.6520 C   0  0  0  0  0  0  0  0  0  0  0  0
    6.2880   -3.9950   27.2000 C   0  0  0  0  0  0  0  0  0  0  0  0
    6.9270   -2.7380   23.1210 C   0  0  0  0  0  0  0  0  0  0  0  0
    7.8000   -3.3920   22.2710 C   0  0  0  0  0  0  0  0  0  0  0  0
  1  2  1  0
  2  3  2  0
  2  4  1  0
  4  5  1  0
  5  6  1  0
  6  7  1  0
  7  8  1  0
  8  9  2  0
  8 10  1  0
 10 11  1  0
 11 12  1  0
 12 13  1  0
 13 14  1  0
 14 15  1  0
 14 16  1  0
 16 17  1  0
 17 18  2  0
 18 19  1  0
 18 20  1  0
 20 21  2  0
 10 22  1  0
 16 22  2  0
 21 22  1  0
  7 23  1  0
  4 24  1  0
 23 24  1  0
M  END
