piperidine-amides-8846-covalent
     RDKit          3D

 22 24  0  0  0  0  0  0  0  0999 V2000
    7.0390   -3.3340   19.3320 C   0  0  0  0  0  0  0  0  0  0  0  0
    6.3790   -4.1780   20.3250 C   0  0  0  0  0  0  0  0  0  0  0  0
    5.3640   -4.8050   19.9730 O   0  0  0  0  0  0  0  0  0  0  0  0
    6.9210   -4.3130   21.6320 N   0  0  0  0  0  0  0  0  0  0  0  0
    7.6660   -3.2250   22.2070 C   0  0  0  0  0  0  0  0  0  0  0  0
    6.8980   -2.6630   23.3580 C   0  0  0  0  0  0  0  0  0  0  0  0
    6.5440   -3.8490   24.2140 C   0  0  0  0  0  0  0  0  0  0  0  0
    5.7730   -3.3980   25.4240 C   0  0  0  0  0  0  0  0  0  0  0  0
    4.5410   -3.3840   25.3720 O   0  0  0  0  0  0  0  0  0  0  0  0
    6.5080   -3.0230   26.5360 N   0  0  0  0  0  0  0  0  0  0  0  0
    6.4380   -1.7390   27.1480 C   0  0  0  0  0  0  0  0  0  0  0  0
    5.9000   -0.5320   26.6150 C   0  0  0  0  0  0  0  0  0  0  0  0
    5.8800    0.6820   27.3230 C   0  0  0  0  0  0  0  0  0  0  0  0
    6.3970    0.7760   28.6140 C   0  0  0  0  0  0  0  0  0  0  0  0
    6.2750    2.1420   29.1790 C   0  0  0  0  0  0  0  0  0  0  0  0
    6.7390    2.3610   30.4240 N   0  0  0  0  0  0  0  0  0  0  0  0
    7.2850    1.3250   31.0760 C   0  0  0  0  0  0  0  0  0  0  0  0
    7.4690   -0.0880   30.6260 C   0  0  0  0  0  0  0  0  0  0  0  0
    6.9480   -0.3330   29.2330 C   0  0  0  0  0  0  0  0  0  0  0  0
    6.9920   -1.6580   28.5100 C   0  0  0  0  0  0  0  0  0  0  0  0
    5.6830   -4.8060   23.4180 C   0  0  0  0  0  0  0  0  0  0  0  0
    6.5160   -5.3990   22.4920 C   0  0  0  0  0  0  0  0  0  0  0  0
  1  2  1  0
  2  3  2  0
  2  4  1  0
  4  5  1  0
  5  6  1  0
  6  7  1  0
  7  8  1  0
  8  9  2  0
  8 10  1  0
 10 11  1  0
 11 12  2  0
 12 13  1  0
 13 14  2  0
 14 15  1  0
 15 16  2  0
 16 17  1  0
 17 18  2  0
 14 19  1  0
 18 19  1  0
 11 20  1  0
 19 20  2  0
  7 21  1  0
  4 22  1  0
 21 22  1  0
M  END
