piperidine-amides-8185-covalent
     RDKit          3D

 25 26  0  0  0  0  0  0  0  0999 V2000
    7.0630   -3.3050   19.3240 C   0  0  0  0  0  0  0  0  0  0  0  0
    6.3660   -4.1260   20.3190 C   0  0  0  0  0  0  0  0  0  0  0  0
    5.3390   -4.7210   19.9490 O   0  0  0  0  0  0  0  0  0  0  0  0
    6.8670   -4.2800   21.6410 N   0  0  0  0  0  0  0  0  0  0  0  0
    6.5230   -5.4760   22.3590 C   0  0  0  0  0  0  0  0  0  0  0  0
    6.3380   -5.1820   23.8290 C   0  0  0  0  0  0  0  0  0  0  0  0
    6.0360   -3.7050   23.9690 C   0  0  0  0  0  0  0  0  0  0  0  0
    5.4740   -3.3430   25.3260 C   0  0  0  0  0  0  0  0  0  0  0  0
    4.3260   -2.9090   25.2990 O   0  0  0  0  0  0  0  0  0  0  0  0
    6.2300   -3.4870   26.4990 N   0  0  0  0  0  0  0  0  0  0  0  0
    6.1320   -4.6200   27.3880 C   0  0  0  0  0  0  0  0  0  0  0  0
    4.9260   -4.8760   27.9980 C   0  0  1  0  0  0  0  0  0  0  0  0
    4.2520   -3.8110   28.5510 C   0  0  0  0  0  0  0  0  0  0  0  0
    5.1320   -3.0070   29.2460 O   0  0  0  0  0  0  0  0  0  0  0  0
    3.9070   -5.5180   27.1540 C   0  0  0  0  0  0  0  0  0  0  0  0
    2.5880   -5.9780   27.6940 C   0  0  0  0  0  0  0  0  0  0  0  0
    1.2980   -5.3300   27.1710 C   0  0  0  0  0  0  0  0  0  0  0  0
   -0.0320   -5.7200   27.6440 C   0  0  0  0  0  0  0  0  0  0  0  0
   -0.1810   -6.7880   28.6780 C   0  0  0  0  0  0  0  0  0  0  0  0
   -1.4230   -7.1750   29.1420 F   0  0  0  0  0  0  0  0  0  0  0  0
    1.1620   -7.4160   29.1760 C   0  0  0  0  0  0  0  0  0  0  0  0
    0.9690   -8.7850   30.5040 Br  0  0  0  0  0  0  0  0  0  0  0  0
    2.4440   -7.0680   28.7450 C   0  0  0  0  0  0  0  0  0  0  0  0
    7.3110   -2.9870   23.6770 C   0  0  0  0  0  0  0  0  0  0  0  0
    7.6220   -3.1800   22.2160 C   0  0  0  0  0  0  0  0  0  0  0  0
  1  2  1  0
  2  3  2  0
  2  4  1  0
  4  5  1  0
  5  6  1  0
  6  7  1  0
  7  8  1  0
  8  9  2  0
  8 10  1  0
 10 11  1  0
 12 11  1  6
 12 13  1  0
 13 14  1  0
 12 15  1  0
 15 16  1  0
 16 17  2  0
 17 18  1  0
 18 19  2  0
 19 20  1  0
 19 21  1  0
 21 22  1  0
 16 23  1  0
 21 23  2  0
  7 24  1  0
  4 25  1  0
 24 25  1  0
M  END
