piperidine-amides-35287-covalent
     RDKit          3D

 33 36  0  0  0  0  0  0  0  0999 V2000
    7.1290   -3.3290   19.2860 C   0  0  0  0  0  0  0  0  0  0  0  0
    6.4720   -4.1820   20.3050 C   0  0  0  0  0  0  0  0  0  0  0  0
    5.4230   -4.7370   19.9670 O   0  0  0  0  0  0  0  0  0  0  0  0
    7.0720   -4.3820   21.5560 N   0  0  0  0  0  0  0  0  0  0  0  0
    6.7070   -5.4920   22.3720 C   0  0  0  0  0  0  0  0  0  0  0  0
    5.8470   -4.9780   23.4910 C   0  0  0  0  0  0  0  0  0  0  0  0
    6.4100   -3.6790   24.1020 C   0  0  0  0  0  0  0  0  0  0  0  0
    5.3040   -2.9930   24.8150 C   0  0  0  0  0  0  0  0  0  0  0  0
    4.4700   -2.3480   24.1940 O   0  0  0  0  0  0  0  0  0  0  0  0
    5.1860   -3.0550   26.1950 N   0  0  0  0  0  0  0  0  0  0  0  0
    6.3660   -3.4520   26.7770 C   0  0  0  0  0  0  0  0  0  0  0  0
    5.8000   -4.7410   27.3180 C   0  0  1  0  0  0  0  0  0  0  0  0
    5.5310   -4.7160   28.6090 C   0  0  0  0  0  0  0  0  0  0  0  0
    6.4780   -4.3280   29.3650 C   0  0  0  0  0  0  0  0  0  0  0  0
    6.0030   -2.9490   29.2350 N   0  0  0  0  0  0  0  0  0  0  0  0
    5.5260   -2.0460   30.2570 C   0  0  0  0  0  0  0  0  0  0  0  0
    6.0420   -0.7930   30.3700 O   0  0  0  0  0  0  0  0  0  0  0  0
    4.5490   -2.3490   31.1760 O   0  0  0  0  0  0  0  0  0  0  0  0
    3.3510   -3.0150   30.8670 C   0  0  0  0  0  0  0  0  0  0  0  0
    3.2770   -4.5100   30.9460 C   0  0  0  0  0  0  0  0  0  0  0  0
    2.8390   -3.6480   32.1410 C   0  0  0  0  0  0  0  0  0  0  0  0
    2.2390   -2.3520   30.1290 C   0  0  0  0  0  0  0  0  0  0  0  0
    4.9470   -3.4650   28.4830 C   0  0  0  0  0  0  0  0  0  0  0  0
    4.7830   -5.7040   29.1780 O   0  0  0  0  0  0  0  0  0  0  0  0
    3.8810   -5.7860   28.1280 C   0  0  0  0  0  0  0  0  0  0  0  0
    4.5460   -5.1350   26.9570 C   0  0  2  0  0  0  0  0  0  0  0  0
    4.2020   -5.8870   25.6930 C   0  0  0  0  0  0  0  0  0  0  0  0
    4.3040   -7.3360   25.5640 O   0  0  0  0  0  0  0  0  0  0  0  0
    3.7390   -5.1950   24.5870 O   0  0  0  0  0  0  0  0  0  0  0  0
    2.3810   -5.2190   24.1990 C   0  0  0  0  0  0  0  0  0  0  0  0
    4.0090   -3.7220   26.7120 C   0  0  0  0  0  0  0  0  0  0  0  0
    6.9440   -2.6360   23.1180 C   0  0  0  0  0  0  0  0  0  0  0  0
    7.8700   -3.3290   22.1470 C   0  0  0  0  0  0  0  0  0  0  0  0
  1  2  1  0
  2  3  2  0
  2  4  1  0
  4  5  1  0
  5  6  1  0
  6  7  1  0
  7  8  1  0
  8  9  2  0
  8 10  1  0
 10 11  1  0
 12 11  1  6
 12 13  1  0
 13 14  1  0
 14 15  1  0
 15 16  1  0
 16 17  2  0
 16 18  1  0
 19 18  1  0
 19 20  1  0
 19 21  1  0
 19 22  1  0
 13 23  1  0
 15 23  1  0
 13 24  1  0
 24 25  1  0
 12 26  1  0
 25 26  1  0
 26 27  1  6
 27 28  2  0
 27 29  1  0
 29 30  1  0
 10 31  1  0
 26 31  1  0
  7 32  1  0
  4 33  1  0
 32 33  1  0
M  END
