piperidine-amides-35109-covalent
     RDKit          3D

 31 33  0  0  0  0  0  0  0  0999 V2000
    7.0580   -3.3490   19.3360 C   0  0  0  0  0  0  0  0  0  0  0  0
    6.4280   -4.2120   20.3680 C   0  0  0  0  0  0  0  0  0  0  0  0
    5.4470   -4.8670   20.0030 O   0  0  0  0  0  0  0  0  0  0  0  0
    6.9770   -4.2840   21.6670 N   0  0  0  0  0  0  0  0  0  0  0  0
    7.8030   -3.2110   22.1940 C   0  0  0  0  0  0  0  0  0  0  0  0
    7.5200   -3.0060   23.6600 C   0  0  0  0  0  0  0  0  0  0  0  0
    6.1130   -3.5280   23.9150 C   0  0  0  0  0  0  0  0  0  0  0  0
    5.5100   -2.9930   25.1670 C   0  0  0  0  0  0  0  0  0  0  0  0
    4.3780   -2.5120   25.0580 O   0  0  0  0  0  0  0  0  0  0  0  0
    6.0640   -2.9840   26.4710 N   0  0  0  0  0  0  0  0  0  0  0  0
    5.7330   -4.2630   27.0960 C   0  0  0  0  0  0  0  0  0  0  0  0
    5.2260   -5.2360   26.2670 N   0  0  0  0  0  0  0  0  0  0  0  0
    4.8410   -6.4880   26.5730 C   0  0  0  0  0  0  0  0  0  0  0  0
    4.9600   -6.8520   27.8660 C   0  0  0  0  0  0  0  0  0  0  0  0
    5.4430   -5.9450   28.7220 C   0  0  0  0  0  0  0  0  0  0  0  0
    5.5740   -6.4440   30.3920 Cl  0  0  0  0  0  0  0  0  0  0  0  0
    5.8220   -4.6930   28.3700 N   0  0  0  0  0  0  0  0  0  0  0  0
    5.8560   -1.8250   27.3080 C   0  0  2  0  0  0  0  0  0  0  0  0
    5.6100   -0.5720   26.4600 C   0  0  0  0  0  0  0  0  0  0  0  0
    5.8560    0.2340   27.7050 C   0  0  0  0  0  0  0  0  0  0  0  0
    6.5650   -0.2460   28.7490 N   0  0  0  0  0  0  0  0  0  0  0  0
    6.2350    0.2760   30.0480 C   0  0  0  0  0  0  0  0  0  0  0  0
    6.3330    1.6400   30.2590 O   0  0  0  0  0  0  0  0  0  0  0  0
    5.8170   -0.5260   31.1060 O   0  0  0  0  0  0  0  0  0  0  0  0
    4.5160   -1.0160   31.2650 C   0  0  0  0  0  0  0  0  0  0  0  0
    4.1680   -0.9990   32.7180 C   0  0  0  0  0  0  0  0  0  0  0  0
    4.0720   -2.3040   30.6420 C   0  0  0  0  0  0  0  0  0  0  0  0
    3.4870    0.0770   31.0720 C   0  0  0  0  0  0  0  0  0  0  0  0
    6.8020   -1.6050   28.4410 C   0  0  0  0  0  0  0  0  0  0  0  0
    6.1500   -5.0310   23.8310 C   0  0  0  0  0  0  0  0  0  0  0  0
    6.6450   -5.4390   22.4610 C   0  0  0  0  0  0  0  0  0  0  0  0
  1  2  1  0
  2  3  2  0
  2  4  1  0
  4  5  1  0
  5  6  1  0
  6  7  1  0
  7  8  1  0
  8  9  2  0
  8 10  1  0
 10 11  1  0
 11 12  2  0
 12 13  1  0
 13 14  2  0
 14 15  1  0
 15 16  1  0
 11 17  1  0
 15 17  2  0
 18 10  1  6
 18 19  1  0
 19 20  1  0
 20 21  1  0
 21 22  1  0
 22 23  2  0
 22 24  1  0
 25 24  1  0
 25 26  1  0
 25 27  1  0
 25 28  1  0
 18 29  1  0
 21 29  1  0
  7 30  1  0
  4 31  1  0
 30 31  1  0
M  END
