piperidine-amides-3576-covalent
     RDKit          3D

 19 21  0  0  0  0  0  0  0  0999 V2000
    7.1430   -3.3180   19.2130 C   0  0  0  0  0  0  0  0  0  0  0  0
    6.3530   -4.0600   20.1980 C   0  0  0  0  0  0  0  0  0  0  0  0
    5.2280   -4.4720   19.8480 O   0  0  0  0  0  0  0  0  0  0  0  0
    6.8910   -4.3690   21.4600 N   0  0  0  0  0  0  0  0  0  0  0  0
    7.5770   -3.3370   22.1520 C   0  0  0  0  0  0  0  0  0  0  0  0
    7.4340   -3.3250   23.6030 C   0  0  0  0  0  0  0  0  0  0  0  0
    6.5220   -4.3190   24.2220 C   0  0  0  0  0  0  0  0  0  0  0  0
    5.7420   -3.6400   25.2900 C   0  0  0  0  0  0  0  0  0  0  0  0
    4.5250   -3.9050   25.4450 O   0  0  0  0  0  0  0  0  0  0  0  0
    6.3470   -2.6940   26.1220 N   0  0  0  0  0  0  0  0  0  0  0  0
    5.6610   -1.7090   26.8430 C   0  0  0  0  0  0  0  0  0  0  0  0
    5.9360   -0.3060   26.8380 C   0  0  0  0  0  0  0  0  0  0  0  0
    6.0290   -0.2000   28.3380 C   0  0  0  0  0  0  0  0  0  0  0  0
    5.0170    0.4100   29.0310 C   0  0  0  0  0  0  0  0  0  0  0  0
    6.0070    0.5110   30.1820 C   0  0  0  0  0  0  0  0  0  0  0  0
    7.0210    0.5070   29.1260 C   0  0  0  0  0  0  0  0  0  0  0  0
    6.1570   -1.6830   28.3280 C   0  0  0  0  0  0  0  0  0  0  0  0
    5.6200   -5.0820   23.2980 C   0  0  0  0  0  0  0  0  0  0  0  0
    6.4710   -5.5510   22.1550 C   0  0  0  0  0  0  0  0  0  0  0  0
  1  2  1  0
  2  3  2  0
  2  4  1  0
  4  5  1  0
  5  6  1  0
  6  7  1  0
  7  8  1  0
  8  9  2  0
  8 10  1  0
 10 11  1  0
 11 12  1  0
 13 12  1  0
 13 14  1  0
 14 15  1  0
 13 16  1  0
 15 16  1  0
 11 17  1  0
 13 17  1  0
  7 18  1  0
  4 19  1  0
 18 19  1  0
M  END
