piperidine-amides-33914-covalent
     RDKit          3D

 30 32  0  0  0  0  0  0  0  0999 V2000
    7.0190   -3.3700   19.4470 C   0  0  0  0  0  0  0  0  0  0  0  0
    6.3790   -4.2550   20.4390 C   0  0  0  0  0  0  0  0  0  0  0  0
    5.4220   -4.9490   20.0090 O   0  0  0  0  0  0  0  0  0  0  0  0
    6.8400   -4.3570   21.7910 N   0  0  0  0  0  0  0  0  0  0  0  0
    6.3640   -5.4400   22.5790 C   0  0  0  0  0  0  0  0  0  0  0  0
    5.8640   -5.0520   23.9100 C   0  0  0  0  0  0  0  0  0  0  0  0
    5.7750   -3.5860   24.1660 C   0  0  0  0  0  0  0  0  0  0  0  0
    5.1040   -3.1780   25.5000 C   0  0  0  0  0  0  0  0  0  0  0  0
    4.3720   -2.1830   25.4970 O   0  0  0  0  0  0  0  0  0  0  0  0
    5.2610   -3.8730   26.7300 N   0  0  0  0  0  0  0  0  0  0  0  0
    6.3180   -4.6610   26.8060 C   0  0  0  0  0  0  0  0  0  0  0  0
    6.5440   -5.6930   27.7720 C   0  0  0  0  0  0  0  0  0  0  0  0
    6.8350   -5.2320   28.8840 O   0  0  0  0  0  0  0  0  0  0  0  0
    5.6530   -5.2580   29.4730 C   0  0  0  0  0  0  0  0  0  0  0  0
    5.5150   -6.3020   30.3880 C   0  0  0  0  0  0  0  0  0  0  0  0
    4.1030   -6.2220   30.9590 C   0  0  0  0  0  0  0  0  0  0  0  0
    3.7890   -7.2460   31.9070 N   0  0  0  0  0  0  0  0  0  0  0  0
    3.5900   -6.6720   33.2510 C   0  0  0  0  0  0  0  0  0  0  0  0
    3.3720   -5.3080   33.4530 O   0  0  0  0  0  0  0  0  0  0  0  0
    3.5970   -7.4050   34.2930 O   0  0  0  0  0  0  0  0  0  0  0  0
    3.5970   -8.7500   34.0740 C   0  0  0  0  0  0  0  0  0  0  0  0
    3.2960   -9.5480   35.3200 C   0  0  0  0  0  0  0  0  0  0  0  0
    2.6040   -9.1030   32.9780 C   0  0  0  0  0  0  0  0  0  0  0  0
    4.9940   -9.0260   33.6880 C   0  0  0  0  0  0  0  0  0  0  0  0
    3.1570   -5.2540   30.6110 C   0  0  0  0  0  0  0  0  0  0  0  0
    3.4640   -4.2800   29.6780 C   0  0  0  0  0  0  0  0  0  0  0  0
    4.7130   -4.2910   29.1060 C   0  0  0  0  0  0  0  0  0  0  0  0
    5.0960   -3.2470   28.0400 C   0  0  0  0  0  0  0  0  0  0  0  0
    7.1060   -2.9430   23.8560 C   0  0  0  0  0  0  0  0  0  0  0  0
    7.5010   -3.2330   22.4020 C   0  0  0  0  0  0  0  0  0  0  0  0
  1  2  1  0
  2  3  2  0
  2  4  1  0
  4  5  1  0
  5  6  1  0
  6  7  1  0
  7  8  1  0
  8  9  2  0
  8 10  1  0
 10 11  1  0
 11 12  1  0
 12 13  1  0
 13 14  1  0
 14 15  1  0
 15 16  2  0
 16 17  1  0
 17 18  1  0
 18 19  2  0
 18 20  1  0
 21 20  1  0
 21 22  1  0
 21 23  1  0
 21 24  1  0
 16 25  1  0
 25 26  2  0
 14 27  2  0
 26 27  1  0
 10 28  1  0
 27 28  1  0
  7 29  1  0
  4 30  1  0
 29 30  1  0
M  END
