piperidine-amides-10589-covalent
     RDKit          3D

 23 24  0  0  0  0  0  0  0  0999 V2000
    7.0470   -3.3260   19.3620 C   0  0  0  0  0  0  0  0  0  0  0  0
    6.3030   -4.1090   20.3520 C   0  0  0  0  0  0  0  0  0  0  0  0
    5.2780   -4.6970   19.9310 O   0  0  0  0  0  0  0  0  0  0  0  0
    6.7520   -4.2150   21.6750 N   0  0  0  0  0  0  0  0  0  0  0  0
    6.6140   -5.4610   22.4040 C   0  0  0  0  0  0  0  0  0  0  0  0
    5.9880   -5.1390   23.7360 C   0  0  0  0  0  0  0  0  0  0  0  0
    5.7280   -3.6630   23.8200 C   0  0  0  0  0  0  0  0  0  0  0  0
    4.9910   -3.2690   25.0790 C   0  0  0  0  0  0  0  0  0  0  0  0
    3.7860   -2.9990   24.9330 O   0  0  0  0  0  0  0  0  0  0  0  0
    5.4780   -3.1610   26.4150 N   0  0  0  0  0  0  0  0  0  0  0  0
    5.6850   -4.3140   27.2570 C   0  0  2  0  0  0  0  0  0  0  0  0
    4.5020   -4.7350   28.0710 C   0  0  0  0  0  0  0  0  0  0  0  0
    6.8490   -4.1920   28.1050 C   0  0  0  0  0  0  0  0  0  0  0  0
    7.8340   -4.6900   27.4270 C   0  0  0  0  0  0  0  0  0  0  0  0
    8.4570   -5.8520   27.6790 C   0  0  0  0  0  0  0  0  0  0  0  0
    9.4390   -6.2310   26.8660 C   0  0  0  0  0  0  0  0  0  0  0  0
    9.8300   -5.5420   25.8320 C   0  0  0  0  0  0  0  0  0  0  0  0
    9.2410   -4.2550   25.3790 C   0  0  0  0  0  0  0  0  0  0  0  0
    8.1760   -3.9030   26.3610 C   0  0  0  0  0  0  0  0  0  0  0  0
    7.3650   -2.4260   26.1360 S   0  0  0  0  0  0  0  0  0  0  0  0
    7.2950   -1.5010   27.6900 C   0  0  0  0  0  0  0  0  0  0  0  0
    7.0090   -2.8940   23.5950 C   0  0  0  0  0  0  0  0  0  0  0  0
    7.5270   -3.1470   22.3280 C   0  0  0  0  0  0  0  0  0  0  0  0
  1  2  1  0
  2  3  2  0
  2  4  1  0
  4  5  1  0
  5  6  1  0
  6  7  1  0
  7  8  1  0
  8  9  2  0
  8 10  1  0
 10 11  1  0
 11 12  1  1
 11 13  1  0
 13 14  1  0
 14 15  2  0
 15 16  1  0
 16 17  2  0
 17 18  1  0
 14 19  1  0
 18 19  2  0
 19 20  1  0
 20 21  1  0
  7 22  1  0
  4 23  1  0
 22 23  1  0
M  END
