piperidine-amides-35371-covalent
     RDKit          3D

 27 29  0  0  0  0  0  0  0  0999 V2000
    7.0720   -3.3540   19.2970 C   0  0  0  0  0  0  0  0  0  0  0  0
    6.3660   -4.1590   20.3260 C   0  0  0  0  0  0  0  0  0  0  0  0
    5.3570   -4.7680   19.9630 O   0  0  0  0  0  0  0  0  0  0  0  0
    6.8820   -4.2370   21.6220 N   0  0  0  0  0  0  0  0  0  0  0  0
    7.7110   -3.1950   22.1720 C   0  0  0  0  0  0  0  0  0  0  0  0
    7.0490   -2.6310   23.3860 C   0  0  0  0  0  0  0  0  0  0  0  0
    6.5850   -3.7810   24.2710 C   0  0  0  0  0  0  0  0  0  0  0  0
    5.7260   -3.2180   25.3390 C   0  0  0  0  0  0  0  0  0  0  0  0
    4.6440   -2.7210   25.0060 O   0  0  0  0  0  0  0  0  0  0  0  0
    6.0800   -3.2350   26.7110 N   0  0  0  0  0  0  0  0  0  0  0  0
    6.2730   -1.9460   27.3650 C   0  0  0  0  0  0  0  0  0  0  0  0
    5.8590   -0.7210   26.5730 C   0  0  0  0  0  0  0  0  0  0  0  0
    5.9630    0.5640   27.0660 C   0  0  0  0  0  0  0  0  0  0  0  0
    6.4600    0.7370   28.3230 C   0  0  0  0  0  0  0  0  0  0  0  0
    6.8580   -0.3100   29.1030 C   0  0  0  0  0  0  0  0  0  0  0  0
    7.5790    0.1940   31.0120 I   0  0  0  0  0  0  0  0  0  0  0  0
    6.7740   -1.7360   28.6180 C   0  0  0  0  0  0  0  0  0  0  0  0
    5.4000   -4.2100   27.5130 C   0  0  0  0  0  0  0  0  0  0  0  0
    6.2780   -5.3300   27.8530 N   0  0  0  0  0  0  0  0  0  0  0  0
    5.6050   -6.3160   28.6570 C   0  0  0  0  0  0  0  0  0  0  0  0
    4.1940   -6.2610   29.1210 C   0  0  0  0  0  0  0  0  0  0  0  0
    3.3890   -5.0780   28.7210 C   0  0  0  0  0  0  0  0  0  0  0  0
    3.9670   -3.9610   27.8710 C   0  0  0  0  0  0  0  0  0  0  0  0
    3.2560   -2.7350   27.4130 C   0  0  0  0  0  0  0  0  0  0  0  0
    1.9660   -2.5510   27.7520 N   0  0  0  0  0  0  0  0  0  0  0  0
    5.7660   -4.8100   23.4850 C   0  0  0  0  0  0  0  0  0  0  0  0
    6.5650   -5.3510   22.4970 C   0  0  0  0  0  0  0  0  0  0  0  0
  1  2  1  0
  2  3  2  0
  2  4  1  0
  4  5  1  0
  5  6  1  0
  6  7  1  0
  7  8  1  0
  8  9  2  0
  8 10  1  0
 10 11  1  0
 11 12  2  0
 12 13  1  0
 13 14  2  0
 14 15  1  0
 15 16  1  0
 11 17  1  0
 15 17  2  0
 10 18  1  0
 18 19  2  0
 19 20  1  0
 20 21  2  0
 21 22  1  0
 18 23  1  0
 22 23  2  0
 23 24  1  0
 24 25  3  0
  7 26  1  0
  4 27  1  0
 26 27  1  0
M  END
