piperidine-amides-24725-covalent
     RDKit          3D

 24 26  0  0  0  0  0  0  0  0999 V2000
    7.0160   -3.3460   19.3810 C   0  0  0  0  0  0  0  0  0  0  0  0
    6.3620   -4.2300   20.3610 C   0  0  0  0  0  0  0  0  0  0  0  0
    5.3820   -4.9120   19.9990 O   0  0  0  0  0  0  0  0  0  0  0  0
    6.8510   -4.3660   21.6740 N   0  0  0  0  0  0  0  0  0  0  0  0
    6.5920   -5.6160   22.3630 C   0  0  0  0  0  0  0  0  0  0  0  0
    6.3350   -5.3070   23.8510 C   0  0  0  0  0  0  0  0  0  0  0  0
    6.0710   -3.8260   23.9440 C   0  0  0  0  0  0  0  0  0  0  0  0
    5.5190   -3.3830   25.2590 C   0  0  0  0  0  0  0  0  0  0  0  0
    4.6420   -2.5010   25.2190 O   0  0  0  0  0  0  0  0  0  0  0  0
    5.9240   -3.8990   26.5190 N   0  0  0  0  0  0  0  0  0  0  0  0
    5.9780   -2.9650   27.6230 C   0  0  0  0  0  0  0  0  0  0  0  0
    5.7640   -3.6300   28.9670 C   0  0  0  0  0  0  0  0  0  0  0  0
    6.1320   -4.9200   29.1830 C   0  0  0  0  0  0  0  0  0  0  0  0
    5.0680   -5.7990   29.0310 N   0  0  0  0  0  0  0  0  0  0  0  0
    5.2460   -7.0870   29.5570 C   0  0  0  0  0  0  0  0  0  0  0  0
    4.8700   -7.1870   30.9040 C   0  0  2  0  0  0  0  0  0  0  0  0
    3.6960   -6.6600   31.3490 C   0  0  0  0  0  0  0  0  0  0  0  0
    3.7020   -5.6460   32.4940 C   0  0  0  0  0  0  0  0  0  0  0  0
    4.8310   -6.6600   32.7560 C   0  0  0  0  0  0  0  0  0  0  0  0
    5.6970   -6.6910   31.8310 O   0  0  0  0  0  0  0  0  0  0  0  0
    4.8540   -5.7280   27.5960 C   0  0  0  0  0  0  0  0  0  0  0  0
    6.0540   -5.2620   26.9830 C   0  0  0  0  0  0  0  0  0  0  0  0
    7.3370   -3.1120   23.5920 C   0  0  0  0  0  0  0  0  0  0  0  0
    7.6120   -3.2990   22.2680 C   0  0  0  0  0  0  0  0  0  0  0  0
  1  2  1  0
  2  3  2  0
  2  4  1  0
  4  5  1  0
  5  6  1  0
  6  7  1  0
  7  8  1  0
  8  9  2  0
  8 10  1  0
 10 11  1  0
 11 12  1  0
 12 13  1  0
 13 14  1  0
 14 15  1  0
 16 15  1  6
 16 17  1  0
 17 18  1  0
 18 19  1  0
 16 20  1  0
 19 20  1  0
 14 21  1  0
 10 22  1  0
 21 22  1  0
  7 23  1  0
  4 24  1  0
 23 24  1  0
M  END
