piperidine-amides-27831-covalent
     RDKit          3D

 26 29  0  0  0  0  0  0  0  0999 V2000
    7.0810   -3.3570   19.3620 C   0  0  0  0  0  0  0  0  0  0  0  0
    6.4230   -4.2260   20.3620 C   0  0  0  0  0  0  0  0  0  0  0  0
    5.3990   -4.8310   19.9820 O   0  0  0  0  0  0  0  0  0  0  0  0
    6.9740   -4.3850   21.6480 N   0  0  0  0  0  0  0  0  0  0  0  0
    6.5760   -5.4700   22.4710 C   0  0  0  0  0  0  0  0  0  0  0  0
    6.1660   -5.0890   23.8350 C   0  0  0  0  0  0  0  0  0  0  0  0
    6.5330   -3.7300   24.3410 C   0  0  0  0  0  0  0  0  0  0  0  0
    5.4720   -3.1940   25.2400 C   0  0  0  0  0  0  0  0  0  0  0  0
    4.6420   -2.4390   24.7140 O   0  0  0  0  0  0  0  0  0  0  0  0
    5.3080   -3.4800   26.6220 N   0  0  0  0  0  0  0  0  0  0  0  0
    4.2010   -2.8740   27.3340 C   0  0  0  0  0  0  0  0  0  0  0  0
    4.2880   -3.3750   28.7020 C   0  0  0  0  0  0  0  0  0  0  0  0
    5.0230   -4.5370   28.9210 N   0  0  0  0  0  0  0  0  0  0  0  0
    4.6840   -5.2550   30.1300 C   0  0  0  0  0  0  0  0  0  0  0  0
    3.6280   -4.6150   30.8020 C   0  0  0  0  0  0  0  0  0  0  0  0
    3.1430   -5.1090   31.9890 N   0  0  0  0  0  0  0  0  0  0  0  0
    3.6990   -6.2080   32.5060 C   0  0  0  0  0  0  0  0  0  0  0  0
    4.7010   -6.7950   31.8420 C   0  0  0  0  0  0  0  0  0  0  0  0
    5.2810   -7.8870   32.3130 N   0  0  0  0  0  0  0  0  0  0  0  0
    6.1910   -8.1680   31.4020 N   0  0  0  0  0  0  0  0  0  0  0  0
    6.1150   -7.2370   30.4390 N   0  0  0  0  0  0  0  0  0  0  0  0
    5.1960   -6.3570   30.6830 N   0  0  0  0  0  0  0  0  0  0  0  0
    6.3340   -4.6450   28.3040 C   0  0  0  0  0  0  0  0  0  0  0  0
    6.4300   -3.4640   27.5570 C   0  0  0  0  0  0  0  0  0  0  0  0
    6.7960   -2.7510   23.2230 C   0  0  0  0  0  0  0  0  0  0  0  0
    7.7630   -3.3720   22.3070 C   0  0  0  0  0  0  0  0  0  0  0  0
  1  2  1  0
  2  3  2  0
  2  4  1  0
  4  5  1  0
  5  6  1  0
  6  7  1  0
  7  8  1  0
  8  9  2  0
  8 10  1  0
 10 11  1  0
 11 12  1  0
 12 13  1  0
 13 14  1  0
 14 15  2  0
 15 16  1  0
 16 17  2  0
 17 18  1  0
 18 19  2  0
 19 20  1  0
 20 21  2  0
 14 22  1  0
 18 22  1  0
 21 22  1  0
 13 23  1  0
 10 24  1  0
 23 24  1  0
  7 25  1  0
  4 26  1  0
 25 26  1  0
M  END
