piperidine-amides-26816-covalent
     RDKit          3D

 24 26  0  0  0  0  0  0  0  0999 V2000
    7.0300   -3.3710   19.4040 C   0  0  0  0  0  0  0  0  0  0  0  0
    6.3980   -4.2570   20.3910 C   0  0  0  0  0  0  0  0  0  0  0  0
    5.3820   -4.8790   19.9880 O   0  0  0  0  0  0  0  0  0  0  0  0
    6.9260   -4.4370   21.6840 N   0  0  0  0  0  0  0  0  0  0  0  0
    6.6680   -5.6170   22.4650 C   0  0  0  0  0  0  0  0  0  0  0  0
    6.4700   -5.1560   23.8850 C   0  0  0  0  0  0  0  0  0  0  0  0
    5.9100   -3.7550   23.9110 C   0  0  0  0  0  0  0  0  0  0  0  0
    5.3770   -3.3560   25.2410 C   0  0  0  0  0  0  0  0  0  0  0  0
    4.6840   -2.3230   25.2770 O   0  0  0  0  0  0  0  0  0  0  0  0
    5.5710   -4.0320   26.4600 N   0  0  0  0  0  0  0  0  0  0  0  0
    6.8720   -4.3710   26.8330 C   0  0  0  0  0  0  0  0  0  0  0  0
    6.9380   -5.6380   27.6540 C   0  0  0  0  0  0  0  0  0  0  0  0
    5.8410   -5.5710   28.6410 N   0  0  0  0  0  0  0  0  0  0  0  0
    5.8970   -6.3850   29.6690 C   0  0  0  0  0  0  0  0  0  0  0  0
    4.7760   -6.9930   30.1750 C   0  0  0  0  0  0  0  0  0  0  0  0
    3.6650   -7.3450   29.4390 C   0  0  0  0  0  0  0  0  0  0  0  0
    2.5770   -7.9740   30.1180 N   0  0  0  0  0  0  0  0  0  0  0  0
    2.7890   -8.1730   31.5440 C   0  0  0  0  0  0  0  0  0  0  0  0
    2.0230   -8.7310   32.5410 C   0  0  0  0  0  0  0  0  0  0  0  0
    4.4230   -7.4730   31.7690 S   0  0  0  0  0  0  0  0  0  0  0  0
    5.3060   -4.3760   28.9000 C   0  0  0  0  0  0  0  0  0  0  0  0
    4.8760   -3.6330   27.6310 C   0  0  0  0  0  0  0  0  0  0  0  0
    6.8920   -2.7050   23.3630 C   0  0  0  0  0  0  0  0  0  0  0  0
    7.7520   -3.4140   22.3270 C   0  0  0  0  0  0  0  0  0  0  0  0
  1  2  1  0
  2  3  2  0
  2  4  1  0
  4  5  1  0
  5  6  1  0
  6  7  1  0
  7  8  1  0
  8  9  2  0
  8 10  1  0
 10 11  1  0
 11 12  1  0
 12 13  1  0
 13 14  1  0
 14 15  1  0
 15 16  2  0
 16 17  1  0
 17 18  2  0
 18 19  1  0
 15 20  1  0
 18 20  1  0
 13 21  1  0
 10 22  1  0
 21 22  1  0
  7 23  1  0
  4 24  1  0
 23 24  1  0
M  END
