piperidine-amides-35427-covalent
     RDKit          3D

 33 35  0  0  0  0  0  0  0  0999 V2000
    7.0430   -3.4030   19.4280 C   0  0  0  0  0  0  0  0  0  0  0  0
    6.3810   -4.2800   20.4290 C   0  0  0  0  0  0  0  0  0  0  0  0
    5.4220   -4.9330   20.0130 O   0  0  0  0  0  0  0  0  0  0  0  0
    6.8770   -4.3760   21.7470 N   0  0  0  0  0  0  0  0  0  0  0  0
    6.6730   -5.5800   22.5380 C   0  0  0  0  0  0  0  0  0  0  0  0
    6.0480   -5.2060   23.8610 C   0  0  0  0  0  0  0  0  0  0  0  0
    5.9780   -3.6910   23.8880 C   0  0  0  0  0  0  0  0  0  0  0  0
    5.2470   -3.1150   25.0560 C   0  0  0  0  0  0  0  0  0  0  0  0
    4.4480   -2.2190   24.8020 O   0  0  0  0  0  0  0  0  0  0  0  0
    5.3630   -3.4850   26.4130 N   0  0  0  0  0  0  0  0  0  0  0  0
    6.5190   -3.0560   27.0700 C   0  0  0  0  0  0  0  0  0  0  0  0
    6.7100   -4.0290   28.2190 C   0  0  0  0  0  0  0  0  0  0  0  0
    5.5550   -3.9020   29.0660 N   0  0  0  0  0  0  0  0  0  0  0  0
    5.6300   -5.1560   29.7420 C   0  0  0  0  0  0  0  0  0  0  0  0
    6.7090   -5.8000   29.8090 O   0  0  0  0  0  0  0  0  0  0  0  0
    4.5440   -5.6860   30.3460 O   0  0  0  0  0  0  0  0  0  0  0  0
    4.4300   -7.0740   30.5610 C   0  0  0  0  0  0  0  0  0  0  0  0
    5.6120   -7.5660   30.0470 C   0  0  0  0  0  0  0  0  0  0  0  0
    5.4800   -7.6300   31.3760 C   0  0  0  0  0  0  0  0  0  0  0  0
    3.8870   -7.9170   29.4980 C   0  0  0  0  0  0  0  0  0  0  0  0
    4.2490   -3.6570   28.5890 C   0  0  0  0  0  0  0  0  0  0  0  0
    4.1670   -3.2200   27.1730 C   0  0  1  0  0  0  0  0  0  0  0  0
    3.8600   -1.7500   27.1230 C   0  0  0  0  0  0  0  0  0  0  0  0
    4.9000   -0.6530   27.1400 C   0  0  0  0  0  0  0  0  0  0  0  0
    4.5330    0.7650   27.0970 C   0  0  0  0  0  0  0  0  0  0  0  0
    3.1150    1.2430   27.0320 C   0  0  0  0  0  0  0  0  0  0  0  0
    2.7210    2.9520   26.9870 Cl  0  0  0  0  0  0  0  0  0  0  0  0
    2.1130    0.2840   27.0110 N   0  0  0  0  0  0  0  0  0  0  0  0
    2.4430   -1.1740   27.0530 C   0  0  0  0  0  0  0  0  0  0  0  0
    1.3700   -2.0420   27.0240 O   0  0  0  0  0  0  0  0  0  0  0  0
    1.2060   -2.9620   25.9730 C   0  0  0  0  0  0  0  0  0  0  0  0
    7.3470   -3.0360   23.7170 C   0  0  0  0  0  0  0  0  0  0  0  0
    7.7100   -3.2870   22.2570 C   0  0  0  0  0  0  0  0  0  0  0  0
  1  2  1  0
  2  3  2  0
  2  4  1  0
  4  5  1  0
  5  6  1  0
  6  7  1  0
  7  8  1  0
  8  9  2  0
  8 10  1  0
 10 11  1  0
 11 12  1  0
 12 13  1  0
 13 14  1  0
 14 15  2  0
 14 16  1  0
 17 16  1  0
 17 18  1  0
 17 19  1  0
 17 20  1  0
 13 21  1  0
 10 22  1  0
 21 22  1  0
 22 23  1  1
 23 24  2  0
 24 25  1  0
 25 26  2  0
 26 27  1  0
 26 28  1  0
 23 29  1  0
 28 29  2  0
 29 30  1  0
 30 31  1  0
  7 32  1  0
  4 33  1  0
 32 33  1  0
M  END
