piperidine-amides-24879-covalent
     RDKit          3D

 24 25  0  0  0  0  0  0  0  0999 V2000
    7.0170   -3.3560   19.4210 C   0  0  0  0  0  0  0  0  0  0  0  0
    6.3690   -4.2550   20.3930 C   0  0  0  0  0  0  0  0  0  0  0  0
    5.4260   -4.9870   20.0130 O   0  0  0  0  0  0  0  0  0  0  0  0
    6.8160   -4.3250   21.7330 N   0  0  0  0  0  0  0  0  0  0  0  0
    6.6590   -5.5760   22.4650 C   0  0  0  0  0  0  0  0  0  0  0  0
    6.1300   -5.2580   23.8830 C   0  0  0  0  0  0  0  0  0  0  0  0
    6.1400   -3.7550   23.9620 C   0  0  0  0  0  0  0  0  0  0  0  0
    5.5660   -3.1300   25.1880 C   0  0  0  0  0  0  0  0  0  0  0  0
    5.1250   -1.9800   25.0320 O   0  0  0  0  0  0  0  0  0  0  0  0
    5.4400   -3.7050   26.4860 N   0  0  0  0  0  0  0  0  0  0  0  0
    6.3230   -3.2870   27.5030 C   0  0  0  0  0  0  0  0  0  0  0  0
    6.6490   -4.5030   28.3530 C   0  0  0  0  0  0  0  0  0  0  0  0
    5.4960   -4.7850   29.1390 N   0  0  0  0  0  0  0  0  0  0  0  0
    5.5410   -5.8380   30.1050 C   0  0  0  0  0  0  0  0  0  0  0  0
    6.5110   -6.6350   30.0930 O   0  0  0  0  0  0  0  0  0  0  0  0
    4.5290   -5.9540   30.9770 N   0  0  0  0  0  0  0  0  0  0  0  0
    4.1340   -7.2030   31.1780 C   0  0  0  0  0  0  0  0  0  0  0  0
    3.7970   -7.9510   30.0520 C   0  0  0  0  0  0  0  0  0  0  0  0
    5.2190   -7.6820   31.8690 C   0  0  0  0  0  0  0  0  0  0  0  0
    3.1610   -7.2070   32.1590 C   0  0  0  0  0  0  0  0  0  0  0  0
    4.2820   -4.5790   28.4730 C   0  0  0  0  0  0  0  0  0  0  0  0
    4.4950   -3.4280   27.5470 C   0  0  0  0  0  0  0  0  0  0  0  0
    7.5200   -3.2540   23.6590 C   0  0  0  0  0  0  0  0  0  0  0  0
    7.6760   -3.2760   22.2680 C   0  0  0  0  0  0  0  0  0  0  0  0
  1  2  1  0
  2  3  2  0
  2  4  1  0
  4  5  1  0
  5  6  1  0
  6  7  1  0
  7  8  1  0
  8  9  2  0
  8 10  1  0
 10 11  1  0
 11 12  1  0
 12 13  1  0
 13 14  1  0
 14 15  2  0
 14 16  1  0
 17 16  1  0
 17 18  1  0
 17 19  1  0
 17 20  1  0
 13 21  1  0
 10 22  1  0
 21 22  1  0
  7 23  1  0
  4 24  1  0
 23 24  1  0
M  END
