piperidine-amides-29004-covalent
     RDKit          3D

 27 30  0  0  0  0  0  0  0  0999 V2000
    6.9760   -3.3380   19.3610 C   0  0  0  0  0  0  0  0  0  0  0  0
    6.3410   -4.2080   20.3540 C   0  0  0  0  0  0  0  0  0  0  0  0
    5.3730   -4.8940   19.9810 O   0  0  0  0  0  0  0  0  0  0  0  0
    6.8170   -4.3050   21.6920 N   0  0  0  0  0  0  0  0  0  0  0  0
    7.6650   -3.2620   22.2210 C   0  0  0  0  0  0  0  0  0  0  0  0
    7.5210   -3.1540   23.7180 C   0  0  0  0  0  0  0  0  0  0  0  0
    6.2060   -3.8020   24.0840 C   0  0  0  0  0  0  0  0  0  0  0  0
    5.7220   -3.4190   25.4690 C   0  0  0  0  0  0  0  0  0  0  0  0
    4.9160   -2.4950   25.4930 O   0  0  0  0  0  0  0  0  0  0  0  0
    6.1550   -4.1030   26.6120 N   0  0  0  0  0  0  0  0  0  0  0  0
    5.9000   -5.4970   26.7530 C   0  0  0  0  0  0  0  0  0  0  0  0
    5.3550   -5.9040   27.9510 C   0  0  0  0  0  0  0  0  0  0  0  0
    4.8500   -5.0880   28.9150 C   0  0  0  0  0  0  0  0  0  0  0  0
    4.2270   -5.5770   30.0650 C   0  0  0  0  0  0  0  0  0  0  0  0
    2.8780   -4.9750   30.3250 C   0  0  0  0  0  0  0  0  0  0  0  0
    2.4050   -5.5330   31.4620 N   0  0  0  0  0  0  0  0  0  0  0  0
    1.2670   -5.3490   32.1280 C   0  0  0  0  0  0  0  0  0  0  0  0
    3.4180   -6.4490   31.8950 C   0  0  0  0  0  0  0  0  0  0  0  0
    3.2670   -7.2700   33.1400 C   0  0  0  0  0  0  0  0  0  0  0  0
    4.5160   -8.1730   33.3710 C   0  0  0  0  0  0  0  0  0  0  0  0
    5.5750   -8.1440   32.4760 C   0  0  0  0  0  0  0  0  0  0  0  0
    5.6600   -7.3690   31.3410 C   0  0  0  0  0  0  0  0  0  0  0  0
    4.5050   -6.4760   31.0560 C   0  0  0  0  0  0  0  0  0  0  0  0
    4.9480   -3.6220   28.6190 C   0  0  0  0  0  0  0  0  0  0  0  0
    6.2510   -3.3770   27.8950 C   0  0  0  0  0  0  0  0  0  0  0  0
    6.3130   -5.2920   23.8560 C   0  0  0  0  0  0  0  0  0  0  0  0
    6.7760   -5.5530   22.4140 C   0  0  0  0  0  0  0  0  0  0  0  0
  1  2  1  0
  2  3  2  0
  2  4  1  0
  4  5  1  0
  5  6  1  0
  6  7  1  0
  7  8  1  0
  8  9  2  0
  8 10  1  0
 10 11  1  0
 11 12  1  0
 12 13  2  0
 13 14  1  0
 14 15  2  0
 15 16  1  0
 16 17  1  0
 16 18  1  0
 18 19  1  0
 19 20  2  0
 20 21  1  0
 21 22  2  0
 14 23  1  0
 18 23  2  0
 22 23  1  0
 13 24  1  0
 10 25  1  0
 24 25  1  0
  7 26  1  0
  4 27  1  0
 26 27  1  0
M  END
