piperidine-amides-35338-covalent
     RDKit          3D

 34 37  0  0  0  0  0  0  0  0999 V2000
    7.0300   -3.3630   19.3750 C   0  0  0  0  0  0  0  0  0  0  0  0
    6.3860   -4.2530   20.3800 C   0  0  0  0  0  0  0  0  0  0  0  0
    5.3960   -4.8740   19.9910 O   0  0  0  0  0  0  0  0  0  0  0  0
    6.9130   -4.4060   21.6780 N   0  0  0  0  0  0  0  0  0  0  0  0
    6.6090   -5.5540   22.4780 C   0  0  0  0  0  0  0  0  0  0  0  0
    5.7990   -5.1240   23.6760 C   0  0  0  0  0  0  0  0  0  0  0  0
    6.3470   -3.8250   24.2960 C   0  0  0  0  0  0  0  0  0  0  0  0
    5.3280   -3.3130   25.2610 C   0  0  0  0  0  0  0  0  0  0  0  0
    4.4520   -2.5640   24.8310 O   0  0  0  0  0  0  0  0  0  0  0  0
    5.3120   -3.6430   26.6430 N   0  0  0  0  0  0  0  0  0  0  0  0
    6.4730   -3.4290   27.3650 C   0  0  0  0  0  0  0  0  0  0  0  0
    6.5690   -4.6330   28.3020 C   0  0  0  0  0  0  0  0  0  0  0  0
    5.3180   -4.6150   29.0860 N   0  0  0  0  0  0  0  0  0  0  0  0
    4.5540   -5.8350   28.7660 C   0  0  0  0  0  0  0  0  0  0  0  0
    3.6090   -5.8370   29.7530 C   0  0  0  0  0  0  0  0  0  0  0  0
    3.7120   -6.8600   30.6760 C   0  0  0  0  0  0  0  0  0  0  0  0
    5.0170   -7.0300   30.9270 N   0  0  0  0  0  0  0  0  0  0  0  0
    5.1880   -7.6070   32.2720 C   0  0  0  0  0  0  0  0  0  0  0  0
    6.1820   -6.9650   32.9620 O   0  0  0  0  0  0  0  0  0  0  0  0
    4.4750   -8.6690   32.7940 O   0  0  0  0  0  0  0  0  0  0  0  0
    3.9670   -8.6370   34.1170 C   0  0  0  0  0  0  0  0  0  0  0  0
    2.9010   -9.6790   34.3230 C   0  0  0  0  0  0  0  0  0  0  0  0
    3.2350  -10.6600   35.4060 C   0  0  0  0  0  0  0  0  0  0  0  0
    2.2160  -11.7190   35.6490 C   0  0  0  0  0  0  0  0  0  0  0  0
    0.9590  -11.7250   34.8100 C   0  0  0  0  0  0  0  0  0  0  0  0
    0.7380  -10.6950   33.7610 C   0  0  0  0  0  0  0  0  0  0  0  0
    1.7800   -9.6250   33.5250 C   0  0  0  0  0  0  0  0  0  0  0  0
    5.9940   -7.3610   29.8900 C   0  0  0  0  0  0  0  0  0  0  0  0
    5.2490   -6.9880   28.6610 C   0  0  0  0  0  0  0  0  0  0  0  0
    4.7130   -3.3510   28.8790 C   0  0  0  0  0  0  0  0  0  0  0  0
    4.6380   -2.3510   29.8390 O   0  0  0  0  0  0  0  0  0  0  0  0
    4.1820   -3.2970   27.4440 C   0  0  0  0  0  0  0  0  0  0  0  0
    6.7600   -2.7210   23.3480 C   0  0  0  0  0  0  0  0  0  0  0  0
    7.6720   -3.3250   22.2740 C   0  0  0  0  0  0  0  0  0  0  0  0
  1  2  1  0
  2  3  2  0
  2  4  1  0
  4  5  1  0
  5  6  1  0
  6  7  1  0
  7  8  1  0
  8  9  2  0
  8 10  1  0
 10 11  1  0
 11 12  1  0
 12 13  1  0
 13 14  1  0
 14 15  1  0
 15 16  1  0
 16 17  1  0
 17 18  1  0
 18 19  2  0
 18 20  1  0
 20 21  1  0
 21 22  1  0
 22 23  2  0
 23 24  1  0
 24 25  2  0
 25 26  1  0
 22 27  1  0
 26 27  2  0
 17 28  1  0
 14 29  1  0
 28 29  1  0
 13 30  1  0
 30 31  2  0
 10 32  1  0
 30 32  1  0
  7 33  1  0
  4 34  1  0
 33 34  1  0
M  END
