piperidine-amides-1770-covalent
     RDKit          3D

 20 21  0  0  0  0  0  0  0  0999 V2000
    7.1190   -3.3510   19.3150 C   0  0  0  0  0  0  0  0  0  0  0  0
    6.3720   -4.1650   20.3010 C   0  0  0  0  0  0  0  0  0  0  0  0
    5.3230   -4.7320   19.9520 O   0  0  0  0  0  0  0  0  0  0  0  0
    6.9180   -4.3130   21.5910 N   0  0  0  0  0  0  0  0  0  0  0  0
    7.7210   -3.3010   22.2290 C   0  0  0  0  0  0  0  0  0  0  0  0
    6.8520   -2.6960   23.3260 C   0  0  0  0  0  0  0  0  0  0  0  0
    6.4620   -3.8200   24.2230 C   0  0  0  0  0  0  0  0  0  0  0  0
    5.6650   -3.3690   25.3850 C   0  0  0  0  0  0  0  0  0  0  0  0
    4.4380   -3.4560   25.2680 O   0  0  0  0  0  0  0  0  0  0  0  0
    6.2770   -2.8620   26.5350 N   0  0  0  0  0  0  0  0  0  0  0  0
    5.8710   -1.6890   27.2300 C   0  0  2  0  0  0  0  0  0  0  0  0
    5.7890   -0.4880   26.5520 C   0  0  0  0  0  0  0  0  0  0  0  0
    5.1890    0.6360   27.1380 C   0  0  0  0  0  0  0  0  0  0  0  0
    5.8780    1.3230   28.0940 C   0  0  0  0  0  0  0  0  0  0  0  0
    6.1290    0.6900   29.4150 C   0  0  0  0  0  0  0  0  0  0  0  0
    5.7010   -0.7780   29.5810 C   0  0  0  0  0  0  0  0  0  0  0  0
    6.4210   -1.5890   28.5170 C   0  0  2  0  0  0  0  0  0  0  0  0
    7.5950   -1.0370   28.2420 C   0  0  0  0  0  0  0  0  0  0  0  0
    5.7200   -4.9340   23.5590 C   0  0  0  0  0  0  0  0  0  0  0  0
    6.5250   -5.4490   22.3840 C   0  0  0  0  0  0  0  0  0  0  0  0
  1  2  1  0
  2  3  2  0
  2  4  1  0
  4  5  1  0
  5  6  1  0
  6  7  1  0
  7  8  1  0
  8  9  2  0
  8 10  1  0
 11 10  1  6
 11 12  1  0
 12 13  1  0
 13 14  1  0
 14 15  1  0
 15 16  1  0
 11 17  1  0
 16 17  1  0
 17 18  1  6
  7 19  1  0
  4 20  1  0
 19 20  1  0
M  END
