piperidine-amides-24154-covalent
     RDKit          3D

 24 26  0  0  0  0  0  0  0  0999 V2000
    7.0200   -3.3690   19.4010 C   0  0  0  0  0  0  0  0  0  0  0  0
    6.3890   -4.2790   20.3710 C   0  0  0  0  0  0  0  0  0  0  0  0
    5.3940   -4.9450   20.0070 O   0  0  0  0  0  0  0  0  0  0  0  0
    6.9090   -4.4580   21.6750 N   0  0  0  0  0  0  0  0  0  0  0  0
    6.5580   -5.6260   22.4290 C   0  0  0  0  0  0  0  0  0  0  0  0
    5.6320   -5.1430   23.5570 C   0  0  0  0  0  0  0  0  0  0  0  0
    6.3100   -3.9960   24.2970 C   0  0  0  0  0  0  0  0  0  0  0  0
    5.3520   -3.3950   25.2860 C   0  0  0  0  0  0  0  0  0  0  0  0
    4.5520   -2.5660   24.8180 O   0  0  0  0  0  0  0  0  0  0  0  0
    5.2790   -3.6940   26.6950 N   0  0  0  0  0  0  0  0  0  0  0  0
    6.3960   -3.4420   27.4880 C   0  0  0  0  0  0  0  0  0  0  0  0
    6.6330   -4.6740   28.3560 C   0  0  0  0  0  0  0  0  0  0  0  0
    5.4760   -4.7530   29.1160 O   0  0  0  0  0  0  0  0  0  0  0  0
    4.4120   -3.9670   28.8320 C   0  0  2  0  0  0  0  0  0  0  0  0
    3.2070   -4.6110   28.7140 C   0  0  0  0  0  0  0  0  0  0  0  0
    2.1220   -4.2770   27.9240 C   0  0  0  0  0  0  0  0  0  0  0  0
    1.1250   -5.1940   28.1180 N   0  0  0  0  0  0  0  0  0  0  0  0
    1.5540   -6.1050   29.0160 N   0  0  0  0  0  0  0  0  0  0  0  0
    1.0050   -7.2990   29.6420 C   0  0  0  0  0  0  0  0  0  0  0  0
    1.9360   -8.4140   29.2180 C   0  0  0  0  0  0  0  0  0  0  0  0
    2.8930   -5.7190   29.3900 C   0  0  0  0  0  0  0  0  0  0  0  0
    4.6080   -3.0580   27.8180 C   0  0  0  0  0  0  0  0  0  0  0  0
    6.7350   -2.8930   23.3350 C   0  0  0  0  0  0  0  0  0  0  0  0
    7.6270   -3.4310   22.3880 C   0  0  0  0  0  0  0  0  0  0  0  0
  1  2  1  0
  2  3  2  0
  2  4  1  0
  4  5  1  0
  5  6  1  0
  6  7  1  0
  7  8  1  0
  8  9  2  0
  8 10  1  0
 10 11  1  0
 11 12  1  0
 12 13  1  0
 13 14  1  0
 14 15  1  6
 15 16  1  0
 16 17  2  0
 17 18  1  0
 18 19  1  0
 19 20  1  0
 15 21  2  0
 18 21  1  0
 10 22  1  0
 14 22  1  0
  7 23  1  0
  4 24  1  0
 23 24  1  0
M  END
