piperidine-amides-936-covalent
     RDKit          3D

 24 26  0  0  0  0  0  0  0  0999 V2000
    7.0820   -3.2850   19.2930 C   0  0  0  0  0  0  0  0  0  0  0  0
    6.3500   -4.0960   20.3070 C   0  0  0  0  0  0  0  0  0  0  0  0
    5.3470   -4.7380   19.9510 O   0  0  0  0  0  0  0  0  0  0  0  0
    6.8360   -4.1480   21.6320 N   0  0  0  0  0  0  0  0  0  0  0  0
    7.7160   -3.1180   22.1750 C   0  0  0  0  0  0  0  0  0  0  0  0
    7.4770   -2.9550   23.6820 C   0  0  0  0  0  0  0  0  0  0  0  0
    6.1410   -3.5310   23.9890 C   0  0  0  0  0  0  0  0  0  0  0  0
    5.6340   -3.2720   25.3560 C   0  0  0  0  0  0  0  0  0  0  0  0
    4.4140   -3.0980   25.4490 O   0  0  0  0  0  0  0  0  0  0  0  0
    6.4850   -3.2280   26.4660 N   0  0  0  0  0  0  0  0  0  0  0  0
    6.1540   -3.6660   27.7770 C   0  0  1  0  0  0  0  0  0  0  0  0
    6.6340   -4.7880   28.4220 C   0  0  0  0  0  0  0  0  0  0  0  0
    6.4270   -2.5420   28.7720 C   0  0  0  0  0  0  0  0  0  0  0  0
    7.6280   -1.8930   29.2140 O   0  0  0  0  0  0  0  0  0  0  0  0
    7.3910   -0.9270   30.1550 C   0  0  0  0  0  0  0  0  0  0  0  0
    8.2280    0.0130   30.9360 C   0  0  0  0  0  0  0  0  0  0  0  0
    7.5510    0.9910   31.9510 C   0  0  0  0  0  0  0  0  0  0  0  0
    6.0000    0.8120   31.9850 C   0  0  0  0  0  0  0  0  0  0  0  0
    5.3410   -0.1060   31.2010 C   0  0  0  0  0  0  0  0  0  0  0  0
    6.1190   -0.9400   30.3110 C   0  0  0  0  0  0  0  0  0  0  0  0
    5.3440   -1.9140   29.4980 C   0  0  0  0  0  0  0  0  0  0  0  0
    3.9860   -2.0820   29.5210 C   0  0  0  0  0  0  0  0  0  0  0  0
    6.0540   -4.9960   23.7230 C   0  0  0  0  0  0  0  0  0  0  0  0
    6.6720   -5.3760   22.4030 C   0  0  0  0  0  0  0  0  0  0  0  0
  1  2  1  0
  2  3  2  0
  2  4  1  0
  4  5  1  0
  5  6  1  0
  6  7  1  0
  7  8  1  0
  8  9  2  0
  8 10  1  0
 10 11  1  0
 11 12  1  1
 11 13  1  0
 13 14  1  0
 14 15  1  0
 15 16  2  0
 16 17  1  0
 17 18  2  0
 18 19  1  0
 15 20  1  0
 19 20  2  0
 13 21  2  0
 20 21  1  0
 21 22  1  0
  7 23  1  0
  4 24  1  0
 23 24  1  0
M  END
