piperidine-amides-11013-covalent
     RDKit          3D

 21 23  0  0  0  0  0  0  0  0999 V2000
    7.0530   -3.3370   19.3260 C   0  0  0  0  0  0  0  0  0  0  0  0
    6.3670   -4.1570   20.3310 C   0  0  0  0  0  0  0  0  0  0  0  0
    5.3790   -4.8220   19.9800 O   0  0  0  0  0  0  0  0  0  0  0  0
    6.8250   -4.2520   21.6620 N   0  0  0  0  0  0  0  0  0  0  0  0
    6.6910   -5.4740   22.4300 C   0  0  0  0  0  0  0  0  0  0  0  0
    6.0150   -5.0920   23.7250 C   0  0  0  0  0  0  0  0  0  0  0  0
    6.0590   -3.6130   23.9570 C   0  0  0  0  0  0  0  0  0  0  0  0
    5.6320   -3.1900   25.3120 C   0  0  0  0  0  0  0  0  0  0  0  0
    4.4010   -3.1030   25.5900 O   0  0  0  0  0  0  0  0  0  0  0  0
    6.5440   -2.8790   26.3380 N   0  0  0  0  0  0  0  0  0  0  0  0
    6.4690   -1.6100   27.0940 C   0  0  0  0  0  0  0  0  0  0  0  0
    5.8780   -0.3840   26.4670 C   0  0  0  0  0  0  0  0  0  0  0  0
    5.8080    0.8800   27.2340 C   0  0  0  0  0  0  0  0  0  0  0  0
    6.3540    0.8240   28.6190 C   0  0  0  0  0  0  0  0  0  0  0  0
    6.9250   -0.3270   29.2520 C   0  0  0  0  0  0  0  0  0  0  0  0
    6.9980   -1.5880   28.4960 C   0  0  0  0  0  0  0  0  0  0  0  0
    7.3940   -0.0650   30.6780 C   0  0  0  0  0  0  0  0  0  0  0  0
    7.0320    1.4080   30.7830 N   0  0  0  0  0  0  0  0  0  0  0  0
    6.3870    1.9650   29.5590 C   0  0  0  0  0  0  0  0  0  0  0  0
    7.4400   -3.0310   23.6650 C   0  0  0  0  0  0  0  0  0  0  0  0
    7.6690   -3.1760   22.1600 C   0  0  0  0  0  0  0  0  0  0  0  0
  1  2  1  0
  2  3  2  0
  2  4  1  0
  4  5  1  0
  5  6  1  0
  6  7  1  0
  7  8  1  0
  8  9  2  0
  8 10  1  0
 10 11  1  0
 11 12  2  0
 12 13  1  0
 13 14  2  0
 14 15  1  0
 11 16  1  0
 15 16  2  0
 15 17  1  0
 17 18  1  0
 14 19  1  0
 18 19  1  0
  7 20  1  0
  4 21  1  0
 20 21  1  0
M  END
