piperidine-amides-2245-covalent
     RDKit          3D

 28 30  0  0  0  0  0  0  0  0999 V2000
    7.1160   -3.3050   19.2440 C   0  0  0  0  0  0  0  0  0  0  0  0
    6.3490   -4.0540   20.2700 C   0  0  0  0  0  0  0  0  0  0  0  0
    5.3020   -4.5860   19.9040 O   0  0  0  0  0  0  0  0  0  0  0  0
    6.8600   -4.1700   21.5670 N   0  0  0  0  0  0  0  0  0  0  0  0
    7.6970   -3.1290   22.1170 C   0  0  0  0  0  0  0  0  0  0  0  0
    7.4260   -2.9850   23.5860 C   0  0  0  0  0  0  0  0  0  0  0  0
    6.0320   -3.5380   23.8820 C   0  0  0  0  0  0  0  0  0  0  0  0
    5.6720   -3.1860   25.2610 C   0  0  0  0  0  0  0  0  0  0  0  0
    4.4830   -3.2440   25.6080 O   0  0  0  0  0  0  0  0  0  0  0  0
    6.6530   -2.7780   26.1780 N   0  0  0  0  0  0  0  0  0  0  0  0
    6.3330   -2.7980   27.5840 C   0  0  0  0  0  0  0  0  0  0  0  0
    6.0620   -4.2260   27.9840 C   0  0  0  0  0  0  0  0  0  0  0  0
    4.8780   -4.5870   28.5620 C   0  0  0  0  0  0  0  0  0  0  0  0
    4.7840   -5.3150   29.7610 N   0  0  0  0  0  0  0  0  0  0  0  0
    3.6180   -5.2170   30.5940 C   0  0  0  0  0  0  0  0  0  0  0  0
    3.4730   -6.3840   31.2960 C   0  0  0  0  0  0  0  0  0  0  0  0
    4.7210   -6.7780   31.5960 N   0  0  0  0  0  0  0  0  0  0  0  0
    4.7610   -7.1800   33.0180 C   0  0  0  0  0  0  0  0  0  0  0  0
    5.5410   -8.4340   33.4190 C   0  0  0  0  0  0  0  0  0  0  0  0
    5.6160   -8.8980   34.8600 C   0  0  0  0  0  0  0  0  0  0  0  0
    4.9120   -8.1060   35.8860 C   0  0  0  0  0  0  0  0  0  0  0  0
    4.1680   -6.9090   35.5040 C   0  0  0  0  0  0  0  0  0  0  0  0
    4.0380   -6.3740   34.1070 C   0  0  0  0  0  0  0  0  0  0  0  0
    3.1130   -4.9210   33.7740 Cl  0  0  0  0  0  0  0  0  0  0  0  0
    5.2930   -7.4620   30.6120 C   0  0  0  0  0  0  0  0  0  0  0  0
    5.6710   -6.3930   29.6190 C   0  0  0  0  0  0  0  0  0  0  0  0
    6.0870   -5.0310   23.6900 C   0  0  0  0  0  0  0  0  0  0  0  0
    6.5550   -5.3690   22.2980 C   0  0  0  0  0  0  0  0  0  0  0  0
  1  2  1  0
  2  3  2  0
  2  4  1  0
  4  5  1  0
  5  6  1  0
  6  7  1  0
  7  8  1  0
  8  9  2  0
  8 10  1  0
 10 11  1  0
 11 12  1  0
 12 13  1  0
 13 14  1  0
 14 15  1  0
 15 16  1  0
 16 17  1  0
 17 18  1  0
 18 19  2  0
 19 20  1  0
 20 21  2  0
 21 22  1  0
 18 23  1  0
 22 23  2  0
 23 24  1  0
 17 25  1  0
 14 26  1  0
 25 26  1  0
  7 27  1  0
  4 28  1  0
 27 28  1  0
M  END
