piperidine-amides-27234-covalent
     RDKit          3D

 24 25  0  0  0  0  0  0  0  0999 V2000
    7.1150   -3.3010   19.2600 C   0  0  0  0  0  0  0  0  0  0  0  0
    6.3770   -4.0430   20.2880 C   0  0  0  0  0  0  0  0  0  0  0  0
    5.3250   -4.6300   19.9190 O   0  0  0  0  0  0  0  0  0  0  0  0
    6.8760   -4.1020   21.5930 N   0  0  0  0  0  0  0  0  0  0  0  0
    7.7840   -3.0970   22.0990 C   0  0  0  0  0  0  0  0  0  0  0  0
    7.4520   -2.8120   23.5260 C   0  0  0  0  0  0  0  0  0  0  0  0
    6.0930   -3.3430   23.8820 C   0  0  0  0  0  0  0  0  0  0  0  0
    5.7530   -2.9260   25.2580 C   0  0  0  0  0  0  0  0  0  0  0  0
    4.5750   -3.1170   25.6370 O   0  0  0  0  0  0  0  0  0  0  0  0
    6.6690   -2.3110   26.1480 N   0  0  0  0  0  0  0  0  0  0  0  0
    7.4440   -1.1870   25.6900 C   0  0  0  0  0  0  0  0  0  0  0  0
    6.3870   -2.3650   27.5570 C   0  0  0  0  0  0  0  0  0  0  0  0
    5.7150   -3.4890   27.9070 C   0  0  0  0  0  0  0  0  0  0  0  0
    4.9400   -3.6300   29.0320 C   0  0  0  0  0  0  0  0  0  0  0  0
    4.2910   -4.8310   29.3200 C   0  0  0  0  0  0  0  0  0  0  0  0
    4.3830   -5.9460   28.5030 C   0  0  0  0  0  0  0  0  0  0  0  0
    3.4900   -7.3420   29.0940 S   0  0  0  0  0  0  0  0  0  0  0  0
    4.7220   -8.4710   29.5320 N   0  0  0  0  0  0  0  0  0  0  0  0
    2.6100   -7.8640   28.0160 O   0  0  0  0  0  0  0  0  0  0  0  0
    2.7710   -6.9970   30.3510 O   0  0  0  0  0  0  0  0  0  0  0  0
    5.1420   -5.8220   27.3780 C   0  0  0  0  0  0  0  0  0  0  0  0
    5.8290   -4.5540   27.0670 C   0  0  0  0  0  0  0  0  0  0  0  0
    6.0410   -4.8290   23.7500 C   0  0  0  0  0  0  0  0  0  0  0  0
    6.5060   -5.2800   22.3830 C   0  0  0  0  0  0  0  0  0  0  0  0
  1  2  1  0
  2  3  2  0
  2  4  1  0
  4  5  1  0
  5  6  1  0
  6  7  1  0
  7  8  1  0
  8  9  2  0
  8 10  1  0
 10 11  1  0
 10 12  1  0
 12 13  1  0
 13 14  2  0
 14 15  1  0
 15 16  2  0
 16 17  1  0
 17 18  1  0
 17 19  2  0
 17 20  2  0
 16 21  1  0
 13 22  1  0
 21 22  2  0
  7 23  1  0
  4 24  1  0
 23 24  1  0
M  END
