piperidine-amides-26137-covalent
     RDKit          3D

 25 27  0  0  0  0  0  0  0  0999 V2000
    7.1110   -3.2920   19.2220 C   0  0  0  0  0  0  0  0  0  0  0  0
    6.3510   -4.0600   20.2060 C   0  0  0  0  0  0  0  0  0  0  0  0
    5.2710   -4.5730   19.8870 O   0  0  0  0  0  0  0  0  0  0  0  0
    6.8510   -4.2860   21.4860 N   0  0  0  0  0  0  0  0  0  0  0  0
    6.5540   -5.5130   22.1840 C   0  0  0  0  0  0  0  0  0  0  0  0
    5.7380   -5.0770   23.3630 C   0  0  0  0  0  0  0  0  0  0  0  0
    6.5400   -4.1280   24.1820 C   0  0  0  0  0  0  0  0  0  0  0  0
    5.7460   -3.5250   25.2740 C   0  0  0  0  0  0  0  0  0  0  0  0
    4.7990   -2.7320   25.0020 O   0  0  0  0  0  0  0  0  0  0  0  0
    5.9720   -3.7980   26.6330 N   0  0  0  0  0  0  0  0  0  0  0  0
    6.4150   -2.7500   27.5150 C   0  0  0  0  0  0  0  0  0  0  0  0
    6.7240   -3.4440   28.7780 C   0  0  0  0  0  0  0  0  0  0  0  0
    5.6900   -4.3580   29.2800 C   0  0  0  0  0  0  0  0  0  0  0  0
    4.3710   -3.7090   29.6270 C   0  0  0  0  0  0  0  0  0  0  0  0
    3.3590   -4.8190   29.8170 C   0  0  0  0  0  0  0  0  0  0  0  0
    3.7440   -5.9920   30.6770 C   0  0  0  0  0  0  0  0  0  0  0  0
    2.8420   -7.0150   30.8680 C   0  0  0  0  0  0  0  0  0  0  0  0
    1.5630   -7.0880   30.3330 C   0  0  0  0  0  0  0  0  0  0  0  0
    1.0610   -5.9860   29.4600 C   0  0  0  0  0  0  0  0  0  0  0  0
   -0.1940   -6.0420   28.9280 F   0  0  0  0  0  0  0  0  0  0  0  0
    1.9670   -4.7900   29.1700 C   0  0  0  0  0  0  0  0  0  0  0  0
    5.7030   -5.2820   28.1290 C   0  0  0  0  0  0  0  0  0  0  0  0
    5.1080   -4.7620   27.2230 C   0  0  0  0  0  0  0  0  0  0  0  0
    7.2160   -3.0340   23.4610 C   0  0  0  0  0  0  0  0  0  0  0  0
    7.6030   -3.2800   22.1740 C   0  0  0  0  0  0  0  0  0  0  0  0
  1  2  1  0
  2  3  2  0
  2  4  1  0
  4  5  1  0
  5  6  1  0
  6  7  1  0
  7  8  1  0
  8  9  2  0
  8 10  1  0
 10 11  1  0
 11 12  1  0
 12 13  1  0
 13 14  1  0
 14 15  1  0
 15 16  2  0
 16 17  1  0
 17 18  2  0
 18 19  1  0
 19 20  1  0
 15 21  1  0
 19 21  2  0
 13 22  1  0
 10 23  1  0
 22 23  1  0
  7 24  1  0
  4 25  1  0
 24 25  1  0
M  END
