piperidine-amides-24497-covalent
     RDKit          3D

 24 25  0  0  0  0  0  0  0  0999 V2000
    7.1110   -3.2400   19.1990 C   0  0  0  0  0  0  0  0  0  0  0  0
    6.3230   -3.9900   20.1910 C   0  0  0  0  0  0  0  0  0  0  0  0
    5.2420   -4.5180   19.8640 O   0  0  0  0  0  0  0  0  0  0  0  0
    6.7870   -4.1770   21.4940 N   0  0  0  0  0  0  0  0  0  0  0  0
    6.4090   -5.3950   22.1660 C   0  0  0  0  0  0  0  0  0  0  0  0
    6.3350   -5.0850   23.6660 C   0  0  0  0  0  0  0  0  0  0  0  0
    6.0190   -3.6080   23.8070 C   0  0  0  0  0  0  0  0  0  0  0  0
    5.7210   -3.2710   25.2110 C   0  0  0  0  0  0  0  0  0  0  0  0
    4.5480   -3.4190   25.6180 O   0  0  0  0  0  0  0  0  0  0  0  0
    6.7500   -2.7840   26.0510 N   0  0  0  0  0  0  0  0  0  0  0  0
    7.4760   -3.6970   26.8810 C   0  0  0  0  0  0  0  0  0  0  0  0
    8.1240   -4.6950   25.9500 C   0  0  0  0  0  0  0  0  0  0  0  0
    9.1510   -5.2940   26.6640 O   0  0  0  0  0  0  0  0  0  0  0  0
    8.9810   -5.6800   27.9450 C   0  0  0  0  0  0  0  0  0  0  0  0
    6.8780   -1.7890   27.0740 C   0  0  0  0  0  0  0  0  0  0  0  0
    6.1700   -0.7010   26.5560 C   0  0  0  0  0  0  0  0  0  0  0  0
    6.3510   -0.2480   25.3250 C   0  0  0  0  0  0  0  0  0  0  0  0
    5.7320    0.8730   24.5610 C   0  0  0  0  0  0  0  0  0  0  0  0
    4.7830    1.3550   25.6970 C   0  0  0  0  0  0  0  0  0  0  0  0
    4.0710    2.4180   25.2430 F   0  0  0  0  0  0  0  0  0  0  0  0
    4.4130    0.9940   27.1610 C   0  0  0  0  0  0  0  0  0  0  0  0
    5.2940   -0.1530   27.4090 C   0  0  0  0  0  0  0  0  0  0  0  0
    7.1910   -2.7980   23.3410 C   0  0  0  0  0  0  0  0  0  0  0  0
    7.6000   -3.1710   22.1030 C   0  0  0  0  0  0  0  0  0  0  0  0
  1  2  1  0
  2  3  2  0
  2  4  1  0
  4  5  1  0
  5  6  1  0
  6  7  1  0
  7  8  1  0
  8  9  2  0
  8 10  1  0
 10 11  1  0
 11 12  1  0
 12 13  1  0
 13 14  1  0
 10 15  1  0
 15 16  1  0
 16 17  2  0
 17 18  1  0
 18 19  2  0
 19 20  1  0
 19 21  1  0
 16 22  1  0
 21 22  2  0
  7 23  1  0
  4 24  1  0
 23 24  1  0
M  END
