piperidine-amides-22357-covalent
     RDKit          3D

 22 23  0  0  0  0  0  0  0  0999 V2000
    7.0780   -3.2900   19.3150 C   0  0  0  0  0  0  0  0  0  0  0  0
    6.3750   -4.1240   20.3050 C   0  0  0  0  0  0  0  0  0  0  0  0
    5.3570   -4.7650   19.9630 O   0  0  0  0  0  0  0  0  0  0  0  0
    6.8530   -4.2500   21.6200 N   0  0  0  0  0  0  0  0  0  0  0  0
    7.6750   -3.2120   22.2100 C   0  0  0  0  0  0  0  0  0  0  0  0
    6.8290   -2.5800   23.3130 C   0  0  0  0  0  0  0  0  0  0  0  0
    5.9740   -3.6920   23.8700 C   0  0  0  0  0  0  0  0  0  0  0  0
    5.5570   -3.4070   25.2580 C   0  0  0  0  0  0  0  0  0  0  0  0
    4.3420   -3.1960   25.4540 O   0  0  0  0  0  0  0  0  0  0  0  0
    6.4840   -3.3600   26.3280 N   0  0  0  0  0  0  0  0  0  0  0  0
    6.5050   -2.1710   27.1490 C   0  0  0  0  0  0  0  0  0  0  0  0
    5.1270   -1.9710   27.7410 C   0  0  0  0  0  0  0  0  0  0  0  0
    4.3500   -2.9390   28.3710 C   0  0  0  0  0  0  0  0  0  0  0  0
    3.1250   -2.5160   28.8310 C   0  0  0  0  0  0  0  0  0  0  0  0
    2.9220   -0.8160   28.4640 S   0  0  0  0  0  0  0  0  0  0  0  0
    4.4810   -0.6590   27.6870 C   0  0  0  0  0  0  0  0  0  0  0  0
    6.7880   -4.4900   27.2690 C   0  0  0  0  0  0  0  0  0  0  0  0
    7.5080   -5.7320   26.7770 C   0  0  0  0  0  0  0  0  0  0  0  0
    6.0200   -5.7360   27.0780 C   0  0  0  0  0  0  0  0  0  0  0  0
    7.0010   -4.3210   28.5900 C   0  0  0  0  0  0  0  0  0  0  0  0
    6.6670   -5.0290   23.7630 C   0  0  0  0  0  0  0  0  0  0  0  0
    6.5520   -5.4170   22.4180 C   0  0  0  0  0  0  0  0  0  0  0  0
  1  2  1  0
  2  3  2  0
  2  4  1  0
  4  5  1  0
  5  6  1  0
  6  7  1  0
  7  8  1  0
  8  9  2  0
  8 10  1  0
 10 11  1  0
 11 12  1  0
 12 13  1  0
 13 14  2  0
 14 15  1  0
 12 16  2  0
 15 16  1  0
 17 10  1  0
 17 18  1  0
 17 19  1  0
 17 20  1  0
  7 21  1  0
  4 22  1  0
 21 22  1  0
M  END
