piperidine-amides-6906-covalent
     RDKit          3D

 23 24  0  0  0  0  0  0  0  0999 V2000
    7.0580   -3.2810   19.3270 C   0  0  0  0  0  0  0  0  0  0  0  0
    6.3550   -4.1100   20.3230 C   0  0  0  0  0  0  0  0  0  0  0  0
    5.3820   -4.8120   19.9720 O   0  0  0  0  0  0  0  0  0  0  0  0
    6.7760   -4.1500   21.6630 N   0  0  0  0  0  0  0  0  0  0  0  0
    7.6820   -3.1320   22.1550 C   0  0  0  0  0  0  0  0  0  0  0  0
    7.5120   -3.1020   23.6720 C   0  0  0  0  0  0  0  0  0  0  0  0
    6.1070   -3.6040   23.8990 C   0  0  0  0  0  0  0  0  0  0  0  0
    5.6170   -3.3110   25.2670 C   0  0  0  0  0  0  0  0  0  0  0  0
    4.3850   -3.2830   25.4510 O   0  0  0  0  0  0  0  0  0  0  0  0
    6.5280   -3.0680   26.3220 N   0  0  0  0  0  0  0  0  0  0  0  0
    6.1100   -3.1620   27.7000 C   0  0  0  0  0  0  0  0  0  0  0  0
    6.1830   -4.6040   28.1760 C   0  0  0  0  0  0  0  0  0  0  0  0
    5.2420   -5.1300   29.0040 C   0  0  0  0  0  0  0  0  0  0  0  0
    5.4530   -6.7860   29.5310 S   0  0  0  0  0  0  0  0  0  0  0  0
    5.1040   -6.9530   31.2300 C   0  0  0  0  0  0  0  0  0  0  0  0
    4.1370   -6.1740   31.7790 C   0  0  0  0  0  0  0  0  0  0  0  0
    3.8170   -6.2590   33.1150 C   0  0  0  0  0  0  0  0  0  0  0  0
    4.3120   -7.1000   34.3170 C   0  0  0  0  0  0  0  0  0  0  0  0
    3.9460   -7.1350   35.6250 F   0  0  0  0  0  0  0  0  0  0  0  0
    5.3680   -7.8910   33.5260 C   0  0  0  0  0  0  0  0  0  0  0  0
    5.7000   -7.7840   32.0770 C   0  0  0  0  0  0  0  0  0  0  0  0
    6.0110   -5.0840   23.6200 C   0  0  0  0  0  0  0  0  0  0  0  0
    6.6730   -5.3900   22.4100 C   0  0  0  0  0  0  0  0  0  0  0  0
  1  2  1  0
  2  3  2  0
  2  4  1  0
  4  5  1  0
  5  6  1  0
  6  7  1  0
  7  8  1  0
  8  9  2  0
  8 10  1  0
 10 11  1  0
 11 12  1  0
 12 13  1  0
 13 14  1  0
 14 15  1  0
 15 16  2  0
 16 17  1  0
 17 18  2  0
 18 19  1  0
 18 20  1  0
 15 21  1  0
 20 21  2  0
  7 22  1  0
  4 23  1  0
 22 23  1  0
M  END
