piperidine-amides-1277-covalent
     RDKit          3D

 22 23  0  0  0  0  0  0  0  0999 V2000
    7.1640   -3.2890   19.2520 C   0  0  0  0  0  0  0  0  0  0  0  0
    6.3630   -4.0510   20.2430 C   0  0  0  0  0  0  0  0  0  0  0  0
    5.2750   -4.5350   19.8870 O   0  0  0  0  0  0  0  0  0  0  0  0
    6.8840   -4.2650   21.5400 N   0  0  0  0  0  0  0  0  0  0  0  0
    6.5260   -5.4380   22.2840 C   0  0  0  0  0  0  0  0  0  0  0  0
    5.7130   -4.9290   23.4770 C   0  0  0  0  0  0  0  0  0  0  0  0
    6.4870   -3.8280   24.1330 C   0  0  0  0  0  0  0  0  0  0  0  0
    5.8000   -3.3140   25.3370 C   0  0  0  0  0  0  0  0  0  0  0  0
    4.5750   -3.1600   25.2450 O   0  0  0  0  0  0  0  0  0  0  0  0
    6.5140   -3.0260   26.5000 N   0  0  0  0  0  0  0  0  0  0  0  0
    6.1800   -3.4120   27.8200 C   0  0  0  0  0  0  0  0  0  0  0  0
    5.5540   -2.5720   28.7120 C   0  0  0  0  0  0  0  0  0  0  0  0
    6.2040   -1.6770   29.5480 C   0  0  0  0  0  0  0  0  0  0  0  0
    5.3220   -0.9990   30.3030 C   0  0  0  0  0  0  0  0  0  0  0  0
    5.6720    0.0360   31.3100 C   0  0  0  0  0  0  0  0  0  0  0  0
    4.8350    0.2530   32.3240 O   0  0  0  0  0  0  0  0  0  0  0  0
    6.8450    0.7600   31.1910 O   0  0  0  0  0  0  0  0  0  0  0  0
    8.0920    0.1930   31.5600 C   0  0  0  0  0  0  0  0  0  0  0  0
    4.0870   -1.4520   29.9590 C   0  0  0  0  0  0  0  0  0  0  0  0
    4.2680   -2.4140   28.9820 O   0  0  0  0  0  0  0  0  0  0  0  0
    6.6940   -2.6590   23.1670 C   0  0  0  0  0  0  0  0  0  0  0  0
    7.6240   -3.1880   22.1490 C   0  0  0  0  0  0  0  0  0  0  0  0
  1  2  1  0
  2  3  2  0
  2  4  1  0
  4  5  1  0
  5  6  1  0
  6  7  1  0
  7  8  1  0
  8  9  2  0
  8 10  1  0
 10 11  1  0
 11 12  1  0
 12 13  2  0
 13 14  1  0
 14 15  1  0
 15 16  2  0
 15 17  1  0
 17 18  1  0
 14 19  2  0
 12 20  1  0
 19 20  1  0
  7 21  1  0
  4 22  1  0
 21 22  1  0
M  END
