piperidine-amides-10317-covalent
     RDKit          3D

 24 25  0  0  0  0  0  0  0  0999 V2000
    7.1040   -3.2930   19.2140 C   0  0  0  0  0  0  0  0  0  0  0  0
    6.3870   -4.0520   20.2410 C   0  0  0  0  0  0  0  0  0  0  0  0
    5.2980   -4.5810   19.8970 O   0  0  0  0  0  0  0  0  0  0  0  0
    6.9430   -4.2030   21.5140 N   0  0  0  0  0  0  0  0  0  0  0  0
    7.7260   -3.1580   22.1230 C   0  0  0  0  0  0  0  0  0  0  0  0
    6.9490   -2.6840   23.3030 C   0  0  0  0  0  0  0  0  0  0  0  0
    6.6610   -3.8240   24.2400 C   0  0  0  0  0  0  0  0  0  0  0  0
    5.9100   -3.2790   25.3840 C   0  0  0  0  0  0  0  0  0  0  0  0
    4.6570   -3.3390   25.3630 O   0  0  0  0  0  0  0  0  0  0  0  0
    6.5470   -2.6890   26.4860 N   0  0  0  0  0  0  0  0  0  0  0  0
    6.4130   -3.2250   27.8090 C   0  0  0  0  0  0  0  0  0  0  0  0
    6.4940   -4.7440   27.8720 C   0  0  0  0  0  0  0  0  0  0  0  0
    5.9170   -5.4600   28.8800 C   0  0  0  0  0  0  0  0  0  0  0  0
    6.4080   -6.6170   29.4380 C   0  0  0  0  0  0  0  0  0  0  0  0
    5.7440   -7.2810   30.4830 C   0  0  0  0  0  0  0  0  0  0  0  0
    4.5450   -6.8090   31.0100 C   0  0  0  0  0  0  0  0  0  0  0  0
    3.7030   -7.6300   32.3140 Cl  0  0  0  0  0  0  0  0  0  0  0  0
    4.0360   -5.6640   30.4680 C   0  0  0  0  0  0  0  0  0  0  0  0
    2.8820   -5.1450   30.9190 N   0  0  0  0  0  0  0  0  0  0  0  0
    1.9100   -5.9350   31.2530 O   0  0  0  0  0  0  0  0  0  0  0  0
    2.6960   -3.8130   31.0190 O   0  0  0  0  0  0  0  0  0  0  0  0
    4.7370   -4.9470   29.3600 C   0  0  0  0  0  0  0  0  0  0  0  0
    5.8470   -4.8830   23.5690 C   0  0  0  0  0  0  0  0  0  0  0  0
    6.4920   -5.3610   22.2840 C   0  0  0  0  0  0  0  0  0  0  0  0
  1  2  1  0
  2  3  2  0
  2  4  1  0
  4  5  1  0
  5  6  1  0
  6  7  1  0
  7  8  1  0
  8  9  2  0
  8 10  1  0
 10 11  1  0
 11 12  1  0
 12 13  1  0
 13 14  2  0
 14 15  1  0
 15 16  2  0
 16 17  1  0
 16 18  1  0
 18 19  1  0
 19 20  2  0
 19 21  1  0
 13 22  1  0
 18 22  2  0
  7 23  1  0
  4 24  1  0
 23 24  1  0
M  CHG  2  19   1  21  -1
M  END
