piperidine-amides-24995-covalent
     RDKit          3D

 24 25  0  0  0  0  0  0  0  0999 V2000
    7.0720   -3.3180   19.3200 C   0  0  0  0  0  0  0  0  0  0  0  0
    6.3160   -4.1010   20.3090 C   0  0  0  0  0  0  0  0  0  0  0  0
    5.3050   -4.7380   19.9500 O   0  0  0  0  0  0  0  0  0  0  0  0
    6.7410   -4.1850   21.6470 N   0  0  0  0  0  0  0  0  0  0  0  0
    6.6460   -5.4620   22.3220 C   0  0  0  0  0  0  0  0  0  0  0  0
    6.0950   -5.1950   23.7290 C   0  0  0  0  0  0  0  0  0  0  0  0
    6.0660   -3.6970   23.8780 C   0  0  0  0  0  0  0  0  0  0  0  0
    5.5630   -3.2600   25.1990 C   0  0  0  0  0  0  0  0  0  0  0  0
    4.9740   -2.1620   25.2530 O   0  0  0  0  0  0  0  0  0  0  0  0
    5.7130   -4.0520   26.3660 N   0  0  0  0  0  0  0  0  0  0  0  0
    6.1090   -3.3990   27.5570 C   0  0  0  0  0  0  0  0  0  0  0  0
    4.8800   -4.0480   28.0220 C   0  0  0  0  0  0  0  0  0  0  0  0
    4.4760   -4.7220   26.8740 C   0  0  2  0  0  0  0  0  0  0  0  0
    4.4530   -6.0970   26.8380 C   0  0  0  0  0  0  0  0  0  0  0  0
    3.5710   -6.6210   27.8380 N   0  0  0  0  0  0  0  0  0  0  0  0
    3.0230   -5.8890   28.8720 C   0  0  0  0  0  0  0  0  0  0  0  0
    1.7620   -5.3910   28.9600 O   0  0  0  0  0  0  0  0  0  0  0  0
    3.9610   -5.7110   29.8750 O   0  0  0  0  0  0  0  0  0  0  0  0
    4.9410   -6.6970   30.2080 C   0  0  0  0  0  0  0  0  0  0  0  0
    6.2100   -6.5270   29.3940 C   0  0  0  0  0  0  0  0  0  0  0  0
    5.3240   -7.7590   29.2560 C   0  0  0  0  0  0  0  0  0  0  0  0
    5.2480   -7.1400   31.4530 C   0  0  0  0  0  0  0  0  0  0  0  0
    7.4270   -3.1240   23.5880 C   0  0  0  0  0  0  0  0  0  0  0  0
    7.6150   -3.1600   22.1980 C   0  0  0  0  0  0  0  0  0  0  0  0
  1  2  1  0
  2  3  2  0
  2  4  1  0
  4  5  1  0
  5  6  1  0
  6  7  1  0
  7  8  1  0
  8  9  2  0
  8 10  1  0
 10 11  1  0
 11 12  1  0
 10 13  1  0
 12 13  1  0
 13 14  1  1
 14 15  1  0
 15 16  1  0
 16 17  2  0
 16 18  1  0
 19 18  1  0
 19 20  1  0
 19 21  1  0
 19 22  1  0
  7 23  1  0
  4 24  1  0
 23 24  1  0
M  END
