piperidine-amides-19504-covalent
     RDKit          3D

 22 23  0  0  0  0  0  0  0  0999 V2000
    7.1570   -3.3210   19.3970 C   0  0  0  0  0  0  0  0  0  0  0  0
    6.4440   -4.1390   20.3500 C   0  0  0  0  0  0  0  0  0  0  0  0
    5.3940   -4.7500   19.9620 O   0  0  0  0  0  0  0  0  0  0  0  0
    6.9090   -4.3090   21.6720 N   0  0  0  0  0  0  0  0  0  0  0  0
    7.8050   -3.2790   22.2390 C   0  0  0  0  0  0  0  0  0  0  0  0
    6.8240   -2.6760   23.2990 C   0  0  0  0  0  0  0  0  0  0  0  0
    6.4990   -3.8220   24.2310 C   0  0  0  0  0  0  0  0  0  0  0  0
    5.5870   -3.2960   25.4190 C   0  0  0  0  0  0  0  0  0  0  0  0
    4.5690   -2.7940   24.9690 O   0  0  0  0  0  0  0  0  0  0  0  0
    6.1450   -3.5300   26.5410 N   0  0  0  0  0  0  0  0  0  0  0  0
    6.5640   -4.2520   27.6290 C   0  0  0  0  0  0  0  0  0  0  0  0
    7.3690   -5.3500   27.8570 C   0  0  0  0  0  0  0  0  0  0  0  0
    6.3580   -2.1190   26.9030 C   0  0  0  0  0  0  0  0  0  0  0  0
    6.0630   -1.6670   28.2800 C   0  0  0  0  0  0  0  0  0  0  0  0
    7.2710   -1.2500   29.0110 C   0  0  0  0  0  0  0  0  0  0  0  0
    6.7790   -0.8430   30.3000 C   0  0  0  0  0  0  0  0  0  0  0  0
    5.5010   -0.7310   31.0470 C   0  0  0  0  0  0  0  0  0  0  0  0
    5.5030   -0.2670   32.3260 O   0  0  0  0  0  0  0  0  0  0  0  0
    4.4440   -1.2470   30.0010 C   0  0  0  0  0  0  0  0  0  0  0  0
    4.6950   -1.7350   28.5700 C   0  0  0  0  0  0  0  0  0  0  0  0
    5.7670   -4.9630   23.4800 C   0  0  0  0  0  0  0  0  0  0  0  0
    6.5860   -5.4580   22.4930 C   0  0  0  0  0  0  0  0  0  0  0  0
  1  2  1  0
  2  3  2  0
  2  4  1  0
  4  5  1  0
  5  6  1  0
  6  7  1  0
  7  8  1  0
  8  9  2  0
  8 10  1  0
 10 11  1  0
 11 12  1  0
 10 13  1  0
 13 14  1  0
 14 15  2  0
 15 16  1  0
 16 17  2  0
 17 18  1  0
 17 19  1  0
 14 20  1  0
 19 20  2  0
  7 21  1  0
  4 22  1  0
 21 22  1  0
M  END
