piperidine-amides-3568-covalent
     RDKit          3D

 19 19  0  0  0  0  0  0  0  0999 V2000
    7.1340   -3.3000   19.2790 C   0  0  0  0  0  0  0  0  0  0  0  0
    6.4000   -4.0980   20.2510 C   0  0  0  0  0  0  0  0  0  0  0  0
    5.3450   -4.6500   19.9290 O   0  0  0  0  0  0  0  0  0  0  0  0
    6.9410   -4.2940   21.5680 N   0  0  0  0  0  0  0  0  0  0  0  0
    7.6430   -3.2040   22.1710 C   0  0  0  0  0  0  0  0  0  0  0  0
    6.8370   -2.7090   23.3380 C   0  0  0  0  0  0  0  0  0  0  0  0
    6.4550   -3.8800   24.2480 C   0  0  0  0  0  0  0  0  0  0  0  0
    5.7570   -3.2990   25.4340 C   0  0  0  0  0  0  0  0  0  0  0  0
    4.8840   -2.4200   25.3130 O   0  0  0  0  0  0  0  0  0  0  0  0
    6.0790   -3.7530   26.7370 N   0  0  0  0  0  0  0  0  0  0  0  0
    5.8740   -5.1560   27.0470 C   0  0  2  0  0  0  0  0  0  0  0  0
    4.4210   -5.4370   27.1110 C   0  0  0  0  0  0  0  0  0  0  0  0
    3.8740   -5.4430   25.8420 O   0  0  0  0  0  0  0  0  0  0  0  0
    6.4220   -5.5040   28.3730 C   0  0  0  0  0  0  0  0  0  0  0  0
    5.5830   -5.7770   29.4550 C   0  0  0  0  0  0  0  0  0  0  0  0
    5.2450   -7.0830   29.7360 C   0  0  0  0  0  0  0  0  0  0  0  0
    6.1930   -8.0530   29.9460 O   0  0  0  0  0  0  0  0  0  0  0  0
    5.6890   -4.8510   23.4360 C   0  0  0  0  0  0  0  0  0  0  0  0
    6.4150   -5.3140   22.3640 C   0  0  0  0  0  0  0  0  0  0  0  0
  1  2  1  0
  2  3  2  0
  2  4  1  0
  4  5  1  0
  5  6  1  0
  6  7  1  0
  7  8  1  0
  8  9  2  0
  8 10  1  0
 10 11  1  0
 11 12  1  1
 12 13  1  0
 11 14  1  0
 14 15  1  0
 15 16  1  0
 16 17  1  0
  7 18  1  0
  4 19  1  0
 18 19  1  0
M  END
