piperidine-amides-29287-covalent
     RDKit          3D

 25 27  0  0  0  0  0  0  0  0999 V2000
    7.0690   -3.3410   19.3220 C   0  0  0  0  0  0  0  0  0  0  0  0
    6.4170   -4.1900   20.3170 C   0  0  0  0  0  0  0  0  0  0  0  0
    5.3880   -4.8040   19.9750 O   0  0  0  0  0  0  0  0  0  0  0  0
    6.9820   -4.3410   21.6140 N   0  0  0  0  0  0  0  0  0  0  0  0
    6.4740   -5.3770   22.4490 C   0  0  0  0  0  0  0  0  0  0  0  0
    5.5520   -4.7340   23.4420 C   0  0  0  0  0  0  0  0  0  0  0  0
    6.3830   -3.8200   24.3300 C   0  0  0  0  0  0  0  0  0  0  0  0
    5.4780   -3.1590   25.3380 C   0  0  0  0  0  0  0  0  0  0  0  0
    4.4980   -2.6140   24.8470 O   0  0  0  0  0  0  0  0  0  0  0  0
    5.7600   -3.1730   26.7150 N   0  0  0  0  0  0  0  0  0  0  0  0
    5.0710   -4.0920   27.5790 C   0  0  0  0  0  0  0  0  0  0  0  0
    5.7040   -5.1780   28.1460 N   0  0  0  0  0  0  0  0  0  0  0  0
    5.0700   -6.0460   28.9670 C   0  0  0  0  0  0  0  0  0  0  0  0
    5.8390   -7.4160   29.7050 Cl  0  0  0  0  0  0  0  0  0  0  0  0
    3.7420   -5.8450   29.2460 N   0  0  0  0  0  0  0  0  0  0  0  0
    3.0430   -4.7190   28.6690 C   0  0  0  0  0  0  0  0  0  0  0  0
    3.6280   -3.7980   27.8320 C   0  0  0  0  0  0  0  0  0  0  0  0
    2.8560   -2.7920   27.3680 N   0  0  0  0  0  0  0  0  0  0  0  0
    2.8490   -1.6610   28.0040 O   0  0  0  0  0  0  0  0  0  0  0  0
    1.7830   -3.1030   26.7390 O   0  0  0  0  0  0  0  0  0  0  0  0
    5.8730   -1.7460   27.3140 C   0  0  0  0  0  0  0  0  0  0  0  0
    6.6540   -1.0770   26.4140 C   0  0  0  0  0  0  0  0  0  0  0  0
    7.0010   -1.1210   27.9500 C   0  0  0  0  0  0  0  0  0  0  0  0
    7.1700   -2.8050   23.5690 C   0  0  0  0  0  0  0  0  0  0  0  0
    7.6880   -3.2190   22.1730 C   0  0  0  0  0  0  0  0  0  0  0  0
  1  2  1  0
  2  3  2  0
  2  4  1  0
  4  5  1  0
  5  6  1  0
  6  7  1  0
  7  8  1  0
  8  9  2  0
  8 10  1  0
 10 11  1  0
 11 12  2  0
 12 13  1  0
 13 14  1  0
 13 15  2  0
 15 16  1  0
 11 17  1  0
 16 17  2  0
 17 18  1  0
 18 19  2  0
 18 20  1  0
 10 21  1  0
 21 22  1  0
 21 23  1  0
 22 23  1  0
  7 24  1  0
  4 25  1  0
 24 25  1  0
M  CHG  2  18   1  20  -1
M  END
