piperidine-amides-725-covalent
     RDKit          3D

 25 27  0  0  0  0  0  0  0  0999 V2000
    7.0190   -3.3630   19.3220 C   0  0  0  0  0  0  0  0  0  0  0  0
    6.3430   -4.1220   20.3550 C   0  0  0  0  0  0  0  0  0  0  0  0
    5.3530   -4.8220   19.9780 O   0  0  0  0  0  0  0  0  0  0  0  0
    6.7370   -4.1790   21.7190 N   0  0  0  0  0  0  0  0  0  0  0  0
    6.6300   -5.5440   22.2980 C   0  0  0  0  0  0  0  0  0  0  0  0
    6.5700   -5.2780   23.8520 C   0  0  0  0  0  0  0  0  0  0  0  0
    6.2090   -3.8290   24.0340 C   0  0  0  0  0  0  0  0  0  0  0  0
    5.3450   -3.5970   25.3680 C   0  0  0  0  0  0  0  0  0  0  0  0
    4.3840   -4.3440   25.3280 O   0  0  0  0  0  0  0  0  0  0  0  0
    5.8040   -2.7060   26.1640 N   0  0  0  0  0  0  0  0  0  0  0  0
    6.1070   -1.7400   27.0880 C   0  0  1  0  0  0  0  0  0  0  0  0
    7.0670   -1.4730   28.0420 C   0  0  0  0  0  0  0  0  0  0  0  0
    6.6870   -0.5870   29.0730 C   0  0  0  0  0  0  0  0  0  0  0  0
    6.1640    0.6760   28.5630 C   0  0  0  0  0  0  0  0  0  0  0  0
    5.6260    0.6550   27.2710 N   0  0  0  0  0  0  0  0  0  0  0  0
    4.5630    1.5870   26.8730 C   0  0  0  0  0  0  0  0  0  0  0  0
    5.2660    2.7790   26.5860 C   0  0  0  0  0  0  0  0  0  0  0  0
    6.1130    2.8010   25.4500 C   0  0  0  0  0  0  0  0  0  0  0  0
    4.7380    3.3630   25.0370 C   0  0  0  0  0  0  0  0  0  0  0  0
    3.6270    2.2790   24.8510 C   0  0  0  0  0  0  0  0  0  0  0  0
    3.6760    1.3300   25.8150 C   0  0  0  0  0  0  0  0  0  0  0  0
    6.1940   -0.3640   26.4350 C   0  0  0  0  0  0  0  0  0  0  0  0
    6.6830   -0.2600   25.3020 O   0  0  0  0  0  0  0  0  0  0  0  0
    7.3370   -2.9000   23.6390 C   0  0  0  0  0  0  0  0  0  0  0  0
    7.6260   -3.1840   22.3130 C   0  0  0  0  0  0  0  0  0  0  0  0
  1  2  1  0
  2  3  2  0
  2  4  1  0
  4  5  1  0
  5  6  1  0
  6  7  1  0
  7  8  1  0
  8  9  2  0
  8 10  1  0
 11 10  1  6
 11 12  1  0
 12 13  1  0
 13 14  1  0
 14 15  1  0
 15 16  1  0
 16 17  1  0
 17 18  1  0
 18 19  1  0
 19 20  1  0
 16 21  1  0
 20 21  1  0
 11 22  1  0
 15 22  1  0
 22 23  2  0
  7 24  1  0
  4 25  1  0
 24 25  1  0
M  END
