piperidine-amides-24352-covalent
     RDKit          3D

 24 26  0  0  0  0  0  0  0  0999 V2000
    7.1170   -3.3580   19.3860 C   0  0  0  0  0  0  0  0  0  0  0  0
    6.4030   -4.2080   20.3410 C   0  0  0  0  0  0  0  0  0  0  0  0
    5.3810   -4.8370   19.9860 O   0  0  0  0  0  0  0  0  0  0  0  0
    6.9040   -4.3630   21.6440 N   0  0  0  0  0  0  0  0  0  0  0  0
    6.6300   -5.6070   22.3430 C   0  0  0  0  0  0  0  0  0  0  0  0
    6.3410   -5.2740   23.8190 C   0  0  0  0  0  0  0  0  0  0  0  0
    6.1600   -3.7770   23.8720 C   0  0  0  0  0  0  0  0  0  0  0  0
    5.6320   -3.2770   25.1510 C   0  0  0  0  0  0  0  0  0  0  0  0
    4.7300   -2.4230   25.0860 O   0  0  0  0  0  0  0  0  0  0  0  0
    6.0710   -3.7270   26.4100 N   0  0  0  0  0  0  0  0  0  0  0  0
    5.2460   -4.8070   26.8980 C   0  0  0  0  0  0  0  0  0  0  0  0
    5.6220   -5.2630   28.2710 C   0  0  0  0  0  0  0  0  0  0  0  0
    5.7400   -4.2880   29.1480 C   0  0  0  0  0  0  0  0  0  0  0  0
    4.5630   -3.5840   29.3370 C   0  0  2  0  0  0  0  0  0  0  0  0
    4.8300   -2.4310   30.0190 N   0  0  0  0  0  0  0  0  0  0  0  0
    3.9840   -2.8540   30.8930 C   0  0  0  0  0  0  0  0  0  0  0  0
    3.4300   -2.4240   32.0550 O   0  0  0  0  0  0  0  0  0  0  0  0
    3.6490   -4.1230   30.3400 C   0  0  0  0  0  0  0  0  0  0  0  0
    2.3010   -4.8050   30.2090 C   0  0  0  0  0  0  0  0  0  0  0  0
    3.6550   -5.4390   31.0270 C   0  0  0  0  0  0  0  0  0  0  0  0
    6.7340   -3.5210   28.7410 C   0  0  0  0  0  0  0  0  0  0  0  0
    6.4800   -2.8280   27.4750 C   0  0  0  0  0  0  0  0  0  0  0  0
    7.4530   -3.1270   23.5380 C   0  0  0  0  0  0  0  0  0  0  0  0
    7.6820   -3.2980   22.2160 C   0  0  0  0  0  0  0  0  0  0  0  0
  1  2  1  0
  2  3  2  0
  2  4  1  0
  4  5  1  0
  5  6  1  0
  6  7  1  0
  7  8  1  0
  8  9  2  0
  8 10  1  0
 10 11  1  0
 11 12  1  0
 12 13  1  0
 14 13  1  1
 14 15  1  0
 15 16  1  0
 16 17  2  0
 14 18  1  0
 16 18  1  0
 18 19  1  0
 18 20  1  0
 13 21  1  0
 10 22  1  0
 21 22  1  0
  7 23  1  0
  4 24  1  0
 23 24  1  0
M  END
