piperidine-amides-10351-covalent
     RDKit          3D

 24 27  0  0  0  0  0  0  0  0999 V2000
    7.0490   -3.3390   19.3140 C   0  0  0  0  0  0  0  0  0  0  0  0
    6.3820   -4.1700   20.3210 C   0  0  0  0  0  0  0  0  0  0  0  0
    5.3370   -4.7670   19.9550 O   0  0  0  0  0  0  0  0  0  0  0  0
    6.9280   -4.3140   21.5990 N   0  0  0  0  0  0  0  0  0  0  0  0
    7.6950   -3.2540   22.2100 C   0  0  0  0  0  0  0  0  0  0  0  0
    6.8940   -2.6990   23.3490 C   0  0  0  0  0  0  0  0  0  0  0  0
    6.4900   -3.7810   24.3120 C   0  0  0  0  0  0  0  0  0  0  0  0
    5.6230   -3.2440   25.3950 C   0  0  0  0  0  0  0  0  0  0  0  0
    4.3960   -3.1880   25.1640 O   0  0  0  0  0  0  0  0  0  0  0  0
    6.0810   -2.8050   26.6590 N   0  0  0  0  0  0  0  0  0  0  0  0
    6.7480   -1.5260   26.8160 C   0  0  1  0  0  0  0  0  0  0  0  0
    5.9100   -0.3260   26.5330 C   0  0  0  0  0  0  0  0  0  0  0  0
    5.4560    0.1190   27.6650 C   0  0  1  0  0  0  0  0  0  0  0  0
    4.8540   -0.7730   28.5690 C   0  0  0  0  0  0  0  0  0  0  0  0
    5.9800   -1.5510   29.2750 C   0  0  0  0  0  0  0  0  0  0  0  0
    7.2100   -0.8370   29.7020 C   0  0  0  0  0  0  0  0  0  0  0  0
    6.5170    0.1980   29.5520 C   0  0  0  0  0  0  0  0  0  0  0  0
    6.3700    1.1160   30.7120 C   0  0  0  0  0  0  0  0  0  0  0  0
    7.3340    0.0460   31.0110 C   0  0  0  0  0  0  0  0  0  0  0  0
    7.2390   -0.6080   29.5940 C   0  0  0  0  0  0  0  0  0  0  0  0
    7.3130   -1.4170   28.2550 C   0  0  0  0  0  0  0  0  0  0  0  0
    6.3520   -0.3180   28.3810 C   0  0  0  0  0  0  0  0  0  0  0  0
    5.7300   -4.8680   23.5610 C   0  0  0  0  0  0  0  0  0  0  0  0
    6.6050   -5.4370   22.4520 C   0  0  0  0  0  0  0  0  0  0  0  0
  1  2  1  0
  2  3  2  0
  2  4  1  0
  4  5  1  0
  5  6  1  0
  6  7  1  0
  7  8  1  0
  8  9  2  0
  8 10  1  0
 11 10  1  1
 11 12  1  0
 13 12  1  6
 13 14  1  0
 14 15  1  0
 15 16  1  0
 16 17  1  0
 17 18  1  0
 18 19  2  0
 19 20  1  0
 11 21  1  0
 20 21  2  0
 13 22  1  0
 17 22  2  0
 21 22  1  0
  7 23  1  0
  4 24  1  0
 23 24  1  0
M  END
