piperidine-amides-19335-covalent
     RDKit          3D

 22 23  0  0  0  0  0  0  0  0999 V2000
    7.0810   -3.3450   19.4740 C   0  0  0  0  0  0  0  0  0  0  0  0
    6.4030   -4.1860   20.4420 C   0  0  0  0  0  0  0  0  0  0  0  0
    5.4680   -4.9400   20.0140 O   0  0  0  0  0  0  0  0  0  0  0  0
    6.7710   -4.2020   21.8180 N   0  0  0  0  0  0  0  0  0  0  0  0
    6.7000   -5.5260   22.5090 C   0  0  0  0  0  0  0  0  0  0  0  0
    6.1120   -5.1650   23.9420 C   0  0  0  0  0  0  0  0  0  0  0  0
    6.2240   -3.6680   24.0420 C   0  0  0  0  0  0  0  0  0  0  0  0
    5.5290   -2.9250   25.2820 C   0  0  0  0  0  0  0  0  0  0  0  0
    4.6620   -2.2030   24.8170 O   0  0  0  0  0  0  0  0  0  0  0  0
    5.9820   -3.2280   26.4460 N   0  0  0  0  0  0  0  0  0  0  0  0
    6.2170   -3.9980   27.5530 C   0  0  0  0  0  0  0  0  0  0  0  0
    6.1430   -1.9660   27.0810 C   0  0  0  0  0  0  0  0  0  0  0  0
    5.9920   -0.6890   26.4860 C   0  0  0  0  0  0  0  0  0  0  0  0
    6.1020    0.7040   26.9910 C   0  0  0  0  0  0  0  0  0  0  0  0
    6.4580    0.8460   28.4920 C   0  0  0  0  0  0  0  0  0  0  0  0
    6.6390   -0.3390   29.2100 C   0  0  0  0  0  0  0  0  0  0  0  0
    6.9460   -0.3490   30.5760 N   0  0  0  0  0  0  0  0  0  0  0  0
    5.8930   -0.1850   31.5640 C   0  0  0  0  0  0  0  0  0  0  0  0
    8.3160   -0.0720   30.9030 C   0  0  0  0  0  0  0  0  0  0  0  0
    6.4850   -1.6480   28.5030 C   0  0  0  0  0  0  0  0  0  0  0  0
    7.6290   -3.2010   23.6840 C   0  0  0  0  0  0  0  0  0  0  0  0
    7.7250   -3.2040   22.3160 C   0  0  0  0  0  0  0  0  0  0  0  0
  1  2  1  0
  2  3  2  0
  2  4  1  0
  4  5  1  0
  5  6  1  0
  6  7  1  0
  7  8  1  0
  8  9  2  0
  8 10  1  0
 10 11  1  0
 10 12  1  0
 12 13  2  0
 13 14  1  0
 14 15  2  0
 15 16  1  0
 16 17  1  0
 17 18  1  0
 17 19  1  0
 12 20  1  0
 16 20  2  0
  7 21  1  0
  4 22  1  0
 21 22  1  0
M  END
