piperidine-amides-31455-covalent
     RDKit          3D

 28 32  0  0  0  0  0  0  0  0999 V2000
    7.1140   -3.3800   19.5130 C   0  0  0  0  0  0  0  0  0  0  0  0
    6.3910   -4.2090   20.4490 C   0  0  0  0  0  0  0  0  0  0  0  0
    5.4250   -4.9120   20.0020 O   0  0  0  0  0  0  0  0  0  0  0  0
    6.7490   -4.2890   21.8180 N   0  0  0  0  0  0  0  0  0  0  0  0
    6.6470   -5.6550   22.4050 C   0  0  0  0  0  0  0  0  0  0  0  0
    6.2670   -5.4060   23.9280 C   0  0  0  0  0  0  0  0  0  0  0  0
    6.1500   -3.9170   24.0890 C   0  0  0  0  0  0  0  0  0  0  0  0
    5.2060   -3.3710   25.2750 C   0  0  0  0  0  0  0  0  0  0  0  0
    4.2570   -2.8390   24.7360 O   0  0  0  0  0  0  0  0  0  0  0  0
    5.6340   -3.5800   26.4740 N   0  0  0  0  0  0  0  0  0  0  0  0
    6.4510   -3.5850   27.5380 C   0  0  0  0  0  0  0  0  0  0  0  0
    6.8810   -4.4920   28.4600 C   0  0  0  0  0  0  0  0  0  0  0  0
    5.8340   -4.5570   29.3120 C   0  0  0  0  0  0  0  0  0  0  0  0
    4.6590   -4.4400   28.4640 C   0  0  0  0  0  0  0  0  0  0  0  0
    3.6760   -5.3750   29.0930 C   0  0  0  0  0  0  0  0  0  0  0  0
    2.5420   -5.2580   28.2470 C   0  0  1  0  0  0  0  0  0  0  0  0
    2.1040   -3.9160   27.8620 C   0  0  0  0  0  0  0  0  0  0  0  0
    3.1940   -3.9460   26.7040 C   0  0  2  0  0  0  0  0  0  0  0  0
    3.0610   -4.9300   25.4720 C   0  0  0  0  0  0  0  0  0  0  0  0
    2.2670   -6.0020   25.9740 N   0  0  0  0  0  0  0  0  0  0  0  0
    0.8830   -5.8620   25.6490 C   0  0  0  0  0  0  0  0  0  0  0  0
    0.4050   -7.1500   25.7140 C   0  0  0  0  0  0  0  0  0  0  0  0
    0.9030   -7.9430   26.7030 C   0  0  0  0  0  0  0  0  0  0  0  0
    1.6450   -7.3280   27.6900 C   0  0  0  0  0  0  0  0  0  0  0  0
    2.5550   -6.3300   27.3250 C   0  0  2  0  0  0  0  0  0  0  0  0
    4.4190   -3.6970   27.3600 C   0  0  2  0  0  0  0  0  0  0  0  0
    7.3750   -3.0840   23.8070 C   0  0  0  0  0  0  0  0  0  0  0  0
    7.6440   -3.2550   22.3160 C   0  0  0  0  0  0  0  0  0  0  0  0
  1  2  1  0
  2  3  2  0
  2  4  1  0
  4  5  1  0
  5  6  1  0
  6  7  1  0
  7  8  1  0
  8  9  2  0
  8 10  1  0
 10 11  1  0
 11 12  1  0
 12 13  1  0
 13 14  1  0
 14 15  2  0
 16 15  1  6
 16 17  1  0
 17 18  1  0
 18 19  1  1
 19 20  1  0
 20 21  1  0
 21 22  1  0
 22 23  1  0
 23 24  1  0
 16 25  1  0
 20 25  1  0
 25 24  1  1
 26 10  1  6
 14 26  1  0
 18 26  1  0
  7 27  1  0
  4 28  1  0
 27 28  1  0
M  END
