piperidine-amides-13602-covalent
     RDKit          3D

 28 29  0  0  0  0  0  0  0  0999 V2000
    7.1700   -3.3020   19.2440 C   0  0  0  0  0  0  0  0  0  0  0  0
    6.3630   -4.0650   20.2270 C   0  0  0  0  0  0  0  0  0  0  0  0
    5.2690   -4.5380   19.8780 O   0  0  0  0  0  0  0  0  0  0  0  0
    6.8980   -4.2800   21.5080 N   0  0  0  0  0  0  0  0  0  0  0  0
    6.5030   -5.4050   22.3000 C   0  0  0  0  0  0  0  0  0  0  0  0
    5.5720   -4.8460   23.3770 C   0  0  0  0  0  0  0  0  0  0  0  0
    6.2740   -3.7390   24.1110 C   0  0  0  0  0  0  0  0  0  0  0  0
    5.3890   -3.1500   25.1380 C   0  0  0  0  0  0  0  0  0  0  0  0
    4.2650   -2.8080   24.7660 O   0  0  0  0  0  0  0  0  0  0  0  0
    5.8300   -3.0120   26.4440 N   0  0  0  0  0  0  0  0  0  0  0  0
    6.5540   -3.9720   27.1600 C   0  0  2  0  0  0  0  0  0  0  0  0
    6.0500   -4.4780   28.3330 C   0  0  0  0  0  0  0  0  0  0  0  0
    4.9730   -5.3760   28.3320 C   0  0  0  0  0  0  0  0  0  0  0  0
    5.0050   -6.6020   28.9850 C   0  0  0  0  0  0  0  0  0  0  0  0
    3.8110   -7.4870   28.9350 C   0  0  0  0  0  0  0  0  0  0  0  0
    2.5940   -6.9990   28.1580 C   0  0  0  0  0  0  0  0  0  0  0  0
    1.4300   -7.9910   28.1780 C   0  0  0  0  0  0  0  0  0  0  0  0
    0.8150   -8.2560   26.9990 F   0  0  0  0  0  0  0  0  0  0  0  0
    0.4600   -7.5910   29.0900 F   0  0  0  0  0  0  0  0  0  0  0  0
    2.6480   -5.7600   27.5320 C   0  0  0  0  0  0  0  0  0  0  0  0
    3.8670   -4.9230   27.6200 C   0  0  0  0  0  0  0  0  0  0  0  0
    7.9570   -3.7450   27.4380 C   0  0  0  0  0  0  0  0  0  0  0  0
    8.4300   -2.7620   28.3060 O   0  0  0  0  0  0  0  0  0  0  0  0
    8.8340   -4.5910   26.7790 O   0  0  0  0  0  0  0  0  0  0  0  0
    9.0020   -5.8520   27.2950 C   0  0  0  0  0  0  0  0  0  0  0  0
    7.7720   -6.1220   28.1670 C   0  0  0  0  0  0  0  0  0  0  0  0
    6.8330   -2.6360   23.2570 C   0  0  0  0  0  0  0  0  0  0  0  0
    7.6860   -3.2700   22.1700 C   0  0  0  0  0  0  0  0  0  0  0  0
  1  2  1  0
  2  3  2  0
  2  4  1  0
  4  5  1  0
  5  6  1  0
  6  7  1  0
  7  8  1  0
  8  9  2  0
  8 10  1  0
 10 11  1  0
 11 12  1  1
 12 13  1  0
 13 14  2  0
 14 15  1  0
 15 16  2  0
 16 17  1  0
 17 18  1  0
 17 19  1  0
 16 20  1  0
 13 21  1  0
 20 21  2  0
 11 22  1  0
 22 23  2  0
 22 24  1  0
 24 25  1  0
 25 26  1  0
  7 27  1  0
  4 28  1  0
 27 28  1  0
M  END
