piperidine-amides-13522-covalent
     RDKit          3D

 23 24  0  0  0  0  0  0  0  0999 V2000
    7.2070   -3.3050   19.2250 C   0  0  0  0  0  0  0  0  0  0  0  0
    6.4110   -4.0680   20.2120 C   0  0  0  0  0  0  0  0  0  0  0  0
    5.3030   -4.5270   19.8870 O   0  0  0  0  0  0  0  0  0  0  0  0
    6.9990   -4.2970   21.4670 N   0  0  0  0  0  0  0  0  0  0  0  0
    7.7880   -3.2850   22.1020 C   0  0  0  0  0  0  0  0  0  0  0  0
    6.8550   -2.6770   23.1280 C   0  0  0  0  0  0  0  0  0  0  0  0
    6.5560   -3.7370   24.1340 C   0  0  0  0  0  0  0  0  0  0  0  0
    5.8820   -3.1090   25.2670 C   0  0  0  0  0  0  0  0  0  0  0  0
    4.9450   -2.3650   24.9680 O   0  0  0  0  0  0  0  0  0  0  0  0
    6.2660   -3.3730   26.5740 N   0  0  0  0  0  0  0  0  0  0  0  0
    5.4010   -3.9950   27.4830 C   0  0  1  0  0  0  0  0  0  0  0  0
    5.6300   -5.1970   28.1130 C   0  0  0  0  0  0  0  0  0  0  0  0
    5.8600   -6.3000   27.2930 C   0  0  0  0  0  0  0  0  0  0  0  0
    6.7040   -5.1590   29.1390 C   0  0  0  0  0  0  0  0  0  0  0  0
    4.9150   -2.8630   28.3300 C   0  0  0  0  0  0  0  0  0  0  0  0
    3.9720   -1.8760   27.6220 C   0  0  0  0  0  0  0  0  0  0  0  0
    3.9920   -0.5620   28.0790 O   0  0  0  0  0  0  0  0  0  0  0  0
    4.3720   -3.3110   29.4680 C   0  0  0  0  0  0  0  0  0  0  0  0
    4.3180   -2.3090   30.3930 C   0  0  0  0  0  0  0  0  0  0  0  0
    5.3230   -1.2270   30.1990 C   0  0  0  0  0  0  0  0  0  0  0  0
    5.9170   -1.9810   28.9940 C   0  0  0  0  0  0  0  0  0  0  0  0
    5.7830   -4.8290   23.5050 C   0  0  0  0  0  0  0  0  0  0  0  0
    6.5460   -5.3750   22.2910 C   0  0  0  0  0  0  0  0  0  0  0  0
  1  2  1  0
  2  3  2  0
  2  4  1  0
  4  5  1  0
  5  6  1  0
  6  7  1  0
  7  8  1  0
  8  9  2  0
  8 10  1  0
 11 10  1  1
 11 12  1  0
 12 13  1  0
 12 14  1  0
 11 15  1  0
 15 16  1  0
 16 17  1  0
 15 18  1  0
 18 19  1  0
 19 20  1  0
 15 21  1  0
 20 21  1  0
  7 22  1  0
  4 23  1  0
 22 23  1  0
M  END
