piperidine-amides-4700-covalent
     RDKit          3D

 24 25  0  0  0  0  0  0  0  0999 V2000
    7.1020   -3.2550   19.1470 C   0  0  0  0  0  0  0  0  0  0  0  0
    6.3270   -3.9760   20.1840 C   0  0  0  0  0  0  0  0  0  0  0  0
    5.2330   -4.4540   19.8330 O   0  0  0  0  0  0  0  0  0  0  0  0
    6.8240   -4.1690   21.4780 N   0  0  0  0  0  0  0  0  0  0  0  0
    7.5810   -3.1310   22.1110 C   0  0  0  0  0  0  0  0  0  0  0  0
    7.1430   -2.7750   23.4640 C   0  0  0  0  0  0  0  0  0  0  0  0
    6.5110   -3.8770   24.2190 C   0  0  0  0  0  0  0  0  0  0  0  0
    5.7830   -3.3420   25.4020 C   0  0  0  0  0  0  0  0  0  0  0  0
    4.6500   -2.8510   25.2170 O   0  0  0  0  0  0  0  0  0  0  0  0
    6.3400   -3.3830   26.7010 N   0  0  0  0  0  0  0  0  0  0  0  0
    5.7240   -4.1380   27.8190 C   0  0  2  0  0  0  0  0  0  0  0  0
    6.6920   -4.8780   28.6790 C   0  0  0  0  0  0  0  0  0  0  0  0
    4.6840   -5.0790   27.3460 C   0  0  0  0  0  0  0  0  0  0  0  0
    4.8810   -5.9950   26.3460 C   0  0  0  0  0  0  0  0  0  0  0  0
    3.9530   -6.9000   25.8570 C   0  0  0  0  0  0  0  0  0  0  0  0
    2.6990   -6.9150   26.4020 C   0  0  0  0  0  0  0  0  0  0  0  0
    1.7550   -7.7910   25.9470 C   0  0  0  0  0  0  0  0  0  0  0  0
    0.7500   -8.1790   26.7870 C   0  0  0  0  0  0  0  0  0  0  0  0
    2.1960   -8.9630   25.3490 C   0  0  0  0  0  0  0  0  0  0  0  0
    0.6990   -7.1690   25.0480 C   0  0  0  0  0  0  0  0  0  0  0  0
    2.3770   -6.0490   27.4120 C   0  0  0  0  0  0  0  0  0  0  0  0
    3.4170   -5.0960   27.8980 C   0  0  0  0  0  0  0  0  0  0  0  0
    5.7110   -4.8270   23.4380 C   0  0  0  0  0  0  0  0  0  0  0  0
    6.4800   -5.3460   22.2470 C   0  0  0  0  0  0  0  0  0  0  0  0
  1  2  1  0
  2  3  2  0
  2  4  1  0
  4  5  1  0
  5  6  1  0
  6  7  1  0
  7  8  1  0
  8  9  2  0
  8 10  1  0
 10 11  1  0
 11 12  1  6
 11 13  1  0
 13 14  2  0
 14 15  1  0
 15 16  2  0
 16 17  1  0
 17 18  1  0
 17 19  1  0
 17 20  1  0
 16 21  1  0
 13 22  1  0
 21 22  2  0
  7 23  1  0
  4 24  1  0
 23 24  1  0
M  END
