piperidine-amides-29569-covalent
     RDKit          3D

 26 28  0  0  0  0  0  0  0  0999 V2000
    7.0450   -3.3530   19.3140 C   0  0  0  0  0  0  0  0  0  0  0  0
    6.3440   -4.1850   20.2840 C   0  0  0  0  0  0  0  0  0  0  0  0
    5.3220   -4.7820   19.9570 O   0  0  0  0  0  0  0  0  0  0  0  0
    6.8710   -4.3640   21.6010 N   0  0  0  0  0  0  0  0  0  0  0  0
    6.7230   -5.6580   22.2320 C   0  0  0  0  0  0  0  0  0  0  0  0
    6.3090   -5.4880   23.6580 C   0  0  0  0  0  0  0  0  0  0  0  0
    6.2340   -4.0010   23.8570 C   0  0  0  0  0  0  0  0  0  0  0  0
    5.6520   -3.6540   25.1740 C   0  0  0  0  0  0  0  0  0  0  0  0
    4.6590   -2.9020   25.2320 O   0  0  0  0  0  0  0  0  0  0  0  0
    6.1810   -4.1540   26.3990 N   0  0  0  0  0  0  0  0  0  0  0  0
    7.5690   -4.3450   26.5690 C   0  0  0  0  0  0  0  0  0  0  0  0
    7.8830   -2.9360   26.8120 C   0  0  1  0  0  0  0  0  0  0  0  0
    8.5600   -2.2450   25.8480 C   0  0  0  0  0  0  0  0  0  0  0  0
    6.6730   -2.2460   26.9700 O   0  0  0  0  0  0  0  0  0  0  0  0
    5.9820   -2.2550   28.2160 C   0  0  0  0  0  0  0  0  0  0  0  0
    5.1840   -2.6470   29.3810 C   0  0  0  0  0  0  0  0  0  0  0  0
    5.2720   -3.6280   28.5310 C   0  0  0  0  0  0  0  0  0  0  0  0
    5.9650   -2.5460   28.0140 C   0  0  0  0  0  0  0  0  0  0  0  0
    5.7280   -2.0440   26.7780 F   0  0  0  0  0  0  0  0  0  0  0  0
    7.3200   -2.6970   28.2540 F   0  0  0  0  0  0  0  0  0  0  0  0
    5.5680   -1.5280   28.9130 F   0  0  0  0  0  0  0  0  0  0  0  0
    4.5130   -4.4270   29.3710 C   0  0  0  0  0  0  0  0  0  0  0  0
    4.9940   -4.7520   28.2440 C   0  0  0  0  0  0  0  0  0  0  0  0
    5.7230   -3.6430   27.6740 C   0  0  0  0  0  0  0  0  0  0  0  0
    7.5430   -3.3190   23.5640 C   0  0  0  0  0  0  0  0  0  0  0  0
    7.7000   -3.3260   22.1860 C   0  0  0  0  0  0  0  0  0  0  0  0
  1  2  1  0
  2  3  2  0
  2  4  1  0
  4  5  1  0
  5  6  1  0
  6  7  1  0
  7  8  1  0
  8  9  2  0
  8 10  1  0
 10 11  1  0
 11 12  1  0
 12 13  1  6
 12 14  1  0
 14 15  1  0
 15 16  2  0
 16 17  1  0
 17 18  1  0
 18 19  1  0
 18 20  1  0
 18 21  1  0
 17 22  2  0
 22 23  1  0
 10 24  1  0
 15 24  1  0
 23 24  2  0
  7 25  1  0
  4 26  1  0
 25 26  1  0
M  END
