piperidine-amides-35073-covalent
     RDKit          3D

 27 29  0  0  0  0  0  0  0  0999 V2000
    7.0510   -3.3220   19.2680 C   0  0  0  0  0  0  0  0  0  0  0  0
    6.3760   -4.1410   20.3110 C   0  0  0  0  0  0  0  0  0  0  0  0
    5.3860   -4.7840   19.9650 O   0  0  0  0  0  0  0  0  0  0  0  0
    6.8900   -4.1860   21.6080 N   0  0  0  0  0  0  0  0  0  0  0  0
    7.7990   -3.1790   22.0980 C   0  0  0  0  0  0  0  0  0  0  0  0
    7.4400   -2.9060   23.5080 C   0  0  0  0  0  0  0  0  0  0  0  0
    5.9970   -3.3530   23.6860 C   0  0  0  0  0  0  0  0  0  0  0  0
    5.6020   -2.9640   25.0450 C   0  0  0  0  0  0  0  0  0  0  0  0
    4.4060   -2.9080   25.3620 O   0  0  0  0  0  0  0  0  0  0  0  0
    6.6040   -2.6730   25.9700 N   0  0  0  0  0  0  0  0  0  0  0  0
    6.5220   -1.5080   26.8180 C   0  0  0  0  0  0  0  0  0  0  0  0
    5.7280   -0.2960   26.3840 C   0  0  0  0  0  0  0  0  0  0  0  0
    5.6000    0.8640   27.1560 C   0  0  0  0  0  0  0  0  0  0  0  0
    4.6710    2.2500   26.6250 Cl  0  0  0  0  0  0  0  0  0  0  0  0
    6.2430    0.8820   28.3850 C   0  0  0  0  0  0  0  0  0  0  0  0
    6.9820   -0.1650   28.8540 C   0  0  0  0  0  0  0  0  0  0  0  0
    7.0940   -1.3680   28.0040 C   0  0  0  0  0  0  0  0  0  0  0  0
    7.9300   -2.3160   28.7380 C   0  0  0  0  0  0  0  0  0  0  0  0
    7.1080   -3.8060   26.6620 C   0  0  0  0  0  0  0  0  0  0  0  0
    8.2310   -4.3300   26.2220 N   0  0  0  0  0  0  0  0  0  0  0  0
    8.7330   -5.4940   26.9390 C   0  0  0  0  0  0  0  0  0  0  0  0
    7.9700   -5.9990   28.0850 C   0  0  0  0  0  0  0  0  0  0  0  0
    6.7150   -5.3580   28.5220 C   0  0  0  0  0  0  0  0  0  0  0  0
    6.1950   -4.1880   27.8120 C   0  0  0  0  0  0  0  0  0  0  0  0
    4.5850   -3.2670   28.2720 Br  0  0  0  0  0  0  0  0  0  0  0  0
    5.8300   -4.8690   23.5170 C   0  0  0  0  0  0  0  0  0  0  0  0
    6.6360   -5.3250   22.4810 C   0  0  0  0  0  0  0  0  0  0  0  0
  1  2  1  0
  2  3  2  0
  2  4  1  0
  4  5  1  0
  5  6  1  0
  6  7  1  0
  7  8  1  0
  8  9  2  0
  8 10  1  0
 10 11  1  0
 11 12  2  0
 12 13  1  0
 13 14  1  0
 13 15  2  0
 15 16  1  0
 11 17  1  0
 16 17  2  0
 17 18  1  0
 10 19  1  0
 19 20  2  0
 20 21  1  0
 21 22  2  0
 22 23  1  0
 19 24  1  0
 23 24  2  0
 24 25  1  0
  7 26  1  0
  4 27  1  0
 26 27  1  0
M  END
