piperidine-amides-8450-covalent
     RDKit          3D

 24 26  0  0  0  0  0  0  0  0999 V2000
    7.0770   -3.3640   19.3730 C   0  0  0  0  0  0  0  0  0  0  0  0
    6.3860   -4.1930   20.3540 C   0  0  0  0  0  0  0  0  0  0  0  0
    5.3790   -4.8270   19.9830 O   0  0  0  0  0  0  0  0  0  0  0  0
    6.9010   -4.2970   21.6690 N   0  0  0  0  0  0  0  0  0  0  0  0
    7.6870   -3.2290   22.2180 C   0  0  0  0  0  0  0  0  0  0  0  0
    6.9350   -2.6060   23.3470 C   0  0  0  0  0  0  0  0  0  0  0  0
    6.5650   -3.7370   24.2780 C   0  0  0  0  0  0  0  0  0  0  0  0
    5.6990   -3.2140   25.3950 C   0  0  0  0  0  0  0  0  0  0  0  0
    4.5030   -3.1020   25.1290 O   0  0  0  0  0  0  0  0  0  0  0  0
    6.2650   -2.8910   26.6360 N   0  0  0  0  0  0  0  0  0  0  0  0
    6.7470   -1.5780   26.9620 C   0  0  2  0  0  0  0  0  0  0  0  0
    7.1310   -1.4340   28.3230 C   0  0  0  0  0  0  0  0  0  0  0  0
    6.5980   -0.4760   29.1770 C   0  0  0  0  0  0  0  0  0  0  0  0
    5.7980    0.5920   28.7860 C   0  0  1  0  0  0  0  0  0  0  0  0
    5.9400    1.8400   29.4380 N   0  0  0  0  0  0  0  0  0  0  0  0
    7.2070    2.3050   29.9490 C   0  0  0  0  0  0  0  0  0  0  0  0
    6.8190    3.0570   31.2620 C   0  0  0  0  0  0  0  0  0  0  0  0
    5.5630    2.9080   31.4540 O   0  0  0  0  0  0  0  0  0  0  0  0
    4.9970    2.2120   30.4190 C   0  0  0  0  0  0  0  0  0  0  0  0
    3.6400    1.9580   30.4350 O   0  0  0  0  0  0  0  0  0  0  0  0
    5.7080    0.7440   27.3940 C   0  0  0  0  0  0  0  0  0  0  0  0
    5.7630   -0.5520   26.5740 C   0  0  0  0  0  0  0  0  0  0  0  0
    5.7290   -4.7700   23.5300 C   0  0  0  0  0  0  0  0  0  0  0  0
    6.5060   -5.3600   22.5530 C   0  0  0  0  0  0  0  0  0  0  0  0
  1  2  1  0
  2  3  2  0
  2  4  1  0
  4  5  1  0
  5  6  1  0
  6  7  1  0
  7  8  1  0
  8  9  2  0
  8 10  1  0
 11 10  1  1
 11 12  1  0
 12 13  1  0
 13 14  1  0
 14 15  1  1
 15 16  1  0
 16 17  1  0
 17 18  1  0
 15 19  1  0
 18 19  1  0
 19 20  2  0
 14 21  1  0
 11 22  1  0
 21 22  1  0
  7 23  1  0
  4 24  1  0
 23 24  1  0
M  END
