piperidine-amides-25265-covalent
     RDKit          3D

 23 24  0  0  0  0  0  0  0  0999 V2000
    7.1020   -3.3470   19.2740 C   0  0  0  0  0  0  0  0  0  0  0  0
    6.3620   -4.1440   20.2800 C   0  0  0  0  0  0  0  0  0  0  0  0
    5.3050   -4.6590   19.9250 O   0  0  0  0  0  0  0  0  0  0  0  0
    6.9160   -4.3210   21.5460 N   0  0  0  0  0  0  0  0  0  0  0  0
    6.6710   -5.5100   22.3200 C   0  0  0  0  0  0  0  0  0  0  0  0
    6.0000   -5.1300   23.6120 C   0  0  0  0  0  0  0  0  0  0  0  0
    6.7270   -3.9450   24.2540 C   0  0  0  0  0  0  0  0  0  0  0  0
    5.9090   -3.5070   25.3880 C   0  0  0  0  0  0  0  0  0  0  0  0
    4.9810   -2.7120   25.2010 O   0  0  0  0  0  0  0  0  0  0  0  0
    6.1770   -3.9950   26.6690 N   0  0  0  0  0  0  0  0  0  0  0  0
    6.9620   -5.1350   26.7820 C   0  0  0  0  0  0  0  0  0  0  0  0
    7.1730   -5.4220   28.4410 S   0  0  0  0  0  0  0  0  0  0  0  0
    6.0310   -4.1730   28.8140 C   0  0  0  0  0  0  0  0  0  0  0  0
    5.5360   -3.3810   27.7310 C   0  0  2  0  0  0  0  0  0  0  0  0
    4.1870   -3.4340   27.5930 C   0  0  0  0  0  0  0  0  0  0  0  0
    3.5620   -4.4720   26.9320 O   0  0  0  0  0  0  0  0  0  0  0  0
    3.2440   -2.4800   28.1180 N   0  0  0  0  0  0  0  0  0  0  0  0
    2.0130   -2.5000   27.3580 C   0  0  0  0  0  0  0  0  0  0  0  0
    2.3380   -2.4000   25.8790 C   0  0  0  0  0  0  0  0  0  0  0  0
    3.5680   -1.7850   29.2280 C   0  0  0  0  0  0  0  0  0  0  0  0
    4.8760   -1.0630   29.4370 C   0  0  0  0  0  0  0  0  0  0  0  0
    7.0160   -2.8240   23.3470 C   0  0  0  0  0  0  0  0  0  0  0  0
    7.6980   -3.2600   22.1180 C   0  0  0  0  0  0  0  0  0  0  0  0
  1  2  1  0
  2  3  2  0
  2  4  1  0
  4  5  1  0
  5  6  1  0
  6  7  1  0
  7  8  1  0
  8  9  2  0
  8 10  1  0
 10 11  1  0
 11 12  1  0
 12 13  1  0
 10 14  1  0
 13 14  1  0
 14 15  1  6
 15 16  2  0
 15 17  1  0
 17 18  1  0
 18 19  1  0
 17 20  1  0
 20 21  1  0
  7 22  1  0
  4 23  1  0
 22 23  1  0
M  END
