piperidine-amides-18925-covalent
     RDKit          3D

 21 22  0  0  0  0  0  0  0  0999 V2000
    7.1800   -3.3000   19.3550 C   0  0  0  0  0  0  0  0  0  0  0  0
    6.4460   -4.1020   20.3050 C   0  0  0  0  0  0  0  0  0  0  0  0
    5.3590   -4.6420   19.9250 O   0  0  0  0  0  0  0  0  0  0  0  0
    6.9210   -4.3450   21.6130 N   0  0  0  0  0  0  0  0  0  0  0  0
    7.8410   -3.3470   22.2070 C   0  0  0  0  0  0  0  0  0  0  0  0
    6.8550   -2.7030   23.2330 C   0  0  0  0  0  0  0  0  0  0  0  0
    6.4590   -3.8200   24.1720 C   0  0  0  0  0  0  0  0  0  0  0  0
    5.7730   -3.0920   25.4010 C   0  0  0  0  0  0  0  0  0  0  0  0
    4.9550   -2.2770   25.0010 O   0  0  0  0  0  0  0  0  0  0  0  0
    6.2500   -3.5490   26.4880 N   0  0  0  0  0  0  0  0  0  0  0  0
    6.6880   -4.4800   27.3910 C   0  0  0  0  0  0  0  0  0  0  0  0
    6.3670   -2.3920   27.2930 C   0  0  0  0  0  0  0  0  0  0  0  0
    5.1780   -1.8510   27.8530 C   0  0  0  0  0  0  0  0  0  0  0  0
    5.0470   -0.4830   27.5690 O   0  0  0  0  0  0  0  0  0  0  0  0
    3.8720   -2.4900   27.5940 C   0  0  0  0  0  0  0  0  0  0  0  0
    3.1830   -1.3700   28.3850 C   0  0  0  0  0  0  0  0  0  0  0  0
    3.8760   -0.6520   29.1520 O   0  0  0  0  0  0  0  0  0  0  0  0
    4.6970   -1.3610   30.0020 C   0  0  0  0  0  0  0  0  0  0  0  0
    5.7530   -1.8870   29.2380 C   0  0  0  0  0  0  0  0  0  0  0  0
    5.8100   -4.9890   23.6230 C   0  0  0  0  0  0  0  0  0  0  0  0
    6.6340   -5.4770   22.3900 C   0  0  0  0  0  0  0  0  0  0  0  0
  1  2  1  0
  2  3  2  0
  2  4  1  0
  4  5  1  0
  5  6  1  0
  6  7  1  0
  7  8  1  0
  8  9  2  0
  8 10  1  0
 10 11  1  0
 10 12  1  0
 12 13  1  0
 13 14  1  0
 13 15  1  0
 15 16  1  0
 16 17  1  0
 17 18  1  0
 13 19  1  0
 18 19  1  0
  7 20  1  0
  4 21  1  0
 20 21  1  0
M  END
