piperidine-amides-28041-covalent
     RDKit          3D

 26 28  0  0  0  0  0  0  0  0999 V2000
    6.9960   -3.3670   19.3540 C   0  0  0  0  0  0  0  0  0  0  0  0
    6.3550   -4.2110   20.3970 C   0  0  0  0  0  0  0  0  0  0  0  0
    5.3990   -4.9080   19.9990 O   0  0  0  0  0  0  0  0  0  0  0  0
    6.8140   -4.2520   21.7390 N   0  0  0  0  0  0  0  0  0  0  0  0
    6.5340   -5.3820   22.5770 C   0  0  0  0  0  0  0  0  0  0  0  0
    5.9740   -5.0200   23.8930 C   0  0  0  0  0  0  0  0  0  0  0  0
    5.9490   -3.5540   24.0920 C   0  0  0  0  0  0  0  0  0  0  0  0
    5.4500   -3.0500   25.4280 C   0  0  0  0  0  0  0  0  0  0  0  0
    5.0350   -1.8830   25.4140 O   0  0  0  0  0  0  0  0  0  0  0  0
    5.3750   -3.7440   26.6770 N   0  0  0  0  0  0  0  0  0  0  0  0
    4.1540   -3.6320   27.4730 C   0  0  0  0  0  0  0  0  0  0  0  0
    4.4360   -4.1720   28.8270 C   0  0  0  0  0  0  0  0  0  0  0  0
    5.3590   -5.2790   28.8670 C   0  0  0  0  0  0  0  0  0  0  0  0
    5.4030   -5.9680   30.0580 C   0  0  0  0  0  0  0  0  0  0  0  0
    6.3800   -6.5090   30.5800 O   0  0  0  0  0  0  0  0  0  0  0  0
    4.1050   -5.9810   30.5880 N   0  0  0  0  0  0  0  0  0  0  0  0
    3.8940   -6.1600   32.0160 C   0  0  0  0  0  0  0  0  0  0  0  0
    4.3690   -7.3040   32.5390 C   0  0  0  0  0  0  0  0  0  0  0  0
    4.1950   -7.5440   33.9280 N   0  0  0  0  0  0  0  0  0  0  0  0
    3.5010   -6.5390   34.7630 C   0  0  0  0  0  0  0  0  0  0  0  0
    3.0650   -5.4100   34.1040 C   0  0  0  0  0  0  0  0  0  0  0  0
    3.2670   -5.2520   32.7730 N   0  0  0  0  0  0  0  0  0  0  0  0
    6.5520   -4.8860   28.3550 C   0  0  0  0  0  0  0  0  0  0  0  0
    6.4220   -3.5710   27.6210 C   0  0  0  0  0  0  0  0  0  0  0  0
    7.2410   -2.9160   23.7160 C   0  0  0  0  0  0  0  0  0  0  0  0
    7.6520   -3.1870   22.2850 C   0  0  0  0  0  0  0  0  0  0  0  0
  1  2  1  0
  2  3  2  0
  2  4  1  0
  4  5  1  0
  5  6  1  0
  6  7  1  0
  7  8  1  0
  8  9  2  0
  8 10  1  0
 10 11  1  0
 11 12  1  0
 12 13  1  0
 13 14  1  0
 14 15  2  0
 14 16  1  0
 16 17  1  0
 17 18  2  0
 18 19  1  0
 19 20  2  0
 20 21  1  0
 17 22  1  0
 21 22  2  0
 13 23  1  0
 10 24  1  0
 23 24  1  0
  7 25  1  0
  4 26  1  0
 25 26  1  0
M  END
