piperidine-amides-10993-covalent
     RDKit          3D

 21 22  0  0  0  0  0  0  0  0999 V2000
    7.0500   -3.3380   19.3420 C   0  0  0  0  0  0  0  0  0  0  0  0
    6.3780   -4.1750   20.3410 C   0  0  0  0  0  0  0  0  0  0  0  0
    5.3910   -4.8430   19.9850 O   0  0  0  0  0  0  0  0  0  0  0  0
    6.8370   -4.2790   21.6730 N   0  0  0  0  0  0  0  0  0  0  0  0
    6.6930   -5.5020   22.4330 C   0  0  0  0  0  0  0  0  0  0  0  0
    6.0470   -5.1120   23.7430 C   0  0  0  0  0  0  0  0  0  0  0  0
    6.0770   -3.6260   23.9260 C   0  0  0  0  0  0  0  0  0  0  0  0
    5.5660   -3.1440   25.2370 C   0  0  0  0  0  0  0  0  0  0  0  0
    4.3410   -2.8520   25.3550 O   0  0  0  0  0  0  0  0  0  0  0  0
    6.3630   -2.9930   26.3910 N   0  0  0  0  0  0  0  0  0  0  0  0
    6.6570   -1.6600   26.9880 C   0  0  1  0  0  0  0  0  0  0  0  0
    5.6210   -0.6710   26.6800 C   0  0  0  0  0  0  0  0  0  0  0  0
    5.8070    0.6390   27.3370 C   0  0  0  0  0  0  0  0  0  0  0  0
    6.3500    0.6240   28.7570 C   0  0  0  0  0  0  0  0  0  0  0  0
    6.9450   -0.6780   29.3010 C   0  0  0  0  0  0  0  0  0  0  0  0
    6.6180   -1.8380   28.4450 C   0  0  1  0  0  0  0  0  0  0  0  0
    5.1170   -2.4150   29.0710 S   0  0  0  0  0  0  0  0  0  0  0  0
    4.5540   -1.1240   30.0350 C   0  0  0  0  0  0  0  0  0  0  0  0
    3.4600   -1.2070   30.9040 C   0  0  0  0  0  0  0  0  0  0  0  0
    7.4700   -3.0600   23.6770 C   0  0  0  0  0  0  0  0  0  0  0  0
    7.7010   -3.2070   22.1680 C   0  0  0  0  0  0  0  0  0  0  0  0
  1  2  1  0
  2  3  2  0
  2  4  1  0
  4  5  1  0
  5  6  1  0
  6  7  1  0
  7  8  1  0
  8  9  2  0
  8 10  1  0
 11 10  1  6
 11 12  1  0
 12 13  1  0
 13 14  1  0
 14 15  1  0
 11 16  1  0
 15 16  1  0
 16 17  1  1
 17 18  1  0
 18 19  1  0
  7 20  1  0
  4 21  1  0
 20 21  1  0
M  END
