piperidine-amides-4780-covalent
     RDKit          3D

 23 24  0  0  0  0  0  0  0  0999 V2000
    7.1210   -3.2470   19.1770 C   0  0  0  0  0  0  0  0  0  0  0  0
    6.3550   -3.9980   20.2010 C   0  0  0  0  0  0  0  0  0  0  0  0
    5.2640   -4.4830   19.8510 O   0  0  0  0  0  0  0  0  0  0  0  0
    6.8650   -4.1940   21.4880 N   0  0  0  0  0  0  0  0  0  0  0  0
    7.6310   -3.1750   22.1240 C   0  0  0  0  0  0  0  0  0  0  0  0
    7.2780   -2.8860   23.5160 C   0  0  0  0  0  0  0  0  0  0  0  0
    6.6790   -4.0020   24.2920 C   0  0  0  0  0  0  0  0  0  0  0  0
    5.8520   -3.4400   25.3820 C   0  0  0  0  0  0  0  0  0  0  0  0
    4.7340   -2.9680   25.0910 O   0  0  0  0  0  0  0  0  0  0  0  0
    6.3070   -3.4490   26.7090 N   0  0  0  0  0  0  0  0  0  0  0  0
    5.8840   -4.4930   27.6690 C   0  0  1  0  0  0  0  0  0  0  0  0
    7.0320   -5.3570   28.0450 C   0  0  0  0  0  0  0  0  0  0  0  0
    8.3250   -4.7750   27.8660 C   0  0  0  0  0  0  0  0  0  0  0  0
    8.2030   -3.6160   27.3440 O   0  0  0  0  0  0  0  0  0  0  0  0
    7.9720   -2.6080   28.2920 C   0  0  0  0  0  0  0  0  0  0  0  0
    5.1550   -3.9120   28.7930 C   0  0  0  0  0  0  0  0  0  0  0  0
    4.2050   -4.5310   29.5190 C   0  0  0  0  0  0  0  0  0  0  0  0
    3.7250   -3.7360   30.4740 C   0  0  0  0  0  0  0  0  0  0  0  0
    4.3660   -2.5430   30.3980 C   0  0  0  0  0  0  0  0  0  0  0  0
    4.0990   -1.4830   31.2630 C   0  0  0  0  0  0  0  0  0  0  0  0
    5.2820   -2.6020   29.3500 O   0  0  0  0  0  0  0  0  0  0  0  0
    5.9000   -5.0030   23.5220 C   0  0  0  0  0  0  0  0  0  0  0  0
    6.6000   -5.3980   22.2520 C   0  0  0  0  0  0  0  0  0  0  0  0
  1  2  1  0
  2  3  2  0
  2  4  1  0
  4  5  1  0
  5  6  1  0
  6  7  1  0
  7  8  1  0
  8  9  2  0
  8 10  1  0
 10 11  1  0
 11 12  1  1
 12 13  1  0
 13 14  1  0
 14 15  1  0
 11 16  1  0
 16 17  2  0
 17 18  1  0
 18 19  2  0
 19 20  1  0
 16 21  1  0
 19 21  1  0
  7 22  1  0
  4 23  1  0
 22 23  1  0
M  END
