piperidine-amides-35372-covalent
     RDKit          3D

 30 32  0  0  0  0  0  0  0  0999 V2000
    7.0080   -3.3550   19.3600 C   0  0  0  0  0  0  0  0  0  0  0  0
    6.3660   -4.2350   20.3690 C   0  0  0  0  0  0  0  0  0  0  0  0
    5.3930   -4.8850   19.9910 O   0  0  0  0  0  0  0  0  0  0  0  0
    6.8850   -4.3410   21.6670 N   0  0  0  0  0  0  0  0  0  0  0  0
    6.6230   -5.4800   22.4960 C   0  0  0  0  0  0  0  0  0  0  0  0
    5.8010   -5.0530   23.6860 C   0  0  0  0  0  0  0  0  0  0  0  0
    6.3460   -3.7630   24.3370 C   0  0  0  0  0  0  0  0  0  0  0  0
    5.2940   -3.2100   25.2470 C   0  0  0  0  0  0  0  0  0  0  0  0
    4.2210   -2.8720   24.7520 O   0  0  0  0  0  0  0  0  0  0  0  0
    5.4530   -3.0560   26.6590 N   0  0  0  0  0  0  0  0  0  0  0  0
    4.3560   -3.2900   27.5230 C   0  0  0  0  0  0  0  0  0  0  0  0
    4.5030   -4.7370   27.9200 C   0  0  0  0  0  0  0  0  0  0  0  0
    5.3660   -4.8640   29.0940 N   0  0  0  0  0  0  0  0  0  0  0  0
    5.2700   -6.5400   29.4790 S   0  0  0  0  0  0  0  0  0  0  0  0
    6.6550   -6.8970   29.8400 O   0  0  0  0  0  0  0  0  0  0  0  0
    4.9030   -7.2780   28.2240 O   0  0  0  0  0  0  0  0  0  0  0  0
    4.1070   -6.8890   30.8670 C   0  0  0  0  0  0  0  0  0  0  0  0
    4.7250   -6.8270   32.5010 Cl  0  0  0  0  0  0  0  0  0  0  0  0
    2.8510   -7.1790   30.4310 C   0  0  0  0  0  0  0  0  0  0  0  0
    2.3690   -7.2070   28.6950 Cl  0  0  0  0  0  0  0  0  0  0  0  0
    1.8430   -7.4760   31.3160 C   0  0  0  0  0  0  0  0  0  0  0  0
    0.4210   -6.9520   31.4610 C   0  0  0  0  0  0  0  0  0  0  0  0
   -0.2980   -7.6160   32.6190 C   0  0  0  0  0  0  0  0  0  0  0  0
    0.4350   -8.6530   33.4410 C   0  0  0  0  0  0  0  0  0  0  0  0
    1.8350   -9.0420   33.1500 C   0  0  0  0  0  0  0  0  0  0  0  0
    2.6570   -8.4820   32.0580 C   0  0  0  0  0  0  0  0  0  0  0  0
    6.5340   -4.6290   28.2940 C   0  0  0  0  0  0  0  0  0  0  0  0
    6.4770   -3.3240   27.5390 C   0  0  0  0  0  0  0  0  0  0  0  0
    6.7040   -2.7190   23.2830 C   0  0  0  0  0  0  0  0  0  0  0  0
    7.5510   -3.2290   22.3190 C   0  0  0  0  0  0  0  0  0  0  0  0
  1  2  1  0
  2  3  2  0
  2  4  1  0
  4  5  1  0
  5  6  1  0
  6  7  1  0
  7  8  1  0
  8  9  2  0
  8 10  1  0
 10 11  1  0
 11 12  1  0
 12 13  1  0
 13 14  1  0
 14 15  2  0
 14 16  2  0
 14 17  1  0
 17 18  1  0
 17 19  2  3
 19 20  1  0
 19 21  1  0
 21 22  2  0
 22 23  1  0
 23 24  2  0
 24 25  1  0
 21 26  1  0
 25 26  2  0
 13 27  1  0
 10 28  1  0
 27 28  1  0
  7 29  1  0
  4 30  1  0
 29 30  1  0
M  END
