piperidine-amides-10682-covalent
     RDKit          3D

 23 25  0  0  0  0  0  0  0  0999 V2000
    7.0910   -3.2730   19.2450 C   0  0  0  0  0  0  0  0  0  0  0  0
    6.3410   -4.0370   20.2480 C   0  0  0  0  0  0  0  0  0  0  0  0
    5.2540   -4.5410   19.8740 O   0  0  0  0  0  0  0  0  0  0  0  0
    6.8490   -4.2290   21.5350 N   0  0  0  0  0  0  0  0  0  0  0  0
    7.6780   -3.2310   22.1690 C   0  0  0  0  0  0  0  0  0  0  0  0
    6.9570   -2.7330   23.3880 C   0  0  0  0  0  0  0  0  0  0  0  0
    6.3970   -3.8600   24.2190 C   0  0  0  0  0  0  0  0  0  0  0  0
    5.4100   -3.3140   25.1890 C   0  0  0  0  0  0  0  0  0  0  0  0
    4.2460   -3.1060   24.7870 O   0  0  0  0  0  0  0  0  0  0  0  0
    5.7060   -3.0130   26.5350 N   0  0  0  0  0  0  0  0  0  0  0  0
    6.1490   -4.0380   27.4360 C   0  0  2  0  0  0  0  0  0  0  0  0
    7.5920   -4.2190   27.0820 C   0  0  0  0  0  0  0  0  0  0  0  0
    8.4240   -5.0280   27.7840 C   0  0  0  0  0  0  0  0  0  0  0  0
    9.7070   -5.1220   27.4120 C   0  0  0  0  0  0  0  0  0  0  0  0
   10.2550   -4.4490   26.3470 C   0  0  0  0  0  0  0  0  0  0  0  0
   11.5480   -4.5730   26.0290 F   0  0  0  0  0  0  0  0  0  0  0  0
    9.4270   -3.6380   25.6270 C   0  0  0  0  0  0  0  0  0  0  0  0
    8.1070   -3.5240   25.9960 C   0  0  0  0  0  0  0  0  0  0  0  0
    5.3460   -5.1860   27.5110 C   0  0  0  0  0  0  0  0  0  0  0  0
    5.4620   -4.3470   28.5810 C   0  0  0  0  0  0  0  0  0  0  0  0
    5.6180   -5.9040   28.7680 C   0  0  0  0  0  0  0  0  0  0  0  0
    5.6920   -4.8850   23.3690 C   0  0  0  0  0  0  0  0  0  0  0  0
    6.4740   -5.3830   22.3430 C   0  0  0  0  0  0  0  0  0  0  0  0
  1  2  1  0
  2  3  2  0
  2  4  1  0
  4  5  1  0
  5  6  1  0
  6  7  1  0
  7  8  1  0
  8  9  2  0
  8 10  1  0
 11 10  1  6
 11 12  1  0
 12 13  2  0
 13 14  1  0
 14 15  2  0
 15 16  1  0
 15 17  1  0
 12 18  1  0
 17 18  2  0
 11 19  1  0
 19 20  1  0
 19 21  1  0
 20 21  1  0
  7 22  1  0
  4 23  1  0
 22 23  1  0
M  END
