piperidine-amides-23543-covalent
     RDKit          3D

 24 26  0  0  0  0  0  0  0  0999 V2000
    7.1170   -3.3000   19.2630 C   0  0  0  0  0  0  0  0  0  0  0  0
    6.4150   -4.1050   20.2800 C   0  0  0  0  0  0  0  0  0  0  0  0
    5.3370   -4.6440   19.9250 O   0  0  0  0  0  0  0  0  0  0  0  0
    6.9700   -4.3040   21.5740 N   0  0  0  0  0  0  0  0  0  0  0  0
    6.5240   -5.4000   22.3590 C   0  0  0  0  0  0  0  0  0  0  0  0
    5.9750   -4.9880   23.6440 C   0  0  0  0  0  0  0  0  0  0  0  0
    6.0390   -3.5310   23.8610 C   0  0  0  0  0  0  0  0  0  0  0  0
    5.5180   -3.0940   25.2000 C   0  0  0  0  0  0  0  0  0  0  0  0
    5.1930   -3.9430   26.0460 O   0  0  0  0  0  0  0  0  0  0  0  0
    5.3700   -1.7280   25.5090 N   0  0  0  0  0  0  0  0  0  0  0  0
    4.4670   -1.1250   26.3520 C   0  0  0  0  0  0  0  0  0  0  0  0
    5.4360   -0.1580   26.7010 C   0  0  0  0  0  0  0  0  0  0  0  0
    5.1060    1.2100   26.0780 C   0  0  0  0  0  0  0  0  0  0  0  0
    4.1650    1.5500   25.1340 C   0  0  0  0  0  0  0  0  0  0  0  0
    4.0680    3.0620   24.6970 C   0  0  0  0  0  0  0  0  0  0  0  0
    5.0480    4.0490   25.3660 C   0  0  0  0  0  0  0  0  0  0  0  0
    5.3030    5.3630   25.2960 N   0  0  0  0  0  0  0  0  0  0  0  0
    4.8690    5.9950   26.4640 O   0  0  0  0  0  0  0  0  0  0  0  0
    5.3310    6.0680   24.1470 O   0  0  0  0  0  0  0  0  0  0  0  0
    6.0360    3.5040   26.3980 C   0  0  0  0  0  0  0  0  0  0  0  0
    6.0560    2.0840   26.7490 C   0  0  0  0  0  0  0  0  0  0  0  0
    6.4960   -0.8350   25.7820 C   0  0  0  0  0  0  0  0  0  0  0  0
    7.4660   -3.0330   23.6190 C   0  0  0  0  0  0  0  0  0  0  0  0
    7.6920   -3.1460   22.1510 C   0  0  0  0  0  0  0  0  0  0  0  0
  1  2  1  0
  2  3  2  0
  2  4  1  0
  4  5  1  0
  5  6  1  0
  6  7  1  0
  7  8  1  0
  8  9  2  0
  8 10  1  0
 10 11  1  0
 11 12  1  0
 12 13  1  0
 13 14  2  0
 14 15  1  0
 15 16  2  0
 16 17  1  0
 17 18  2  0
 17 19  1  0
 16 20  1  0
 13 21  1  0
 20 21  2  0
 10 22  1  0
 12 22  1  0
  7 23  1  0
  4 24  1  0
 23 24  1  0
M  CHG  2  17   1  19  -1
M  END
