piperidine-amides-25922-covalent
     RDKit          3D

 25 27  0  0  0  0  0  0  0  0999 V2000
    6.9870   -3.3740   19.4590 C   0  0  0  0  0  0  0  0  0  0  0  0
    6.3500   -4.2710   20.4310 C   0  0  0  0  0  0  0  0  0  0  0  0
    5.4190   -4.9830   20.0150 O   0  0  0  0  0  0  0  0  0  0  0  0
    6.7650   -4.3850   21.7890 N   0  0  0  0  0  0  0  0  0  0  0  0
    6.5810   -5.6030   22.5550 C   0  0  0  0  0  0  0  0  0  0  0  0
    5.9320   -5.1810   23.8560 C   0  0  0  0  0  0  0  0  0  0  0  0
    5.9030   -3.6840   23.9620 C   0  0  0  0  0  0  0  0  0  0  0  0
    5.2650   -3.0650   25.1980 C   0  0  0  0  0  0  0  0  0  0  0  0
    4.7990   -1.9010   25.1040 O   0  0  0  0  0  0  0  0  0  0  0  0
    5.1030   -3.6530   26.4930 N   0  0  0  0  0  0  0  0  0  0  0  0
    4.5860   -2.8820   27.6380 C   0  0  0  0  0  0  0  0  0  0  0  0
    4.9890   -3.6060   28.8860 C   0  0  0  0  0  0  0  0  0  0  0  0
    4.6710   -4.9080   28.7270 N   0  0  0  0  0  0  0  0  0  0  0  0
    4.1620   -5.8210   29.6740 C   0  0  0  0  0  0  0  0  0  0  0  0
    2.7120   -6.0410   29.6270 C   0  0  0  0  0  0  0  0  0  0  0  0
    2.2870   -7.0240   30.6680 C   0  0  0  0  0  0  0  0  0  0  0  0
    0.8200   -7.2240   30.5820 C   0  0  0  0  0  0  0  0  0  0  0  0
    3.1790   -7.5960   31.5140 N   0  0  0  0  0  0  0  0  0  0  0  0
    4.6320   -7.2670   31.4400 C   0  0  0  0  0  0  0  0  0  0  0  0
    5.6390   -7.7870   32.2480 C   0  0  0  0  0  0  0  0  0  0  0  0
    5.0460   -6.3700   30.4850 N   0  0  0  0  0  0  0  0  0  0  0  0
    5.8760   -5.1650   28.1920 C   0  0  0  0  0  0  0  0  0  0  0  0
    6.1840   -4.3920   26.9310 C   0  0  0  0  0  0  0  0  0  0  0  0
    7.3300   -3.2110   23.6160 C   0  0  0  0  0  0  0  0  0  0  0  0
    7.4400   -3.2190   22.3980 C   0  0  0  0  0  0  0  0  0  0  0  0
  1  2  1  0
  2  3  2  0
  2  4  1  0
  4  5  1  0
  5  6  1  0
  6  7  1  0
  7  8  1  0
  8  9  2  0
  8 10  1  0
 10 11  1  0
 11 12  1  0
 12 13  1  0
 13 14  1  0
 14 15  2  0
 15 16  1  0
 16 17  1  0
 16 18  2  0
 18 19  1  0
 19 20  1  0
 14 21  1  0
 19 21  2  0
 13 22  1  0
 10 23  1  0
 22 23  1  0
  7 24  1  0
  4 25  1  0
 24 25  1  0
M  END
