piperidine-amides-27381-covalent
     RDKit          3D

 26 29  0  0  0  0  0  0  0  0999 V2000
    7.0700   -3.3530   19.3440 C   0  0  0  0  0  0  0  0  0  0  0  0
    6.4200   -4.2100   20.3390 C   0  0  0  0  0  0  0  0  0  0  0  0
    5.3740   -4.8050   19.9720 O   0  0  0  0  0  0  0  0  0  0  0  0
    6.9810   -4.3790   21.6120 N   0  0  0  0  0  0  0  0  0  0  0  0
    6.6160   -5.4960   22.4490 C   0  0  0  0  0  0  0  0  0  0  0  0
    5.9050   -4.9520   23.6650 C   0  0  0  0  0  0  0  0  0  0  0  0
    6.6050   -3.7670   24.3010 C   0  0  0  0  0  0  0  0  0  0  0  0
    5.7690   -3.2240   25.4040 C   0  0  0  0  0  0  0  0  0  0  0  0
    5.1100   -2.1960   25.1810 O   0  0  0  0  0  0  0  0  0  0  0  0
    5.6280   -3.8090   26.6780 N   0  0  0  0  0  0  0  0  0  0  0  0
    4.4570   -4.4860   27.0580 C   0  0  0  0  0  0  0  0  0  0  0  0
    4.8340   -5.4340   28.1850 C   0  0  0  0  0  0  0  0  0  0  0  0
    5.5410   -5.0870   29.3010 C   0  0  0  0  0  0  0  0  0  0  0  0
    5.7380   -6.1670   30.1700 C   0  0  0  0  0  0  0  0  0  0  0  0
    4.8170   -6.5080   31.1580 C   0  0  0  0  0  0  0  0  0  0  0  0
    3.6910   -5.7540   31.3100 C   0  0  0  0  0  0  0  0  0  0  0  0
    2.5220   -6.1230   31.9920 C   0  0  0  0  0  0  0  0  0  0  0  0
    1.2410   -5.3340   32.1990 C   0  0  0  0  0  0  0  0  0  0  0  0
    1.3200   -3.9710   31.5470 C   0  0  0  0  0  0  0  0  0  0  0  0
    2.5360   -3.5320   30.8110 C   0  0  0  0  0  0  0  0  0  0  0  0
    3.7650   -4.3960   30.6580 C   0  0  0  0  0  0  0  0  0  0  0  0
    4.8230   -4.0990   30.0540 O   0  0  0  0  0  0  0  0  0  0  0  0
    6.6170   -4.6560   28.6060 C   0  0  0  0  0  0  0  0  0  0  0  0
    6.3320   -3.3770   27.8270 C   0  0  0  0  0  0  0  0  0  0  0  0
    6.8700   -2.6770   23.3140 C   0  0  0  0  0  0  0  0  0  0  0  0
    7.7260   -3.2900   22.2120 C   0  0  0  0  0  0  0  0  0  0  0  0
  1  2  1  0
  2  3  2  0
  2  4  1  0
  4  5  1  0
  5  6  1  0
  6  7  1  0
  7  8  1  0
  8  9  2  0
  8 10  1  0
 10 11  1  0
 11 12  1  0
 12 13  1  0
 13 14  1  0
 14 15  2  0
 15 16  1  0
 16 17  2  0
 17 18  1  0
 18 19  2  0
 19 20  1  0
 16 21  1  0
 20 21  2  0
 13 22  1  0
 21 22  1  0
 13 23  1  0
 10 24  1  0
 23 24  1  0
  7 25  1  0
  4 26  1  0
 25 26  1  0
M  END
