piperidine-amides-28902-covalent
     RDKit          3D

 22 24  0  0  0  0  0  0  0  0999 V2000
    6.9900   -3.3670   19.3730 C   0  0  0  0  0  0  0  0  0  0  0  0
    6.3280   -4.2340   20.3490 C   0  0  0  0  0  0  0  0  0  0  0  0
    5.3400   -4.8850   19.9760 O   0  0  0  0  0  0  0  0  0  0  0  0
    6.8260   -4.3580   21.6660 N   0  0  0  0  0  0  0  0  0  0  0  0
    6.6350   -5.5930   22.3790 C   0  0  0  0  0  0  0  0  0  0  0  0
    5.9460   -5.3300   23.6900 C   0  0  0  0  0  0  0  0  0  0  0  0
    5.9140   -3.8330   23.8480 C   0  0  0  0  0  0  0  0  0  0  0  0
    5.4910   -3.4030   25.2300 C   0  0  0  0  0  0  0  0  0  0  0  0
    4.9900   -2.2880   25.3080 O   0  0  0  0  0  0  0  0  0  0  0  0
    5.6750   -4.2580   26.3110 N   0  0  0  0  0  0  0  0  0  0  0  0
    6.9630   -4.5310   26.7800 C   0  0  0  0  0  0  0  0  0  0  0  0
    7.1460   -5.5560   27.7120 C   0  0  0  0  0  0  0  0  0  0  0  0
    6.3270   -5.4550   28.7810 C   0  0  0  0  0  0  0  0  0  0  0  0
    5.0810   -4.9220   28.5400 C   0  0  0  0  0  0  0  0  0  0  0  0
    4.1780   -5.0780   29.6900 C   0  0  0  0  0  0  0  0  0  0  0  0
    2.7380   -4.5520   29.6450 C   0  0  0  0  0  0  0  0  0  0  0  0
    2.2530   -3.8720   28.3990 C   0  0  0  0  0  0  0  0  0  0  0  0
    3.2190   -3.7370   27.2210 C   0  0  0  0  0  0  0  0  0  0  0  0
    2.5590   -2.8720   25.6370 Br  0  0  0  0  0  0  0  0  0  0  0  0
    4.6630   -4.3090   27.3780 C   0  0  0  0  0  0  0  0  0  0  0  0
    7.3120   -3.3360   23.6290 C   0  0  0  0  0  0  0  0  0  0  0  0
    7.5660   -3.2780   22.2820 C   0  0  0  0  0  0  0  0  0  0  0  0
  1  2  1  0
  2  3  2  0
  2  4  1  0
  4  5  1  0
  5  6  1  0
  6  7  1  0
  7  8  1  0
  8  9  2  0
  8 10  1  0
 10 11  1  0
 11 12  1  0
 12 13  1  0
 13 14  1  0
 14 15  2  0
 15 16  1  0
 16 17  2  0
 17 18  1  0
 18 19  1  0
 10 20  1  0
 14 20  1  0
 18 20  2  0
  7 21  1  0
  4 22  1  0
 21 22  1  0
M  END
