piperidine-amides-6256-covalent
     RDKit          3D

 26 28  0  0  0  0  0  0  0  0999 V2000
    7.0470   -3.3180   19.3390 C   0  0  0  0  0  0  0  0  0  0  0  0
    6.3790   -4.1690   20.3400 C   0  0  0  0  0  0  0  0  0  0  0  0
    5.4120   -4.8840   19.9940 O   0  0  0  0  0  0  0  0  0  0  0  0
    6.8360   -4.2100   21.6700 N   0  0  0  0  0  0  0  0  0  0  0  0
    7.6730   -3.1270   22.1610 C   0  0  0  0  0  0  0  0  0  0  0  0
    7.5060   -3.0370   23.6800 C   0  0  0  0  0  0  0  0  0  0  0  0
    6.1100   -3.5280   23.9710 C   0  0  0  0  0  0  0  0  0  0  0  0
    5.6460   -3.1080   25.3170 C   0  0  0  0  0  0  0  0  0  0  0  0
    4.4150   -2.9930   25.4990 O   0  0  0  0  0  0  0  0  0  0  0  0
    6.5760   -2.8620   26.3550 N   0  0  0  0  0  0  0  0  0  0  0  0
    6.5360   -1.6760   27.1830 C   0  0  0  0  0  0  0  0  0  0  0  0
    5.8770   -0.4800   26.5530 C   0  0  0  0  0  0  0  0  0  0  0  0
    5.7990    0.6810   27.2690 C   0  0  0  0  0  0  0  0  0  0  0  0
    6.3300    0.7120   28.5450 C   0  0  0  0  0  0  0  0  0  0  0  0
    6.9520   -0.3960   29.1500 C   0  0  0  0  0  0  0  0  0  0  0  0
    7.4770   -0.3240   30.4270 C   0  0  0  0  0  0  0  0  0  0  0  0
    6.3940    0.2160   31.7310 S   0  0  0  0  0  0  0  0  0  0  0  0
    7.2560    0.9510   33.1120 C   0  0  0  0  0  0  0  0  0  0  0  0
    8.0260    0.0300   34.0210 C   0  0  0  0  0  0  0  0  0  0  0  0
    8.8480    0.3750   35.2610 C   0  0  0  0  0  0  0  0  0  0  0  0
    8.6500    1.8640   35.2850 C   0  0  0  0  0  0  0  0  0  0  0  0
    7.9130    2.6730   34.4020 C   0  0  0  0  0  0  0  0  0  0  0  0
    7.2560    2.2190   33.3720 N   0  0  0  0  0  0  0  0  0  0  0  0
    7.0360   -1.5690   28.4420 C   0  0  0  0  0  0  0  0  0  0  0  0
    6.0450   -5.0330   23.8140 C   0  0  0  0  0  0  0  0  0  0  0  0
    6.6130   -5.4030   22.4590 C   0  0  0  0  0  0  0  0  0  0  0  0
  1  2  1  0
  2  3  2  0
  2  4  1  0
  4  5  1  0
  5  6  1  0
  6  7  1  0
  7  8  1  0
  8  9  2  0
  8 10  1  0
 10 11  1  0
 11 12  2  0
 12 13  1  0
 13 14  2  0
 14 15  1  0
 15 16  1  0
 16 17  1  0
 17 18  1  0
 18 19  2  0
 19 20  1  0
 20 21  2  0
 21 22  1  0
 18 23  1  0
 22 23  2  0
 11 24  1  0
 15 24  2  0
  7 25  1  0
  4 26  1  0
 25 26  1  0
M  END
