piperidine-amides-13695-covalent
     RDKit          3D

 27 28  0  0  0  0  0  0  0  0999 V2000
    7.1360   -3.2540   19.1900 C   0  0  0  0  0  0  0  0  0  0  0  0
    6.3390   -4.0050   20.1990 C   0  0  0  0  0  0  0  0  0  0  0  0
    5.2640   -4.5190   19.8660 O   0  0  0  0  0  0  0  0  0  0  0  0
    6.8570   -4.1550   21.4990 N   0  0  0  0  0  0  0  0  0  0  0  0
    6.5870   -5.3210   22.3060 C   0  0  0  0  0  0  0  0  0  0  0  0
    5.8730   -4.8230   23.5670 C   0  0  0  0  0  0  0  0  0  0  0  0
    6.7900   -3.8470   24.2380 C   0  0  0  0  0  0  0  0  0  0  0  0
    6.2570   -3.2910   25.4960 C   0  0  0  0  0  0  0  0  0  0  0  0
    5.2160   -2.6190   25.4230 O   0  0  0  0  0  0  0  0  0  0  0  0
    6.9510   -3.5440   26.6870 N   0  0  0  0  0  0  0  0  0  0  0  0
    7.4570   -4.8090   27.0850 C   0  0  1  0  0  0  0  0  0  0  0  0
    8.3200   -5.0380   28.1240 C   0  0  0  0  0  0  0  0  0  0  0  0
    6.2560   -5.7020   27.3960 C   0  0  0  0  0  0  0  0  0  0  0  0
    5.0660   -5.3810   28.0400 O   0  0  0  0  0  0  0  0  0  0  0  0
    4.0350   -4.6250   27.5000 C   0  0  0  0  0  0  0  0  0  0  0  0
    3.2700   -5.2390   26.3770 C   0  0  0  0  0  0  0  0  0  0  0  0
    3.3680   -4.6760   24.9360 C   0  0  0  0  0  0  0  0  0  0  0  0
    2.5410   -5.3820   23.8550 C   0  0  0  0  0  0  0  0  0  0  0  0
    1.7630   -6.4560   24.1950 C   0  0  0  0  0  0  0  0  0  0  0  0
    1.6260   -7.0360   25.5390 C   0  0  0  0  0  0  0  0  0  0  0  0
    0.8060   -8.1380   25.8240 O   0  0  0  0  0  0  0  0  0  0  0  0
    0.5770   -9.1560   24.8490 C   0  0  0  0  0  0  0  0  0  0  0  0
    0.7430  -10.4050   25.3830 F   0  0  0  0  0  0  0  0  0  0  0  0
   -0.7250   -9.0630   24.4270 F   0  0  0  0  0  0  0  0  0  0  0  0
    2.4460   -6.3290   26.5780 C   0  0  0  0  0  0  0  0  0  0  0  0
    7.1700   -2.6720   23.3990 C   0  0  0  0  0  0  0  0  0  0  0  0
    7.7040   -3.1200   22.0700 C   0  0  0  0  0  0  0  0  0  0  0  0
  1  2  1  0
  2  3  2  0
  2  4  1  0
  4  5  1  0
  5  6  1  0
  6  7  1  0
  7  8  1  0
  8  9  2  0
  8 10  1  0
 10 11  1  0
 11 12  1  1
 11 13  1  0
 13 14  1  0
 14 15  1  0
 15 16  1  0
 16 17  2  0
 17 18  1  0
 18 19  2  0
 19 20  1  0
 20 21  1  0
 21 22  1  0
 22 23  1  0
 22 24  1  0
 16 25  1  0
 20 25  2  0
  7 26  1  0
  4 27  1  0
 26 27  1  0
M  END
