piperidine-amides-34243-covalent
     RDKit          3D

 30 33  0  0  0  0  0  0  0  0999 V2000
    7.1120   -3.3140   19.2490 C   0  0  0  0  0  0  0  0  0  0  0  0
    6.3270   -4.0780   20.2290 C   0  0  0  0  0  0  0  0  0  0  0  0
    5.2540   -4.6170   19.9010 O   0  0  0  0  0  0  0  0  0  0  0  0
    6.8150   -4.2460   21.5200 N   0  0  0  0  0  0  0  0  0  0  0  0
    7.6560   -3.2100   22.0480 C   0  0  0  0  0  0  0  0  0  0  0  0
    6.8130   -2.5750   23.1270 C   0  0  0  0  0  0  0  0  0  0  0  0
    6.6530   -3.6870   24.1140 C   0  0  0  0  0  0  0  0  0  0  0  0
    6.0480   -3.1040   25.3200 C   0  0  0  0  0  0  0  0  0  0  0  0
    4.8000   -3.1440   25.4500 O   0  0  0  0  0  0  0  0  0  0  0  0
    6.9080   -2.4940   26.2840 N   0  0  0  0  0  0  0  0  0  0  0  0
    7.5790   -1.2570   25.9880 C   0  0  0  0  0  0  0  0  0  0  0  0
    8.3400   -1.3540   24.6810 C   0  0  0  0  0  0  0  0  0  0  0  0
    9.2150   -2.3560   24.2700 C   0  0  0  0  0  0  0  0  0  0  0  0
    9.8700   -2.3470   23.0430 C   0  0  0  0  0  0  0  0  0  0  0  0
    9.6940   -1.3300   22.1270 C   0  0  0  0  0  0  0  0  0  0  0  0
    8.8720   -0.3070   22.4060 C   0  0  0  0  0  0  0  0  0  0  0  0
    8.1200   -0.2100   23.6940 C   0  0  0  0  0  0  0  0  0  0  0  0
    6.5770   -2.3850   27.6800 C   0  0  0  0  0  0  0  0  0  0  0  0
    6.4790   -3.7330   28.2540 C   0  0  0  0  0  0  0  0  0  0  0  0
    5.2440   -4.1860   28.5950 N   0  0  0  0  0  0  0  0  0  0  0  0
    5.1970   -5.5050   29.1540 C   0  0  0  0  0  0  0  0  0  0  0  0
    4.1000   -6.0400   29.8330 C   0  0  0  0  0  0  0  0  0  0  0  0
    4.2310   -7.3160   30.3040 C   0  0  0  0  0  0  0  0  0  0  0  0
    5.9030   -7.8140   29.8170 S   0  0  0  0  0  0  0  0  0  0  0  0
    6.3850   -6.3940   29.0220 C   0  0  0  0  0  0  0  0  0  0  0  0
    7.5240   -5.7910   28.2960 C   0  0  0  0  0  0  0  0  0  0  0  0
    8.3000   -6.4670   27.6170 O   0  0  0  0  0  0  0  0  0  0  0  0
    7.6070   -4.4670   28.4390 N   0  0  0  0  0  0  0  0  0  0  0  0
    5.8440   -4.8460   23.5990 C   0  0  0  0  0  0  0  0  0  0  0  0
    6.2550   -5.2940   22.3510 C   0  0  0  0  0  0  0  0  0  0  0  0
  1  2  1  0
  2  3  2  0
  2  4  1  0
  4  5  1  0
  5  6  1  0
  6  7  1  0
  7  8  1  0
  8  9  2  0
  8 10  1  0
 10 11  1  0
 11 12  1  0
 12 13  2  0
 13 14  1  0
 14 15  2  0
 15 16  1  0
 12 17  1  0
 16 17  2  0
 10 18  1  0
 18 19  1  0
 19 20  2  0
 20 21  1  0
 21 22  1  0
 22 23  2  0
 23 24  1  0
 21 25  2  0
 24 25  1  0
 25 26  1  0
 26 27  2  0
 19 28  1  0
 26 28  1  0
  7 29  1  0
  4 30  1  0
 29 30  1  0
M  END
