piperidine-amides-24927-covalent
     RDKit          3D

 23 24  0  0  0  0  0  0  0  0999 V2000
    7.1050   -3.2660   19.2590 C   0  0  0  0  0  0  0  0  0  0  0  0
    6.3730   -4.0590   20.2580 C   0  0  0  0  0  0  0  0  0  0  0  0
    5.3380   -4.6850   19.9370 O   0  0  0  0  0  0  0  0  0  0  0  0
    6.8450   -4.1550   21.5780 N   0  0  0  0  0  0  0  0  0  0  0  0
    7.7300   -3.1390   22.1070 C   0  0  0  0  0  0  0  0  0  0  0  0
    7.0730   -2.6120   23.3790 C   0  0  0  0  0  0  0  0  0  0  0  0
    6.7470   -3.8180   24.2340 C   0  0  0  0  0  0  0  0  0  0  0  0
    6.0850   -3.3660   25.4740 C   0  0  0  0  0  0  0  0  0  0  0  0
    4.8480   -3.1470   25.4380 O   0  0  0  0  0  0  0  0  0  0  0  0
    6.8470   -3.1950   26.6680 N   0  0  0  0  0  0  0  0  0  0  0  0
    7.7660   -4.2380   27.0390 C   0  0  0  0  0  0  0  0  0  0  0  0
    6.9800   -5.5080   27.3290 C   0  0  0  0  0  0  0  0  0  0  0  0
    6.0500   -5.1990   28.3480 O   0  0  0  0  0  0  0  0  0  0  0  0
    6.1430   -2.6010   27.7810 C   0  0  0  0  0  0  0  0  0  0  0  0
    6.2460   -1.2590   28.0470 C   0  0  0  0  0  0  0  0  0  0  0  0
    6.0600   -0.2220   27.1910 C   0  0  0  0  0  0  0  0  0  0  0  0
    6.1920    1.0860   27.6010 C   0  0  0  0  0  0  0  0  0  0  0  0
    6.5360    1.8030   28.9270 C   0  0  0  0  0  0  0  0  0  0  0  0
    6.7120    0.5140   29.7560 C   0  0  0  0  0  0  0  0  0  0  0  0
    7.1360    0.7490   31.4580 Cl  0  0  0  0  0  0  0  0  0  0  0  0
    6.5650   -0.8960   29.2930 C   0  0  0  0  0  0  0  0  0  0  0  0
    5.8360   -4.7790   23.4950 C   0  0  0  0  0  0  0  0  0  0  0  0
    6.5440   -5.3030   22.4010 C   0  0  0  0  0  0  0  0  0  0  0  0
  1  2  1  0
  2  3  2  0
  2  4  1  0
  4  5  1  0
  5  6  1  0
  6  7  1  0
  7  8  1  0
  8  9  2  0
  8 10  1  0
 10 11  1  0
 11 12  1  0
 12 13  1  0
 10 14  1  0
 14 15  1  0
 15 16  2  0
 16 17  1  0
 17 18  2  0
 18 19  1  0
 19 20  1  0
 15 21  1  0
 19 21  2  0
  7 22  1  0
  4 23  1  0
 22 23  1  0
M  END
