piperidine-amides-3633-covalent
     RDKit          3D

 19 20  0  0  0  0  0  0  0  0999 V2000
    7.1070   -3.2640   19.2310 C   0  0  0  0  0  0  0  0  0  0  0  0
    6.3850   -4.0420   20.2560 C   0  0  0  0  0  0  0  0  0  0  0  0
    5.3100   -4.5770   19.9000 O   0  0  0  0  0  0  0  0  0  0  0  0
    6.9110   -4.2290   21.5630 N   0  0  0  0  0  0  0  0  0  0  0  0
    7.7380   -3.2130   22.1290 C   0  0  0  0  0  0  0  0  0  0  0  0
    7.3780   -2.9080   23.4970 C   0  0  0  0  0  0  0  0  0  0  0  0
    6.0750   -3.4810   23.8650 C   0  0  0  0  0  0  0  0  0  0  0  0
    5.5910   -3.0380   25.2090 C   0  0  0  0  0  0  0  0  0  0  0  0
    4.4640   -2.5230   25.2980 O   0  0  0  0  0  0  0  0  0  0  0  0
    6.3480   -3.1970   26.3770 N   0  0  0  0  0  0  0  0  0  0  0  0
    6.1100   -4.1560   27.3770 C   0  0  0  0  0  0  0  0  0  0  0  0
    5.7820   -5.5310   27.0160 C   0  0  0  0  0  0  0  0  0  0  0  0
    5.6140   -6.2800   28.3280 C   0  0  0  0  0  0  0  0  0  0  0  0
    4.5900   -7.1450   28.6880 C   0  0  0  0  0  0  0  0  0  0  0  0
    4.9350   -7.5840   30.1000 C   0  0  0  0  0  0  0  0  0  0  0  0
    6.1030   -7.0060   30.5340 O   0  0  0  0  0  0  0  0  0  0  0  0
    6.5340   -6.2100   29.4730 C   0  0  0  0  0  0  0  0  0  0  0  0
    6.0980   -5.0090   23.7410 C   0  0  0  0  0  0  0  0  0  0  0  0
    6.6310   -5.3970   22.3680 C   0  0  0  0  0  0  0  0  0  0  0  0
  1  2  1  0
  2  3  2  0
  2  4  1  0
  4  5  1  0
  5  6  1  0
  6  7  1  0
  7  8  1  0
  8  9  2  0
  8 10  1  0
 10 11  1  0
 11 12  1  0
 12 13  1  0
 13 14  1  0
 14 15  2  0
 15 16  1  0
 13 17  2  0
 16 17  1  0
  7 18  1  0
  4 19  1  0
 18 19  1  0
M  END
