piperidine-amides-33515-covalent
     RDKit          3D

 27 29  0  0  0  0  0  0  0  0999 V2000
    7.0520   -3.3390   19.2840 C   0  0  0  0  0  0  0  0  0  0  0  0
    6.3750   -4.1470   20.3130 C   0  0  0  0  0  0  0  0  0  0  0  0
    5.3460   -4.7660   19.9580 O   0  0  0  0  0  0  0  0  0  0  0  0
    6.8910   -4.2630   21.6270 N   0  0  0  0  0  0  0  0  0  0  0  0
    7.6220   -3.1770   22.1770 C   0  0  0  0  0  0  0  0  0  0  0  0
    7.6080   -3.1030   23.6310 C   0  0  0  0  0  0  0  0  0  0  0  0
    6.7280   -4.0640   24.3390 C   0  0  0  0  0  0  0  0  0  0  0  0
    5.8520   -3.3140   25.3000 C   0  0  0  0  0  0  0  0  0  0  0  0
    4.7610   -2.8620   24.8950 O   0  0  0  0  0  0  0  0  0  0  0  0
    6.2100   -3.1010   26.6500 N   0  0  0  0  0  0  0  0  0  0  0  0
    6.3170   -1.8150   27.2450 C   0  0  0  0  0  0  0  0  0  0  0  0
    5.6600   -0.5640   26.7710 C   0  0  0  0  0  0  0  0  0  0  0  0
    5.7290    0.8270   27.4000 C   0  0  0  0  0  0  0  0  0  0  0  0
    6.5050    0.6970   28.4770 C   0  0  0  0  0  0  0  0  0  0  0  0
    6.5320    2.1090   29.0630 C   0  0  0  0  0  0  0  0  0  0  0  0
    7.2480   -0.4510   29.1060 C   0  0  0  0  0  0  0  0  0  0  0  0
    7.2420   -1.8740   28.5330 C   0  0  0  0  0  0  0  0  0  0  0  0
    6.0010   -4.0190   27.7280 C   0  0  2  0  0  0  0  0  0  0  0  0
    5.6580   -5.2840   27.2050 O   0  0  0  0  0  0  0  0  0  0  0  0
    4.5120   -5.7040   27.8610 C   0  0  0  0  0  0  0  0  0  0  0  0
    3.7880   -6.8540   27.7040 O   0  0  0  0  0  0  0  0  0  0  0  0
    4.0780   -4.6610   28.8670 C   0  0  0  0  0  0  0  0  0  0  0  0
    2.6680   -4.7830   29.9260 Cl  0  0  0  0  0  0  0  0  0  0  0  0
    5.0320   -3.4980   28.8300 C   0  0  0  0  0  0  0  0  0  0  0  0
    4.9640   -2.0400   29.7880 Cl  0  0  0  0  0  0  0  0  0  0  0  0
    5.8620   -4.9320   23.4570 C   0  0  0  0  0  0  0  0  0  0  0  0
    6.6510   -5.4190   22.4320 C   0  0  0  0  0  0  0  0  0  0  0  0
  1  2  1  0
  2  3  2  0
  2  4  1  0
  4  5  1  0
  5  6  1  0
  6  7  1  0
  7  8  1  0
  8  9  2  0
  8 10  1  0
 10 11  1  0
 11 12  2  0
 12 13  1  0
 13 14  2  0
 14 15  1  0
 14 16  1  0
 11 17  1  0
 16 17  2  0
 18 10  1  6
 18 19  1  0
 19 20  1  0
 20 21  2  0
 20 22  1  0
 22 23  1  0
 18 24  1  0
 22 24  2  0
 24 25  1  0
  7 26  1  0
  4 27  1  0
 26 27  1  0
M  END
