piperidine-amides-12337-covalent
     RDKit          3D

 24 25  0  0  0  0  0  0  0  0999 V2000
    7.0300   -3.2250   19.0690 C   0  0  0  0  0  0  0  0  0  0  0  0
    6.1560   -3.9120   20.0140 C   0  0  0  0  0  0  0  0  0  0  0  0
    5.0520   -4.3000   19.7000 O   0  0  0  0  0  0  0  0  0  0  0  0
    6.5800   -4.1900   21.3260 N   0  0  0  0  0  0  0  0  0  0  0  0
    5.9420   -5.3050   21.9840 C   0  0  0  0  0  0  0  0  0  0  0  0
    4.9990   -4.8480   23.0750 C   0  0  0  0  0  0  0  0  0  0  0  0
    5.5710   -3.6160   23.7530 C   0  0  0  0  0  0  0  0  0  0  0  0
    4.5900   -3.0830   24.7370 C   0  0  0  0  0  0  0  0  0  0  0  0
    3.5120   -2.5660   24.4410 O   0  0  0  0  0  0  0  0  0  0  0  0
    4.9380   -3.1850   26.0810 N   0  0  0  0  0  0  0  0  0  0  0  0
    6.1550   -3.8530   26.2240 C   0  0  0  0  0  0  0  0  0  0  0  0
    7.0540   -3.2610   25.1530 C   0  0  0  0  0  0  0  0  0  0  0  0
    7.6990   -3.9100   24.0700 C   0  0  0  0  0  0  0  0  0  0  0  0
    7.5750   -5.2820   23.7730 C   0  0  0  0  0  0  0  0  0  0  0  0
    8.5250   -3.0030   23.2920 N   0  0  0  0  0  0  0  0  0  0  0  0
    8.3550   -1.8440   23.8850 N   0  0  0  0  0  0  0  0  0  0  0  0
    9.0550   -0.8880   23.2930 C   0  0  0  0  0  0  0  0  0  0  0  0
   10.5090   -1.0350   23.2580 C   0  0  0  0  0  0  0  0  0  0  0  0
   10.9620   -1.5820   24.3220 O   0  0  0  0  0  0  0  0  0  0  0  0
   12.1870   -2.2400   24.1540 C   0  0  0  0  0  0  0  0  0  0  0  0
    7.4630   -1.8950   25.0200 C   0  0  0  0  0  0  0  0  0  0  0  0
    6.9040   -1.0700   25.9920 C   0  0  0  0  0  0  0  0  0  0  0  0
    6.0620   -2.5850   22.8640 C   0  0  0  0  0  0  0  0  0  0  0  0
    7.0840   -3.1040   22.0980 C   0  0  0  0  0  0  0  0  0  0  0  0
  1  2  1  0
  2  3  2  0
  2  4  1  0
  4  5  1  0
  5  6  1  0
  6  7  1  0
  7  8  1  0
  8  9  2  0
  8 10  1  0
 10 11  1  0
 11 12  1  0
 12 13  1  0
 13 14  1  0
 13 15  2  0
 15 16  1  0
 16 17  1  0
 17 18  1  0
 18 19  1  0
 19 20  1  0
 12 21  2  0
 16 21  1  0
 21 22  1  0
  7 23  1  0
  4 24  1  0
 23 24  1  0
M  END
