piperidine-amides-6510-covalent
     RDKit          3D

 24 25  0  0  0  0  0  0  0  0999 V2000
    7.1440   -3.2450   19.1960 C   0  0  0  0  0  0  0  0  0  0  0  0
    6.3790   -3.9990   20.2000 C   0  0  0  0  0  0  0  0  0  0  0  0
    5.3090   -4.5660   19.8890 O   0  0  0  0  0  0  0  0  0  0  0  0
    6.8610   -4.1340   21.5020 N   0  0  0  0  0  0  0  0  0  0  0  0
    7.7600   -3.1340   22.0420 C   0  0  0  0  0  0  0  0  0  0  0  0
    7.1160   -2.5920   23.3110 C   0  0  0  0  0  0  0  0  0  0  0  0
    6.7520   -3.8030   24.1350 C   0  0  0  0  0  0  0  0  0  0  0  0
    6.1940   -3.3620   25.4260 C   0  0  0  0  0  0  0  0  0  0  0  0
    4.9640   -3.1220   25.5100 O   0  0  0  0  0  0  0  0  0  0  0  0
    7.0880   -3.2060   26.5190 N   0  0  0  0  0  0  0  0  0  0  0  0
    7.0110   -4.0630   27.6710 C   0  0  0  0  0  0  0  0  0  0  0  0
    6.9090   -5.5030   27.2170 C   0  0  1  0  0  0  0  0  0  0  0  0
    7.7100   -6.1940   28.1400 O   0  0  0  0  0  0  0  0  0  0  0  0
    5.6780   -6.1210   27.1000 C   0  0  0  0  0  0  0  0  0  0  0  0
    5.0230   -6.2390   25.9410 C   0  0  0  0  0  0  0  0  0  0  0  0
    3.8230   -6.8710   25.9080 C   0  0  0  0  0  0  0  0  0  0  0  0
    2.9330   -7.0540   24.3980 Cl  0  0  0  0  0  0  0  0  0  0  0  0
    3.3040   -7.3730   27.0680 C   0  0  0  0  0  0  0  0  0  0  0  0
    3.8290   -7.3740   28.5100 C   0  0  0  0  0  0  0  0  0  0  0  0
    5.1620   -6.6250   28.2790 C   0  0  0  0  0  0  0  0  0  0  0  0
    5.8770   -6.4550   29.3160 O   0  0  0  0  0  0  0  0  0  0  0  0
    5.8800   -7.4900   30.2790 C   0  0  0  0  0  0  0  0  0  0  0  0
    5.7710   -4.6630   23.3750 C   0  0  0  0  0  0  0  0  0  0  0  0
    6.4800   -5.2560   22.3210 C   0  0  0  0  0  0  0  0  0  0  0  0
  1  2  1  0
  2  3  2  0
  2  4  1  0
  4  5  1  0
  5  6  1  0
  6  7  1  0
  7  8  1  0
  8  9  2  0
  8 10  1  0
 10 11  1  0
 11 12  1  0
 12 13  1  1
 12 14  1  0
 14 15  2  0
 15 16  1  0
 16 17  1  0
 16 18  2  0
 18 19  1  0
 14 20  1  0
 19 20  2  0
 20 21  1  0
 21 22  1  0
  7 23  1  0
  4 24  1  0
 23 24  1  0
M  END
