piperidine-amides-11310-covalent
     RDKit          3D

 19 20  0  0  0  0  0  0  0  0999 V2000
    7.1180   -3.2730   19.1660 C   0  0  0  0  0  0  0  0  0  0  0  0
    6.3470   -3.9920   20.1830 C   0  0  0  0  0  0  0  0  0  0  0  0
    5.2810   -4.5470   19.8750 O   0  0  0  0  0  0  0  0  0  0  0  0
    6.8260   -4.0970   21.4900 N   0  0  0  0  0  0  0  0  0  0  0  0
    7.7330   -3.1080   22.0130 C   0  0  0  0  0  0  0  0  0  0  0  0
    7.1430   -2.7010   23.3170 C   0  0  0  0  0  0  0  0  0  0  0  0
    6.8060   -3.9010   24.1420 C   0  0  0  0  0  0  0  0  0  0  0  0
    6.3330   -3.4810   25.4640 C   0  0  0  0  0  0  0  0  0  0  0  0
    5.0920   -3.4110   25.7480 O   0  0  0  0  0  0  0  0  0  0  0  0
    7.2880   -3.1170   26.4340 N   0  0  0  0  0  0  0  0  0  0  0  0
    7.0040   -3.2000   27.8660 C   0  0  0  0  0  0  0  0  0  0  0  0
    6.8840   -4.6110   28.2780 C   0  0  0  0  0  0  0  0  0  0  0  0
    5.9120   -5.3030   29.0890 C   0  0  0  0  0  0  0  0  0  0  0  0
    6.2310   -6.7340   29.2330 N   0  0  0  0  0  0  0  0  0  0  0  0
    7.3680   -6.9430   28.5340 N   0  0  0  0  0  0  0  0  0  0  0  0
    7.7480   -5.7650   27.9800 C   0  0  0  0  0  0  0  0  0  0  0  0
    8.9580   -5.5580   27.1070 C   0  0  0  0  0  0  0  0  0  0  0  0
    5.8060   -4.7550   23.4350 C   0  0  0  0  0  0  0  0  0  0  0  0
    6.3500   -5.2090   22.2620 C   0  0  0  0  0  0  0  0  0  0  0  0
  1  2  1  0
  2  3  2  0
  2  4  1  0
  4  5  1  0
  5  6  1  0
  6  7  1  0
  7  8  1  0
  8  9  2  0
  8 10  1  0
 10 11  1  0
 11 12  1  0
 12 13  1  0
 13 14  2  0
 14 15  1  0
 12 16  2  0
 15 16  1  0
 16 17  1  0
  7 18  1  0
  4 19  1  0
 18 19  1  0
M  END
