piperidine-amides-11250-covalent
     RDKit          3D

 18 19  0  0  0  0  0  0  0  0999 V2000
    7.0840   -3.2890   19.2690 C   0  0  0  0  0  0  0  0  0  0  0  0
    6.3630   -4.0540   20.2930 C   0  0  0  0  0  0  0  0  0  0  0  0
    5.3650   -4.7140   19.9510 O   0  0  0  0  0  0  0  0  0  0  0  0
    6.8000   -4.0870   21.6330 N   0  0  0  0  0  0  0  0  0  0  0  0
    7.7400   -3.1130   22.1580 C   0  0  0  0  0  0  0  0  0  0  0  0
    7.4400   -2.9740   23.6240 C   0  0  0  0  0  0  0  0  0  0  0  0
    6.0820   -3.5040   23.9600 C   0  0  0  0  0  0  0  0  0  0  0  0
    5.6440   -3.2480   25.3580 C   0  0  0  0  0  0  0  0  0  0  0  0
    5.2030   -4.1930   26.0640 O   0  0  0  0  0  0  0  0  0  0  0  0
    5.6540   -1.9660   25.9650 N   0  0  0  0  0  0  0  0  0  0  0  0
    6.4840   -1.6770   27.1530 C   0  0  2  0  0  0  0  0  0  0  0  0
    6.2880   -2.6770   28.2340 C   0  0  0  0  0  0  0  0  0  0  0  0
    5.9070   -1.5970   29.0640 C   0  0  2  0  0  0  0  0  0  0  0  0
    4.5260   -1.6820   29.6580 C   0  0  0  0  0  0  0  0  0  0  0  0
    4.5860   -0.9340   30.9780 C   0  0  0  0  0  0  0  0  0  0  0  0
    5.9430   -0.4920   27.9800 C   0  0  0  0  0  0  0  0  0  0  0  0
    6.0400   -4.9880   23.6430 C   0  0  0  0  0  0  0  0  0  0  0  0
    6.5830   -5.3040   22.3870 C   0  0  0  0  0  0  0  0  0  0  0  0
  1  2  1  0
  2  3  2  0
  2  4  1  0
  4  5  1  0
  5  6  1  0
  6  7  1  0
  7  8  1  0
  8  9  2  0
  8 10  1  0
 11 10  1  6
 11 12  1  0
 12 13  1  0
 13 14  1  6
 14 15  1  0
 11 16  1  0
 13 16  1  0
  7 17  1  0
  4 18  1  0
 17 18  1  0
M  END
