piperidine-amides-27457-covalent
     RDKit          3D

 23 25  0  0  0  0  0  0  0  0999 V2000
    7.0490   -3.3490   19.3580 C   0  0  0  0  0  0  0  0  0  0  0  0
    6.3840   -4.1960   20.3530 C   0  0  0  0  0  0  0  0  0  0  0  0
    5.3480   -4.7960   19.9660 O   0  0  0  0  0  0  0  0  0  0  0  0
    6.9150   -4.3570   21.6420 N   0  0  0  0  0  0  0  0  0  0  0  0
    6.6920   -5.5510   22.4120 C   0  0  0  0  0  0  0  0  0  0  0  0
    5.9540   -5.1670   23.6630 C   0  0  0  0  0  0  0  0  0  0  0  0
    6.5860   -4.0050   24.3960 C   0  0  0  0  0  0  0  0  0  0  0  0
    5.7490   -3.6850   25.5960 C   0  0  0  0  0  0  0  0  0  0  0  0
    4.5300   -3.5330   25.3590 O   0  0  0  0  0  0  0  0  0  0  0  0
    6.1380   -3.4990   26.9700 N   0  0  0  0  0  0  0  0  0  0  0  0
    5.3420   -2.5610   27.6820 C   0  0  0  0  0  0  0  0  0  0  0  0
    4.1590   -3.3260   28.2490 C   0  0  0  0  0  0  0  0  0  0  0  0
    4.3260   -4.3620   29.0970 C   0  0  0  0  0  0  0  0  0  0  0  0
    3.4630   -4.8360   30.0690 C   0  0  0  0  0  0  0  0  0  0  0  0
    1.8900   -4.1310   30.3570 Cl  0  0  0  0  0  0  0  0  0  0  0  0
    3.8500   -5.9150   30.8720 C   0  0  0  0  0  0  0  0  0  0  0  0
    5.0960   -6.5250   30.7070 C   0  0  0  0  0  0  0  0  0  0  0  0
    5.5000   -7.8060   31.7940 Cl  0  0  0  0  0  0  0  0  0  0  0  0
    5.9620   -6.0910   29.7260 C   0  0  0  0  0  0  0  0  0  0  0  0
    5.5000   -4.9390   28.9070 C   0  0  0  0  0  0  0  0  0  0  0  0
    6.5070   -4.5430   27.9020 C   0  0  0  0  0  0  0  0  0  0  0  0
    6.7510   -2.8010   23.4560 C   0  0  0  0  0  0  0  0  0  0  0  0
    7.6240   -3.2630   22.3010 C   0  0  0  0  0  0  0  0  0  0  0  0
  1  2  1  0
  2  3  2  0
  2  4  1  0
  4  5  1  0
  5  6  1  0
  6  7  1  0
  7  8  1  0
  8  9  2  0
  8 10  1  0
 10 11  1  0
 11 12  1  0
 12 13  1  0
 13 14  2  0
 14 15  1  0
 14 16  1  0
 16 17  2  0
 17 18  1  0
 17 19  1  0
 13 20  1  0
 19 20  2  0
 10 21  1  0
 20 21  1  0
  7 22  1  0
  4 23  1  0
 22 23  1  0
M  END
