piperidine-amides-29908-covalent
     RDKit          3D

 27 29  0  0  0  0  0  0  0  0999 V2000
    7.1070   -3.3680   19.3360 C   0  0  0  0  0  0  0  0  0  0  0  0
    6.3850   -4.1950   20.2880 C   0  0  0  0  0  0  0  0  0  0  0  0
    5.3440   -4.7640   19.9590 O   0  0  0  0  0  0  0  0  0  0  0  0
    6.9370   -4.3870   21.5940 N   0  0  0  0  0  0  0  0  0  0  0  0
    7.6740   -3.3210   22.2220 C   0  0  0  0  0  0  0  0  0  0  0  0
    6.8810   -2.8050   23.3770 C   0  0  0  0  0  0  0  0  0  0  0  0
    6.6660   -3.9690   24.3230 C   0  0  0  0  0  0  0  0  0  0  0  0
    5.9340   -3.4970   25.5290 C   0  0  0  0  0  0  0  0  0  0  0  0
    4.9080   -2.7920   25.4600 O   0  0  0  0  0  0  0  0  0  0  0  0
    6.4350   -3.8860   26.7910 N   0  0  0  0  0  0  0  0  0  0  0  0
    7.0480   -5.1810   26.8310 C   0  0  0  0  0  0  0  0  0  0  0  0
    7.3310   -5.4920   28.2780 C   0  0  0  0  0  0  0  0  0  0  0  0
    6.2690   -5.5090   29.1430 C   0  0  0  0  0  0  0  0  0  0  0  0
    5.9710   -6.5030   30.0970 C   0  0  0  0  0  0  0  0  0  0  0  0
    4.8710   -6.4540   30.9530 C   0  0  0  0  0  0  0  0  0  0  0  0
    4.7340   -7.3920   31.7580 O   0  0  0  0  0  0  0  0  0  0  0  0
    4.0550   -7.4640   32.9560 C   0  0  0  0  0  0  0  0  0  0  0  0
    4.8980   -7.8420   33.9870 C   0  0  0  0  0  0  0  0  0  0  0  0
    4.3740   -8.2030   35.2070 C   0  0  0  0  0  0  0  0  0  0  0  0
    5.7580   -8.9810   33.4790 C   0  0  0  0  0  0  0  0  0  0  0  0
    5.9010   -6.7720   34.2570 C   0  0  0  0  0  0  0  0  0  0  0  0
    4.0250   -5.3550   30.8340 C   0  0  0  0  0  0  0  0  0  0  0  0
    4.2870   -4.3610   29.9020 C   0  0  0  0  0  0  0  0  0  0  0  0
    5.4540   -4.4100   29.0060 C   0  0  0  0  0  0  0  0  0  0  0  0
    5.8040   -3.3430   27.9530 C   0  0  0  0  0  0  0  0  0  0  0  0
    5.9600   -5.0990   23.6270 C   0  0  0  0  0  0  0  0  0  0  0  0
    6.6070   -5.5600   22.3620 C   0  0  0  0  0  0  0  0  0  0  0  0
  1  2  1  0
  2  3  2  0
  2  4  1  0
  4  5  1  0
  5  6  1  0
  6  7  1  0
  7  8  1  0
  8  9  2  0
  8 10  1  0
 10 11  1  0
 11 12  1  0
 12 13  1  0
 13 14  2  0
 14 15  1  0
 15 16  1  0
 16 17  1  0
 18 17  1  0
 18 19  1  0
 18 20  1  0
 18 21  1  0
 15 22  2  0
 22 23  1  0
 13 24  1  0
 23 24  2  0
 10 25  1  0
 24 25  1  0
  7 26  1  0
  4 27  1  0
 26 27  1  0
M  END
