piperidine-amides-4568-covalent
     RDKit          3D

 25 26  0  0  0  0  0  0  0  0999 V2000
    7.1310   -3.2890   19.2800 C   0  0  0  0  0  0  0  0  0  0  0  0
    6.3520   -4.0400   20.2940 C   0  0  0  0  0  0  0  0  0  0  0  0
    5.2900   -4.5630   19.8930 O   0  0  0  0  0  0  0  0  0  0  0  0
    6.8160   -4.1910   21.6140 N   0  0  0  0  0  0  0  0  0  0  0  0
    7.6530   -3.1940   22.1960 C   0  0  0  0  0  0  0  0  0  0  0  0
    7.3220   -2.9590   23.5900 C   0  0  0  0  0  0  0  0  0  0  0  0
    6.0320   -3.5780   23.9520 C   0  0  0  0  0  0  0  0  0  0  0  0
    5.6130   -3.2620   25.3400 C   0  0  0  0  0  0  0  0  0  0  0  0
    4.4040   -3.3680   25.6090 O   0  0  0  0  0  0  0  0  0  0  0  0
    6.5200   -2.8480   26.3340 N   0  0  0  0  0  0  0  0  0  0  0  0
    6.6370   -1.4360   26.7610 C   0  0  0  0  0  0  0  0  0  0  0  0
    5.9190   -1.1750   28.0420 C   0  0  0  0  0  0  0  0  0  0  0  0
    5.1480   -2.2290   28.6690 C   0  0  0  0  0  0  0  0  0  0  0  0
    4.4250   -2.1620   29.8420 C   0  0  0  0  0  0  0  0  0  0  0  0
    4.5120   -0.8780   30.4220 N   0  0  0  0  0  0  0  0  0  0  0  0
    5.2680    0.2270   29.8500 C   0  0  0  0  0  0  0  0  0  0  0  0
    5.3170    1.4020   30.4250 O   0  0  0  0  0  0  0  0  0  0  0  0
    5.3950    1.6750   31.7810 C   0  0  0  0  0  0  0  0  0  0  0  0
    4.7210    2.7950   32.1730 C   0  0  0  0  0  0  0  0  0  0  0  0
    4.0730    3.5910   31.2130 F   0  0  0  0  0  0  0  0  0  0  0  0
    3.7470    2.3820   33.0400 F   0  0  0  0  0  0  0  0  0  0  0  0
    5.6340    3.6380   32.7520 F   0  0  0  0  0  0  0  0  0  0  0  0
    5.9570    0.0660   28.6770 C   0  0  0  0  0  0  0  0  0  0  0  0
    6.0310   -5.0680   23.6900 C   0  0  0  0  0  0  0  0  0  0  0  0
    6.6440   -5.4190   22.3690 C   0  0  0  0  0  0  0  0  0  0  0  0
  1  2  1  0
  2  3  2  0
  2  4  1  0
  4  5  1  0
  5  6  1  0
  6  7  1  0
  7  8  1  0
  8  9  2  0
  8 10  1  0
 10 11  1  0
 11 12  1  0
 12 13  2  0
 13 14  1  0
 14 15  2  0
 15 16  1  0
 16 17  1  0
 17 18  1  0
 18 19  1  0
 19 20  1  0
 19 21  1  0
 19 22  1  0
 12 23  1  0
 16 23  2  0
  7 24  1  0
  4 25  1  0
 24 25  1  0
M  END
