piperidine-amides-23416-covalent
     RDKit          3D

 24 26  0  0  0  0  0  0  0  0999 V2000
    7.0450   -3.3700   19.3970 C   0  0  0  0  0  0  0  0  0  0  0  0
    6.4250   -4.2520   20.4030 C   0  0  0  0  0  0  0  0  0  0  0  0
    5.4330   -4.9200   20.0070 O   0  0  0  0  0  0  0  0  0  0  0  0
    6.9510   -4.3730   21.7260 N   0  0  0  0  0  0  0  0  0  0  0  0
    6.6700   -5.5630   22.4720 C   0  0  0  0  0  0  0  0  0  0  0  0
    6.1060   -5.2630   23.7800 C   0  0  0  0  0  0  0  0  0  0  0  0
    6.0680   -3.8140   23.9750 C   0  0  0  0  0  0  0  0  0  0  0  0
    5.4020   -3.3190   25.2450 C   0  0  0  0  0  0  0  0  0  0  0  0
    4.6070   -2.3800   25.1170 O   0  0  0  0  0  0  0  0  0  0  0  0
    5.5680   -3.8270   26.5580 N   0  0  0  0  0  0  0  0  0  0  0  0
    4.6200   -4.5760   27.2750 C   0  0  0  0  0  0  0  0  0  0  0  0
    4.7210   -4.7150   28.7250 C   0  0  0  0  0  0  0  0  0  0  0  0
    5.6570   -4.0700   29.2640 O   0  0  0  0  0  0  0  0  0  0  0  0
    6.7210   -4.0600   28.4360 C   0  0  0  0  0  0  0  0  0  0  0  0
    6.4680   -3.1610   27.4110 C   0  0  2  0  0  0  0  0  0  0  0  0
    5.8600   -2.2200   28.4710 C   0  0  0  0  0  0  0  0  0  0  0  0
    5.0520   -1.5030   27.4410 C   0  0  0  0  0  0  0  0  0  0  0  0
    6.1500   -0.8220   26.6500 C   0  0  0  0  0  0  0  0  0  0  0  0
    5.8510    0.0460   25.4730 C   0  0  0  0  0  0  0  0  0  0  0  0
    4.3700    0.1920   25.1310 C   0  0  0  0  0  0  0  0  0  0  0  0
    3.2680   -0.5280   25.9750 C   0  0  0  0  0  0  0  0  0  0  0  0
    3.7260   -1.3650   27.1290 C   0  0  0  0  0  0  0  0  0  0  0  0
    7.3840   -3.1820   23.6710 C   0  0  0  0  0  0  0  0  0  0  0  0
    7.7070   -3.2750   22.3180 C   0  0  0  0  0  0  0  0  0  0  0  0
  1  2  1  0
  2  3  2  0
  2  4  1  0
  4  5  1  0
  5  6  1  0
  6  7  1  0
  7  8  1  0
  8  9  2  0
  8 10  1  0
 10 11  1  0
 11 12  1  0
 12 13  1  0
 13 14  1  0
 10 15  1  0
 14 15  1  0
 15 16  1  1
 16 17  1  0
 17 18  2  0
 18 19  1  0
 19 20  2  0
 20 21  1  0
 17 22  1  0
 21 22  2  0
  7 23  1  0
  4 24  1  0
 23 24  1  0
M  END
