piperidine-amides-1814-covalent
     RDKit          3D

 19 20  0  0  0  0  0  0  0  0999 V2000
    7.0420   -3.3400   19.3300 C   0  0  0  0  0  0  0  0  0  0  0  0
    6.3680   -4.1850   20.3500 C   0  0  0  0  0  0  0  0  0  0  0  0
    5.3860   -4.8260   19.9770 O   0  0  0  0  0  0  0  0  0  0  0  0
    6.8740   -4.2590   21.6530 N   0  0  0  0  0  0  0  0  0  0  0  0
    7.6970   -3.2120   22.2260 C   0  0  0  0  0  0  0  0  0  0  0  0
    7.3610   -3.0040   23.6770 C   0  0  0  0  0  0  0  0  0  0  0  0
    6.0260   -3.6720   23.9940 C   0  0  0  0  0  0  0  0  0  0  0  0
    5.6160   -3.2780   25.3630 C   0  0  0  0  0  0  0  0  0  0  0  0
    4.4120   -3.2740   25.6600 O   0  0  0  0  0  0  0  0  0  0  0  0
    6.5670   -2.8920   26.3250 N   0  0  0  0  0  0  0  0  0  0  0  0
    6.4440   -1.5980   26.9630 C   0  0  0  0  0  0  0  0  0  0  0  0
    6.9960   -1.5570   28.3540 C   0  0  0  0  0  0  0  0  0  0  0  0
    7.0330   -0.5040   29.2160 C   0  0  0  0  0  0  0  0  0  0  0  0
    6.4990    0.6820   28.7740 C   0  0  0  0  0  0  0  0  0  0  0  0
    5.9640    0.7450   27.4990 C   0  0  0  0  0  0  0  0  0  0  0  0
    5.9170   -0.4190   26.5260 C   0  0  0  0  0  0  0  0  0  0  0  0
    5.3570   -0.2320   25.2850 O   0  0  0  0  0  0  0  0  0  0  0  0
    6.0790   -5.1470   23.7600 C   0  0  0  0  0  0  0  0  0  0  0  0
    6.6610   -5.4730   22.4180 C   0  0  0  0  0  0  0  0  0  0  0  0
  1  2  1  0
  2  3  2  0
  2  4  1  0
  4  5  1  0
  5  6  1  0
  6  7  1  0
  7  8  1  0
  8  9  2  0
  8 10  1  0
 10 11  1  0
 11 12  2  0
 12 13  1  0
 13 14  2  0
 14 15  1  0
 11 16  1  0
 15 16  2  0
 16 17  1  0
  7 18  1  0
  4 19  1  0
 18 19  1  0
M  END
