piperidine-amides-27633-covalent
     RDKit          3D

 26 29  0  0  0  0  0  0  0  0999 V2000
    6.9800   -3.3800   19.4580 C   0  0  0  0  0  0  0  0  0  0  0  0
    6.3630   -4.2720   20.4500 C   0  0  0  0  0  0  0  0  0  0  0  0
    5.4180   -4.9840   20.0090 O   0  0  0  0  0  0  0  0  0  0  0  0
    6.8190   -4.3470   21.7840 N   0  0  0  0  0  0  0  0  0  0  0  0
    6.5890   -5.5290   22.5890 C   0  0  0  0  0  0  0  0  0  0  0  0
    5.9750   -5.1220   23.9170 C   0  0  0  0  0  0  0  0  0  0  0  0
    5.8250   -3.6230   24.0220 C   0  0  0  0  0  0  0  0  0  0  0  0
    5.1590   -3.1190   25.2930 C   0  0  0  0  0  0  0  0  0  0  0  0
    4.5880   -2.0210   25.2040 O   0  0  0  0  0  0  0  0  0  0  0  0
    5.1220   -3.7580   26.5690 N   0  0  0  0  0  0  0  0  0  0  0  0
    6.3140   -4.3220   26.9220 C   0  0  0  0  0  0  0  0  0  0  0  0
    6.3530   -4.3150   28.3890 C   0  0  0  0  0  0  0  0  0  0  0  0
    5.2460   -3.7030   28.8060 C   0  0  0  0  0  0  0  0  0  0  0  0
    4.3980   -3.2650   27.7680 C   0  0  2  0  0  0  0  0  0  0  0  0
    3.0930   -3.7480   27.7970 C   0  0  0  0  0  0  0  0  0  0  0  0
    2.3020   -2.9770   26.9710 O   0  0  0  0  0  0  0  0  0  0  0  0
    3.0930   -5.1480   27.5510 C   0  0  0  0  0  0  0  0  0  0  0  0
    2.7440   -5.8670   28.6720 C   0  0  0  0  0  0  0  0  0  0  0  0
    2.6850   -7.3790   28.8460 C   0  0  0  0  0  0  0  0  0  0  0  0
    2.2440   -7.7630   30.2660 C   0  0  0  0  0  0  0  0  0  0  0  0
    1.9180   -6.7450   31.3300 C   0  0  0  0  0  0  0  0  0  0  0  0
    2.0440   -5.2940   30.9440 C   0  0  0  0  0  0  0  0  0  0  0  0
    2.4410   -4.9980   29.6650 C   0  0  0  0  0  0  0  0  0  0  0  0
    2.6150   -3.6140   29.1280 C   0  0  0  0  0  0  0  0  0  0  0  0
    7.1600   -2.9750   23.7810 C   0  0  0  0  0  0  0  0  0  0  0  0
    7.6170   -3.2520   22.3340 C   0  0  0  0  0  0  0  0  0  0  0  0
  1  2  1  0
  2  3  2  0
  2  4  1  0
  4  5  1  0
  5  6  1  0
  6  7  1  0
  7  8  1  0
  8  9  2  0
  8 10  1  0
 10 11  1  0
 11 12  1  0
 12 13  1  0
 10 14  1  0
 13 14  1  0
 14 15  1  1
 15 16  1  0
 15 17  1  0
 17 18  1  0
 18 19  1  0
 19 20  2  0
 20 21  1  0
 21 22  2  0
 18 23  2  0
 22 23  1  0
 15 24  1  0
 23 24  1  0
  7 25  1  0
  4 26  1  0
 25 26  1  0
M  END
