piperidine-amides-27903-covalent
     RDKit          3D

 26 28  0  0  0  0  0  0  0  0999 V2000
    7.0160   -3.3650   19.4310 C   0  0  0  0  0  0  0  0  0  0  0  0
    6.4020   -4.2640   20.4370 C   0  0  0  0  0  0  0  0  0  0  0  0
    5.4450   -4.9520   20.0150 O   0  0  0  0  0  0  0  0  0  0  0  0
    6.8970   -4.3640   21.7650 N   0  0  0  0  0  0  0  0  0  0  0  0
    6.6550   -5.5480   22.5340 C   0  0  0  0  0  0  0  0  0  0  0  0
    6.1210   -5.2590   23.8720 C   0  0  0  0  0  0  0  0  0  0  0  0
    5.9640   -3.8120   24.0870 C   0  0  0  0  0  0  0  0  0  0  0  0
    5.2300   -3.4020   25.3450 C   0  0  0  0  0  0  0  0  0  0  0  0
    4.1530   -2.8260   25.1360 O   0  0  0  0  0  0  0  0  0  0  0  0
    5.5930   -3.5800   26.7110 N   0  0  0  0  0  0  0  0  0  0  0  0
    5.5310   -2.4380   27.6330 C   0  0  0  0  0  0  0  0  0  0  0  0
    5.3130   -2.8930   29.0300 C   0  0  0  0  0  0  0  0  0  0  0  0
    5.5870   -4.2680   29.3730 C   0  0  0  0  0  0  0  0  0  0  0  0
    5.5600   -5.2030   28.4160 C   0  0  2  0  0  0  0  0  0  0  0  0
    6.1050   -6.3890   28.8420 C   0  0  0  0  0  0  0  0  0  0  0  0
    7.3760   -6.5170   28.7840 O   0  0  0  0  0  0  0  0  0  0  0  0
    5.4230   -7.5030   29.3930 N   0  0  0  0  0  0  0  0  0  0  0  0
    5.0410   -7.5230   30.6880 C   0  0  0  0  0  0  0  0  0  0  0  0
    3.7290   -7.8850   30.7990 C   0  0  0  0  0  0  0  0  0  0  0  0
    3.1230   -7.9760   32.0140 C   0  0  0  0  0  0  0  0  0  0  0  0
    3.8390   -7.6980   33.1730 C   0  0  0  0  0  0  0  0  0  0  0  0
    5.2530   -7.3080   33.0390 C   0  0  0  0  0  0  0  0  0  0  0  0
    5.8360   -7.2210   31.8530 N   0  0  0  0  0  0  0  0  0  0  0  0
    6.1210   -4.7040   27.3110 C   0  0  0  0  0  0  0  0  0  0  0  0
    7.2840   -3.1030   23.7560 C   0  0  0  0  0  0  0  0  0  0  0  0
    7.6800   -3.2970   22.3970 C   0  0  0  0  0  0  0  0  0  0  0  0
  1  2  1  0
  2  3  2  0
  2  4  1  0
  4  5  1  0
  5  6  1  0
  6  7  1  0
  7  8  1  0
  8  9  2  0
  8 10  1  0
 10 11  1  0
 11 12  1  0
 12 13  1  0
 13 14  1  0
 14 15  1  1
 15 16  2  0
 15 17  1  0
 17 18  1  0
 18 19  2  0
 19 20  1  0
 20 21  2  0
 21 22  1  0
 18 23  1  0
 22 23  2  0
 10 24  1  0
 14 24  1  0
  7 25  1  0
  4 26  1  0
 25 26  1  0
M  END
