piperidine-amides-23571-covalent
     RDKit          3D

 24 26  0  0  0  0  0  0  0  0999 V2000
    7.0850   -3.3660   19.3410 C   0  0  0  0  0  0  0  0  0  0  0  0
    6.3860   -4.1860   20.3370 C   0  0  0  0  0  0  0  0  0  0  0  0
    5.3420   -4.7720   19.9610 O   0  0  0  0  0  0  0  0  0  0  0  0
    6.9120   -4.3460   21.6440 N   0  0  0  0  0  0  0  0  0  0  0  0
    6.5090   -5.4480   22.4310 C   0  0  0  0  0  0  0  0  0  0  0  0
    6.4510   -5.1940   23.8760 C   0  0  0  0  0  0  0  0  0  0  0  0
    6.6860   -3.8020   24.3710 C   0  0  0  0  0  0  0  0  0  0  0  0
    5.7250   -3.4770   25.4990 C   0  0  0  0  0  0  0  0  0  0  0  0
    4.5470   -3.2250   25.1830 O   0  0  0  0  0  0  0  0  0  0  0  0
    6.0510   -3.4160   26.8950 N   0  0  0  0  0  0  0  0  0  0  0  0
    6.4900   -4.3610   27.7590 C   0  0  0  0  0  0  0  0  0  0  0  0
    5.7060   -4.2890   28.8950 C   0  0  0  0  0  0  0  0  0  0  0  0
    4.2650   -3.9310   28.4390 C   0  0  2  0  0  0  0  0  0  0  0  0
    3.8500   -5.0600   27.7660 O   0  0  0  0  0  0  0  0  0  0  0  0
    3.0930   -5.8660   28.6210 C   0  0  0  0  0  0  0  0  0  0  0  0
    2.8800   -5.2950   30.0270 C   0  0  0  0  0  0  0  0  0  0  0  0
    2.0560   -6.2200   30.8820 C   0  0  0  0  0  0  0  0  0  0  0  0
    1.6400   -7.4930   30.1190 C   0  0  0  0  0  0  0  0  0  0  0  0
    1.8830   -7.9460   28.7980 N   0  0  0  0  0  0  0  0  0  0  0  0
    2.6590   -7.0470   28.0650 C   0  0  0  0  0  0  0  0  0  0  0  0
    3.0450   -7.3510   26.6250 C   0  0  0  0  0  0  0  0  0  0  0  0
    5.0710   -2.8010   27.7270 C   0  0  0  0  0  0  0  0  0  0  0  0
    6.6490   -2.8040   23.2610 C   0  0  0  0  0  0  0  0  0  0  0  0
    7.5740   -3.2580   22.3240 C   0  0  0  0  0  0  0  0  0  0  0  0
  1  2  1  0
  2  3  2  0
  2  4  1  0
  4  5  1  0
  5  6  1  0
  6  7  1  0
  7  8  1  0
  8  9  2  0
  8 10  1  0
 10 11  1  0
 11 12  1  0
 12 13  1  0
 13 14  1  6
 14 15  1  0
 15 16  2  0
 16 17  1  0
 17 18  2  0
 18 19  1  0
 15 20  1  0
 19 20  2  0
 20 21  1  0
 10 22  1  0
 13 22  1  0
  7 23  1  0
  4 24  1  0
 23 24  1  0
M  END
