piperidine-amides-11587-covalent
     RDKit          3D

 19 20  0  0  0  0  0  0  0  0999 V2000
    7.0870   -3.3290   19.2790 C   0  0  0  0  0  0  0  0  0  0  0  0
    6.3840   -4.1380   20.2670 C   0  0  0  0  0  0  0  0  0  0  0  0
    5.3440   -4.7340   19.9490 O   0  0  0  0  0  0  0  0  0  0  0  0
    6.8960   -4.3020   21.5590 N   0  0  0  0  0  0  0  0  0  0  0  0
    7.7210   -3.3030   22.2070 C   0  0  0  0  0  0  0  0  0  0  0  0
    6.8990   -2.7970   23.3540 C   0  0  0  0  0  0  0  0  0  0  0  0
    6.4550   -3.9270   24.2240 C   0  0  0  0  0  0  0  0  0  0  0  0
    5.6700   -3.4640   25.3890 C   0  0  0  0  0  0  0  0  0  0  0  0
    4.4040   -3.4510   25.3460 O   0  0  0  0  0  0  0  0  0  0  0  0
    6.2650   -3.0050   26.5820 N   0  0  0  0  0  0  0  0  0  0  0  0
    6.6530   -1.5850   26.6840 C   0  0  2  0  0  0  0  0  0  0  0  0
    6.7870   -1.2290   27.9690 C   0  0  0  0  0  0  0  0  0  0  0  0
    5.6050   -0.5340   27.3280 C   0  0  1  0  0  0  0  0  0  0  0  0
    5.7260    0.5150   26.2460 C   0  0  0  0  0  0  0  0  0  0  0  0
    5.4830    1.8550   26.9200 C   0  0  0  0  0  0  0  0  0  0  0  0
    6.6960    2.6840   26.6890 C   0  0  0  0  0  0  0  0  0  0  0  0
    4.3050    2.6850   26.3850 C   0  0  0  0  0  0  0  0  0  0  0  0
    5.6610   -4.9550   23.4560 C   0  0  0  0  0  0  0  0  0  0  0  0
    6.5300   -5.4660   22.3300 C   0  0  0  0  0  0  0  0  0  0  0  0
  1  2  1  0
  2  3  2  0
  2  4  1  0
  4  5  1  0
  5  6  1  0
  6  7  1  0
  7  8  1  0
  8  9  2  0
  8 10  1  0
 11 10  1  1
 11 12  1  0
 11 13  1  0
 12 13  1  0
 13 14  1  6
 14 15  1  0
 15 16  1  0
 15 17  1  0
  7 18  1  0
  4 19  1  0
 18 19  1  0
M  END
