piperidine-amides-30861-covalent
     RDKit          3D

 27 28  0  0  0  0  0  0  0  0999 V2000
    7.1650   -3.2790   19.1450 C   0  0  0  0  0  0  0  0  0  0  0  0
    6.4050   -4.0210   20.1510 C   0  0  0  0  0  0  0  0  0  0  0  0
    5.2970   -4.4970   19.8650 O   0  0  0  0  0  0  0  0  0  0  0  0
    6.9580   -4.2530   21.4100 N   0  0  0  0  0  0  0  0  0  0  0  0
    7.7000   -3.2260   22.0810 C   0  0  0  0  0  0  0  0  0  0  0  0
    6.7850   -2.8510   23.1910 C   0  0  0  0  0  0  0  0  0  0  0  0
    6.4600   -4.0450   24.0400 C   0  0  0  0  0  0  0  0  0  0  0  0
    5.7640   -3.6390   25.2590 C   0  0  0  0  0  0  0  0  0  0  0  0
    4.5000   -3.5680   25.3490 O   0  0  0  0  0  0  0  0  0  0  0  0
    6.5120   -3.3380   26.3800 N   0  0  0  0  0  0  0  0  0  0  0  0
    6.9590   -1.9300   26.5630 C   0  0  0  0  0  0  0  0  0  0  0  0
    5.9140   -0.9820   26.0660 C   0  0  0  0  0  0  0  0  0  0  0  0
    5.0720   -1.2930   24.8930 C   0  0  0  0  0  0  0  0  0  0  0  0
    4.0370   -0.2970   24.4410 C   0  0  0  0  0  0  0  0  0  0  0  0
    3.8690    1.0110   25.1890 C   0  0  0  0  0  0  0  0  0  0  0  0
    4.8050    1.1450   26.3380 C   0  0  0  0  0  0  0  0  0  0  0  0
    5.7370    0.2090   26.7170 C   0  0  0  0  0  0  0  0  0  0  0  0
    7.1830   -4.4170   27.0170 C   0  0  1  0  0  0  0  0  0  0  0  0
    6.2860   -5.6080   27.2630 C   0  0  0  0  0  0  0  0  0  0  0  0
    8.3900   -4.9550   26.3460 C   0  0  0  0  0  0  0  0  0  0  0  0
    9.5700   -5.5150   25.7790 N   0  0  0  0  0  0  0  0  0  0  0  0
    7.7150   -3.9880   28.2960 C   0  0  0  0  0  0  0  0  0  0  0  0
    8.0390   -2.6850   28.4600 F   0  0  0  0  0  0  0  0  0  0  0  0
    8.6770   -4.7400   28.7600 F   0  0  0  0  0  0  0  0  0  0  0  0
    6.5820   -4.1900   29.1590 F   0  0  0  0  0  0  0  0  0  0  0  0
    5.7350   -5.1100   23.2710 C   0  0  0  0  0  0  0  0  0  0  0  0
    6.5410   -5.4440   22.0770 C   0  0  0  0  0  0  0  0  0  0  0  0
  1  2  1  0
  2  3  2  0
  2  4  1  0
  4  5  1  0
  5  6  1  0
  6  7  1  0
  7  8  1  0
  8  9  2  0
  8 10  1  0
 10 11  1  0
 11 12  1  0
 12 13  2  0
 13 14  1  0
 14 15  2  0
 15 16  1  0
 12 17  1  0
 16 17  2  0
 10 18  1  0
 18 19  1  1
 18 20  1  0
 20 21  3  0
 18 22  1  0
 22 23  1  0
 22 24  1  0
 22 25  1  0
  7 26  1  0
  4 27  1  0
 26 27  1  0
M  END
