piperidine-amides-8591-covalent
     RDKit          3D

 23 25  0  0  0  0  0  0  0  0999 V2000
    7.0500   -3.3660   19.3940 C   0  0  0  0  0  0  0  0  0  0  0  0
    6.3630   -4.1880   20.3840 C   0  0  0  0  0  0  0  0  0  0  0  0
    5.3910   -4.8600   19.9920 O   0  0  0  0  0  0  0  0  0  0  0  0
    6.8280   -4.2490   21.7320 N   0  0  0  0  0  0  0  0  0  0  0  0
    7.6000   -3.1540   22.2710 C   0  0  0  0  0  0  0  0  0  0  0  0
    7.4700   -3.1030   23.7790 C   0  0  0  0  0  0  0  0  0  0  0  0
    6.0950   -3.6450   24.0980 C   0  0  0  0  0  0  0  0  0  0  0  0
    5.5710   -3.3390   25.4910 C   0  0  0  0  0  0  0  0  0  0  0  0
    4.3600   -3.5080   25.6020 O   0  0  0  0  0  0  0  0  0  0  0  0
    6.3890   -2.8970   26.5500 N   0  0  0  0  0  0  0  0  0  0  0  0
    6.8290   -1.5340   26.6960 C   0  0  2  0  0  0  0  0  0  0  0  0
    6.8820   -0.9040   27.9490 C   0  0  0  0  0  0  0  0  0  0  0  0
    6.0890    0.1010   27.5150 C   0  0  0  0  0  0  0  0  0  0  0  0
    5.7810    1.1500   28.4700 C   0  0  0  0  0  0  0  0  0  0  0  0
    6.4540    0.8850   29.8240 C   0  0  0  0  0  0  0  0  0  0  0  0
    7.2460   -0.4120   29.7520 C   0  0  0  0  0  0  0  0  0  0  0  0
    7.7230   -0.1470   31.4300 Cl  0  0  0  0  0  0  0  0  0  0  0  0
    6.4740    0.1620   28.6770 C   0  0  0  0  0  0  0  0  0  0  0  0
    5.7550    0.4750   27.3060 C   0  0  0  0  0  0  0  0  0  0  0  0
    5.9010   -0.5850   26.1720 C   0  0  2  0  0  0  0  0  0  0  0  0
    4.6960   -0.9940   25.6340 C   0  0  0  0  0  0  0  0  0  0  0  0
    6.1700   -5.1300   23.9000 C   0  0  0  0  0  0  0  0  0  0  0  0
    6.5280   -5.4510   22.4690 C   0  0  0  0  0  0  0  0  0  0  0  0
  1  2  1  0
  2  3  2  0
  2  4  1  0
  4  5  1  0
  5  6  1  0
  6  7  1  0
  7  8  1  0
  8  9  2  0
  8 10  1  0
 11 10  1  1
 11 12  1  0
 12 13  2  0
 13 14  1  0
 14 15  2  0
 15 16  1  0
 16 17  1  0
 12 18  1  0
 16 18  2  0
 18 19  1  0
 11 20  1  0
 19 20  1  0
 20 21  1  1
  7 22  1  0
  4 23  1  0
 22 23  1  0
M  END
