piperidine-amides-14642-covalent
     RDKit          3D

 22 23  0  0  0  0  0  0  0  0999 V2000
    7.0490   -3.2740   19.2380 C   0  0  0  0  0  0  0  0  0  0  0  0
    6.3160   -4.0330   20.2520 C   0  0  0  0  0  0  0  0  0  0  0  0
    5.2830   -4.6260   19.9050 O   0  0  0  0  0  0  0  0  0  0  0  0
    6.7940   -4.1150   21.5810 N   0  0  0  0  0  0  0  0  0  0  0  0
    6.6360   -5.3570   22.2890 C   0  0  0  0  0  0  0  0  0  0  0  0
    6.0060   -5.0970   23.6250 C   0  0  0  0  0  0  0  0  0  0  0  0
    6.1710   -3.6180   23.8850 C   0  0  0  0  0  0  0  0  0  0  0  0
    5.9730   -3.3240   25.3410 C   0  0  0  0  0  0  0  0  0  0  0  0
    4.8120   -3.0980   25.6860 O   0  0  0  0  0  0  0  0  0  0  0  0
    7.0920   -3.3230   26.1790 N   0  0  0  0  0  0  0  0  0  0  0  0
    7.0150   -3.7230   27.5440 C   0  0  0  0  0  0  0  0  0  0  0  0
    6.3700   -2.7890   28.3850 C   0  0  0  0  0  0  0  0  0  0  0  0
    7.0760   -1.7550   28.9550 C   0  0  0  0  0  0  0  0  0  0  0  0
    8.4070   -1.4230   28.8580 C   0  0  0  0  0  0  0  0  0  0  0  0
    6.3180   -0.7610   29.8730 C   0  0  0  0  0  0  0  0  0  0  0  0
    4.8280   -0.8540   30.1870 C   0  0  0  0  0  0  0  0  0  0  0  0
    3.8960    0.3820   31.3280 Br  0  0  0  0  0  0  0  0  0  0  0  0
    4.1790   -2.0040   29.5160 C   0  0  0  0  0  0  0  0  0  0  0  0
    4.9910   -2.9330   28.6330 C   0  0  0  0  0  0  0  0  0  0  0  0
    4.4050   -4.0090   27.9980 F   0  0  0  0  0  0  0  0  0  0  0  0
    7.4460   -3.0140   23.4800 C   0  0  0  0  0  0  0  0  0  0  0  0
    7.6990   -3.1290   22.1360 C   0  0  0  0  0  0  0  0  0  0  0  0
  1  2  1  0
  2  3  2  0
  2  4  1  0
  4  5  1  0
  5  6  1  0
  6  7  1  0
  7  8  1  0
  8  9  2  0
  8 10  1  0
 10 11  1  0
 11 12  1  0
 12 13  2  0
 13 14  1  0
 13 15  1  0
 15 16  2  0
 16 17  1  0
 16 18  1  0
 12 19  1  0
 18 19  2  0
 19 20  1  0
  7 21  1  0
  4 22  1  0
 21 22  1  0
M  END
