piperidine-amides-12825-covalent
     RDKit          3D

 21 22  0  0  0  0  0  0  0  0999 V2000
    7.1030   -3.3080   19.2580 C   0  0  0  0  0  0  0  0  0  0  0  0
    6.2910   -4.0900   20.2220 C   0  0  0  0  0  0  0  0  0  0  0  0
    5.1870   -4.4940   19.8400 O   0  0  0  0  0  0  0  0  0  0  0  0
    6.7910   -4.4010   21.4860 N   0  0  0  0  0  0  0  0  0  0  0  0
    7.5430   -3.4140   22.1510 C   0  0  0  0  0  0  0  0  0  0  0  0
    7.1010   -3.1320   23.5020 C   0  0  0  0  0  0  0  0  0  0  0  0
    6.4930   -4.2300   24.2740 C   0  0  0  0  0  0  0  0  0  0  0  0
    5.7270   -3.6210   25.3880 C   0  0  0  0  0  0  0  0  0  0  0  0
    4.5020   -3.8240   25.4640 O   0  0  0  0  0  0  0  0  0  0  0  0
    6.3820   -2.8060   26.3270 N   0  0  0  0  0  0  0  0  0  0  0  0
    7.5310   -1.9510   25.9560 C   0  0  0  0  0  0  0  0  0  0  0  0
    7.2130   -0.9650   24.8530 C   0  0  0  0  0  0  0  0  0  0  0  0
    8.1100   -0.6930   23.6820 C   0  0  2  0  0  0  0  0  0  0  0  0
    7.3330   -0.6580   22.6710 O   0  0  0  0  0  0  0  0  0  0  0  0
    9.3980   -1.2470   23.5930 C   0  0  0  0  0  0  0  0  0  0  0  0
    9.8400   -1.7410   22.3750 C   0  0  0  0  0  0  0  0  0  0  0  0
    9.7890   -2.2960   24.5730 C   0  0  0  0  0  0  0  0  0  0  0  0
    5.7160   -0.9220   24.5630 C   0  0  0  0  0  0  0  0  0  0  0  0
    6.2950    0.1080   25.1560 C   0  0  0  0  0  0  0  0  0  0  0  0
    5.6370   -5.1220   23.4090 C   0  0  0  0  0  0  0  0  0  0  0  0
    6.4160   -5.5780   22.2290 C   0  0  0  0  0  0  0  0  0  0  0  0
  1  2  1  0
  2  3  2  0
  2  4  1  0
  4  5  1  0
  5  6  1  0
  6  7  1  0
  7  8  1  0
  8  9  2  0
  8 10  1  0
 10 11  1  0
 12 11  1  0
 12 13  1  0
 13 14  1  6
 13 15  1  0
 15 16  1  0
 15 17  1  0
 12 18  1  0
 12 19  1  0
 18 19  1  0
  7 20  1  0
  4 21  1  0
 20 21  1  0
M  END
