piperidine-amides-7162-covalent
     RDKit          3D

 21 21  0  0  0  0  0  0  0  0999 V2000
    7.0540   -3.2780   19.2690 C   0  0  0  0  0  0  0  0  0  0  0  0
    6.3430   -4.0520   20.2980 C   0  0  0  0  0  0  0  0  0  0  0  0
    5.2910   -4.6250   19.9130 O   0  0  0  0  0  0  0  0  0  0  0  0
    6.8300   -4.1810   21.6120 N   0  0  0  0  0  0  0  0  0  0  0  0
    6.6950   -5.4380   22.3140 C   0  0  0  0  0  0  0  0  0  0  0  0
    6.1960   -5.1630   23.7060 C   0  0  0  0  0  0  0  0  0  0  0  0
    6.0760   -3.6890   23.9800 C   0  0  0  0  0  0  0  0  0  0  0  0
    5.5930   -3.4390   25.3690 C   0  0  0  0  0  0  0  0  0  0  0  0
    4.3670   -3.5880   25.5500 O   0  0  0  0  0  0  0  0  0  0  0  0
    6.3580   -3.0470   26.4940 N   0  0  0  0  0  0  0  0  0  0  0  0
    6.2290   -3.8270   27.7270 C   0  0  0  0  0  0  0  0  0  0  0  0
    5.9750   -5.3350   27.5540 C   0  0  0  0  0  0  0  0  0  0  0  0
    5.3270   -5.6010   26.2580 N   0  0  0  0  0  0  0  0  0  0  0  0
    6.6050   -1.6730   26.7860 C   0  0  0  0  0  0  0  0  0  0  0  0
    5.6330   -0.9780   27.4720 C   0  0  0  0  0  0  0  0  0  0  0  0
    5.1980    0.2420   26.9830 C   0  0  0  0  0  0  0  0  0  0  0  0
    3.7920    0.3930   27.1760 N   0  0  0  0  0  0  0  0  0  0  0  0
    3.0290   -0.5280   26.3560 C   0  0  0  0  0  0  0  0  0  0  0  0
    3.3290    1.7360   26.9580 C   0  0  0  0  0  0  0  0  0  0  0  0
    7.3970   -2.9820   23.6710 C   0  0  0  0  0  0  0  0  0  0  0  0
    7.6870   -3.1510   22.1730 C   0  0  0  0  0  0  0  0  0  0  0  0
  1  2  1  0
  2  3  2  0
  2  4  1  0
  4  5  1  0
  5  6  1  0
  6  7  1  0
  7  8  1  0
  8  9  2  0
  8 10  1  0
 10 11  1  0
 11 12  1  0
 12 13  1  0
 10 14  1  0
 14 15  1  0
 15 16  1  0
 16 17  1  0
 17 18  1  0
 17 19  1  0
  7 20  1  0
  4 21  1  0
 20 21  1  0
M  END
