piperidine-amides-29089-covalent
     RDKit          3D

 26 28  0  0  0  0  0  0  0  0999 V2000
    7.0300   -3.3470   19.4270 C   0  0  0  0  0  0  0  0  0  0  0  0
    6.4030   -4.2350   20.4070 C   0  0  0  0  0  0  0  0  0  0  0  0
    5.4260   -4.9010   20.0040 O   0  0  0  0  0  0  0  0  0  0  0  0
    6.9080   -4.3750   21.7460 N   0  0  0  0  0  0  0  0  0  0  0  0
    6.5800   -5.5890   22.4520 C   0  0  0  0  0  0  0  0  0  0  0  0
    6.5190   -5.3730   23.9510 C   0  0  0  0  0  0  0  0  0  0  0  0
    6.1550   -3.9290   24.2070 C   0  0  0  0  0  0  0  0  0  0  0  0
    5.4970   -3.6740   25.5730 C   0  0  0  0  0  0  0  0  0  0  0  0
    4.2750   -3.6940   25.4610 O   0  0  0  0  0  0  0  0  0  0  0  0
    6.0850   -3.3990   26.8480 N   0  0  0  0  0  0  0  0  0  0  0  0
    5.1220   -3.0800   27.8770 C   0  0  0  0  0  0  0  0  0  0  0  0
    4.2280   -4.1110   28.3460 C   0  0  0  0  0  0  0  0  0  0  0  0
    5.0030   -5.3410   28.6420 N   0  0  0  0  0  0  0  0  0  0  0  0
    4.6360   -6.5940   29.2050 C   0  0  0  0  0  0  0  0  0  0  0  0
    4.9710   -6.8650   30.5270 C   0  0  0  0  0  0  0  0  0  0  0  0
    6.2810   -6.6250   30.8910 O   0  0  0  0  0  0  0  0  0  0  0  0
    4.0300   -7.3490   31.4300 N   0  0  0  0  0  0  0  0  0  0  0  0
    4.3310   -7.4420   32.8320 C   0  0  0  0  0  0  0  0  0  0  0  0
    3.1990   -7.8250   33.8160 C   0  0  0  0  0  0  0  0  0  0  0  0
    1.9960   -7.8010   33.3060 O   0  0  0  0  0  0  0  0  0  0  0  0
    2.0260   -8.3840   32.0500 C   0  0  0  0  0  0  0  0  0  0  0  0
    2.7650   -7.8010   30.8760 C   0  0  0  0  0  0  0  0  0  0  0  0
    6.3580   -5.2580   28.3330 C   0  0  0  0  0  0  0  0  0  0  0  0
    6.5900   -3.9530   28.0890 C   0  0  0  0  0  0  0  0  0  0  0  0
    7.3590   -3.1350   23.8340 C   0  0  0  0  0  0  0  0  0  0  0  0
    7.6370   -3.2580   22.3490 C   0  0  0  0  0  0  0  0  0  0  0  0
  1  2  1  0
  2  3  2  0
  2  4  1  0
  4  5  1  0
  5  6  1  0
  6  7  1  0
  7  8  1  0
  8  9  2  0
  8 10  1  0
 10 11  1  0
 11 12  1  0
 12 13  1  0
 13 14  1  0
 14 15  1  0
 15 16  2  0
 15 17  1  0
 17 18  1  0
 18 19  1  0
 19 20  1  0
 20 21  1  0
 17 22  1  0
 21 22  1  0
 13 23  1  0
 10 24  1  0
 23 24  1  0
  7 25  1  0
  4 26  1  0
 25 26  1  0
M  END
