piperidine-amides-27466-covalent
     RDKit          3D

 26 28  0  0  0  0  0  0  0  0999 V2000
    7.0560   -3.3720   19.3880 C   0  0  0  0  0  0  0  0  0  0  0  0
    6.3710   -4.1810   20.3970 C   0  0  0  0  0  0  0  0  0  0  0  0
    5.3800   -4.8430   19.9880 O   0  0  0  0  0  0  0  0  0  0  0  0
    6.8460   -4.2330   21.7180 N   0  0  0  0  0  0  0  0  0  0  0  0
    6.7000   -5.4420   22.5050 C   0  0  0  0  0  0  0  0  0  0  0  0
    6.1430   -5.0780   23.8590 C   0  0  0  0  0  0  0  0  0  0  0  0
    6.0740   -3.5850   24.0370 C   0  0  0  0  0  0  0  0  0  0  0  0
    5.5460   -3.1780   25.3660 C   0  0  0  0  0  0  0  0  0  0  0  0
    4.3230   -2.9340   25.4030 O   0  0  0  0  0  0  0  0  0  0  0  0
    6.2640   -3.0360   26.5790 N   0  0  0  0  0  0  0  0  0  0  0  0
    6.1170   -4.1020   27.5530 C   0  0  0  0  0  0  0  0  0  0  0  0
    4.8140   -3.9670   28.3300 C   0  0  0  0  0  0  0  0  0  0  0  0
    4.3240   -2.8290   28.9250 C   0  0  0  0  0  0  0  0  0  0  0  0
    3.1320   -2.8580   29.5980 C   0  0  0  0  0  0  0  0  0  0  0  0
    2.3430   -3.9780   29.7370 C   0  0  0  0  0  0  0  0  0  0  0  0
    2.8260   -5.0880   29.1540 N   0  0  0  0  0  0  0  0  0  0  0  0
    3.9960   -5.1110   28.4800 C   0  0  0  0  0  0  0  0  0  0  0  0
    6.3460   -1.7500   27.2040 C   0  0  0  0  0  0  0  0  0  0  0  0
    5.7660   -0.5370   26.5000 C   0  0  0  0  0  0  0  0  0  0  0  0
    5.8910    0.7730   27.2750 C   0  0  0  0  0  0  0  0  0  0  0  0
    6.5480    0.8090   28.6270 C   0  0  0  0  0  0  0  0  0  0  0  0
    6.6390    1.9840   29.2870 F   0  0  0  0  0  0  0  0  0  0  0  0
    7.0750   -0.5020   29.1680 C   0  0  0  0  0  0  0  0  0  0  0  0
    6.9510   -1.6700   28.4550 C   0  0  0  0  0  0  0  0  0  0  0  0
    7.4450   -3.0240   23.7410 C   0  0  0  0  0  0  0  0  0  0  0  0
    7.7410   -3.2060   22.2570 C   0  0  0  0  0  0  0  0  0  0  0  0
  1  2  1  0
  2  3  2  0
  2  4  1  0
  4  5  1  0
  5  6  1  0
  6  7  1  0
  7  8  1  0
  8  9  2  0
  8 10  1  0
 10 11  1  0
 11 12  1  0
 12 13  2  0
 13 14  1  0
 14 15  2  0
 15 16  1  0
 12 17  1  0
 16 17  2  0
 10 18  1  0
 18 19  2  0
 19 20  1  0
 20 21  2  0
 21 22  1  0
 21 23  1  0
 18 24  1  0
 23 24  2  0
  7 25  1  0
  4 26  1  0
 25 26  1  0
M  END
