piperidine-amides-33862-covalent
     RDKit          3D

 27 29  0  0  0  0  0  0  0  0999 V2000
    7.0120   -3.3670   19.3810 C   0  0  0  0  0  0  0  0  0  0  0  0
    6.4020   -4.2390   20.4030 C   0  0  0  0  0  0  0  0  0  0  0  0
    5.4170   -4.9140   20.0060 O   0  0  0  0  0  0  0  0  0  0  0  0
    6.9110   -4.3680   21.7410 N   0  0  0  0  0  0  0  0  0  0  0  0
    7.5860   -3.2630   22.3430 C   0  0  0  0  0  0  0  0  0  0  0  0
    7.0850   -2.9480   23.6850 C   0  0  0  0  0  0  0  0  0  0  0  0
    5.8180   -3.6450   23.9890 C   0  0  0  0  0  0  0  0  0  0  0  0
    4.9780   -3.0650   25.1390 C   0  0  0  0  0  0  0  0  0  0  0  0
    3.9940   -2.3860   24.8260 O   0  0  0  0  0  0  0  0  0  0  0  0
    5.2050   -3.2280   26.5340 N   0  0  0  0  0  0  0  0  0  0  0  0
    4.2560   -3.2030   27.5690 C   0  0  0  0  0  0  0  0  0  0  0  0
    4.4190   -4.1210   28.6890 C   0  0  0  0  0  0  0  0  0  0  0  0
    5.5980   -4.3620   29.2410 N   0  0  0  0  0  0  0  0  0  0  0  0
    5.8020   -6.0260   29.3290 S   0  0  0  0  0  0  0  0  0  0  0  0
    5.3990   -6.5020   30.6960 O   0  0  0  0  0  0  0  0  0  0  0  0
    7.2020   -6.4190   29.0760 O   0  0  0  0  0  0  0  0  0  0  0  0
    4.7400   -6.5840   28.0300 C   0  0  0  0  0  0  0  0  0  0  0  0
    4.6860   -6.4390   26.3120 S   0  0  0  0  0  0  0  0  0  0  0  0
    3.4600   -7.6190   25.8720 C   0  0  0  0  0  0  0  0  0  0  0  0
    3.2740   -8.2320   24.7320 O   0  0  0  0  0  0  0  0  0  0  0  0
    2.7490   -7.8040   27.0060 N   0  0  0  0  0  0  0  0  0  0  0  0
    3.5030   -7.4150   28.1330 C   0  0  0  0  0  0  0  0  0  0  0  0
    3.5400   -7.5830   29.6160 C   0  0  0  0  0  0  0  0  0  0  0  0
    6.4710   -3.6280   28.5580 C   0  0  0  0  0  0  0  0  0  0  0  0
    6.3460   -3.7270   27.0470 C   0  0  0  0  0  0  0  0  0  0  0  0
    6.0420   -5.1470   23.9440 C   0  0  0  0  0  0  0  0  0  0  0  0
    6.5200   -5.5230   22.5110 C   0  0  0  0  0  0  0  0  0  0  0  0
  1  2  1  0
  2  3  2  0
  2  4  1  0
  4  5  1  0
  5  6  1  0
  6  7  1  0
  7  8  1  0
  8  9  2  0
  8 10  1  0
 10 11  1  0
 11 12  1  0
 12 13  1  0
 13 14  1  0
 14 15  2  0
 14 16  2  0
 14 17  1  0
 17 18  1  0
 18 19  1  0
 19 20  2  0
 19 21  1  0
 17 22  2  0
 21 22  1  0
 22 23  1  0
 13 24  1  0
 10 25  1  0
 24 25  1  0
  7 26  1  0
  4 27  1  0
 26 27  1  0
M  END
