piperidine-amides-15370-covalent
     RDKit          3D

 17 18  0  0  0  0  0  0  0  0999 V2000
    7.0140   -3.3320   19.3200 C   0  0  0  0  0  0  0  0  0  0  0  0
    6.3470   -4.2020   20.2980 C   0  0  0  0  0  0  0  0  0  0  0  0
    5.3300   -4.8440   19.9690 O   0  0  0  0  0  0  0  0  0  0  0  0
    6.8680   -4.3710   21.5820 N   0  0  0  0  0  0  0  0  0  0  0  0
    6.5450   -5.5680   22.3290 C   0  0  0  0  0  0  0  0  0  0  0  0
    5.6460   -5.1180   23.4710 C   0  0  0  0  0  0  0  0  0  0  0  0
    6.3930   -4.0190   24.1880 C   0  0  0  0  0  0  0  0  0  0  0  0
    5.4900   -3.4640   25.1990 C   0  0  0  0  0  0  0  0  0  0  0  0
    4.7470   -2.5120   24.9000 O   0  0  0  0  0  0  0  0  0  0  0  0
    5.4910   -4.0330   26.4710 N   0  0  0  0  0  0  0  0  0  0  0  0
    6.7590   -4.1700   27.0650 C   0  0  0  0  0  0  0  0  0  0  0  0
    6.5550   -4.9400   28.3040 C   0  0  0  0  0  0  0  0  0  0  0  0
    5.3000   -4.6600   28.6600 C   0  0  1  0  0  0  0  0  0  0  0  0
    5.0230   -4.3990   29.8520 O   0  0  0  0  0  0  0  0  0  0  0  0
    4.8930   -3.7040   27.7600 C   0  0  0  0  0  0  0  0  0  0  0  0
    6.8370   -2.8980   23.2990 C   0  0  0  0  0  0  0  0  0  0  0  0
    7.6180   -3.3350   22.2680 C   0  0  0  0  0  0  0  0  0  0  0  0
  1  2  1  0
  2  3  2  0
  2  4  1  0
  4  5  1  0
  5  6  1  0
  6  7  1  0
  7  8  1  0
  8  9  2  0
  8 10  1  0
 10 11  1  0
 11 12  1  0
 12 13  1  0
 13 14  1  1
 10 15  1  0
 13 15  1  0
  7 16  1  0
  4 17  1  0
 16 17  1  0
M  END
