piperidine-amides-25548-covalent
     RDKit          3D

 25 27  0  0  0  0  0  0  0  0999 V2000
    7.0980   -3.3440   19.2700 C   0  0  0  0  0  0  0  0  0  0  0  0
    6.3700   -4.1520   20.2790 C   0  0  0  0  0  0  0  0  0  0  0  0
    5.3150   -4.6720   19.9260 O   0  0  0  0  0  0  0  0  0  0  0  0
    6.9220   -4.3390   21.5390 N   0  0  0  0  0  0  0  0  0  0  0  0
    6.6430   -5.5080   22.3210 C   0  0  0  0  0  0  0  0  0  0  0  0
    5.9660   -5.0850   23.5920 C   0  0  0  0  0  0  0  0  0  0  0  0
    6.6960   -3.8810   24.1970 C   0  0  0  0  0  0  0  0  0  0  0  0
    5.8580   -3.3230   25.2790 C   0  0  0  0  0  0  0  0  0  0  0  0
    5.0250   -2.4600   24.9640 O   0  0  0  0  0  0  0  0  0  0  0  0
    5.9250   -3.7410   26.6320 N   0  0  0  0  0  0  0  0  0  0  0  0
    4.9800   -4.7980   26.9100 C   0  0  0  0  0  0  0  0  0  0  0  0
    5.5960   -5.8400   27.8170 C   0  0  0  0  0  0  0  0  0  0  0  0
    5.5880   -5.3660   29.1940 N   0  0  0  0  0  0  0  0  0  0  0  0
    4.2300   -4.8550   29.5450 C   0  0  0  0  0  0  0  0  0  0  0  0
    4.3030   -3.5870   30.0500 C   0  0  0  0  0  0  0  0  0  0  0  0
    3.7990   -5.7890   30.6750 C   0  0  0  0  0  0  0  0  0  0  0  0
    6.4980   -4.2160   29.1110 C   0  0  0  0  0  0  0  0  0  0  0  0
    5.2780   -3.9360   28.1570 C   0  0  0  0  0  0  0  0  0  0  0  0
    4.9790   -2.6860   27.2270 C   0  0  0  0  0  0  0  0  0  0  0  0
    5.9060   -1.5200   27.1230 C   0  0  0  0  0  0  0  0  0  0  0  0
    7.0460   -1.6580   27.9410 C   0  0  0  0  0  0  0  0  0  0  0  0
    7.0720   -2.9120   28.7090 C   0  0  0  0  0  0  0  0  0  0  0  0
    5.8740   -2.9680   27.8670 C   0  0  0  0  0  0  0  0  0  0  0  0
    6.9140   -2.7820   23.1780 C   0  0  0  0  0  0  0  0  0  0  0  0
    7.6930   -3.2820   22.1740 C   0  0  0  0  0  0  0  0  0  0  0  0
  1  2  1  0
  2  3  2  0
  2  4  1  0
  4  5  1  0
  5  6  1  0
  6  7  1  0
  7  8  1  0
  8  9  2  0
  8 10  1  0
 10 11  1  0
 11 12  1  0
 12 13  1  0
 13 14  1  0
 14 15  1  0
 14 16  1  0
 13 17  1  0
 17 18  1  0
 18 19  2  0
 19 20  1  0
 20 21  2  0
 17 22  2  0
 21 22  1  0
 10 23  1  0
 22 23  1  0
  7 24  1  0
  4 25  1  0
 24 25  1  0
M  END
