piperidine-amides-8749-covalent
     RDKit          3D

 23 24  0  0  0  0  0  0  0  0999 V2000
    7.0230   -3.3130   19.3750 C   0  0  0  0  0  0  0  0  0  0  0  0
    6.3340   -4.1420   20.3710 C   0  0  0  0  0  0  0  0  0  0  0  0
    5.3760   -4.8330   19.9740 O   0  0  0  0  0  0  0  0  0  0  0  0
    6.7530   -4.1930   21.7380 N   0  0  0  0  0  0  0  0  0  0  0  0
    7.6420   -3.1800   22.2490 C   0  0  0  0  0  0  0  0  0  0  0  0
    7.3460   -2.9810   23.7030 C   0  0  0  0  0  0  0  0  0  0  0  0
    6.0150   -3.6620   23.9050 C   0  0  0  0  0  0  0  0  0  0  0  0
    5.3780   -3.3490   25.2460 C   0  0  0  0  0  0  0  0  0  0  0  0
    4.2500   -2.8700   25.1740 O   0  0  0  0  0  0  0  0  0  0  0  0
    6.0330   -3.5870   26.4620 N   0  0  0  0  0  0  0  0  0  0  0  0
    5.9850   -4.8490   27.1470 C   0  0  0  0  0  0  0  0  0  0  0  0
    4.8230   -5.2480   27.8120 C   0  0  0  0  0  0  0  0  0  0  0  0
    3.5290   -4.8890   27.4300 C   0  0  0  0  0  0  0  0  0  0  0  0
    2.3450   -5.2960   28.0890 C   0  0  0  0  0  0  0  0  0  0  0  0
    2.5200   -6.1850   29.2910 C   0  0  0  0  0  0  0  0  0  0  0  0
    1.5580   -6.7090   30.0810 N   0  0  0  0  0  0  0  0  0  0  0  0
    1.4850   -8.0300   30.2730 C   0  0  0  0  0  0  0  0  0  0  0  0
    0.2910   -6.0480   30.1660 C   0  0  0  0  0  0  0  0  0  0  0  0
    3.8600   -6.5640   29.7030 C   0  0  0  0  0  0  0  0  0  0  0  0
    3.8640   -7.3760   30.8170 F   0  0  0  0  0  0  0  0  0  0  0  0
    5.0480   -6.0560   28.9050 C   0  0  0  0  0  0  0  0  0  0  0  0
    6.1940   -5.1620   23.7880 C   0  0  0  0  0  0  0  0  0  0  0  0
    6.6170   -5.4280   22.4830 C   0  0  0  0  0  0  0  0  0  0  0  0
  1  2  1  0
  2  3  2  0
  2  4  1  0
  4  5  1  0
  5  6  1  0
  6  7  1  0
  7  8  1  0
  8  9  2  0
  8 10  1  0
 10 11  1  0
 11 12  1  0
 12 13  2  0
 13 14  1  0
 14 15  2  0
 15 16  1  0
 16 17  1  0
 16 18  1  0
 15 19  1  0
 19 20  1  0
 12 21  1  0
 19 21  2  0
  7 22  1  0
  4 23  1  0
 22 23  1  0
M  END
