piperidine-amides-800-covalent
     RDKit          3D

 25 27  0  0  0  0  0  0  0  0999 V2000
    7.1340   -3.3350   19.1990 C   0  0  0  0  0  0  0  0  0  0  0  0
    6.4070   -4.0330   20.2330 C   0  0  0  0  0  0  0  0  0  0  0  0
    5.3080   -4.5730   19.9060 O   0  0  0  0  0  0  0  0  0  0  0  0
    6.9010   -4.1840   21.5480 N   0  0  0  0  0  0  0  0  0  0  0  0
    6.5410   -5.4130   22.2850 C   0  0  0  0  0  0  0  0  0  0  0  0
    5.5930   -4.7760   23.3680 C   0  0  0  0  0  0  0  0  0  0  0  0
    6.4280   -3.7290   24.0670 C   0  0  0  0  0  0  0  0  0  0  0  0
    5.6350   -3.0790   25.2690 C   0  0  0  0  0  0  0  0  0  0  0  0
    5.0250   -2.0820   24.9190 O   0  0  0  0  0  0  0  0  0  0  0  0
    5.8380   -3.7900   26.2860 N   0  0  0  0  0  0  0  0  0  0  0  0
    5.9790   -4.5500   27.3910 C   0  0  0  0  0  0  0  0  0  0  0  0
    5.9750   -5.8420   27.8320 C   0  0  0  0  0  0  0  0  0  0  0  0
    5.7760   -6.0310   29.2160 C   0  0  0  0  0  0  0  0  0  0  0  0
    4.7610   -5.1430   29.8270 C   0  0  0  0  0  0  0  0  0  0  0  0
    3.5880   -5.4740   30.5110 N   0  0  0  0  0  0  0  0  0  0  0  0
    3.1570   -4.1410   30.7970 C   0  0  0  0  0  0  0  0  0  0  0  0
    1.9750   -3.9100   31.5040 C   0  0  0  0  0  0  0  0  0  0  0  0
    1.3260   -2.6740   31.9210 C   0  0  0  0  0  0  0  0  0  0  0  0
    2.3620   -1.6250   31.3310 C   0  0  0  0  0  0  0  0  0  0  0  0
    1.9450    0.0500   31.6210 Cl  0  0  0  0  0  0  0  0  0  0  0  0
    3.6790   -1.9100   30.5420 C   0  0  0  0  0  0  0  0  0  0  0  0
    3.9690   -3.1670   30.3400 C   0  0  0  0  0  0  0  0  0  0  0  0
    5.0500   -3.8230   29.6840 N   0  0  0  0  0  0  0  0  0  0  0  0
    7.0590   -2.6650   23.1850 C   0  0  0  0  0  0  0  0  0  0  0  0
    7.7540   -3.1990   22.1620 C   0  0  0  0  0  0  0  0  0  0  0  0
  1  2  1  0
  2  3  2  0
  2  4  1  0
  4  5  1  0
  5  6  1  0
  6  7  1  0
  7  8  1  0
  8  9  2  0
  8 10  1  0
 10 11  1  0
 11 12  1  0
 12 13  1  0
 13 14  1  0
 14 15  2  0
 15 16  1  0
 16 17  2  0
 17 18  1  0
 18 19  2  0
 19 20  1  0
 19 21  1  0
 16 22  1  0
 21 22  2  0
 14 23  1  0
 22 23  1  0
  7 24  1  0
  4 25  1  0
 24 25  1  0
M  END
