piperidine-amides-27670-covalent
     RDKit          3D

 23 25  0  0  0  0  0  0  0  0999 V2000
    7.0760   -3.3310   19.2810 C   0  0  0  0  0  0  0  0  0  0  0  0
    6.3980   -4.1480   20.2910 C   0  0  0  0  0  0  0  0  0  0  0  0
    5.3270   -4.7040   19.9380 O   0  0  0  0  0  0  0  0  0  0  0  0
    6.9650   -4.3310   21.5530 N   0  0  0  0  0  0  0  0  0  0  0  0
    7.7590   -3.3030   22.1850 C   0  0  0  0  0  0  0  0  0  0  0  0
    6.9710   -2.7430   23.3260 C   0  0  0  0  0  0  0  0  0  0  0  0
    6.4480   -3.8360   24.2150 C   0  0  0  0  0  0  0  0  0  0  0  0
    5.5960   -3.2760   25.2840 C   0  0  0  0  0  0  0  0  0  0  0  0
    4.4150   -2.9980   24.9900 O   0  0  0  0  0  0  0  0  0  0  0  0
    6.0190   -3.0280   26.6040 N   0  0  0  0  0  0  0  0  0  0  0  0
    5.2540   -3.6830   27.6480 C   0  0  0  0  0  0  0  0  0  0  0  0
    5.7820   -4.9920   28.1530 C   0  0  0  0  0  0  0  0  0  0  0  0
    5.0950   -5.6480   29.1220 C   0  0  0  0  0  0  0  0  0  0  0  0
    5.6630   -7.1770   29.7470 Cl  0  0  0  0  0  0  0  0  0  0  0  0
    3.9430   -5.0690   29.5870 N   0  0  0  0  0  0  0  0  0  0  0  0
    3.4080   -3.8780   29.1690 C   0  0  0  0  0  0  0  0  0  0  0  0
    1.9160   -3.2300   29.8430 Cl  0  0  0  0  0  0  0  0  0  0  0  0
    4.1200   -3.2360   28.1940 N   0  0  0  0  0  0  0  0  0  0  0  0
    6.6870   -1.7560   26.7900 C   0  0  0  0  0  0  0  0  0  0  0  0
    6.7710   -1.3160   27.9330 C   0  0  0  0  0  0  0  0  0  0  0  0
    5.8670   -0.5920   27.0740 C   0  0  0  0  0  0  0  0  0  0  0  0
    5.6370   -4.8710   23.4330 C   0  0  0  0  0  0  0  0  0  0  0  0
    6.5290   -5.4500   22.3420 C   0  0  0  0  0  0  0  0  0  0  0  0
  1  2  1  0
  2  3  2  0
  2  4  1  0
  4  5  1  0
  5  6  1  0
  6  7  1  0
  7  8  1  0
  8  9  2  0
  8 10  1  0
 10 11  1  0
 11 12  2  0
 12 13  1  0
 13 14  1  0
 13 15  2  0
 15 16  1  0
 16 17  1  0
 11 18  1  0
 16 18  2  0
 10 19  1  0
 19 20  1  0
 19 21  1  0
 20 21  1  0
  7 22  1  0
  4 23  1  0
 22 23  1  0
M  END
