piperidine-amides-2206-covalent
     RDKit          3D

 29 32  0  0  0  0  0  0  0  0999 V2000
    6.9960   -3.3040   19.2920 C   0  0  0  0  0  0  0  0  0  0  0  0
    6.2760   -4.1540   20.2860 C   0  0  0  0  0  0  0  0  0  0  0  0
    5.2540   -4.7070   19.9130 O   0  0  0  0  0  0  0  0  0  0  0  0
    6.7790   -4.3280   21.5730 N   0  0  0  0  0  0  0  0  0  0  0  0
    6.5390   -5.5220   22.3530 C   0  0  0  0  0  0  0  0  0  0  0  0
    5.7580   -5.1630   23.5920 C   0  0  0  0  0  0  0  0  0  0  0  0
    5.8970   -3.6610   23.8250 C   0  0  0  0  0  0  0  0  0  0  0  0
    5.4420   -3.2850   25.1730 C   0  0  0  0  0  0  0  0  0  0  0  0
    4.6180   -3.9810   25.7760 O   0  0  0  0  0  0  0  0  0  0  0  0
    5.9510   -2.1110   25.7630 N   0  0  0  0  0  0  0  0  0  0  0  0
    5.4480   -0.8440   25.2510 C   0  0  0  0  0  0  0  0  0  0  0  0
    6.0710   -0.6400   23.8740 C   0  0  0  0  0  0  0  0  0  0  0  0
    7.5360   -0.6110   23.8890 N   0  0  0  0  0  0  0  0  0  0  0  0
    7.9600   -0.4160   22.5050 C   0  0  0  0  0  0  0  0  0  0  0  0
    9.3320   -0.3980   22.5040 C   0  0  0  0  0  0  0  0  0  0  0  0
    9.9730   -1.5560   22.2230 C   0  0  0  0  0  0  0  0  0  0  0  0
   11.4600   -1.8760   22.1600 C   0  0  0  0  0  0  0  0  0  0  0  0
   12.2710   -0.6400   22.4840 C   0  0  0  0  0  0  0  0  0  0  0  0
   11.5610    0.6630   22.7940 C   0  0  0  0  0  0  0  0  0  0  0  0
   10.0710    0.7150   22.7840 C   0  0  0  0  0  0  0  0  0  0  0  0
    9.4230    1.8870   23.0630 F   0  0  0  0  0  0  0  0  0  0  0  0
    7.0600   -0.2860   21.4460 C   0  0  0  0  0  0  0  0  0  0  0  0
    7.2710   -0.0780   19.9540 C   0  0  0  0  0  0  0  0  0  0  0  0
    5.5260   -0.4240   22.2710 S   0  0  0  0  0  0  0  0  0  0  0  0
    5.5550    0.3570   26.2300 C   0  0  0  0  0  0  0  0  0  0  0  0
    4.0680    0.4090   26.1020 C   0  0  0  0  0  0  0  0  0  0  0  0
    4.0590   -0.6130   25.2840 C   0  0  0  0  0  0  0  0  0  0  0  0
    7.3080   -3.2880   23.6210 C   0  0  0  0  0  0  0  0  0  0  0  0
    7.6320   -3.2870   22.1430 C   0  0  0  0  0  0  0  0  0  0  0  0
  1  2  1  0
  2  3  2  0
  2  4  1  0
  4  5  1  0
  5  6  1  0
  6  7  1  0
  7  8  1  0
  8  9  2  0
  8 10  1  0
 11 10  1  0
 11 12  1  0
 12 13  2  0
 13 14  1  0
 14 15  1  0
 15 16  2  0
 16 17  1  0
 17 18  2  0
 18 19  1  0
 15 20  1  0
 19 20  2  0
 20 21  1  0
 14 22  2  0
 22 23  1  0
 12 24  1  0
 22 24  1  0
 11 25  1  0
 25 26  1  0
 11 27  1  0
 26 27  1  0
  7 28  1  0
  4 29  1  0
 28 29  1  0
M  END
