piperidine-amides-6626-covalent
     RDKit          3D

 24 26  0  0  0  0  0  0  0  0999 V2000
    7.0400   -3.2990   19.2910 C   0  0  0  0  0  0  0  0  0  0  0  0
    6.3460   -4.1120   20.3080 C   0  0  0  0  0  0  0  0  0  0  0  0
    5.3680   -4.8140   19.9710 O   0  0  0  0  0  0  0  0  0  0  0  0
    6.7750   -4.1450   21.6500 N   0  0  0  0  0  0  0  0  0  0  0  0
    7.6780   -3.1180   22.1380 C   0  0  0  0  0  0  0  0  0  0  0  0
    7.5160   -3.0960   23.6580 C   0  0  0  0  0  0  0  0  0  0  0  0
    6.1090   -3.5940   23.8840 C   0  0  0  0  0  0  0  0  0  0  0  0
    5.6130   -3.2910   25.2440 C   0  0  0  0  0  0  0  0  0  0  0  0
    4.3760   -3.2140   25.4080 O   0  0  0  0  0  0  0  0  0  0  0  0
    6.5130   -3.0890   26.3130 N   0  0  0  0  0  0  0  0  0  0  0  0
    6.1520   -3.4290   27.6690 C   0  0  0  0  0  0  0  0  0  0  0  0
    5.9070   -4.9270   27.7890 C   0  0  0  0  0  0  0  0  0  0  0  0
    4.6950   -5.3840   28.2340 C   0  0  0  0  0  0  0  0  0  0  0  0
    4.5970   -6.0390   29.4420 C   0  0  0  0  0  0  0  0  0  0  0  0
    5.5750   -6.8060   30.0870 N   0  0  0  0  0  0  0  0  0  0  0  0
    5.0400   -7.2650   31.2520 C   0  0  0  0  0  0  0  0  0  0  0  0
    5.6710   -8.0670   32.1970 N   0  0  0  0  0  0  0  0  0  0  0  0
    5.0590   -8.5290   33.4210 C   0  0  0  0  0  0  0  0  0  0  0  0
    3.6080   -8.1740   33.8160 C   0  0  0  0  0  0  0  0  0  0  0  0
    3.1170   -7.2930   32.6380 C   0  0  0  0  0  0  0  0  0  0  0  0
    3.7760   -6.8240   31.3700 C   0  0  0  0  0  0  0  0  0  0  0  0
    3.5040   -6.0590   30.2380 N   0  0  0  0  0  0  0  0  0  0  0  0
    6.0070   -5.0760   23.6070 C   0  0  0  0  0  0  0  0  0  0  0  0
    6.6760   -5.3800   22.4020 C   0  0  0  0  0  0  0  0  0  0  0  0
  1  2  1  0
  2  3  2  0
  2  4  1  0
  4  5  1  0
  5  6  1  0
  6  7  1  0
  7  8  1  0
  8  9  2  0
  8 10  1  0
 10 11  1  0
 11 12  1  0
 12 13  1  0
 13 14  1  0
 14 15  2  0
 15 16  1  0
 16 17  2  0
 17 18  1  0
 18 19  2  0
 19 20  1  0
 16 21  1  0
 20 21  2  0
 14 22  1  0
 21 22  1  0
  7 23  1  0
  4 24  1  0
 23 24  1  0
M  END
