piperidine-amides-17165-covalent
     RDKit          3D

 20 21  0  0  0  0  0  0  0  0999 V2000
    7.0390   -3.3800   19.3260 C   0  0  0  0  0  0  0  0  0  0  0  0
    6.3880   -4.2330   20.3320 C   0  0  0  0  0  0  0  0  0  0  0  0
    5.3500   -4.8370   19.9760 O   0  0  0  0  0  0  0  0  0  0  0  0
    6.9490   -4.4070   21.6250 N   0  0  0  0  0  0  0  0  0  0  0  0
    6.5980   -5.5380   22.4040 C   0  0  0  0  0  0  0  0  0  0  0  0
    6.2550   -5.1790   23.7790 C   0  0  0  0  0  0  0  0  0  0  0  0
    6.0390   -3.7270   23.9780 C   0  0  0  0  0  0  0  0  0  0  0  0
    5.5930   -3.3490   25.3710 C   0  0  0  0  0  0  0  0  0  0  0  0
    4.7070   -2.4810   25.4560 O   0  0  0  0  0  0  0  0  0  0  0  0
    6.0580   -3.8950   26.5930 N   0  0  0  0  0  0  0  0  0  0  0  0
    5.2870   -3.9250   27.7510 C   0  0  0  0  0  0  0  0  0  0  0  0
    5.8890   -4.6380   28.8380 C   0  0  0  0  0  0  0  0  0  0  0  0
    6.7200   -5.5130   28.4510 O   0  0  0  0  0  0  0  0  0  0  0  0
    7.8160   -5.0130   27.7670 C   0  0  0  0  0  0  0  0  0  0  0  0
    7.4580   -3.9690   26.8960 C   0  0  2  0  0  0  0  0  0  0  0  0
    7.8750   -2.9630   27.9810 C   0  0  0  0  0  0  0  0  0  0  0  0
    8.3600   -3.8530   25.6630 C   0  0  0  0  0  0  0  0  0  0  0  0
    8.4130   -2.3230   25.5050 C   0  0  0  0  0  0  0  0  0  0  0  0
    7.1210   -2.8010   23.4630 C   0  0  0  0  0  0  0  0  0  0  0  0
    7.7710   -3.3760   22.2210 C   0  0  0  0  0  0  0  0  0  0  0  0
  1  2  1  0
  2  3  2  0
  2  4  1  0
  4  5  1  0
  5  6  1  0
  6  7  1  0
  7  8  1  0
  8  9  2  0
  8 10  1  0
 10 11  1  0
 11 12  1  0
 12 13  1  0
 13 14  1  0
 10 15  1  0
 14 15  1  0
 15 16  1  1
 15 17  1  0
 17 18  1  0
  7 19  1  0
  4 20  1  0
 19 20  1  0
M  END
