piperidine-amides-3248-covalent
     RDKit          3D

 22 24  0  0  0  0  0  0  0  0999 V2000
    7.0760   -3.3250   19.3200 C   0  0  0  0  0  0  0  0  0  0  0  0
    6.3860   -4.1640   20.2920 C   0  0  0  0  0  0  0  0  0  0  0  0
    5.3700   -4.7800   19.9670 O   0  0  0  0  0  0  0  0  0  0  0  0
    6.9230   -4.3120   21.6170 N   0  0  0  0  0  0  0  0  0  0  0  0
    7.7240   -3.2540   22.1800 C   0  0  0  0  0  0  0  0  0  0  0  0
    7.0440   -2.6820   23.3820 C   0  0  0  0  0  0  0  0  0  0  0  0
    6.5080   -3.8410   24.1950 C   0  0  0  0  0  0  0  0  0  0  0  0
    5.7340   -3.2730   25.3350 C   0  0  0  0  0  0  0  0  0  0  0  0
    4.5310   -2.9670   25.2370 O   0  0  0  0  0  0  0  0  0  0  0  0
    6.3970   -3.0940   26.5650 N   0  0  0  0  0  0  0  0  0  0  0  0
    6.4120   -1.8010   27.2280 C   0  0  0  0  0  0  0  0  0  0  0  0
    7.0310   -1.6100   28.5820 C   0  0  0  0  0  0  0  0  0  0  0  0
    7.0430   -0.3800   29.2230 C   0  0  0  0  0  0  0  0  0  0  0  0
    6.4660    0.7590   28.6200 C   0  0  0  0  0  0  0  0  0  0  0  0
    5.8800    0.6640   27.3730 C   0  0  0  0  0  0  0  0  0  0  0  0
    5.8140   -0.5570   26.6290 C   0  0  0  0  0  0  0  0  0  0  0  0
    5.2500   -0.5200   25.4950 O   0  0  0  0  0  0  0  0  0  0  0  0
    5.8270    0.4500   24.6620 C   0  0  0  0  0  0  0  0  0  0  0  0
    5.7580    1.6770   25.3200 C   0  0  0  0  0  0  0  0  0  0  0  0
    5.2370    1.7720   26.6160 C   0  0  0  0  0  0  0  0  0  0  0  0
    5.7490   -4.8560   23.4760 C   0  0  0  0  0  0  0  0  0  0  0  0
    6.5430   -5.3990   22.4790 C   0  0  0  0  0  0  0  0  0  0  0  0
  1  2  1  0
  2  3  2  0
  2  4  1  0
  4  5  1  0
  5  6  1  0
  6  7  1  0
  7  8  1  0
  8  9  2  0
  8 10  1  0
 10 11  1  0
 11 12  2  0
 12 13  1  0
 13 14  2  0
 14 15  1  0
 11 16  1  0
 15 16  2  0
 16 17  1  0
 17 18  1  0
 18 19  1  0
 15 20  1  0
 19 20  1  0
  7 21  1  0
  4 22  1  0
 21 22  1  0
M  END
