piperidine-amides-32484-covalent
     RDKit          3D

 24 25  0  0  0  0  0  0  0  0999 V2000
    7.1320   -3.2870   19.2320 C   0  0  0  0  0  0  0  0  0  0  0  0
    6.3960   -4.0880   20.2450 C   0  0  0  0  0  0  0  0  0  0  0  0
    5.3250   -4.6270   19.9210 O   0  0  0  0  0  0  0  0  0  0  0  0
    6.9660   -4.2640   21.5260 N   0  0  0  0  0  0  0  0  0  0  0  0
    7.6690   -3.2050   22.1880 C   0  0  0  0  0  0  0  0  0  0  0  0
    6.7290   -2.7020   23.2850 C   0  0  0  0  0  0  0  0  0  0  0  0
    6.4200   -3.8360   24.2150 C   0  0  0  0  0  0  0  0  0  0  0  0
    5.7010   -3.3390   25.4120 C   0  0  0  0  0  0  0  0  0  0  0  0
    4.4750   -3.2420   25.2800 O   0  0  0  0  0  0  0  0  0  0  0  0
    6.3450   -2.9830   26.6020 N   0  0  0  0  0  0  0  0  0  0  0  0
    6.8750   -1.6730   26.7470 C   0  0  0  0  0  0  0  0  0  0  0  0
    5.7760   -3.4950   27.8110 C   0  0  0  0  0  0  0  0  0  0  0  0
    6.3940   -4.4520   28.6350 C   0  0  0  0  0  0  0  0  0  0  0  0
    6.2820   -5.7990   28.3570 C   0  0  2  0  0  0  0  0  0  0  0  0
    6.3160   -6.4010   27.1860 O   0  0  0  0  0  0  0  0  0  0  0  0
    5.2190   -6.4500   29.1640 C   0  0  0  0  0  0  0  0  0  0  0  0
    5.3500   -7.0100   30.5660 C   0  0  0  0  0  0  0  0  0  0  0  0
    4.0940   -7.6160   31.1510 C   0  0  0  0  0  0  0  0  0  0  0  0
    2.8940   -7.6760   30.4800 C   0  0  0  0  0  0  0  0  0  0  0  0
    1.4440   -8.4880   31.4280 Br  0  0  0  0  0  0  0  0  0  0  0  0
    2.5960   -7.1790   29.0950 C   0  0  0  0  0  0  0  0  0  0  0  0
    3.8830   -6.5630   28.5160 C   0  0  0  0  0  0  0  0  0  0  0  0
    5.6680   -4.8700   23.4710 C   0  0  0  0  0  0  0  0  0  0  0  0
    6.5710   -5.3740   22.3310 C   0  0  0  0  0  0  0  0  0  0  0  0
  1  2  1  0
  2  3  2  0
  2  4  1  0
  4  5  1  0
  5  6  1  0
  6  7  1  0
  7  8  1  0
  8  9  2  0
  8 10  1  0
 10 11  1  0
 10 12  1  0
 12 13  1  0
 13 14  1  0
 14 15  1  6
 14 16  1  0
 16 17  2  0
 17 18  1  0
 18 19  2  0
 19 20  1  0
 19 21  1  0
 16 22  1  0
 21 22  2  0
  7 23  1  0
  4 24  1  0
 23 24  1  0
M  END
