piperidine-amides-34068-covalent
     RDKit          3D

 27 29  0  0  0  0  0  0  0  0999 V2000
    7.0200   -3.3490   19.4240 C   0  0  0  0  0  0  0  0  0  0  0  0
    6.3720   -4.2510   20.3970 C   0  0  0  0  0  0  0  0  0  0  0  0
    5.4240   -4.9740   20.0130 O   0  0  0  0  0  0  0  0  0  0  0  0
    6.8230   -4.3310   21.7340 N   0  0  0  0  0  0  0  0  0  0  0  0
    7.6440   -3.2460   22.2750 C   0  0  0  0  0  0  0  0  0  0  0  0
    7.4490   -3.1280   23.8050 C   0  0  0  0  0  0  0  0  0  0  0  0
    6.1370   -3.8040   24.1300 C   0  0  0  0  0  0  0  0  0  0  0  0
    5.5910   -3.4430   25.4850 C   0  0  0  0  0  0  0  0  0  0  0  0
    4.6680   -2.6060   25.4760 O   0  0  0  0  0  0  0  0  0  0  0  0
    6.0250   -3.9780   26.7450 N   0  0  0  0  0  0  0  0  0  0  0  0
    5.6280   -3.3020   27.9710 C   0  0  0  0  0  0  0  0  0  0  0  0
    4.7660   -4.2350   28.8540 C   0  0  0  0  0  0  0  0  0  0  0  0
    5.5700   -5.3910   29.2240 N   0  0  0  0  0  0  0  0  0  0  0  0
    5.1050   -6.7090   30.1850 S   0  0  0  0  0  0  0  0  0  0  0  0
    5.8670   -6.7750   31.5000 O   0  0  0  0  0  0  0  0  0  0  0  0
    5.2630   -7.9960   29.4260 O   0  0  0  0  0  0  0  0  0  0  0  0
    3.3540   -6.4220   30.4650 C   0  0  2  0  0  0  0  0  0  0  0  0
    3.0220   -5.9160   31.7050 C   0  0  0  0  0  0  0  0  0  0  0  0
    2.0080   -6.6260   32.2930 C   0  0  0  0  0  0  0  0  0  0  0  0
    1.4700   -7.9530   31.3650 S   0  0  0  0  0  0  0  0  0  0  0  0
    0.0690   -7.8080   30.8980 O   0  0  0  0  0  0  0  0  0  0  0  0
    1.7700   -9.2640   32.0150 O   0  0  0  0  0  0  0  0  0  0  0  0
    2.6110   -7.5590   30.0240 C   0  0  0  0  0  0  0  0  0  0  0  0
    6.6060   -5.6350   28.4670 C   0  0  0  0  0  0  0  0  0  0  0  0
    6.0290   -5.3790   27.0880 C   0  0  0  0  0  0  0  0  0  0  0  0
    6.1850   -5.2480   23.8790 C   0  0  0  0  0  0  0  0  0  0  0  0
    6.6100   -5.5200   22.5030 C   0  0  0  0  0  0  0  0  0  0  0  0
  1  2  1  0
  2  3  2  0
  2  4  1  0
  4  5  1  0
  5  6  1  0
  6  7  1  0
  7  8  1  0
  8  9  2  0
  8 10  1  0
 10 11  1  0
 11 12  1  0
 12 13  1  0
 14 13  1  0
 14 15  2  0
 14 16  2  0
 17 14  1  1
 17 18  1  0
 18 19  1  0
 20 19  1  0
 20 21  2  0
 20 22  2  0
 17 23  1  0
 20 23  1  0
 13 24  1  0
 10 25  1  0
 24 25  1  0
  7 26  1  0
  4 27  1  0
 26 27  1  0
M  END
