piperidine-amides-8505-covalent
     RDKit          3D

 24 26  0  0  0  0  0  0  0  0999 V2000
    7.1740   -3.2520   19.1210 C   0  0  0  0  0  0  0  0  0  0  0  0
    6.4160   -3.9800   20.1370 C   0  0  0  0  0  0  0  0  0  0  0  0
    5.3010   -4.4460   19.8420 O   0  0  0  0  0  0  0  0  0  0  0  0
    6.9900   -4.1890   21.4050 N   0  0  0  0  0  0  0  0  0  0  0  0
    6.5310   -5.3120   22.1590 C   0  0  0  0  0  0  0  0  0  0  0  0
    5.7320   -4.7960   23.3160 C   0  0  0  0  0  0  0  0  0  0  0  0
    6.6470   -3.8320   24.0390 C   0  0  0  0  0  0  0  0  0  0  0  0
    6.0000   -3.3240   25.2640 C   0  0  0  0  0  0  0  0  0  0  0  0
    4.9220   -2.7380   25.1520 O   0  0  0  0  0  0  0  0  0  0  0  0
    6.7010   -3.5750   26.4150 N   0  0  0  0  0  0  0  0  0  0  0  0
    6.8410   -4.9130   26.8530 C   0  0  0  0  0  0  0  0  0  0  0  0
    5.6470   -5.4140   27.3670 C   0  0  1  0  0  0  0  0  0  0  0  0
    5.5770   -6.4320   28.2880 C   0  0  0  0  0  0  0  0  0  0  0  0
    5.3460   -5.5700   29.3260 C   0  0  0  0  0  0  0  0  0  0  0  0
    5.3460   -4.4650   28.4610 N   0  0  0  0  0  0  0  0  0  0  0  0
    6.3020   -3.3640   28.6460 C   0  0  0  0  0  0  0  0  0  0  0  0
    5.7730   -2.2020   29.5220 C   0  0  0  0  0  0  0  0  0  0  0  0
    4.3270   -2.1560   29.8560 C   0  0  0  0  0  0  0  0  0  0  0  0
    3.8290   -1.0230   30.7080 C   0  0  0  0  0  0  0  0  0  0  0  0
    4.9370   -0.0290   31.1300 C   0  0  0  0  0  0  0  0  0  0  0  0
    6.2530   -0.1750   30.7560 C   0  0  0  0  0  0  0  0  0  0  0  0
    6.6600   -1.2310   29.9730 C   0  0  0  0  0  0  0  0  0  0  0  0
    7.0370   -2.6570   23.2300 C   0  0  0  0  0  0  0  0  0  0  0  0
    7.7640   -3.1520   22.0310 C   0  0  0  0  0  0  0  0  0  0  0  0
  1  2  1  0
  2  3  2  0
  2  4  1  0
  4  5  1  0
  5  6  1  0
  6  7  1  0
  7  8  1  0
  8  9  2  0
  8 10  1  0
 10 11  1  0
 12 11  1  1
 12 13  1  0
 13 14  1  0
 12 15  1  0
 14 15  1  0
 15 16  1  0
 16 17  1  0
 17 18  2  0
 18 19  1  0
 19 20  2  0
 20 21  1  0
 17 22  1  0
 21 22  2  0
  7 23  1  0
  4 24  1  0
 23 24  1  0
M  END
