piperidine-amides-24174-covalent
     RDKit          3D

 24 25  0  0  0  0  0  0  0  0999 V2000
    7.0770   -3.2770   19.2830 C   0  0  0  0  0  0  0  0  0  0  0  0
    6.3550   -4.0930   20.2750 C   0  0  0  0  0  0  0  0  0  0  0  0
    5.3380   -4.7380   19.9440 O   0  0  0  0  0  0  0  0  0  0  0  0
    6.8100   -4.1920   21.5950 N   0  0  0  0  0  0  0  0  0  0  0  0
    7.6350   -3.1290   22.1330 C   0  0  0  0  0  0  0  0  0  0  0  0
    7.5640   -3.2140   23.6610 C   0  0  0  0  0  0  0  0  0  0  0  0
    6.1930   -3.7530   23.9990 C   0  0  0  0  0  0  0  0  0  0  0  0
    5.9230   -3.6160   25.4500 C   0  0  0  0  0  0  0  0  0  0  0  0
    4.7250   -3.5990   25.8190 O   0  0  0  0  0  0  0  0  0  0  0  0
    7.0100   -3.4760   26.3600 N   0  0  0  0  0  0  0  0  0  0  0  0
    7.6330   -2.2230   26.4680 C   0  0  0  0  0  0  0  0  0  0  0  0
    7.3410   -4.4360   27.3900 C   0  0  2  0  0  0  0  0  0  0  0  0
    8.1000   -5.3920   26.7740 C   0  0  0  0  0  0  0  0  0  0  0  0
    8.7490   -6.2200   27.4750 O   0  0  0  0  0  0  0  0  0  0  0  0
    6.2260   -5.1040   28.1780 C   0  0  0  0  0  0  0  0  0  0  0  0
    5.8690   -6.4010   27.7930 C   0  0  0  0  0  0  0  0  0  0  0  0
    4.8860   -7.0800   28.4510 C   0  0  0  0  0  0  0  0  0  0  0  0
    4.1440   -6.4850   29.5950 C   0  0  0  0  0  0  0  0  0  0  0  0
    3.1810   -7.2440   30.1800 O   0  0  0  0  0  0  0  0  0  0  0  0
    3.5500   -7.6880   31.4330 C   0  0  0  0  0  0  0  0  0  0  0  0
    4.5020   -5.1410   29.9990 C   0  0  0  0  0  0  0  0  0  0  0  0
    5.5770   -4.4760   29.2410 C   0  0  0  0  0  0  0  0  0  0  0  0
    6.1220   -5.2000   23.6050 C   0  0  0  0  0  0  0  0  0  0  0  0
    6.5390   -5.3960   22.3150 C   0  0  0  0  0  0  0  0  0  0  0  0
  1  2  1  0
  2  3  2  0
  2  4  1  0
  4  5  1  0
  5  6  1  0
  6  7  1  0
  7  8  1  0
  8  9  2  0
  8 10  1  0
 10 11  1  0
 10 12  1  0
 12 13  1  6
 13 14  1  0
 12 15  1  0
 15 16  2  0
 16 17  1  0
 17 18  2  0
 18 19  1  0
 19 20  1  0
 18 21  1  0
 15 22  1  0
 21 22  2  0
  7 23  1  0
  4 24  1  0
 23 24  1  0
M  END
