piperidine-amides-27626-covalent
     RDKit          3D

 25 25  0  0  0  0  0  0  0  0999 V2000
    7.0670   -3.2610   19.2130 C   0  0  0  0  0  0  0  0  0  0  0  0
    6.3200   -4.0130   20.2290 C   0  0  0  0  0  0  0  0  0  0  0  0
    5.2400   -4.5320   19.8640 O   0  0  0  0  0  0  0  0  0  0  0  0
    6.8240   -4.1670   21.5210 N   0  0  0  0  0  0  0  0  0  0  0  0
    6.5670   -5.3790   22.2680 C   0  0  0  0  0  0  0  0  0  0  0  0
    5.8730   -4.9890   23.5420 C   0  0  0  0  0  0  0  0  0  0  0  0
    6.5820   -3.8440   24.2170 C   0  0  0  0  0  0  0  0  0  0  0  0
    5.7990   -3.3770   25.3960 C   0  0  0  0  0  0  0  0  0  0  0  0
    4.5600   -3.2680   25.2590 O   0  0  0  0  0  0  0  0  0  0  0  0
    6.3650   -3.0240   26.6480 N   0  0  0  0  0  0  0  0  0  0  0  0
    6.2290   -3.8800   27.8250 C   0  0  0  0  0  0  0  0  0  0  0  0
    6.0540   -5.3730   27.5260 C   0  0  0  0  0  0  0  0  0  0  0  0
    5.6610   -5.7600   26.4030 O   0  0  0  0  0  0  0  0  0  0  0  0
    4.6360   -6.6690   26.5180 C   0  0  0  0  0  0  0  0  0  0  0  0
    6.6370   -1.6300   26.9200 C   0  0  0  0  0  0  0  0  0  0  0  0
    6.7380   -1.2900   28.2720 C   0  0  0  0  0  0  0  0  0  0  0  0
    6.2160   -0.0640   28.6780 C   0  0  0  0  0  0  0  0  0  0  0  0
    4.9860    0.0680   28.9100 O   0  0  0  0  0  0  0  0  0  0  0  0
    7.0200    1.0650   28.8490 O   0  0  0  0  0  0  0  0  0  0  0  0
    6.5540    2.3550   28.4160 C   0  0  0  0  0  0  0  0  0  0  0  0
    5.2330    2.6250   29.1010 C   0  0  0  0  0  0  0  0  0  0  0  0
    6.4720    2.4720   27.0560 C   0  0  0  0  0  0  0  0  0  0  0  0
    7.5560    3.2720   28.6850 C   0  0  0  0  0  0  0  0  0  0  0  0
    6.7970   -2.7030   23.2680 C   0  0  0  0  0  0  0  0  0  0  0  0
    7.5680   -3.1040   22.2000 C   0  0  0  0  0  0  0  0  0  0  0  0
  1  2  1  0
  2  3  2  0
  2  4  1  0
  4  5  1  0
  5  6  1  0
  6  7  1  0
  7  8  1  0
  8  9  2  0
  8 10  1  0
 10 11  1  0
 11 12  1  0
 12 13  1  0
 13 14  1  0
 10 15  1  0
 15 16  1  0
 16 17  1  0
 17 18  2  0
 17 19  1  0
 20 19  1  0
 20 21  1  0
 20 22  1  0
 20 23  1  0
  7 24  1  0
  4 25  1  0
 24 25  1  0
M  END
