piperidine-amides-10661-covalent
     RDKit          3D

 23 24  0  0  0  0  0  0  0  0999 V2000
    7.0680   -3.2800   19.2130 C   0  0  0  0  0  0  0  0  0  0  0  0
    6.3600   -4.0300   20.2620 C   0  0  0  0  0  0  0  0  0  0  0  0
    5.3070   -4.6240   19.9110 O   0  0  0  0  0  0  0  0  0  0  0  0
    6.8640   -4.1000   21.5640 N   0  0  0  0  0  0  0  0  0  0  0  0
    7.7730   -3.1100   22.0990 C   0  0  0  0  0  0  0  0  0  0  0  0
    7.3680   -2.8780   23.5140 C   0  0  0  0  0  0  0  0  0  0  0  0
    5.9560   -3.3470   23.7110 C   0  0  0  0  0  0  0  0  0  0  0  0
    5.3650   -2.8100   24.9610 C   0  0  0  0  0  0  0  0  0  0  0  0
    4.4780   -3.4920   25.5190 O   0  0  0  0  0  0  0  0  0  0  0  0
    5.7260   -1.5690   25.5500 N   0  0  0  0  0  0  0  0  0  0  0  0
    6.0220   -1.5380   26.9510 C   0  0  0  0  0  0  0  0  0  0  0  0
    6.6940   -2.8200   27.2250 C   0  0  0  0  0  0  0  0  0  0  0  0
    7.7120   -3.2280   26.4350 C   0  0  0  0  0  0  0  0  0  0  0  0
    8.3590   -4.3680   26.5910 C   0  0  0  0  0  0  0  0  0  0  0  0
    7.9950   -5.1770   27.5990 C   0  0  0  0  0  0  0  0  0  0  0  0
    8.7080   -6.2910   27.6660 O   0  0  0  0  0  0  0  0  0  0  0  0
    9.5450   -6.4030   26.5510 C   0  0  0  0  0  0  0  0  0  0  0  0
    6.9910   -4.8790   28.4630 C   0  0  0  0  0  0  0  0  0  0  0  0
    6.1340   -3.6290   28.4410 C   0  0  0  0  0  0  0  0  0  0  0  0
    5.1200   -3.2680   29.2520 O   0  0  0  0  0  0  0  0  0  0  0  0
    3.9680   -4.1200   29.4180 C   0  0  0  0  0  0  0  0  0  0  0  0
    5.8610   -4.8860   23.6220 C   0  0  0  0  0  0  0  0  0  0  0  0
    6.6350   -5.2970   22.3680 C   0  0  0  0  0  0  0  0  0  0  0  0
  1  2  1  0
  2  3  2  0
  2  4  1  0
  4  5  1  0
  5  6  1  0
  6  7  1  0
  7  8  1  0
  8  9  2  0
  8 10  1  0
 10 11  1  0
 11 12  1  0
 12 13  2  0
 13 14  1  0
 14 15  2  0
 15 16  1  0
 16 17  1  0
 15 18  1  0
 12 19  1  0
 18 19  2  0
 19 20  1  0
 20 21  1  0
  7 22  1  0
  4 23  1  0
 22 23  1  0
M  END
