piperidine-amides-14363-covalent
     RDKit          3D

 22 23  0  0  0  0  0  0  0  0999 V2000
    7.0870   -3.3110   19.2860 C   0  0  0  0  0  0  0  0  0  0  0  0
    6.3500   -4.0930   20.2710 C   0  0  0  0  0  0  0  0  0  0  0  0
    5.2800   -4.6120   19.9090 O   0  0  0  0  0  0  0  0  0  0  0  0
    6.8810   -4.3010   21.5720 N   0  0  0  0  0  0  0  0  0  0  0  0
    6.5150   -5.4790   22.2890 C   0  0  0  0  0  0  0  0  0  0  0  0
    5.7470   -5.0690   23.5080 C   0  0  0  0  0  0  0  0  0  0  0  0
    6.5290   -3.9640   24.1890 C   0  0  0  0  0  0  0  0  0  0  0  0
    5.7220   -3.4240   25.3350 C   0  0  0  0  0  0  0  0  0  0  0  0
    4.6420   -2.9200   25.0390 O   0  0  0  0  0  0  0  0  0  0  0  0
    6.2200   -3.5280   26.6300 N   0  0  0  0  0  0  0  0  0  0  0  0
    5.9060   -4.6270   27.4930 C   0  0  2  0  0  0  0  0  0  0  0  0
    4.5790   -4.9660   27.5570 C   0  0  0  0  0  0  0  0  0  0  0  0
    6.2650   -4.2010   28.8490 C   0  0  0  0  0  0  0  0  0  0  0  0
    5.6840   -3.0820   29.4140 C   0  0  0  0  0  0  0  0  0  0  0  0
    6.5850   -1.9200   29.3350 C   0  0  0  0  0  0  0  0  0  0  0  0
    6.1950   -0.5350   29.8940 C   0  0  0  0  0  0  0  0  0  0  0  0
    4.8400   -0.4000   30.5350 C   0  0  0  0  0  0  0  0  0  0  0  0
    3.9320   -1.6260   30.5970 C   0  0  0  0  0  0  0  0  0  0  0  0
    2.7810   -1.6340   31.1050 O   0  0  0  0  0  0  0  0  0  0  0  0
    4.4510   -2.9530   29.9970 C   0  0  0  0  0  0  0  0  0  0  0  0
    6.7270   -2.7980   23.2390 C   0  0  0  0  0  0  0  0  0  0  0  0
    7.5940   -3.2690   22.2800 C   0  0  0  0  0  0  0  0  0  0  0  0
  1  2  1  0
  2  3  2  0
  2  4  1  0
  4  5  1  0
  5  6  1  0
  6  7  1  0
  7  8  1  0
  8  9  2  0
  8 10  1  0
 10 11  1  0
 11 12  1  1
 11 13  1  0
 13 14  1  0
 14 15  2  0
 15 16  1  0
 16 17  2  0
 17 18  1  0
 18 19  1  0
 14 20  1  0
 18 20  2  0
  7 21  1  0
  4 22  1  0
 21 22  1  0
M  END
