piperidine-amides-1948-covalent
     RDKit          3D

 22 23  0  0  0  0  0  0  0  0999 V2000
    7.0590   -3.3040   19.2830 C   0  0  0  0  0  0  0  0  0  0  0  0
    6.3560   -4.1210   20.3060 C   0  0  0  0  0  0  0  0  0  0  0  0
    5.3280   -4.6900   19.9380 O   0  0  0  0  0  0  0  0  0  0  0  0
    6.8800   -4.2630   21.5980 N   0  0  0  0  0  0  0  0  0  0  0  0
    7.6500   -3.2330   22.2380 C   0  0  0  0  0  0  0  0  0  0  0  0
    6.8720   -2.6850   23.4010 C   0  0  0  0  0  0  0  0  0  0  0  0
    6.2790   -3.8000   24.2840 C   0  0  0  0  0  0  0  0  0  0  0  0
    5.3850   -3.1230   25.2650 C   0  0  0  0  0  0  0  0  0  0  0  0
    4.7320   -2.1520   24.8750 O   0  0  0  0  0  0  0  0  0  0  0  0
    5.2210   -3.5250   26.6200 N   0  0  0  0  0  0  0  0  0  0  0  0
    6.0420   -4.5700   27.1570 C   0  0  0  0  0  0  0  0  0  0  0  0
    5.3230   -5.3940   28.1940 C   0  0  2  0  0  0  0  0  0  0  0  0
    4.5110   -4.9500   29.1990 C   0  0  0  0  0  0  0  0  0  0  0  0
    6.1160   -6.3800   28.7650 O   0  0  0  0  0  0  0  0  0  0  0  0
    3.9670   -5.8980   28.1970 C   0  0  2  0  0  0  0  0  0  0  0  0
    3.6480   -7.1850   27.9140 C   0  0  0  0  0  0  0  0  0  0  0  0
    2.8170   -7.6550   26.7260 C   0  0  0  0  0  0  0  0  0  0  0  0
    1.7990   -6.6110   26.3480 C   0  0  0  0  0  0  0  0  0  0  0  0
    1.8190   -5.3610   27.1970 C   0  0  0  0  0  0  0  0  0  0  0  0
    3.2700   -5.0460   27.3600 C   0  0  0  0  0  0  0  0  0  0  0  0
    5.5660   -4.8850   23.5100 C   0  0  0  0  0  0  0  0  0  0  0  0
    6.4750   -5.3810   22.4010 C   0  0  0  0  0  0  0  0  0  0  0  0
  1  2  1  0
  2  3  2  0
  2  4  1  0
  4  5  1  0
  5  6  1  0
  6  7  1  0
  7  8  1  0
  8  9  2  0
  8 10  1  0
 10 11  1  0
 11 12  1  0
 12 13  1  1
 12 14  1  0
 12 15  1  0
 15 16  1  6
 16 17  1  0
 17 18  2  0
 18 19  1  0
 15 20  1  0
 19 20  1  0
  7 21  1  0
  4 22  1  0
 21 22  1  0
M  END
