piperidine-amides-27168-covalent
     RDKit          3D

 25 26  0  0  0  0  0  0  0  0999 V2000
    7.0610   -3.4000   19.4360 C   0  0  0  0  0  0  0  0  0  0  0  0
    6.3900   -4.2550   20.4170 C   0  0  0  0  0  0  0  0  0  0  0  0
    5.3900   -4.8980   19.9990 O   0  0  0  0  0  0  0  0  0  0  0  0
    6.8870   -4.3640   21.7240 N   0  0  0  0  0  0  0  0  0  0  0  0
    6.6520   -5.5470   22.5340 C   0  0  0  0  0  0  0  0  0  0  0  0
    6.1380   -5.1330   23.9010 C   0  0  0  0  0  0  0  0  0  0  0  0
    6.1310   -3.6340   24.0480 C   0  0  0  0  0  0  0  0  0  0  0  0
    5.6450   -3.1210   25.3620 C   0  0  0  0  0  0  0  0  0  0  0  0
    5.4190   -1.9020   25.4150 O   0  0  0  0  0  0  0  0  0  0  0  0
    5.3520   -3.8600   26.5300 N   0  0  0  0  0  0  0  0  0  0  0  0
    3.9870   -4.0070   26.9020 C   0  0  0  0  0  0  0  0  0  0  0  0
    3.9490   -4.7980   28.1990 C   0  0  0  0  0  0  0  0  0  0  0  0
    4.9800   -5.6110   28.5110 C   0  0  0  0  0  0  0  0  0  0  0  0
    6.1900   -5.1920   28.1450 C   0  0  2  0  0  0  0  0  0  0  0  0
    7.0170   -5.2660   29.1780 C   0  0  0  0  0  0  0  0  0  0  0  0
    6.1740   -3.7490   27.6690 C   0  0  2  0  0  0  0  0  0  0  0  0
    5.7270   -2.8220   28.5800 C   0  0  0  0  0  0  0  0  0  0  0  0
    4.4310   -2.2900   28.5870 O   0  0  0  0  0  0  0  0  0  0  0  0
    6.6640   -2.4720   29.4740 O   0  0  0  0  0  0  0  0  0  0  0  0
    6.6970   -1.1100   29.5490 C   0  0  0  0  0  0  0  0  0  0  0  0
    7.9710   -0.7440   30.3020 C   0  0  0  0  0  0  0  0  0  0  0  0
    6.5890   -0.4970   28.3250 C   0  0  0  0  0  0  0  0  0  0  0  0
    5.5390   -0.7040   30.1760 C   0  0  0  0  0  0  0  0  0  0  0  0
    7.4450   -3.0450   23.7040 C   0  0  0  0  0  0  0  0  0  0  0  0
    7.7190   -3.3010   22.2470 C   0  0  0  0  0  0  0  0  0  0  0  0
  1  2  1  0
  2  3  2  0
  2  4  1  0
  4  5  1  0
  5  6  1  0
  6  7  1  0
  7  8  1  0
  8  9  2  0
  8 10  1  0
 10 11  1  0
 11 12  1  0
 12 13  1  0
 13 14  1  0
 14 15  1  1
 10 16  1  0
 14 16  1  0
 16 17  1  1
 17 18  2  0
 17 19  1  0
 20 19  1  0
 20 21  1  0
 20 22  1  0
 20 23  1  0
  7 24  1  0
  4 25  1  0
 24 25  1  0
M  END
