piperidine-amides-1949-covalent
     RDKit          3D

 28 30  0  0  0  0  0  0  0  0999 V2000
    7.1070   -3.3210   19.3250 C   0  0  0  0  0  0  0  0  0  0  0  0
    6.3630   -4.1310   20.3170 C   0  0  0  0  0  0  0  0  0  0  0  0
    5.3220   -4.6650   19.9330 O   0  0  0  0  0  0  0  0  0  0  0  0
    6.8820   -4.3030   21.6020 N   0  0  0  0  0  0  0  0  0  0  0  0
    7.7210   -3.3240   22.2420 C   0  0  0  0  0  0  0  0  0  0  0  0
    7.0540   -2.8450   23.4970 C   0  0  0  0  0  0  0  0  0  0  0  0
    6.6370   -4.0250   24.3830 C   0  0  0  0  0  0  0  0  0  0  0  0
    5.8680   -3.4390   25.4940 C   0  0  0  0  0  0  0  0  0  0  0  0
    4.6360   -3.3250   25.3800 O   0  0  0  0  0  0  0  0  0  0  0  0
    6.5160   -3.0140   26.6710 N   0  0  0  0  0  0  0  0  0  0  0  0
    6.7220   -1.5940   26.8960 C   0  0  2  0  0  0  0  0  0  0  0  0
    7.2440   -1.4860   28.2920 C   0  0  0  0  0  0  0  0  0  0  0  0
    6.4380   -0.7090   29.0900 C   0  0  1  0  0  0  0  0  0  0  0  0
    6.3310    0.6280   28.8080 C   0  0  0  0  0  0  0  0  0  0  0  0
    5.9400    0.6820   27.5130 C   0  0  0  0  0  0  0  0  0  0  0  0
    5.6860   -0.6900   26.9720 C   0  0  1  0  0  0  0  0  0  0  0  0
    4.8090   -0.2300   25.8540 C   0  0  0  0  0  0  0  0  0  0  0  0
    5.2400   -0.4420   24.5770 O   0  0  0  0  0  0  0  0  0  0  0  0
    3.6090    0.3960   26.1110 O   0  0  0  0  0  0  0  0  0  0  0  0
    3.3420    1.7220   25.6220 C   0  0  0  0  0  0  0  0  0  0  0  0
    3.9850    2.7900   26.4410 C   0  0  0  0  0  0  0  0  0  0  0  0
    3.9100    1.8380   24.2210 C   0  0  0  0  0  0  0  0  0  0  0  0
    1.8620    1.9920   25.5540 C   0  0  0  0  0  0  0  0  0  0  0  0
    5.1180   -1.1400   28.3570 C   0  0  0  0  0  0  0  0  0  0  0  0
    3.9300   -0.3000   28.7670 C   0  0  0  0  0  0  0  0  0  0  0  0
    4.8690   -2.6060   28.4250 C   0  0  0  0  0  0  0  0  0  0  0  0
    5.8560   -5.0490   23.6020 C   0  0  0  0  0  0  0  0  0  0  0  0
    6.6180   -5.5220   22.3600 C   0  0  0  0  0  0  0  0  0  0  0  0
  1  2  1  0
  2  3  2  0
  2  4  1  0
  4  5  1  0
  5  6  1  0
  6  7  1  0
  7  8  1  0
  8  9  2  0
  8 10  1  0
 11 10  1  1
 11 12  1  0
 13 12  1  6
 13 14  1  0
 14 15  1  0
 11 16  1  0
 15 16  1  0
 16 17  1  6
 17 18  2  0
 17 19  1  0
 20 19  1  0
 20 21  1  0
 20 22  1  0
 20 23  1  0
 13 24  1  0
 16 24  1  0
 24 25  1  0
 24 26  1  0
  7 27  1  0
  4 28  1  0
 27 28  1  0
M  END
