piperidine-amides-19552-covalent
     RDKit          3D

 22 23  0  0  0  0  0  0  0  0999 V2000
    7.1550   -3.2740   19.3330 C   0  0  0  0  0  0  0  0  0  0  0  0
    6.3870   -4.0290   20.3010 C   0  0  0  0  0  0  0  0  0  0  0  0
    5.3390   -4.6350   19.9150 O   0  0  0  0  0  0  0  0  0  0  0  0
    6.7900   -4.1370   21.6480 N   0  0  0  0  0  0  0  0  0  0  0  0
    6.6670   -5.4840   22.2640 C   0  0  0  0  0  0  0  0  0  0  0  0
    6.0360   -5.1320   23.6680 C   0  0  0  0  0  0  0  0  0  0  0  0
    6.2930   -3.6580   23.8610 C   0  0  0  0  0  0  0  0  0  0  0  0
    5.5990   -3.0520   25.1480 C   0  0  0  0  0  0  0  0  0  0  0  0
    5.0430   -2.0000   24.8890 O   0  0  0  0  0  0  0  0  0  0  0  0
    5.7880   -3.8320   26.1210 N   0  0  0  0  0  0  0  0  0  0  0  0
    6.2490   -4.9160   26.8290 C   0  0  0  0  0  0  0  0  0  0  0  0
    4.8930   -3.2950   27.0740 C   0  0  0  0  0  0  0  0  0  0  0  0
    5.2640   -2.1350   27.7930 C   0  0  0  0  0  0  0  0  0  0  0  0
    5.7810   -0.8450   27.2060 C   0  0  0  0  0  0  0  0  0  0  0  0
    6.1790    0.3400   28.1450 C   0  0  0  0  0  0  0  0  0  0  0  0
    6.0200    0.1250   29.5160 C   0  0  0  0  0  0  0  0  0  0  0  0
    6.3460    1.0430   30.2900 O   0  0  0  0  0  0  0  0  0  0  0  0
    7.2770    0.8640   31.2810 C   0  0  0  0  0  0  0  0  0  0  0  0
    5.5430   -1.0140   30.1030 N   0  0  0  0  0  0  0  0  0  0  0  0
    5.1790   -2.1040   29.2890 C   0  0  0  0  0  0  0  0  0  0  0  0
    7.6970   -3.2980   23.5480 C   0  0  0  0  0  0  0  0  0  0  0  0
    7.7060   -3.1610   22.1900 C   0  0  0  0  0  0  0  0  0  0  0  0
  1  2  1  0
  2  3  2  0
  2  4  1  0
  4  5  1  0
  5  6  1  0
  6  7  1  0
  7  8  1  0
  8  9  2  0
  8 10  1  0
 10 11  1  0
 10 12  1  0
 12 13  1  0
 13 14  2  0
 14 15  1  0
 15 16  2  0
 16 17  1  0
 17 18  1  0
 16 19  1  0
 13 20  1  0
 19 20  2  0
  7 21  1  0
  4 22  1  0
 21 22  1  0
M  END
