piperidine-amides-21699-covalent
     RDKit          3D

 23 26  0  0  0  0  0  0  0  0999 V2000
    7.1270   -3.2890   19.2230 C   0  0  0  0  0  0  0  0  0  0  0  0
    6.3430   -4.0080   20.2310 C   0  0  0  0  0  0  0  0  0  0  0  0
    5.2500   -4.5100   19.8630 O   0  0  0  0  0  0  0  0  0  0  0  0
    6.8510   -4.1580   21.5180 N   0  0  0  0  0  0  0  0  0  0  0  0
    6.5790   -5.3260   22.3100 C   0  0  0  0  0  0  0  0  0  0  0  0
    5.9140   -4.8820   23.5850 C   0  0  0  0  0  0  0  0  0  0  0  0
    6.6250   -3.7230   24.2480 C   0  0  0  0  0  0  0  0  0  0  0  0
    5.7930   -3.2460   25.3720 C   0  0  0  0  0  0  0  0  0  0  0  0
    4.5550   -3.1720   25.1810 O   0  0  0  0  0  0  0  0  0  0  0  0
    6.2820   -2.8690   26.6440 N   0  0  0  0  0  0  0  0  0  0  0  0
    5.6270   -3.4280   27.7980 C   0  0  0  0  0  0  0  0  0  0  0  0
    5.3420   -2.0990   28.2890 C   0  0  0  0  0  0  0  0  0  0  0  0
    5.4400   -1.7130   29.6030 C   0  0  0  0  0  0  0  0  0  0  0  0
    4.4920   -0.8200   30.0620 C   0  0  2  0  0  0  0  0  0  0  0  0
    4.5800   -0.4390   31.4080 C   0  0  0  0  0  0  0  0  0  0  0  0
    3.3690   -0.8450   31.9630 C   0  0  2  0  0  0  0  0  0  0  0  0
    3.3280   -2.2220   32.0840 C   0  0  0  0  0  0  0  0  0  0  0  0
    3.2900   -2.8410   30.6720 C   0  0  0  0  0  0  0  0  0  0  0  0
    3.2580   -1.4460   30.0280 C   0  0  1  0  0  0  0  0  0  0  0  0
    2.4780   -0.6280   30.9860 C   0  0  0  0  0  0  0  0  0  0  0  0
    6.2740   -1.5340   27.3900 C   0  0  0  0  0  0  0  0  0  0  0  0
    6.9080   -2.5920   23.3290 C   0  0  0  0  0  0  0  0  0  0  0  0
    7.6100   -3.0870   22.0960 C   0  0  0  0  0  0  0  0  0  0  0  0
  1  2  1  0
  2  3  2  0
  2  4  1  0
  4  5  1  0
  5  6  1  0
  6  7  1  0
  7  8  1  0
  8  9  2  0
  8 10  1  0
 10 11  1  0
 11 12  1  0
 12 13  1  0
 14 13  1  1
 14 15  1  0
 16 15  1  6
 16 17  1  0
 17 18  1  0
 14 19  1  0
 19 18  1  1
 16 20  1  0
 19 20  1  0
 10 21  1  0
 12 21  1  0
  7 22  1  0
  4 23  1  0
 22 23  1  0
M  END
