piperidine-amides-13400-covalent
     RDKit          3D

 23 25  0  0  0  0  0  0  0  0999 V2000
    7.0450   -3.3200   19.3270 C   0  0  0  0  0  0  0  0  0  0  0  0
    6.3360   -4.1680   20.3250 C   0  0  0  0  0  0  0  0  0  0  0  0
    5.3400   -4.8160   19.9660 O   0  0  0  0  0  0  0  0  0  0  0  0
    6.8340   -4.2510   21.6400 N   0  0  0  0  0  0  0  0  0  0  0  0
    7.6760   -3.2050   22.1790 C   0  0  0  0  0  0  0  0  0  0  0  0
    7.5450   -3.2650   23.6970 C   0  0  0  0  0  0  0  0  0  0  0  0
    6.1540   -3.7200   23.9790 C   0  0  0  0  0  0  0  0  0  0  0  0
    5.6360   -3.2090   25.2680 C   0  0  0  0  0  0  0  0  0  0  0  0
    4.4150   -3.2710   25.4310 O   0  0  0  0  0  0  0  0  0  0  0  0
    6.5130   -2.6890   26.2200 N   0  0  0  0  0  0  0  0  0  0  0  0
    6.2550   -1.6520   27.1600 C   0  0  2  0  0  0  0  0  0  0  0  0
    5.9820   -0.4960   26.6750 C   0  0  0  0  0  0  0  0  0  0  0  0
    5.5960    0.1610   27.7010 C   0  0  2  0  0  0  0  0  0  0  0  0
    5.5340    1.5430   27.6250 C   0  0  0  0  0  0  0  0  0  0  0  0
    4.9580    2.3610   26.7540 O   0  0  0  0  0  0  0  0  0  0  0  0
    6.6080   -0.2490   28.7410 C   0  0  0  0  0  0  0  0  0  0  0  0
    5.9960    1.0330   28.9570 C   0  0  0  0  0  0  0  0  0  0  0  0
    6.5080    1.5820   30.1000 C   0  0  0  0  0  0  0  0  0  0  0  0
    7.3860    0.5630   30.4470 C   0  0  0  0  0  0  0  0  0  0  0  0
    7.7430   -0.8550   29.7650 C   0  0  0  0  0  0  0  0  0  0  0  0
    7.1620   -1.6170   28.3770 C   0  0  0  0  0  0  0  0  0  0  0  0
    6.1390   -5.1800   23.8010 C   0  0  0  0  0  0  0  0  0  0  0  0
    6.6710   -5.4790   22.3810 C   0  0  0  0  0  0  0  0  0  0  0  0
  1  2  1  0
  2  3  2  0
  2  4  1  0
  4  5  1  0
  5  6  1  0
  6  7  1  0
  7  8  1  0
  8  9  2  0
  8 10  1  0
 11 10  1  6
 11 12  1  0
 12 13  1  0
 13 14  1  6
 14 15  1  0
 13 16  1  0
 16 17  1  0
 17 18  2  0
 18 19  1  0
 19 20  2  0
 11 21  1  0
 16 21  2  0
 20 21  1  0
  7 22  1  0
  4 23  1  0
 22 23  1  0
M  END
