piperidine-amides-25383-covalent
     RDKit          3D

 25 27  0  0  0  0  0  0  0  0999 V2000
    7.0760   -3.3880   19.3910 C   0  0  0  0  0  0  0  0  0  0  0  0
    6.3940   -4.2500   20.3820 C   0  0  0  0  0  0  0  0  0  0  0  0
    5.3870   -4.8440   19.9920 O   0  0  0  0  0  0  0  0  0  0  0  0
    6.9250   -4.4000   21.6730 N   0  0  0  0  0  0  0  0  0  0  0  0
    6.6390   -5.5880   22.4520 C   0  0  0  0  0  0  0  0  0  0  0  0
    6.1860   -5.2050   23.8480 C   0  0  0  0  0  0  0  0  0  0  0  0
    6.0650   -3.6860   23.9350 C   0  0  0  0  0  0  0  0  0  0  0  0
    5.5090   -3.2150   25.2220 C   0  0  0  0  0  0  0  0  0  0  0  0
    4.8520   -2.1710   25.2070 O   0  0  0  0  0  0  0  0  0  0  0  0
    5.6450   -3.8660   26.4590 N   0  0  0  0  0  0  0  0  0  0  0  0
    6.4150   -3.1740   27.4190 C   0  0  0  0  0  0  0  0  0  0  0  0
    6.7030   -4.2250   28.4620 C   0  0  0  0  0  0  0  0  0  0  0  0
    5.7640   -4.5800   29.3330 C   0  0  0  0  0  0  0  0  0  0  0  0
    4.9460   -3.6010   29.8010 C   0  0  0  0  0  0  0  0  0  0  0  0
    4.9160   -2.2730   29.7490 C   0  0  0  0  0  0  0  0  0  0  0  0
    3.8020   -1.5960   30.4270 C   0  0  0  0  0  0  0  0  0  0  0  0
    3.5650   -0.1160   30.5030 C   0  0  0  0  0  0  0  0  0  0  0  0
    2.5960   -1.9760   31.2200 C   0  0  0  0  0  0  0  0  0  0  0  0
    2.6820   -3.5060   31.2490 C   0  0  0  0  0  0  0  0  0  0  0  0
    3.8010   -4.3260   30.5780 C   0  0  0  0  0  0  0  0  0  0  0  0
    3.7500   -5.8460   30.7080 C   0  0  0  0  0  0  0  0  0  0  0  0
    4.8730   -5.2560   28.2980 C   0  0  0  0  0  0  0  0  0  0  0  0
    4.4930   -4.2410   27.2430 C   0  0  0  0  0  0  0  0  0  0  0  0
    7.4140   -3.1010   23.6590 C   0  0  0  0  0  0  0  0  0  0  0  0
    7.7110   -3.3090   22.2060 C   0  0  0  0  0  0  0  0  0  0  0  0
  1  2  1  0
  2  3  2  0
  2  4  1  0
  4  5  1  0
  5  6  1  0
  6  7  1  0
  7  8  1  0
  8  9  2  0
  8 10  1  0
 10 11  1  0
 11 12  1  0
 12 13  1  0
 13 14  1  0
 14 15  2  0
 15 16  1  0
 16 17  1  0
 16 18  2  0
 18 19  1  0
 14 20  1  0
 19 20  2  0
 20 21  1  0
 13 22  1  0
 10 23  1  0
 22 23  1  0
  7 24  1  0
  4 25  1  0
 24 25  1  0
M  END
