piperidine-amides-19599-covalent
     RDKit          3D

 22 24  0  0  0  0  0  0  0  0999 V2000
    7.0870   -3.3710   19.4940 C   0  0  0  0  0  0  0  0  0  0  0  0
    6.4100   -4.2420   20.4340 C   0  0  0  0  0  0  0  0  0  0  0  0
    5.4350   -4.9440   20.0070 O   0  0  0  0  0  0  0  0  0  0  0  0
    6.8130   -4.3510   21.7830 N   0  0  0  0  0  0  0  0  0  0  0  0
    6.4330   -5.5590   22.5250 C   0  0  0  0  0  0  0  0  0  0  0  0
    5.4170   -4.9160   23.5380 C   0  0  0  0  0  0  0  0  0  0  0  0
    6.1760   -3.8770   24.3440 C   0  0  0  0  0  0  0  0  0  0  0  0
    5.2120   -3.4180   25.5540 C   0  0  0  0  0  0  0  0  0  0  0  0
    4.3130   -2.7360   25.0930 O   0  0  0  0  0  0  0  0  0  0  0  0
    5.6150   -3.8730   26.6940 N   0  0  0  0  0  0  0  0  0  0  0  0
    6.2820   -4.6180   27.5900 C   0  0  0  0  0  0  0  0  0  0  0  0
    6.2270   -5.4020   28.6870 C   0  0  0  0  0  0  0  0  0  0  0  0
    4.9920   -5.0250   29.2950 N   0  0  0  0  0  0  0  0  0  0  0  0
    4.1850   -5.5020   30.1940 C   0  0  0  0  0  0  0  0  0  0  0  0
    4.6210   -6.7900   30.7920 C   0  0  0  0  0  0  0  0  0  0  0  0
    4.3530   -7.5190   29.4620 C   0  0  0  0  0  0  0  0  0  0  0  0
    3.1320   -4.6770   30.3550 N   0  0  0  0  0  0  0  0  0  0  0  0
    3.3270   -3.6220   29.4880 N   0  0  0  0  0  0  0  0  0  0  0  0
    4.5010   -3.8300   28.8130 C   0  0  0  0  0  0  0  0  0  0  0  0
    5.1750   -3.0750   27.8200 C   0  0  0  0  0  0  0  0  0  0  0  0
    6.9010   -2.8410   23.6290 C   0  0  0  0  0  0  0  0  0  0  0  0
    7.7040   -3.4870   22.4480 C   0  0  0  0  0  0  0  0  0  0  0  0
  1  2  1  0
  2  3  2  0
  2  4  1  0
  4  5  1  0
  5  6  1  0
  6  7  1  0
  7  8  1  0
  8  9  2  0
  8 10  1  0
 10 11  1  0
 11 12  1  0
 12 13  1  0
 13 14  1  0
 14 15  1  0
 15 16  1  0
 14 17  2  0
 17 18  1  0
 13 19  1  0
 18 19  2  0
 10 20  1  0
 19 20  1  0
  7 21  1  0
  4 22  1  0
 21 22  1  0
M  END
