piperidine-amides-1851-covalent
     RDKit          3D

 18 19  0  0  0  0  0  0  0  0999 V2000
    7.0660   -3.3060   19.2310 C   0  0  0  0  0  0  0  0  0  0  0  0
    6.3610   -4.1300   20.2460 C   0  0  0  0  0  0  0  0  0  0  0  0
    5.2990   -4.6450   19.9150 O   0  0  0  0  0  0  0  0  0  0  0  0
    6.9400   -4.3440   21.4940 N   0  0  0  0  0  0  0  0  0  0  0  0
    7.6760   -3.3050   22.1700 C   0  0  0  0  0  0  0  0  0  0  0  0
    6.8300   -2.7740   23.2780 C   0  0  0  0  0  0  0  0  0  0  0  0
    6.5000   -3.9280   24.2080 C   0  0  0  0  0  0  0  0  0  0  0  0
    5.8150   -3.3290   25.3650 C   0  0  0  0  0  0  0  0  0  0  0  0
    4.5790   -3.4130   25.5090 O   0  0  0  0  0  0  0  0  0  0  0  0
    6.5920   -2.6260   26.2980 N   0  0  0  0  0  0  0  0  0  0  0  0
    5.9250   -1.8150   27.2720 C   0  0  2  0  0  0  0  0  0  0  0  0
    5.9990   -0.4010   26.7710 C   0  0  0  0  0  0  0  0  0  0  0  0
    6.1420    0.7380   27.5040 C   0  0  0  0  0  0  0  0  0  0  0  0
    6.2280    0.5960   28.8620 C   0  0  0  0  0  0  0  0  0  0  0  0
    6.8490   -0.5950   29.1910 C   0  0  0  0  0  0  0  0  0  0  0  0
    6.3670   -1.8780   28.5660 C   0  0  0  0  0  0  0  0  0  0  0  0
    5.7570   -5.0200   23.5130 C   0  0  0  0  0  0  0  0  0  0  0  0
    6.4730   -5.4660   22.2760 C   0  0  0  0  0  0  0  0  0  0  0  0
  1  2  1  0
  2  3  2  0
  2  4  1  0
  4  5  1  0
  5  6  1  0
  6  7  1  0
  7  8  1  0
  8  9  2  0
  8 10  1  0
 11 10  1  6
 11 12  1  0
 12 13  2  0
 13 14  1  0
 14 15  1  0
 11 16  1  0
 15 16  1  0
  7 17  1  0
  4 18  1  0
 17 18  1  0
M  END
