piperidine-amides-14158-covalent
     RDKit          3D

 24 26  0  0  0  0  0  0  0  0999 V2000
    7.1010   -3.2580   19.2510 C   0  0  0  0  0  0  0  0  0  0  0  0
    6.3250   -4.0360   20.2600 C   0  0  0  0  0  0  0  0  0  0  0  0
    5.2730   -4.5920   19.8990 O   0  0  0  0  0  0  0  0  0  0  0  0
    6.8100   -4.1680   21.5800 N   0  0  0  0  0  0  0  0  0  0  0  0
    6.5560   -5.3860   22.3250 C   0  0  0  0  0  0  0  0  0  0  0  0
    6.3920   -5.0700   23.8250 C   0  0  0  0  0  0  0  0  0  0  0  0
    6.2310   -3.5970   24.0270 C   0  0  0  0  0  0  0  0  0  0  0  0
    5.6850   -3.2490   25.3580 C   0  0  0  0  0  0  0  0  0  0  0  0
    4.4520   -3.2240   25.4400 O   0  0  0  0  0  0  0  0  0  0  0  0
    6.5260   -2.9650   26.4380 N   0  0  0  0  0  0  0  0  0  0  0  0
    6.2700   -3.2470   27.8120 C   0  0  0  0  0  0  0  0  0  0  0  0
    5.8300   -2.3070   28.7140 C   0  0  0  0  0  0  0  0  0  0  0  0
    4.4750   -2.0180   29.0150 C   0  0  0  0  0  0  0  0  0  0  0  0
    4.0610   -1.0690   29.9300 C   0  0  0  0  0  0  0  0  0  0  0  0
    5.0690   -0.2860   30.6640 C   0  0  0  0  0  0  0  0  0  0  0  0
    6.5250   -0.5710   30.3680 C   0  0  0  0  0  0  0  0  0  0  0  0
    7.4290    0.3210   31.2180 C   0  0  0  0  0  0  0  0  0  0  0  0
    8.7700    0.1910   31.1450 C   0  0  0  0  0  0  0  0  0  0  0  0
    9.3070    1.1630   32.0600 C   0  0  0  0  0  0  0  0  0  0  0  0
    8.2020    1.8650   32.6650 N   0  0  0  0  0  0  0  0  0  0  0  0
    7.0840    1.3020   32.1040 N   0  0  0  0  0  0  0  0  0  0  0  0
    6.8880   -1.5210   29.4470 C   0  0  0  0  0  0  0  0  0  0  0  0
    7.5040   -2.9920   23.6490 C   0  0  0  0  0  0  0  0  0  0  0  0
    7.6770   -3.1580   22.1390 C   0  0  0  0  0  0  0  0  0  0  0  0
  1  2  1  0
  2  3  2  0
  2  4  1  0
  4  5  1  0
  5  6  1  0
  6  7  1  0
  7  8  1  0
  8  9  2  0
  8 10  1  0
 10 11  1  0
 11 12  1  0
 12 13  2  0
 13 14  1  0
 14 15  2  0
 15 16  1  0
 16 17  1  0
 17 18  1  0
 18 19  2  0
 19 20  1  0
 17 21  2  0
 20 21  1  0
 12 22  1  0
 16 22  2  0
  7 23  1  0
  4 24  1  0
 23 24  1  0
M  END
