piperidine-amides-10033-covalent
     RDKit          3D

 26 28  0  0  0  0  0  0  0  0999 V2000
    7.0680   -3.3240   19.2820 C   0  0  0  0  0  0  0  0  0  0  0  0
    6.3710   -4.1450   20.2820 C   0  0  0  0  0  0  0  0  0  0  0  0
    5.2990   -4.6870   19.9190 O   0  0  0  0  0  0  0  0  0  0  0  0
    6.9170   -4.3450   21.5470 N   0  0  0  0  0  0  0  0  0  0  0  0
    7.7900   -3.3620   22.1380 C   0  0  0  0  0  0  0  0  0  0  0  0
    7.1300   -2.8200   23.3510 C   0  0  0  0  0  0  0  0  0  0  0  0
    6.7170   -3.9060   24.2960 C   0  0  0  0  0  0  0  0  0  0  0  0
    6.0590   -3.2790   25.4470 C   0  0  0  0  0  0  0  0  0  0  0  0
    4.8070   -3.1870   25.4790 O   0  0  0  0  0  0  0  0  0  0  0  0
    6.8480   -2.7970   26.4990 N   0  0  0  0  0  0  0  0  0  0  0  0
    6.6500   -1.5200   27.1480 C   0  0  0  0  0  0  0  0  0  0  0  0
    6.9840   -1.5950   28.6220 C   0  0  0  0  0  0  0  0  0  0  0  0
    6.8760   -0.5160   29.4550 C   0  0  0  0  0  0  0  0  0  0  0  0
    6.4480    0.6970   28.9610 C   0  0  0  0  0  0  0  0  0  0  0  0
    6.2760    2.1270   29.9460 Cl  0  0  0  0  0  0  0  0  0  0  0  0
    6.1460    0.7680   27.6100 C   0  0  0  0  0  0  0  0  0  0  0  0
    6.2220   -0.2510   26.6770 C   0  0  0  0  0  0  0  0  0  0  0  0
    5.8910    0.0510   25.3730 C   0  0  0  0  0  0  0  0  0  0  0  0
    6.8580   -0.4100   24.2700 C   0  0  0  0  0  0  0  0  0  0  0  0
    6.4160   -0.0050   22.8520 C   0  0  0  0  0  0  0  0  0  0  0  0
    5.1480    0.7630   22.7090 C   0  0  0  0  0  0  0  0  0  0  0  0
    4.3160    1.1360   23.8820 C   0  0  0  0  0  0  0  0  0  0  0  0
    4.7090    0.7720   25.1380 C   0  0  0  0  0  0  0  0  0  0  0  0
    3.6920    1.2410   26.4820 Cl  0  0  0  0  0  0  0  0  0  0  0  0
    5.8010   -4.8840   23.5800 C   0  0  0  0  0  0  0  0  0  0  0  0
    6.5310   -5.4700   22.3790 C   0  0  0  0  0  0  0  0  0  0  0  0
  1  2  1  0
  2  3  2  0
  2  4  1  0
  4  5  1  0
  5  6  1  0
  6  7  1  0
  7  8  1  0
  8  9  2  0
  8 10  1  0
 10 11  1  0
 11 12  2  0
 12 13  1  0
 13 14  2  0
 14 15  1  0
 14 16  1  0
 11 17  1  0
 16 17  2  0
 17 18  1  0
 18 19  2  0
 19 20  1  0
 20 21  2  0
 21 22  1  0
 18 23  1  0
 22 23  2  0
 23 24  1  0
  7 25  1  0
  4 26  1  0
 25 26  1  0
M  END
