piperidine-amides-11784-covalent
     RDKit          3D

 27 29  0  0  0  0  0  0  0  0999 V2000
    7.0360   -3.3610   19.3400 C   0  0  0  0  0  0  0  0  0  0  0  0
    6.3700   -4.2120   20.3210 C   0  0  0  0  0  0  0  0  0  0  0  0
    5.3680   -4.8440   19.9840 O   0  0  0  0  0  0  0  0  0  0  0  0
    6.9020   -4.3640   21.6500 N   0  0  0  0  0  0  0  0  0  0  0  0
    7.7030   -3.3030   22.2320 C   0  0  0  0  0  0  0  0  0  0  0  0
    7.4400   -3.2140   23.7050 C   0  0  0  0  0  0  0  0  0  0  0  0
    6.0040   -3.6540   23.8700 C   0  0  0  0  0  0  0  0  0  0  0  0
    5.4130   -3.3050   25.1940 C   0  0  0  0  0  0  0  0  0  0  0  0
    4.1900   -3.3780   25.4100 O   0  0  0  0  0  0  0  0  0  0  0  0
    6.2550   -2.8840   26.2360 N   0  0  0  0  0  0  0  0  0  0  0  0
    6.1980   -1.5270   26.7530 C   0  0  0  0  0  0  0  0  0  0  0  0
    6.7560   -0.7080   25.6230 C   0  0  2  0  0  0  0  0  0  0  0  0
    6.7200    0.5060   26.2650 O   0  0  0  0  0  0  0  0  0  0  0  0
    6.1180   -0.1550   24.5140 C   0  0  0  0  0  0  0  0  0  0  0  0
    6.1330   -0.8290   23.2600 C   0  0  0  0  0  0  0  0  0  0  0  0
    5.5360   -0.2710   22.1450 C   0  0  0  0  0  0  0  0  0  0  0  0
    4.8990    1.0060   22.2830 C   0  0  0  0  0  0  0  0  0  0  0  0
    4.3420    1.4900   21.1330 F   0  0  0  0  0  0  0  0  0  0  0  0
    4.8630    1.6600   23.4620 C   0  0  0  0  0  0  0  0  0  0  0  0
    5.4640    1.0870   24.5600 C   0  0  0  0  0  0  0  0  0  0  0  0
    6.9670   -1.3980   27.8900 C   0  0  0  0  0  0  0  0  0  0  0  0
    6.5960   -0.4590   28.9480 C   0  0  0  0  0  0  0  0  0  0  0  0
    5.9780    0.7030   28.5540 C   0  0  0  0  0  0  0  0  0  0  0  0
    4.9590    0.4190   27.6610 C   0  0  0  0  0  0  0  0  0  0  0  0
    4.9530   -0.9680   27.0870 C   0  0  0  0  0  0  0  0  0  0  0  0
    5.8490   -5.1220   23.6540 C   0  0  0  0  0  0  0  0  0  0  0  0
    6.6070   -5.5490   22.4110 C   0  0  0  0  0  0  0  0  0  0  0  0
  1  2  1  0
  2  3  2  0
  2  4  1  0
  4  5  1  0
  5  6  1  0
  6  7  1  0
  7  8  1  0
  8  9  2  0
  8 10  1  0
 11 10  1  0
 11 12  1  0
 12 13  1  1
 12 14  1  0
 14 15  2  0
 15 16  1  0
 16 17  2  0
 17 18  1  0
 17 19  1  0
 14 20  1  0
 19 20  2  0
 11 21  1  0
 21 22  1  0
 22 23  1  0
 23 24  1  0
 11 25  1  0
 24 25  1  0
  7 26  1  0
  4 27  1  0
 26 27  1  0
M  END
