piperidine-amides-2115-covalent
     RDKit          3D

 32 35  0  0  0  0  0  0  0  0999 V2000
    7.1140   -3.2680   19.2270 C   0  0  0  0  0  0  0  0  0  0  0  0
    6.3280   -4.0310   20.2290 C   0  0  0  0  0  0  0  0  0  0  0  0
    5.2600   -4.5080   19.8610 O   0  0  0  0  0  0  0  0  0  0  0  0
    6.8190   -4.2330   21.5180 N   0  0  0  0  0  0  0  0  0  0  0  0
    6.3790   -5.3690   22.2780 C   0  0  0  0  0  0  0  0  0  0  0  0
    5.5120   -4.8810   23.4040 C   0  0  0  0  0  0  0  0  0  0  0  0
    6.3470   -3.9480   24.2800 C   0  0  0  0  0  0  0  0  0  0  0  0
    5.4370   -3.3370   25.2770 C   0  0  0  0  0  0  0  0  0  0  0  0
    4.7610   -2.3580   24.9520 O   0  0  0  0  0  0  0  0  0  0  0  0
    5.3190   -3.8430   26.5910 N   0  0  0  0  0  0  0  0  0  0  0  0
    6.3520   -3.5430   27.5390 C   0  0  0  0  0  0  0  0  0  0  0  0
    5.7950   -2.7370   28.6930 C   0  0  0  0  0  0  0  0  0  0  0  0
    6.4430   -1.5290   28.9260 C   0  0  0  0  0  0  0  0  0  0  0  0
    6.0990   -0.6860   29.8920 C   0  0  0  0  0  0  0  0  0  0  0  0
    5.0850   -1.0800   30.6250 C   0  0  0  0  0  0  0  0  0  0  0  0
    4.2530   -2.3070   30.5670 C   0  0  0  0  0  0  0  0  0  0  0  0
    4.6190   -3.3030   29.4740 C   0  0  0  0  0  0  0  0  0  0  0  0
    3.8570   -4.5960   29.3120 C   0  0  0  0  0  0  0  0  0  0  0  0
    4.1690   -5.4120   30.2680 N   0  0  0  0  0  0  0  0  0  0  0  0
    3.2220   -5.2560   31.3670 C   0  0  0  0  0  0  0  0  0  0  0  0
    1.9070   -5.9620   31.3360 C   0  0  0  0  0  0  0  0  0  0  0  0
    2.2200   -7.3060   30.8050 N   0  0  0  0  0  0  0  0  0  0  0  0
    1.7140   -8.4620   31.4390 C   0  0  0  0  0  0  0  0  0  0  0  0
    2.0600   -8.7550   32.8640 C   0  0  0  0  0  0  0  0  0  0  0  0
    1.5640   -9.9560   33.6090 C   0  0  0  0  0  0  0  0  0  0  0  0
    0.7500  -10.8580   32.9870 C   0  0  0  0  0  0  0  0  0  0  0  0
    0.3560  -10.6380   31.5550 C   0  0  0  0  0  0  0  0  0  0  0  0
    0.8820   -9.3900   30.8150 C   0  0  0  0  0  0  0  0  0  0  0  0
    2.9490   -7.2890   29.5560 C   0  0  0  0  0  0  0  0  0  0  0  0
    4.1970   -6.7990   29.8090 C   0  0  0  0  0  0  0  0  0  0  0  0
    7.1280   -2.9230   23.5800 C   0  0  0  0  0  0  0  0  0  0  0  0
    7.5960   -3.2480   22.2040 C   0  0  0  0  0  0  0  0  0  0  0  0
  1  2  1  0
  2  3  2  0
  2  4  1  0
  4  5  1  0
  5  6  1  0
  6  7  1  0
  7  8  1  0
  8  9  2  0
  8 10  1  0
 10 11  1  0
 11 12  1  0
 12 13  2  0
 13 14  1  0
 14 15  2  0
 15 16  1  0
 12 17  1  0
 16 17  2  0
 17 18  1  0
 18 19  1  0
 19 20  1  0
 20 21  1  0
 21 22  1  0
 22 23  1  0
 23 24  2  0
 24 25  1  0
 25 26  2  0
 26 27  1  0
 23 28  1  0
 27 28  2  0
 22 29  1  0
 19 30  1  0
 29 30  1  0
  7 31  1  0
  4 32  1  0
 31 32  1  0
M  END
