piperidine-amides-24306-covalent
     RDKit          3D

 24 25  0  0  0  0  0  0  0  0999 V2000
    7.1030   -3.3230   19.2990 C   0  0  0  0  0  0  0  0  0  0  0  0
    6.3700   -4.1190   20.2950 C   0  0  0  0  0  0  0  0  0  0  0  0
    5.3360   -4.7370   19.9560 O   0  0  0  0  0  0  0  0  0  0  0  0
    6.8430   -4.2350   21.6110 N   0  0  0  0  0  0  0  0  0  0  0  0
    7.6760   -3.2060   22.1900 C   0  0  0  0  0  0  0  0  0  0  0  0
    6.9210   -2.6560   23.4010 C   0  0  0  0  0  0  0  0  0  0  0  0
    6.5090   -3.8480   24.2510 C   0  0  0  0  0  0  0  0  0  0  0  0
    5.7140   -3.3810   25.4140 C   0  0  0  0  0  0  0  0  0  0  0  0
    4.7220   -2.6580   25.1790 O   0  0  0  0  0  0  0  0  0  0  0  0
    6.0560   -3.7420   26.7520 N   0  0  0  0  0  0  0  0  0  0  0  0
    6.3940   -2.7010   27.6900 C   0  0  0  0  0  0  0  0  0  0  0  0
    5.7540   -5.1050   27.1950 C   0  0  0  0  0  0  0  0  0  0  0  0
    5.1200   -5.1410   28.4140 C   0  0  0  0  0  0  0  0  0  0  0  0
    3.8600   -4.5620   28.5540 C   0  0  0  0  0  0  0  0  0  0  0  0
    3.2050   -4.6380   29.8270 N   0  0  0  0  0  0  0  0  0  0  0  0
    3.8130   -5.2600   30.8910 C   0  0  0  0  0  0  0  0  0  0  0  0
    3.1690   -5.3010   32.1030 C   0  0  0  0  0  0  0  0  0  0  0  0
    5.1780   -5.8960   30.7730 C   0  0  0  0  0  0  0  0  0  0  0  0
    5.7520   -6.4450   31.7480 O   0  0  0  0  0  0  0  0  0  0  0  0
    5.5910   -7.8070   32.0260 C   0  0  0  0  0  0  0  0  0  0  0  0
    5.7640   -5.7800   29.4440 C   0  0  0  0  0  0  0  0  0  0  0  0
    7.0160   -6.3220   29.2110 O   0  0  0  0  0  0  0  0  0  0  0  0
    5.6790   -4.8320   23.4480 C   0  0  0  0  0  0  0  0  0  0  0  0
    6.4960   -5.3600   22.4370 C   0  0  0  0  0  0  0  0  0  0  0  0
  1  2  1  0
  2  3  2  0
  2  4  1  0
  4  5  1  0
  5  6  1  0
  6  7  1  0
  7  8  1  0
  8  9  2  0
  8 10  1  0
 10 11  1  0
 10 12  1  0
 12 13  1  0
 13 14  2  0
 14 15  1  0
 15 16  1  0
 16 17  1  0
 16 18  2  0
 18 19  1  0
 19 20  1  0
 13 21  1  0
 18 21  1  0
 21 22  2  0
  7 23  1  0
  4 24  1  0
 23 24  1  0
M  END
