piperidine-amides-9109-covalent
     RDKit          3D

 21 22  0  0  0  0  0  0  0  0999 V2000
    7.1420   -3.3130   19.2700 C   0  0  0  0  0  0  0  0  0  0  0  0
    6.3580   -4.0600   20.2500 C   0  0  0  0  0  0  0  0  0  0  0  0
    5.2830   -4.5720   19.8990 O   0  0  0  0  0  0  0  0  0  0  0  0
    6.8280   -4.2640   21.5580 N   0  0  0  0  0  0  0  0  0  0  0  0
    6.5800   -5.4650   22.3180 C   0  0  0  0  0  0  0  0  0  0  0  0
    6.4170   -5.0070   23.7480 C   0  0  0  0  0  0  0  0  0  0  0  0
    5.8970   -3.6000   23.8370 C   0  0  0  0  0  0  0  0  0  0  0  0
    5.5610   -3.1870   25.2160 C   0  0  0  0  0  0  0  0  0  0  0  0
    4.3750   -2.8520   25.5000 O   0  0  0  0  0  0  0  0  0  0  0  0
    6.5020   -3.1440   26.2620 N   0  0  0  0  0  0  0  0  0  0  0  0
    6.6710   -4.2950   27.1780 C   0  0  0  0  0  0  0  0  0  0  0  0
    5.4220   -5.0850   27.2230 C   0  0  0  0  0  0  0  0  0  0  0  0
    4.7520   -4.8730   28.3750 N   0  0  0  0  0  0  0  0  0  0  0  0
    3.7810   -3.9440   28.7880 C   0  0  0  0  0  0  0  0  0  0  0  0
    3.4660   -4.2860   30.1920 C   0  0  0  0  0  0  0  0  0  0  0  0
    4.2450   -5.3900   30.5710 N   0  0  0  0  0  0  0  0  0  0  0  0
    5.0220   -5.7670   29.5260 C   0  0  0  0  0  0  0  0  0  0  0  0
    6.0350   -6.8110   29.2580 C   0  0  0  0  0  0  0  0  0  0  0  0
    7.1300   -6.2230   28.6660 C   0  0  0  0  0  0  0  0  0  0  0  0
    6.8450   -2.5920   23.2390 C   0  0  0  0  0  0  0  0  0  0  0  0
    7.6810   -3.2770   22.1910 C   0  0  0  0  0  0  0  0  0  0  0  0
  1  2  1  0
  2  3  2  0
  2  4  1  0
  4  5  1  0
  5  6  1  0
  6  7  1  0
  7  8  1  0
  8  9  2  0
  8 10  1  0
 10 11  1  0
 11 12  1  0
 12 13  1  0
 13 14  1  0
 14 15  2  0
 15 16  1  0
 13 17  1  0
 16 17  2  0
 17 18  1  0
 18 19  1  0
  7 20  1  0
  4 21  1  0
 20 21  1  0
M  END
