piperidine-amides-30202-covalent
     RDKit          3D

 27 29  0  0  0  0  0  0  0  0999 V2000
    7.0610   -3.3630   19.3940 C   0  0  0  0  0  0  0  0  0  0  0  0
    6.3920   -4.2390   20.3470 C   0  0  0  0  0  0  0  0  0  0  0  0
    5.4020   -4.8800   19.9940 O   0  0  0  0  0  0  0  0  0  0  0  0
    6.9200   -4.3920   21.6810 N   0  0  0  0  0  0  0  0  0  0  0  0
    7.7560   -3.3450   22.2510 C   0  0  0  0  0  0  0  0  0  0  0  0
    7.3500   -3.0680   23.6660 C   0  0  0  0  0  0  0  0  0  0  0  0
    5.9980   -3.7190   23.8040 C   0  0  0  0  0  0  0  0  0  0  0  0
    5.2390   -3.2220   24.9860 C   0  0  0  0  0  0  0  0  0  0  0  0
    4.3790   -2.3450   24.8530 O   0  0  0  0  0  0  0  0  0  0  0  0
    5.4420   -3.6910   26.2930 N   0  0  0  0  0  0  0  0  0  0  0  0
    4.2150   -3.8590   27.0220 C   0  0  0  0  0  0  0  0  0  0  0  0
    4.3940   -3.1610   28.3260 C   0  0  0  0  0  0  0  0  0  0  0  0
    5.3860   -3.5200   29.0900 N   0  0  0  0  0  0  0  0  0  0  0  0
    4.8410   -4.4350   29.8890 C   0  0  0  0  0  0  0  0  0  0  0  0
    3.6550   -4.2690   30.6410 C   0  0  0  0  0  0  0  0  0  0  0  0
    3.1560   -5.2540   31.4530 C   0  0  0  0  0  0  0  0  0  0  0  0
    3.7980   -6.5260   31.6020 C   0  0  0  0  0  0  0  0  0  0  0  0
    3.2920   -7.4020   32.3690 O   0  0  0  0  0  0  0  0  0  0  0  0
    2.5320   -8.3280   31.6570 C   0  0  0  0  0  0  0  0  0  0  0  0
    4.9280   -6.7240   30.9040 C   0  0  0  0  0  0  0  0  0  0  0  0
    5.5280   -7.7990   30.9930 O   0  0  0  0  0  0  0  0  0  0  0  0
    6.1860   -7.9830   29.8150 C   0  0  0  0  0  0  0  0  0  0  0  0
    5.4310   -5.6550   30.0470 C   0  0  0  0  0  0  0  0  0  0  0  0
    6.4610   -3.9430   28.2780 C   0  0  0  0  0  0  0  0  0  0  0  0
    6.4300   -3.1300   27.1320 C   0  0  0  0  0  0  0  0  0  0  0  0
    6.1190   -5.2160   23.7970 C   0  0  0  0  0  0  0  0  0  0  0  0
    6.7020   -5.6150   22.4300 C   0  0  0  0  0  0  0  0  0  0  0  0
  1  2  1  0
  2  3  2  0
  2  4  1  0
  4  5  1  0
  5  6  1  0
  6  7  1  0
  7  8  1  0
  8  9  2  0
  8 10  1  0
 10 11  1  0
 11 12  1  0
 12 13  1  0
 13 14  1  0
 14 15  2  0
 15 16  1  0
 16 17  2  0
 17 18  1  0
 18 19  1  0
 17 20  1  0
 20 21  1  0
 21 22  1  0
 14 23  1  0
 20 23  2  0
 13 24  1  0
 10 25  1  0
 24 25  1  0
  7 26  1  0
  4 27  1  0
 26 27  1  0
M  END
