piperidine-amides-18940-covalent
     RDKit          3D

 21 21  0  0  0  0  0  0  0  0999 V2000
    7.1290   -3.3530   19.2400 C   0  0  0  0  0  0  0  0  0  0  0  0
    6.4410   -4.0820   20.2760 C   0  0  0  0  0  0  0  0  0  0  0  0
    5.3550   -4.6580   19.9460 O   0  0  0  0  0  0  0  0  0  0  0  0
    6.9590   -4.2400   21.5830 N   0  0  0  0  0  0  0  0  0  0  0  0
    6.6070   -5.4630   22.3130 C   0  0  0  0  0  0  0  0  0  0  0  0
    5.5590   -4.8120   23.2770 C   0  0  0  0  0  0  0  0  0  0  0  0
    6.3100   -3.7870   24.1140 C   0  0  0  0  0  0  0  0  0  0  0  0
    5.3320   -3.3470   25.2880 C   0  0  0  0  0  0  0  0  0  0  0  0
    4.1890   -3.3340   24.8520 O   0  0  0  0  0  0  0  0  0  0  0  0
    5.9240   -3.1060   26.3930 N   0  0  0  0  0  0  0  0  0  0  0  0
    6.4600   -2.3000   27.3590 C   0  0  0  0  0  0  0  0  0  0  0  0
    6.7720   -2.3490   28.6900 C   0  0  0  0  0  0  0  0  0  0  0  0
    5.6510   -2.1830   29.5140 O   0  0  0  0  0  0  0  0  0  0  0  0
    5.5810   -4.4050   27.0220 C   0  0  1  0  0  0  0  0  0  0  0  0
    5.8420   -5.6430   26.2690 C   0  0  0  0  0  0  0  0  0  0  0  0
    6.2530   -4.5700   28.3480 C   0  0  1  0  0  0  0  0  0  0  0  0
    5.3970   -5.2080   29.2330 C   0  0  0  0  0  0  0  0  0  0  0  0
    6.3950   -6.0950   28.4900 C   0  0  0  0  0  0  0  0  0  0  0  0
    5.0680   -6.8540   28.3050 C   0  0  0  0  0  0  0  0  0  0  0  0
    6.9480   -2.7020   23.2910 C   0  0  0  0  0  0  0  0  0  0  0  0
    7.6970   -3.2140   22.2610 C   0  0  0  0  0  0  0  0  0  0  0  0
  1  2  1  0
  2  3  2  0
  2  4  1  0
  4  5  1  0
  5  6  1  0
  6  7  1  0
  7  8  1  0
  8  9  2  0
  8 10  1  0
 10 11  1  0
 11 12  1  0
 12 13  1  0
 10 14  1  0
 14 15  1  6
 14 16  1  0
 16 17  1  1
 16 18  1  0
 18 19  1  0
  7 20  1  0
  4 21  1  0
 20 21  1  0
M  END
