piperidine-amides-19518-covalent
     RDKit          3D

 22 25  0  0  0  0  0  0  0  0999 V2000
    6.9850   -3.4160   19.4150 C   0  0  0  0  0  0  0  0  0  0  0  0
    6.3500   -4.2280   20.4350 C   0  0  0  0  0  0  0  0  0  0  0  0
    5.4310   -5.0040   20.0230 O   0  0  0  0  0  0  0  0  0  0  0  0
    6.7060   -4.2340   21.8190 N   0  0  0  0  0  0  0  0  0  0  0  0
    6.5980   -5.5470   22.5170 C   0  0  0  0  0  0  0  0  0  0  0  0
    6.0110   -5.1870   23.9600 C   0  0  0  0  0  0  0  0  0  0  0  0
    6.0640   -3.6840   24.0990 C   0  0  0  0  0  0  0  0  0  0  0  0
    5.2840   -3.0190   25.3620 C   0  0  0  0  0  0  0  0  0  0  0  0
    4.4820   -2.2160   24.9280 O   0  0  0  0  0  0  0  0  0  0  0  0
    5.6580   -3.4700   26.5020 N   0  0  0  0  0  0  0  0  0  0  0  0
    6.4100   -3.9130   27.5520 C   0  0  0  0  0  0  0  0  0  0  0  0
    6.3040   -4.4710   28.7770 C   0  0  2  0  0  0  0  0  0  0  0  0
    6.1720   -5.8990   29.0980 C   0  0  1  0  0  0  0  0  0  0  0  0
    5.4470   -6.3250   30.3730 C   0  0  0  0  0  0  0  0  0  0  0  0
    4.3430   -5.2950   30.1050 C   0  0  0  0  0  0  0  0  0  0  0  0
    4.5620   -5.9730   28.9630 C   0  0  1  0  0  0  0  0  0  0  0  0
    3.6410   -6.4960   28.1790 C   0  0  0  0  0  0  0  0  0  0  0  0
    5.1980   -6.8190   28.2300 C   0  0  0  0  0  0  0  0  0  0  0  0
    5.2520   -5.0440   28.1150 C   0  0  1  0  0  0  0  0  0  0  0  0
    4.6870   -3.9860   27.4860 C   0  0  0  0  0  0  0  0  0  0  0  0
    7.3870   -3.0650   23.6890 C   0  0  0  0  0  0  0  0  0  0  0  0
    7.6050   -3.2260   22.3530 C   0  0  0  0  0  0  0  0  0  0  0  0
  1  2  1  0
  2  3  2  0
  2  4  1  0
  4  5  1  0
  5  6  1  0
  6  7  1  0
  7  8  1  0
  8  9  2  0
  8 10  1  0
 10 11  1  0
 12 11  1  6
 12 13  1  0
 13 14  1  1
 14 15  1  0
 16 15  1  1
 16 17  1  0
 13 18  1  0
 17 18  1  0
 12 19  1  0
 16 19  1  0
 10 20  1  0
 19 20  1  1
  7 21  1  0
  4 22  1  0
 21 22  1  0
M  END
