piperidine-amides-10186-covalent
     RDKit          3D

 25 27  0  0  0  0  0  0  0  0999 V2000
    7.0620   -3.3340   19.2820 C   0  0  0  0  0  0  0  0  0  0  0  0
    6.3810   -4.1490   20.2950 C   0  0  0  0  0  0  0  0  0  0  0  0
    5.3220   -4.7280   19.9370 O   0  0  0  0  0  0  0  0  0  0  0  0
    6.9330   -4.2930   21.5650 N   0  0  0  0  0  0  0  0  0  0  0  0
    6.6130   -5.4260   22.4010 C   0  0  0  0  0  0  0  0  0  0  0  0
    5.8740   -4.9140   23.6080 C   0  0  0  0  0  0  0  0  0  0  0  0
    6.6210   -3.8020   24.3040 C   0  0  0  0  0  0  0  0  0  0  0  0
    5.8410   -3.2550   25.4340 C   0  0  0  0  0  0  0  0  0  0  0  0
    4.6190   -3.0510   25.2590 O   0  0  0  0  0  0  0  0  0  0  0  0
    6.4040   -2.9550   26.6880 N   0  0  0  0  0  0  0  0  0  0  0  0
    6.3500   -1.6180   27.2370 C   0  0  0  0  0  0  0  0  0  0  0  0
    7.0400   -1.4450   28.5860 C   0  0  0  0  0  0  0  0  0  0  0  0
    7.0540   -0.2260   29.2160 C   0  0  0  0  0  0  0  0  0  0  0  0
    6.4200    0.8200   28.5800 C   0  0  0  0  0  0  0  0  0  0  0  0
    5.7920    0.7010   27.3640 C   0  0  0  0  0  0  0  0  0  0  0  0
    5.2830    1.9310   27.0430 C   0  0  0  0  0  0  0  0  0  0  0  0
    5.5930    2.8120   28.0590 C   0  0  0  0  0  0  0  0  0  0  0  0
    6.2860    2.1110   28.9850 N   0  0  0  0  0  0  0  0  0  0  0  0
    6.7050    2.7470   30.0780 C   0  0  0  0  0  0  0  0  0  0  0  0
    7.9420    3.6230   29.8870 C   0  0  0  0  0  0  0  0  0  0  0  0
    8.3870    3.7600   28.4440 C   0  0  0  0  0  0  0  0  0  0  0  0
    9.2370    3.0350   30.5850 C   0  0  0  0  0  0  0  0  0  0  0  0
    5.7410   -0.4870   26.6800 C   0  0  0  0  0  0  0  0  0  0  0  0
    6.8890   -2.6960   23.3120 C   0  0  0  0  0  0  0  0  0  0  0  0
    7.7260   -3.2510   22.1830 C   0  0  0  0  0  0  0  0  0  0  0  0
  1  2  1  0
  2  3  2  0
  2  4  1  0
  4  5  1  0
  5  6  1  0
  6  7  1  0
  7  8  1  0
  8  9  2  0
  8 10  1  0
 10 11  1  0
 11 12  2  0
 12 13  1  0
 13 14  2  0
 14 15  1  0
 15 16  1  0
 16 17  2  0
 14 18  1  0
 17 18  1  0
 18 19  1  0
 19 20  1  0
 20 21  1  0
 20 22  1  0
 11 23  1  0
 15 23  2  0
  7 24  1  0
  4 25  1  0
 24 25  1  0
M  END
