piperidine-amides-13142-covalent
     RDKit          3D

 20 21  0  0  0  0  0  0  0  0999 V2000
    7.0110   -3.2890   19.2540 C   0  0  0  0  0  0  0  0  0  0  0  0
    6.2790   -4.0520   20.2960 C   0  0  0  0  0  0  0  0  0  0  0  0
    5.2620   -4.6510   19.9100 O   0  0  0  0  0  0  0  0  0  0  0  0
    6.7240   -4.1300   21.6300 N   0  0  0  0  0  0  0  0  0  0  0  0
    6.4790   -5.3070   22.3930 C   0  0  0  0  0  0  0  0  0  0  0  0
    5.9630   -4.9940   23.7270 C   0  0  0  0  0  0  0  0  0  0  0  0
    5.7090   -3.5460   23.9030 C   0  0  0  0  0  0  0  0  0  0  0  0
    5.0730   -3.2180   25.2330 C   0  0  0  0  0  0  0  0  0  0  0  0
    3.8360   -3.3060   25.2690 O   0  0  0  0  0  0  0  0  0  0  0  0
    5.7330   -2.8270   26.4290 N   0  0  0  0  0  0  0  0  0  0  0  0
    6.1790   -3.8080   27.4440 C   0  0  0  0  0  0  0  0  0  0  0  0
    7.4090   -4.3260   26.8880 C   0  0  0  0  0  0  0  0  0  0  0  0
    7.9500   -5.5550   27.4450 C   0  0  0  0  0  0  0  0  0  0  0  0
    9.1420   -5.9580   26.8200 N   0  0  0  0  0  0  0  0  0  0  0  0
    9.7150   -5.2400   25.7920 C   0  0  0  0  0  0  0  0  0  0  0  0
    9.1070   -4.0790   25.3390 C   0  0  0  0  0  0  0  0  0  0  0  0
    9.8370   -3.0150   23.9210 Br  0  0  0  0  0  0  0  0  0  0  0  0
    7.9670   -3.6030   25.8650 C   0  0  0  0  0  0  0  0  0  0  0  0
    6.8040   -2.6230   23.4290 C   0  0  0  0  0  0  0  0  0  0  0  0
    7.4680   -3.0920   22.3070 C   0  0  0  0  0  0  0  0  0  0  0  0
  1  2  1  0
  2  3  2  0
  2  4  1  0
  4  5  1  0
  5  6  1  0
  6  7  1  0
  7  8  1  0
  8  9  2  0
  8 10  1  0
 10 11  1  0
 11 12  1  0
 12 13  2  0
 13 14  1  0
 14 15  2  0
 15 16  1  0
 16 17  1  0
 12 18  1  0
 16 18  2  0
  7 19  1  0
  4 20  1  0
 19 20  1  0
M  END
