piperidine-amides-34932-covalent
     RDKit          3D

 30 33  0  0  0  0  0  0  0  0999 V2000
    7.0650   -3.3510   19.3610 C   0  0  0  0  0  0  0  0  0  0  0  0
    6.3630   -4.1730   20.3780 C   0  0  0  0  0  0  0  0  0  0  0  0
    5.3940   -4.8230   19.9850 O   0  0  0  0  0  0  0  0  0  0  0  0
    6.8360   -4.2190   21.6950 N   0  0  0  0  0  0  0  0  0  0  0  0
    6.7020   -5.4160   22.5030 C   0  0  0  0  0  0  0  0  0  0  0  0
    6.1100   -5.0650   23.8430 C   0  0  0  0  0  0  0  0  0  0  0  0
    6.1660   -3.5500   24.0260 C   0  0  0  0  0  0  0  0  0  0  0  0
    5.5950   -3.1830   25.3420 C   0  0  0  0  0  0  0  0  0  0  0  0
    4.3710   -3.0290   25.3990 O   0  0  0  0  0  0  0  0  0  0  0  0
    6.3510   -3.0000   26.5210 N   0  0  0  0  0  0  0  0  0  0  0  0
    6.0570   -3.9570   27.5610 C   0  0  0  0  0  0  0  0  0  0  0  0
    4.7710   -3.4640   28.2060 C   0  0  0  0  0  0  0  0  0  0  0  0
    4.9260   -2.5930   29.2490 C   0  0  0  0  0  0  0  0  0  0  0  0
    3.9300   -2.0680   29.9110 C   0  0  0  0  0  0  0  0  0  0  0  0
    2.7350   -2.4240   29.5240 C   0  0  0  0  0  0  0  0  0  0  0  0
    1.3490   -1.7540   30.3730 Cl  0  0  0  0  0  0  0  0  0  0  0  0
    2.3380   -3.3590   28.4160 C   0  0  0  0  0  0  0  0  0  0  0  0
    0.6480   -3.6740   28.0930 Cl  0  0  0  0  0  0  0  0  0  0  0  0
    3.4860   -4.0030   27.6030 C   0  0  0  0  0  0  0  0  0  0  0  0
    6.3490   -1.6750   27.0970 C   0  0  0  0  0  0  0  0  0  0  0  0
    7.0000   -1.6200   28.4600 C   0  0  0  0  0  0  0  0  0  0  0  0
    7.0420   -0.3240   29.1700 C   0  0  0  0  0  0  0  0  0  0  0  0
    6.4360    0.8620   28.4880 C   0  0  0  0  0  0  0  0  0  0  0  0
    6.3080    2.2690   28.9020 C   0  0  0  0  0  0  0  0  0  0  0  0
    5.6250    2.8070   27.7400 N   0  0  0  0  0  0  0  0  0  0  0  0
    5.3440    1.9620   26.7460 N   0  0  0  0  0  0  0  0  0  0  0  0
    5.8780    0.6980   27.2490 C   0  0  0  0  0  0  0  0  0  0  0  0
    5.8190   -0.5000   26.5530 C   0  0  0  0  0  0  0  0  0  0  0  0
    7.5400   -3.0760   23.7100 C   0  0  0  0  0  0  0  0  0  0  0  0
    7.7490   -3.1630   22.1950 C   0  0  0  0  0  0  0  0  0  0  0  0
  1  2  1  0
  2  3  2  0
  2  4  1  0
  4  5  1  0
  5  6  1  0
  6  7  1  0
  7  8  1  0
  8  9  2  0
  8 10  1  0
 10 11  1  0
 11 12  1  0
 12 13  2  0
 13 14  1  0
 14 15  2  0
 15 16  1  0
 15 17  1  0
 17 18  1  0
 12 19  1  0
 17 19  2  0
 10 20  1  0
 20 21  2  0
 21 22  1  0
 22 23  2  0
 23 24  1  0
 24 25  2  0
 25 26  1  0
 23 27  1  0
 26 27  1  0
 20 28  1  0
 27 28  2  0
  7 29  1  0
  4 30  1  0
 29 30  1  0
M  END
