piperidine-amides-7258-covalent
     RDKit          3D

 21 22  0  0  0  0  0  0  0  0999 V2000
    7.0580   -3.3090   19.2870 C   0  0  0  0  0  0  0  0  0  0  0  0
    6.3620   -4.1190   20.2890 C   0  0  0  0  0  0  0  0  0  0  0  0
    5.2950   -4.6720   19.9250 O   0  0  0  0  0  0  0  0  0  0  0  0
    6.9000   -4.2970   21.5650 N   0  0  0  0  0  0  0  0  0  0  0  0
    6.5640   -5.4550   22.3580 C   0  0  0  0  0  0  0  0  0  0  0  0
    5.8030   -4.9760   23.5650 C   0  0  0  0  0  0  0  0  0  0  0  0
    6.5410   -3.8790   24.2830 C   0  0  0  0  0  0  0  0  0  0  0  0
    5.8020   -3.3880   25.4700 C   0  0  0  0  0  0  0  0  0  0  0  0
    4.5440   -3.3450   25.4520 O   0  0  0  0  0  0  0  0  0  0  0  0
    6.4660   -2.9720   26.6350 N   0  0  0  0  0  0  0  0  0  0  0  0
    6.3600   -1.6320   27.1600 C   0  0  0  0  0  0  0  0  0  0  0  0
    6.9830   -1.5120   28.5280 C   0  0  0  0  0  0  0  0  0  0  0  0
    6.9820   -0.3300   29.2030 C   0  0  0  0  0  0  0  0  0  0  0  0
    6.4020    0.7870   28.6310 C   0  0  0  0  0  0  0  0  0  0  0  0
    6.3600    2.3350   29.4420 Cl  0  0  0  0  0  0  0  0  0  0  0  0
    5.8230    0.6940   27.3600 C   0  0  0  0  0  0  0  0  0  0  0  0
    5.2290    1.7880   26.7510 C   0  0  0  0  0  0  0  0  0  0  0  0
    6.0080    2.6350   25.9490 O   0  0  0  0  0  0  0  0  0  0  0  0
    5.8050   -0.4950   26.6430 C   0  0  0  0  0  0  0  0  0  0  0  0
    6.7990   -2.6990   23.3550 C   0  0  0  0  0  0  0  0  0  0  0  0
    7.6200   -3.2160   22.1880 C   0  0  0  0  0  0  0  0  0  0  0  0
  1  2  1  0
  2  3  2  0
  2  4  1  0
  4  5  1  0
  5  6  1  0
  6  7  1  0
  7  8  1  0
  8  9  2  0
  8 10  1  0
 10 11  1  0
 11 12  2  0
 12 13  1  0
 13 14  2  0
 14 15  1  0
 14 16  1  0
 16 17  1  0
 17 18  1  0
 11 19  1  0
 16 19  2  0
  7 20  1  0
  4 21  1  0
 20 21  1  0
M  END
