piperidine-amides-30186-covalent
     RDKit          3D

 27 29  0  0  0  0  0  0  0  0999 V2000
    7.0500   -3.3510   19.3710 C   0  0  0  0  0  0  0  0  0  0  0  0
    6.3730   -4.2170   20.3240 C   0  0  0  0  0  0  0  0  0  0  0  0
    5.3660   -4.8390   19.9800 O   0  0  0  0  0  0  0  0  0  0  0  0
    6.9110   -4.3920   21.6480 N   0  0  0  0  0  0  0  0  0  0  0  0
    7.6740   -3.3400   22.2650 C   0  0  0  0  0  0  0  0  0  0  0  0
    6.8830   -2.7370   23.3900 C   0  0  0  0  0  0  0  0  0  0  0  0
    6.4800   -3.8530   24.3400 C   0  0  0  0  0  0  0  0  0  0  0  0
    5.5870   -3.2820   25.4020 C   0  0  0  0  0  0  0  0  0  0  0  0
    4.8030   -2.3560   25.1380 O   0  0  0  0  0  0  0  0  0  0  0  0
    5.5580   -3.7770   26.7450 N   0  0  0  0  0  0  0  0  0  0  0  0
    4.2540   -3.8280   27.3340 C   0  0  0  0  0  0  0  0  0  0  0  0
    4.4620   -4.2120   28.7850 C   0  0  0  0  0  0  0  0  0  0  0  0
    5.4770   -4.9870   29.1470 N   0  0  0  0  0  0  0  0  0  0  0  0
    5.1500   -6.2230   28.7380 C   0  0  0  0  0  0  0  0  0  0  0  0
    4.5200   -6.4980   27.6870 O   0  0  0  0  0  0  0  0  0  0  0  0
    5.4600   -7.3920   29.4170 C   0  0  0  0  0  0  0  0  0  0  0  0
    4.7210   -7.5260   30.5710 C   0  0  0  0  0  0  0  0  0  0  0  0
    5.2890   -7.4800   31.8910 C   0  0  0  0  0  0  0  0  0  0  0  0
    4.5810   -7.6200   33.0300 C   0  0  0  0  0  0  0  0  0  0  0  0
    3.2280   -7.8180   32.9820 C   0  0  0  0  0  0  0  0  0  0  0  0
    2.5260   -7.8860   31.7630 C   0  0  0  0  0  0  0  0  0  0  0  0
    1.1870   -8.0820   31.7020 F   0  0  0  0  0  0  0  0  0  0  0  0
    3.3420   -7.7280   30.5240 C   0  0  0  0  0  0  0  0  0  0  0  0
    6.6540   -4.6400   28.4850 C   0  0  0  0  0  0  0  0  0  0  0  0
    6.4130   -3.4170   27.8280 C   0  0  0  0  0  0  0  0  0  0  0  0
    5.7290   -4.9570   23.6140 C   0  0  0  0  0  0  0  0  0  0  0  0
    6.5660   -5.5230   22.4590 C   0  0  0  0  0  0  0  0  0  0  0  0
  1  2  1  0
  2  3  2  0
  2  4  1  0
  4  5  1  0
  5  6  1  0
  6  7  1  0
  7  8  1  0
  8  9  2  0
  8 10  1  0
 10 11  1  0
 11 12  1  0
 12 13  1  0
 13 14  1  0
 14 15  2  0
 14 16  1  0
 16 17  1  0
 17 18  2  0
 18 19  1  0
 19 20  2  0
 20 21  1  0
 21 22  1  0
 17 23  1  0
 21 23  2  0
 13 24  1  0
 10 25  1  0
 24 25  1  0
  7 26  1  0
  4 27  1  0
 26 27  1  0
M  END
