piperidine-amides-25870-covalent
     RDKit          3D

 25 28  0  0  0  0  0  0  0  0999 V2000
    7.0310   -3.3380   19.3340 C   0  0  0  0  0  0  0  0  0  0  0  0
    6.3670   -4.2000   20.3460 C   0  0  0  0  0  0  0  0  0  0  0  0
    5.3680   -4.8140   19.9730 O   0  0  0  0  0  0  0  0  0  0  0  0
    6.8920   -4.3360   21.6380 N   0  0  0  0  0  0  0  0  0  0  0  0
    6.7500   -5.5780   22.3700 C   0  0  0  0  0  0  0  0  0  0  0  0
    6.2800   -5.3040   23.7690 C   0  0  0  0  0  0  0  0  0  0  0  0
    6.1190   -3.8020   23.9550 C   0  0  0  0  0  0  0  0  0  0  0  0
    5.5130   -3.5190   25.2700 C   0  0  0  0  0  0  0  0  0  0  0  0
    4.2980   -3.2920   25.2970 O   0  0  0  0  0  0  0  0  0  0  0  0
    6.2170   -3.4800   26.4860 N   0  0  0  0  0  0  0  0  0  0  0  0
    6.0230   -2.1880   27.2460 C   0  0  0  0  0  0  0  0  0  0  0  0
    6.5360   -2.0380   28.7190 C   0  0  0  0  0  0  0  0  0  0  0  0
    5.8470   -3.0390   29.4650 N   0  0  0  0  0  0  0  0  0  0  0  0
    4.4200   -2.6730   29.3550 C   0  0  0  0  0  0  0  0  0  0  0  0
    4.0110   -2.1480   30.3820 C   0  0  0  0  0  0  0  0  0  0  0  0
    3.5150   -3.4860   30.3590 C   0  0  0  0  0  0  0  0  0  0  0  0
    6.0350   -3.6150   28.1890 C   0  0  0  0  0  0  0  0  0  0  0  0
    6.0910   -5.0160   28.9980 C   0  0  0  0  0  0  0  0  0  0  0  0
    6.2740   -6.6670   28.6840 C   0  0  0  0  0  0  0  0  0  0  0  0
    6.2860   -7.7490   29.5190 F   0  0  0  0  0  0  0  0  0  0  0  0
    6.1100   -5.7740   29.6090 C   0  0  0  0  0  0  0  0  0  0  0  0
    6.0620   -4.5660   29.0180 C   0  0  0  0  0  0  0  0  0  0  0  0
    6.2140   -4.5940   27.4480 C   0  0  0  0  0  0  0  0  0  0  0  0
    7.4460   -3.1310   23.7140 C   0  0  0  0  0  0  0  0  0  0  0  0
    7.7000   -3.2760   22.2390 C   0  0  0  0  0  0  0  0  0  0  0  0
  1  2  1  0
  2  3  2  0
  2  4  1  0
  4  5  1  0
  5  6  1  0
  6  7  1  0
  7  8  1  0
  8  9  2  0
  8 10  1  0
 10 11  1  0
 11 12  1  0
 12 13  1  0
 13 14  1  0
 14 15  1  0
 14 16  1  0
 15 16  1  0
 13 17  1  0
 17 18  2  0
 18 19  1  0
 19 20  1  0
 19 21  2  0
 21 22  1  0
 10 23  1  0
 17 23  1  0
 22 23  2  0
  7 24  1  0
  4 25  1  0
 24 25  1  0
M  END
