piperidine-amides-12306-covalent
     RDKit          3D

 24 26  0  0  0  0  0  0  0  0999 V2000
    7.1140   -3.1690   19.0320 C   0  0  0  0  0  0  0  0  0  0  0  0
    6.2460   -3.7500   20.0480 C   0  0  0  0  0  0  0  0  0  0  0  0
    5.1840   -4.2810   19.7390 O   0  0  0  0  0  0  0  0  0  0  0  0
    6.6010   -3.7640   21.4260 N   0  0  0  0  0  0  0  0  0  0  0  0
    7.5620   -2.8210   21.9710 C   0  0  0  0  0  0  0  0  0  0  0  0
    7.0040   -2.1410   23.1920 C   0  0  0  0  0  0  0  0  0  0  0  0
    6.3070   -3.2190   23.9810 C   0  0  0  0  0  0  0  0  0  0  0  0
    5.8490   -2.7610   25.3130 C   0  0  0  0  0  0  0  0  0  0  0  0
    4.7690   -2.1620   25.5040 O   0  0  0  0  0  0  0  0  0  0  0  0
    6.7070   -3.0500   26.3920 N   0  0  0  0  0  0  0  0  0  0  0  0
    6.4610   -2.5150   27.6960 C   0  0  0  0  0  0  0  0  0  0  0  0
    6.3030   -3.6730   28.6470 C   0  0  0  0  0  0  0  0  0  0  0  0
    5.4160   -4.6730   28.3120 C   0  0  0  0  0  0  0  0  0  0  0  0
    5.4780   -5.1390   27.0210 C   0  0  0  0  0  0  0  0  0  0  0  0
    6.7030   -5.0190   26.2910 N   0  0  0  0  0  0  0  0  0  0  0  0
    6.7050   -5.4860   25.0080 C   0  0  0  0  0  0  0  0  0  0  0  0
    5.4320   -5.9690   24.7950 C   0  0  0  0  0  0  0  0  0  0  0  0
    4.2260   -5.9330   25.9500 S   0  0  0  0  0  0  0  0  0  0  0  0
    4.9460   -6.5490   23.6680 C   0  0  0  0  0  0  0  0  0  0  0  0
    5.9720   -6.8700   22.7670 C   0  0  0  0  0  0  0  0  0  0  0  0
    7.2620   -6.2920   22.8450 C   0  0  0  0  0  0  0  0  0  0  0  0
    7.6690   -5.5400   24.0570 C   0  0  0  0  0  0  0  0  0  0  0  0
    5.1860   -3.8160   23.1720 C   0  0  0  0  0  0  0  0  0  0  0  0
    5.8460   -4.6280   22.2690 C   0  0  0  0  0  0  0  0  0  0  0  0
  1  2  1  0
  2  3  2  0
  2  4  1  0
  4  5  1  0
  5  6  1  0
  6  7  1  0
  7  8  1  0
  8  9  2  0
  8 10  1  0
 10 11  1  0
 11 12  1  0
 12 13  1  0
 13 14  1  0
 14 15  2  0
 15 16  1  0
 16 17  2  0
 14 18  1  0
 17 18  1  0
 17 19  1  0
 19 20  1  0
 20 21  1  0
 16 22  1  0
 21 22  1  0
  7 23  1  0
  4 24  1  0
 23 24  1  0
M  END
