piperidine-amides-4787-covalent
     RDKit          3D

 23 25  0  0  0  0  0  0  0  0999 V2000
    7.0800   -3.3050   19.2060 C   0  0  0  0  0  0  0  0  0  0  0  0
    6.3570   -4.0750   20.2440 C   0  0  0  0  0  0  0  0  0  0  0  0
    5.2800   -4.5930   19.8990 O   0  0  0  0  0  0  0  0  0  0  0  0
    6.8970   -4.2600   21.5240 N   0  0  0  0  0  0  0  0  0  0  0  0
    7.6120   -3.1900   22.1430 C   0  0  0  0  0  0  0  0  0  0  0  0
    7.0950   -2.7840   23.4440 C   0  0  0  0  0  0  0  0  0  0  0  0
    6.5130   -3.8700   24.2580 C   0  0  0  0  0  0  0  0  0  0  0  0
    5.7500   -3.2980   25.3910 C   0  0  0  0  0  0  0  0  0  0  0  0
    4.5390   -3.0590   25.2270 O   0  0  0  0  0  0  0  0  0  0  0  0
    6.3700   -3.0320   26.6210 N   0  0  0  0  0  0  0  0  0  0  0  0
    6.3900   -1.6920   27.2540 C   0  0  0  0  0  0  0  0  0  0  0  0
    6.9730   -1.6100   28.6050 C   0  0  0  0  0  0  0  0  0  0  0  0
    7.0180   -0.3430   29.2860 C   0  0  0  0  0  0  0  0  0  0  0  0
    6.4910    0.7090   28.5770 C   0  0  0  0  0  0  0  0  0  0  0  0
    5.9330    0.6900   27.3020 C   0  0  0  0  0  0  0  0  0  0  0  0
    5.8660   -0.5000   26.6060 C   0  0  0  0  0  0  0  0  0  0  0  0
    5.3340    2.1600   26.6080 S   0  0  0  0  0  0  0  0  0  0  0  0
    5.3930    3.3890   27.9680 C   0  0  0  0  0  0  0  0  0  0  0  0
    5.2990    2.6170   29.0890 C   0  0  0  0  0  0  0  0  0  0  0  0
    4.2160    2.5170   29.8980 O   0  0  0  0  0  0  0  0  0  0  0  0
    6.5520    1.9290   29.2760 N   0  0  0  0  0  0  0  0  0  0  0  0
    5.6930   -4.8260   23.4370 C   0  0  0  0  0  0  0  0  0  0  0  0
    6.5340   -5.3820   22.3570 C   0  0  0  0  0  0  0  0  0  0  0  0
  1  2  1  0
  2  3  2  0
  2  4  1  0
  4  5  1  0
  5  6  1  0
  6  7  1  0
  7  8  1  0
  8  9  2  0
  8 10  1  0
 10 11  1  0
 11 12  2  0
 12 13  1  0
 13 14  2  0
 14 15  1  0
 11 16  1  0
 15 16  2  0
 15 17  1  0
 17 18  1  0
 18 19  1  0
 19 20  2  0
 14 21  1  0
 19 21  1  0
  7 22  1  0
  4 23  1  0
 22 23  1  0
M  END
