piperidine-amides-14849-covalent
     RDKit          3D

 22 23  0  0  0  0  0  0  0  0999 V2000
    7.0670   -3.3560   19.3380 C   0  0  0  0  0  0  0  0  0  0  0  0
    6.4150   -4.2040   20.3360 C   0  0  0  0  0  0  0  0  0  0  0  0
    5.3970   -4.8310   19.9840 O   0  0  0  0  0  0  0  0  0  0  0  0
    6.9720   -4.3360   21.6390 N   0  0  0  0  0  0  0  0  0  0  0  0
    7.7730   -3.2740   22.1780 C   0  0  0  0  0  0  0  0  0  0  0  0
    7.0610   -2.6950   23.3480 C   0  0  0  0  0  0  0  0  0  0  0  0
    6.6790   -3.8490   24.2380 C   0  0  0  0  0  0  0  0  0  0  0  0
    5.8920   -3.3070   25.3880 C   0  0  0  0  0  0  0  0  0  0  0  0
    4.6850   -3.1380   25.2090 O   0  0  0  0  0  0  0  0  0  0  0  0
    6.5820   -3.0410   26.5650 N   0  0  0  0  0  0  0  0  0  0  0  0
    6.5510   -1.7810   27.2400 C   0  0  0  0  0  0  0  0  0  0  0  0
    7.1280   -1.6090   28.4830 C   0  0  0  0  0  0  0  0  0  0  0  0
    7.0980   -0.4100   29.1540 C   0  0  0  0  0  0  0  0  0  0  0  0
    6.4990    0.7740   28.6870 C   0  0  0  0  0  0  0  0  0  0  0  0
    5.8460    0.6770   27.3290 C   0  0  0  0  0  0  0  0  0  0  0  0
    5.8890   -0.6760   26.5910 C   0  0  0  0  0  0  0  0  0  0  0  0
    5.3120   -0.6420   25.4740 O   0  0  0  0  0  0  0  0  0  0  0  0
    5.5190    0.4980   24.7410 C   0  0  0  0  0  0  0  0  0  0  0  0
    6.0260    0.1280   23.3790 C   0  0  0  0  0  0  0  0  0  0  0  0
    4.3740    1.2550   24.6970 C   0  0  0  0  0  0  0  0  0  0  0  0
    5.7650   -4.8090   23.4890 C   0  0  0  0  0  0  0  0  0  0  0  0
    6.5680   -5.3970   22.5280 C   0  0  0  0  0  0  0  0  0  0  0  0
  1  2  1  0
  2  3  2  0
  2  4  1  0
  4  5  1  0
  5  6  1  0
  6  7  1  0
  7  8  1  0
  8  9  2  0
  8 10  1  0
 10 11  1  0
 11 12  2  0
 12 13  1  0
 13 14  2  0
 14 15  1  0
 11 16  1  0
 15 16  2  0
 16 17  1  0
 17 18  1  0
 18 19  1  0
 18 20  1  0
  7 21  1  0
  4 22  1  0
 21 22  1  0
M  END
