piperidine-amides-303-covalent
     RDKit          3D

 30 33  0  0  0  0  0  0  0  0999 V2000
    7.0440   -3.3690   19.3250 C   0  0  0  0  0  0  0  0  0  0  0  0
    6.3580   -4.1170   20.3590 C   0  0  0  0  0  0  0  0  0  0  0  0
    5.3710   -4.8230   19.9840 O   0  0  0  0  0  0  0  0  0  0  0  0
    6.7580   -4.1360   21.7210 N   0  0  0  0  0  0  0  0  0  0  0  0
    7.6690   -3.0250   22.1480 C   0  0  0  0  0  0  0  0  0  0  0  0
    7.6050   -3.1010   23.7230 C   0  0  0  0  0  0  0  0  0  0  0  0
    6.2000   -3.5460   23.9970 C   0  0  0  0  0  0  0  0  0  0  0  0
    5.5510   -2.9370   25.3280 C   0  0  0  0  0  0  0  0  0  0  0  0
    5.0370   -1.8600   25.0840 O   0  0  0  0  0  0  0  0  0  0  0  0
    5.7170   -3.7310   26.3110 N   0  0  0  0  0  0  0  0  0  0  0  0
    5.8410   -4.5910   27.3600 C   0  0  2  0  0  0  0  0  0  0  0  0
    5.8900   -5.9650   27.4600 C   0  0  0  0  0  0  0  0  0  0  0  0
    5.2410   -6.5370   28.5700 C   0  0  0  0  0  0  0  0  0  0  0  0
    3.8580   -7.0500   28.5890 C   0  0  0  0  0  0  0  0  0  0  0  0
    3.3900   -7.6470   29.9240 C   0  0  0  0  0  0  0  0  0  0  0  0
    4.2940   -7.6560   30.9910 C   0  0  0  0  0  0  0  0  0  0  0  0
    3.8940   -8.1670   32.0530 O   0  0  0  0  0  0  0  0  0  0  0  0
    5.6110   -7.2440   31.2430 C   0  0  0  0  0  0  0  0  0  0  0  0
    5.9530   -6.6830   29.8660 C   0  0  0  0  0  0  0  0  0  0  0  0
    4.8420   -4.0760   28.4190 C   0  0  0  0  0  0  0  0  0  0  0  0
    5.2270   -2.9660   29.2360 N   0  0  0  0  0  0  0  0  0  0  0  0
    4.0680   -2.8480   30.0350 C   0  0  0  0  0  0  0  0  0  0  0  0
    3.9760   -1.9140   30.9780 C   0  0  0  0  0  0  0  0  0  0  0  0
    2.8690   -1.8410   31.7070 C   0  0  0  0  0  0  0  0  0  0  0  0
    1.8520   -2.7480   31.4480 C   0  0  0  0  0  0  0  0  0  0  0  0
    1.7600   -3.8090   30.4920 C   0  0  0  0  0  0  0  0  0  0  0  0
    3.0930   -3.7570   29.7500 C   0  0  0  0  0  0  0  0  0  0  0  0
    3.6190   -4.4910   28.7420 N   0  0  0  0  0  0  0  0  0  0  0  0
    5.9300   -5.0160   23.7930 C   0  0  0  0  0  0  0  0  0  0  0  0
    6.5840   -5.3720   22.4560 C   0  0  0  0  0  0  0  0  0  0  0  0
  1  2  1  0
  2  3  2  0
  2  4  1  0
  4  5  1  0
  5  6  1  0
  6  7  1  0
  7  8  1  0
  8  9  2  0
  8 10  1  0
 10 11  1  0
 11 12  1  6
 12 13  1  0
 13 14  2  0
 14 15  1  0
 15 16  2  0
 16 17  1  0
 16 18  1  0
 13 19  1  0
 18 19  2  0
 11 20  1  0
 20 21  2  0
 21 22  1  0
 22 23  2  0
 23 24  1  0
 24 25  2  0
 25 26  1  0
 22 27  1  0
 26 27  2  0
 20 28  1  0
 27 28  1  0
  7 29  1  0
  4 30  1  0
 29 30  1  0
M  END
