piperidine-amides-29493-covalent
     RDKit          3D

 27 30  0  0  0  0  0  0  0  0999 V2000
    7.0820   -3.3580   19.2820 C   0  0  0  0  0  0  0  0  0  0  0  0
    6.3950   -4.1910   20.2590 C   0  0  0  0  0  0  0  0  0  0  0  0
    5.3460   -4.7570   19.9570 O   0  0  0  0  0  0  0  0  0  0  0  0
    6.9800   -4.4120   21.5440 N   0  0  0  0  0  0  0  0  0  0  0  0
    7.7370   -3.3710   22.1910 C   0  0  0  0  0  0  0  0  0  0  0  0
    6.9430   -2.8110   23.3200 C   0  0  0  0  0  0  0  0  0  0  0  0
    6.5430   -3.9550   24.2290 C   0  0  0  0  0  0  0  0  0  0  0  0
    5.5670   -3.4300   25.2070 C   0  0  0  0  0  0  0  0  0  0  0  0
    4.6230   -2.7060   24.8510 O   0  0  0  0  0  0  0  0  0  0  0  0
    5.6680   -3.7330   26.5760 N   0  0  0  0  0  0  0  0  0  0  0  0
    6.4030   -2.7690   27.3130 C   0  0  0  0  0  0  0  0  0  0  0  0
    6.7960   -3.4550   28.5850 C   0  0  0  0  0  0  0  0  0  0  0  0
    5.8040   -4.0610   29.2340 C   0  0  0  0  0  0  0  0  0  0  0  0
    4.9990   -3.0850   29.9270 N   0  0  0  0  0  0  0  0  0  0  0  0
    3.7560   -3.3130   30.5060 C   0  0  0  0  0  0  0  0  0  0  0  0
    2.9770   -4.4470   30.5890 C   0  0  0  0  0  0  0  0  0  0  0  0
    3.3680   -2.1590   31.0370 N   0  0  0  0  0  0  0  0  0  0  0  0
    4.3650   -1.1430   30.8150 C   0  0  0  0  0  0  0  0  0  0  0  0
    4.5380    0.1930   31.1120 C   0  0  0  0  0  0  0  0  0  0  0  0
    5.6870    0.8310   30.7030 C   0  0  0  0  0  0  0  0  0  0  0  0
    6.6820    0.1740   29.9950 C   0  0  0  0  0  0  0  0  0  0  0  0
    6.5490   -1.1430   29.6810 N   0  0  0  0  0  0  0  0  0  0  0  0
    5.4400   -1.8150   30.0620 C   0  0  0  0  0  0  0  0  0  0  0  0
    4.9580   -4.8010   28.4850 C   0  0  0  0  0  0  0  0  0  0  0  0
    4.5050   -4.1580   27.3390 C   0  0  0  0  0  0  0  0  0  0  0  0
    5.8500   -5.0890   23.4990 C   0  0  0  0  0  0  0  0  0  0  0  0
    6.6670   -5.5810   22.3090 C   0  0  0  0  0  0  0  0  0  0  0  0
  1  2  1  0
  2  3  2  0
  2  4  1  0
  4  5  1  0
  5  6  1  0
  6  7  1  0
  7  8  1  0
  8  9  2  0
  8 10  1  0
 10 11  1  0
 11 12  1  0
 12 13  1  0
 13 14  1  0
 14 15  1  0
 15 16  1  0
 15 17  2  0
 17 18  1  0
 18 19  1  0
 19 20  2  0
 20 21  1  0
 21 22  2  0
 14 23  1  0
 18 23  2  0
 22 23  1  0
 13 24  1  0
 10 25  1  0
 24 25  1  0
  7 26  1  0
  4 27  1  0
 26 27  1  0
M  END
