piperidine-amides-24624-covalent
     RDKit          3D

 23 23  0  0  0  0  0  0  0  0999 V2000
    7.0710   -3.2810   19.3210 C   0  0  0  0  0  0  0  0  0  0  0  0
    6.3460   -4.0970   20.3110 C   0  0  0  0  0  0  0  0  0  0  0  0
    5.3560   -4.7730   19.9610 O   0  0  0  0  0  0  0  0  0  0  0  0
    6.7750   -4.1580   21.6460 N   0  0  0  0  0  0  0  0  0  0  0  0
    6.6790   -5.4300   22.3310 C   0  0  0  0  0  0  0  0  0  0  0  0
    6.0460   -5.1790   23.7050 C   0  0  0  0  0  0  0  0  0  0  0  0
    6.1100   -3.6960   23.9800 C   0  0  0  0  0  0  0  0  0  0  0  0
    5.6070   -3.4520   25.3530 C   0  0  0  0  0  0  0  0  0  0  0  0
    4.4060   -3.7090   25.5720 O   0  0  0  0  0  0  0  0  0  0  0  0
    6.4400   -2.9380   26.3830 N   0  0  0  0  0  0  0  0  0  0  0  0
    6.2820   -3.4150   27.7400 C   0  0  0  0  0  0  0  0  0  0  0  0
    6.1090   -4.9240   27.7880 C   0  0  0  0  0  0  0  0  0  0  0  0
    6.8200   -1.5500   26.2530 C   0  0  0  0  0  0  0  0  0  0  0  0
    5.9240   -0.6890   25.6590 C   0  0  0  0  0  0  0  0  0  0  0  0
    4.6880   -0.5460   26.3650 N   0  0  0  0  0  0  0  0  0  0  0  0
    3.4820   -1.0200   25.8740 C   0  0  0  0  0  0  0  0  0  0  0  0
    4.7550    0.2290   27.5620 C   0  0  0  0  0  0  0  0  0  0  0  0
    4.0040    1.5480   27.6470 C   0  0  0  0  0  0  0  0  0  0  0  0
    2.6560    1.4750   27.7860 F   0  0  0  0  0  0  0  0  0  0  0  0
    4.2090    2.3040   26.4900 F   0  0  0  0  0  0  0  0  0  0  0  0
    4.5960    2.2270   28.6690 F   0  0  0  0  0  0  0  0  0  0  0  0
    7.4430   -3.1080   23.6730 C   0  0  0  0  0  0  0  0  0  0  0  0
    7.6800   -3.1580   22.1990 C   0  0  0  0  0  0  0  0  0  0  0  0
  1  2  1  0
  2  3  2  0
  2  4  1  0
  4  5  1  0
  5  6  1  0
  6  7  1  0
  7  8  1  0
  8  9  2  0
  8 10  1  0
 10 11  1  0
 11 12  1  0
 10 13  1  0
 13 14  1  0
 14 15  1  0
 15 16  1  0
 15 17  1  0
 17 18  1  0
 18 19  1  0
 18 20  1  0
 18 21  1  0
  7 22  1  0
  4 23  1  0
 22 23  1  0
M  END
