piperidine-amides-377-covalent
     RDKit          3D

 28 30  0  0  0  0  0  0  0  0999 V2000
    7.1450   -3.3040   19.3420 C   0  0  0  0  0  0  0  0  0  0  0  0
    6.3160   -4.0570   20.2520 C   0  0  0  0  0  0  0  0  0  0  0  0
    5.2110   -4.5080   19.8400 O   0  0  0  0  0  0  0  0  0  0  0  0
    6.7130   -4.3590   21.5600 N   0  0  0  0  0  0  0  0  0  0  0  0
    7.6700   -3.4670   22.2440 C   0  0  0  0  0  0  0  0  0  0  0  0
    6.6660   -2.6350   23.1220 C   0  0  0  0  0  0  0  0  0  0  0  0
    5.9070   -3.6240   23.9870 C   0  0  0  0  0  0  0  0  0  0  0  0
    6.0490   -3.2060   25.5060 C   0  0  0  0  0  0  0  0  0  0  0  0
    4.9690   -2.9910   26.0450 O   0  0  0  0  0  0  0  0  0  0  0  0
    7.3020   -3.2250   25.6850 N   0  0  0  0  0  0  0  0  0  0  0  0
    8.6520   -3.2680   25.7090 C   0  0  0  0  0  0  0  0  0  0  0  0
    9.6800   -3.9080   25.0920 C   0  0  0  0  0  0  0  0  0  0  0  0
   11.0520   -3.5040   25.1840 C   0  0  0  0  0  0  0  0  0  0  0  0
   11.8210   -4.2270   26.1790 C   0  0  0  0  0  0  0  0  0  0  0  0
   13.3510   -3.8540   26.2550 C   0  0  0  0  0  0  0  0  0  0  0  0
   13.8460   -2.8740   25.3980 C   0  0  0  0  0  0  0  0  0  0  0  0
   15.1240   -2.6990   25.5220 O   0  0  0  0  0  0  0  0  0  0  0  0
   16.1310   -1.9710   26.2370 C   0  0  0  0  0  0  0  0  0  0  0  0
   17.8770   -1.7670   25.7970 C   0  0  0  0  0  0  0  0  0  0  0  0
   18.9780   -1.2200   25.8180 N   0  0  0  0  0  0  0  0  0  0  0  0
   19.4800   -1.0180   24.5730 C   0  0  0  0  0  0  0  0  0  0  0  0
   20.8250   -0.8310   24.7270 C   0  0  0  0  0  0  0  0  0  0  0  0
   21.2110   -1.3800   25.9000 C   0  0  0  0  0  0  0  0  0  0  0  0
   20.0910   -1.7780   26.5260 C   0  0  0  0  0  0  0  0  0  0  0  0
   13.0130   -2.2410   24.5200 C   0  0  0  0  0  0  0  0  0  0  0  0
   11.6610   -2.5370   24.4060 C   0  0  0  0  0  0  0  0  0  0  0  0
    6.0370   -5.0940   23.7360 C   0  0  0  0  0  0  0  0  0  0  0  0
    6.2650   -5.4850   22.3070 C   0  0  0  0  0  0  0  0  0  0  0  0
  1  2  1  0
  2  3  2  0
  2  4  1  0
  4  5  1  0
  5  6  1  0
  6  7  1  0
  7  8  1  0
  8  9  2  0
  8 10  1  0
 10 11  1  0
 11 12  1  0
 12 13  1  0
 13 14  2  0
 14 15  1  0
 15 16  2  0
 16 17  1  0
 17 18  1  0
 18 19  1  0
 19 20  1  0
 20 21  1  0
 21 22  1  0
 22 23  1  0
 20 24  1  0
 23 24  1  0
 16 25  1  0
 13 26  1  0
 25 26  2  0
  7 27  1  0
  4 28  1  0
 27 28  1  0
M  END
