piperidine-amides-35624-covalent
     RDKit          3D

 38 41  0  0  0  0  0  0  0  0999 V2000
    7.1150   -3.3510   19.2700 C   0  0  0  0  0  0  0  0  0  0  0  0
    6.4580   -4.2000   20.2940 C   0  0  0  0  0  0  0  0  0  0  0  0
    5.4080   -4.7590   19.9690 O   0  0  0  0  0  0  0  0  0  0  0  0
    7.0720   -4.3770   21.5370 N   0  0  0  0  0  0  0  0  0  0  0  0
    6.7180   -5.4510   22.4170 C   0  0  0  0  0  0  0  0  0  0  0  0
    5.9350   -4.8870   23.5680 C   0  0  0  0  0  0  0  0  0  0  0  0
    6.6000   -3.6450   24.2030 C   0  0  0  0  0  0  0  0  0  0  0  0
    5.5480   -2.9970   24.9850 C   0  0  0  0  0  0  0  0  0  0  0  0
    4.5420   -2.5870   24.4060 O   0  0  0  0  0  0  0  0  0  0  0  0
    5.6080   -2.8580   26.3630 N   0  0  0  0  0  0  0  0  0  0  0  0
    5.5850   -4.1280   26.9710 C   0  0  0  0  0  0  0  0  0  0  0  0
    5.7750   -5.2840   27.9060 C   0  0  0  0  0  0  0  0  0  0  0  0
    5.2580   -6.4990   27.6610 C   0  0  0  0  0  0  0  0  0  0  0  0
    5.9780   -7.4780   27.5430 O   0  0  0  0  0  0  0  0  0  0  0  0
    3.8990   -6.6420   27.5790 O   0  0  0  0  0  0  0  0  0  0  0  0
    3.1550   -7.3540   28.5690 C   0  0  0  0  0  0  0  0  0  0  0  0
    4.0740   -7.7580   29.4980 C   0  0  0  0  0  0  0  0  0  0  0  0
    6.4410   -5.4820   29.1950 C   0  0  0  0  0  0  0  0  0  0  0  0
    6.6960   -4.2040   29.0400 N   0  0  0  0  0  0  0  0  0  0  0  0
    6.2920   -3.5870   28.0130 N   0  0  0  0  0  0  0  0  0  0  0  0
    6.6190   -2.1710   28.0080 C   0  0  2  0  0  0  0  0  0  0  0  0
    7.0710   -1.4570   29.2590 C   0  0  0  0  0  0  0  0  0  0  0  0
    6.2410   -1.6880   30.3120 F   0  0  0  0  0  0  0  0  0  0  0  0
    8.3640   -1.4700   29.6130 F   0  0  0  0  0  0  0  0  0  0  0  0
    6.9390   -0.0450   29.1380 F   0  0  0  0  0  0  0  0  0  0  0  0
    5.2200   -1.8460   28.2770 C   0  0  0  0  0  0  0  0  0  0  0  0
    4.5310   -2.1570   27.0700 C   0  0  1  0  0  0  0  0  0  0  0  0
    4.0330   -0.9240   26.3210 C   0  0  0  0  0  0  0  0  0  0  0  0
    4.9180   -0.1630   25.3690 C   0  0  0  0  0  0  0  0  0  0  0  0
    4.4330    1.0710   24.6220 C   0  0  0  0  0  0  0  0  0  0  0  0
    3.1480    1.5180   24.8120 C   0  0  0  0  0  0  0  0  0  0  0  0
    2.4710    2.7090   24.1790 C   0  0  0  0  0  0  0  0  0  0  0  0
    1.5620    3.4800   25.1440 C   0  0  0  0  0  0  0  0  0  0  0  0
    3.3830    3.5580   23.5160 C   0  0  0  0  0  0  0  0  0  0  0  0
    2.2100    0.7640   25.7790 C   0  0  0  0  0  0  0  0  0  0  0  0
    2.7510   -0.4620   26.4950 C   0  0  0  0  0  0  0  0  0  0  0  0
    7.0460   -2.6520   23.1670 C   0  0  0  0  0  0  0  0  0  0  0  0
    7.8740   -3.3110   22.1080 C   0  0  0  0  0  0  0  0  0  0  0  0
  1  2  1  0
  2  3  2  0
  2  4  1  0
  4  5  1  0
  5  6  1  0
  6  7  1  0
  7  8  1  0
  8  9  2  0
  8 10  1  0
 10 11  1  0
 11 12  2  0
 12 13  1  0
 13 14  2  0
 13 15  1  0
 15 16  1  0
 16 17  1  0
 12 18  1  0
 18 19  2  0
 11 20  1  0
 19 20  1  0
 20 21  1  0
 21 22  1  1
 22 23  1  0
 22 24  1  0
 22 25  1  0
 21 26  1  0
 10 27  1  0
 26 27  1  0
 27 28  1  6
 28 29  2  0
 29 30  1  0
 30 31  2  0
 31 32  1  0
 32 33  1  0
 32 34  1  0
 31 35  1  0
 28 36  1  0
 35 36  2  0
  7 37  1  0
  4 38  1  0
 37 38  1  0
M  END
