piperidine-amides-2284-covalent
     RDKit          3D

 21 21  0  0  0  0  0  0  0  0999 V2000
    7.0540   -3.2800   19.2530 C   0  0  0  0  0  0  0  0  0  0  0  0
    6.3390   -4.0780   20.2860 C   0  0  0  0  0  0  0  0  0  0  0  0
    5.3140   -4.6500   19.9220 O   0  0  0  0  0  0  0  0  0  0  0  0
    6.8400   -4.1990   21.5920 N   0  0  0  0  0  0  0  0  0  0  0  0
    6.6440   -5.3970   22.3720 C   0  0  0  0  0  0  0  0  0  0  0  0
    6.0580   -5.0640   23.7230 C   0  0  0  0  0  0  0  0  0  0  0  0
    6.0530   -3.5470   23.9570 C   0  0  0  0  0  0  0  0  0  0  0  0
    5.6190   -3.3020   25.3490 C   0  0  0  0  0  0  0  0  0  0  0  0
    4.4120   -3.1620   25.5820 O   0  0  0  0  0  0  0  0  0  0  0  0
    6.5450   -3.2130   26.4010 N   0  0  0  0  0  0  0  0  0  0  0  0
    6.2630   -3.8750   27.6640 C   0  0  0  0  0  0  0  0  0  0  0  0
    5.9400   -5.3370   27.3910 C   0  0  0  0  0  0  0  0  0  0  0  0
    4.8300   -5.9460   27.9240 C   0  0  0  0  0  0  0  0  0  0  0  0
    3.8520   -5.1610   28.4310 C   0  0  0  0  0  0  0  0  0  0  0  0
    4.2570   -6.9500   26.9220 C   0  0  0  0  0  0  0  0  0  0  0  0
    5.5050   -6.8500   29.4120 S   0  0  0  0  0  0  0  0  0  0  0  0
    4.3380   -6.7990   30.7440 C   0  0  0  0  0  0  0  0  0  0  0  0
    6.7970   -6.3400   29.9220 O   0  0  0  0  0  0  0  0  0  0  0  0
    5.6860   -8.2600   28.9580 O   0  0  0  0  0  0  0  0  0  0  0  0
    7.3570   -2.9170   23.5980 C   0  0  0  0  0  0  0  0  0  0  0  0
    7.6680   -3.1420   22.1530 C   0  0  0  0  0  0  0  0  0  0  0  0
  1  2  1  0
  2  3  2  0
  2  4  1  0
  4  5  1  0
  5  6  1  0
  6  7  1  0
  7  8  1  0
  8  9  2  0
  8 10  1  0
 10 11  1  0
 11 12  1  0
 13 12  1  0
 13 14  1  0
 13 15  1  0
 13 16  1  0
 16 17  1  0
 16 18  2  0
 16 19  2  0
  7 20  1  0
  4 21  1  0
 20 21  1  0
M  END
