piperidine-amides-32613-covalent
     RDKit          3D

 29 31  0  0  0  0  0  0  0  0999 V2000
    7.2760   -3.2540   19.2620 C   0  0  0  0  0  0  0  0  0  0  0  0
    6.3880   -3.9410   20.2530 C   0  0  0  0  0  0  0  0  0  0  0  0
    5.3340   -4.4780   19.8660 O   0  0  0  0  0  0  0  0  0  0  0  0
    6.7550   -4.0110   21.6070 N   0  0  0  0  0  0  0  0  0  0  0  0
    6.0590   -4.8970   22.4660 C   0  0  0  0  0  0  0  0  0  0  0  0
    5.0240   -4.0580   23.2210 C   0  0  0  0  0  0  0  0  0  0  0  0
    5.6850   -2.8720   23.8780 C   0  0  0  0  0  0  0  0  0  0  0  0
    5.1670   -2.6680   25.2850 C   0  0  0  0  0  0  0  0  0  0  0  0
    3.9410   -2.7750   25.3690 O   0  0  0  0  0  0  0  0  0  0  0  0
    5.9350   -2.3920   26.4390 N   0  0  0  0  0  0  0  0  0  0  0  0
    6.4560   -3.4710   27.1770 C   0  0  0  0  0  0  0  0  0  0  0  0
    6.9750   -4.2550   26.2790 C   0  0  0  0  0  0  0  0  0  0  0  0
    6.0640   -4.8890   25.4740 C   0  0  0  0  0  0  0  0  0  0  0  0
    6.4590   -5.6680   24.4750 C   0  0  0  0  0  0  0  0  0  0  0  0
    7.8960   -5.8630   24.2200 C   0  0  0  0  0  0  0  0  0  0  0  0
    8.0410   -6.6530   23.1870 O   0  0  0  0  0  0  0  0  0  0  0  0
    7.0030   -7.1360   22.4620 C   0  0  0  0  0  0  0  0  0  0  0  0
    8.7810   -5.2390   25.0460 C   0  0  0  0  0  0  0  0  0  0  0  0
   10.1490   -5.2820   25.0010 O   0  0  0  0  0  0  0  0  0  0  0  0
   10.8650   -4.1610   25.4670 C   0  0  0  0  0  0  0  0  0  0  0  0
    8.2980   -4.3940   26.1300 C   0  0  0  0  0  0  0  0  0  0  0  0
    6.2630   -0.9720   26.4760 C   0  0  0  0  0  0  0  0  0  0  0  0
    5.3900   -0.3550   27.3470 C   0  0  0  0  0  0  0  0  0  0  0  0
    5.6450    1.2170   27.4370 C   0  0  0  0  0  0  0  0  0  0  0  0
    6.6670    1.5330   26.6130 N   0  0  0  0  0  0  0  0  0  0  0  0
    7.4310    0.6630   25.7970 C   0  0  0  0  0  0  0  0  0  0  0  0
    7.2580   -0.6050   25.7020 N   0  0  0  0  0  0  0  0  0  0  0  0
    7.2060   -2.8860   23.7310 C   0  0  0  0  0  0  0  0  0  0  0  0
    7.5090   -2.9470   22.2590 C   0  0  0  0  0  0  0  0  0  0  0  0
  1  2  1  0
  2  3  2  0
  2  4  1  0
  4  5  1  0
  5  6  1  0
  6  7  1  0
  7  8  1  0
  8  9  2  0
  8 10  1  0
 10 11  1  0
 11 12  1  0
 12 13  2  0
 13 14  1  0
 14 15  2  0
 15 16  1  0
 16 17  1  0
 15 18  1  0
 18 19  1  0
 19 20  1  0
 12 21  1  0
 18 21  2  0
 10 22  1  0
 22 23  2  0
 23 24  1  0
 24 25  2  0
 25 26  1  0
 22 27  1  0
 26 27  2  0
  7 28  1  0
  4 29  1  0
 28 29  1  0
M  END
