piperidine-amides-3392-covalent
     RDKit          3D

 21 22  0  0  0  0  0  0  0  0999 V2000
    7.1310   -3.2820   19.2870 C   0  0  0  0  0  0  0  0  0  0  0  0
    6.3250   -4.0170   20.2530 C   0  0  0  0  0  0  0  0  0  0  0  0
    5.2900   -4.5720   19.8930 O   0  0  0  0  0  0  0  0  0  0  0  0
    6.7590   -4.1330   21.6160 N   0  0  0  0  0  0  0  0  0  0  0  0
    7.7040   -3.1780   22.1500 C   0  0  0  0  0  0  0  0  0  0  0  0
    7.4930   -2.9900   23.6210 C   0  0  0  0  0  0  0  0  0  0  0  0
    6.1630   -3.6350   23.9530 C   0  0  0  0  0  0  0  0  0  0  0  0
    5.7520   -3.3860   25.3650 C   0  0  0  0  0  0  0  0  0  0  0  0
    4.5500   -3.3760   25.6980 O   0  0  0  0  0  0  0  0  0  0  0  0
    6.7370   -3.1560   26.3600 N   0  0  0  0  0  0  0  0  0  0  0  0
    7.2320   -1.8160   26.5620 C   0  0  0  0  0  0  0  0  0  0  0  0
    6.5260   -1.1860   27.7390 C   0  0  0  0  0  0  0  0  0  0  0  0
    7.1660   -1.0750   28.9680 C   0  0  0  0  0  0  0  0  0  0  0  0
    6.5000   -0.4800   30.0380 C   0  0  0  0  0  0  0  0  0  0  0  0
    7.2040   -0.3990   31.2200 F   0  0  0  0  0  0  0  0  0  0  0  0
    5.2270   -0.0130   29.8940 C   0  0  0  0  0  0  0  0  0  0  0  0
    4.5450   -0.1120   28.6590 N   0  0  0  0  0  0  0  0  0  0  0  0
    5.2100   -0.7150   27.5390 C   0  0  0  0  0  0  0  0  0  0  0  0
    4.4230   -0.8650   25.9580 Cl  0  0  0  0  0  0  0  0  0  0  0  0
    6.0990   -5.1100   23.6320 C   0  0  0  0  0  0  0  0  0  0  0  0
    6.5950   -5.3810   22.3670 C   0  0  0  0  0  0  0  0  0  0  0  0
  1  2  1  0
  2  3  2  0
  2  4  1  0
  4  5  1  0
  5  6  1  0
  6  7  1  0
  7  8  1  0
  8  9  2  0
  8 10  1  0
 10 11  1  0
 11 12  1  0
 12 13  2  0
 13 14  1  0
 14 15  1  0
 14 16  2  0
 16 17  1  0
 12 18  1  0
 17 18  2  0
 18 19  1  0
  7 20  1  0
  4 21  1  0
 20 21  1  0
M  END
