piperidine-amides-30807-covalent
     RDKit          3D

 28 31  0  0  0  0  0  0  0  0999 V2000
    7.1300   -3.3280   19.2340 C   0  0  0  0  0  0  0  0  0  0  0  0
    6.3610   -4.0800   20.2250 C   0  0  0  0  0  0  0  0  0  0  0  0
    5.2870   -4.6040   19.9000 O   0  0  0  0  0  0  0  0  0  0  0  0
    6.8590   -4.2650   21.5150 N   0  0  0  0  0  0  0  0  0  0  0  0
    6.7080   -5.5270   22.1980 C   0  0  0  0  0  0  0  0  0  0  0  0
    5.9830   -5.1910   23.4660 C   0  0  0  0  0  0  0  0  0  0  0  0
    6.6740   -4.1150   24.2470 C   0  0  0  0  0  0  0  0  0  0  0  0
    5.7350   -3.5340   25.2130 C   0  0  0  0  0  0  0  0  0  0  0  0
    4.7140   -2.9020   24.8160 O   0  0  0  0  0  0  0  0  0  0  0  0
    5.9190   -3.6590   26.5870 N   0  0  0  0  0  0  0  0  0  0  0  0
    5.0070   -4.5330   27.3600 C   0  0  0  0  0  0  0  0  0  0  0  0
    5.6130   -4.7840   28.6700 C   0  0  0  0  0  0  0  0  0  0  0  0
    7.0340   -5.0810   28.5790 C   0  0  0  0  0  0  0  0  0  0  0  0
    7.7900   -3.9190   28.0170 C   0  0  0  0  0  0  0  0  0  0  0  0
    6.8440   -2.9160   27.3710 C   0  0  2  0  0  0  0  0  0  0  0  0
    6.0760   -2.0690   28.3660 C   0  0  0  0  0  0  0  0  0  0  0  0
    4.6680   -2.0450   28.2720 C   0  0  0  0  0  0  0  0  0  0  0  0
    4.0270   -2.6980   27.3880 O   0  0  0  0  0  0  0  0  0  0  0  0
    3.7820   -1.3220   29.1010 C   0  0  0  0  0  0  0  0  0  0  0  0
    4.3170   -0.4680   30.2070 C   0  0  0  0  0  0  0  0  0  0  0  0
    5.8090   -0.4600   30.3330 C   0  0  0  0  0  0  0  0  0  0  0  0
    6.6980    0.2380   31.2590 C   0  0  0  0  0  0  0  0  0  0  0  0
    7.7660    0.4400   31.5850 C   0  0  0  0  0  0  0  0  0  0  0  0
    8.6560   -0.3170   30.7130 C   0  0  0  0  0  0  0  0  0  0  0  0
    8.1910   -1.1410   29.6690 C   0  0  0  0  0  0  0  0  0  0  0  0
    6.6630   -1.3000   29.3620 C   0  0  0  0  0  0  0  0  0  0  0  0
    7.1890   -2.9450   23.4760 C   0  0  0  0  0  0  0  0  0  0  0  0
    7.7470   -3.3220   22.1430 C   0  0  0  0  0  0  0  0  0  0  0  0
  1  2  1  0
  2  3  2  0
  2  4  1  0
  4  5  1  0
  5  6  1  0
  6  7  1  0
  7  8  1  0
  8  9  2  0
  8 10  1  0
 10 11  1  0
 11 12  1  0
 12 13  1  0
 13 14  1  0
 10 15  1  0
 14 15  1  0
 15 16  1  1
 16 17  2  0
 17 18  1  0
 17 19  1  0
 19 20  2  0
 20 21  1  0
 21 22  1  0
 22 23  2  0
 23 24  1  0
 24 25  2  0
 16 26  1  0
 21 26  2  0
 25 26  1  0
  7 27  1  0
  4 28  1  0
 27 28  1  0
M  END
