piperidine-amides-32854-covalent
     RDKit          3D

 29 31  0  0  0  0  0  0  0  0999 V2000
    7.0770   -3.2880   19.3400 C   0  0  0  0  0  0  0  0  0  0  0  0
    6.3530   -4.1270   20.3330 C   0  0  0  0  0  0  0  0  0  0  0  0
    5.3330   -4.7300   19.9530 O   0  0  0  0  0  0  0  0  0  0  0  0
    6.8460   -4.2780   21.6580 N   0  0  0  0  0  0  0  0  0  0  0  0
    6.6660   -5.5370   22.3480 C   0  0  0  0  0  0  0  0  0  0  0  0
    6.2520   -5.2610   23.8040 C   0  0  0  0  0  0  0  0  0  0  0  0
    6.0060   -3.8010   23.9290 C   0  0  0  0  0  0  0  0  0  0  0  0
    5.5090   -3.3660   25.2670 C   0  0  0  0  0  0  0  0  0  0  0  0
    4.2800   -3.2830   25.3500 O   0  0  0  0  0  0  0  0  0  0  0  0
    6.3340   -3.0660   26.3600 N   0  0  0  0  0  0  0  0  0  0  0  0
    6.8320   -1.7450   26.5490 C   0  0  0  0  0  0  0  0  0  0  0  0
    6.1360   -3.8020   27.5860 C   0  0  0  0  0  0  0  0  0  0  0  0
    5.6980   -5.1450   27.5470 C   0  0  0  0  0  0  0  0  0  0  0  0
    5.5180   -5.8100   28.7430 C   0  0  0  0  0  0  0  0  0  0  0  0
    4.1960   -5.7320   29.4400 C   0  0  0  0  0  0  0  0  0  0  0  0
    3.1990   -5.1140   28.8070 O   0  0  0  0  0  0  0  0  0  0  0  0
    4.2330   -6.3570   30.7070 N   0  0  0  0  0  0  0  0  0  0  0  0
    5.2500   -7.3290   30.9800 C   0  0  0  0  0  0  0  0  0  0  0  0
    5.2410   -7.8930   32.4010 C   0  0  0  0  0  0  0  0  0  0  0  0
    4.9840   -6.9890   33.3960 C   0  0  0  0  0  0  0  0  0  0  0  0
    5.6890   -6.9900   34.6860 C   0  0  0  0  0  0  0  0  0  0  0  0
    5.2040   -5.8690   35.6310 C   0  0  0  0  0  0  0  0  0  0  0  0
    4.2650   -4.8180   35.6320 C   0  0  0  0  0  0  0  0  0  0  0  0
    3.9340   -3.9270   36.4780 O   0  0  0  0  0  0  0  0  0  0  0  0
    3.7040   -5.0590   34.2060 C   0  0  0  0  0  0  0  0  0  0  0  0
    4.0390   -6.0700   33.1620 C   0  0  0  0  0  0  0  0  0  0  0  0
    3.3170   -6.0750   31.8030 C   0  0  0  0  0  0  0  0  0  0  0  0
    7.2270   -2.9890   23.5750 C   0  0  0  0  0  0  0  0  0  0  0  0
    7.5840   -3.1870   22.2460 C   0  0  0  0  0  0  0  0  0  0  0  0
  1  2  1  0
  2  3  2  0
  2  4  1  0
  4  5  1  0
  5  6  1  0
  6  7  1  0
  7  8  1  0
  8  9  2  0
  8 10  1  0
 10 11  1  0
 10 12  1  0
 12 13  1  0
 13 14  1  0
 14 15  1  0
 15 16  2  0
 15 17  1  0
 17 18  1  0
 18 19  1  0
 19 20  1  0
 20 21  2  0
 21 22  1  0
 22 23  2  0
 23 24  1  0
 23 25  1  0
 20 26  1  0
 25 26  2  0
 17 27  1  0
 26 27  1  0
  7 28  1  0
  4 29  1  0
 28 29  1  0
M  END
