piperidine-amides-30482-covalent
     RDKit          3D

 27 28  0  0  0  0  0  0  0  0999 V2000
    7.1550   -3.2840   19.2470 C   0  0  0  0  0  0  0  0  0  0  0  0
    6.3570   -4.0030   20.2380 C   0  0  0  0  0  0  0  0  0  0  0  0
    5.2860   -4.5250   19.8860 O   0  0  0  0  0  0  0  0  0  0  0  0
    6.8130   -4.1720   21.5550 N   0  0  0  0  0  0  0  0  0  0  0  0
    7.7270   -3.2150   22.1730 C   0  0  0  0  0  0  0  0  0  0  0  0
    7.3120   -3.0830   23.6150 C   0  0  0  0  0  0  0  0  0  0  0  0
    6.0810   -3.8910   23.8530 C   0  0  0  0  0  0  0  0  0  0  0  0
    5.3760   -3.6230   25.1240 C   0  0  0  0  0  0  0  0  0  0  0  0
    4.1140   -3.5910   25.1200 O   0  0  0  0  0  0  0  0  0  0  0  0
    5.9530   -3.3610   26.3780 N   0  0  0  0  0  0  0  0  0  0  0  0
    5.6910   -1.9360   26.7170 C   0  0  2  0  0  0  0  0  0  0  0  0
    6.7130   -1.1290   26.0560 C   0  0  0  0  0  0  0  0  0  0  0  0
    5.6920   -1.5320   28.1990 C   0  0  0  0  0  0  0  0  0  0  0  0
    7.0980   -1.1870   28.5980 C   0  0  0  0  0  0  0  0  0  0  0  0
    7.2990   -0.7510   30.0250 C   0  0  0  0  0  0  0  0  0  0  0  0
    6.0610   -0.7230   30.8400 C   0  0  0  0  0  0  0  0  0  0  0  0
    4.8120   -1.0590   30.3810 C   0  0  0  0  0  0  0  0  0  0  0  0
    4.6120   -1.4680   29.0510 C   0  0  0  0  0  0  0  0  0  0  0  0
    3.3720   -1.7780   28.6490 F   0  0  0  0  0  0  0  0  0  0  0  0
    5.8150   -4.2550   27.4810 C   0  0  2  0  0  0  0  0  0  0  0  0
    6.6570   -4.0650   28.7180 C   0  0  0  0  0  0  0  0  0  0  0  0
    7.2340   -5.1320   29.0820 O   0  0  0  0  0  0  0  0  0  0  0  0
    5.7380   -5.7770   27.2170 C   0  0  0  0  0  0  0  0  0  0  0  0
    5.5160   -6.4330   28.2040 C   0  0  0  0  0  0  0  0  0  0  0  0
    4.8620   -5.9720   26.1930 C   0  0  0  0  0  0  0  0  0  0  0  0
    6.3180   -5.3590   23.5980 C   0  0  0  0  0  0  0  0  0  0  0  0
    6.6820   -5.4880   22.1230 C   0  0  0  0  0  0  0  0  0  0  0  0
  1  2  1  0
  2  3  2  0
  2  4  1  0
  4  5  1  0
  5  6  1  0
  6  7  1  0
  7  8  1  0
  8  9  2  0
  8 10  1  0
 10 11  1  0
 11 12  1  6
 11 13  1  0
 13 14  2  0
 14 15  1  0
 15 16  2  0
 16 17  1  0
 13 18  1  0
 17 18  2  0
 18 19  1  0
 10 20  1  0
 20 21  1  1
 21 22  1  0
 20 23  1  0
 23 24  1  0
 23 25  1  0
  7 26  1  0
  4 27  1  0
 26 27  1  0
M  END
