piperidine-amides-31348-covalent
     RDKit          3D

 27 29  0  0  0  0  0  0  0  0999 V2000
    7.0880   -3.3280   19.1590 C   0  0  0  0  0  0  0  0  0  0  0  0
    6.3470   -3.9900   20.2080 C   0  0  0  0  0  0  0  0  0  0  0  0
    5.2670   -4.5760   19.8930 O   0  0  0  0  0  0  0  0  0  0  0  0
    6.8060   -4.0560   21.5340 N   0  0  0  0  0  0  0  0  0  0  0  0
    6.5500   -5.2850   22.3050 C   0  0  0  0  0  0  0  0  0  0  0  0
    5.5040   -4.7080   23.3340 C   0  0  0  0  0  0  0  0  0  0  0  0
    6.2590   -3.6820   24.1660 C   0  0  0  0  0  0  0  0  0  0  0  0
    5.2780   -3.0070   25.2170 C   0  0  0  0  0  0  0  0  0  0  0  0
    4.5750   -2.1640   24.6900 O   0  0  0  0  0  0  0  0  0  0  0  0
    5.4880   -3.5510   26.3370 N   0  0  0  0  0  0  0  0  0  0  0  0
    5.5910   -4.5070   27.2870 C   0  0  0  0  0  0  0  0  0  0  0  0
    6.2410   -5.6850   27.3270 C   0  0  0  0  0  0  0  0  0  0  0  0
    7.5130   -5.3530   26.9420 C   0  0  0  0  0  0  0  0  0  0  0  0
    7.9370   -5.0040   25.5850 C   0  0  0  0  0  0  0  0  0  0  0  0
    9.4040   -4.6400   25.4390 C   0  0  0  0  0  0  0  0  0  0  0  0
   10.1840   -4.6880   26.5770 C   0  0  0  0  0  0  0  0  0  0  0  0
   10.0120   -4.9880   27.9340 C   0  0  0  0  0  0  0  0  0  0  0  0
    8.5620   -5.3120   27.9540 C   0  0  0  0  0  0  0  0  0  0  0  0
    5.8860   -2.6220   27.3490 C   0  0  0  0  0  0  0  0  0  0  0  0
    5.8460   -1.3490   26.8490 C   0  0  0  0  0  0  0  0  0  0  0  0
    6.4590   -0.7860   25.8370 C   0  0  0  0  0  0  0  0  0  0  0  0
    6.1020    0.5060   25.7360 C   0  0  0  0  0  0  0  0  0  0  0  0
    5.1830    1.0540   26.6590 C   0  0  0  0  0  0  0  0  0  0  0  0
    4.7640    2.3840   26.6260 C   0  0  0  0  0  0  0  0  0  0  0  0
    4.7460   -0.2290   27.7520 S   0  0  0  0  0  0  0  0  0  0  0  0
    7.1780   -2.7180   23.4950 C   0  0  0  0  0  0  0  0  0  0  0  0
    7.6780   -3.0940   22.1380 C   0  0  0  0  0  0  0  0  0  0  0  0
  1  2  1  0
  2  3  2  0
  2  4  1  0
  4  5  1  0
  5  6  1  0
  6  7  1  0
  7  8  1  0
  8  9  2  0
  8 10  1  0
 10 11  1  0
 11 12  1  0
 12 13  1  0
 13 14  2  0
 14 15  1  0
 15 16  2  0
 16 17  1  0
 13 18  1  0
 17 18  2  0
 10 19  1  0
 19 20  1  0
 20 21  2  0
 21 22  1  0
 22 23  2  0
 23 24  1  0
 20 25  1  0
 23 25  1  0
  7 26  1  0
  4 27  1  0
 26 27  1  0
M  END
