piperidine-amides-13057-covalent
     RDKit          3D

 23 25  0  0  0  0  0  0  0  0999 V2000
    7.1890   -3.9610   19.6760 C   0  0  0  0  0  0  0  0  0  0  0  0
    5.9370   -3.8590   20.3320 C   0  0  0  0  0  0  0  0  0  0  0  0
    4.9660   -3.9540   19.5680 O   0  0  0  0  0  0  0  0  0  0  0  0
    5.9410   -3.7830   21.7140 N   0  0  0  0  0  0  0  0  0  0  0  0
    6.8670   -2.8330   22.2270 C   0  0  0  0  0  0  0  0  0  0  0  0
    7.4790   -3.2190   23.4950 C   0  0  0  0  0  0  0  0  0  0  0  0
    6.5660   -3.8620   24.4680 C   0  0  0  0  0  0  0  0  0  0  0  0
    5.9210   -2.8280   25.3160 C   0  0  0  0  0  0  0  0  0  0  0  0
    4.6760   -2.8670   25.4300 O   0  0  0  0  0  0  0  0  0  0  0  0
    6.6710   -1.8220   25.9650 N   0  0  0  0  0  0  0  0  0  0  0  0
    6.5200   -1.5250   27.4040 C   0  0  0  0  0  0  0  0  0  0  0  0
    6.2890   -2.7790   28.1210 C   0  0  0  0  0  0  0  0  0  0  0  0
    5.2620   -3.0600   29.2150 C   0  0  0  0  0  0  0  0  0  0  0  0
    4.3210   -2.2560   29.8100 C   0  0  0  0  0  0  0  0  0  0  0  0
    5.3500   -4.4770   29.6660 N   0  0  0  0  0  0  0  0  0  0  0  0
    6.3930   -4.8660   28.8250 C   0  0  0  0  0  0  0  0  0  0  0  0
    7.2860   -6.2790   28.5210 S   0  0  0  0  0  0  0  0  0  0  0  0
    8.2750   -5.5300   27.2530 C   0  0  0  0  0  0  0  0  0  0  0  0
    9.2560   -6.0380   26.4660 C   0  0  0  0  0  0  0  0  0  0  0  0
    7.8490   -4.2220   27.1700 C   0  0  0  0  0  0  0  0  0  0  0  0
    6.8670   -3.9340   28.0120 N   0  0  0  0  0  0  0  0  0  0  0  0
    5.4920   -4.6870   23.7990 C   0  0  0  0  0  0  0  0  0  0  0  0
    5.9490   -5.0380   22.4460 C   0  0  0  0  0  0  0  0  0  0  0  0
  1  2  1  0
  2  3  2  0
  2  4  1  0
  4  5  1  0
  5  6  1  0
  6  7  1  0
  7  8  1  0
  8  9  2  0
  8 10  1  0
 10 11  1  0
 11 12  1  0
 12 13  2  0
 13 14  1  0
 13 15  1  0
 15 16  2  0
 16 17  1  0
 17 18  1  0
 18 19  1  0
 18 20  2  0
 12 21  1  0
 16 21  1  0
 20 21  1  0
  7 22  1  0
  4 23  1  0
 22 23  1  0
M  END
