piperidine-amides-29986-covalent
     RDKit          3D

 27 29  0  0  0  0  0  0  0  0999 V2000
    7.0420   -3.3490   19.3930 C   0  0  0  0  0  0  0  0  0  0  0  0
    6.3660   -4.2160   20.3560 C   0  0  0  0  0  0  0  0  0  0  0  0
    5.3960   -4.8830   19.9910 O   0  0  0  0  0  0  0  0  0  0  0  0
    6.8500   -4.3340   21.7120 N   0  0  0  0  0  0  0  0  0  0  0  0
    7.7160   -3.3090   22.2670 C   0  0  0  0  0  0  0  0  0  0  0  0
    7.4340   -3.0870   23.7290 C   0  0  0  0  0  0  0  0  0  0  0  0
    6.0770   -3.6990   24.0010 C   0  0  0  0  0  0  0  0  0  0  0  0
    5.5140   -3.3130   25.3390 C   0  0  0  0  0  0  0  0  0  0  0  0
    4.5720   -2.5050   25.4160 O   0  0  0  0  0  0  0  0  0  0  0  0
    6.0080   -3.8500   26.5610 N   0  0  0  0  0  0  0  0  0  0  0  0
    5.2740   -4.9910   27.1840 C   0  0  0  0  0  0  0  0  0  0  0  0
    5.8440   -5.4080   28.6060 C   0  0  2  0  0  0  0  0  0  0  0  0
    5.0350   -6.1050   29.5070 C   0  0  0  0  0  0  0  0  0  0  0  0
    5.5020   -6.4670   30.6150 O   0  0  0  0  0  0  0  0  0  0  0  0
    3.6810   -6.3490   29.0960 N   0  0  0  0  0  0  0  0  0  0  0  0
    2.7910   -6.6070   30.1900 C   0  0  0  0  0  0  0  0  0  0  0  0
    2.6950   -7.9620   30.4140 C   0  0  0  0  0  0  0  0  0  0  0  0
    2.6630   -8.2790   31.8340 C   0  0  0  0  0  0  0  0  0  0  0  0
    6.5660   -4.5160   29.4380 O   0  0  0  0  0  0  0  0  0  0  0  0
    6.6740   -3.3910   28.6940 C   0  0  0  0  0  0  0  0  0  0  0  0
    6.2370   -4.6360   28.1560 C   0  0  0  0  0  0  0  0  0  0  0  0
    6.6520   -3.7380   28.9430 C   0  0  0  0  0  0  0  0  0  0  0  0
    6.3240   -3.3710   27.2900 C   0  0  0  0  0  0  0  0  0  0  0  0
    6.1570   -4.5290   27.7040 C   0  0  0  0  0  0  0  0  0  0  0  0
    6.4850   -3.1470   27.6980 C   0  0  0  0  0  0  0  0  0  0  0  0
    6.1340   -5.1970   23.8430 C   0  0  0  0  0  0  0  0  0  0  0  0
    6.6720   -5.5640   22.4500 C   0  0  0  0  0  0  0  0  0  0  0  0
  1  2  1  0
  2  3  2  0
  2  4  1  0
  4  5  1  0
  5  6  1  0
  6  7  1  0
  7  8  1  0
  8  9  2  0
  8 10  1  0
 10 11  1  0
 11 12  1  0
 12 13  1  1
 13 14  2  0
 13 15  1  0
 15 16  1  0
 16 17  1  0
 17 18  1  0
 12 19  1  0
 19 20  1  0
 20 21  2  0
 21 22  1  0
 22 23  2  0
 23 24  1  0
 10 25  1  0
 20 25  1  0
 24 25  2  0
  7 26  1  0
  4 27  1  0
 26 27  1  0
M  END
