piperidine-amides-10047-covalent
     RDKit          3D

 26 28  0  0  0  0  0  0  0  0999 V2000
    7.1650   -3.1130   18.8530 C   0  0  0  0  0  0  0  0  0  0  0  0
    6.2310   -3.5720   19.8840 C   0  0  0  0  0  0  0  0  0  0  0  0
    5.1270   -4.0560   19.5540 O   0  0  0  0  0  0  0  0  0  0  0  0
    6.5810   -3.4900   21.1960 N   0  0  0  0  0  0  0  0  0  0  0  0
    7.4060   -2.4090   21.6650 C   0  0  0  0  0  0  0  0  0  0  0  0
    7.1640   -2.2170   23.1250 C   0  0  0  0  0  0  0  0  0  0  0  0
    5.6970   -2.2720   23.4810 C   0  0  0  0  0  0  0  0  0  0  0  0
    5.5540   -2.1430   24.9470 C   0  0  0  0  0  0  0  0  0  0  0  0
    4.5280   -2.6290   25.4810 O   0  0  0  0  0  0  0  0  0  0  0  0
    6.5160   -1.4860   25.7550 N   0  0  0  0  0  0  0  0  0  0  0  0
    6.6000   -1.7270   27.1640 C   0  0  0  0  0  0  0  0  0  0  0  0
    6.5610   -3.2140   27.4440 C   0  0  1  0  0  0  0  0  0  0  0  0
    6.8450   -3.8350   28.6460 C   0  0  0  0  0  0  0  0  0  0  0  0
    6.0860   -4.8990   29.0120 C   0  0  0  0  0  0  0  0  0  0  0  0
    4.7370   -4.6530   28.9220 C   0  0  0  0  0  0  0  0  0  0  0  0
    4.3650   -3.7530   27.9250 C   0  0  0  0  0  0  0  0  0  0  0  0
    5.2890   -3.6520   26.9710 N   0  0  0  0  0  0  0  0  0  0  0  0
    5.2460   -4.6480   26.0270 C   0  0  0  0  0  0  0  0  0  0  0  0
    6.1610   -4.5250   24.8070 C   0  0  0  0  0  0  0  0  0  0  0  0
    5.7850   -5.6630   23.9790 C   0  0  0  0  0  0  0  0  0  0  0  0
    6.3510   -6.0500   22.6650 C   0  0  0  0  0  0  0  0  0  0  0  0
    7.4050   -4.8780   22.5240 C   0  0  0  0  0  0  0  0  0  0  0  0
    7.9880   -3.6760   23.1280 C   0  0  0  0  0  0  0  0  0  0  0  0
    7.1330   -3.6900   24.3820 C   0  0  0  0  0  0  0  0  0  0  0  0
    4.9680   -3.4980   22.9790 C   0  0  0  0  0  0  0  0  0  0  0  0
    5.8680   -4.3620   22.0960 C   0  0  0  0  0  0  0  0  0  0  0  0
  1  2  1  0
  2  3  2  0
  2  4  1  0
  4  5  1  0
  5  6  1  0
  6  7  1  0
  7  8  1  0
  8  9  2  0
  8 10  1  0
 10 11  1  0
 12 11  1  1
 12 13  1  0
 13 14  1  0
 14 15  1  0
 15 16  1  0
 12 17  1  0
 16 17  1  0
 17 18  1  0
 18 19  1  0
 19 20  2  0
 20 21  1  0
 21 22  2  0
 22 23  1  0
 19 24  1  0
 23 24  2  0
  7 25  1  0
  4 26  1  0
 25 26  1  0
M  END
