piperidine-amides-31753-covalent
     RDKit          3D

 27 28  0  0  0  0  0  0  0  0999 V2000
    7.1090   -3.3990   19.4950 C   0  0  0  0  0  0  0  0  0  0  0  0
    6.3940   -4.2300   20.4390 C   0  0  0  0  0  0  0  0  0  0  0  0
    5.4400   -4.9530   20.0090 O   0  0  0  0  0  0  0  0  0  0  0  0
    6.7630   -4.2660   21.8050 N   0  0  0  0  0  0  0  0  0  0  0  0
    7.7080   -3.1820   22.2230 C   0  0  0  0  0  0  0  0  0  0  0  0
    7.7210   -3.2840   23.7910 C   0  0  0  0  0  0  0  0  0  0  0  0
    6.3250   -3.7060   24.1120 C   0  0  0  0  0  0  0  0  0  0  0  0
    5.6830   -2.9950   25.3970 C   0  0  0  0  0  0  0  0  0  0  0  0
    5.4360   -1.8430   25.0930 O   0  0  0  0  0  0  0  0  0  0  0  0
    5.5300   -3.7280   26.4380 N   0  0  0  0  0  0  0  0  0  0  0  0
    5.0150   -4.4840   27.4190 C   0  0  0  0  0  0  0  0  0  0  0  0
    4.3620   -5.6650   27.5470 C   0  0  0  0  0  0  0  0  0  0  0  0
    4.5570   -6.0680   28.9250 N   0  0  0  0  0  0  0  0  0  0  0  0
    3.5650   -6.2200   29.8200 C   0  0  0  0  0  0  0  0  0  0  0  0
    3.4030   -7.2730   30.7350 O   0  0  0  0  0  0  0  0  0  0  0  0
    2.6410   -5.1810   29.7690 O   0  0  0  0  0  0  0  0  0  0  0  0
    2.2690   -4.4300   30.8750 C   0  0  0  0  0  0  0  0  0  0  0  0
    3.1750   -4.2800   32.1090 C   0  0  0  0  0  0  0  0  0  0  0  0
    1.8060   -5.1890   32.1370 C   0  0  0  0  0  0  0  0  0  0  0  0
    1.5290   -3.1590   30.5590 C   0  0  0  0  0  0  0  0  0  0  0  0
    5.4330   -5.1040   29.5160 C   0  0  0  0  0  0  0  0  0  0  0  0
    6.4850   -4.7090   28.4530 C   0  0  0  0  0  0  0  0  0  0  0  0
    6.5970   -5.8400   27.6350 F   0  0  0  0  0  0  0  0  0  0  0  0
    7.6240   -4.7000   29.0900 F   0  0  0  0  0  0  0  0  0  0  0  0
    6.2400   -3.5620   27.6880 C   0  0  0  0  0  0  0  0  0  0  0  0
    6.0800   -5.1680   23.8220 C   0  0  0  0  0  0  0  0  0  0  0  0
    6.5800   -5.4830   22.5870 C   0  0  0  0  0  0  0  0  0  0  0  0
  1  2  1  0
  2  3  2  0
  2  4  1  0
  4  5  1  0
  5  6  1  0
  6  7  1  0
  7  8  1  0
  8  9  2  0
  8 10  1  0
 10 11  1  0
 11 12  1  0
 12 13  1  0
 13 14  1  0
 14 15  2  0
 14 16  1  0
 17 16  1  0
 17 18  1  0
 17 19  1  0
 17 20  1  0
 13 21  1  0
 21 22  1  0
 22 23  1  0
 22 24  1  0
 10 25  1  0
 22 25  1  0
  7 26  1  0
  4 27  1  0
 26 27  1  0
M  END
