piperidine-amides-19558-covalent
     RDKit          3D

 22 23  0  0  0  0  0  0  0  0999 V2000
    7.1950   -3.3350   19.4090 C   0  0  0  0  0  0  0  0  0  0  0  0
    6.4340   -4.1190   20.3490 C   0  0  0  0  0  0  0  0  0  0  0  0
    5.3550   -4.6600   19.9400 O   0  0  0  0  0  0  0  0  0  0  0  0
    6.8830   -4.3390   21.6730 N   0  0  0  0  0  0  0  0  0  0  0  0
    6.3400   -5.4890   22.4100 C   0  0  0  0  0  0  0  0  0  0  0  0
    5.3660   -4.6990   23.3610 C   0  0  0  0  0  0  0  0  0  0  0  0
    6.2360   -3.7320   24.1400 C   0  0  0  0  0  0  0  0  0  0  0  0
    5.4400   -3.1860   25.4070 C   0  0  0  0  0  0  0  0  0  0  0  0
    4.3790   -2.7150   25.0260 O   0  0  0  0  0  0  0  0  0  0  0  0
    6.0770   -3.3720   26.5050 N   0  0  0  0  0  0  0  0  0  0  0  0
    6.5530   -4.0490   27.5990 C   0  0  0  0  0  0  0  0  0  0  0  0
    6.3580   -2.0550   26.9460 C   0  0  0  0  0  0  0  0  0  0  0  0
    5.9400   -1.7110   28.2560 C   0  0  0  0  0  0  0  0  0  0  0  0
    4.5400   -2.1280   28.5440 C   0  0  0  0  0  0  0  0  0  0  0  0
    4.0390   -1.7780   29.9550 C   0  0  0  0  0  0  0  0  0  0  0  0
    4.9950   -1.1250   30.7270 C   0  0  0  0  0  0  0  0  0  0  0  0
    4.6970   -0.7950   31.8950 O   0  0  0  0  0  0  0  0  0  0  0  0
    3.4790   -1.0000   32.4800 C   0  0  0  0  0  0  0  0  0  0  0  0
    6.3350   -0.8420   30.1450 C   0  0  0  0  0  0  0  0  0  0  0  0
    6.7670   -1.0740   29.1020 N   0  0  0  0  0  0  0  0  0  0  0  0
    6.8890   -2.7120   23.2530 C   0  0  0  0  0  0  0  0  0  0  0  0
    7.6950   -3.3760   22.3670 C   0  0  0  0  0  0  0  0  0  0  0  0
  1  2  1  0
  2  3  2  0
  2  4  1  0
  4  5  1  0
  5  6  1  0
  6  7  1  0
  7  8  1  0
  8  9  2  0
  8 10  1  0
 10 11  1  0
 10 12  1  0
 12 13  1  0
 13 14  2  0
 14 15  1  0
 15 16  2  0
 16 17  1  0
 17 18  1  0
 16 19  1  0
 13 20  1  0
 19 20  2  0
  7 21  1  0
  4 22  1  0
 21 22  1  0
M  END
