piperidine-amides-33505-covalent
     RDKit          3D

 29 29  0  0  0  0  0  0  0  0999 V2000
    7.1400   -3.2330   19.1720 C   0  0  0  0  0  0  0  0  0  0  0  0
    6.3430   -3.9620   20.1760 C   0  0  0  0  0  0  0  0  0  0  0  0
    5.2310   -4.4020   19.8120 O   0  0  0  0  0  0  0  0  0  0  0  0
    6.8220   -4.2250   21.4780 N   0  0  0  0  0  0  0  0  0  0  0  0
    7.5690   -3.2030   22.1430 C   0  0  0  0  0  0  0  0  0  0  0  0
    7.2220   -2.9530   23.5460 C   0  0  0  0  0  0  0  0  0  0  0  0
    6.4180   -4.0030   24.2040 C   0  0  0  0  0  0  0  0  0  0  0  0
    5.6640   -3.4620   25.3930 C   0  0  0  0  0  0  0  0  0  0  0  0
    4.4710   -3.1370   25.2530 O   0  0  0  0  0  0  0  0  0  0  0  0
    6.2730   -3.2790   26.6730 N   0  0  0  0  0  0  0  0  0  0  0  0
    6.7050   -2.0050   27.1380 C   0  0  0  0  0  0  0  0  0  0  0  0
    7.1950   -1.8410   28.5100 C   0  0  0  0  0  0  0  0  0  0  0  0
    6.5850   -4.3670   27.6230 C   0  0  2  0  0  0  0  0  0  0  0  0
    6.5940   -5.7280   27.3830 C   0  0  0  0  0  0  0  0  0  0  0  0
    5.5340   -5.2400   28.3520 C   0  0  0  0  0  0  0  0  0  0  0  0
    5.1430   -5.2540   26.8960 C   0  0  0  0  0  0  0  0  0  0  0  0
    6.1630   -5.5570   25.9880 O   0  0  0  0  0  0  0  0  0  0  0  0
    3.8720   -5.0490   26.4840 N   0  0  0  0  0  0  0  0  0  0  0  0
    3.1970   -5.9140   25.6920 C   0  0  1  0  0  0  0  0  0  0  0  0
    3.7880   -7.3040   25.6300 C   0  0  0  0  0  0  0  0  0  0  0  0
    1.6980   -6.0080   25.9570 C   0  0  0  0  0  0  0  0  0  0  0  0
    1.0030   -5.0120   26.5860 O   0  0  0  0  0  0  0  0  0  0  0  0
    1.1230   -7.2670   25.4700 N   0  0  0  0  0  0  0  0  0  0  0  0
    1.3750   -8.0740   24.2750 C   0  0  0  0  0  0  0  0  0  0  0  0
    1.4860   -7.4790   22.9110 C   0  0  0  0  0  0  0  0  0  0  0  0
    0.9870   -6.1800   22.8080 C   0  0  0  0  0  0  0  0  0  0  0  0
    1.0380   -8.3660   21.9500 C   0  0  0  0  0  0  0  0  0  0  0  0
    5.5160   -4.6930   23.2490 C   0  0  0  0  0  0  0  0  0  0  0  0
    6.2470   -5.2960   22.2390 C   0  0  0  0  0  0  0  0  0  0  0  0
  1  2  1  0
  2  3  2  0
  2  4  1  0
  4  5  1  0
  5  6  1  0
  6  7  1  0
  7  8  1  0
  8  9  2  0
  8 10  1  0
 10 11  1  0
 11 12  1  0
 10 13  1  0
 13 14  1  6
 13 15  1  0
 15 16  1  0
 16 17  2  0
 16 18  1  0
 18 19  1  0
 19 20  1  1
 19 21  1  0
 21 22  2  0
 21 23  1  0
 23 24  1  0
 24 25  1  0
 25 26  1  0
 25 27  1  0
  7 28  1  0
  4 29  1  0
 28 29  1  0
M  END
