piperidine-amides-8202-covalent
     RDKit          3D

 25 27  0  0  0  0  0  0  0  0999 V2000
    7.0690   -3.3370   19.3240 C   0  0  0  0  0  0  0  0  0  0  0  0
    6.4110   -4.1890   20.3080 C   0  0  0  0  0  0  0  0  0  0  0  0
    5.3760   -4.7850   19.9680 O   0  0  0  0  0  0  0  0  0  0  0  0
    6.9810   -4.3650   21.5930 N   0  0  0  0  0  0  0  0  0  0  0  0
    6.5020   -5.4470   22.3890 C   0  0  0  0  0  0  0  0  0  0  0  0
    5.6310   -4.8750   23.4700 C   0  0  0  0  0  0  0  0  0  0  0  0
    6.4720   -3.8950   24.2680 C   0  0  0  0  0  0  0  0  0  0  0  0
    5.6970   -3.3760   25.4470 C   0  0  0  0  0  0  0  0  0  0  0  0
    4.4710   -3.3320   25.3610 O   0  0  0  0  0  0  0  0  0  0  0  0
    6.4030   -2.9900   26.5760 N   0  0  0  0  0  0  0  0  0  0  0  0
    6.6960   -1.6380   26.9380 C   0  0  1  0  0  0  0  0  0  0  0  0
    5.7280   -0.5850   26.7400 C   0  0  0  0  0  0  0  0  0  0  0  0
    5.7800    0.4160   27.6730 C   0  0  0  0  0  0  0  0  0  0  0  0
    6.3270   -0.3240   28.6880 N   0  0  0  0  0  0  0  0  0  0  0  0
    6.0290    0.1360   29.9930 C   0  0  0  0  0  0  0  0  0  0  0  0
    4.6740    0.6540   30.2770 C   0  0  0  0  0  0  0  0  0  0  0  0
    4.2620    1.1680   31.6670 C   0  0  0  0  0  0  0  0  0  0  0  0
    5.2640    1.1450   32.7750 C   0  0  0  0  0  0  0  0  0  0  0  0
    6.6550    0.6090   32.4700 C   0  0  0  0  0  0  0  0  0  0  0  0
    7.9040    0.5380   33.7020 Cl  0  0  0  0  0  0  0  0  0  0  0  0
    6.9610    0.1140   31.0230 C   0  0  0  0  0  0  0  0  0  0  0  0
    6.5940   -1.6960   28.4840 C   0  0  0  0  0  0  0  0  0  0  0  0
    6.6740   -2.6450   29.3120 O   0  0  0  0  0  0  0  0  0  0  0  0
    6.8070   -2.7440   23.3730 C   0  0  0  0  0  0  0  0  0  0  0  0
    7.6000   -3.2050   22.1860 C   0  0  0  0  0  0  0  0  0  0  0  0
  1  2  1  0
  2  3  2  0
  2  4  1  0
  4  5  1  0
  5  6  1  0
  6  7  1  0
  7  8  1  0
  8  9  2  0
  8 10  1  0
 11 10  1  6
 11 12  1  0
 12 13  1  0
 13 14  1  0
 14 15  1  0
 15 16  2  0
 16 17  1  0
 17 18  2  0
 18 19  1  0
 19 20  1  0
 15 21  1  0
 19 21  2  0
 11 22  1  0
 14 22  1  0
 22 23  2  0
  7 24  1  0
  4 25  1  0
 24 25  1  0
M  END
