piperidine-amides-10212-covalent
     RDKit          3D

 25 26  0  0  0  0  0  0  0  0999 V2000
    7.0720   -3.3080   19.2700 C   0  0  0  0  0  0  0  0  0  0  0  0
    6.3540   -4.1000   20.2730 C   0  0  0  0  0  0  0  0  0  0  0  0
    5.2780   -4.6360   19.9090 O   0  0  0  0  0  0  0  0  0  0  0  0
    6.8910   -4.2730   21.5440 N   0  0  0  0  0  0  0  0  0  0  0  0
    6.5720   -5.4430   22.3260 C   0  0  0  0  0  0  0  0  0  0  0  0
    5.8820   -4.9750   23.5760 C   0  0  0  0  0  0  0  0  0  0  0  0
    6.6230   -3.8240   24.1940 C   0  0  0  0  0  0  0  0  0  0  0  0
    5.8590   -3.2600   25.3230 C   0  0  0  0  0  0  0  0  0  0  0  0
    4.6560   -2.9680   25.1410 O   0  0  0  0  0  0  0  0  0  0  0  0
    6.4280   -3.0540   26.5880 N   0  0  0  0  0  0  0  0  0  0  0  0
    6.4210   -1.7630   27.2250 C   0  0  0  0  0  0  0  0  0  0  0  0
    7.0350   -1.6120   28.5910 C   0  0  0  0  0  0  0  0  0  0  0  0
    7.0580   -0.4180   29.2670 C   0  0  0  0  0  0  0  0  0  0  0  0
    6.5190    0.7730   28.7620 C   0  0  0  0  0  0  0  0  0  0  0  0
    6.6640    1.7710   29.5960 O   0  0  0  0  0  0  0  0  0  0  0  0
    5.9040    1.6260   30.6470 C   0  0  0  0  0  0  0  0  0  0  0  0
    6.4000    1.6890   31.9360 C   0  0  0  0  0  0  0  0  0  0  0  0
    6.2690    2.7180   32.6470 O   0  0  0  0  0  0  0  0  0  0  0  0
    7.0360    0.6070   32.4220 N   0  0  0  0  0  0  0  0  0  0  0  0
    8.3840    0.5430   32.5170 C   0  0  0  0  0  0  0  0  0  0  0  0
    6.4730    0.1180   33.5270 C   0  0  0  0  0  0  0  0  0  0  0  0
    5.9270    0.7440   27.4950 C   0  0  0  0  0  0  0  0  0  0  0  0
    5.8480   -0.5120   26.6700 C   0  0  0  0  0  0  0  0  0  0  0  0
    6.8950   -2.7340   23.2150 C   0  0  0  0  0  0  0  0  0  0  0  0
    7.6730   -3.2190   22.1980 C   0  0  0  0  0  0  0  0  0  0  0  0
  1  2  1  0
  2  3  2  0
  2  4  1  0
  4  5  1  0
  5  6  1  0
  6  7  1  0
  7  8  1  0
  8  9  2  0
  8 10  1  0
 10 11  1  0
 11 12  2  0
 12 13  1  0
 13 14  2  0
 14 15  1  0
 15 16  1  0
 16 17  1  0
 17 18  2  0
 17 19  1  0
 19 20  1  0
 19 21  1  0
 14 22  1  0
 11 23  1  0
 22 23  2  0
  7 24  1  0
  4 25  1  0
 24 25  1  0
M  END
