piperidine-amides-32589-covalent
     RDKit          3D

 26 28  0  0  0  0  0  0  0  0999 V2000
    7.0260   -3.3500   19.3970 C   0  0  0  0  0  0  0  0  0  0  0  0
    6.3570   -4.2500   20.3780 C   0  0  0  0  0  0  0  0  0  0  0  0
    5.3710   -4.9000   19.9960 O   0  0  0  0  0  0  0  0  0  0  0  0
    6.8680   -4.3900   21.6930 N   0  0  0  0  0  0  0  0  0  0  0  0
    6.5390   -5.5130   22.5290 C   0  0  0  0  0  0  0  0  0  0  0  0
    5.5450   -5.0020   23.5840 C   0  0  0  0  0  0  0  0  0  0  0  0
    6.2060   -3.9240   24.3900 C   0  0  0  0  0  0  0  0  0  0  0  0
    5.2710   -3.2480   25.3630 C   0  0  0  0  0  0  0  0  0  0  0  0
    4.5560   -2.3830   24.8620 O   0  0  0  0  0  0  0  0  0  0  0  0
    5.1850   -3.5710   26.7480 N   0  0  0  0  0  0  0  0  0  0  0  0
    4.9240   -2.6960   27.8060 C   0  0  0  0  0  0  0  0  0  0  0  0
    5.3960   -3.0150   29.0550 C   0  0  0  0  0  0  0  0  0  0  0  0
    5.1400   -4.4300   29.2380 N   0  0  0  0  0  0  0  0  0  0  0  0
    3.8960   -4.9980   29.5250 C   0  0  0  0  0  0  0  0  0  0  0  0
    3.9440   -5.5930   30.7660 C   0  0  0  0  0  0  0  0  0  0  0  0
    3.1060   -5.0870   31.9090 C   0  0  0  0  0  0  0  0  0  0  0  0
    2.0480   -3.7040   31.6440 Cl  0  0  0  0  0  0  0  0  0  0  0  0
    3.1150   -5.7160   33.3220 C   0  0  0  0  0  0  0  0  0  0  0  0
    4.0800   -6.8990   33.3840 C   0  0  0  0  0  0  0  0  0  0  0  0
    4.8120   -7.3060   32.3080 C   0  0  0  0  0  0  0  0  0  0  0  0
    4.7690   -6.6790   30.9830 C   0  0  0  0  0  0  0  0  0  0  0  0
    5.8240   -7.4300   29.7990 Cl  0  0  0  0  0  0  0  0  0  0  0  0
    5.7580   -5.2330   28.2430 C   0  0  0  0  0  0  0  0  0  0  0  0
    6.1500   -4.5130   27.1530 C   0  0  0  0  0  0  0  0  0  0  0  0
    6.8700   -2.8370   23.5820 C   0  0  0  0  0  0  0  0  0  0  0  0
    7.6110   -3.3240   22.3460 C   0  0  0  0  0  0  0  0  0  0  0  0
  1  2  1  0
  2  3  2  0
  2  4  1  0
  4  5  1  0
  5  6  1  0
  6  7  1  0
  7  8  1  0
  8  9  2  0
  8 10  1  0
 10 11  1  0
 11 12  1  0
 12 13  1  0
 13 14  1  0
 14 15  1  0
 15 16  2  0
 16 17  1  0
 16 18  1  0
 18 19  2  0
 19 20  1  0
 15 21  1  0
 20 21  2  0
 21 22  1  0
 13 23  1  0
 10 24  1  0
 23 24  1  0
  7 25  1  0
  4 26  1  0
 25 26  1  0
M  END
