piperidine-amides-10043-covalent
     RDKit          3D

 26 28  0  0  0  0  0  0  0  0999 V2000
    7.1010   -3.0890   18.8960 C   0  0  0  0  0  0  0  0  0  0  0  0
    6.1320   -3.5770   19.8900 C   0  0  0  0  0  0  0  0  0  0  0  0
    5.0370   -4.0110   19.4910 O   0  0  0  0  0  0  0  0  0  0  0  0
    6.3990   -3.5790   21.2300 N   0  0  0  0  0  0  0  0  0  0  0  0
    6.9430   -2.4060   21.8640 C   0  0  0  0  0  0  0  0  0  0  0  0
    6.6000   -2.4150   23.3360 C   0  0  0  0  0  0  0  0  0  0  0  0
    5.1710   -2.8420   23.6300 C   0  0  0  0  0  0  0  0  0  0  0  0
    4.8830   -2.9340   25.1060 C   0  0  0  0  0  0  0  0  0  0  0  0
    4.3570   -1.9480   25.6610 O   0  0  0  0  0  0  0  0  0  0  0  0
    5.1560   -4.0820   25.9080 N   0  0  0  0  0  0  0  0  0  0  0  0
    4.5310   -4.3730   27.1960 C   0  0  0  0  0  0  0  0  0  0  0  0
    5.4730   -4.1000   28.3330 C   0  0  1  0  0  0  0  0  0  0  0  0
    6.1240   -5.1050   28.9830 C   0  0  0  0  0  0  0  0  0  0  0  0
    7.1800   -5.6180   28.3030 C   0  0  0  0  0  0  0  0  0  0  0  0
    7.1150   -5.3100   26.9670 C   0  0  0  0  0  0  0  0  0  0  0  0
    6.8770   -3.9750   26.7890 N   0  0  0  0  0  0  0  0  0  0  0  0
    6.5790   -3.4230   25.6140 C   0  0  0  0  0  0  0  0  0  0  0  0
    6.8310   -4.1030   24.4340 C   0  0  0  0  0  0  0  0  0  0  0  0
    7.6870   -3.4380   23.3540 C   0  0  0  0  0  0  0  0  0  0  0  0
    7.7250   -4.4440   22.2740 C   0  0  0  0  0  0  0  0  0  0  0  0
    7.2040   -5.7890   21.9950 C   0  0  0  0  0  0  0  0  0  0  0  0
    6.4000   -6.2610   23.1450 C   0  0  0  0  0  0  0  0  0  0  0  0
    6.2770   -5.4070   24.2520 C   0  0  0  0  0  0  0  0  0  0  0  0
    6.4140   -3.2830   27.9610 C   0  0  0  0  0  0  0  0  0  0  0  0
    4.7670   -4.1400   22.9790 C   0  0  0  0  0  0  0  0  0  0  0  0
    5.8070   -4.6680   21.9750 C   0  0  0  0  0  0  0  0  0  0  0  0
  1  2  1  0
  2  3  2  0
  2  4  1  0
  4  5  1  0
  5  6  1  0
  6  7  1  0
  7  8  1  0
  8  9  2  0
  8 10  1  0
 10 11  1  0
 12 11  1  6
 12 13  1  0
 13 14  1  0
 14 15  1  0
 15 16  1  0
 16 17  1  0
 17 18  1  0
 18 19  2  0
 19 20  1  0
 20 21  2  0
 21 22  1  0
 18 23  1  0
 22 23  2  0
 12 24  1  0
 16 24  1  0
  7 25  1  0
  4 26  1  0
 25 26  1  0
M  END
