piperidine-amides-28086-covalent
     RDKit          3D

 26 28  0  0  0  0  0  0  0  0999 V2000
    7.0530   -3.3440   19.3560 C   0  0  0  0  0  0  0  0  0  0  0  0
    6.3830   -4.1920   20.3700 C   0  0  0  0  0  0  0  0  0  0  0  0
    5.3910   -4.8420   19.9800 O   0  0  0  0  0  0  0  0  0  0  0  0
    6.8760   -4.2810   21.6840 N   0  0  0  0  0  0  0  0  0  0  0  0
    6.5330   -5.3900   22.5120 C   0  0  0  0  0  0  0  0  0  0  0  0
    6.0510   -5.0380   23.8630 C   0  0  0  0  0  0  0  0  0  0  0  0
    6.4630   -3.7170   24.4210 C   0  0  0  0  0  0  0  0  0  0  0  0
    5.4330   -3.2430   25.3970 C   0  0  0  0  0  0  0  0  0  0  0  0
    4.3840   -2.7910   24.9100 O   0  0  0  0  0  0  0  0  0  0  0  0
    5.5840   -3.2830   26.8160 N   0  0  0  0  0  0  0  0  0  0  0  0
    6.0290   -4.5140   27.5300 C   0  0  0  0  0  0  0  0  0  0  0  0
    5.1720   -5.2260   28.5320 C   0  0  0  0  0  0  0  0  0  0  0  0
    3.7210   -5.3140   28.4150 C   0  0  0  0  0  0  0  0  0  0  0  0
    2.9340   -5.9860   29.3610 C   0  0  0  0  0  0  0  0  0  0  0  0
    3.6580   -6.5670   30.4450 N   0  0  0  0  0  0  0  0  0  0  0  0
    5.1040   -6.4870   30.5800 C   0  0  0  0  0  0  0  0  0  0  0  0
    5.7560   -7.0160   31.6150 O   0  0  0  0  0  0  0  0  0  0  0  0
    5.1960   -7.5400   32.7860 C   0  0  0  0  0  0  0  0  0  0  0  0
    5.7580   -8.6960   33.2290 C   0  0  0  0  0  0  0  0  0  0  0  0
    5.1630   -6.6210   33.8160 C   0  0  0  0  0  0  0  0  0  0  0  0
    5.8000   -5.8240   29.6080 C   0  0  0  0  0  0  0  0  0  0  0  0
    5.7360   -2.0290   27.5330 C   0  0  0  0  0  0  0  0  0  0  0  0
    6.9370   -1.3670   27.3550 C   0  0  0  0  0  0  0  0  0  0  0  0
    5.6930   -0.6270   26.7920 C   0  0  0  0  0  0  0  0  0  0  0  0
    6.8140   -2.6770   23.4370 C   0  0  0  0  0  0  0  0  0  0  0  0
    7.6440   -3.2200   22.3000 C   0  0  0  0  0  0  0  0  0  0  0  0
  1  2  1  0
  2  3  2  0
  2  4  1  0
  4  5  1  0
  5  6  1  0
  6  7  1  0
  7  8  1  0
  8  9  2  0
  8 10  1  0
 10 11  1  0
 11 12  1  0
 12 13  2  0
 13 14  1  0
 14 15  2  0
 15 16  1  0
 16 17  1  0
 17 18  1  0
 18 19  1  0
 18 20  1  0
 12 21  1  0
 16 21  2  0
 10 22  1  0
 22 23  1  0
 22 24  1  0
 23 24  1  0
  7 25  1  0
  4 26  1  0
 25 26  1  0
M  END
