piperidine-amides-12730-covalent
     RDKit          3D

 22 23  0  0  0  0  0  0  0  0999 V2000
    7.0550   -3.3040   19.2990 C   0  0  0  0  0  0  0  0  0  0  0  0
    6.3750   -4.1120   20.3400 C   0  0  0  0  0  0  0  0  0  0  0  0
    5.3720   -4.7580   19.9610 O   0  0  0  0  0  0  0  0  0  0  0  0
    6.8590   -4.1760   21.6650 N   0  0  0  0  0  0  0  0  0  0  0  0
    6.6130   -5.3490   22.4420 C   0  0  0  0  0  0  0  0  0  0  0  0
    6.0270   -5.0500   23.7470 C   0  0  0  0  0  0  0  0  0  0  0  0
    6.0460   -3.6090   24.0550 C   0  0  0  0  0  0  0  0  0  0  0  0
    5.5430   -3.3130   25.4340 C   0  0  0  0  0  0  0  0  0  0  0  0
    4.3110   -3.1970   25.5540 O   0  0  0  0  0  0  0  0  0  0  0  0
    6.3640   -3.1560   26.5760 N   0  0  0  0  0  0  0  0  0  0  0  0
    6.3560   -4.1110   27.7270 C   0  0  0  0  0  0  0  0  0  0  0  0
    5.2710   -3.9090   28.7180 C   0  0  0  0  0  0  0  0  0  0  0  0
    4.7960   -5.0230   29.4560 C   0  0  0  0  0  0  0  0  0  0  0  0
    3.8210   -4.9290   30.3780 C   0  0  0  0  0  0  0  0  0  0  0  0
    3.1870   -3.7380   30.6960 C   0  0  0  0  0  0  0  0  0  0  0  0
    2.2310   -3.8650   31.6580 C   0  0  0  0  0  0  0  0  0  0  0  0
    1.5930   -2.7220   32.0790 F   0  0  0  0  0  0  0  0  0  0  0  0
    1.2180   -4.6410   31.0540 F   0  0  0  0  0  0  0  0  0  0  0  0
    3.6560   -2.4930   29.9290 C   0  0  0  0  0  0  0  0  0  0  0  0
    4.6700   -2.6810   28.9930 C   0  0  0  0  0  0  0  0  0  0  0  0
    7.4070   -3.0470   23.7300 C   0  0  0  0  0  0  0  0  0  0  0  0
    7.6610   -3.1010   22.2590 C   0  0  0  0  0  0  0  0  0  0  0  0
  1  2  1  0
  2  3  2  0
  2  4  1  0
  4  5  1  0
  5  6  1  0
  6  7  1  0
  7  8  1  0
  8  9  2  0
  8 10  1  0
 10 11  1  0
 11 12  1  0
 12 13  2  0
 13 14  1  0
 14 15  2  0
 15 16  1  0
 16 17  1  0
 16 18  1  0
 15 19  1  0
 12 20  1  0
 19 20  2  0
  7 21  1  0
  4 22  1  0
 21 22  1  0
M  END
