piperidine-amides-34387-covalent
     RDKit          3D

 30 32  0  0  0  0  0  0  0  0999 V2000
    7.0540   -3.3440   19.4040 C   0  0  0  0  0  0  0  0  0  0  0  0
    6.4060   -4.2370   20.3790 C   0  0  0  0  0  0  0  0  0  0  0  0
    5.4300   -4.9330   20.0110 O   0  0  0  0  0  0  0  0  0  0  0  0
    6.8950   -4.3480   21.7010 N   0  0  0  0  0  0  0  0  0  0  0  0
    6.5440   -5.4840   22.5050 C   0  0  0  0  0  0  0  0  0  0  0  0
    5.5920   -4.9610   23.5960 C   0  0  0  0  0  0  0  0  0  0  0  0
    6.2180   -3.7670   24.3200 C   0  0  0  0  0  0  0  0  0  0  0  0
    5.1740   -3.1340   25.1970 C   0  0  0  0  0  0  0  0  0  0  0  0
    4.1070   -2.8230   24.6490 O   0  0  0  0  0  0  0  0  0  0  0  0
    5.3470   -2.8970   26.6000 N   0  0  0  0  0  0  0  0  0  0  0  0
    6.5110   -3.3440   27.1000 C   0  0  0  0  0  0  0  0  0  0  0  0
    6.0570   -4.7030   27.6660 C   0  0  0  0  0  0  0  0  0  0  0  0
    5.8420   -4.8260   28.9980 C   0  0  0  0  0  0  0  0  0  0  0  0
    5.7980   -3.8220   29.7500 O   0  0  0  0  0  0  0  0  0  0  0  0
    5.9610   -6.1060   29.4870 C   0  0  0  0  0  0  0  0  0  0  0  0
    5.2950   -6.4470   30.6720 C   0  0  0  0  0  0  0  0  0  0  0  0
    5.7420   -7.4800   31.4610 C   0  0  0  0  0  0  0  0  0  0  0  0
    5.2690   -8.1030   32.7890 C   0  0  0  0  0  0  0  0  0  0  0  0
    4.0450   -7.2110   33.0590 C   0  0  0  0  0  0  0  0  0  0  0  0
    3.3440   -7.4080   34.1100 O   0  0  0  0  0  0  0  0  0  0  0  0
    2.9900   -8.7150   34.5280 C   0  0  0  0  0  0  0  0  0  0  0  0
    4.0890   -9.4670   34.7030 F   0  0  0  0  0  0  0  0  0  0  0  0
    2.1870   -9.3120   33.6280 F   0  0  0  0  0  0  0  0  0  0  0  0
    2.3060   -8.6520   35.7250 F   0  0  0  0  0  0  0  0  0  0  0  0
    3.5550   -6.0700   32.1770 C   0  0  0  0  0  0  0  0  0  0  0  0
    4.2050   -5.7360   31.0170 C   0  0  0  0  0  0  0  0  0  0  0  0
    4.7160   -4.6930   28.2030 C   0  0  0  0  0  0  0  0  0  0  0  0
    4.4430   -3.3400   27.5650 C   0  0  0  0  0  0  0  0  0  0  0  0
    6.7470   -2.6740   23.3960 C   0  0  0  0  0  0  0  0  0  0  0  0
    7.6530   -3.2930   22.3210 C   0  0  0  0  0  0  0  0  0  0  0  0
  1  2  1  0
  2  3  2  0
  2  4  1  0
  4  5  1  0
  5  6  1  0
  6  7  1  0
  7  8  1  0
  8  9  2  0
  8 10  1  0
 10 11  1  0
 11 12  1  0
 12 13  1  0
 13 14  1  0
 13 15  1  0
 15 16  1  0
 16 17  2  0
 17 18  1  0
 18 19  2  0
 19 20  1  0
 20 21  1  0
 21 22  1  0
 21 23  1  0
 21 24  1  0
 19 25  1  0
 16 26  1  0
 25 26  2  0
 13 27  1  0
 10 28  1  0
 27 28  1  0
  7 29  1  0
  4 30  1  0
 29 30  1  0
M  END
