piperidine-amides-8521-covalent
     RDKit          3D

 24 25  0  0  0  0  0  0  0  0999 V2000
    7.0160   -3.3480   19.3500 C   0  0  0  0  0  0  0  0  0  0  0  0
    6.3560   -4.1840   20.3570 C   0  0  0  0  0  0  0  0  0  0  0  0
    5.3870   -4.8710   19.9860 O   0  0  0  0  0  0  0  0  0  0  0  0
    6.8290   -4.2390   21.6950 N   0  0  0  0  0  0  0  0  0  0  0  0
    7.7150   -3.2050   22.1820 C   0  0  0  0  0  0  0  0  0  0  0  0
    7.4030   -2.8780   23.6080 C   0  0  0  0  0  0  0  0  0  0  0  0
    6.0710   -3.5170   23.8930 C   0  0  0  0  0  0  0  0  0  0  0  0
    5.6440   -3.1890   25.2910 C   0  0  0  0  0  0  0  0  0  0  0  0
    4.4420   -3.2590   25.5360 O   0  0  0  0  0  0  0  0  0  0  0  0
    6.6360   -2.8260   26.1890 N   0  0  0  0  0  0  0  0  0  0  0  0
    6.5580   -1.6910   27.0540 C   0  0  0  0  0  0  0  0  0  0  0  0
    7.0060   -1.6020   28.3790 C   0  0  0  0  0  0  0  0  0  0  0  0
    6.9120   -0.4750   29.1750 C   0  0  0  0  0  0  0  0  0  0  0  0
    6.3580    0.7530   28.7950 C   0  0  0  0  0  0  0  0  0  0  0  0
    5.8430    0.7700   27.3880 C   0  0  0  0  0  0  0  0  0  0  0  0
    5.2620    1.8250   26.7760 N   0  0  0  0  0  0  0  0  0  0  0  0
    4.0780    2.2050   27.2640 C   0  0  0  0  0  0  0  0  0  0  0  0
    3.9210    3.6200   27.6890 C   0  0  0  0  0  0  0  0  0  0  0  0
    2.7460    3.6830   28.4290 F   0  0  0  0  0  0  0  0  0  0  0  0
    5.0040    4.0140   28.4210 F   0  0  0  0  0  0  0  0  0  0  0  0
    3.8130    4.3700   26.5180 F   0  0  0  0  0  0  0  0  0  0  0  0
    5.9380   -0.4190   26.5330 C   0  0  0  0  0  0  0  0  0  0  0  0
    6.0140   -4.9790   23.7020 C   0  0  0  0  0  0  0  0  0  0  0  0
    6.6280   -5.3980   22.5380 C   0  0  0  0  0  0  0  0  0  0  0  0
  1  2  1  0
  2  3  2  0
  2  4  1  0
  4  5  1  0
  5  6  1  0
  6  7  1  0
  7  8  1  0
  8  9  2  0
  8 10  1  0
 10 11  1  0
 11 12  2  0
 12 13  1  0
 13 14  2  0
 14 15  1  0
 15 16  1  0
 16 17  1  0
 17 18  1  0
 18 19  1  0
 18 20  1  0
 18 21  1  0
 11 22  1  0
 15 22  2  0
  7 23  1  0
  4 24  1  0
 23 24  1  0
M  END
