piperidine-amides-31488-covalent
     RDKit          3D

 27 28  0  0  0  0  0  0  0  0999 V2000
    7.1160   -3.3490   19.2300 C   0  0  0  0  0  0  0  0  0  0  0  0
    6.3460   -4.0590   20.2230 C   0  0  0  0  0  0  0  0  0  0  0  0
    5.2190   -4.5060   19.8710 O   0  0  0  0  0  0  0  0  0  0  0  0
    6.8140   -4.3570   21.5160 N   0  0  0  0  0  0  0  0  0  0  0  0
    7.5910   -3.3270   22.2320 C   0  0  0  0  0  0  0  0  0  0  0  0
    6.4060   -2.6730   23.0220 C   0  0  0  0  0  0  0  0  0  0  0  0
    5.8520   -3.7730   23.9070 C   0  0  0  0  0  0  0  0  0  0  0  0
    5.8160   -3.3220   25.4250 C   0  0  0  0  0  0  0  0  0  0  0  0
    4.7140   -3.5010   25.9300 O   0  0  0  0  0  0  0  0  0  0  0  0
    6.9750   -2.8650   25.6530 N   0  0  0  0  0  0  0  0  0  0  0  0
    8.0370   -2.0590   25.4390 C   0  0  0  0  0  0  0  0  0  0  0  0
    9.0020   -1.9580   24.4610 C   0  0  0  0  0  0  0  0  0  0  0  0
    8.8390   -0.8850   23.5710 C   0  0  0  0  0  0  0  0  0  0  0  0
    9.7240   -0.5290   22.4220 C   0  0  0  0  0  0  0  0  0  0  0  0
   10.9090   -1.5400   22.3250 C   0  0  0  0  0  0  0  0  0  0  0  0
   10.9170   -2.5510   23.2940 C   0  0  0  0  0  0  0  0  0  0  0  0
   10.0080   -2.7640   24.3210 C   0  0  0  0  0  0  0  0  0  0  0  0
    7.7130   -3.5500   26.7010 C   0  0  0  0  0  0  0  0  0  0  0  0
    7.1100   -4.7800   27.4740 C   0  0  2  0  0  0  0  0  0  0  0  0
    7.2580   -5.8900   26.9350 O   0  0  0  0  0  0  0  0  0  0  0  0
    5.7420   -4.7850   27.6250 C   0  0  0  0  0  0  0  0  0  0  0  0
    5.2360   -5.7370   28.4810 C   0  0  0  0  0  0  0  0  0  0  0  0
    4.1640   -5.4130   29.2450 F   0  0  0  0  0  0  0  0  0  0  0  0
    4.8730   -6.8940   27.8220 F   0  0  0  0  0  0  0  0  0  0  0  0
    6.2920   -6.1350   29.2910 F   0  0  0  0  0  0  0  0  0  0  0  0
    6.3740   -5.1740   23.6140 C   0  0  0  0  0  0  0  0  0  0  0  0
    6.2450   -5.4420   22.2700 C   0  0  0  0  0  0  0  0  0  0  0  0
  1  2  1  0
  2  3  2  0
  2  4  1  0
  4  5  1  0
  5  6  1  0
  6  7  1  0
  7  8  1  0
  8  9  2  0
  8 10  1  0
 10 11  1  0
 11 12  1  0
 12 13  2  0
 13 14  1  0
 14 15  2  0
 15 16  1  0
 12 17  1  0
 16 17  2  0
 10 18  1  0
 18 19  1  0
 19 20  1  6
 19 21  1  0
 21 22  1  0
 22 23  1  0
 22 24  1  0
 22 25  1  0
  7 26  1  0
  4 27  1  0
 26 27  1  0
M  END
