piperidine-amides-6548-covalent
     RDKit          3D

 24 24  0  0  0  0  0  0  0  0999 V2000
    7.1020   -3.2740   19.2650 C   0  0  0  0  0  0  0  0  0  0  0  0
    6.3630   -4.0820   20.2410 C   0  0  0  0  0  0  0  0  0  0  0  0
    5.3010   -4.6510   19.9190 O   0  0  0  0  0  0  0  0  0  0  0  0
    6.8670   -4.2720   21.5300 N   0  0  0  0  0  0  0  0  0  0  0  0
    7.7190   -3.2650   22.1090 C   0  0  0  0  0  0  0  0  0  0  0  0
    6.9570   -2.7340   23.3220 C   0  0  0  0  0  0  0  0  0  0  0  0
    6.6620   -3.9300   24.2070 C   0  0  0  0  0  0  0  0  0  0  0  0
    5.9460   -3.4640   25.4060 C   0  0  0  0  0  0  0  0  0  0  0  0
    4.7470   -3.1140   25.2970 O   0  0  0  0  0  0  0  0  0  0  0  0
    6.6360   -3.4220   26.6360 N   0  0  0  0  0  0  0  0  0  0  0  0
    7.2300   -4.6180   27.1650 C   0  0  0  0  0  0  0  0  0  0  0  0
    8.7210   -4.5130   26.9620 C   0  0  0  0  0  0  0  0  0  0  0  0
    9.3940   -5.3930   26.2220 C   0  0  0  0  0  0  0  0  0  0  0  0
   10.5250   -5.0360   25.5230 C   0  0  0  0  0  0  0  0  0  0  0  0
   11.4560   -3.9560   25.6620 C   0  0  0  0  0  0  0  0  0  0  0  0
   12.8210   -4.1450   26.1570 C   0  0  0  0  0  0  0  0  0  0  0  0
   13.9230   -3.2760   25.8190 C   0  0  0  0  0  0  0  0  0  0  0  0
   14.2560   -4.6730   26.5000 C   0  0  0  0  0  0  0  0  0  0  0  0
   14.2470   -5.5700   25.8060 O   0  0  0  0  0  0  0  0  0  0  0  0
   14.7110   -5.1390   27.5440 O   0  0  0  0  0  0  0  0  0  0  0  0
   15.6670   -6.3450   27.6520 C   0  0  0  0  0  0  0  0  0  0  0  0
   15.2750   -7.7950   27.1790 C   0  0  0  0  0  0  0  0  0  0  0  0
    5.7880   -4.9150   23.4760 C   0  0  0  0  0  0  0  0  0  0  0  0
    6.3490   -5.3410   22.3060 C   0  0  0  0  0  0  0  0  0  0  0  0
  1  2  1  0
  2  3  2  0
  2  4  1  0
  4  5  1  0
  5  6  1  0
  6  7  1  0
  7  8  1  0
  8  9  2  0
  8 10  1  0
 10 11  1  0
 11 12  1  0
 12 13  1  0
 13 14  1  0
 14 15  1  0
 15 16  1  0
 16 17  1  0
 17 18  1  0
 18 19  2  0
 18 20  1  0
 20 21  1  0
 21 22  1  0
  7 23  1  0
  4 24  1  0
 23 24  1  0
M  END
