piperidine-amides-11904-covalent
     RDKit          3D

 27 29  0  0  0  0  0  0  0  0999 V2000
    7.0050   -3.3340   19.3550 C   0  0  0  0  0  0  0  0  0  0  0  0
    6.3230   -4.1530   20.3510 C   0  0  0  0  0  0  0  0  0  0  0  0
    5.3880   -4.8660   19.9880 O   0  0  0  0  0  0  0  0  0  0  0  0
    6.7440   -4.1910   21.7340 N   0  0  0  0  0  0  0  0  0  0  0  0
    7.6270   -3.1750   22.2770 C   0  0  0  0  0  0  0  0  0  0  0  0
    7.4780   -3.0240   23.7770 C   0  0  0  0  0  0  0  0  0  0  0  0
    6.1650   -3.6690   24.2000 C   0  0  0  0  0  0  0  0  0  0  0  0
    5.8860   -3.5960   25.6900 C   0  0  0  0  0  0  0  0  0  0  0  0
    5.8450   -4.6270   26.3590 O   0  0  0  0  0  0  0  0  0  0  0  0
    5.6060   -2.3620   26.4110 N   0  0  0  0  0  0  0  0  0  0  0  0
    6.5000   -1.2760   26.2350 C   0  0  0  0  0  0  0  0  0  0  0  0
    6.6210   -1.9480   27.5360 C   0  0  0  0  0  0  0  0  0  0  0  0
    5.4810   -2.6820   27.8130 C   0  0  0  0  0  0  0  0  0  0  0  0
    4.4090   -2.6660   26.8340 C   0  0  0  0  0  0  0  0  0  0  0  0
    3.1270   -2.9980   27.3110 O   0  0  0  0  0  0  0  0  0  0  0  0
    4.5930   -2.3050   25.4180 N   0  0  0  0  0  0  0  0  0  0  0  0
    3.5250   -2.4460   24.5290 C   0  0  0  0  0  0  0  0  0  0  0  0
    2.8740   -3.7500   24.4740 C   0  0  0  0  0  0  0  0  0  0  0  0
    1.7740   -4.1570   25.2100 C   0  0  0  0  0  0  0  0  0  0  0  0
    1.2060   -5.4040   25.0950 C   0  0  0  0  0  0  0  0  0  0  0  0
    1.6890   -6.3650   24.2320 C   0  0  0  0  0  0  0  0  0  0  0  0
    0.9330   -7.9400   24.1200 Cl  0  0  0  0  0  0  0  0  0  0  0  0
    2.8460   -5.9340   23.4610 C   0  0  0  0  0  0  0  0  0  0  0  0
    3.4150   -4.6720   23.5800 C   0  0  0  0  0  0  0  0  0  0  0  0
    5.6410   -1.3320   25.1860 C   0  0  0  0  0  0  0  0  0  0  0  0
    6.1900   -5.1540   23.8690 C   0  0  0  0  0  0  0  0  0  0  0  0
    6.6600   -5.4410   22.4350 C   0  0  0  0  0  0  0  0  0  0  0  0
  1  2  1  0
  2  3  2  0
  2  4  1  0
  4  5  1  0
  5  6  1  0
  6  7  1  0
  7  8  1  0
  8  9  2  0
  8 10  1  0
 10 11  1  0
 11 12  1  0
 12 13  2  0
 13 14  1  0
 14 15  2  0
 14 16  1  0
 16 17  1  0
 17 18  1  0
 18 19  2  0
 19 20  1  0
 20 21  2  0
 21 22  1  0
 21 23  1  0
 18 24  1  0
 23 24  2  0
 11 25  2  0
 16 25  1  0
  7 26  1  0
  4 27  1  0
 26 27  1  0
M  END
