piperidine-amides-12051-covalent
     RDKit          3D

 25 28  0  0  0  0  0  0  0  0999 V2000
    7.0310   -3.3410   19.3100 C   0  0  0  0  0  0  0  0  0  0  0  0
    6.3500   -4.1490   20.3170 C   0  0  0  0  0  0  0  0  0  0  0  0
    5.3790   -4.8330   19.9850 O   0  0  0  0  0  0  0  0  0  0  0  0
    6.8300   -4.1850   21.6760 N   0  0  0  0  0  0  0  0  0  0  0  0
    6.6570   -5.3790   22.4730 C   0  0  0  0  0  0  0  0  0  0  0  0
    6.0390   -5.0400   23.8030 C   0  0  0  0  0  0  0  0  0  0  0  0
    6.0640   -3.5280   23.9630 C   0  0  0  0  0  0  0  0  0  0  0  0
    5.6650   -3.1190   25.3390 C   0  0  0  0  0  0  0  0  0  0  0  0
    4.5690   -3.4530   25.8280 O   0  0  0  0  0  0  0  0  0  0  0  0
    6.5620   -2.3220   26.1010 N   0  0  0  0  0  0  0  0  0  0  0  0
    6.0930   -1.1660   26.8590 C   0  0  2  0  0  0  0  0  0  0  0  0
    4.7560   -1.5680   27.3160 C   0  0  0  0  0  0  0  0  0  0  0  0
    4.1490   -0.5940   28.0380 C   0  0  1  0  0  0  0  0  0  0  0  0
    2.9210   -0.8390   28.6620 C   0  0  0  0  0  0  0  0  0  0  0  0
    5.1230   -0.4640   29.2300 C   0  0  0  0  0  0  0  0  0  0  0  0
    6.4620   -0.0770   28.8490 C   0  0  2  0  0  0  0  0  0  0  0  0
    7.3280   -0.0010   29.9220 C   0  0  0  0  0  0  0  0  0  0  0  0
    6.4040    1.0570   28.0750 C   0  0  0  0  0  0  0  0  0  0  0  0
    5.3710    1.1270   27.1150 C   0  0  2  0  0  0  0  0  0  0  0  0
    5.2870    2.2840   26.4150 F   0  0  0  0  0  0  0  0  0  0  0  0
    4.0870    0.6160   27.5300 C   0  0  0  0  0  0  0  0  0  0  0  0
    5.9650    0.0650   26.1060 C   0  0  0  0  0  0  0  0  0  0  0  0
    6.9040   -1.0160   27.9830 C   0  0  0  0  0  0  0  0  0  0  0  0
    7.4410   -3.0000   23.6710 C   0  0  0  0  0  0  0  0  0  0  0  0
    7.7110   -3.1440   22.1710 C   0  0  0  0  0  0  0  0  0  0  0  0
  1  2  1  0
  2  3  2  0
  2  4  1  0
  4  5  1  0
  5  6  1  0
  6  7  1  0
  7  8  1  0
  8  9  2  0
  8 10  1  0
 11 10  1  6
 11 12  1  0
 12 13  1  0
 13 14  1  1
 13 15  1  0
 15 16  1  0
 16 17  1  1
 16 18  1  0
 18 19  1  0
 19 20  1  6
 13 21  1  0
 19 21  1  0
 11 22  1  0
 19 22  1  0
 11 23  1  0
 16 23  1  0
  7 24  1  0
  4 25  1  0
 24 25  1  0
M  END
