piperidine-amides-14009-covalent
     RDKit          3D

 25 27  0  0  0  0  0  0  0  0999 V2000
    7.0760   -3.2800   19.2590 C   0  0  0  0  0  0  0  0  0  0  0  0
    6.3350   -4.0840   20.2740 C   0  0  0  0  0  0  0  0  0  0  0  0
    5.3040   -4.6790   19.9260 O   0  0  0  0  0  0  0  0  0  0  0  0
    6.8330   -4.1940   21.5900 N   0  0  0  0  0  0  0  0  0  0  0  0
    6.7000   -5.4200   22.3530 C   0  0  0  0  0  0  0  0  0  0  0  0
    6.0370   -5.1070   23.7070 C   0  0  0  0  0  0  0  0  0  0  0  0
    6.0280   -3.6310   23.8940 C   0  0  0  0  0  0  0  0  0  0  0  0
    5.5940   -3.1990   25.2410 C   0  0  0  0  0  0  0  0  0  0  0  0
    4.4050   -2.8920   25.3510 O   0  0  0  0  0  0  0  0  0  0  0  0
    6.4920   -3.1570   26.3060 N   0  0  0  0  0  0  0  0  0  0  0  0
    6.2420   -3.6080   27.6290 C   0  0  0  0  0  0  0  0  0  0  0  0
    5.8280   -4.8750   27.9740 C   0  0  0  0  0  0  0  0  0  0  0  0
    4.9110   -4.9890   29.0300 C   0  0  0  0  0  0  0  0  0  0  0  0
    3.7620   -4.2040   29.1920 C   0  0  0  0  0  0  0  0  0  0  0  0
    3.3290   -3.1280   28.2600 C   0  0  0  0  0  0  0  0  0  0  0  0
    3.0730   -4.5280   30.3070 N   0  0  0  0  0  0  0  0  0  0  0  0
    3.7990   -5.5800   30.9110 C   0  0  0  0  0  0  0  0  0  0  0  0
    3.5200   -6.3340   32.1660 C   0  0  0  0  0  0  0  0  0  0  0  0
    4.3730   -7.3360   32.5750 C   0  0  0  0  0  0  0  0  0  0  0  0
    4.0740   -8.0010   33.7340 F   0  0  0  0  0  0  0  0  0  0  0  0
    5.6180   -7.7450   31.8140 C   0  0  0  0  0  0  0  0  0  0  0  0
    5.7840   -6.8830   30.5380 C   0  0  0  0  0  0  0  0  0  0  0  0
    4.9520   -5.8840   30.1200 C   0  0  0  0  0  0  0  0  0  0  0  0
    7.3230   -2.9670   23.5780 C   0  0  0  0  0  0  0  0  0  0  0  0
    7.7060   -3.1550   22.1350 C   0  0  0  0  0  0  0  0  0  0  0  0
  1  2  1  0
  2  3  2  0
  2  4  1  0
  4  5  1  0
  5  6  1  0
  6  7  1  0
  7  8  1  0
  8  9  2  0
  8 10  1  0
 10 11  1  0
 11 12  1  0
 12 13  1  0
 13 14  2  0
 14 15  1  0
 14 16  1  0
 16 17  1  0
 17 18  1  0
 18 19  2  0
 19 20  1  0
 19 21  1  0
 21 22  2  0
 13 23  1  0
 17 23  2  0
 22 23  1  0
  7 24  1  0
  4 25  1  0
 24 25  1  0
M  END
