piperidine-amides-4859-covalent
     RDKit          3D

 23 24  0  0  0  0  0  0  0  0999 V2000
    7.0810   -3.2410   19.1420 C   0  0  0  0  0  0  0  0  0  0  0  0
    6.3100   -3.9260   20.2090 C   0  0  0  0  0  0  0  0  0  0  0  0
    5.2550   -4.4830   19.8540 O   0  0  0  0  0  0  0  0  0  0  0  0
    6.7580   -3.9910   21.5410 N   0  0  0  0  0  0  0  0  0  0  0  0
    7.5240   -2.9320   22.1350 C   0  0  0  0  0  0  0  0  0  0  0  0
    7.1010   -2.4720   23.4820 C   0  0  0  0  0  0  0  0  0  0  0  0
    6.3800   -3.4670   24.3160 C   0  0  0  0  0  0  0  0  0  0  0  0
    5.6190   -2.8430   25.4530 C   0  0  0  0  0  0  0  0  0  0  0  0
    4.4250   -2.5560   25.2390 O   0  0  0  0  0  0  0  0  0  0  0  0
    6.1750   -2.5790   26.7460 N   0  0  0  0  0  0  0  0  0  0  0  0
    5.5880   -3.1140   28.0270 C   0  0  0  0  0  0  0  0  0  0  0  0
    6.3300   -4.3140   28.4580 C   0  0  0  0  0  0  0  0  0  0  0  0
    6.7930   -4.8650   27.2650 C   0  0  0  0  0  0  0  0  0  0  0  0
    5.9340   -5.3110   26.3300 C   0  0  0  0  0  0  0  0  0  0  0  0
    6.2980   -5.8130   25.1360 C   0  0  0  0  0  0  0  0  0  0  0  0
    7.6240   -5.8710   24.8590 C   0  0  0  0  0  0  0  0  0  0  0  0
    7.9760   -6.3710   23.6370 F   0  0  0  0  0  0  0  0  0  0  0  0
    8.5510   -5.4410   25.7940 C   0  0  0  0  0  0  0  0  0  0  0  0
    9.7430   -5.5060   25.5390 O   0  0  0  0  0  0  0  0  0  0  0  0
   10.4320   -4.5940   26.2510 C   0  0  0  0  0  0  0  0  0  0  0  0
    8.0970   -4.9470   26.9810 C   0  0  0  0  0  0  0  0  0  0  0  0
    5.4850   -4.3490   23.5150 C   0  0  0  0  0  0  0  0  0  0  0  0
    6.2840   -5.0290   22.4330 C   0  0  0  0  0  0  0  0  0  0  0  0
  1  2  1  0
  2  3  2  0
  2  4  1  0
  4  5  1  0
  5  6  1  0
  6  7  1  0
  7  8  1  0
  8  9  2  0
  8 10  1  0
 10 11  1  0
 11 12  1  0
 12 13  1  0
 13 14  2  0
 14 15  1  0
 15 16  2  0
 16 17  1  0
 16 18  1  0
 18 19  1  0
 19 20  1  0
 13 21  1  0
 18 21  2  0
  7 22  1  0
  4 23  1  0
 22 23  1  0
M  END
