piperidine-amides-9096-covalent
     RDKit          3D

 21 22  0  0  0  0  0  0  0  0999 V2000
    7.1030   -3.3030   19.2580 C   0  0  0  0  0  0  0  0  0  0  0  0
    6.3830   -4.0860   20.2630 C   0  0  0  0  0  0  0  0  0  0  0  0
    5.3300   -4.6560   19.9300 O   0  0  0  0  0  0  0  0  0  0  0  0
    6.8790   -4.2650   21.5710 N   0  0  0  0  0  0  0  0  0  0  0  0
    6.5960   -5.4130   22.3820 C   0  0  0  0  0  0  0  0  0  0  0  0
    5.7190   -4.9060   23.4990 C   0  0  0  0  0  0  0  0  0  0  0  0
    6.2530   -3.6830   24.2110 C   0  0  0  0  0  0  0  0  0  0  0  0
    5.1840   -3.0990   25.0670 C   0  0  0  0  0  0  0  0  0  0  0  0
    3.9890   -3.1220   24.6680 O   0  0  0  0  0  0  0  0  0  0  0  0
    5.3930   -2.5150   26.3340 N   0  0  0  0  0  0  0  0  0  0  0  0
    6.3700   -3.1320   27.2120 C   0  0  0  0  0  0  0  0  0  0  0  0
    5.8170   -4.4280   27.6700 C   0  0  0  0  0  0  0  0  0  0  0  0
    4.3900   -4.4060   28.0300 C   0  0  0  0  0  0  0  0  0  0  0  0
    3.9520   -5.5820   28.8450 C   0  0  0  0  0  0  0  0  0  0  0  0
    4.2600   -7.0180   28.6810 C   0  0  0  0  0  0  0  0  0  0  0  0
    3.5890   -7.7900   29.7320 C   0  0  0  0  0  0  0  0  0  0  0  0
    2.8210   -7.0900   30.6570 C   0  0  0  0  0  0  0  0  0  0  0  0
    1.9980   -7.9490   31.9390 Cl  0  0  0  0  0  0  0  0  0  0  0  0
    2.8920   -5.4090   30.2650 S   0  0  0  0  0  0  0  0  0  0  0  0
    6.7610   -2.6090   23.2740 C   0  0  0  0  0  0  0  0  0  0  0  0
    7.6520   -3.2280   22.2220 C   0  0  0  0  0  0  0  0  0  0  0  0
  1  2  1  0
  2  3  2  0
  2  4  1  0
  4  5  1  0
  5  6  1  0
  6  7  1  0
  7  8  1  0
  8  9  2  0
  8 10  1  0
 10 11  1  0
 11 12  1  0
 12 13  1  0
 13 14  1  0
 14 15  2  0
 15 16  1  0
 16 17  2  0
 17 18  1  0
 14 19  1  0
 17 19  1  0
  7 20  1  0
  4 21  1  0
 20 21  1  0
M  END
