piperidine-amides-31682-covalent
     RDKit          3D

 28 30  0  0  0  0  0  0  0  0999 V2000
    7.0500   -3.4380   19.4350 C   0  0  0  0  0  0  0  0  0  0  0  0
    6.3840   -4.2290   20.4400 C   0  0  0  0  0  0  0  0  0  0  0  0
    5.4220   -4.9510   20.0210 O   0  0  0  0  0  0  0  0  0  0  0  0
    6.7720   -4.2750   21.8070 N   0  0  0  0  0  0  0  0  0  0  0  0
    6.5090   -5.5010   22.5650 C   0  0  0  0  0  0  0  0  0  0  0  0
    5.4360   -4.9090   23.5550 C   0  0  0  0  0  0  0  0  0  0  0  0
    6.0960   -3.8210   24.4060 C   0  0  0  0  0  0  0  0  0  0  0  0
    4.9670   -3.1330   25.3530 C   0  0  0  0  0  0  0  0  0  0  0  0
    4.0680   -2.7530   24.6290 O   0  0  0  0  0  0  0  0  0  0  0  0
    5.2150   -3.1150   26.6350 N   0  0  0  0  0  0  0  0  0  0  0  0
    5.1640   -2.7440   27.9340 C   0  0  0  0  0  0  0  0  0  0  0  0
    4.8380   -3.3780   29.0880 C   0  0  0  0  0  0  0  0  0  0  0  0
    5.2550   -4.7330   28.8410 N   0  0  0  0  0  0  0  0  0  0  0  0
    4.4430   -5.7960   28.6450 C   0  0  0  0  0  0  0  0  0  0  0  0
    3.7830   -6.2850   27.5080 O   0  0  0  0  0  0  0  0  0  0  0  0
    4.2340   -6.5810   29.8800 C   0  0  0  0  0  0  0  0  0  0  0  0
    5.5460   -6.8280   30.5110 C   0  0  0  0  0  0  0  0  0  0  0  0
    5.2550   -7.5830   31.7040 C   0  0  0  0  0  0  0  0  0  0  0  0
    4.0620   -8.1300   32.3980 C   0  0  0  0  0  0  0  0  0  0  0  0
    2.8810   -7.6890   31.4590 C   0  0  0  0  0  0  0  0  0  0  0  0
    2.8820   -6.8900   30.1470 C   0  0  0  0  0  0  0  0  0  0  0  0
    1.8200   -6.5560   29.4160 N   0  0  0  0  0  0  0  0  0  0  0  0
    0.7170   -6.2700   30.0380 O   0  0  0  0  0  0  0  0  0  0  0  0
    1.8540   -6.7710   28.2030 O   0  0  0  0  0  0  0  0  0  0  0  0
    6.4490   -4.6580   28.0840 C   0  0  0  0  0  0  0  0  0  0  0  0
    6.1920   -4.1330   26.8020 C   0  0  0  0  0  0  0  0  0  0  0  0
    7.0310   -2.8370   23.6690 C   0  0  0  0  0  0  0  0  0  0  0  0
    7.5790   -3.2680   22.4630 C   0  0  0  0  0  0  0  0  0  0  0  0
  1  2  1  0
  2  3  2  0
  2  4  1  0
  4  5  1  0
  5  6  1  0
  6  7  1  0
  7  8  1  0
  8  9  2  0
  8 10  1  0
 10 11  1  0
 11 12  1  0
 12 13  1  0
 13 14  1  0
 14 15  2  0
 14 16  1  0
 16 17  2  0
 17 18  1  0
 18 19  2  0
 19 20  1  0
 16 21  1  0
 20 21  2  0
 21 22  1  0
 22 23  2  0
 22 24  1  0
 13 25  1  0
 10 26  1  0
 25 26  1  0
  7 27  1  0
  4 28  1  0
 27 28  1  0
M  CHG  2  22   1  24  -1
M  END
