piperidine-amides-7429-covalent
     RDKit          3D

 19 20  0  0  0  0  0  0  0  0999 V2000
    7.1200   -3.2740   19.2110 C   0  0  0  0  0  0  0  0  0  0  0  0
    6.3790   -4.0280   20.2270 C   0  0  0  0  0  0  0  0  0  0  0  0
    5.2790   -4.5210   19.8740 O   0  0  0  0  0  0  0  0  0  0  0  0
    6.9190   -4.2230   21.4960 N   0  0  0  0  0  0  0  0  0  0  0  0
    7.7070   -3.2040   22.1440 C   0  0  0  0  0  0  0  0  0  0  0  0
    6.9320   -2.6960   23.3210 C   0  0  0  0  0  0  0  0  0  0  0  0
    6.4310   -3.8010   24.2200 C   0  0  0  0  0  0  0  0  0  0  0  0
    5.5010   -3.2340   25.2220 C   0  0  0  0  0  0  0  0  0  0  0  0
    4.2720   -3.3040   25.0040 O   0  0  0  0  0  0  0  0  0  0  0  0
    5.9230   -2.6150   26.4080 N   0  0  0  0  0  0  0  0  0  0  0  0
    6.3260   -3.4090   27.5290 C   0  0  0  0  0  0  0  0  0  0  0  0
    7.8090   -3.3150   27.7040 C   0  0  0  0  0  0  0  0  0  0  0  0
    8.3410   -4.5900   27.2460 N   0  0  0  0  0  0  0  0  0  0  0  0
    8.9160   -4.8360   26.0850 C   0  0  0  0  0  0  0  0  0  0  0  0
    9.3610   -6.0920   25.8740 N   0  0  0  0  0  0  0  0  0  0  0  0
    8.9870   -6.6020   27.0430 N   0  0  0  0  0  0  0  0  0  0  0  0
    8.3410   -5.6960   27.9300 C   0  0  0  0  0  0  0  0  0  0  0  0
    5.7030   -4.8590   23.3940 C   0  0  0  0  0  0  0  0  0  0  0  0
    6.4250   -5.3060   22.3080 C   0  0  0  0  0  0  0  0  0  0  0  0
  1  2  1  0
  2  3  2  0
  2  4  1  0
  4  5  1  0
  5  6  1  0
  6  7  1  0
  7  8  1  0
  8  9  2  0
  8 10  1  0
 10 11  1  0
 11 12  1  0
 12 13  1  0
 13 14  1  0
 14 15  2  0
 15 16  1  0
 13 17  1  0
 16 17  2  0
  7 18  1  0
  4 19  1  0
 18 19  1  0
M  END
