piperidine-amides-1955-covalent
     RDKit          3D

 22 24  0  0  0  0  0  0  0  0999 V2000
    7.0540   -3.2730   19.2910 C   0  0  0  0  0  0  0  0  0  0  0  0
    6.3410   -4.0880   20.3140 C   0  0  0  0  0  0  0  0  0  0  0  0
    5.3370   -4.6930   19.9390 O   0  0  0  0  0  0  0  0  0  0  0  0
    6.8280   -4.1820   21.6300 N   0  0  0  0  0  0  0  0  0  0  0  0
    7.6830   -3.1690   22.2260 C   0  0  0  0  0  0  0  0  0  0  0  0
    7.2670   -2.8550   23.6400 C   0  0  0  0  0  0  0  0  0  0  0  0
    5.9870   -3.6250   23.9450 C   0  0  0  0  0  0  0  0  0  0  0  0
    5.4850   -3.2960   25.3020 C   0  0  0  0  0  0  0  0  0  0  0  0
    4.2650   -3.3520   25.4800 O   0  0  0  0  0  0  0  0  0  0  0  0
    6.3190   -2.9440   26.3850 N   0  0  0  0  0  0  0  0  0  0  0  0
    6.3730   -1.5680   26.8520 C   0  0  2  0  0  0  0  0  0  0  0  0
    6.9070   -1.5870   28.1500 C   0  0  0  0  0  0  0  0  0  0  0  0
    5.8860   -0.9330   28.7530 C   0  0  2  0  0  0  0  0  0  0  0  0
    5.3100   -1.5570   29.8110 C   0  0  0  0  0  0  0  0  0  0  0  0
    3.9470   -1.5240   29.7840 C   0  0  0  0  0  0  0  0  0  0  0  0
    3.1210   -2.5900   29.0870 C   0  0  0  0  0  0  0  0  0  0  0  0
    2.0540   -1.6390   28.6230 C   0  0  0  0  0  0  0  0  0  0  0  0
    2.7140   -0.7750   27.5650 C   0  0  0  0  0  0  0  0  0  0  0  0
    3.9080   -1.5300   27.0630 C   0  0  0  0  0  0  0  0  0  0  0  0
    5.1920   -0.8580   27.4320 C   0  0  2  0  0  0  0  0  0  0  0  0
    6.0520   -5.0770   23.6730 C   0  0  0  0  0  0  0  0  0  0  0  0
    6.6530   -5.4260   22.3620 C   0  0  0  0  0  0  0  0  0  0  0  0
  1  2  1  0
  2  3  2  0
  2  4  1  0
  4  5  1  0
  5  6  1  0
  6  7  1  0
  7  8  1  0
  8  9  2  0
  8 10  1  0
 11 10  1  1
 11 12  1  0
 13 12  1  6
 13 14  1  0
 14 15  1  0
 15 16  1  0
 16 17  1  0
 17 18  1  0
 18 19  1  0
 11 20  1  0
 13 20  1  0
 20 19  1  1
  7 21  1  0
  4 22  1  0
 21 22  1  0
M  END
