piperidine-amides-7369-covalent
     RDKit          3D

 19 19  0  0  0  0  0  0  0  0999 V2000
    7.0890   -3.3010   19.2550 C   0  0  0  0  0  0  0  0  0  0  0  0
    6.3120   -4.0310   20.2590 C   0  0  0  0  0  0  0  0  0  0  0  0
    5.2340   -4.5460   19.8750 O   0  0  0  0  0  0  0  0  0  0  0  0
    6.7990   -4.1750   21.5590 N   0  0  0  0  0  0  0  0  0  0  0  0
    7.6790   -3.1920   22.1480 C   0  0  0  0  0  0  0  0  0  0  0  0
    7.2440   -2.9910   23.5640 C   0  0  0  0  0  0  0  0  0  0  0  0
    5.9360   -3.6890   23.8420 C   0  0  0  0  0  0  0  0  0  0  0  0
    5.5650   -3.4370   25.2440 C   0  0  0  0  0  0  0  0  0  0  0  0
    4.3670   -3.2030   25.5200 O   0  0  0  0  0  0  0  0  0  0  0  0
    6.5230   -3.4540   26.2590 N   0  0  0  0  0  0  0  0  0  0  0  0
    6.1980   -3.2940   27.6400 C   0  0  0  0  0  0  0  0  0  0  0  0
    6.0560   -1.8150   27.9060 C   0  0  2  0  0  0  0  0  0  0  0  0
    6.6780   -1.1020   26.9030 F   0  0  0  0  0  0  0  0  0  0  0  0
    6.3160   -1.1190   29.0550 C   0  0  0  0  0  0  0  0  0  0  0  0
    6.4380    0.2520   28.9360 C   0  0  0  0  0  0  0  0  0  0  0  0
    5.4180   -1.4590   30.0270 C   0  0  0  0  0  0  0  0  0  0  0  0
    7.5590   -1.4180   29.6640 O   0  0  0  0  0  0  0  0  0  0  0  0
    6.0780   -5.1480   23.5360 C   0  0  0  0  0  0  0  0  0  0  0  0
    6.5800   -5.3910   22.2770 C   0  0  0  0  0  0  0  0  0  0  0  0
  1  2  1  0
  2  3  2  0
  2  4  1  0
  4  5  1  0
  5  6  1  0
  6  7  1  0
  7  8  1  0
  8  9  2  0
  8 10  1  0
 10 11  1  0
 11 12  1  0
 12 13  1  6
 12 14  1  0
 14 15  1  0
 14 16  1  0
 14 17  1  0
  7 18  1  0
  4 19  1  0
 18 19  1  0
M  END
