piperidine-amides-25488-covalent
     RDKit          3D

 25 27  0  0  0  0  0  0  0  0999 V2000
    7.0320   -3.3130   19.3300 C   0  0  0  0  0  0  0  0  0  0  0  0
    6.3500   -4.1540   20.3520 C   0  0  0  0  0  0  0  0  0  0  0  0
    5.3860   -4.8180   19.9720 O   0  0  0  0  0  0  0  0  0  0  0  0
    6.8250   -4.2060   21.6720 N   0  0  0  0  0  0  0  0  0  0  0  0
    6.6910   -5.3970   22.4610 C   0  0  0  0  0  0  0  0  0  0  0  0
    6.1730   -5.0540   23.8350 C   0  0  0  0  0  0  0  0  0  0  0  0
    6.1080   -3.5320   24.0590 C   0  0  0  0  0  0  0  0  0  0  0  0
    5.6830   -3.1990   25.4670 C   0  0  0  0  0  0  0  0  0  0  0  0
    4.8130   -2.3370   25.6250 O   0  0  0  0  0  0  0  0  0  0  0  0
    6.2320   -3.8720   26.5970 N   0  0  0  0  0  0  0  0  0  0  0  0
    5.9190   -5.1420   26.7120 C   0  0  0  0  0  0  0  0  0  0  0  0
    5.3780   -6.0960   25.9350 C   0  0  0  0  0  0  0  0  0  0  0  0
    5.8300   -6.0320   27.2380 C   0  0  0  0  0  0  0  0  0  0  0  0
    6.1250   -4.5500   26.8230 C   0  0  0  0  0  0  0  0  0  0  0  0
    6.6490   -4.2430   28.1070 C   0  0  0  0  0  0  0  0  0  0  0  0
    6.7060   -5.2570   29.1930 C   0  0  0  0  0  0  0  0  0  0  0  0
    6.2630   -5.3620   28.0590 C   0  0  0  0  0  0  0  0  0  0  0  0
    6.3380   -6.1010   29.1690 C   0  0  0  0  0  0  0  0  0  0  0  0
    5.7750   -6.1130   30.4520 O   0  0  0  0  0  0  0  0  0  0  0  0
    5.5920   -4.8650   29.0990 N   0  0  0  0  0  0  0  0  0  0  0  0
    5.8550   -3.5810   28.0860 C   0  0  0  0  0  0  0  0  0  0  0  0
    4.6910   -2.6480   27.9870 C   0  0  0  0  0  0  0  0  0  0  0  0
    6.9300   -2.7020   28.6490 C   0  0  0  0  0  0  0  0  0  0  0  0
    7.4340   -2.9110   23.6780 C   0  0  0  0  0  0  0  0  0  0  0  0
    7.6820   -3.1590   22.2070 C   0  0  0  0  0  0  0  0  0  0  0  0
  1  2  1  0
  2  3  2  0
  2  4  1  0
  4  5  1  0
  5  6  1  0
  6  7  1  0
  7  8  1  0
  8  9  2  0
  8 10  1  0
 10 11  1  0
 11 12  2  0
 12 13  1  0
 13 14  2  0
 14 15  1  0
 15 16  1  0
 11 17  1  0
 15 17  2  0
 17 18  1  0
 18 19  2  0
 18 20  1  0
 10 21  1  0
 20 21  1  0
 21 22  1  0
 21 23  1  0
  7 24  1  0
  4 25  1  0
 24 25  1  0
M  END
