piperidine-amides-35313-covalent
     RDKit          3D

 34 37  0  0  0  0  0  0  0  0999 V2000
    7.0240   -3.3380   19.3410 C   0  0  0  0  0  0  0  0  0  0  0  0
    6.3310   -4.2020   20.3340 C   0  0  0  0  0  0  0  0  0  0  0  0
    5.3310   -4.8010   19.9580 O   0  0  0  0  0  0  0  0  0  0  0  0
    6.8420   -4.3480   21.6250 N   0  0  0  0  0  0  0  0  0  0  0  0
    6.6770   -5.5750   22.3590 C   0  0  0  0  0  0  0  0  0  0  0  0
    5.9930   -5.2580   23.6570 C   0  0  0  0  0  0  0  0  0  0  0  0
    5.9880   -3.7390   23.8390 C   0  0  0  0  0  0  0  0  0  0  0  0
    5.3670   -3.4080   25.1520 C   0  0  0  0  0  0  0  0  0  0  0  0
    4.1590   -3.6110   25.3010 O   0  0  0  0  0  0  0  0  0  0  0  0
    6.0790   -2.8620   26.2400 N   0  0  0  0  0  0  0  0  0  0  0  0
    5.4310   -2.8820   27.5630 C   0  0  0  0  0  0  0  0  0  0  0  0
    5.9800   -4.0300   28.4200 C   0  0  0  0  0  0  0  0  0  0  0  0
    7.2260   -4.5210   28.1860 C   0  0  0  0  0  0  0  0  0  0  0  0
    8.0330   -3.9160   27.2150 N   0  0  0  0  0  0  0  0  0  0  0  0
    9.3820   -3.9530   26.9750 C   0  0  0  0  0  0  0  0  0  0  0  0
    9.6660   -3.2060   25.9110 C   0  0  0  0  0  0  0  0  0  0  0  0
   11.0740   -3.0300   25.3480 C   0  0  0  0  0  0  0  0  0  0  0  0
   11.2620   -2.2270   24.1430 C   0  0  0  0  0  0  0  0  0  0  0  0
   12.7520   -2.1970   23.7910 C   0  0  0  0  0  0  0  0  0  0  0  0
   13.6860   -2.9970   24.7230 C   0  0  0  0  0  0  0  0  0  0  0  0
   13.3120   -3.8120   25.9520 C   0  0  0  0  0  0  0  0  0  0  0  0
   14.4060   -4.6830   26.8630 N   0  0  0  0  0  0  0  0  0  0  0  0
   14.6980   -5.1600   28.4580 C   0  0  0  0  0  0  0  0  0  0  0  0
   13.9050   -4.7360   29.1540 O   0  0  0  0  0  0  0  0  0  0  0  0
   15.3230   -6.3180   29.3280 O   0  0  0  0  0  0  0  0  0  0  0  0
   16.1530   -6.6980   31.2010 C   0  0  0  0  0  0  0  0  0  0  0  0
   16.6760   -5.7940   32.4840 C   0  0  0  0  0  0  0  0  0  0  0  0
   14.8450   -8.1910   30.9270 C   0  0  0  0  0  0  0  0  0  0  0  0
   17.7470   -6.5780   31.8900 C   0  0  0  0  0  0  0  0  0  0  0  0
   11.9970   -3.6360   26.0260 C   0  0  0  0  0  0  0  0  0  0  0  0
    8.5110   -2.5800   25.3430 N   0  0  0  0  0  0  0  0  0  0  0  0
    7.4900   -3.0570   26.1970 C   0  0  0  0  0  0  0  0  0  0  0  0
    7.3000   -3.0450   23.5800 C   0  0  0  0  0  0  0  0  0  0  0  0
    7.7030   -3.2970   22.1260 C   0  0  0  0  0  0  0  0  0  0  0  0
  1  2  1  0
  2  3  2  0
  2  4  1  0
  4  5  1  0
  5  6  1  0
  6  7  1  0
  7  8  1  0
  8  9  2  0
  8 10  1  0
 10 11  1  0
 11 12  1  0
 12 13  1  0
 13 14  1  0
 14 15  1  0
 15 16  2  0
 16 17  1  0
 17 18  2  0
 18 19  1  0
 19 20  2  0
 20 21  1  0
 21 22  1  0
 22 23  1  0
 23 24  2  0
 23 25  1  0
 26 25  1  0
 26 27  1  0
 26 28  1  0
 26 29  1  0
 17 30  1  0
 21 30  2  0
 16 31  1  0
 10 32  1  0
 14 32  1  0
 31 32  2  0
  7 33  1  0
  4 34  1  0
 33 34  1  0
M  END
