piperidine-amides-3952-covalent
     RDKit          3D

 20 21  0  0  0  0  0  0  0  0999 V2000
    7.1100   -3.2760   19.2310 C   0  0  0  0  0  0  0  0  0  0  0  0
    6.3830   -4.0390   20.2610 C   0  0  0  0  0  0  0  0  0  0  0  0
    5.3170   -4.5960   19.9070 O   0  0  0  0  0  0  0  0  0  0  0  0
    6.9000   -4.1770   21.5740 N   0  0  0  0  0  0  0  0  0  0  0  0
    6.5650   -5.3450   22.3200 C   0  0  0  0  0  0  0  0  0  0  0  0
    6.0680   -5.0420   23.6510 C   0  0  0  0  0  0  0  0  0  0  0  0
    6.1150   -3.6030   23.9670 C   0  0  0  0  0  0  0  0  0  0  0  0
    5.6010   -3.3150   25.3410 C   0  0  0  0  0  0  0  0  0  0  0  0
    4.3690   -3.3290   25.5160 O   0  0  0  0  0  0  0  0  0  0  0  0
    6.4340   -3.0340   26.4440 N   0  0  0  0  0  0  0  0  0  0  0  0
    6.1570   -3.2690   27.8110 C   0  0  0  0  0  0  0  0  0  0  0  0
    5.6660   -2.2140   28.7070 C   0  0  1  0  0  0  0  0  0  0  0  0
    6.9270   -1.4020   29.0770 C   0  0  0  0  0  0  0  0  0  0  0  0
    6.7910   -0.4880   30.1120 C   0  0  0  0  0  0  0  0  0  0  0  0
    5.2630   -0.5710   30.0560 C   0  0  0  0  0  0  0  0  0  0  0  0
    5.3240   -0.0960   28.6360 C   0  0  0  0  0  0  0  0  0  0  0  0
    4.5280   -1.3620   28.2790 C   0  0  2  0  0  0  0  0  0  0  0  0
    3.3080   -1.6430   28.9020 O   0  0  0  0  0  0  0  0  0  0  0  0
    7.4580   -2.9880   23.6670 C   0  0  0  0  0  0  0  0  0  0  0  0
    7.7030   -3.1170   22.1730 C   0  0  0  0  0  0  0  0  0  0  0  0
  1  2  1  0
  2  3  2  0
  2  4  1  0
  4  5  1  0
  5  6  1  0
  6  7  1  0
  7  8  1  0
  8  9  2  0
  8 10  1  0
 10 11  1  0
 12 11  1  6
 12 13  1  0
 13 14  1  0
 14 15  1  0
 15 16  1  0
 12 17  1  0
 16 17  1  0
 17 18  1  1
  7 19  1  0
  4 20  1  0
 19 20  1  0
M  END
