piperidine-amides-34227-covalent
     RDKit          3D

 30 32  0  0  0  0  0  0  0  0999 V2000
    7.0420   -3.3490   19.3510 C   0  0  0  0  0  0  0  0  0  0  0  0
    6.3970   -4.2370   20.3290 C   0  0  0  0  0  0  0  0  0  0  0  0
    5.3790   -4.8800   19.9920 O   0  0  0  0  0  0  0  0  0  0  0  0
    6.9330   -4.4230   21.6180 N   0  0  0  0  0  0  0  0  0  0  0  0
    6.7000   -5.6970   22.2850 C   0  0  0  0  0  0  0  0  0  0  0  0
    6.2430   -5.4100   23.7260 C   0  0  0  0  0  0  0  0  0  0  0  0
    6.0210   -3.9280   23.7890 C   0  0  0  0  0  0  0  0  0  0  0  0
    5.3330   -3.5220   25.0280 C   0  0  0  0  0  0  0  0  0  0  0  0
    4.2020   -3.0170   24.9080 O   0  0  0  0  0  0  0  0  0  0  0  0
    5.8820   -3.6900   26.3060 N   0  0  0  0  0  0  0  0  0  0  0  0
    6.5620   -2.5720   26.7880 C   0  0  0  0  0  0  0  0  0  0  0  0
    6.8640   -2.9250   28.1990 C   0  0  0  0  0  0  0  0  0  0  0  0
    5.9070   -2.9490   29.0770 C   0  0  0  0  0  0  0  0  0  0  0  0
    5.1200   -1.8420   29.2920 C   0  0  2  0  0  0  0  0  0  0  0  0
    4.4090   -1.9760   30.4720 O   0  0  0  0  0  0  0  0  0  0  0  0
    4.2230   -1.4970   28.2650 C   0  0  0  0  0  0  0  0  0  0  0  0
    4.3400   -0.1530   28.1380 C   0  0  0  0  0  0  0  0  0  0  0  0
    5.2230    0.3590   28.9990 N   0  0  0  0  0  0  0  0  0  0  0  0
    5.9270    1.3430   28.4070 C   0  0  0  0  0  0  0  0  0  0  0  0
    5.5690    1.9760   27.2570 O   0  0  0  0  0  0  0  0  0  0  0  0
    7.1240    1.7880   29.0000 O   0  0  0  0  0  0  0  0  0  0  0  0
    7.5610    3.1490   28.9130 C   0  0  0  0  0  0  0  0  0  0  0  0
    7.8330    3.6220   27.5140 C   0  0  0  0  0  0  0  0  0  0  0  0
    6.6020    4.1630   28.3070 C   0  0  0  0  0  0  0  0  0  0  0  0
    8.6580    3.6610   29.7210 C   0  0  0  0  0  0  0  0  0  0  0  0
    5.9010   -0.7140   29.6430 C   0  0  0  0  0  0  0  0  0  0  0  0
    5.2890   -4.2530   28.7690 C   0  0  0  0  0  0  0  0  0  0  0  0
    5.0090   -4.3100   27.2710 C   0  0  0  0  0  0  0  0  0  0  0  0
    7.2320   -3.1000   23.5260 C   0  0  0  0  0  0  0  0  0  0  0  0
    7.6580   -3.3280   22.2460 C   0  0  0  0  0  0  0  0  0  0  0  0
  1  2  1  0
  2  3  2  0
  2  4  1  0
  4  5  1  0
  5  6  1  0
  6  7  1  0
  7  8  1  0
  8  9  2  0
  8 10  1  0
 10 11  1  0
 11 12  1  0
 12 13  1  0
 13 14  1  0
 14 15  1  1
 14 16  1  0
 16 17  1  0
 17 18  1  0
 18 19  1  0
 19 20  2  0
 19 21  1  0
 22 21  1  0
 22 23  1  0
 22 24  1  0
 22 25  1  0
 14 26  1  0
 18 26  1  0
 13 27  1  0
 10 28  1  0
 27 28  1  0
  7 29  1  0
  4 30  1  0
 29 30  1  0
M  END
