piperidine-amides-14439-covalent
     RDKit          3D

 23 24  0  0  0  0  0  0  0  0999 V2000
    7.1590   -3.2910   19.2190 C   0  0  0  0  0  0  0  0  0  0  0  0
    6.3760   -4.0320   20.1970 C   0  0  0  0  0  0  0  0  0  0  0  0
    5.2710   -4.4840   19.8600 O   0  0  0  0  0  0  0  0  0  0  0  0
    6.9270   -4.2770   21.4730 N   0  0  0  0  0  0  0  0  0  0  0  0
    7.6110   -3.2090   22.1390 C   0  0  0  0  0  0  0  0  0  0  0  0
    6.7310   -2.6750   23.2270 C   0  0  0  0  0  0  0  0  0  0  0  0
    6.5480   -3.7950   24.2300 C   0  0  0  0  0  0  0  0  0  0  0  0
    5.7690   -3.3040   25.4030 C   0  0  0  0  0  0  0  0  0  0  0  0
    4.7280   -2.6990   25.1530 O   0  0  0  0  0  0  0  0  0  0  0  0
    6.2640   -3.5670   26.6740 N   0  0  0  0  0  0  0  0  0  0  0  0
    5.9540   -4.7690   27.3850 C   0  0  2  0  0  0  0  0  0  0  0  0
    4.6450   -5.2060   27.2470 C   0  0  0  0  0  0  0  0  0  0  0  0
    4.3180   -6.4890   27.6440 C   0  0  1  0  0  0  0  0  0  0  0  0
    3.6140   -6.6690   28.8460 C   0  0  0  0  0  0  0  0  0  0  0  0
    2.3970   -7.4170   28.4230 C   0  0  0  0  0  0  0  0  0  0  0  0
    2.4640   -7.6180   26.9160 C   0  0  0  0  0  0  0  0  0  0  0  0
    3.5410   -7.0460   26.6280 O   0  0  0  0  0  0  0  0  0  0  0  0
    6.2190   -4.5820   28.7550 C   0  0  0  0  0  0  0  0  0  0  0  0
    5.0890   -4.6050   29.5540 F   0  0  0  0  0  0  0  0  0  0  0  0
    7.0770   -5.5560   29.1510 F   0  0  0  0  0  0  0  0  0  0  0  0
    6.8120   -3.3320   28.8700 F   0  0  0  0  0  0  0  0  0  0  0  0
    5.9250   -4.9950   23.6060 C   0  0  0  0  0  0  0  0  0  0  0  0
    6.3970   -5.3860   22.2000 C   0  0  0  0  0  0  0  0  0  0  0  0
  1  2  1  0
  2  3  2  0
  2  4  1  0
  4  5  1  0
  5  6  1  0
  6  7  1  0
  7  8  1  0
  8  9  2  0
  8 10  1  0
 10 11  1  0
 11 12  1  1
 13 12  1  6
 13 14  1  0
 14 15  1  0
 15 16  1  0
 13 17  1  0
 16 17  1  0
 11 18  1  0
 18 19  1  0
 18 20  1  0
 18 21  1  0
  7 22  1  0
  4 23  1  0
 22 23  1  0
M  END
