piperidine-amides-4212-covalent
     RDKit          3D

 27 30  0  0  0  0  0  0  0  0999 V2000
    7.1440   -3.3340   19.2650 C   0  0  0  0  0  0  0  0  0  0  0  0
    6.3940   -4.1020   20.2630 C   0  0  0  0  0  0  0  0  0  0  0  0
    5.2950   -4.5770   19.9040 O   0  0  0  0  0  0  0  0  0  0  0  0
    6.9370   -4.3540   21.5410 N   0  0  0  0  0  0  0  0  0  0  0  0
    7.5770   -3.2640   22.1820 C   0  0  0  0  0  0  0  0  0  0  0  0
    7.0100   -2.9080   23.4760 C   0  0  0  0  0  0  0  0  0  0  0  0
    6.3900   -4.0030   24.2560 C   0  0  0  0  0  0  0  0  0  0  0  0
    5.6790   -3.4140   25.4280 C   0  0  0  0  0  0  0  0  0  0  0  0
    4.4460   -3.2470   25.3720 O   0  0  0  0  0  0  0  0  0  0  0  0
    6.3680   -3.0280   26.5860 N   0  0  0  0  0  0  0  0  0  0  0  0
    6.3720   -1.7560   27.1900 C   0  0  0  0  0  0  0  0  0  0  0  0
    5.7920   -0.5130   26.6700 C   0  0  0  0  0  0  0  0  0  0  0  0
    5.8800    0.8050   27.4720 C   0  0  0  0  0  0  0  0  0  0  0  0
    6.5030    0.8690   28.7040 C   0  0  0  0  0  0  0  0  0  0  0  0
    6.5410    2.1000   29.3670 N   0  0  0  0  0  0  0  0  0  0  0  0
    7.4460    2.3100   30.4730 C   0  0  0  0  0  0  0  0  0  0  0  0
    6.9890    3.3780   31.4710 C   0  0  0  0  0  0  0  0  0  0  0  0
    5.5260    3.1390   31.0990 C   0  0  0  0  0  0  0  0  0  0  0  0
    4.3480    3.6230   31.9140 C   0  0  0  0  0  0  0  0  0  0  0  0
    2.9750    3.2750   31.3520 C   0  0  0  0  0  0  0  0  0  0  0  0
    2.8100    2.4850   30.0450 C   0  0  0  0  0  0  0  0  0  0  0  0
    4.0940    2.1070   29.4040 C   0  0  0  0  0  0  0  0  0  0  0  0
    5.3290    2.4450   29.9520 C   0  0  0  0  0  0  0  0  0  0  0  0
    7.0720   -0.2450   29.2590 C   0  0  0  0  0  0  0  0  0  0  0  0
    7.0100   -1.5400   28.5170 C   0  0  0  0  0  0  0  0  0  0  0  0
    5.5220   -4.9030   23.4310 C   0  0  0  0  0  0  0  0  0  0  0  0
    6.3770   -5.4210   22.2960 C   0  0  0  0  0  0  0  0  0  0  0  0
  1  2  1  0
  2  3  2  0
  2  4  1  0
  4  5  1  0
  5  6  1  0
  6  7  1  0
  7  8  1  0
  8  9  2  0
  8 10  1  0
 10 11  1  0
 11 12  2  0
 12 13  1  0
 13 14  2  0
 14 15  1  0
 15 16  1  0
 16 17  1  0
 17 18  1  0
 18 19  1  0
 19 20  2  0
 20 21  1  0
 21 22  2  0
 15 23  1  0
 18 23  2  0
 22 23  1  0
 14 24  1  0
 11 25  1  0
 24 25  2  0
  7 26  1  0
  4 27  1  0
 26 27  1  0
M  END
