piperidine-amides-2790-covalent
     RDKit          3D

 24 25  0  0  0  0  0  0  0  0999 V2000
    7.0810   -3.2700   19.2620 C   0  0  0  0  0  0  0  0  0  0  0  0
    6.3190   -4.0400   20.2450 C   0  0  0  0  0  0  0  0  0  0  0  0
    5.2890   -4.6190   19.9040 O   0  0  0  0  0  0  0  0  0  0  0  0
    6.7870   -4.1640   21.5960 N   0  0  0  0  0  0  0  0  0  0  0  0
    7.6330   -3.1360   22.1550 C   0  0  0  0  0  0  0  0  0  0  0  0
    7.0930   -2.7220   23.4880 C   0  0  0  0  0  0  0  0  0  0  0  0
    5.8950   -3.6180   23.7510 C   0  0  0  0  0  0  0  0  0  0  0  0
    5.2250   -3.2450   25.0380 C   0  0  0  0  0  0  0  0  0  0  0  0
    3.9920   -3.0960   25.1180 O   0  0  0  0  0  0  0  0  0  0  0  0
    5.9850   -3.0450   26.2080 N   0  0  0  0  0  0  0  0  0  0  0  0
    5.6770   -3.8120   27.3960 C   0  0  2  0  0  0  0  0  0  0  0  0
    6.9610   -3.7480   28.0970 C   0  0  0  0  0  0  0  0  0  0  0  0
    7.9090   -4.2720   27.3290 C   0  0  0  0  0  0  0  0  0  0  0  0
    8.5050   -5.4700   27.7500 C   0  0  0  0  0  0  0  0  0  0  0  0
    9.4680   -6.0030   26.9790 C   0  0  0  0  0  0  0  0  0  0  0  0
    9.8360   -5.3650   25.8230 C   0  0  0  0  0  0  0  0  0  0  0  0
    9.2890   -4.2450   25.3710 C   0  0  0  0  0  0  0  0  0  0  0  0
    8.3110   -3.6720   26.1210 C   0  0  0  0  0  0  0  0  0  0  0  0
    5.1390   -5.0600   27.3620 C   0  0  0  0  0  0  0  0  0  0  0  0
    3.8410   -4.9270   26.9830 F   0  0  0  0  0  0  0  0  0  0  0  0
    5.7140   -5.8930   26.4730 F   0  0  0  0  0  0  0  0  0  0  0  0
    5.0330   -5.6240   28.6350 F   0  0  0  0  0  0  0  0  0  0  0  0
    6.1380   -5.0460   23.6330 C   0  0  0  0  0  0  0  0  0  0  0  0
    6.5910   -5.3780   22.3560 C   0  0  0  0  0  0  0  0  0  0  0  0
  1  2  1  0
  2  3  2  0
  2  4  1  0
  4  5  1  0
  5  6  1  0
  6  7  1  0
  7  8  1  0
  8  9  2  0
  8 10  1  0
 10 11  1  0
 11 12  1  6
 12 13  1  0
 13 14  2  0
 14 15  1  0
 15 16  2  0
 16 17  1  0
 13 18  1  0
 17 18  2  0
 11 19  1  0
 19 20  1  0
 19 21  1  0
 19 22  1  0
  7 23  1  0
  4 24  1  0
 23 24  1  0
M  END
