piperidine-amides-30158-covalent
     RDKit          3D

 27 28  0  0  0  0  0  0  0  0999 V2000
    7.0480   -3.3500   19.2840 C   0  0  0  0  0  0  0  0  0  0  0  0
    6.3640   -4.1750   20.2750 C   0  0  0  0  0  0  0  0  0  0  0  0
    5.3410   -4.7760   19.9620 O   0  0  0  0  0  0  0  0  0  0  0  0
    6.9120   -4.3380   21.5940 N   0  0  0  0  0  0  0  0  0  0  0  0
    7.7250   -3.3130   22.1890 C   0  0  0  0  0  0  0  0  0  0  0  0
    7.0630   -2.7650   23.4140 C   0  0  0  0  0  0  0  0  0  0  0  0
    6.6670   -3.9190   24.3250 C   0  0  0  0  0  0  0  0  0  0  0  0
    5.9260   -3.3800   25.5010 C   0  0  0  0  0  0  0  0  0  0  0  0
    4.6780   -3.3930   25.5570 O   0  0  0  0  0  0  0  0  0  0  0  0
    6.6570   -2.8150   26.5780 N   0  0  0  0  0  0  0  0  0  0  0  0
    7.3360   -3.6980   27.5140 C   0  0  0  0  0  0  0  0  0  0  0  0
    8.0080   -4.8090   26.7450 C   0  0  0  0  0  0  0  0  0  0  0  0
    8.8010   -5.5530   27.5940 O   0  0  0  0  0  0  0  0  0  0  0  0
    6.4060   -1.4220   26.9390 C   0  0  0  0  0  0  0  0  0  0  0  0
    5.8490   -0.4030   26.1200 C   0  0  0  0  0  0  0  0  0  0  0  0
    5.4720   -0.6770   24.8230 C   0  0  0  0  0  0  0  0  0  0  0  0
    4.0520   -0.8870   24.5720 C   0  0  0  0  0  0  0  0  0  0  0  0
    5.7140    0.2630   23.8600 C   0  0  0  0  0  0  0  0  0  0  0  0
    5.6560    0.9060   26.5740 C   0  0  0  0  0  0  0  0  0  0  0  0
    5.9920    1.3120   27.8570 C   0  0  0  0  0  0  0  0  0  0  0  0
    6.5450    0.2930   28.6790 C   0  0  0  0  0  0  0  0  0  0  0  0
    6.7100   -0.9560   28.1970 C   0  0  0  0  0  0  0  0  0  0  0  0
    7.2370   -1.7030   29.1760 C   0  0  0  0  0  0  0  0  0  0  0  0
    6.9650   -1.0130   30.4700 C   0  0  0  0  0  0  0  0  0  0  0  0
    8.5460   -1.9400   28.9640 C   0  0  0  0  0  0  0  0  0  0  0  0
    5.8730   -4.9630   23.5930 C   0  0  0  0  0  0  0  0  0  0  0  0
    6.5590   -5.4950   22.3760 C   0  0  0  0  0  0  0  0  0  0  0  0
  1  2  1  0
  2  3  2  0
  2  4  1  0
  4  5  1  0
  5  6  1  0
  6  7  1  0
  7  8  1  0
  8  9  2  0
  8 10  1  0
 10 11  1  0
 11 12  1  0
 12 13  1  0
 10 14  1  0
 14 15  2  0
 15 16  1  0
 16 17  1  0
 16 18  1  0
 15 19  1  0
 19 20  2  0
 20 21  1  0
 14 22  1  0
 21 22  2  0
 22 23  1  0
 23 24  1  0
 23 25  1  0
  7 26  1  0
  4 27  1  0
 26 27  1  0
M  END
