piperidine-amides-1479-covalent
     RDKit          3D

 21 22  0  0  0  0  0  0  0  0999 V2000
    7.0810   -3.2780   19.2420 C   0  0  0  0  0  0  0  0  0  0  0  0
    6.3310   -4.0630   20.2640 C   0  0  0  0  0  0  0  0  0  0  0  0
    5.3040   -4.6720   19.9250 O   0  0  0  0  0  0  0  0  0  0  0  0
    6.8270   -4.1310   21.5850 N   0  0  0  0  0  0  0  0  0  0  0  0
    7.7150   -3.1140   22.0960 C   0  0  0  0  0  0  0  0  0  0  0  0
    7.5910   -3.1730   23.6130 C   0  0  0  0  0  0  0  0  0  0  0  0
    6.1940   -3.6150   23.8770 C   0  0  0  0  0  0  0  0  0  0  0  0
    5.7250   -3.2510   25.2300 C   0  0  0  0  0  0  0  0  0  0  0  0
    4.5380   -3.4890   25.4880 O   0  0  0  0  0  0  0  0  0  0  0  0
    6.6140   -2.6650   26.1310 N   0  0  0  0  0  0  0  0  0  0  0  0
    6.3980   -1.5030   26.9120 C   0  0  0  0  0  0  0  0  0  0  0  0
    5.9140   -0.3090   26.4170 C   0  0  0  0  0  0  0  0  0  0  0  0
    6.1640   -0.0060   25.0470 C   0  0  0  0  0  0  0  0  0  0  0  0
    5.7460    1.1490   24.4080 C   0  0  0  0  0  0  0  0  0  0  0  0
    6.0930    1.4570   22.7180 Cl  0  0  0  0  0  0  0  0  0  0  0  0
    4.9870    2.1530   25.1700 C   0  0  0  0  0  0  0  0  0  0  0  0
    4.6720    1.9230   26.6310 C   0  0  0  0  0  0  0  0  0  0  0  0
    5.2110    0.5990   27.1690 C   0  0  0  0  0  0  0  0  0  0  0  0
    4.9220    0.0200   29.1680 I   0  0  0  0  0  0  0  0  0  0  0  0
    6.0720   -5.1260   23.6610 C   0  0  0  0  0  0  0  0  0  0  0  0
    6.5770   -5.3770   22.2800 C   0  0  0  0  0  0  0  0  0  0  0  0
  1  2  1  0
  2  3  2  0
  2  4  1  0
  4  5  1  0
  5  6  1  0
  6  7  1  0
  7  8  1  0
  8  9  2  0
  8 10  1  0
 10 11  1  0
 11 12  1  0
 12 13  2  0
 13 14  1  0
 14 15  1  0
 14 16  2  0
 16 17  1  0
 12 18  1  0
 17 18  2  0
 18 19  1  0
  7 20  1  0
  4 21  1  0
 20 21  1  0
M  END
