piperidine-amides-1732-covalent
     RDKit          3D

 20 20  0  0  0  0  0  0  0  0999 V2000
    7.1490   -3.2510   19.1700 C   0  0  0  0  0  0  0  0  0  0  0  0
    6.3640   -4.0140   20.1790 C   0  0  0  0  0  0  0  0  0  0  0  0
    5.2720   -4.5060   19.8560 O   0  0  0  0  0  0  0  0  0  0  0  0
    6.9070   -4.2070   21.4590 N   0  0  0  0  0  0  0  0  0  0  0  0
    7.7330   -3.2010   22.0980 C   0  0  0  0  0  0  0  0  0  0  0  0
    6.8740   -2.4980   23.1530 C   0  0  0  0  0  0  0  0  0  0  0  0
    6.4850   -3.5270   24.1590 C   0  0  0  0  0  0  0  0  0  0  0  0
    5.8380   -2.9580   25.3560 C   0  0  0  0  0  0  0  0  0  0  0  0
    4.6020   -3.0190   25.3950 O   0  0  0  0  0  0  0  0  0  0  0  0
    6.6260   -2.3790   26.3590 N   0  0  0  0  0  0  0  0  0  0  0  0
    7.7750   -2.9520   26.9630 C   0  0  0  0  0  0  0  0  0  0  0  0
    7.7650   -3.5310   28.1980 C   0  0  0  0  0  0  0  0  0  0  0  0
    6.3850   -4.6990   28.4100 S   0  0  0  0  0  0  0  0  0  0  0  0
    5.9710   -5.4990   26.8780 C   0  0  0  0  0  0  0  0  0  0  0  0
    7.0340   -5.5170   26.0170 C   0  0  0  0  0  0  0  0  0  0  0  0
    7.1330   -5.7490   24.7130 O   0  0  0  0  0  0  0  0  0  0  0  0
    8.2250   -5.2580   26.5860 O   0  0  0  0  0  0  0  0  0  0  0  0
    8.7380   -6.1130   27.5800 C   0  0  0  0  0  0  0  0  0  0  0  0
    5.6340   -4.5760   23.4800 C   0  0  0  0  0  0  0  0  0  0  0  0
    6.3710   -5.2030   22.3070 C   0  0  0  0  0  0  0  0  0  0  0  0
  1  2  1  0
  2  3  2  0
  2  4  1  0
  4  5  1  0
  5  6  1  0
  6  7  1  0
  7  8  1  0
  8  9  2  0
  8 10  1  0
 10 11  1  0
 11 12  1  0
 12 13  1  0
 13 14  1  0
 14 15  1  0
 15 16  2  0
 15 17  1  0
 17 18  1  0
  7 19  1  0
  4 20  1  0
 19 20  1  0
M  END
