piperidine-amides-3561-covalent
     RDKit          3D

 20 21  0  0  0  0  0  0  0  0999 V2000
    7.1420   -3.2570   19.2210 C   0  0  0  0  0  0  0  0  0  0  0  0
    6.3650   -4.0100   20.1970 C   0  0  0  0  0  0  0  0  0  0  0  0
    5.2950   -4.5260   19.8790 O   0  0  0  0  0  0  0  0  0  0  0  0
    6.8800   -4.1990   21.5200 N   0  0  0  0  0  0  0  0  0  0  0  0
    7.6780   -3.1770   22.1480 C   0  0  0  0  0  0  0  0  0  0  0  0
    6.9900   -2.6520   23.3680 C   0  0  0  0  0  0  0  0  0  0  0  0
    6.5090   -3.8460   24.1680 C   0  0  0  0  0  0  0  0  0  0  0  0
    5.7580   -3.3840   25.3690 C   0  0  0  0  0  0  0  0  0  0  0  0
    4.5770   -2.9880   25.3030 O   0  0  0  0  0  0  0  0  0  0  0  0
    6.4160   -3.3880   26.6230 N   0  0  0  0  0  0  0  0  0  0  0  0
    5.7790   -3.9940   27.7730 C   0  0  2  0  0  0  0  0  0  0  0  0
    6.7840   -4.7230   28.6280 C   0  0  0  0  0  0  0  0  0  0  0  0
    4.7870   -5.0190   27.3910 C   0  0  0  0  0  0  0  0  0  0  0  0
    4.8220   -6.2850   28.0720 N   0  0  0  0  0  0  0  0  0  0  0  0
    3.8790   -7.2870   27.7260 C   0  0  0  0  0  0  0  0  0  0  0  0
    2.9440   -7.0790   26.7590 C   0  0  0  0  0  0  0  0  0  0  0  0
    2.8900   -5.8130   26.0610 C   0  0  0  0  0  0  0  0  0  0  0  0
    3.8240   -4.9100   26.4560 N   0  0  0  0  0  0  0  0  0  0  0  0
    5.6850   -4.8500   23.3960 C   0  0  0  0  0  0  0  0  0  0  0  0
    6.4660   -5.3170   22.3590 C   0  0  0  0  0  0  0  0  0  0  0  0
  1  2  1  0
  2  3  2  0
  2  4  1  0
  4  5  1  0
  5  6  1  0
  6  7  1  0
  7  8  1  0
  8  9  2  0
  8 10  1  0
 10 11  1  0
 11 12  1  1
 11 13  1  0
 13 14  2  0
 14 15  1  0
 15 16  2  0
 16 17  1  0
 13 18  1  0
 17 18  2  0
  7 19  1  0
  4 20  1  0
 19 20  1  0
M  END
