piperidine-amides-3751-covalent
     RDKit          3D

 21 22  0  0  0  0  0  0  0  0999 V2000
    7.1260   -3.2780   19.2050 C   0  0  0  0  0  0  0  0  0  0  0  0
    6.3900   -4.0460   20.2260 C   0  0  0  0  0  0  0  0  0  0  0  0
    5.2960   -4.5510   19.8840 O   0  0  0  0  0  0  0  0  0  0  0  0
    6.9360   -4.2480   21.5170 N   0  0  0  0  0  0  0  0  0  0  0  0
    6.4520   -5.3320   22.2930 C   0  0  0  0  0  0  0  0  0  0  0  0
    5.9080   -4.9440   23.5940 C   0  0  0  0  0  0  0  0  0  0  0  0
    6.5220   -3.7610   24.2450 C   0  0  0  0  0  0  0  0  0  0  0  0
    5.7110   -3.2760   25.4080 C   0  0  0  0  0  0  0  0  0  0  0  0
    4.4820   -3.1200   25.2620 O   0  0  0  0  0  0  0  0  0  0  0  0
    6.2860   -2.9940   26.6670 N   0  0  0  0  0  0  0  0  0  0  0  0
    6.4890   -1.7300   27.2660 C   0  0  1  0  0  0  0  0  0  0  0  0
    5.4130   -0.7690   27.4140 C   0  0  0  0  0  0  0  0  0  0  0  0
    5.7650   -0.8270   28.8660 C   0  0  1  0  0  0  0  0  0  0  0  0
    4.9860   -1.6030   29.7000 C   0  0  0  0  0  0  0  0  0  0  0  0
    4.3980   -0.4830   31.0070 S   0  0  0  0  0  0  0  0  0  0  0  0
    5.4140    1.0190   31.0360 C   0  0  0  0  0  0  0  0  0  0  0  0
    2.9790   -0.1250   30.6730 O   0  0  0  0  0  0  0  0  0  0  0  0
    4.4590   -1.1090   32.3530 O   0  0  0  0  0  0  0  0  0  0  0  0
    6.8260   -1.8610   28.7680 C   0  0  0  0  0  0  0  0  0  0  0  0
    6.7450   -2.6370   23.2380 C   0  0  0  0  0  0  0  0  0  0  0  0
    7.6660   -3.2200   22.2040 C   0  0  0  0  0  0  0  0  0  0  0  0
  1  2  1  0
  2  3  2  0
  2  4  1  0
  4  5  1  0
  5  6  1  0
  6  7  1  0
  7  8  1  0
  8  9  2  0
  8 10  1  0
 11 10  1  1
 11 12  1  0
 12 13  1  0
 13 14  1  1
 15 14  1  0
 15 16  1  0
 15 17  2  0
 15 18  2  0
 11 19  1  0
 13 19  1  0
  7 20  1  0
  4 21  1  0
 20 21  1  0
M  END
