piperidine-amides-9100-covalent
     RDKit          3D

 21 23  0  0  0  0  0  0  0  0999 V2000
    7.1300   -3.2760   19.1860 C   0  0  0  0  0  0  0  0  0  0  0  0
    6.3710   -4.0120   20.2020 C   0  0  0  0  0  0  0  0  0  0  0  0
    5.3000   -4.5540   19.8880 O   0  0  0  0  0  0  0  0  0  0  0  0
    6.8610   -4.1550   21.5050 N   0  0  0  0  0  0  0  0  0  0  0  0
    7.7780   -3.2010   22.0820 C   0  0  0  0  0  0  0  0  0  0  0  0
    7.0830   -2.6680   23.2880 C   0  0  0  0  0  0  0  0  0  0  0  0
    6.6140   -3.7800   24.1660 C   0  0  0  0  0  0  0  0  0  0  0  0
    5.9590   -3.2620   25.3800 C   0  0  0  0  0  0  0  0  0  0  0  0
    4.7670   -3.5880   25.6680 O   0  0  0  0  0  0  0  0  0  0  0  0
    6.6360   -2.3770   26.2460 N   0  0  0  0  0  0  0  0  0  0  0  0
    6.0980   -2.0310   27.5720 C   0  0  0  0  0  0  0  0  0  0  0  0
    5.8870   -0.5580   27.5930 C   0  0  1  0  0  0  0  0  0  0  0  0
    4.5390   -0.0490   27.2440 C   0  0  0  0  0  0  0  0  0  0  0  0
    3.8230    0.4740   28.3900 N   0  0  0  0  0  0  0  0  0  0  0  0
    4.6090    1.7150   28.6160 C   0  0  0  0  0  0  0  0  0  0  0  0
    6.0150    1.4660   29.1470 C   0  0  0  0  0  0  0  0  0  0  0  0
    6.3410    0.0230   28.9160 C   0  0  0  0  0  0  0  0  0  0  0  0
    5.3890   -0.9590   29.1160 C   0  0  0  0  0  0  0  0  0  0  0  0
    4.1050   -0.4920   29.4060 C   0  0  0  0  0  0  0  0  0  0  0  0
    5.6700   -4.7700   23.4630 C   0  0  0  0  0  0  0  0  0  0  0  0
    6.4640   -5.3140   22.2710 C   0  0  0  0  0  0  0  0  0  0  0  0
  1  2  1  0
  2  3  2  0
  2  4  1  0
  4  5  1  0
  5  6  1  0
  6  7  1  0
  7  8  1  0
  8  9  2  0
  8 10  1  0
 10 11  1  0
 12 11  1  1
 12 13  1  0
 13 14  1  0
 14 15  1  0
 15 16  1  0
 12 17  1  0
 16 17  1  0
 17 18  1  0
 14 19  1  0
 18 19  1  0
  7 20  1  0
  4 21  1  0
 20 21  1  0
M  END
