piperidine-amides-33380-covalent
     RDKit          3D

 25 27  0  0  0  0  0  0  0  0999 V2000
    7.0520   -3.3790   19.3530 C   0  0  0  0  0  0  0  0  0  0  0  0
    6.4300   -4.2490   20.3660 C   0  0  0  0  0  0  0  0  0  0  0  0
    5.4000   -4.8670   19.9960 O   0  0  0  0  0  0  0  0  0  0  0  0
    6.9990   -4.4320   21.6620 N   0  0  0  0  0  0  0  0  0  0  0  0
    6.6500   -5.5710   22.4300 C   0  0  0  0  0  0  0  0  0  0  0  0
    6.4000   -5.2070   23.8170 C   0  0  0  0  0  0  0  0  0  0  0  0
    6.0150   -3.7890   23.9600 C   0  0  0  0  0  0  0  0  0  0  0  0
    5.6810   -3.3580   25.3630 C   0  0  0  0  0  0  0  0  0  0  0  0
    4.7860   -2.5050   25.4910 O   0  0  0  0  0  0  0  0  0  0  0  0
    6.2760   -3.8520   26.5430 N   0  0  0  0  0  0  0  0  0  0  0  0
    6.9640   -5.0620   26.7000 C   0  0  0  0  0  0  0  0  0  0  0  0
    7.0960   -5.4230   28.0920 C   0  0  0  0  0  0  0  0  0  0  0  0
    6.0870   -4.4330   28.7240 C   0  0  0  0  0  0  0  0  0  0  0  0
    5.6010   -3.5290   27.7800 C   0  0  1  0  0  0  0  0  0  0  0  0
    6.2330   -2.3930   28.5950 C   0  0  0  0  0  0  0  0  0  0  0  0
    5.7790   -2.3440   29.9110 O   0  0  0  0  0  0  0  0  0  0  0  0
    4.3930   -2.1800   29.9660 C   0  0  0  0  0  0  0  0  0  0  0  0
    3.6670   -1.6580   28.7310 C   0  0  0  0  0  0  0  0  0  0  0  0
    2.1800   -1.4320   28.6440 C   0  0  0  0  0  0  0  0  0  0  0  0
    1.3540   -1.7520   29.8880 C   0  0  0  0  0  0  0  0  0  0  0  0
   -0.5410   -1.5190   29.9400 Br  0  0  0  0  0  0  0  0  0  0  0  0
    2.1410   -2.2780   31.1130 C   0  0  0  0  0  0  0  0  0  0  0  0
    3.6190   -2.4580   31.0700 C   0  0  0  0  0  0  0  0  0  0  0  0
    6.9040   -2.7920   23.2690 C   0  0  0  0  0  0  0  0  0  0  0  0
    7.7310   -3.3820   22.3270 C   0  0  0  0  0  0  0  0  0  0  0  0
  1  2  1  0
  2  3  2  0
  2  4  1  0
  4  5  1  0
  5  6  1  0
  6  7  1  0
  7  8  1  0
  8  9  2  0
  8 10  1  0
 10 11  1  0
 11 12  1  0
 12 13  1  0
 10 14  1  0
 13 14  1  0
 14 15  1  1
 15 16  1  0
 16 17  1  0
 17 18  2  0
 18 19  1  0
 19 20  2  0
 20 21  1  0
 20 22  1  0
 17 23  1  0
 22 23  2  0
  7 24  1  0
  4 25  1  0
 24 25  1  0
M  END
