piperidine-amides-2648-covalent
     RDKit          3D

 25 26  0  0  0  0  0  0  0  0999 V2000
    7.0940   -3.2740   19.2280 C   0  0  0  0  0  0  0  0  0  0  0  0
    6.3820   -4.0600   20.2730 C   0  0  0  0  0  0  0  0  0  0  0  0
    5.3600   -4.6590   19.9280 O   0  0  0  0  0  0  0  0  0  0  0  0
    6.8920   -4.1290   21.5760 N   0  0  0  0  0  0  0  0  0  0  0  0
    6.6950   -5.2900   22.4100 C   0  0  0  0  0  0  0  0  0  0  0  0
    6.0220   -4.8800   23.6940 C   0  0  0  0  0  0  0  0  0  0  0  0
    6.1720   -3.3650   23.8460 C   0  0  0  0  0  0  0  0  0  0  0  0
    5.7200   -2.9600   25.1870 C   0  0  0  0  0  0  0  0  0  0  0  0
    4.5040   -2.8720   25.3970 O   0  0  0  0  0  0  0  0  0  0  0  0
    6.6180   -2.6670   26.2280 N   0  0  0  0  0  0  0  0  0  0  0  0
    6.2860   -3.2490   27.5000 C   0  0  0  0  0  0  0  0  0  0  0  0
    5.6730   -4.5570   27.1070 C   0  0  0  0  0  0  0  0  0  0  0  0
    5.3580   -5.5270   27.9620 C   0  0  0  0  0  0  0  0  0  0  0  0
    5.9510   -5.9620   29.0760 C   0  0  0  0  0  0  0  0  0  0  0  0
    5.3200   -6.9930   29.7040 C   0  0  0  0  0  0  0  0  0  0  0  0
    5.7740   -7.5680   30.8510 O   0  0  0  0  0  0  0  0  0  0  0  0
    5.1160   -7.3320   32.0100 C   0  0  0  0  0  0  0  0  0  0  0  0
    4.0840   -7.5920   29.2060 C   0  0  0  0  0  0  0  0  0  0  0  0
    3.5580   -8.6100   29.9100 O   0  0  0  0  0  0  0  0  0  0  0  0
    3.4470   -7.0780   27.9480 C   0  0  0  0  0  0  0  0  0  0  0  0
    2.2780   -7.5570   27.3640 O   0  0  0  0  0  0  0  0  0  0  0  0
    2.2670   -8.3460   26.2080 C   0  0  0  0  0  0  0  0  0  0  0  0
    4.2180   -5.9590   27.3560 C   0  0  0  0  0  0  0  0  0  0  0  0
    7.4890   -2.8310   23.4740 C   0  0  0  0  0  0  0  0  0  0  0  0
    7.8110   -3.0950   22.0520 C   0  0  0  0  0  0  0  0  0  0  0  0
  1  2  1  0
  2  3  2  0
  2  4  1  0
  4  5  1  0
  5  6  1  0
  6  7  1  0
  7  8  1  0
  8  9  2  0
  8 10  1  0
 10 11  1  0
 11 12  1  0
 12 13  1  0
 13 14  2  0
 14 15  1  0
 15 16  1  0
 16 17  1  0
 15 18  2  0
 18 19  1  0
 18 20  1  0
 20 21  1  0
 21 22  1  0
 13 23  1  0
 20 23  2  0
  7 24  1  0
  4 25  1  0
 24 25  1  0
M  END
