piperidine-amides-6570-covalent
     RDKit          3D

 24 27  0  0  0  0  0  0  0  0999 V2000
    7.1850   -3.2690   19.2130 C   0  0  0  0  0  0  0  0  0  0  0  0
    6.3800   -3.9960   20.2020 C   0  0  0  0  0  0  0  0  0  0  0  0
    5.2920   -4.5260   19.8800 O   0  0  0  0  0  0  0  0  0  0  0  0
    6.8650   -4.1440   21.5000 N   0  0  0  0  0  0  0  0  0  0  0  0
    6.5150   -5.3050   22.2750 C   0  0  0  0  0  0  0  0  0  0  0  0
    5.7880   -4.7680   23.5140 C   0  0  0  0  0  0  0  0  0  0  0  0
    6.7450   -3.8120   24.2120 C   0  0  0  0  0  0  0  0  0  0  0  0
    6.1150   -3.2080   25.3980 C   0  0  0  0  0  0  0  0  0  0  0  0
    4.9140   -2.8520   25.3230 O   0  0  0  0  0  0  0  0  0  0  0  0
    6.8920   -3.0480   26.5740 N   0  0  0  0  0  0  0  0  0  0  0  0
    6.2940   -3.2070   27.8710 C   0  0  0  0  0  0  0  0  0  0  0  0
    5.1300   -4.1860   27.7580 C   0  0  2  0  0  0  0  0  0  0  0  0
    4.1890   -3.4630   26.9890 O   0  0  0  0  0  0  0  0  0  0  0  0
    4.5420   -4.6160   28.9350 C   0  0  1  0  0  0  0  0  0  0  0  0
    3.4490   -5.3750   28.7660 C   0  0  0  0  0  0  0  0  0  0  0  0
    3.9320   -6.5650   28.3090 C   0  0  2  0  0  0  0  0  0  0  0  0
    4.9930   -6.9350   29.1100 C   0  0  0  0  0  0  0  0  0  0  0  0
    6.3480   -6.3120   28.7830 C   0  0  2  0  0  0  0  0  0  0  0  0
    5.4960   -5.3590   29.5970 C   0  0  0  0  0  0  0  0  0  0  0  0
    6.6560   -5.8840   27.4410 C   0  0  0  0  0  0  0  0  0  0  0  0
    5.4150   -5.2910   26.9840 C   0  0  1  0  0  0  0  0  0  0  0  0
    4.4170   -6.3030   27.0490 C   0  0  0  0  0  0  0  0  0  0  0  0
    7.0360   -2.6340   23.2920 C   0  0  0  0  0  0  0  0  0  0  0  0
    7.7440   -3.1570   22.0820 C   0  0  0  0  0  0  0  0  0  0  0  0
  1  2  1  0
  2  3  2  0
  2  4  1  0
  4  5  1  0
  5  6  1  0
  6  7  1  0
  7  8  1  0
  8  9  2  0
  8 10  1  0
 10 11  1  0
 11 12  1  0
 12 13  1  6
 12 14  1  0
 14 15  1  6
 16 15  1  1
 16 17  1  0
 18 17  1  6
 14 19  1  0
 18 19  1  0
 18 20  1  0
 12 21  1  0
 21 20  1  1
 16 22  1  0
 21 22  1  0
  7 23  1  0
  4 24  1  0
 23 24  1  0
M  END
