piperidine-amides-207-covalent
     RDKit          3D

 24 25  0  0  0  0  0  0  0  0999 V2000
    7.1160   -3.3030   19.4130 C   0  0  0  0  0  0  0  0  0  0  0  0
    6.3880   -4.0950   20.3840 C   0  0  0  0  0  0  0  0  0  0  0  0
    5.4110   -4.8040   19.9740 O   0  0  0  0  0  0  0  0  0  0  0  0
    6.7420   -4.1380   21.7550 N   0  0  0  0  0  0  0  0  0  0  0  0
    7.7130   -3.0860   22.1970 C   0  0  0  0  0  0  0  0  0  0  0  0
    7.5510   -3.0810   23.7680 C   0  0  0  0  0  0  0  0  0  0  0  0
    6.2200   -3.7260   23.9810 C   0  0  0  0  0  0  0  0  0  0  0  0
    5.4870   -3.4940   25.3750 C   0  0  0  0  0  0  0  0  0  0  0  0
    4.4920   -4.1960   25.3980 O   0  0  0  0  0  0  0  0  0  0  0  0
    6.0490   -2.6480   26.1480 N   0  0  0  0  0  0  0  0  0  0  0  0
    6.3780   -1.7290   27.0990 C   0  0  0  0  0  0  0  0  0  0  0  0
    7.0120   -1.5890   28.3060 C   0  0  0  0  0  0  0  0  0  0  0  0
    7.0820   -0.3310   28.9790 C   0  0  0  0  0  0  0  0  0  0  0  0
    6.5090    0.9700   28.5000 C   0  0  0  0  0  0  0  0  0  0  0  0
    6.6330    2.1620   29.2410 N   0  0  0  0  0  0  0  0  0  0  0  0
    6.7580    3.4900   28.6300 C   0  0  0  0  0  0  0  0  0  0  0  0
    8.0980    3.7620   28.9240 C   0  0  0  0  0  0  0  0  0  0  0  0
    5.9050    1.9810   30.4850 C   0  0  0  0  0  0  0  0  0  0  0  0
    4.4170    1.6500   30.3530 C   0  0  0  0  0  0  0  0  0  0  0  0
    6.4730    2.0900   31.7160 O   0  0  0  0  0  0  0  0  0  0  0  0
    5.9030    0.8220   27.3270 N   0  0  0  0  0  0  0  0  0  0  0  0
    5.8010   -0.4020   26.6140 C   0  0  0  0  0  0  0  0  0  0  0  0
    6.2750   -5.2300   23.6950 C   0  0  0  0  0  0  0  0  0  0  0  0
    6.7500   -5.4290   22.4240 C   0  0  0  0  0  0  0  0  0  0  0  0
  1  2  1  0
  2  3  2  0
  2  4  1  0
  4  5  1  0
  5  6  1  0
  6  7  1  0
  7  8  1  0
  8  9  2  0
  8 10  1  0
 10 11  1  0
 11 12  2  0
 12 13  1  0
 13 14  2  0
 14 15  1  0
 15 16  1  0
 16 17  1  0
 15 18  1  0
 18 19  1  0
 18 20  2  0
 14 21  1  0
 11 22  1  0
 21 22  2  0
  7 23  1  0
  4 24  1  0
 23 24  1  0
M  END
