piperidine-amides-35188-covalent
     RDKit          3D

 24 26  0  0  0  0  0  0  0  0999 V2000
    7.0790   -3.2960   19.2480 C   0  0  0  0  0  0  0  0  0  0  0  0
    6.3770   -4.0950   20.2870 C   0  0  0  0  0  0  0  0  0  0  0  0
    5.3820   -4.7360   19.9500 O   0  0  0  0  0  0  0  0  0  0  0  0
    6.8910   -4.1220   21.5810 N   0  0  0  0  0  0  0  0  0  0  0  0
    6.7610   -5.2660   22.4430 C   0  0  0  0  0  0  0  0  0  0  0  0
    6.2380   -4.8340   23.7890 C   0  0  0  0  0  0  0  0  0  0  0  0
    6.9420   -3.5530   24.2710 C   0  0  0  0  0  0  0  0  0  0  0  0
    6.2610   -3.0840   25.5070 C   0  0  0  0  0  0  0  0  0  0  0  0
    5.7970   -1.9430   25.5760 O   0  0  0  0  0  0  0  0  0  0  0  0
    6.0800   -3.9730   26.5710 N   0  0  0  0  0  0  0  0  0  0  0  0
    5.0040   -4.8240   26.2740 C   0  0  0  0  0  0  0  0  0  0  0  0
    4.7450   -5.7480   27.4130 C   0  0  0  0  0  0  0  0  0  0  0  0
    3.8020   -6.7030   27.1320 C   0  0  0  0  0  0  0  0  0  0  0  0
    2.9920   -6.7360   25.3990 Br  0  0  0  0  0  0  0  0  0  0  0  0
    3.4190   -7.5930   27.9730 C   0  0  0  0  0  0  0  0  0  0  0  0
    3.9590   -7.5810   29.1470 C   0  0  0  0  0  0  0  0  0  0  0  0
    4.9980   -6.6730   29.7220 C   0  0  0  0  0  0  0  0  0  0  0  0
    5.5100   -7.0050   31.5330 Br  0  0  0  0  0  0  0  0  0  0  0  0
    5.4930   -5.5720   28.7050 C   0  0  0  0  0  0  0  0  0  0  0  0
    6.5220   -4.4990   28.9440 C   0  0  0  0  0  0  0  0  0  0  0  0
    6.0690   -3.4840   27.9300 C   0  0  1  0  0  0  0  0  0  0  0  0
    6.7380   -2.1600   28.0820 C   0  0  0  0  0  0  0  0  0  0  0  0
    7.1110   -2.5110   23.2610 C   0  0  0  0  0  0  0  0  0  0  0  0
    7.7340   -3.0320   22.0330 C   0  0  0  0  0  0  0  0  0  0  0  0
  1  2  1  0
  2  3  2  0
  2  4  1  0
  4  5  1  0
  5  6  1  0
  6  7  1  0
  7  8  1  0
  8  9  2  0
  8 10  1  0
 10 11  1  0
 11 12  1  0
 12 13  2  0
 13 14  1  0
 13 15  1  0
 15 16  2  0
 16 17  1  0
 17 18  1  0
 12 19  1  0
 17 19  2  0
 19 20  1  0
 10 21  1  0
 20 21  1  0
 21 22  1  6
  7 23  1  0
  4 24  1  0
 23 24  1  0
M  END
