piperidine-amides-8570-covalent
     RDKit          3D

 23 25  0  0  0  0  0  0  0  0999 V2000
    7.0580   -3.3030   19.3160 C   0  0  0  0  0  0  0  0  0  0  0  0
    6.3730   -4.1120   20.3280 C   0  0  0  0  0  0  0  0  0  0  0  0
    5.3800   -4.7730   19.9640 O   0  0  0  0  0  0  0  0  0  0  0  0
    6.8500   -4.1690   21.6680 N   0  0  0  0  0  0  0  0  0  0  0  0
    7.7290   -3.1320   22.1630 C   0  0  0  0  0  0  0  0  0  0  0  0
    7.4250   -2.8130   23.5980 C   0  0  0  0  0  0  0  0  0  0  0  0
    6.1000   -3.4690   23.8780 C   0  0  0  0  0  0  0  0  0  0  0  0
    5.6100   -3.1350   25.2590 C   0  0  0  0  0  0  0  0  0  0  0  0
    4.4660   -2.6940   25.3250 O   0  0  0  0  0  0  0  0  0  0  0  0
    6.4460   -3.3270   26.3530 N   0  0  0  0  0  0  0  0  0  0  0  0
    6.0300   -3.9420   27.5820 C   0  0  0  0  0  0  0  0  0  0  0  0
    4.9830   -4.8780   27.4720 C   0  0  0  0  0  0  0  0  0  0  0  0
    4.1800   -5.0900   26.3650 C   0  0  0  0  0  0  0  0  0  0  0  0
    3.2090   -6.1100   26.5950 N   0  0  0  0  0  0  0  0  0  0  0  0
    3.4700   -6.5080   27.9090 C   0  0  0  0  0  0  0  0  0  0  0  0
    2.7380   -7.5520   28.6500 C   0  0  0  0  0  0  0  0  0  0  0  0
    3.2790   -7.7520   30.0880 C   0  0  0  0  0  0  0  0  0  0  0  0
    4.4340   -6.9430   30.6080 C   0  0  0  0  0  0  0  0  0  0  0  0
    5.1290   -7.1760   32.3660 Br  0  0  0  0  0  0  0  0  0  0  0  0
    4.9900   -5.9320   29.6110 C   0  0  0  0  0  0  0  0  0  0  0  0
    4.5050   -5.7740   28.3790 N   0  0  0  0  0  0  0  0  0  0  0  0
    6.0750   -4.9250   23.6820 C   0  0  0  0  0  0  0  0  0  0  0  0
    6.6510   -5.3420   22.5000 C   0  0  0  0  0  0  0  0  0  0  0  0
  1  2  1  0
  2  3  2  0
  2  4  1  0
  4  5  1  0
  5  6  1  0
  6  7  1  0
  7  8  1  0
  8  9  2  0
  8 10  1  0
 10 11  1  0
 11 12  1  0
 12 13  2  0
 13 14  1  0
 14 15  2  0
 15 16  1  0
 16 17  2  0
 17 18  1  0
 18 19  1  0
 18 20  2  0
 12 21  1  0
 15 21  1  0
 20 21  1  0
  7 22  1  0
  4 23  1  0
 22 23  1  0
M  END
