piperidine-amides-29281-covalent
     RDKit          3D

 26 27  0  0  0  0  0  0  0  0999 V2000
    7.0670   -3.3480   19.3600 C   0  0  0  0  0  0  0  0  0  0  0  0
    6.4270   -4.2190   20.3430 C   0  0  0  0  0  0  0  0  0  0  0  0
    5.4010   -4.8290   19.9850 O   0  0  0  0  0  0  0  0  0  0  0  0
    6.9890   -4.4040   21.6390 N   0  0  0  0  0  0  0  0  0  0  0  0
    6.5100   -5.5010   22.4090 C   0  0  0  0  0  0  0  0  0  0  0  0
    5.6490   -4.9410   23.5000 C   0  0  0  0  0  0  0  0  0  0  0  0
    6.5520   -4.1190   24.4060 C   0  0  0  0  0  0  0  0  0  0  0  0
    5.7310   -3.6540   25.6040 C   0  0  0  0  0  0  0  0  0  0  0  0
    4.5460   -3.4820   25.3210 O   0  0  0  0  0  0  0  0  0  0  0  0
    6.2200   -3.3910   26.9240 N   0  0  0  0  0  0  0  0  0  0  0  0
    5.2220   -2.9520   27.8490 C   0  0  0  0  0  0  0  0  0  0  0  0
    4.1780   -3.8710   28.1830 C   0  0  0  0  0  0  0  0  0  0  0  0
    4.8070   -5.1250   28.6520 N   0  0  0  0  0  0  0  0  0  0  0  0
    4.4070   -5.9610   29.7180 C   0  0  0  0  0  0  0  0  0  0  0  0
    3.3650   -5.5280   30.5250 C   0  0  0  0  0  0  0  0  0  0  0  0
    2.7910   -6.5540   31.2540 N   0  0  0  0  0  0  0  0  0  0  0  0
    1.5460   -6.4410   31.9580 C   0  0  0  0  0  0  0  0  0  0  0  0
    0.6460   -5.4330   32.1830 O   0  0  0  0  0  0  0  0  0  0  0  0
    1.1780   -7.5940   32.5320 N   0  0  0  0  0  0  0  0  0  0  0  0
    1.8170   -8.7600   32.3600 C   0  0  0  0  0  0  0  0  0  0  0  0
    1.1370   -9.9940   32.8150 C   0  0  0  0  0  0  0  0  0  0  0  0
    3.1450   -8.6060   33.0590 C   0  0  0  0  0  0  0  0  0  0  0  0
    6.1850   -5.1960   28.4110 C   0  0  0  0  0  0  0  0  0  0  0  0
    6.6230   -3.9470   28.2100 C   0  0  0  0  0  0  0  0  0  0  0  0
    7.0160   -2.9280   23.6140 C   0  0  0  0  0  0  0  0  0  0  0  0
    7.6110   -3.2520   22.2610 C   0  0  0  0  0  0  0  0  0  0  0  0
  1  2  1  0
  2  3  2  0
  2  4  1  0
  4  5  1  0
  5  6  1  0
  6  7  1  0
  7  8  1  0
  8  9  2  0
  8 10  1  0
 10 11  1  0
 11 12  1  0
 12 13  1  0
 13 14  1  0
 14 15  1  0
 15 16  1  0
 16 17  1  0
 17 18  2  0
 17 19  1  0
 19 20  1  0
 20 21  1  0
 20 22  1  0
 13 23  1  0
 10 24  1  0
 23 24  1  0
  7 25  1  0
  4 26  1  0
 25 26  1  0
M  END
