piperidine-amides-15376-covalent
     RDKit          3D

 17 17  0  0  0  0  0  0  0  0999 V2000
    7.1270   -3.2630   19.2050 C   0  0  0  0  0  0  0  0  0  0  0  0
    6.3400   -4.0120   20.1980 C   0  0  0  0  0  0  0  0  0  0  0  0
    5.2590   -4.5450   19.8760 O   0  0  0  0  0  0  0  0  0  0  0  0
    6.8190   -4.1900   21.4970 N   0  0  0  0  0  0  0  0  0  0  0  0
    6.3730   -5.3390   22.2470 C   0  0  0  0  0  0  0  0  0  0  0  0
    5.4720   -4.7820   23.3470 C   0  0  0  0  0  0  0  0  0  0  0  0
    6.4190   -4.0600   24.2680 C   0  0  0  0  0  0  0  0  0  0  0  0
    5.6790   -3.5430   25.4360 C   0  0  0  0  0  0  0  0  0  0  0  0
    4.4360   -3.4530   25.3600 O   0  0  0  0  0  0  0  0  0  0  0  0
    6.3800   -3.1420   26.5980 N   0  0  0  0  0  0  0  0  0  0  0  0
    6.7370   -1.7510   26.7110 C   0  0  0  0  0  0  0  0  0  0  0  0
    6.2220   -3.8970   27.8370 C   0  0  0  0  0  0  0  0  0  0  0  0
    5.9460   -5.2250   27.5730 C   0  0  0  0  0  0  0  0  0  0  0  0
    4.6330   -5.4810   27.2840 C   0  0  0  0  0  0  0  0  0  0  0  0
    6.5640   -6.0440   28.4660 C   0  0  0  0  0  0  0  0  0  0  0  0
    7.1740   -2.9640   23.6050 C   0  0  0  0  0  0  0  0  0  0  0  0
    7.5810   -3.1610   22.1660 C   0  0  0  0  0  0  0  0  0  0  0  0
  1  2  1  0
  2  3  2  0
  2  4  1  0
  4  5  1  0
  5  6  1  0
  6  7  1  0
  7  8  1  0
  8  9  2  0
  8 10  1  0
 10 11  1  0
 10 12  1  0
 12 13  1  0
 13 14  1  0
 13 15  1  0
  7 16  1  0
  4 17  1  0
 16 17  1  0
M  END
