piperidine-amides-32673-covalent
     RDKit          3D

 29 32  0  0  0  0  0  0  0  0999 V2000
    7.0430   -3.3420   19.3910 C   0  0  0  0  0  0  0  0  0  0  0  0
    6.3610   -4.2410   20.3610 C   0  0  0  0  0  0  0  0  0  0  0  0
    5.3470   -4.8460   19.9800 O   0  0  0  0  0  0  0  0  0  0  0  0
    6.8880   -4.4490   21.6620 N   0  0  0  0  0  0  0  0  0  0  0  0
    6.4820   -5.5930   22.4140 C   0  0  0  0  0  0  0  0  0  0  0  0
    5.4760   -5.0480   23.4310 C   0  0  0  0  0  0  0  0  0  0  0  0
    6.2120   -4.0930   24.3180 C   0  0  0  0  0  0  0  0  0  0  0  0
    5.3160   -3.3730   25.2840 C   0  0  0  0  0  0  0  0  0  0  0  0
    4.5630   -2.5380   24.7910 O   0  0  0  0  0  0  0  0  0  0  0  0
    5.3360   -3.6550   26.6720 N   0  0  0  0  0  0  0  0  0  0  0  0
    6.3390   -4.3380   27.2730 C   0  0  0  0  0  0  0  0  0  0  0  0
    6.1720   -4.5570   28.5470 C   0  0  0  0  0  0  0  0  0  0  0  0
    5.1090   -3.7380   28.8500 C   0  0  0  0  0  0  0  0  0  0  0  0
    4.6380   -3.0020   27.7370 C   0  0  1  0  0  0  0  0  0  0  0  0
    4.5740   -1.5250   27.9080 C   0  0  0  0  0  0  0  0  0  0  0  0
    5.3320   -0.7840   27.1010 O   0  0  0  0  0  0  0  0  0  0  0  0
    3.6930   -1.1290   28.9380 N   0  0  0  0  0  0  0  0  0  0  0  0
    3.8380    0.1960   29.4930 C   0  0  0  0  0  0  0  0  0  0  0  0
    2.5030    0.8820   29.7440 C   0  0  0  0  0  0  0  0  0  0  0  0
    1.6690    0.1440   30.5370 C   0  0  0  0  0  0  0  0  0  0  0  0
    0.8730    0.7600   31.6170 C   0  0  0  0  0  0  0  0  0  0  0  0
    0.0370   -0.3230   32.3340 C   0  0  0  0  0  0  0  0  0  0  0  0
   -0.2220   -1.7050   32.3030 C   0  0  0  0  0  0  0  0  0  0  0  0
   -0.9610   -2.4830   32.9830 O   0  0  0  0  0  0  0  0  0  0  0  0
    0.7170   -2.0460   31.1200 C   0  0  0  0  0  0  0  0  0  0  0  0
    1.5990   -1.1750   30.2980 C   0  0  0  0  0  0  0  0  0  0  0  0
    2.4260   -1.8090   29.1650 C   0  0  0  0  0  0  0  0  0  0  0  0
    6.9790   -2.9860   23.5870 C   0  0  0  0  0  0  0  0  0  0  0  0
    7.4910   -3.3440   22.3380 C   0  0  0  0  0  0  0  0  0  0  0  0
  1  2  1  0
  2  3  2  0
  2  4  1  0
  4  5  1  0
  5  6  1  0
  6  7  1  0
  7  8  1  0
  8  9  2  0
  8 10  1  0
 10 11  1  0
 11 12  1  0
 12 13  1  0
 10 14  1  0
 13 14  1  0
 14 15  1  1
 15 16  2  0
 15 17  1  0
 17 18  1  0
 18 19  1  0
 19 20  1  0
 20 21  2  0
 21 22  1  0
 22 23  2  0
 23 24  1  0
 23 25  1  0
 20 26  1  0
 25 26  2  0
 17 27  1  0
 26 27  1  0
  7 28  1  0
  4 29  1  0
 28 29  1  0
M  END
