piperidine-amides-31273-covalent
     RDKit          3D

 27 29  0  0  0  0  0  0  0  0999 V2000
    7.0710   -3.3360   19.2610 C   0  0  0  0  0  0  0  0  0  0  0  0
    6.3420   -4.0750   20.2710 C   0  0  0  0  0  0  0  0  0  0  0  0
    5.2440   -4.5930   19.9030 O   0  0  0  0  0  0  0  0  0  0  0  0
    6.8020   -4.3050   21.5890 N   0  0  0  0  0  0  0  0  0  0  0  0
    7.6220   -3.2710   22.2680 C   0  0  0  0  0  0  0  0  0  0  0  0
    6.6250   -2.8110   23.4020 C   0  0  0  0  0  0  0  0  0  0  0  0
    6.2760   -4.0570   24.1920 C   0  0  0  0  0  0  0  0  0  0  0  0
    5.5500   -3.6790   25.5670 C   0  0  0  0  0  0  0  0  0  0  0  0
    5.0780   -2.5460   25.5010 O   0  0  0  0  0  0  0  0  0  0  0  0
    5.6350   -4.6670   26.3920 N   0  0  0  0  0  0  0  0  0  0  0  0
    5.6880   -5.8500   26.9840 C   0  0  0  0  0  0  0  0  0  0  0  0
    5.9600   -5.5390   28.1870 C   0  0  0  0  0  0  0  0  0  0  0  0
    5.0700   -6.0290   29.1720 C   0  0  0  0  0  0  0  0  0  0  0  0
    3.6510   -5.6570   28.9990 C   0  0  0  0  0  0  0  0  0  0  0  0
    2.7970   -6.6360   28.2840 C   0  0  0  0  0  0  0  0  0  0  0  0
    1.4770   -6.0650   28.2460 C   0  0  0  0  0  0  0  0  0  0  0  0
    0.7880   -4.8440   28.6990 C   0  0  0  0  0  0  0  0  0  0  0  0
    1.8870   -3.9800   29.4170 C   0  0  0  0  0  0  0  0  0  0  0  0
    1.4330   -2.9020   29.8610 O   0  0  0  0  0  0  0  0  0  0  0  0
    0.5980   -2.2900   28.9270 C   0  0  0  0  0  0  0  0  0  0  0  0
    0.9390   -2.5990   27.6060 F   0  0  0  0  0  0  0  0  0  0  0  0
   -0.6960   -2.6420   29.0770 F   0  0  0  0  0  0  0  0  0  0  0  0
    0.7470   -0.8940   29.0240 F   0  0  0  0  0  0  0  0  0  0  0  0
    3.2930   -4.3540   29.5780 C   0  0  0  0  0  0  0  0  0  0  0  0
    5.8480   -4.0730   27.8310 C   0  0  0  0  0  0  0  0  0  0  0  0
    5.5940   -5.1330   23.3640 C   0  0  0  0  0  0  0  0  0  0  0  0
    6.4130   -5.4880   22.3180 C   0  0  0  0  0  0  0  0  0  0  0  0
  1  2  1  0
  2  3  2  0
  2  4  1  0
  4  5  1  0
  5  6  1  0
  6  7  1  0
  7  8  1  0
  8  9  2  0
  8 10  1  0
 10 11  1  0
 11 12  1  0
 12 13  1  0
 13 14  1  0
 14 15  2  0
 15 16  1  0
 16 17  2  0
 17 18  1  0
 18 19  1  0
 19 20  1  0
 20 21  1  0
 20 22  1  0
 20 23  1  0
 14 24  1  0
 18 24  2  0
 10 25  1  0
 12 25  1  0
  7 26  1  0
  4 27  1  0
 26 27  1  0
M  END
