piperidine-amides-12448-covalent
     RDKit          3D

 23 24  0  0  0  0  0  0  0  0999 V2000
    7.0490   -3.3340   19.3720 C   0  0  0  0  0  0  0  0  0  0  0  0
    6.3660   -4.1750   20.3490 C   0  0  0  0  0  0  0  0  0  0  0  0
    5.4150   -4.8730   19.9920 O   0  0  0  0  0  0  0  0  0  0  0  0
    6.8220   -4.2290   21.7170 N   0  0  0  0  0  0  0  0  0  0  0  0
    7.7180   -3.2020   22.2070 C   0  0  0  0  0  0  0  0  0  0  0  0
    7.4500   -2.9320   23.6560 C   0  0  0  0  0  0  0  0  0  0  0  0
    6.1090   -3.5710   23.9550 C   0  0  0  0  0  0  0  0  0  0  0  0
    5.6110   -3.1370   25.2950 C   0  0  0  0  0  0  0  0  0  0  0  0
    4.3970   -2.9660   25.5180 O   0  0  0  0  0  0  0  0  0  0  0  0
    6.5330   -2.9170   26.3450 N   0  0  0  0  0  0  0  0  0  0  0  0
    6.5100   -1.6950   27.1280 C   0  0  0  0  0  0  0  0  0  0  0  0
    5.8390   -0.5340   26.4470 C   0  0  0  0  0  0  0  0  0  0  0  0
    5.7410    0.6990   27.0810 C   0  0  0  0  0  0  0  0  0  0  0  0
    6.2730    0.8700   28.3700 C   0  0  0  0  0  0  0  0  0  0  0  0
    6.1370    2.5710   29.2290 Br  0  0  0  0  0  0  0  0  0  0  0  0
    6.8980   -0.1670   29.0360 C   0  0  0  0  0  0  0  0  0  0  0  0
    7.3920   -0.0850   30.1750 O   0  0  0  0  0  0  0  0  0  0  0  0
    6.8870    0.4870   31.3260 C   0  0  0  0  0  0  0  0  0  0  0  0
    7.9390    0.3150   32.1950 C   0  0  0  0  0  0  0  0  0  0  0  0
    5.7260   -0.1200   31.6710 C   0  0  0  0  0  0  0  0  0  0  0  0
    7.0050   -1.4860   28.3650 C   0  0  0  0  0  0  0  0  0  0  0  0
    6.0550   -5.0150   23.7600 C   0  0  0  0  0  0  0  0  0  0  0  0
    6.6210   -5.3970   22.5440 C   0  0  0  0  0  0  0  0  0  0  0  0
  1  2  1  0
  2  3  2  0
  2  4  1  0
  4  5  1  0
  5  6  1  0
  6  7  1  0
  7  8  1  0
  8  9  2  0
  8 10  1  0
 10 11  1  0
 11 12  2  0
 12 13  1  0
 13 14  2  0
 14 15  1  0
 14 16  1  0
 16 17  1  0
 17 18  1  0
 18 19  1  0
 18 20  1  0
 11 21  1  0
 16 21  2  0
  7 22  1  0
  4 23  1  0
 22 23  1  0
M  END
