piperidine-amides-2450-covalent
     RDKit          3D

 26 28  0  0  0  0  0  0  0  0999 V2000
    7.1180   -3.3210   19.2910 C   0  0  0  0  0  0  0  0  0  0  0  0
    6.3580   -4.1090   20.2880 C   0  0  0  0  0  0  0  0  0  0  0  0
    5.3130   -4.6400   19.9170 O   0  0  0  0  0  0  0  0  0  0  0  0
    6.8790   -4.2520   21.5710 N   0  0  0  0  0  0  0  0  0  0  0  0
    7.7410   -3.2480   22.1410 C   0  0  0  0  0  0  0  0  0  0  0  0
    7.0510   -2.6490   23.3160 C   0  0  0  0  0  0  0  0  0  0  0  0
    6.5870   -3.7910   24.1970 C   0  0  0  0  0  0  0  0  0  0  0  0
    5.8180   -3.2130   25.3110 C   0  0  0  0  0  0  0  0  0  0  0  0
    4.5920   -3.0530   25.2050 O   0  0  0  0  0  0  0  0  0  0  0  0
    6.4980   -2.8460   26.4810 N   0  0  0  0  0  0  0  0  0  0  0  0
    6.0890   -1.7010   27.2590 C   0  0  1  0  0  0  0  0  0  0  0  0
    4.9060   -2.1630   28.0650 C   0  0  0  0  0  0  0  0  0  0  0  0
    4.7510   -3.4120   28.5750 C   0  0  0  0  0  0  0  0  0  0  0  0
    5.8680   -4.1460   28.5840 C   0  0  0  0  0  0  0  0  0  0  0  0
    5.8280   -5.3680   29.0570 C   0  0  0  0  0  0  0  0  0  0  0  0
    4.6380   -6.0600   29.6090 C   0  0  0  0  0  0  0  0  0  0  0  0
    4.5380   -7.6590   30.2480 Cl  0  0  0  0  0  0  0  0  0  0  0  0
    3.4210   -5.1550   29.5580 C   0  0  0  0  0  0  0  0  0  0  0  0
    3.3360   -3.7070   29.0270 C   0  0  0  0  0  0  0  0  0  0  0  0
    7.0660   -1.3850   28.3400 C   0  0  0  0  0  0  0  0  0  0  0  0
    6.6510   -0.2320   29.1760 C   0  0  0  0  0  0  0  0  0  0  0  0
    6.1800    1.0030   28.4320 C   0  0  0  0  0  0  0  0  0  0  0  0
    5.4110    0.6430   27.3260 O   0  0  0  0  0  0  0  0  0  0  0  0
    5.8830   -0.4030   26.5710 C   0  0  0  0  0  0  0  0  0  0  0  0
    5.7400   -4.8020   23.4350 C   0  0  0  0  0  0  0  0  0  0  0  0
    6.4840   -5.3620   22.4170 C   0  0  0  0  0  0  0  0  0  0  0  0
  1  2  1  0
  2  3  2  0
  2  4  1  0
  4  5  1  0
  5  6  1  0
  6  7  1  0
  7  8  1  0
  8  9  2  0
  8 10  1  0
 11 10  1  0
 11 12  1  1
 12 13  1  0
 13 14  2  0
 14 15  1  0
 15 16  2  0
 16 17  1  0
 16 18  1  0
 13 19  1  0
 18 19  2  0
 11 20  1  0
 20 21  1  0
 21 22  1  0
 22 23  1  0
 11 24  1  0
 23 24  1  0
  7 25  1  0
  4 26  1  0
 25 26  1  0
M  END
