piperidine-amides-15108-covalent
     RDKit          3D

 19 19  0  0  0  0  0  0  0  0999 V2000
    7.1060   -3.2870   19.2630 C   0  0  0  0  0  0  0  0  0  0  0  0
    6.3710   -4.0560   20.2670 C   0  0  0  0  0  0  0  0  0  0  0  0
    5.3220   -4.6240   19.9170 O   0  0  0  0  0  0  0  0  0  0  0  0
    6.8830   -4.1760   21.5860 N   0  0  0  0  0  0  0  0  0  0  0  0
    7.6960   -3.1100   22.1240 C   0  0  0  0  0  0  0  0  0  0  0  0
    7.3760   -2.8600   23.5690 C   0  0  0  0  0  0  0  0  0  0  0  0
    6.0230   -3.4670   23.8180 C   0  0  0  0  0  0  0  0  0  0  0  0
    5.5960   -3.2210   25.2280 C   0  0  0  0  0  0  0  0  0  0  0  0
    4.3920   -3.0880   25.4250 O   0  0  0  0  0  0  0  0  0  0  0  0
    6.5840   -3.1500   26.1950 N   0  0  0  0  0  0  0  0  0  0  0  0
    6.2820   -2.9120   27.5590 C   0  0  0  0  0  0  0  0  0  0  0  0
    6.3740   -4.0020   28.4340 C   0  0  0  0  0  0  0  0  0  0  0  0
    5.7920   -5.2150   28.1650 C   0  0  0  0  0  0  0  0  0  0  0  0
    4.6510   -5.6520   28.8110 C   0  0  0  0  0  0  0  0  0  0  0  0
    6.7990   -6.3240   28.5370 C   0  0  0  0  0  0  0  0  0  0  0  0
    5.3880   -5.3780   26.7200 C   0  0  0  0  0  0  0  0  0  0  0  0
    4.6210   -6.5260   26.4430 N   0  0  0  0  0  0  0  0  0  0  0  0
    5.9730   -4.9340   23.6020 C   0  0  0  0  0  0  0  0  0  0  0  0
    6.5450   -5.3680   22.2890 C   0  0  0  0  0  0  0  0  0  0  0  0
  1  2  1  0
  2  3  2  0
  2  4  1  0
  4  5  1  0
  5  6  1  0
  6  7  1  0
  7  8  1  0
  8  9  2  0
  8 10  1  0
 10 11  1  0
 11 12  1  0
 12 13  1  0
 13 14  1  0
 13 15  1  0
 13 16  1  0
 16 17  3  0
  7 18  1  0
  4 19  1  0
 18 19  1  0
M  END
