piperidine-amides-31722-covalent
     RDKit          3D

 28 30  0  0  0  0  0  0  0  0999 V2000
    7.1490   -3.2930   19.3930 C   0  0  0  0  0  0  0  0  0  0  0  0
    6.4140   -4.0860   20.3580 C   0  0  0  0  0  0  0  0  0  0  0  0
    5.3850   -4.7200   19.9510 O   0  0  0  0  0  0  0  0  0  0  0  0
    6.8170   -4.2070   21.7070 N   0  0  0  0  0  0  0  0  0  0  0  0
    7.8080   -3.1860   22.1850 C   0  0  0  0  0  0  0  0  0  0  0  0
    7.4450   -2.9280   23.7050 C   0  0  0  0  0  0  0  0  0  0  0  0
    6.1960   -3.7230   23.9420 C   0  0  0  0  0  0  0  0  0  0  0  0
    5.2760   -3.2560   25.1560 C   0  0  0  0  0  0  0  0  0  0  0  0
    4.1350   -3.1230   24.7470 O   0  0  0  0  0  0  0  0  0  0  0  0
    5.9030   -3.1270   26.2630 N   0  0  0  0  0  0  0  0  0  0  0  0
    6.2120   -3.3470   27.5720 C   0  0  0  0  0  0  0  0  0  0  0  0
    6.2660   -4.4020   28.4480 C   0  0  0  0  0  0  0  0  0  0  0  0
    5.5490   -5.5480   28.0040 C   0  0  0  0  0  0  0  0  0  0  0  0
    4.2020   -5.5110   28.0890 N   0  0  0  0  0  0  0  0  0  0  0  0
    3.7390   -4.7640   29.1670 C   0  0  0  0  0  0  0  0  0  0  0  0
    3.6060   -5.7330   30.3480 C   0  0  0  0  0  0  0  0  0  0  0  0
    3.0450   -6.9850   30.0670 O   0  0  0  0  0  0  0  0  0  0  0  0
    3.3570   -7.6010   28.8430 C   0  0  0  0  0  0  0  0  0  0  0  0
    3.3040   -6.6330   27.8220 C   0  0  0  0  0  0  0  0  0  0  0  0
    6.5990   -1.8620   26.2840 C   0  0  0  0  0  0  0  0  0  0  0  0
    5.7980   -0.6090   25.7730 C   0  0  0  0  0  0  0  0  0  0  0  0
    5.8730    0.6010   26.4000 C   0  0  0  0  0  0  0  0  0  0  0  0
    5.1670    1.6610   25.9310 C   0  0  0  0  0  0  0  0  0  0  0  0
    4.3420    1.7620   24.8840 N   0  0  0  0  0  0  0  0  0  0  0  0
    4.2770    0.5550   24.2700 C   0  0  0  0  0  0  0  0  0  0  0  0
    4.9620   -0.5930   24.6730 C   0  0  0  0  0  0  0  0  0  0  0  0
    6.2720   -5.1890   23.7630 C   0  0  0  0  0  0  0  0  0  0  0  0
    6.6660   -5.4960   22.3590 C   0  0  0  0  0  0  0  0  0  0  0  0
  1  2  1  0
  2  3  2  0
  2  4  1  0
  4  5  1  0
  5  6  1  0
  6  7  1  0
  7  8  1  0
  8  9  2  0
  8 10  1  0
 10 11  1  0
 11 12  1  0
 12 13  1  0
 13 14  1  0
 14 15  1  0
 15 16  1  0
 16 17  1  0
 17 18  1  0
 14 19  1  0
 18 19  1  0
 10 20  1  0
 20 21  1  0
 21 22  2  0
 22 23  1  0
 23 24  2  0
 24 25  1  0
 21 26  1  0
 25 26  2  0
  7 27  1  0
  4 28  1  0
 27 28  1  0
M  END
