piperidine-amides-19027-covalent
     RDKit          3D

 20 21  0  0  0  0  0  0  0  0999 V2000
    7.0550   -3.4030   19.3190 C   0  0  0  0  0  0  0  0  0  0  0  0
    6.3930   -4.1940   20.3320 C   0  0  0  0  0  0  0  0  0  0  0  0
    5.3560   -4.8340   19.9800 O   0  0  0  0  0  0  0  0  0  0  0  0
    6.8710   -4.3310   21.6510 N   0  0  0  0  0  0  0  0  0  0  0  0
    6.6130   -5.6070   22.3370 C   0  0  0  0  0  0  0  0  0  0  0  0
    5.7130   -5.0680   23.5090 C   0  0  0  0  0  0  0  0  0  0  0  0
    6.5190   -3.9860   24.2100 C   0  0  0  0  0  0  0  0  0  0  0  0
    5.6600   -3.3490   25.3950 C   0  0  0  0  0  0  0  0  0  0  0  0
    4.8850   -2.5300   24.9220 O   0  0  0  0  0  0  0  0  0  0  0  0
    5.9360   -3.8240   26.5530 N   0  0  0  0  0  0  0  0  0  0  0  0
    5.6900   -4.1270   27.8830 C   0  0  0  0  0  0  0  0  0  0  0  0
    6.4260   -4.9130   28.7070 C   0  0  0  0  0  0  0  0  0  0  0  0
    7.7690   -5.3050   27.8160 S   0  0  0  0  0  0  0  0  0  0  0  0
    7.2910   -4.4470   26.3990 C   0  0  2  0  0  0  0  0  0  0  0  0
    8.3510   -3.5640   25.8900 C   0  0  0  0  0  0  0  0  0  0  0  0
    9.2640   -4.1950   25.0490 O   0  0  0  0  0  0  0  0  0  0  0  0
    8.3950   -2.2470   26.2530 O   0  0  0  0  0  0  0  0  0  0  0  0
    7.9820   -2.1480   27.5960 C   0  0  0  0  0  0  0  0  0  0  0  0
    7.1340   -2.8680   23.3820 C   0  0  0  0  0  0  0  0  0  0  0  0
    7.7690   -3.3800   22.2510 C   0  0  0  0  0  0  0  0  0  0  0  0
  1  2  1  0
  2  3  2  0
  2  4  1  0
  4  5  1  0
  5  6  1  0
  6  7  1  0
  7  8  1  0
  8  9  2  0
  8 10  1  0
 10 11  1  0
 11 12  1  0
 12 13  1  0
 10 14  1  0
 13 14  1  0
 14 15  1  1
 15 16  2  0
 15 17  1  0
 17 18  1  0
  7 19  1  0
  4 20  1  0
 19 20  1  0
M  END
