piperidine-amides-13928-covalent
     RDKit          3D

 26 28  0  0  0  0  0  0  0  0999 V2000
    7.1670   -3.2680   19.2100 C   0  0  0  0  0  0  0  0  0  0  0  0
    6.3300   -4.0080   20.1900 C   0  0  0  0  0  0  0  0  0  0  0  0
    5.2250   -4.4540   19.8410 O   0  0  0  0  0  0  0  0  0  0  0  0
    6.8520   -4.2420   21.4710 N   0  0  0  0  0  0  0  0  0  0  0  0
    6.4630   -5.3830   22.2560 C   0  0  0  0  0  0  0  0  0  0  0  0
    5.5530   -4.8350   23.3560 C   0  0  0  0  0  0  0  0  0  0  0  0
    6.4080   -3.9190   24.1630 C   0  0  0  0  0  0  0  0  0  0  0  0
    5.7330   -3.3550   25.3470 C   0  0  0  0  0  0  0  0  0  0  0  0
    4.5060   -3.2390   25.2790 O   0  0  0  0  0  0  0  0  0  0  0  0
    6.4840   -2.9800   26.4610 N   0  0  0  0  0  0  0  0  0  0  0  0
    6.1200   -3.1300   27.8200 C   0  0  0  0  0  0  0  0  0  0  0  0
    5.4320   -2.1610   28.5170 C   0  0  0  0  0  0  0  0  0  0  0  0
    5.3970   -2.0590   29.9320 N   0  0  0  0  0  0  0  0  0  0  0  0
    4.6410   -0.9950   30.3750 C   0  0  0  0  0  0  0  0  0  0  0  0
    4.5680   -0.8320   31.7340 C   0  0  0  0  0  0  0  0  0  0  0  0
    5.5440    0.0090   32.4690 C   0  0  0  0  0  0  0  0  0  0  0  0
    5.4940    0.2100   33.9850 C   0  0  0  0  0  0  0  0  0  0  0  0
    4.3590   -0.5180   34.7090 C   0  0  0  0  0  0  0  0  0  0  0  0
    4.1610   -0.3950   36.4480 Cl  0  0  0  0  0  0  0  0  0  0  0  0
    3.4960   -1.2780   33.9430 C   0  0  0  0  0  0  0  0  0  0  0  0
    3.5800   -1.4480   32.4720 C   0  0  0  0  0  0  0  0  0  0  0  0
    3.9920   -0.1390   29.4490 C   0  0  0  0  0  0  0  0  0  0  0  0
    3.2110    0.9520   29.7340 C   0  0  0  0  0  0  0  0  0  0  0  0
    4.4230   -0.7910   27.9090 S   0  0  0  0  0  0  0  0  0  0  0  0
    6.9830   -2.7570   23.4220 C   0  0  0  0  0  0  0  0  0  0  0  0
    7.6280   -3.2080   22.1410 C   0  0  0  0  0  0  0  0  0  0  0  0
  1  2  1  0
  2  3  2  0
  2  4  1  0
  4  5  1  0
  5  6  1  0
  6  7  1  0
  7  8  1  0
  8  9  2  0
  8 10  1  0
 10 11  1  0
 11 12  1  0
 12 13  2  0
 13 14  1  0
 14 15  1  0
 15 16  2  0
 16 17  1  0
 17 18  2  0
 18 19  1  0
 18 20  1  0
 15 21  1  0
 20 21  2  0
 14 22  2  0
 22 23  1  0
 12 24  1  0
 22 24  1  0
  7 25  1  0
  4 26  1  0
 25 26  1  0
M  END
