piperidine-amides-14040-covalent
     RDKit          3D

 25 26  0  0  0  0  0  0  0  0999 V2000
    7.0630   -3.2900   19.2830 C   0  0  0  0  0  0  0  0  0  0  0  0
    6.3300   -4.0990   20.3000 C   0  0  0  0  0  0  0  0  0  0  0  0
    5.3170   -4.7240   19.9440 O   0  0  0  0  0  0  0  0  0  0  0  0
    6.8230   -4.1740   21.6240 N   0  0  0  0  0  0  0  0  0  0  0  0
    6.6980   -5.4030   22.3760 C   0  0  0  0  0  0  0  0  0  0  0  0
    5.9480   -5.0650   23.6660 C   0  0  0  0  0  0  0  0  0  0  0  0
    6.0980   -3.5970   23.8500 C   0  0  0  0  0  0  0  0  0  0  0  0
    5.6490   -3.1200   25.1880 C   0  0  0  0  0  0  0  0  0  0  0  0
    4.5380   -2.5830   25.2190 O   0  0  0  0  0  0  0  0  0  0  0  0
    6.4500   -3.2760   26.3270 N   0  0  0  0  0  0  0  0  0  0  0  0
    6.0590   -3.7510   27.6200 C   0  0  0  0  0  0  0  0  0  0  0  0
    5.2520   -4.8450   27.8620 C   0  0  2  0  0  0  0  0  0  0  0  0
    4.8350   -5.2280   26.5270 O   0  0  0  0  0  0  0  0  0  0  0  0
    4.0270   -4.6080   28.5160 C   0  0  0  0  0  0  0  0  0  0  0  0
    3.7500   -5.1850   29.7400 C   0  0  0  0  0  0  0  0  0  0  0  0
    2.4550   -4.9420   30.4390 C   0  0  0  0  0  0  0  0  0  0  0  0
    1.3740   -4.0440   29.8350 C   0  0  0  0  0  0  0  0  0  0  0  0
    1.8660   -3.5080   28.4970 C   0  0  0  0  0  0  0  0  0  0  0  0
    3.0920   -3.7910   27.9260 C   0  0  0  0  0  0  0  0  0  0  0  0
    5.8530   -6.0080   28.1900 C   0  0  0  0  0  0  0  0  0  0  0  0
    5.0010   -6.9680   28.6170 F   0  0  0  0  0  0  0  0  0  0  0  0
    6.8160   -5.8580   29.1400 F   0  0  0  0  0  0  0  0  0  0  0  0
    6.4110   -6.4780   27.0320 F   0  0  0  0  0  0  0  0  0  0  0  0
    7.4640   -3.0820   23.5320 C   0  0  0  0  0  0  0  0  0  0  0  0
    7.6530   -3.1210   22.1690 C   0  0  0  0  0  0  0  0  0  0  0  0
  1  2  1  0
  2  3  2  0
  2  4  1  0
  4  5  1  0
  5  6  1  0
  6  7  1  0
  7  8  1  0
  8  9  2  0
  8 10  1  0
 10 11  1  0
 11 12  1  0
 12 13  1  6
 12 14  1  0
 14 15  2  0
 15 16  1  0
 16 17  2  0
 17 18  1  0
 14 19  1  0
 18 19  2  0
 12 20  1  0
 20 21  1  0
 20 22  1  0
 20 23  1  0
  7 24  1  0
  4 25  1  0
 24 25  1  0
M  END
