piperidine-amides-11483-covalent
     RDKit          3D

 24 25  0  0  0  0  0  0  0  0999 V2000
    7.1670   -3.2620   19.1450 C   0  0  0  0  0  0  0  0  0  0  0  0
    6.3990   -3.9830   20.1580 C   0  0  0  0  0  0  0  0  0  0  0  0
    5.3070   -4.4930   19.8640 O   0  0  0  0  0  0  0  0  0  0  0  0
    6.9210   -4.1430   21.4450 N   0  0  0  0  0  0  0  0  0  0  0  0
    7.7920   -3.1640   22.0390 C   0  0  0  0  0  0  0  0  0  0  0  0
    7.1120   -2.7890   23.3070 C   0  0  0  0  0  0  0  0  0  0  0  0
    6.5580   -3.9910   24.0020 C   0  0  0  0  0  0  0  0  0  0  0  0
    5.8420   -3.5650   25.1990 C   0  0  0  0  0  0  0  0  0  0  0  0
    4.5750   -3.5760   25.2710 O   0  0  0  0  0  0  0  0  0  0  0  0
    6.5630   -3.1030   26.2890 N   0  0  0  0  0  0  0  0  0  0  0  0
    5.8710   -2.3840   27.3250 C   0  0  0  0  0  0  0  0  0  0  0  0
    6.2020   -2.9990   28.6090 C   0  0  1  0  0  0  0  0  0  0  0  0
    6.3310   -1.9070   29.6010 C   0  0  0  0  0  0  0  0  0  0  0  0
    5.0700   -1.5260   30.3390 C   0  0  0  0  0  0  0  0  0  0  0  0
    5.1570   -0.4150   31.3550 C   0  0  0  0  0  0  0  0  0  0  0  0
    6.4990    0.1800   31.5070 C   0  0  0  0  0  0  0  0  0  0  0  0
    7.5990   -0.2140   30.8000 C   0  0  0  0  0  0  0  0  0  0  0  0
    7.5210   -1.2470   29.8540 C   0  0  0  0  0  0  0  0  0  0  0  0
    5.4410   -4.1050   28.9720 C   0  0  0  0  0  0  0  0  0  0  0  0
    4.1160   -3.8220   29.6890 C   0  0  0  0  0  0  0  0  0  0  0  0
    5.0430   -4.6070   27.7730 F   0  0  0  0  0  0  0  0  0  0  0  0
    6.2120   -5.0570   29.6300 F   0  0  0  0  0  0  0  0  0  0  0  0
    5.6920   -4.8220   23.0470 C   0  0  0  0  0  0  0  0  0  0  0  0
    6.4320   -5.2790   22.2180 C   0  0  0  0  0  0  0  0  0  0  0  0
  1  2  1  0
  2  3  2  0
  2  4  1  0
  4  5  1  0
  5  6  1  0
  6  7  1  0
  7  8  1  0
  8  9  2  0
  8 10  1  0
 10 11  1  0
 12 11  1  6
 12 13  1  0
 13 14  2  0
 14 15  1  0
 15 16  2  0
 16 17  1  0
 13 18  1  0
 17 18  2  0
 12 19  1  0
 19 20  1  0
 19 21  1  0
 19 22  1  0
  7 23  1  0
  4 24  1  0
 23 24  1  0
M  END
