piperidine-amides-28093-covalent
     RDKit          3D

 26 28  0  0  0  0  0  0  0  0999 V2000
    7.0920   -3.3160   19.3130 C   0  0  0  0  0  0  0  0  0  0  0  0
    6.4060   -4.1430   20.3310 C   0  0  0  0  0  0  0  0  0  0  0  0
    5.3640   -4.7220   19.9570 O   0  0  0  0  0  0  0  0  0  0  0  0
    6.9450   -4.2930   21.6250 N   0  0  0  0  0  0  0  0  0  0  0  0
    6.6200   -5.4290   22.4240 C   0  0  0  0  0  0  0  0  0  0  0  0
    6.2670   -5.0690   23.8030 C   0  0  0  0  0  0  0  0  0  0  0  0
    5.8920   -3.6460   23.9670 C   0  0  0  0  0  0  0  0  0  0  0  0
    5.5010   -3.3120   25.3690 C   0  0  0  0  0  0  0  0  0  0  0  0
    4.3070   -3.0130   25.5360 O   0  0  0  0  0  0  0  0  0  0  0  0
    6.3720   -3.3220   26.4860 N   0  0  0  0  0  0  0  0  0  0  0  0
    6.7190   -4.6140   27.1350 C   0  0  0  0  0  0  0  0  0  0  0  0
    6.3630   -2.1260   27.2820 C   0  0  0  0  0  0  0  0  0  0  0  0
    6.5530   -2.1780   28.7460 C   0  0  1  0  0  0  0  0  0  0  0  0
    6.9580   -1.0100   29.4070 C   0  0  0  0  0  0  0  0  0  0  0  0
    5.9360   -0.0500   29.2020 N   0  0  0  0  0  0  0  0  0  0  0  0
    6.1870    1.0710   28.3130 C   0  0  0  0  0  0  0  0  0  0  0  0
    6.6980    2.1600   28.9460 C   0  0  0  0  0  0  0  0  0  0  0  0
    4.6640   -0.6310   29.3200 C   0  0  0  0  0  0  0  0  0  0  0  0
    3.6460    0.2630   29.3250 C   0  0  0  0  0  0  0  0  0  0  0  0
    2.3330   -0.1440   29.4350 C   0  0  0  0  0  0  0  0  0  0  0  0
    1.9650   -1.5620   29.5520 C   0  0  0  0  0  0  0  0  0  0  0  0
    3.0900   -2.5840   29.5480 C   0  0  0  0  0  0  0  0  0  0  0  0
    4.4830   -1.9820   29.4210 C   0  0  0  0  0  0  0  0  0  0  0  0
    5.5430   -2.6570   29.4000 O   0  0  0  0  0  0  0  0  0  0  0  0
    6.7750   -2.6420   23.3480 C   0  0  0  0  0  0  0  0  0  0  0  0
    7.6840   -3.2340   22.2910 C   0  0  0  0  0  0  0  0  0  0  0  0
  1  2  1  0
  2  3  2  0
  2  4  1  0
  4  5  1  0
  5  6  1  0
  6  7  1  0
  7  8  1  0
  8  9  2  0
  8 10  1  0
 10 11  1  0
 10 12  1  0
 13 12  1  6
 13 14  1  0
 14 15  1  0
 15 16  1  0
 16 17  1  0
 15 18  1  0
 18 19  2  0
 19 20  1  0
 20 21  2  0
 21 22  1  0
 18 23  1  0
 22 23  2  0
 13 24  1  0
 23 24  1  0
  7 25  1  0
  4 26  1  0
 25 26  1  0
M  END
