piperidine-amides-12558-covalent
     RDKit          3D

 23 25  0  0  0  0  0  0  0  0999 V2000
    7.1290   -3.2530   19.1780 C   0  0  0  0  0  0  0  0  0  0  0  0
    6.3600   -4.0020   20.1980 C   0  0  0  0  0  0  0  0  0  0  0  0
    5.2620   -4.4720   19.8460 O   0  0  0  0  0  0  0  0  0  0  0  0
    6.8760   -4.2200   21.4780 N   0  0  0  0  0  0  0  0  0  0  0  0
    7.6110   -3.1870   22.1320 C   0  0  0  0  0  0  0  0  0  0  0  0
    7.2400   -2.9430   23.5240 C   0  0  0  0  0  0  0  0  0  0  0  0
    6.4640   -4.0170   24.1860 C   0  0  0  0  0  0  0  0  0  0  0  0
    5.7520   -3.4460   25.3490 C   0  0  0  0  0  0  0  0  0  0  0  0
    4.5090   -3.3640   25.3030 O   0  0  0  0  0  0  0  0  0  0  0  0
    6.4530   -3.0000   26.4810 N   0  0  0  0  0  0  0  0  0  0  0  0
    6.1390   -3.4370   27.8560 C   0  0  0  0  0  0  0  0  0  0  0  0
    6.2680   -2.2810   28.7850 C   0  0  0  0  0  0  0  0  0  0  0  0
    5.4060   -2.0580   29.9170 N   0  0  0  0  0  0  0  0  0  0  0  0
    5.9180   -0.8770   30.4590 C   0  0  0  0  0  0  0  0  0  0  0  0
    5.4320   -0.2480   31.5690 C   0  0  0  0  0  0  0  0  0  0  0  0
    6.0460    0.9300   32.0010 C   0  0  0  0  0  0  0  0  0  0  0  0
    5.3530    1.7960   33.5620 Br  0  0  0  0  0  0  0  0  0  0  0  0
    7.1310    1.4390   31.2980 C   0  0  0  0  0  0  0  0  0  0  0  0
    7.6460    0.7870   30.1330 N   0  0  0  0  0  0  0  0  0  0  0  0
    6.9270   -0.4090   29.8030 C   0  0  0  0  0  0  0  0  0  0  0  0
    7.1800   -1.2360   28.7650 N   0  0  0  0  0  0  0  0  0  0  0  0
    5.6090   -4.8460   23.3070 C   0  0  0  0  0  0  0  0  0  0  0  0
    6.3840   -5.3220   22.2560 C   0  0  0  0  0  0  0  0  0  0  0  0
  1  2  1  0
  2  3  2  0
  2  4  1  0
  4  5  1  0
  5  6  1  0
  6  7  1  0
  7  8  1  0
  8  9  2  0
  8 10  1  0
 10 11  1  0
 11 12  1  0
 12 13  2  0
 13 14  1  0
 14 15  2  0
 15 16  1  0
 16 17  1  0
 16 18  2  0
 18 19  1  0
 14 20  1  0
 19 20  2  0
 12 21  1  0
 20 21  1  0
  7 22  1  0
  4 23  1  0
 22 23  1  0
M  END
