piperidine-amides-3833-covalent
     RDKit          3D

 20 22  0  0  0  0  0  0  0  0999 V2000
    7.0980   -3.3070   19.2920 C   0  0  0  0  0  0  0  0  0  0  0  0
    6.3980   -4.1100   20.3110 C   0  0  0  0  0  0  0  0  0  0  0  0
    5.3570   -4.7080   19.9450 O   0  0  0  0  0  0  0  0  0  0  0  0
    6.9010   -4.2450   21.6330 N   0  0  0  0  0  0  0  0  0  0  0  0
    7.7120   -3.2030   22.1710 C   0  0  0  0  0  0  0  0  0  0  0  0
    7.4870   -2.9740   23.5820 C   0  0  0  0  0  0  0  0  0  0  0  0
    6.2650   -3.6330   24.0580 C   0  0  0  0  0  0  0  0  0  0  0  0
    5.9320   -3.2650   25.4660 C   0  0  0  0  0  0  0  0  0  0  0  0
    4.9090   -3.7630   25.9720 O   0  0  0  0  0  0  0  0  0  0  0  0
    6.6920   -2.3570   26.2450 N   0  0  0  0  0  0  0  0  0  0  0  0
    6.1450   -1.5470   27.2630 C   0  0  1  0  0  0  0  0  0  0  0  0
    6.0500   -1.8540   28.5710 C   0  0  0  0  0  0  0  0  0  0  0  0
    7.0030   -0.6800   28.2110 C   0  0  2  0  0  0  0  0  0  0  0  0
    6.5110    0.5930   28.3740 C   0  0  0  0  0  0  0  0  0  0  0  0
    5.3070    0.6370   27.6670 O   0  0  0  0  0  0  0  0  0  0  0  0
    5.1370   -0.4770   26.8180 C   0  0  0  0  0  0  0  0  0  0  0  0
    5.5640    0.0350   25.4820 C   0  0  0  0  0  0  0  0  0  0  0  0
    3.6330   -0.7640   26.5600 C   0  0  0  0  0  0  0  0  0  0  0  0
    6.2500   -5.1310   23.8310 C   0  0  0  0  0  0  0  0  0  0  0  0
    6.6720   -5.4560   22.3990 C   0  0  0  0  0  0  0  0  0  0  0  0
  1  2  1  0
  2  3  2  0
  2  4  1  0
  4  5  1  0
  5  6  1  0
  6  7  1  0
  7  8  1  0
  8  9  2  0
  8 10  1  0
 11 10  1  6
 11 12  1  0
 11 13  1  0
 13 12  1  1
 13 14  1  0
 14 15  1  0
 11 16  1  0
 15 16  1  0
 16 17  1  0
 16 18  1  0
  7 19  1  0
  4 20  1  0
 19 20  1  0
M  END
