piperidine-amides-27736-covalent
     RDKit          3D

 26 28  0  0  0  0  0  0  0  0999 V2000
    7.0620   -3.3490   19.3280 C   0  0  0  0  0  0  0  0  0  0  0  0
    6.4180   -4.2160   20.3380 C   0  0  0  0  0  0  0  0  0  0  0  0
    5.3890   -4.8250   19.9770 O   0  0  0  0  0  0  0  0  0  0  0  0
    6.9800   -4.3750   21.6160 N   0  0  0  0  0  0  0  0  0  0  0  0
    6.7040   -5.5550   22.3740 C   0  0  0  0  0  0  0  0  0  0  0  0
    6.1460   -5.2580   23.6860 C   0  0  0  0  0  0  0  0  0  0  0  0
    6.0450   -3.8060   23.9110 C   0  0  0  0  0  0  0  0  0  0  0  0
    5.4550   -3.4810   25.2240 C   0  0  0  0  0  0  0  0  0  0  0  0
    4.4070   -2.8140   25.2280 O   0  0  0  0  0  0  0  0  0  0  0  0
    5.9980   -3.8880   26.4430 N   0  0  0  0  0  0  0  0  0  0  0  0
    5.4310   -5.0520   27.1340 C   0  0  0  0  0  0  0  0  0  0  0  0
    5.0410   -4.7310   28.5330 C   0  0  0  0  0  0  0  0  0  0  0  0
    5.8980   -3.8580   29.2960 C   0  0  0  0  0  0  0  0  0  0  0  0
    6.7390   -3.0380   28.6060 C   0  0  2  0  0  0  0  0  0  0  0  0
    7.0340   -1.7460   29.0310 C   0  0  0  0  0  0  0  0  0  0  0  0
    8.0370   -1.5210   29.8180 O   0  0  0  0  0  0  0  0  0  0  0  0
    6.3250   -0.5740   28.6110 N   0  0  0  0  0  0  0  0  0  0  0  0
    6.9590    0.5820   28.3190 C   0  0  0  0  0  0  0  0  0  0  0  0
    7.8510    0.9630   29.2720 C   0  0  0  0  0  0  0  0  0  0  0  0
    8.5670    2.1120   29.1180 C   0  0  0  0  0  0  0  0  0  0  0  0
    8.4160    2.9320   27.9940 C   0  0  0  0  0  0  0  0  0  0  0  0
    7.4650    2.5960   26.9030 C   0  0  0  0  0  0  0  0  0  0  0  0
    6.7300    1.3020   27.1830 C   0  0  0  0  0  0  0  0  0  0  0  0
    6.4010   -2.7710   27.2190 C   0  0  0  0  0  0  0  0  0  0  0  0
    7.2580   -3.0460   23.6060 C   0  0  0  0  0  0  0  0  0  0  0  0
    7.7960   -3.3170   22.2230 C   0  0  0  0  0  0  0  0  0  0  0  0
  1  2  1  0
  2  3  2  0
  2  4  1  0
  4  5  1  0
  5  6  1  0
  6  7  1  0
  7  8  1  0
  8  9  2  0
  8 10  1  0
 10 11  1  0
 11 12  1  0
 12 13  1  0
 13 14  1  0
 14 15  1  1
 15 16  2  0
 15 17  1  0
 17 18  1  0
 18 19  2  0
 19 20  1  0
 20 21  2  0
 21 22  1  0
 18 23  1  0
 22 23  2  0
 10 24  1  0
 14 24  1  0
  7 25  1  0
  4 26  1  0
 25 26  1  0
M  END
