piperidine-amides-14640-covalent
     RDKit          3D

 23 25  0  0  0  0  0  0  0  0999 V2000
    7.0500   -3.3550   19.3540 C   0  0  0  0  0  0  0  0  0  0  0  0
    6.3330   -4.1560   20.3440 C   0  0  0  0  0  0  0  0  0  0  0  0
    5.3490   -4.8110   19.9660 O   0  0  0  0  0  0  0  0  0  0  0  0
    6.7870   -4.2060   21.6830 N   0  0  0  0  0  0  0  0  0  0  0  0
    7.7200   -3.2100   22.1330 C   0  0  0  0  0  0  0  0  0  0  0  0
    7.6810   -3.2110   23.6130 C   0  0  0  0  0  0  0  0  0  0  0  0
    6.2400   -3.5140   23.9100 C   0  0  0  0  0  0  0  0  0  0  0  0
    5.9400   -3.1830   25.3390 C   0  0  0  0  0  0  0  0  0  0  0  0
    4.8190   -3.4700   25.7610 O   0  0  0  0  0  0  0  0  0  0  0  0
    6.9740   -2.5730   26.0510 N   0  0  0  0  0  0  0  0  0  0  0  0
    6.7880   -1.5380   27.0200 C   0  0  0  0  0  0  0  0  0  0  0  0
    7.2080   -1.6990   28.3300 C   0  0  0  0  0  0  0  0  0  0  0  0
    7.0470   -0.7220   29.2820 C   0  0  0  0  0  0  0  0  0  0  0  0
    6.4550    0.5280   29.0660 C   0  0  0  0  0  0  0  0  0  0  0  0
    5.9710    0.7760   27.6590 C   0  0  0  0  0  0  0  0  0  0  0  0
    6.1450   -0.3080   26.5780 C   0  0  0  0  0  0  0  0  0  0  0  0
    5.6810   -0.0150   25.2870 N   0  0  0  0  0  0  0  0  0  0  0  0
    6.3480   -0.5180   24.0290 C   0  0  0  0  0  0  0  0  0  0  0  0
    5.5080    0.0610   22.9610 C   0  0  0  0  0  0  0  0  0  0  0  0
    4.6950    0.6690   24.0070 C   0  0  0  0  0  0  0  0  0  0  0  0
    4.5570    0.7900   25.0930 N   0  0  0  0  0  0  0  0  0  0  0  0
    5.9850   -4.9880   23.6630 C   0  0  0  0  0  0  0  0  0  0  0  0
    6.6070   -5.3990   22.4880 C   0  0  0  0  0  0  0  0  0  0  0  0
  1  2  1  0
  2  3  2  0
  2  4  1  0
  4  5  1  0
  5  6  1  0
  6  7  1  0
  7  8  1  0
  8  9  2  0
  8 10  1  0
 10 11  1  0
 11 12  2  0
 12 13  1  0
 13 14  2  0
 14 15  1  0
 11 16  1  0
 15 16  2  0
 16 17  1  0
 17 18  1  0
 18 19  2  0
 19 20  1  0
 17 21  1  0
 20 21  2  0
  7 22  1  0
  4 23  1  0
 22 23  1  0
M  END
