piperidine-amides-19873-covalent
     RDKit          3D

 22 24  0  0  0  0  0  0  0  0999 V2000
    7.1590   -3.2450   19.1240 C   0  0  0  0  0  0  0  0  0  0  0  0
    6.3980   -3.9740   20.1640 C   0  0  0  0  0  0  0  0  0  0  0  0
    5.3030   -4.4380   19.8500 O   0  0  0  0  0  0  0  0  0  0  0  0
    6.9650   -4.1600   21.4220 N   0  0  0  0  0  0  0  0  0  0  0  0
    7.7210   -3.1200   22.0790 C   0  0  0  0  0  0  0  0  0  0  0  0
    7.4480   -3.1010   23.5580 C   0  0  0  0  0  0  0  0  0  0  0  0
    6.0290   -3.5980   23.8580 C   0  0  0  0  0  0  0  0  0  0  0  0
    5.9750   -3.9700   25.2610 C   0  0  0  0  0  0  0  0  0  0  0  0
    6.0370   -5.1580   25.5300 O   0  0  0  0  0  0  0  0  0  0  0  0
    5.7920   -3.0660   26.2930 N   0  0  0  0  0  0  0  0  0  0  0  0
    4.6150   -3.3610   27.0290 C   0  0  0  0  0  0  0  0  0  0  0  0
    4.9570   -4.5930   27.7950 C   0  0  0  0  0  0  0  0  0  0  0  0
    5.3540   -4.3430   28.9990 C   0  0  2  0  0  0  0  0  0  0  0  0
    4.3720   -3.6160   29.6140 C   0  0  0  0  0  0  0  0  0  0  0  0
    2.9850   -4.0080   29.7590 N   0  0  0  0  0  0  0  0  0  0  0  0
    4.6000   -2.3830   30.1930 O   0  0  0  0  0  0  0  0  0  0  0  0
    6.6090   -3.5220   28.7090 C   0  0  0  0  0  0  0  0  0  0  0  0
    6.5600   -2.6240   27.4540 C   0  0  0  0  0  0  0  0  0  0  0  0
    5.8210   -1.6230   28.1950 C   0  0  0  0  0  0  0  0  0  0  0  0
    6.9250   -1.0450   27.5190 C   0  0  0  0  0  0  0  0  0  0  0  0
    5.5560   -4.7600   23.0790 C   0  0  0  0  0  0  0  0  0  0  0  0
    6.5660   -5.3100   22.1570 C   0  0  0  0  0  0  0  0  0  0  0  0
  1  2  1  0
  2  3  2  0
  2  4  1  0
  4  5  1  0
  5  6  1  0
  6  7  1  0
  7  8  1  0
  8  9  2  0
  8 10  1  0
 10 11  1  0
 11 12  1  0
 12 13  1  0
 13 14  1  1
 14 15  1  0
 14 16  2  0
 13 17  1  0
 18 10  1  0
 17 18  1  0
 18 19  1  0
 18 20  1  0
 19 20  1  0
  7 21  1  0
  4 22  1  0
 21 22  1  0
M  END
