piperidine-amides-15350-covalent
     RDKit          3D

 17 17  0  0  0  0  0  0  0  0999 V2000
    7.0930   -3.2960   19.2480 C   0  0  0  0  0  0  0  0  0  0  0  0
    6.3860   -4.1060   20.2510 C   0  0  0  0  0  0  0  0  0  0  0  0
    5.3340   -4.7090   19.9450 O   0  0  0  0  0  0  0  0  0  0  0  0
    6.9200   -4.2560   21.5390 N   0  0  0  0  0  0  0  0  0  0  0  0
    6.5890   -5.4470   22.3010 C   0  0  0  0  0  0  0  0  0  0  0  0
    6.5730   -5.0860   23.8010 C   0  0  0  0  0  0  0  0  0  0  0  0
    5.9010   -3.7420   23.9290 C   0  0  0  0  0  0  0  0  0  0  0  0
    5.4760   -3.4570   25.3170 C   0  0  0  0  0  0  0  0  0  0  0  0
    4.2740   -3.1900   25.5000 O   0  0  0  0  0  0  0  0  0  0  0  0
    6.3830   -3.4670   26.4060 N   0  0  0  0  0  0  0  0  0  0  0  0
    6.5200   -2.2470   27.1700 C   0  0  0  0  0  0  0  0  0  0  0  0
    6.8740   -4.7270   26.9680 C   0  0  0  0  0  0  0  0  0  0  0  0
    5.8550   -5.5860   27.2610 C   0  0  0  0  0  0  0  0  0  0  0  0
    5.8660   -6.1860   28.4910 C   0  0  0  0  0  0  0  0  0  0  0  0
    4.8810   -5.8250   26.3400 C   0  0  0  0  0  0  0  0  0  0  0  0
    6.7340   -2.6590   23.3620 C   0  0  0  0  0  0  0  0  0  0  0  0
    7.5640   -3.1580   22.2190 C   0  0  0  0  0  0  0  0  0  0  0  0
  1  2  1  0
  2  3  2  0
  2  4  1  0
  4  5  1  0
  5  6  1  0
  6  7  1  0
  7  8  1  0
  8  9  2  0
  8 10  1  0
 10 11  1  0
 10 12  1  0
 12 13  1  0
 13 14  2  3
 13 15  1  0
  7 16  1  0
  4 17  1  0
 16 17  1  0
M  END
