piperidine-amides-5064-covalent
     RDKit          3D

 22 23  0  0  0  0  0  0  0  0999 V2000
    7.0470   -3.3530   19.3200 C   0  0  0  0  0  0  0  0  0  0  0  0
    6.3850   -4.1840   20.3470 C   0  0  0  0  0  0  0  0  0  0  0  0
    5.3680   -4.8070   19.9740 O   0  0  0  0  0  0  0  0  0  0  0  0
    6.9080   -4.3080   21.6480 N   0  0  0  0  0  0  0  0  0  0  0  0
    7.6690   -3.2550   22.2440 C   0  0  0  0  0  0  0  0  0  0  0  0
    7.2670   -2.9710   23.6190 C   0  0  0  0  0  0  0  0  0  0  0  0
    6.0150   -3.6590   23.9900 C   0  0  0  0  0  0  0  0  0  0  0  0
    5.5860   -3.3400   25.3800 C   0  0  0  0  0  0  0  0  0  0  0  0
    4.3900   -3.5340   25.6590 O   0  0  0  0  0  0  0  0  0  0  0  0
    6.4580   -2.8270   26.3560 N   0  0  0  0  0  0  0  0  0  0  0  0
    6.0460   -1.7060   27.2410 C   0  0  1  0  0  0  0  0  0  0  0  0
    7.0610   -1.4370   28.3040 C   0  0  0  0  0  0  0  0  0  0  0  0
    6.7700   -0.5650   29.4320 C   0  0  0  0  0  0  0  0  0  0  0  0
    6.3420    0.7150   29.2010 C   0  0  0  0  0  0  0  0  0  0  0  0
    5.2660    0.9300   28.3800 C   0  0  1  0  0  0  0  0  0  0  0  0
    4.4510    1.9740   28.6920 C   0  0  0  0  0  0  0  0  0  0  0  0
    4.9040    3.1640   28.2040 C   0  0  0  0  0  0  0  0  0  0  0  0
    3.1140    1.7670   28.3930 C   0  0  0  0  0  0  0  0  0  0  0  0
    5.5710    0.8790   27.0400 C   0  0  0  0  0  0  0  0  0  0  0  0
    5.8590   -0.4300   26.4130 C   0  0  0  0  0  0  0  0  0  0  0  0
    6.0390   -5.1320   23.7660 C   0  0  0  0  0  0  0  0  0  0  0  0
    6.6660   -5.4970   22.4400 C   0  0  0  0  0  0  0  0  0  0  0  0
  1  2  1  0
  2  3  2  0
  2  4  1  0
  4  5  1  0
  5  6  1  0
  6  7  1  0
  7  8  1  0
  8  9  2  0
  8 10  1  0
 11 10  1  6
 11 12  1  0
 12 13  1  0
 13 14  1  0
 14 15  1  0
 15 16  1  1
 16 17  1  0
 16 18  1  0
 15 19  1  0
 11 20  1  0
 19 20  1  0
  7 21  1  0
  4 22  1  0
 21 22  1  0
M  END
