piperidine-amides-710-covalent
     RDKit          3D

 26 28  0  0  0  0  0  0  0  0999 V2000
    7.1380   -3.2400   19.3190 C   0  0  0  0  0  0  0  0  0  0  0  0
    6.3210   -3.9890   20.2600 C   0  0  0  0  0  0  0  0  0  0  0  0
    5.2440   -4.5150   19.8540 O   0  0  0  0  0  0  0  0  0  0  0  0
    6.6770   -4.1890   21.6040 N   0  0  0  0  0  0  0  0  0  0  0  0
    7.6980   -3.2990   22.1910 C   0  0  0  0  0  0  0  0  0  0  0  0
    6.9100   -2.6670   23.3980 C   0  0  0  0  0  0  0  0  0  0  0  0
    5.9800   -3.7330   23.9500 C   0  0  0  0  0  0  0  0  0  0  0  0
    5.6010   -3.4130   25.4600 C   0  0  0  0  0  0  0  0  0  0  0  0
    4.5250   -2.8390   25.5580 O   0  0  0  0  0  0  0  0  0  0  0  0
    6.5630   -3.8630   26.1520 N   0  0  0  0  0  0  0  0  0  0  0  0
    7.6440   -4.3590   26.7990 C   0  0  0  0  0  0  0  0  0  0  0  0
    8.9940   -4.4230   26.6710 C   0  0  0  0  0  0  0  0  0  0  0  0
    9.7860   -5.0080   27.6640 O   0  0  0  0  0  0  0  0  0  0  0  0
    9.4020   -3.8060   25.3970 N   0  0  0  0  0  0  0  0  0  0  0  0
   10.5690   -3.2010   25.1250 C   0  0  0  0  0  0  0  0  0  0  0  0
   11.6800   -3.9210   25.8540 C   0  0  0  0  0  0  0  0  0  0  0  0
   13.1820   -3.3740   25.6760 C   0  0  0  0  0  0  0  0  0  0  0  0
   13.2740   -2.2640   24.8350 C   0  0  0  0  0  0  0  0  0  0  0  0
   12.1530   -1.7890   24.2950 C   0  0  0  0  0  0  0  0  0  0  0  0
   12.8200   -0.6860   23.5590 C   0  0  0  0  0  0  0  0  0  0  0  0
   11.8200    0.1410   22.7780 C   0  0  0  0  0  0  0  0  0  0  0  0
   10.4830   -0.1860   22.8130 C   0  0  0  0  0  0  0  0  0  0  0  0
    9.9940   -1.3000   23.5800 N   0  0  0  0  0  0  0  0  0  0  0  0
   10.8900   -2.0710   24.3110 C   0  0  0  0  0  0  0  0  0  0  0  0
    6.3630   -5.1770   23.6600 C   0  0  0  0  0  0  0  0  0  0  0  0
    6.3020   -5.3900   22.3040 C   0  0  0  0  0  0  0  0  0  0  0  0
  1  2  1  0
  2  3  2  0
  2  4  1  0
  4  5  1  0
  5  6  1  0
  6  7  1  0
  7  8  1  0
  8  9  2  0
  8 10  1  0
 10 11  1  0
 11 12  1  0
 12 13  2  0
 12 14  1  0
 14 15  1  0
 15 16  2  0
 16 17  1  0
 17 18  2  0
 18 19  1  0
 19 20  1  0
 20 21  2  0
 21 22  1  0
 22 23  2  0
 15 24  1  0
 19 24  2  0
 23 24  1  0
  7 25  1  0
  4 26  1  0
 25 26  1  0
M  END
