piperidine-amides-23401-covalent
     RDKit          3D

 24 26  0  0  0  0  0  0  0  0999 V2000
    7.0820   -3.3000   19.2400 C   0  0  0  0  0  0  0  0  0  0  0  0
    6.3880   -4.0660   20.2880 C   0  0  0  0  0  0  0  0  0  0  0  0
    5.3330   -4.6540   19.9350 O   0  0  0  0  0  0  0  0  0  0  0  0
    6.9040   -4.1880   21.6070 N   0  0  0  0  0  0  0  0  0  0  0  0
    6.5710   -5.3620   22.3400 C   0  0  0  0  0  0  0  0  0  0  0  0
    5.9740   -5.0380   23.6190 C   0  0  0  0  0  0  0  0  0  0  0  0
    6.0940   -3.6050   23.9230 C   0  0  0  0  0  0  0  0  0  0  0  0
    5.6790   -3.3290   25.3400 C   0  0  0  0  0  0  0  0  0  0  0  0
    4.7820   -4.0330   25.8310 O   0  0  0  0  0  0  0  0  0  0  0  0
    6.2220   -2.3030   26.1400 N   0  0  0  0  0  0  0  0  0  0  0  0
    6.1470   -2.2640   27.5180 C   0  0  0  0  0  0  0  0  0  0  0  0
    5.5800   -0.9670   27.4620 C   0  0  0  0  0  0  0  0  0  0  0  0
    6.4520    0.0730   28.1790 C   0  0  0  0  0  0  0  0  0  0  0  0
    6.2240    1.3260   27.6590 C   0  0  0  0  0  0  0  0  0  0  0  0
    7.3500    1.8470   26.8000 C   0  0  0  0  0  0  0  0  0  0  0  0
    7.0350    3.2410   26.2490 C   0  0  0  0  0  0  0  0  0  0  0  0
    5.6450    3.8860   26.6440 C   0  0  0  0  0  0  0  0  0  0  0  0
    5.2430    5.1460   26.2020 O   0  0  0  0  0  0  0  0  0  0  0  0
    4.5540    6.0440   27.0700 C   0  0  0  0  0  0  0  0  0  0  0  0
    4.5590    3.2680   27.5290 C   0  0  0  0  0  0  0  0  0  0  0  0
    4.9120    1.9090   28.0450 C   0  0  0  0  0  0  0  0  0  0  0  0
    5.7190   -0.9350   25.8790 C   0  0  0  0  0  0  0  0  0  0  0  0
    7.4410   -3.0710   23.5650 C   0  0  0  0  0  0  0  0  0  0  0  0
    7.7040   -3.1270   22.1970 C   0  0  0  0  0  0  0  0  0  0  0  0
  1  2  1  0
  2  3  2  0
  2  4  1  0
  4  5  1  0
  5  6  1  0
  6  7  1  0
  7  8  1  0
  8  9  2  0
  8 10  1  0
 10 11  1  0
 11 12  1  0
 12 13  1  0
 13 14  1  0
 14 15  2  0
 15 16  1  0
 16 17  2  0
 17 18  1  0
 18 19  1  0
 17 20  1  0
 14 21  1  0
 20 21  2  0
 10 22  1  0
 12 22  1  0
  7 23  1  0
  4 24  1  0
 23 24  1  0
M  END
