piperidine-amides-27262-covalent
     RDKit          3D

 26 29  0  0  0  0  0  0  0  0999 V2000
    7.0690   -3.3810   19.4080 C   0  0  0  0  0  0  0  0  0  0  0  0
    6.3820   -4.2210   20.3890 C   0  0  0  0  0  0  0  0  0  0  0  0
    5.3540   -4.8210   19.9780 O   0  0  0  0  0  0  0  0  0  0  0  0
    6.8950   -4.3730   21.6850 N   0  0  0  0  0  0  0  0  0  0  0  0
    6.5420   -5.4980   22.5000 C   0  0  0  0  0  0  0  0  0  0  0  0
    5.6920   -4.9960   23.6460 C   0  0  0  0  0  0  0  0  0  0  0  0
    6.2880   -3.7980   24.3660 C   0  0  0  0  0  0  0  0  0  0  0  0
    5.3110   -3.2590   25.3740 C   0  0  0  0  0  0  0  0  0  0  0  0
    4.5610   -2.3370   25.0080 O   0  0  0  0  0  0  0  0  0  0  0  0
    5.1770   -3.7300   26.7140 N   0  0  0  0  0  0  0  0  0  0  0  0
    5.0130   -2.8200   27.8230 C   0  0  0  0  0  0  0  0  0  0  0  0
    5.7150   -3.3740   29.0840 C   0  0  0  0  0  0  0  0  0  0  0  0
    6.3060   -4.6120   29.1430 C   0  0  0  0  0  0  0  0  0  0  0  0
    6.0470   -5.4410   28.1200 C   0  0  1  0  0  0  0  0  0  0  0  0
    4.9190   -6.2330   28.2580 C   0  0  0  0  0  0  0  0  0  0  0  0
    4.4360   -6.7370   29.4290 C   0  0  0  0  0  0  0  0  0  0  0  0
    3.3180   -7.4410   29.0790 C   0  0  0  0  0  0  0  0  0  0  0  0
    2.4000   -8.2020   30.0370 C   0  0  0  0  0  0  0  0  0  0  0  0
    1.2440   -8.8750   29.2810 C   0  0  0  0  0  0  0  0  0  0  0  0
    1.0940   -8.7580   27.7870 C   0  0  0  0  0  0  0  0  0  0  0  0
    2.1000   -7.9610   27.0000 C   0  0  0  0  0  0  0  0  0  0  0  0
    3.1250   -7.3680   27.6900 C   0  0  0  0  0  0  0  0  0  0  0  0
    4.1530   -6.6020   27.2240 N   0  0  0  0  0  0  0  0  0  0  0  0
    6.1440   -4.6660   27.0210 C   0  0  0  0  0  0  0  0  0  0  0  0
    6.6840   -2.7160   23.4000 C   0  0  0  0  0  0  0  0  0  0  0  0
    7.6110   -3.2740   22.3100 C   0  0  0  0  0  0  0  0  0  0  0  0
  1  2  1  0
  2  3  2  0
  2  4  1  0
  4  5  1  0
  5  6  1  0
  6  7  1  0
  7  8  1  0
  8  9  2  0
  8 10  1  0
 10 11  1  0
 11 12  1  0
 12 13  1  0
 13 14  1  0
 14 15  1  1
 15 16  2  0
 16 17  1  0
 17 18  2  0
 18 19  1  0
 19 20  2  0
 20 21  1  0
 17 22  1  0
 21 22  2  0
 15 23  1  0
 22 23  1  0
 10 24  1  0
 14 24  1  0
  7 25  1  0
  4 26  1  0
 25 26  1  0
M  END
