piperidine-amides-32311-covalent
     RDKit          3D

 24 26  0  0  0  0  0  0  0  0999 V2000
    6.9810   -3.3670   19.4600 C   0  0  0  0  0  0  0  0  0  0  0  0
    6.3370   -4.2880   20.4460 C   0  0  0  0  0  0  0  0  0  0  0  0
    5.4240   -5.0210   20.0180 O   0  0  0  0  0  0  0  0  0  0  0  0
    6.7760   -4.3370   21.8010 N   0  0  0  0  0  0  0  0  0  0  0  0
    6.6510   -5.5610   22.5760 C   0  0  0  0  0  0  0  0  0  0  0  0
    6.0030   -5.2150   23.9310 C   0  0  0  0  0  0  0  0  0  0  0  0
    5.9720   -3.7330   23.9930 C   0  0  0  0  0  0  0  0  0  0  0  0
    5.2850   -3.0810   25.1780 C   0  0  0  0  0  0  0  0  0  0  0  0
    4.7140   -2.0360   24.8960 O   0  0  0  0  0  0  0  0  0  0  0  0
    5.2380   -3.5700   26.5120 N   0  0  0  0  0  0  0  0  0  0  0  0
    6.3050   -4.0600   27.1780 C   0  0  0  0  0  0  0  0  0  0  0  0
    6.4570   -4.1860   28.5330 C   0  0  0  0  0  0  0  0  0  0  0  0
    5.1660   -4.5600   29.0630 N   0  0  0  0  0  0  0  0  0  0  0  0
    4.9990   -5.5150   30.0530 C   0  0  0  0  0  0  0  0  0  0  0  0
    5.8830   -6.5520   30.1840 C   0  0  0  0  0  0  0  0  0  0  0  0
    5.6610   -7.5350   31.2830 C   0  0  0  0  0  0  0  0  0  0  0  0
    4.4670   -7.4030   32.2520 C   0  0  0  0  0  0  0  0  0  0  0  0
    4.0320   -8.5480   33.7000 Br  0  0  0  0  0  0  0  0  0  0  0  0
    3.6690   -6.1660   31.8480 C   0  0  0  0  0  0  0  0  0  0  0  0
    3.9400   -5.3310   30.8450 N   0  0  0  0  0  0  0  0  0  0  0  0
    4.0830   -4.2290   28.3510 C   0  0  0  0  0  0  0  0  0  0  0  0
    4.4610   -3.0040   27.5960 C   0  0  0  0  0  0  0  0  0  0  0  0
    7.3030   -3.1050   23.7040 C   0  0  0  0  0  0  0  0  0  0  0  0
    7.5940   -3.2700   22.3580 C   0  0  0  0  0  0  0  0  0  0  0  0
  1  2  1  0
  2  3  2  0
  2  4  1  0
  4  5  1  0
  5  6  1  0
  6  7  1  0
  7  8  1  0
  8  9  2  0
  8 10  1  0
 10 11  1  0
 11 12  1  0
 12 13  1  0
 13 14  1  0
 14 15  2  0
 15 16  1  0
 16 17  2  0
 17 18  1  0
 17 19  1  0
 14 20  1  0
 19 20  2  0
 13 21  1  0
 10 22  1  0
 21 22  1  0
  7 23  1  0
  4 24  1  0
 23 24  1  0
M  END
