piperidine-amides-33445-covalent
     RDKit          3D

 28 29  0  0  0  0  0  0  0  0999 V2000
    7.1010   -3.3360   19.2890 C   0  0  0  0  0  0  0  0  0  0  0  0
    6.4240   -4.1590   20.3050 C   0  0  0  0  0  0  0  0  0  0  0  0
    5.3710   -4.7500   19.9610 O   0  0  0  0  0  0  0  0  0  0  0  0
    6.9870   -4.3130   21.5970 N   0  0  0  0  0  0  0  0  0  0  0  0
    6.4860   -5.3430   22.4400 C   0  0  0  0  0  0  0  0  0  0  0  0
    6.0430   -4.8910   23.7670 C   0  0  0  0  0  0  0  0  0  0  0  0
    6.6340   -3.6270   24.2860 C   0  0  0  0  0  0  0  0  0  0  0  0
    5.8550   -3.1060   25.4570 C   0  0  0  0  0  0  0  0  0  0  0  0
    4.8940   -2.3410   25.2450 O   0  0  0  0  0  0  0  0  0  0  0  0
    6.1490   -3.4640   26.7930 N   0  0  0  0  0  0  0  0  0  0  0  0
    6.0290   -2.5570   27.8830 C   0  0  0  0  0  0  0  0  0  0  0  0
    4.9900   -2.6040   28.7720 N   0  0  0  0  0  0  0  0  0  0  0  0
    4.8600   -1.7640   29.8030 C   0  0  0  0  0  0  0  0  0  0  0  0
    3.7000   -1.8210   30.8040 C   0  0  0  0  0  0  0  0  0  0  0  0
    5.9560   -0.8350   29.8120 C   0  0  0  0  0  0  0  0  0  0  0  0
    6.0160    0.2380   30.9070 C   0  0  0  0  0  0  0  0  0  0  0  0
    6.0060   -0.1770   32.2330 O   0  0  0  0  0  0  0  0  0  0  0  0
    6.0720    1.5780   30.6050 O   0  0  0  0  0  0  0  0  0  0  0  0
    7.3070    1.8800   30.3370 C   0  0  0  0  0  0  0  0  0  0  0  0
    7.3430    2.5420   28.9550 C   0  0  0  0  0  0  0  0  0  0  0  0
    7.0290   -1.2280   28.4290 S   0  0  0  0  0  0  0  0  0  0  0  0
    5.9480   -4.7810   27.3080 C   0  0  2  0  0  0  0  0  0  0  0  0
    4.5300   -5.2130   27.4520 C   0  0  0  0  0  0  0  0  0  0  0  0
    6.5130   -4.9170   28.6970 C   0  0  0  0  0  0  0  0  0  0  0  0
    6.5010   -6.3250   29.1790 C   0  0  0  0  0  0  0  0  0  0  0  0
    5.4510   -7.1130   28.7080 C   0  0  0  0  0  0  0  0  0  0  0  0
    6.8880   -2.5850   23.2650 C   0  0  0  0  0  0  0  0  0  0  0  0
    7.6960   -3.2040   22.1680 C   0  0  0  0  0  0  0  0  0  0  0  0
  1  2  1  0
  2  3  2  0
  2  4  1  0
  4  5  1  0
  5  6  1  0
  6  7  1  0
  7  8  1  0
  8  9  2  0
  8 10  1  0
 10 11  1  0
 11 12  2  0
 12 13  1  0
 13 14  1  0
 13 15  2  0
 15 16  1  0
 16 17  2  0
 16 18  1  0
 18 19  1  0
 19 20  1  0
 11 21  1  0
 15 21  1  0
 10 22  1  0
 22 23  1  1
 22 24  1  0
 24 25  1  0
 25 26  1  0
  7 27  1  0
  4 28  1  0
 27 28  1  0
M  END
