piperidine-amides-16990-covalent
     RDKit          3D

 20 20  0  0  0  0  0  0  0  0999 V2000
    7.1130   -3.2940   19.1910 C   0  0  0  0  0  0  0  0  0  0  0  0
    6.3900   -4.0500   20.2250 C   0  0  0  0  0  0  0  0  0  0  0  0
    5.2970   -4.5640   19.8930 O   0  0  0  0  0  0  0  0  0  0  0  0
    6.9480   -4.2320   21.5130 N   0  0  0  0  0  0  0  0  0  0  0  0
    6.4840   -5.3150   22.3020 C   0  0  0  0  0  0  0  0  0  0  0  0
    5.9520   -4.9340   23.6100 C   0  0  0  0  0  0  0  0  0  0  0  0
    6.5150   -3.7110   24.2380 C   0  0  0  0  0  0  0  0  0  0  0  0
    5.6740   -3.2350   25.3840 C   0  0  0  0  0  0  0  0  0  0  0  0
    4.4550   -3.0610   25.1950 O   0  0  0  0  0  0  0  0  0  0  0  0
    6.2080   -2.9890   26.6690 N   0  0  0  0  0  0  0  0  0  0  0  0
    6.1950   -3.8630   27.7890 C   0  0  0  0  0  0  0  0  0  0  0  0
    5.9520   -5.2930   27.6150 C   0  0  0  0  0  0  0  0  0  0  0  0
    6.4910   -6.0230   28.8530 C   0  0  0  0  0  0  0  0  0  0  0  0
    5.8060   -7.0910   29.3930 C   0  0  0  0  0  0  0  0  0  0  0  0
    6.8360   -1.6850   26.9080 C   0  0  0  0  0  0  0  0  0  0  0  0
    5.8090   -0.6090   26.9290 C   0  0  0  0  0  0  0  0  0  0  0  0
    6.1310    0.6370   26.5780 N   0  0  0  0  0  0  0  0  0  0  0  0
    4.5430   -1.0230   27.3560 O   0  0  0  0  0  0  0  0  0  0  0  0
    6.7100   -2.6090   23.2030 C   0  0  0  0  0  0  0  0  0  0  0  0
    7.6630   -3.1840   22.1940 C   0  0  0  0  0  0  0  0  0  0  0  0
  1  2  1  0
  2  3  2  0
  2  4  1  0
  4  5  1  0
  5  6  1  0
  6  7  1  0
  7  8  1  0
  8  9  2  0
  8 10  1  0
 10 11  1  0
 11 12  1  0
 12 13  1  0
 13 14  2  3
 10 15  1  0
 15 16  1  0
 16 17  1  0
 16 18  2  0
  7 19  1  0
  4 20  1  0
 19 20  1  0
M  END
