piperidine-amides-158-covalent
     RDKit          3D

 22 24  0  0  0  0  0  0  0  0999 V2000
    7.1500   -3.3080   19.3620 C   0  0  0  0  0  0  0  0  0  0  0  0
    6.4350   -4.1150   20.3230 C   0  0  0  0  0  0  0  0  0  0  0  0
    5.3840   -4.7250   19.9510 O   0  0  0  0  0  0  0  0  0  0  0  0
    6.9040   -4.2740   21.6450 N   0  0  0  0  0  0  0  0  0  0  0  0
    6.4190   -5.4420   22.3990 C   0  0  0  0  0  0  0  0  0  0  0  0
    5.4480   -4.7000   23.3960 C   0  0  0  0  0  0  0  0  0  0  0  0
    6.3010   -3.6950   24.1510 C   0  0  0  0  0  0  0  0  0  0  0  0
    5.4910   -3.2300   25.4390 C   0  0  0  0  0  0  0  0  0  0  0  0
    4.8250   -2.2400   25.1790 O   0  0  0  0  0  0  0  0  0  0  0  0
    5.7310   -4.0030   26.4240 N   0  0  0  0  0  0  0  0  0  0  0  0
    5.8850   -4.8150   27.5110 C   0  0  0  0  0  0  0  0  0  0  0  0
    5.2200   -5.5360   28.4600 C   0  0  0  0  0  0  0  0  0  0  0  0
    3.8460   -5.7150   28.2820 C   0  0  0  0  0  0  0  0  0  0  0  0
    3.0570   -6.4770   29.2500 C   0  0  0  0  0  0  0  0  0  0  0  0
    3.6120   -7.0720   30.4090 N   0  0  0  0  0  0  0  0  0  0  0  0
    3.2230   -7.8440   31.5360 C   0  0  0  0  0  0  0  0  0  0  0  0
    4.3480   -8.0430   32.2540 N   0  0  0  0  0  0  0  0  0  0  0  0
    5.4070   -7.4290   31.6140 N   0  0  0  0  0  0  0  0  0  0  0  0
    4.9970   -6.8150   30.4640 C   0  0  0  0  0  0  0  0  0  0  0  0
    5.7720   -6.0830   29.5340 C   0  0  0  0  0  0  0  0  0  0  0  0
    6.9680   -2.6700   23.3920 C   0  0  0  0  0  0  0  0  0  0  0  0
    7.7980   -3.4140   22.3120 C   0  0  0  0  0  0  0  0  0  0  0  0
  1  2  1  0
  2  3  2  0
  2  4  1  0
  4  5  1  0
  5  6  1  0
  6  7  1  0
  7  8  1  0
  8  9  2  0
  8 10  1  0
 10 11  1  0
 11 12  1  0
 12 13  1  0
 13 14  2  0
 14 15  1  0
 15 16  1  0
 16 17  2  0
 17 18  1  0
 15 19  1  0
 18 19  2  0
 12 20  2  0
 19 20  1  0
  7 21  1  0
  4 22  1  0
 21 22  1  0
M  END
