piperidine-amides-1247-covalent
     RDKit          3D

 23 25  0  0  0  0  0  0  0  0999 V2000
    7.1070   -3.3060   19.3170 C   0  0  0  0  0  0  0  0  0  0  0  0
    6.3950   -4.1570   20.3080 C   0  0  0  0  0  0  0  0  0  0  0  0
    5.3510   -4.7340   19.9570 O   0  0  0  0  0  0  0  0  0  0  0  0
    6.9470   -4.3320   21.5980 N   0  0  0  0  0  0  0  0  0  0  0  0
    7.6380   -3.2730   22.2780 C   0  0  0  0  0  0  0  0  0  0  0  0
    6.6350   -2.7150   23.2950 C   0  0  0  0  0  0  0  0  0  0  0  0
    6.2850   -3.7670   24.3080 C   0  0  0  0  0  0  0  0  0  0  0  0
    5.4170   -3.1600   25.3590 C   0  0  0  0  0  0  0  0  0  0  0  0
    4.5520   -2.3990   24.9310 O   0  0  0  0  0  0  0  0  0  0  0  0
    5.5590   -3.4250   26.7330 N   0  0  0  0  0  0  0  0  0  0  0  0
    6.0390   -4.6030   27.3460 C   0  0  0  0  0  0  0  0  0  0  0  0
    5.4090   -5.4430   28.2220 C   0  0  0  0  0  0  0  0  0  0  0  0
    6.0150   -6.0310   29.3030 C   0  0  0  0  0  0  0  0  0  0  0  0
    5.3220   -6.8440   30.1060 C   0  0  0  0  0  0  0  0  0  0  0  0
    3.8970   -7.1250   29.8460 C   0  0  0  0  0  0  0  0  0  0  0  0
    3.1270   -8.0550   30.7850 C   0  0  0  0  0  0  0  0  0  0  0  0
    1.6870   -8.3040   30.4610 C   0  0  0  0  0  0  0  0  0  0  0  0
    1.1100   -7.7220   29.3860 C   0  0  0  0  0  0  0  0  0  0  0  0
    1.6710   -6.8030   28.3730 C   0  0  0  0  0  0  0  0  0  0  0  0
    3.1640   -6.4950   28.6400 C   0  0  0  0  0  0  0  0  0  0  0  0
    4.0060   -5.6850   27.9130 N   0  0  0  0  0  0  0  0  0  0  0  0
    5.6910   -4.9380   23.6190 C   0  0  0  0  0  0  0  0  0  0  0  0
    6.5240   -5.4220   22.4120 C   0  0  0  0  0  0  0  0  0  0  0  0
  1  2  1  0
  2  3  2  0
  2  4  1  0
  4  5  1  0
  5  6  1  0
  6  7  1  0
  7  8  1  0
  8  9  2  0
  8 10  1  0
 10 11  1  0
 11 12  1  0
 12 13  2  0
 13 14  1  0
 14 15  2  0
 15 16  1  0
 16 17  2  0
 17 18  1  0
 18 19  2  0
 15 20  1  0
 19 20  1  0
 12 21  1  0
 20 21  2  0
  7 22  1  0
  4 23  1  0
 22 23  1  0
M  END
