piperidine-amides-27868-covalent
     RDKit          3D

 26 28  0  0  0  0  0  0  0  0999 V2000
    7.0550   -3.3470   19.3060 C   0  0  0  0  0  0  0  0  0  0  0  0
    6.2980   -4.1420   20.2950 C   0  0  0  0  0  0  0  0  0  0  0  0
    5.2560   -4.6970   19.9130 O   0  0  0  0  0  0  0  0  0  0  0  0
    6.7920   -4.2720   21.5870 N   0  0  0  0  0  0  0  0  0  0  0  0
    6.5340   -5.4290   22.3780 C   0  0  0  0  0  0  0  0  0  0  0  0
    6.0540   -5.1020   23.7280 C   0  0  0  0  0  0  0  0  0  0  0  0
    5.7370   -3.6590   23.9250 C   0  0  0  0  0  0  0  0  0  0  0  0
    5.3130   -3.3420   25.3210 C   0  0  0  0  0  0  0  0  0  0  0  0
    4.1150   -3.5540   25.5700 O   0  0  0  0  0  0  0  0  0  0  0  0
    6.1120   -2.8230   26.3730 N   0  0  0  0  0  0  0  0  0  0  0  0
    5.3630   -2.1040   27.4190 C   0  0  0  0  0  0  0  0  0  0  0  0
    4.8210   -3.0890   28.3980 C   0  0  0  0  0  0  0  0  0  0  0  0
    5.7780   -3.9990   28.9460 C   0  0  0  0  0  0  0  0  0  0  0  0
    6.7640   -4.3900   28.1510 C   0  0  0  0  0  0  0  0  0  0  0  0
    7.6200   -5.3600   28.5410 C   0  0  0  0  0  0  0  0  0  0  0  0
    8.6210   -5.7770   27.7850 C   0  0  0  0  0  0  0  0  0  0  0  0
    8.8310   -5.2640   26.5980 C   0  0  0  0  0  0  0  0  0  0  0  0
    9.7410   -5.6080   25.7810 C   0  0  0  0  0  0  0  0  0  0  0  0
    8.1160   -4.3030   26.0440 C   0  0  0  0  0  0  0  0  0  0  0  0
    8.3850   -3.7210   24.7130 C   0  0  0  0  0  0  0  0  0  0  0  0
    8.2820   -4.5350   23.6040 O   0  0  0  0  0  0  0  0  0  0  0  0
    8.7230   -2.4990   24.6670 O   0  0  0  0  0  0  0  0  0  0  0  0
    9.2890   -2.2240   23.3910 C   0  0  0  0  0  0  0  0  0  0  0  0
    7.0110   -3.8300   26.8310 C   0  0  0  0  0  0  0  0  0  0  0  0
    6.6320   -2.6570   23.3250 C   0  0  0  0  0  0  0  0  0  0  0  0
    7.4980   -3.1700   22.1920 C   0  0  0  0  0  0  0  0  0  0  0  0
  1  2  1  0
  2  3  2  0
  2  4  1  0
  4  5  1  0
  5  6  1  0
  6  7  1  0
  7  8  1  0
  8  9  2  0
  8 10  1  0
 10 11  1  0
 11 12  1  0
 12 13  1  0
 13 14  1  0
 14 15  2  0
 15 16  1  0
 16 17  2  0
 17 18  1  0
 17 19  1  0
 19 20  1  0
 20 21  2  0
 20 22  1  0
 22 23  1  0
 10 24  1  0
 14 24  1  0
 19 24  2  0
  7 25  1  0
  4 26  1  0
 25 26  1  0
M  END
