piperidine-amides-28652-covalent
     RDKit          3D

 26 28  0  0  0  0  0  0  0  0999 V2000
    7.0470   -3.3980   19.4420 C   0  0  0  0  0  0  0  0  0  0  0  0
    6.3760   -4.2660   20.4080 C   0  0  0  0  0  0  0  0  0  0  0  0
    5.3960   -4.9200   20.0020 O   0  0  0  0  0  0  0  0  0  0  0  0
    6.8620   -4.3880   21.7400 N   0  0  0  0  0  0  0  0  0  0  0  0
    6.5400   -5.5770   22.5000 C   0  0  0  0  0  0  0  0  0  0  0  0
    6.3340   -5.2700   23.9740 C   0  0  0  0  0  0  0  0  0  0  0  0
    6.2200   -3.7680   24.1190 C   0  0  0  0  0  0  0  0  0  0  0  0
    5.7650   -3.2170   25.4570 C   0  0  0  0  0  0  0  0  0  0  0  0
    5.2590   -2.1080   25.3520 O   0  0  0  0  0  0  0  0  0  0  0  0
    5.8370   -3.8620   26.7060 N   0  0  0  0  0  0  0  0  0  0  0  0
    4.7720   -3.5150   27.5840 C   0  0  0  0  0  0  0  0  0  0  0  0
    4.2900   -4.5290   28.4110 C   0  0  0  0  0  0  0  0  0  0  0  0
    4.8430   -4.6700   29.6500 C   0  0  0  0  0  0  0  0  0  0  0  0
    5.9560   -5.4940   29.6180 N   0  0  0  0  0  0  0  0  0  0  0  0
    5.6300   -6.8400   29.9100 C   0  0  0  0  0  0  0  0  0  0  0  0
    5.1910   -7.1400   31.3140 C   0  0  0  0  0  0  0  0  0  0  0  0
    3.8820   -7.4810   31.4910 N   0  0  0  0  0  0  0  0  0  0  0  0
    3.6560   -7.7200   32.8050 O   0  0  0  0  0  0  0  0  0  0  0  0
    4.8700   -7.5200   33.4660 C   0  0  0  0  0  0  0  0  0  0  0  0
    5.2420   -7.6340   34.9050 C   0  0  0  0  0  0  0  0  0  0  0  0
    6.6410   -7.0770   34.9540 C   0  0  0  0  0  0  0  0  0  0  0  0
    5.8080   -7.1530   32.4870 N   0  0  0  0  0  0  0  0  0  0  0  0
    6.7970   -4.9900   28.6080 C   0  0  0  0  0  0  0  0  0  0  0  0
    6.4870   -3.7720   27.9990 C   0  0  0  0  0  0  0  0  0  0  0  0
    7.5410   -3.2020   23.7360 C   0  0  0  0  0  0  0  0  0  0  0  0
    7.6870   -3.3080   22.2520 C   0  0  0  0  0  0  0  0  0  0  0  0
  1  2  1  0
  2  3  2  0
  2  4  1  0
  4  5  1  0
  5  6  1  0
  6  7  1  0
  7  8  1  0
  8  9  2  0
  8 10  1  0
 10 11  1  0
 11 12  1  0
 12 13  1  0
 13 14  1  0
 14 15  1  0
 15 16  1  0
 16 17  2  0
 17 18  1  0
 18 19  1  0
 19 20  1  0
 20 21  1  0
 16 22  1  0
 19 22  2  0
 14 23  1  0
 10 24  1  0
 23 24  1  0
  7 25  1  0
  4 26  1  0
 25 26  1  0
M  END
