piperidine-amides-11259-covalent
     RDKit          3D

 19 20  0  0  0  0  0  0  0  0999 V2000
    7.1220   -3.2820   19.1950 C   0  0  0  0  0  0  0  0  0  0  0  0
    6.3850   -4.0340   20.2100 C   0  0  0  0  0  0  0  0  0  0  0  0
    5.3240   -4.6030   19.9060 O   0  0  0  0  0  0  0  0  0  0  0  0
    6.8940   -4.1610   21.5090 N   0  0  0  0  0  0  0  0  0  0  0  0
    7.7400   -3.1400   22.0710 C   0  0  0  0  0  0  0  0  0  0  0  0
    7.0190   -2.6850   23.2970 C   0  0  0  0  0  0  0  0  0  0  0  0
    6.5850   -3.8390   24.1430 C   0  0  0  0  0  0  0  0  0  0  0  0
    5.8290   -3.3800   25.3240 C   0  0  0  0  0  0  0  0  0  0  0  0
    4.5580   -3.3890   25.3220 O   0  0  0  0  0  0  0  0  0  0  0  0
    6.4600   -2.9100   26.4890 N   0  0  0  0  0  0  0  0  0  0  0  0
    6.1100   -3.5090   27.7840 C   0  0  0  0  0  0  0  0  0  0  0  0
    5.6590   -2.4070   28.6580 C   0  0  0  0  0  0  0  0  0  0  0  0
    5.5490   -0.9850   28.4570 C   0  0  0  0  0  0  0  0  0  0  0  0
    5.0260   -0.4160   29.7360 C   0  0  0  0  0  0  0  0  0  0  0  0
    4.7910    1.0780   29.8560 C   0  0  0  0  0  0  0  0  0  0  0  0
    4.8870   -1.5440   30.5460 O   0  0  0  0  0  0  0  0  0  0  0  0
    5.2590   -2.6970   29.8970 N   0  0  0  0  0  0  0  0  0  0  0  0
    5.7290   -4.7950   23.3760 C   0  0  0  0  0  0  0  0  0  0  0  0
    6.4050   -5.2550   22.2810 C   0  0  0  0  0  0  0  0  0  0  0  0
  1  2  1  0
  2  3  2  0
  2  4  1  0
  4  5  1  0
  5  6  1  0
  6  7  1  0
  7  8  1  0
  8  9  2  0
  8 10  1  0
 10 11  1  0
 11 12  1  0
 12 13  1  0
 13 14  2  0
 14 15  1  0
 14 16  1  0
 12 17  2  0
 16 17  1  0
  7 18  1  0
  4 19  1  0
 18 19  1  0
M  END
