piperidine-amides-61-covalent
     RDKit          3D

 25 27  0  0  0  0  0  0  0  0999 V2000
    7.1080   -3.3620   19.2870 C   0  0  0  0  0  0  0  0  0  0  0  0
    6.3620   -4.0570   20.3020 C   0  0  0  0  0  0  0  0  0  0  0  0
    5.3020   -4.6520   19.9380 O   0  0  0  0  0  0  0  0  0  0  0  0
    6.7980   -4.1580   21.6420 N   0  0  0  0  0  0  0  0  0  0  0  0
    6.6250   -5.4610   22.3110 C   0  0  0  0  0  0  0  0  0  0  0  0
    5.6060   -4.9890   23.4020 C   0  0  0  0  0  0  0  0  0  0  0  0
    6.3980   -4.0140   24.2350 C   0  0  0  0  0  0  0  0  0  0  0  0
    5.6720   -3.8630   25.6580 C   0  0  0  0  0  0  0  0  0  0  0  0
    5.2550   -4.9560   25.9690 O   0  0  0  0  0  0  0  0  0  0  0  0
    5.6480   -2.6810   26.1450 N   0  0  0  0  0  0  0  0  0  0  0  0
    5.4740   -1.4310   26.6970 C   0  0  2  0  0  0  0  0  0  0  0  0
    4.5140   -0.4380   26.7750 C   0  0  0  0  0  0  0  0  0  0  0  0
    4.7720    0.6060   27.6890 C   0  0  0  0  0  0  0  0  0  0  0  0
    3.8840    1.7900   27.9440 C   0  0  0  0  0  0  0  0  0  0  0  0
    2.5760    1.7870   27.0750 C   0  0  0  0  0  0  0  0  0  0  0  0
    2.5230    0.6620   26.2370 C   0  0  0  0  0  0  0  0  0  0  0  0
    3.4130   -0.3820   26.0850 C   0  0  0  0  0  0  0  0  0  0  0  0
    6.6570   -0.6240   26.3350 C   0  0  0  0  0  0  0  0  0  0  0  0
    6.6590   -1.1530   27.7300 C   0  0  1  0  0  0  0  0  0  0  0  0
    5.5590   -1.7610   28.3090 C   0  0  0  0  0  0  0  0  0  0  0  0
    5.2520   -1.2040   29.5190 F   0  0  0  0  0  0  0  0  0  0  0  0
    4.3390   -1.7880   27.6460 F   0  0  0  0  0  0  0  0  0  0  0  0
    5.8670   -3.0820   28.4840 F   0  0  0  0  0  0  0  0  0  0  0  0
    6.8520   -2.7670   23.4950 C   0  0  0  0  0  0  0  0  0  0  0  0
    7.4770   -3.0700   22.3160 C   0  0  0  0  0  0  0  0  0  0  0  0
  1  2  1  0
  2  3  2  0
  2  4  1  0
  4  5  1  0
  5  6  1  0
  6  7  1  0
  7  8  1  0
  8  9  2  0
  8 10  1  0
 11 10  1  6
 11 12  1  0
 12 13  2  0
 13 14  1  0
 14 15  2  0
 15 16  1  0
 12 17  1  0
 16 17  2  0
 11 18  1  0
 11 19  1  0
 18 19  1  0
 19 20  1  1
 20 21  1  0
 20 22  1  0
 20 23  1  0
  7 24  1  0
  4 25  1  0
 24 25  1  0
M  END
