piperidine-amides-33210-covalent
     RDKit          3D

 25 27  0  0  0  0  0  0  0  0999 V2000
    7.0970   -3.3520   19.3590 C   0  0  0  0  0  0  0  0  0  0  0  0
    6.4380   -4.2070   20.3550 C   0  0  0  0  0  0  0  0  0  0  0  0
    5.3970   -4.8070   19.9810 O   0  0  0  0  0  0  0  0  0  0  0  0
    6.9960   -4.3840   21.6480 N   0  0  0  0  0  0  0  0  0  0  0  0
    6.5300   -5.4550   22.4480 C   0  0  0  0  0  0  0  0  0  0  0  0
    5.9570   -5.0630   23.7420 C   0  0  0  0  0  0  0  0  0  0  0  0
    6.3700   -3.7590   24.3430 C   0  0  0  0  0  0  0  0  0  0  0  0
    5.2750   -3.2290   25.2310 C   0  0  0  0  0  0  0  0  0  0  0  0
    4.2370   -2.8220   24.6950 O   0  0  0  0  0  0  0  0  0  0  0  0
    5.3450   -3.1680   26.6430 N   0  0  0  0  0  0  0  0  0  0  0  0
    6.4550   -3.3220   27.4330 C   0  0  0  0  0  0  0  0  0  0  0  0
    6.5780   -4.5150   28.2930 C   0  0  0  0  0  0  0  0  0  0  0  0
    5.3050   -4.5070   29.1350 C   0  0  0  0  0  0  0  0  0  0  0  0
    5.1650   -5.4870   30.0750 C   0  0  0  0  0  0  0  0  0  0  0  0
    6.1710   -6.6210   30.0000 C   0  0  0  0  0  0  0  0  0  0  0  0
    5.9450   -7.6490   31.1230 C   0  0  0  0  0  0  0  0  0  0  0  0
    4.7530   -7.3510   32.1020 C   0  0  0  0  0  0  0  0  0  0  0  0
    4.4540   -8.5940   33.5180 Br  0  0  0  0  0  0  0  0  0  0  0  0
    3.8270   -6.1750   32.0330 C   0  0  0  0  0  0  0  0  0  0  0  0
    2.7120   -6.0140   33.0500 C   0  0  0  0  0  0  0  0  0  0  0  0
    4.0070   -5.1730   30.9830 C   0  0  0  0  0  0  0  0  0  0  0  0
    4.3080   -4.5540   28.2160 C   0  0  0  0  0  0  0  0  0  0  0  0
    4.2650   -3.3400   27.5520 C   0  0  0  0  0  0  0  0  0  0  0  0
    6.8730   -2.7260   23.3900 C   0  0  0  0  0  0  0  0  0  0  0  0
    7.6960   -3.2970   22.2710 C   0  0  0  0  0  0  0  0  0  0  0  0
  1  2  1  0
  2  3  2  0
  2  4  1  0
  4  5  1  0
  5  6  1  0
  6  7  1  0
  7  8  1  0
  8  9  2  0
  8 10  1  0
 10 11  1  0
 11 12  1  0
 12 13  1  0
 13 14  1  0
 14 15  2  0
 15 16  1  0
 16 17  2  0
 17 18  1  0
 17 19  1  0
 19 20  1  0
 14 21  1  0
 19 21  2  0
 13 22  1  0
 10 23  1  0
 22 23  1  0
  7 24  1  0
  4 25  1  0
 24 25  1  0
M  END
