piperidine-amides-27348-covalent
     RDKit          3D

 25 26  0  0  0  0  0  0  0  0999 V2000
    6.9470   -3.3830   19.4270 C   0  0  0  0  0  0  0  0  0  0  0  0
    6.3270   -4.2680   20.4280 C   0  0  0  0  0  0  0  0  0  0  0  0
    5.3870   -4.9840   19.9980 O   0  0  0  0  0  0  0  0  0  0  0  0
    6.7820   -4.3270   21.7640 N   0  0  0  0  0  0  0  0  0  0  0  0
    6.6910   -5.5500   22.5400 C   0  0  0  0  0  0  0  0  0  0  0  0
    6.1220   -5.2150   23.8960 C   0  0  0  0  0  0  0  0  0  0  0  0
    6.0230   -3.7270   24.0560 C   0  0  0  0  0  0  0  0  0  0  0  0
    5.3460   -3.2620   25.3210 C   0  0  0  0  0  0  0  0  0  0  0  0
    4.6430   -2.2400   25.2050 O   0  0  0  0  0  0  0  0  0  0  0  0
    5.3990   -3.8180   26.6340 N   0  0  0  0  0  0  0  0  0  0  0  0
    6.4660   -3.4480   27.4400 C   0  0  0  0  0  0  0  0  0  0  0  0
    6.6640   -4.6280   28.3780 C   0  0  0  0  0  0  0  0  0  0  0  0
    5.6560   -5.0220   29.1610 C   0  0  2  0  0  0  0  0  0  0  0  0
    5.8270   -6.1990   29.8820 C   0  0  0  0  0  0  0  0  0  0  0  0
    5.8470   -7.2320   29.0840 O   0  0  0  0  0  0  0  0  0  0  0  0
    5.9560   -6.3710   31.2560 O   0  0  0  0  0  0  0  0  0  0  0  0
    5.5260   -7.5350   31.9070 C   0  0  0  0  0  0  0  0  0  0  0  0
    4.4830   -4.9160   28.4410 C   0  0  0  0  0  0  0  0  0  0  0  0
    4.2560   -3.9100   27.4840 C   0  0  2  0  0  0  0  0  0  0  0  0
    2.9860   -4.1100   26.6760 C   0  0  0  0  0  0  0  0  0  0  0  0
    1.8810   -3.3040   26.8730 O   0  0  0  0  0  0  0  0  0  0  0  0
    2.8870   -5.1150   25.7180 O   0  0  0  0  0  0  0  0  0  0  0  0
    2.7040   -4.8460   24.3420 C   0  0  0  0  0  0  0  0  0  0  0  0
    7.3970   -3.0890   23.7930 C   0  0  0  0  0  0  0  0  0  0  0  0
    7.6080   -3.2270   22.2850 C   0  0  0  0  0  0  0  0  0  0  0  0
  1  2  1  0
  2  3  2  0
  2  4  1  0
  4  5  1  0
  5  6  1  0
  6  7  1  0
  7  8  1  0
  8  9  2  0
  8 10  1  0
 10 11  1  0
 11 12  1  0
 12 13  1  0
 13 14  1  6
 14 15  2  0
 14 16  1  0
 16 17  1  0
 13 18  1  0
 10 19  1  0
 18 19  1  0
 19 20  1  6
 20 21  2  0
 20 22  1  0
 22 23  1  0
  7 24  1  0
  4 25  1  0
 24 25  1  0
M  END
