piperidine-amides-4455-covalent
     RDKit          3D

 25 26  0  0  0  0  0  0  0  0999 V2000
    7.0970   -3.2790   19.2640 C   0  0  0  0  0  0  0  0  0  0  0  0
    6.3640   -4.0470   20.2850 C   0  0  0  0  0  0  0  0  0  0  0  0
    5.3080   -4.6080   19.9130 O   0  0  0  0  0  0  0  0  0  0  0  0
    6.8620   -4.1810   21.6110 N   0  0  0  0  0  0  0  0  0  0  0  0
    6.5430   -5.3580   22.3420 C   0  0  0  0  0  0  0  0  0  0  0  0
    6.0470   -5.0530   23.6710 C   0  0  0  0  0  0  0  0  0  0  0  0
    6.1340   -3.6110   23.9660 C   0  0  0  0  0  0  0  0  0  0  0  0
    5.6450   -3.2590   25.3450 C   0  0  0  0  0  0  0  0  0  0  0  0
    4.4600   -2.9040   25.4820 O   0  0  0  0  0  0  0  0  0  0  0  0
    6.4770   -3.3010   26.4820 N   0  0  0  0  0  0  0  0  0  0  0  0
    6.2220   -3.8390   27.7750 C   0  0  0  0  0  0  0  0  0  0  0  0
    5.6560   -5.1680   28.0370 C   0  0  0  0  0  0  0  0  0  0  0  0
    5.7390   -5.9930   26.7510 C   0  0  0  0  0  0  0  0  0  0  0  0
    6.2390   -6.0140   29.0820 C   0  0  0  0  0  0  0  0  0  0  0  0
    4.4000   -5.0870   28.2860 O   0  0  0  0  0  0  0  0  0  0  0  0
    3.6010   -6.1610   27.9000 C   0  0  0  0  0  0  0  0  0  0  0  0
    3.5070   -6.4080   26.4100 C   0  0  0  0  0  0  0  0  0  0  0  0
    2.5720   -7.6280   26.1250 C   0  0  0  0  0  0  0  0  0  0  0  0
    2.3650   -8.0030   24.8300 F   0  0  0  0  0  0  0  0  0  0  0  0
    1.8470   -8.4630   27.1680 C   0  0  0  0  0  0  0  0  0  0  0  0
    2.0160   -8.1230   28.6210 C   0  0  0  0  0  0  0  0  0  0  0  0
    1.4070   -8.8060   29.6390 F   0  0  0  0  0  0  0  0  0  0  0  0
    2.9080   -6.9580   28.9610 C   0  0  0  0  0  0  0  0  0  0  0  0
    7.5110   -3.1300   23.6430 C   0  0  0  0  0  0  0  0  0  0  0  0
    7.6420   -3.1180   22.2420 C   0  0  0  0  0  0  0  0  0  0  0  0
  1  2  1  0
  2  3  2  0
  2  4  1  0
  4  5  1  0
  5  6  1  0
  6  7  1  0
  7  8  1  0
  8  9  2  0
  8 10  1  0
 10 11  1  0
 11 12  1  0
 12 13  1  0
 12 14  1  0
 12 15  1  0
 15 16  1  0
 16 17  2  0
 17 18  1  0
 18 19  1  0
 18 20  2  0
 20 21  1  0
 21 22  1  0
 16 23  1  0
 21 23  2  0
  7 24  1  0
  4 25  1  0
 24 25  1  0
M  END
