piperidine-amides-8638-covalent
     RDKit          3D

 23 25  0  0  0  0  0  0  0  0999 V2000
    7.0320   -3.3390   19.3530 C   0  0  0  0  0  0  0  0  0  0  0  0
    6.3850   -4.1940   20.3500 C   0  0  0  0  0  0  0  0  0  0  0  0
    5.4010   -4.8650   19.9850 O   0  0  0  0  0  0  0  0  0  0  0  0
    6.8880   -4.2780   21.6750 N   0  0  0  0  0  0  0  0  0  0  0  0
    7.6900   -3.1880   22.1800 C   0  0  0  0  0  0  0  0  0  0  0  0
    7.5500   -3.0710   23.6700 C   0  0  0  0  0  0  0  0  0  0  0  0
    6.1690   -3.5780   24.0010 C   0  0  0  0  0  0  0  0  0  0  0  0
    5.7390   -3.2050   25.3930 C   0  0  0  0  0  0  0  0  0  0  0  0
    4.6010   -3.5500   25.7030 O   0  0  0  0  0  0  0  0  0  0  0  0
    6.6180   -2.4970   26.2170 N   0  0  0  0  0  0  0  0  0  0  0  0
    6.1550   -1.5040   27.1450 C   0  0  0  0  0  0  0  0  0  0  0  0
    7.0360   -1.4570   28.2700 C   0  0  0  0  0  0  0  0  0  0  0  0
    6.7060   -0.4810   29.1200 C   0  0  0  0  0  0  0  0  0  0  0  0
    6.0030    0.3620   28.3620 C   0  0  0  0  0  0  0  0  0  0  0  0
    4.9800   -0.3610   27.5420 C   0  0  0  0  0  0  0  0  0  0  0  0
    4.0160    0.4040   26.5370 C   0  0  0  0  0  0  0  0  0  0  0  0
    4.1010    1.9240   26.3720 C   0  0  0  0  0  0  0  0  0  0  0  0
    5.1490    2.5970   27.2390 C   0  0  0  0  0  0  0  0  0  0  0  0
    5.9370    1.6350   28.1140 C   0  0  0  0  0  0  0  0  0  0  0  0
    5.1390    0.7430   27.4280 C   0  0  0  0  0  0  0  0  0  0  0  0
    5.8560   -0.2130   26.6150 C   0  0  0  0  0  0  0  0  0  0  0  0
    6.0680   -5.0560   23.8150 C   0  0  0  0  0  0  0  0  0  0  0  0
    6.6450   -5.4470   22.4830 C   0  0  0  0  0  0  0  0  0  0  0  0
  1  2  1  0
  2  3  2  0
  2  4  1  0
  4  5  1  0
  5  6  1  0
  6  7  1  0
  7  8  1  0
  8  9  2  0
  8 10  1  0
 10 11  1  0
 11 12  1  0
 12 13  1  0
 13 14  1  0
 14 15  1  0
 15 16  2  0
 16 17  1  0
 17 18  2  0
 14 19  2  0
 18 19  1  0
 19 20  1  0
 11 21  1  0
 20 21  1  0
  7 22  1  0
  4 23  1  0
 22 23  1  0
M  END
