piperidine-amides-10846-covalent
     RDKit          3D

 22 23  0  0  0  0  0  0  0  0999 V2000
    7.1100   -3.2780   19.2460 C   0  0  0  0  0  0  0  0  0  0  0  0
    6.3700   -4.0220   20.2680 C   0  0  0  0  0  0  0  0  0  0  0  0
    5.3480   -4.6490   19.9290 O   0  0  0  0  0  0  0  0  0  0  0  0
    6.8140   -4.0790   21.6030 N   0  0  0  0  0  0  0  0  0  0  0  0
    7.7590   -3.1090   22.1270 C   0  0  0  0  0  0  0  0  0  0  0  0
    7.4860   -3.0190   23.6000 C   0  0  0  0  0  0  0  0  0  0  0  0
    6.1170   -3.5390   23.9050 C   0  0  0  0  0  0  0  0  0  0  0  0
    5.6350   -3.2130   25.2670 C   0  0  0  0  0  0  0  0  0  0  0  0
    4.4020   -2.9970   25.4650 O   0  0  0  0  0  0  0  0  0  0  0  0
    6.4850   -3.1140   26.3920 N   0  0  0  0  0  0  0  0  0  0  0  0
    6.1470   -3.7640   27.6790 C   0  0  0  0  0  0  0  0  0  0  0  0
    5.7680   -5.1750   27.4190 C   0  0  0  0  0  0  0  0  0  0  0  0
    4.6250   -5.4470   28.0830 N   0  0  0  0  0  0  0  0  0  0  0  0
    3.6500   -6.4110   27.7330 C   0  0  0  0  0  0  0  0  0  0  0  0
    2.6410   -6.4490   28.8600 C   0  0  0  0  0  0  0  0  0  0  0  0
    3.2430   -7.1990   29.8530 O   0  0  0  0  0  0  0  0  0  0  0  0
    4.5670   -6.8400   29.9810 C   0  0  0  0  0  0  0  0  0  0  0  0
    4.8390   -7.0800   31.4230 C   0  0  0  0  0  0  0  0  0  0  0  0
    5.6060   -7.7450   29.3400 C   0  0  0  0  0  0  0  0  0  0  0  0
    4.9010   -5.6110   29.4830 C   0  0  0  0  0  0  0  0  0  0  0  0
    5.9950   -5.0510   23.6650 C   0  0  0  0  0  0  0  0  0  0  0  0
    6.6440   -5.3390   22.2990 C   0  0  0  0  0  0  0  0  0  0  0  0
  1  2  1  0
  2  3  2  0
  2  4  1  0
  4  5  1  0
  5  6  1  0
  6  7  1  0
  7  8  1  0
  8  9  2  0
  8 10  1  0
 10 11  1  0
 11 12  1  0
 12 13  1  0
 13 14  1  0
 14 15  1  0
 15 16  1  0
 16 17  1  0
 17 18  1  0
 17 19  1  0
 13 20  1  0
 17 20  1  0
  7 21  1  0
  4 22  1  0
 21 22  1  0
M  END
