piperidine-amides-6997-covalent
     RDKit          3D

 22 24  0  0  0  0  0  0  0  0999 V2000
    7.1020   -3.2600   19.2180 C   0  0  0  0  0  0  0  0  0  0  0  0
    6.3660   -4.0500   20.2170 C   0  0  0  0  0  0  0  0  0  0  0  0
    5.3100   -4.6410   19.9140 O   0  0  0  0  0  0  0  0  0  0  0  0
    6.8690   -4.1910   21.5110 N   0  0  0  0  0  0  0  0  0  0  0  0
    6.5000   -5.3480   22.2840 C   0  0  0  0  0  0  0  0  0  0  0  0
    5.6200   -4.8240   23.4190 C   0  0  0  0  0  0  0  0  0  0  0  0
    6.5060   -3.8770   24.2090 C   0  0  0  0  0  0  0  0  0  0  0  0
    5.7210   -3.3230   25.3330 C   0  0  0  0  0  0  0  0  0  0  0  0
    4.5050   -3.1130   25.1520 O   0  0  0  0  0  0  0  0  0  0  0  0
    6.3450   -3.0280   26.5760 N   0  0  0  0  0  0  0  0  0  0  0  0
    6.2290   -3.9380   27.6910 C   0  0  0  0  0  0  0  0  0  0  0  0
    4.8590   -3.7950   28.3260 C   0  0  0  0  0  0  0  0  0  0  0  0
    4.1880   -2.6720   28.8130 C   0  0  0  0  0  0  0  0  0  0  0  0
    2.9180   -2.7360   29.3790 C   0  0  0  0  0  0  0  0  0  0  0  0
    2.2530   -3.9530   29.4820 C   0  0  0  0  0  0  0  0  0  0  0  0
    1.0240   -4.0300   30.0230 N   0  0  0  0  0  0  0  0  0  0  0  0
    0.7350   -5.4220   29.9280 C   0  0  0  0  0  0  0  0  0  0  0  0
    1.8970   -6.1450   29.2870 C   0  0  0  0  0  0  0  0  0  0  0  0
    2.7970   -5.1770   29.0370 N   0  0  0  0  0  0  0  0  0  0  0  0
    4.0980   -5.1730   28.4500 C   0  0  0  0  0  0  0  0  0  0  0  0
    7.0510   -2.7570   23.4230 C   0  0  0  0  0  0  0  0  0  0  0  0
    7.6020   -3.1330   22.1280 C   0  0  0  0  0  0  0  0  0  0  0  0
  1  2  1  0
  2  3  2  0
  2  4  1  0
  4  5  1  0
  5  6  1  0
  6  7  1  0
  7  8  1  0
  8  9  2  0
  8 10  1  0
 10 11  1  0
 11 12  1  0
 12 13  1  0
 13 14  2  0
 14 15  1  0
 15 16  2  0
 16 17  1  0
 17 18  2  0
 15 19  1  0
 18 19  1  0
 12 20  2  0
 19 20  1  0
  7 21  1  0
  4 22  1  0
 21 22  1  0
M  END
