piperidine-amides-9136-covalent
     RDKit          3D

 21 22  0  0  0  0  0  0  0  0999 V2000
    7.0840   -3.3020   19.2620 C   0  0  0  0  0  0  0  0  0  0  0  0
    6.3440   -4.1000   20.2460 C   0  0  0  0  0  0  0  0  0  0  0  0
    5.2760   -4.6260   19.9060 O   0  0  0  0  0  0  0  0  0  0  0  0
    6.8410   -4.3350   21.5400 N   0  0  0  0  0  0  0  0  0  0  0  0
    6.5110   -5.5250   22.2930 C   0  0  0  0  0  0  0  0  0  0  0  0
    5.6390   -5.0880   23.4570 C   0  0  0  0  0  0  0  0  0  0  0  0
    6.1730   -3.8760   24.1750 C   0  0  0  0  0  0  0  0  0  0  0  0
    5.2660   -3.3590   25.2420 C   0  0  0  0  0  0  0  0  0  0  0  0
    4.0180   -3.3340   25.0440 O   0  0  0  0  0  0  0  0  0  0  0  0
    5.6930   -2.8660   26.5040 N   0  0  0  0  0  0  0  0  0  0  0  0
    6.4370   -3.7280   27.4400 C   0  0  1  0  0  0  0  0  0  0  0  0
    5.7070   -4.9900   27.6990 C   0  0  0  0  0  0  0  0  0  0  0  0
    7.6700   -4.1740   26.7410 C   0  0  0  0  0  0  0  0  0  0  0  0
    8.0410   -5.4680   27.3890 C   0  0  0  0  0  0  0  0  0  0  0  0
    9.2690   -6.0990   26.8240 C   0  0  0  0  0  0  0  0  0  0  0  0
    9.9080   -5.3740   25.7540 C   0  0  0  0  0  0  0  0  0  0  0  0
    9.4300   -4.2120   25.2750 C   0  0  0  0  0  0  0  0  0  0  0  0
    8.3310   -3.5620   25.7260 C   0  0  0  0  0  0  0  0  0  0  0  0
    7.8180   -2.0280   25.0410 Cl  0  0  0  0  0  0  0  0  0  0  0  0
    6.4450   -2.7310   23.1880 C   0  0  0  0  0  0  0  0  0  0  0  0
    7.4990   -3.2490   22.2190 C   0  0  0  0  0  0  0  0  0  0  0  0
  1  2  1  0
  2  3  2  0
  2  4  1  0
  4  5  1  0
  5  6  1  0
  6  7  1  0
  7  8  1  0
  8  9  2  0
  8 10  1  0
 10 11  1  0
 11 12  1  6
 11 13  1  0
 13 14  2  0
 14 15  1  0
 15 16  2  0
 16 17  1  0
 13 18  1  0
 17 18  2  0
 18 19  1  0
  7 20  1  0
  4 21  1  0
 20 21  1  0
M  END
