piperidine-amides-35117-covalent
     RDKit          3D

 32 35  0  0  0  0  0  0  0  0999 V2000
    7.1190   -3.3280   19.2320 C   0  0  0  0  0  0  0  0  0  0  0  0
    6.4280   -4.1580   20.2480 C   0  0  0  0  0  0  0  0  0  0  0  0
    5.3510   -4.6570   19.9280 O   0  0  0  0  0  0  0  0  0  0  0  0
    7.0340   -4.3990   21.4770 N   0  0  0  0  0  0  0  0  0  0  0  0
    6.6220   -5.5170   22.2650 C   0  0  0  0  0  0  0  0  0  0  0  0
    5.7700   -4.9800   23.3730 C   0  0  0  0  0  0  0  0  0  0  0  0
    6.5260   -3.8880   24.1490 C   0  0  0  0  0  0  0  0  0  0  0  0
    5.5750   -3.3320   25.1110 C   0  0  0  0  0  0  0  0  0  0  0  0
    4.6910   -2.5680   24.7140 O   0  0  0  0  0  0  0  0  0  0  0  0
    5.6310   -3.6680   26.4590 N   0  0  0  0  0  0  0  0  0  0  0  0
    5.8760   -5.0330   26.6900 C   0  0  0  0  0  0  0  0  0  0  0  0
    6.3020   -5.6650   27.7660 C   0  0  0  0  0  0  0  0  0  0  0  0
    6.6440   -5.1050   29.0010 C   0  0  0  0  0  0  0  0  0  0  0  0
    6.7570   -6.2270   28.9630 N   0  0  0  0  0  0  0  0  0  0  0  0
    6.3090   -5.0500   28.0110 N   0  0  0  0  0  0  0  0  0  0  0  0
    6.4230   -3.9120   28.7490 C   0  0  1  0  0  0  0  0  0  0  0  0
    6.4600   -2.5550   28.4650 C   0  0  0  0  0  0  0  0  0  0  0  0
    7.5510   -2.0280   29.1470 F   0  0  0  0  0  0  0  0  0  0  0  0
    5.3470   -1.9350   29.0110 F   0  0  0  0  0  0  0  0  0  0  0  0
    6.5650   -2.2840   27.1300 F   0  0  0  0  0  0  0  0  0  0  0  0
    5.1570   -3.1990   28.6630 C   0  0  0  0  0  0  0  0  0  0  0  0
    4.5950   -3.1790   27.2650 C   0  0  1  0  0  0  0  0  0  0  0  0
    3.9810   -1.7820   27.1630 C   0  0  0  0  0  0  0  0  0  0  0  0
    4.7560   -0.5900   27.4940 C   0  0  0  0  0  0  0  0  0  0  0  0
    3.9180    0.5290   27.2970 N   0  0  0  0  0  0  0  0  0  0  0  0
    4.5090    1.8480   27.5790 C   0  0  0  0  0  0  0  0  0  0  0  0
    6.0270    1.8250   27.6750 C   0  0  0  0  0  0  0  0  0  0  0  0
    2.7000    0.1070   26.8710 N   0  0  0  0  0  0  0  0  0  0  0  0
    2.6480   -1.2600   26.7570 C   0  0  0  0  0  0  0  0  0  0  0  0
    1.5280   -2.1740   26.3190 C   0  0  0  0  0  0  0  0  0  0  0  0
    6.9780   -2.7760   23.2440 C   0  0  0  0  0  0  0  0  0  0  0  0
    7.7430   -3.3120   22.0840 C   0  0  0  0  0  0  0  0  0  0  0  0
  1  2  1  0
  2  3  2  0
  2  4  1  0
  4  5  1  0
  5  6  1  0
  6  7  1  0
  7  8  1  0
  8  9  2  0
  8 10  1  0
 10 11  1  0
 11 12  2  0
 12 13  1  0
 13 14  2  0
 11 15  1  0
 14 15  1  0
 15 16  1  0
 16 17  1  6
 17 18  1  0
 17 19  1  0
 17 20  1  0
 16 21  1  0
 10 22  1  0
 21 22  1  0
 22 23  1  6
 23 24  2  0
 24 25  1  0
 25 26  1  0
 26 27  1  0
 25 28  1  0
 23 29  1  0
 28 29  2  0
 29 30  1  0
  7 31  1  0
  4 32  1  0
 31 32  1  0
M  END
