piperidine-amides-8719-covalent
     RDKit          3D

 23 24  0  0  0  0  0  0  0  0999 V2000
    7.0410   -3.3400   19.3290 C   0  0  0  0  0  0  0  0  0  0  0  0
    6.3830   -4.1820   20.3270 C   0  0  0  0  0  0  0  0  0  0  0  0
    5.3760   -4.8230   19.9760 O   0  0  0  0  0  0  0  0  0  0  0  0
    6.9220   -4.2850   21.6360 N   0  0  0  0  0  0  0  0  0  0  0  0
    7.6570   -3.1740   22.1710 C   0  0  0  0  0  0  0  0  0  0  0  0
    7.4860   -3.1240   23.6580 C   0  0  0  0  0  0  0  0  0  0  0  0
    6.0810   -3.6130   23.9370 C   0  0  0  0  0  0  0  0  0  0  0  0
    5.6450   -3.2380   25.3200 C   0  0  0  0  0  0  0  0  0  0  0  0
    4.4420   -3.3280   25.5550 O   0  0  0  0  0  0  0  0  0  0  0  0
    6.6100   -2.8180   26.2220 N   0  0  0  0  0  0  0  0  0  0  0  0
    6.4870   -1.5940   26.9370 C   0  0  0  0  0  0  0  0  0  0  0  0
    5.9310   -0.3540   26.5250 C   0  0  0  0  0  0  0  0  0  0  0  0
    5.8490    0.7880   27.2790 C   0  0  0  0  0  0  0  0  0  0  0  0
    6.3290    0.8060   28.5550 C   0  0  0  0  0  0  0  0  0  0  0  0
    6.1290    2.1550   29.1780 C   0  0  0  0  0  0  0  0  0  0  0  0
    7.2850    3.0930   28.7610 C   0  0  0  0  0  0  0  0  0  0  0  0
    5.8540    2.0920   30.5270 C   0  0  0  0  0  0  0  0  0  0  0  0
    4.9880    2.8560   28.5570 C   0  0  0  0  0  0  0  0  0  0  0  0
    6.9010   -0.3100   29.1080 C   0  0  0  0  0  0  0  0  0  0  0  0
    7.5000   -0.2330   30.7600 Cl  0  0  0  0  0  0  0  0  0  0  0  0
    6.9950   -1.4680   28.3740 C   0  0  0  0  0  0  0  0  0  0  0  0
    6.1050   -5.1040   23.7910 C   0  0  0  0  0  0  0  0  0  0  0  0
    6.5660   -5.4590   22.4050 C   0  0  0  0  0  0  0  0  0  0  0  0
  1  2  1  0
  2  3  2  0
  2  4  1  0
  4  5  1  0
  5  6  1  0
  6  7  1  0
  7  8  1  0
  8  9  2  0
  8 10  1  0
 10 11  1  0
 11 12  2  0
 12 13  1  0
 13 14  2  0
 14 15  1  0
 15 16  1  0
 15 17  1  0
 15 18  1  0
 14 19  1  0
 19 20  1  0
 11 21  1  0
 19 21  2  0
  7 22  1  0
  4 23  1  0
 22 23  1  0
M  END
