piperidine-amides-18858-covalent
     RDKit          3D

 21 22  0  0  0  0  0  0  0  0999 V2000
    7.0810   -3.3460   19.4600 C   0  0  0  0  0  0  0  0  0  0  0  0
    6.4380   -4.2240   20.4090 C   0  0  0  0  0  0  0  0  0  0  0  0
    5.4520   -4.9240   20.0030 O   0  0  0  0  0  0  0  0  0  0  0  0
    6.8930   -4.3460   21.7430 N   0  0  0  0  0  0  0  0  0  0  0  0
    6.5590   -5.5700   22.4730 C   0  0  0  0  0  0  0  0  0  0  0  0
    5.5330   -4.9190   23.4660 C   0  0  0  0  0  0  0  0  0  0  0  0
    6.2690   -3.8800   24.3070 C   0  0  0  0  0  0  0  0  0  0  0  0
    5.1490   -3.2590   25.2690 C   0  0  0  0  0  0  0  0  0  0  0  0
    4.2110   -2.9140   24.5800 O   0  0  0  0  0  0  0  0  0  0  0  0
    5.4330   -3.2350   26.5280 N   0  0  0  0  0  0  0  0  0  0  0  0
    5.4450   -2.8900   27.8170 C   0  0  0  0  0  0  0  0  0  0  0  0
    5.4820   -3.7210   28.8640 C   0  0  0  0  0  0  0  0  0  0  0  0
    5.4370   -4.9990   28.2760 C   0  0  2  0  0  0  0  0  0  0  0  0
    6.1290   -6.0850   29.0110 C   0  0  0  0  0  0  0  0  0  0  0  0
    5.3030   -7.1580   28.2590 C   0  0  0  0  0  0  0  0  0  0  0  0
    3.8920   -7.2520   28.3480 O   0  0  0  0  0  0  0  0  0  0  0  0
    4.9560   -6.7520   29.7690 C   0  0  0  0  0  0  0  0  0  0  0  0
    3.7710   -5.9980   29.6190 O   0  0  0  0  0  0  0  0  0  0  0  0
    6.1190   -4.3600   27.0940 C   0  0  0  0  0  0  0  0  0  0  0  0
    7.2320   -2.9640   23.7060 C   0  0  0  0  0  0  0  0  0  0  0  0
    7.8420   -3.5270   22.3720 C   0  0  0  0  0  0  0  0  0  0  0  0
  1  2  1  0
  2  3  2  0
  2  4  1  0
  4  5  1  0
  5  6  1  0
  6  7  1  0
  7  8  1  0
  8  9  2  0
  8 10  1  0
 10 11  1  0
 11 12  1  0
 12 13  1  0
 13 14  1  1
 14 15  1  0
 15 16  1  0
 14 17  1  0
 17 18  1  0
 10 19  1  0
 13 19  1  0
  7 20  1  0
  4 21  1  0
 20 21  1  0
M  END
