piperidine-amides-25469-covalent
     RDKit          3D

 25 27  0  0  0  0  0  0  0  0999 V2000
    7.0360   -3.3630   19.3540 C   0  0  0  0  0  0  0  0  0  0  0  0
    6.3950   -4.2610   20.3540 C   0  0  0  0  0  0  0  0  0  0  0  0
    5.3850   -4.8530   19.9830 O   0  0  0  0  0  0  0  0  0  0  0  0
    6.9560   -4.4470   21.6290 N   0  0  0  0  0  0  0  0  0  0  0  0
    6.5520   -5.5370   22.4690 C   0  0  0  0  0  0  0  0  0  0  0  0
    5.6210   -5.0030   23.5290 C   0  0  0  0  0  0  0  0  0  0  0  0
    6.2600   -3.8490   24.3180 C   0  0  0  0  0  0  0  0  0  0  0  0
    5.2380   -3.2880   25.2550 C   0  0  0  0  0  0  0  0  0  0  0  0
    4.4550   -2.4370   24.8390 O   0  0  0  0  0  0  0  0  0  0  0  0
    5.1310   -3.7030   26.6050 N   0  0  0  0  0  0  0  0  0  0  0  0
    6.3230   -4.0150   27.2050 C   0  0  0  0  0  0  0  0  0  0  0  0
    6.1350   -3.8110   28.6450 C   0  0  0  0  0  0  0  0  0  0  0  0
    4.8500   -3.6400   29.0310 C   0  0  2  0  0  0  0  0  0  0  0  0
    4.5400   -2.7600   30.0080 C   0  0  0  0  0  0  0  0  0  0  0  0
    5.2640   -1.5710   30.3650 N   0  0  0  0  0  0  0  0  0  0  0  0
    3.4180   -2.9240   30.7960 O   0  0  0  0  0  0  0  0  0  0  0  0
    4.2990   -5.0290   29.3560 C   0  0  0  0  0  0  0  0  0  0  0  0
    4.3390   -5.9400   28.1390 C   0  0  0  0  0  0  0  0  0  0  0  0
    3.8210   -7.3310   28.3380 C   0  0  0  0  0  0  0  0  0  0  0  0
    3.2980   -7.7700   29.6800 C   0  0  0  0  0  0  0  0  0  0  0  0
    3.3300   -6.7630   30.7650 C   0  0  0  0  0  0  0  0  0  0  0  0
    3.8040   -5.3590   30.7340 C   0  0  0  0  0  0  0  0  0  0  0  0
    4.5380   -2.9390   27.7160 C   0  0  0  0  0  0  0  0  0  0  0  0
    6.7660   -2.7680   23.3720 C   0  0  0  0  0  0  0  0  0  0  0  0
    7.6510   -3.3880   22.3190 C   0  0  0  0  0  0  0  0  0  0  0  0
  1  2  1  0
  2  3  2  0
  2  4  1  0
  4  5  1  0
  5  6  1  0
  6  7  1  0
  7  8  1  0
  8  9  2  0
  8 10  1  0
 10 11  1  0
 11 12  1  0
 12 13  1  0
 13 14  1  1
 14 15  1  0
 14 16  2  0
 13 17  1  0
 17 18  2  0
 18 19  1  0
 19 20  2  0
 20 21  1  0
 17 22  1  0
 21 22  2  0
 10 23  1  0
 13 23  1  0
  7 24  1  0
  4 25  1  0
 24 25  1  0
M  END
