piperidine-amides-2076-covalent
     RDKit          3D

 25 26  0  0  0  0  0  0  0  0999 V2000
    7.0900   -3.2710   19.1720 C   0  0  0  0  0  0  0  0  0  0  0  0
    6.3510   -4.0370   20.2090 C   0  0  0  0  0  0  0  0  0  0  0  0
    5.2840   -4.5410   19.8770 O   0  0  0  0  0  0  0  0  0  0  0  0
    6.8970   -4.2010   21.4780 N   0  0  0  0  0  0  0  0  0  0  0  0
    6.5280   -5.3180   22.2960 C   0  0  0  0  0  0  0  0  0  0  0  0
    5.7530   -4.8120   23.4780 C   0  0  0  0  0  0  0  0  0  0  0  0
    6.5830   -3.7450   24.2000 C   0  0  0  0  0  0  0  0  0  0  0  0
    5.8520   -3.2890   25.4040 C   0  0  0  0  0  0  0  0  0  0  0  0
    4.6200   -3.1400   25.3570 O   0  0  0  0  0  0  0  0  0  0  0  0
    6.5450   -3.0110   26.6010 N   0  0  0  0  0  0  0  0  0  0  0  0
    6.2710   -3.7660   27.8090 C   0  0  0  0  0  0  0  0  0  0  0  0
    5.8050   -5.1670   27.4560 C   0  0  0  0  0  0  0  0  0  0  0  0
    4.5480   -5.5860   27.8010 C   0  0  2  0  0  0  0  0  0  0  0  0
    4.2990   -5.7040   29.0360 O   0  0  0  0  0  0  0  0  0  0  0  0
    4.1480   -6.7200   27.1770 C   0  0  0  0  0  0  0  0  0  0  0  0
    3.0440   -6.6710   26.5900 O   0  0  0  0  0  0  0  0  0  0  0  0
    2.1420   -7.7600   26.6220 C   0  0  0  0  0  0  0  0  0  0  0  0
    1.3110   -7.9200   27.8780 C   0  0  0  0  0  0  0  0  0  0  0  0
   -0.1030   -7.5160   27.5280 C   0  0  0  0  0  0  0  0  0  0  0  0
   -1.1270   -7.5960   28.6550 C   0  0  0  0  0  0  0  0  0  0  0  0
   -0.6700   -8.0630   30.0010 C   0  0  0  0  0  0  0  0  0  0  0  0
    0.7330   -8.4410   30.2640 C   0  0  0  0  0  0  0  0  0  0  0  0
    1.8110   -8.3940   29.2210 C   0  0  0  0  0  0  0  0  0  0  0  0
    6.8680   -2.5970   23.2730 C   0  0  0  0  0  0  0  0  0  0  0  0
    7.6450   -3.1290   22.1120 C   0  0  0  0  0  0  0  0  0  0  0  0
  1  2  1  0
  2  3  2  0
  2  4  1  0
  4  5  1  0
  5  6  1  0
  6  7  1  0
  7  8  1  0
  8  9  2  0
  8 10  1  0
 10 11  1  0
 11 12  1  0
 12 13  1  0
 13 14  1  1
 13 15  1  0
 15 16  1  0
 16 17  1  0
 17 18  1  0
 18 19  2  0
 19 20  1  0
 20 21  2  0
 21 22  1  0
 18 23  1  0
 22 23  2  0
  7 24  1  0
  4 25  1  0
 24 25  1  0
M  END
