piperidine-amides-12273-covalent
     RDKit          3D

 24 26  0  0  0  0  0  0  0  0999 V2000
    7.0080   -3.2710   19.1400 C   0  0  0  0  0  0  0  0  0  0  0  0
    6.2100   -3.9660   20.1470 C   0  0  0  0  0  0  0  0  0  0  0  0
    5.1810   -4.5480   19.8440 O   0  0  0  0  0  0  0  0  0  0  0  0
    6.6430   -4.0020   21.4960 N   0  0  0  0  0  0  0  0  0  0  0  0
    6.2840   -5.1330   22.3140 C   0  0  0  0  0  0  0  0  0  0  0  0
    5.4070   -4.7080   23.4720 C   0  0  0  0  0  0  0  0  0  0  0  0
    5.9310   -3.3930   24.0380 C   0  0  0  0  0  0  0  0  0  0  0  0
    5.0800   -2.8930   25.1810 C   0  0  0  0  0  0  0  0  0  0  0  0
    4.0770   -3.5220   25.5820 O   0  0  0  0  0  0  0  0  0  0  0  0
    5.4050   -1.6610   25.8430 N   0  0  0  0  0  0  0  0  0  0  0  0
    6.7980   -1.3650   25.9940 C   0  0  0  0  0  0  0  0  0  0  0  0
    7.3030   -2.6360   25.5220 C   0  0  0  0  0  0  0  0  0  0  0  0
    7.8450   -2.8150   24.2670 C   0  0  0  0  0  0  0  0  0  0  0  0
    8.2660   -4.0770   23.8680 C   0  0  0  0  0  0  0  0  0  0  0  0
    8.1430   -5.1140   24.7450 C   0  0  0  0  0  0  0  0  0  0  0  0
    7.6020   -4.9160   26.0480 C   0  0  0  0  0  0  0  0  0  0  0  0
    7.5450   -5.9140   26.8560 N   0  0  0  0  0  0  0  0  0  0  0  0
    7.4610   -5.6510   28.2740 C   0  0  0  0  0  0  0  0  0  0  0  0
    8.8420   -5.5060   28.1560 C   0  0  0  0  0  0  0  0  0  0  0  0
    8.8510   -6.0030   26.8990 C   0  0  0  0  0  0  0  0  0  0  0  0
    9.8590   -6.3990   26.0990 O   0  0  0  0  0  0  0  0  0  0  0  0
    7.1880   -3.6510   26.3950 C   0  0  0  0  0  0  0  0  0  0  0  0
    6.1160   -2.3510   22.9530 C   0  0  0  0  0  0  0  0  0  0  0  0
    7.1170   -2.7860   22.0810 C   0  0  0  0  0  0  0  0  0  0  0  0
  1  2  1  0
  2  3  2  0
  2  4  1  0
  4  5  1  0
  5  6  1  0
  6  7  1  0
  7  8  1  0
  8  9  2  0
  8 10  1  0
 10 11  1  0
 11 12  1  0
 12 13  2  0
 13 14  1  0
 14 15  2  0
 15 16  1  0
 16 17  1  0
 17 18  1  0
 18 19  1  0
 17 20  1  0
 19 20  1  0
 20 21  2  0
 12 22  1  0
 16 22  2  0
  7 23  1  0
  4 24  1  0
 23 24  1  0
M  END
