piperidine-amides-15065-covalent
     RDKit          3D

 21 22  0  0  0  0  0  0  0  0999 V2000
    7.1570   -3.2520   19.1930 C   0  0  0  0  0  0  0  0  0  0  0  0
    6.4090   -4.0080   20.1920 C   0  0  0  0  0  0  0  0  0  0  0  0
    5.3060   -4.4860   19.8650 O   0  0  0  0  0  0  0  0  0  0  0  0
    6.9660   -4.2410   21.4700 N   0  0  0  0  0  0  0  0  0  0  0  0
    7.6920   -3.1780   22.1140 C   0  0  0  0  0  0  0  0  0  0  0  0
    6.8600   -2.6000   23.2220 C   0  0  0  0  0  0  0  0  0  0  0  0
    6.6190   -3.7040   24.2270 C   0  0  0  0  0  0  0  0  0  0  0  0
    5.8770   -3.1480   25.4060 C   0  0  0  0  0  0  0  0  0  0  0  0
    4.8510   -2.5230   25.1460 O   0  0  0  0  0  0  0  0  0  0  0  0
    6.3720   -3.3760   26.6900 N   0  0  0  0  0  0  0  0  0  0  0  0
    5.7080   -4.2900   27.5540 C   0  0  2  0  0  0  0  0  0  0  0  0
    6.3870   -4.7300   28.6830 C   0  0  0  0  0  0  0  0  0  0  0  0
    6.4280   -6.0990   28.8730 C   0  0  0  0  0  0  0  0  0  0  0  0
    5.3390   -7.0020   28.8270 C   0  0  0  0  0  0  0  0  0  0  0  0
    5.7690   -6.5880   30.1870 C   0  0  0  0  0  0  0  0  0  0  0  0
    5.3410   -5.3500   26.6520 C   0  0  0  0  0  0  0  0  0  0  0  0
    6.2080   -5.9070   25.9620 O   0  0  0  0  0  0  0  0  0  0  0  0
    4.0670   -5.6620   26.6180 O   0  0  0  0  0  0  0  0  0  0  0  0
    3.9440   -7.0320   26.4370 C   0  0  0  0  0  0  0  0  0  0  0  0
    5.9270   -4.8550   23.5810 C   0  0  0  0  0  0  0  0  0  0  0  0
    6.4280   -5.3380   22.2130 C   0  0  0  0  0  0  0  0  0  0  0  0
  1  2  1  0
  2  3  2  0
  2  4  1  0
  4  5  1  0
  5  6  1  0
  6  7  1  0
  7  8  1  0
  8  9  2  0
  8 10  1  0
 10 11  1  0
 11 12  1  1
 12 13  1  0
 13 14  1  0
 13 15  1  0
 14 15  1  0
 11 16  1  0
 16 17  2  0
 16 18  1  0
 18 19  1  0
  7 20  1  0
  4 21  1  0
 20 21  1  0
M  END
