piperidine-amides-19868-covalent
     RDKit          3D

 22 24  0  0  0  0  0  0  0  0999 V2000
    7.1190   -3.2530   19.1910 C   0  0  0  0  0  0  0  0  0  0  0  0
    6.3720   -4.0160   20.2300 C   0  0  0  0  0  0  0  0  0  0  0  0
    5.3170   -4.5480   19.8850 O   0  0  0  0  0  0  0  0  0  0  0  0
    6.8930   -4.1450   21.5180 N   0  0  0  0  0  0  0  0  0  0  0  0
    6.6440   -5.3110   22.3250 C   0  0  0  0  0  0  0  0  0  0  0  0
    5.9380   -4.9010   23.5880 C   0  0  0  0  0  0  0  0  0  0  0  0
    6.6140   -3.6670   24.2060 C   0  0  0  0  0  0  0  0  0  0  0  0
    5.7020   -3.1680   25.2490 C   0  0  0  0  0  0  0  0  0  0  0  0
    4.4910   -3.4050   25.1500 O   0  0  0  0  0  0  0  0  0  0  0  0
    6.1540   -2.4250   26.3570 N   0  0  0  0  0  0  0  0  0  0  0  0
    5.5950   -1.1110   26.4840 C   0  0  0  0  0  0  0  0  0  0  0  0
    4.9970   -1.6350   27.7280 C   0  0  0  0  0  0  0  0  0  0  0  0
    5.3420   -0.7760   28.8720 N   0  0  0  0  0  0  0  0  0  0  0  0
    5.7910   -1.7340   29.9150 C   0  0  0  0  0  0  0  0  0  0  0  0
    6.9160   -1.0520   29.7120 C   0  0  0  0  0  0  0  0  0  0  0  0
    7.0000   -0.0140   30.5990 C   0  0  0  0  0  0  0  0  0  0  0  0
    8.0430   -0.6890   30.5130 C   0  0  0  0  0  0  0  0  0  0  0  0
    6.4950   -0.0430   28.7990 C   0  0  0  0  0  0  0  0  0  0  0  0
    7.0250    1.0530   28.2210 O   0  0  0  0  0  0  0  0  0  0  0  0
    5.7890   -2.9750   27.6770 C   0  0  0  0  0  0  0  0  0  0  0  0
    7.0190   -2.6090   23.2700 C   0  0  0  0  0  0  0  0  0  0  0  0
    7.7150   -3.0940   22.0590 C   0  0  0  0  0  0  0  0  0  0  0  0
  1  2  1  0
  2  3  2  0
  2  4  1  0
  4  5  1  0
  5  6  1  0
  6  7  1  0
  7  8  1  0
  8  9  2  0
  8 10  1  0
 10 11  1  0
 11 12  1  0
 12 13  1  0
 13 14  1  0
 14 15  1  0
 15 16  1  0
 15 17  1  0
 13 18  1  0
 15 18  1  0
 18 19  2  0
 10 20  1  0
 12 20  1  0
  7 21  1  0
  4 22  1  0
 21 22  1  0
M  END
