piperidine-amides-24251-covalent
     RDKit          3D

 23 25  0  0  0  0  0  0  0  0999 V2000
    7.0720   -3.3550   19.3980 C   0  0  0  0  0  0  0  0  0  0  0  0
    6.4220   -4.2510   20.3590 C   0  0  0  0  0  0  0  0  0  0  0  0
    5.4000   -4.8830   20.0020 O   0  0  0  0  0  0  0  0  0  0  0  0
    6.9640   -4.4560   21.6450 N   0  0  0  0  0  0  0  0  0  0  0  0
    6.5940   -5.6440   22.3480 C   0  0  0  0  0  0  0  0  0  0  0  0
    5.5790   -5.1700   23.3900 C   0  0  0  0  0  0  0  0  0  0  0  0
    6.2100   -4.0740   24.2430 C   0  0  0  0  0  0  0  0  0  0  0  0
    5.1290   -3.5500   25.1280 C   0  0  0  0  0  0  0  0  0  0  0  0
    3.9950   -3.4530   24.6340 O   0  0  0  0  0  0  0  0  0  0  0  0
    5.3430   -3.1690   26.4770 N   0  0  0  0  0  0  0  0  0  0  0  0
    4.4240   -3.5100   27.5620 C   0  0  0  0  0  0  0  0  0  0  0  0
    5.2190   -4.3250   28.5140 C   0  0  0  0  0  0  0  0  0  0  0  0
    6.4600   -4.1930   28.1080 C   0  0  0  0  0  0  0  0  0  0  0  0
    6.4730   -3.0480   27.3210 C   0  0  2  0  0  0  0  0  0  0  0  0
    6.3890   -1.7790   27.9370 C   0  0  0  0  0  0  0  0  0  0  0  0
    7.0850   -1.6000   29.0490 C   0  0  0  0  0  0  0  0  0  0  0  0
    7.2140   -0.4130   29.9380 C   0  0  0  0  0  0  0  0  0  0  0  0
    6.2910    0.5570   29.1680 C   0  0  0  0  0  0  0  0  0  0  0  0
    5.4130    0.5710   27.8970 C   0  0  0  0  0  0  0  0  0  0  0  0
    5.6160   -0.7900   27.3910 C   0  0  0  0  0  0  0  0  0  0  0  0
    4.7180   -1.0720   25.9120 Cl  0  0  0  0  0  0  0  0  0  0  0  0
    6.7460   -2.9320   23.3980 C   0  0  0  0  0  0  0  0  0  0  0  0
    7.5410   -3.3760   22.3690 C   0  0  0  0  0  0  0  0  0  0  0  0
  1  2  1  0
  2  3  2  0
  2  4  1  0
  4  5  1  0
  5  6  1  0
  6  7  1  0
  7  8  1  0
  8  9  2  0
  8 10  1  0
 10 11  1  0
 11 12  1  0
 12 13  1  0
 10 14  1  0
 13 14  1  0
 14 15  1  1
 15 16  2  0
 16 17  1  0
 17 18  2  0
 18 19  1  0
 15 20  1  0
 19 20  2  0
 20 21  1  0
  7 22  1  0
  4 23  1  0
 22 23  1  0
M  END
