piperidine-amides-11931-covalent
     RDKit          3D

 26 28  0  0  0  0  0  0  0  0999 V2000
    7.0680   -3.3100   19.3530 C   0  0  0  0  0  0  0  0  0  0  0  0
    6.3570   -4.1310   20.3330 C   0  0  0  0  0  0  0  0  0  0  0  0
    5.3830   -4.7960   19.9760 O   0  0  0  0  0  0  0  0  0  0  0  0
    6.8060   -4.2070   21.7030 N   0  0  0  0  0  0  0  0  0  0  0  0
    6.6060   -5.4430   22.4340 C   0  0  0  0  0  0  0  0  0  0  0  0
    6.1040   -5.1730   23.8340 C   0  0  0  0  0  0  0  0  0  0  0  0
    5.9670   -3.6720   23.9740 C   0  0  0  0  0  0  0  0  0  0  0  0
    5.4050   -3.2350   25.3000 C   0  0  0  0  0  0  0  0  0  0  0  0
    4.2390   -2.8170   25.3630 O   0  0  0  0  0  0  0  0  0  0  0  0
    6.1570   -3.2600   26.5100 N   0  0  0  0  0  0  0  0  0  0  0  0
    6.0740   -4.4050   27.4170 C   0  0  0  0  0  0  0  0  0  0  0  0
    4.7770   -4.4910   28.1860 C   0  0  0  0  0  0  0  0  0  0  0  0
    4.9360   -5.4320   29.1950 C   0  0  0  0  0  0  0  0  0  0  0  0
    5.7450   -6.5790   28.9390 C   0  0  0  0  0  0  0  0  0  0  0  0
    5.9380   -7.5420   29.9150 C   0  0  0  0  0  0  0  0  0  0  0  0
    5.3210   -7.3940   31.2010 C   0  0  0  0  0  0  0  0  0  0  0  0
    4.5600   -6.3040   31.4230 C   0  0  0  0  0  0  0  0  0  0  0  0
    4.3670   -5.3490   30.4570 C   0  0  0  0  0  0  0  0  0  0  0  0
    4.3720   -3.2650   28.7420 C   0  0  0  0  0  0  0  0  0  0  0  0
    2.9600   -3.4660   29.0860 C   0  0  0  0  0  0  0  0  0  0  0  0
    1.9530   -4.0190   29.0350 N   0  0  0  0  0  0  0  0  0  0  0  0
    1.6840   -4.6780   30.2650 C   0  0  0  0  0  0  0  0  0  0  0  0
    2.3620   -4.9660   28.0750 C   0  0  0  0  0  0  0  0  0  0  0  0
    3.6880   -4.8420   27.3790 C   0  0  0  0  0  0  0  0  0  0  0  0
    7.2210   -2.9250   23.6810 C   0  0  0  0  0  0  0  0  0  0  0  0
    7.6600   -3.1790   22.2540 C   0  0  0  0  0  0  0  0  0  0  0  0
  1  2  1  0
  2  3  2  0
  2  4  1  0
  4  5  1  0
  5  6  1  0
  6  7  1  0
  7  8  1  0
  8  9  2  0
  8 10  1  0
 10 11  1  0
 12 11  1  0
 12 13  1  0
 13 14  2  0
 14 15  1  0
 15 16  2  0
 16 17  1  0
 13 18  1  0
 17 18  2  0
 12 19  1  0
 19 20  1  0
 20 21  1  0
 21 22  1  0
 21 23  1  0
 12 24  1  0
 23 24  1  0
  7 25  1  0
  4 26  1  0
 25 26  1  0
M  END
