piperidine-amides-6509-covalent
     RDKit          3D

 25 26  0  0  0  0  0  0  0  0999 V2000
    7.1540   -3.2750   19.2590 C   0  0  0  0  0  0  0  0  0  0  0  0
    6.3610   -4.0350   20.2280 C   0  0  0  0  0  0  0  0  0  0  0  0
    5.2800   -4.5630   19.8910 O   0  0  0  0  0  0  0  0  0  0  0  0
    6.8480   -4.2250   21.5240 N   0  0  0  0  0  0  0  0  0  0  0  0
    7.6800   -3.2190   22.1400 C   0  0  0  0  0  0  0  0  0  0  0  0
    6.8430   -2.6340   23.2710 C   0  0  0  0  0  0  0  0  0  0  0  0
    6.5750   -3.7910   24.2030 C   0  0  0  0  0  0  0  0  0  0  0  0
    5.7710   -3.3310   25.3500 C   0  0  0  0  0  0  0  0  0  0  0  0
    4.5520   -3.1340   25.1800 O   0  0  0  0  0  0  0  0  0  0  0  0
    6.3940   -3.1290   26.6010 N   0  0  0  0  0  0  0  0  0  0  0  0
    6.3850   -1.8350   27.2120 C   0  0  0  0  0  0  0  0  0  0  0  0
    5.3820   -1.8750   28.3400 C   0  0  0  0  0  0  0  0  0  0  0  0
    4.0940   -2.3200   28.1140 C   0  0  0  0  0  0  0  0  0  0  0  0
    3.1690   -2.3650   29.1250 C   0  0  0  0  0  0  0  0  0  0  0  0
    3.5250   -1.9580   30.3940 C   0  0  0  0  0  0  0  0  0  0  0  0
    2.6060   -2.0120   31.3700 N   0  0  0  0  0  0  0  0  0  0  0  0
    2.7880   -1.4450   32.6680 C   0  0  0  0  0  0  0  0  0  0  0  0
    3.8890   -0.7710   33.0700 O   0  0  0  0  0  0  0  0  0  0  0  0
    1.7220   -1.5740   33.7360 C   0  0  0  0  0  0  0  0  0  0  0  0
    1.4530   -0.5260   32.6770 C   0  0  0  0  0  0  0  0  0  0  0  0
    1.8720   -1.2720   35.1610 C   0  0  0  0  0  0  0  0  0  0  0  0
    4.7960   -1.5140   30.6300 C   0  0  0  0  0  0  0  0  0  0  0  0
    5.7530   -1.4620   29.6130 C   0  0  0  0  0  0  0  0  0  0  0  0
    5.7340   -4.8500   23.4830 C   0  0  0  0  0  0  0  0  0  0  0  0
    6.4810   -5.3850   22.2860 C   0  0  0  0  0  0  0  0  0  0  0  0
  1  2  1  0
  2  3  2  0
  2  4  1  0
  4  5  1  0
  5  6  1  0
  6  7  1  0
  7  8  1  0
  8  9  2  0
  8 10  1  0
 10 11  1  0
 11 12  1  0
 12 13  2  0
 13 14  1  0
 14 15  2  0
 15 16  1  0
 16 17  1  0
 17 18  2  0
 17 19  1  0
 19 20  1  0
 19 21  1  0
 15 22  1  0
 12 23  1  0
 22 23  2  0
  7 24  1  0
  4 25  1  0
 24 25  1  0
M  END
