piperidine-amides-27236-covalent
     RDKit          3D

 24 25  0  0  0  0  0  0  0  0999 V2000
    7.0810   -3.3370   19.3230 C   0  0  0  0  0  0  0  0  0  0  0  0
    6.3960   -4.1790   20.3080 C   0  0  0  0  0  0  0  0  0  0  0  0
    5.3190   -4.7090   19.9410 O   0  0  0  0  0  0  0  0  0  0  0  0
    6.9700   -4.4090   21.5610 N   0  0  0  0  0  0  0  0  0  0  0  0
    6.6330   -5.5660   22.3600 C   0  0  0  0  0  0  0  0  0  0  0  0
    5.9220   -5.1000   23.6010 C   0  0  0  0  0  0  0  0  0  0  0  0
    6.6540   -3.9720   24.2920 C   0  0  0  0  0  0  0  0  0  0  0  0
    5.8370   -3.4840   25.4120 C   0  0  0  0  0  0  0  0  0  0  0  0
    4.6940   -3.0440   25.1610 O   0  0  0  0  0  0  0  0  0  0  0  0
    6.2860   -3.4920   26.7400 N   0  0  0  0  0  0  0  0  0  0  0  0
    6.7310   -4.7260   27.3520 C   0  0  0  0  0  0  0  0  0  0  0  0
    6.3200   -2.2360   27.4490 C   0  0  0  0  0  0  0  0  0  0  0  0
    6.0290   -0.8870   26.9620 N   0  0  0  0  0  0  0  0  0  0  0  0
    6.1450    0.0740   27.8420 C   0  0  0  0  0  0  0  0  0  0  0  0
    5.9040    1.3840   27.4920 C   0  0  0  0  0  0  0  0  0  0  0  0
    6.5150   -0.2140   29.1320 C   0  0  0  0  0  0  0  0  0  0  0  0
    6.6730    0.7310   30.1190 C   0  0  0  0  0  0  0  0  0  0  0  0
    7.8350    1.5010   30.1190 O   0  0  0  0  0  0  0  0  0  0  0  0
    5.8420    0.9350   31.0400 O   0  0  0  0  0  0  0  0  0  0  0  0
    6.3220    1.3730   32.2990 C   0  0  0  0  0  0  0  0  0  0  0  0
    7.0910    0.3030   33.0380 C   0  0  0  0  0  0  0  0  0  0  0  0
    6.7200   -1.9100   29.1490 S   0  0  0  0  0  0  0  0  0  0  0  0
    6.8620   -2.8290   23.3630 C   0  0  0  0  0  0  0  0  0  0  0  0
    7.6440   -3.2550   22.1570 C   0  0  0  0  0  0  0  0  0  0  0  0
  1  2  1  0
  2  3  2  0
  2  4  1  0
  4  5  1  0
  5  6  1  0
  6  7  1  0
  7  8  1  0
  8  9  2  0
  8 10  1  0
 10 11  1  0
 10 12  1  0
 12 13  2  0
 13 14  1  0
 14 15  1  0
 14 16  2  0
 16 17  1  0
 17 18  2  0
 17 19  1  0
 19 20  1  0
 20 21  1  0
 12 22  1  0
 16 22  1  0
  7 23  1  0
  4 24  1  0
 23 24  1  0
M  END
