piperidine-amides-14070-covalent
     RDKit          3D

 25 27  0  0  0  0  0  0  0  0999 V2000
    7.0730   -3.2800   19.2850 C   0  0  0  0  0  0  0  0  0  0  0  0
    6.3400   -4.0830   20.3050 C   0  0  0  0  0  0  0  0  0  0  0  0
    5.3320   -4.7160   19.9470 O   0  0  0  0  0  0  0  0  0  0  0  0
    6.8210   -4.1430   21.6320 N   0  0  0  0  0  0  0  0  0  0  0  0
    6.6900   -5.3550   22.4060 C   0  0  0  0  0  0  0  0  0  0  0  0
    5.9990   -5.0250   23.7410 C   0  0  0  0  0  0  0  0  0  0  0  0
    6.1670   -3.5710   24.0540 C   0  0  0  0  0  0  0  0  0  0  0  0
    5.7190   -3.2530   25.4380 C   0  0  0  0  0  0  0  0  0  0  0  0
    4.7240   -3.8800   25.8090 O   0  0  0  0  0  0  0  0  0  0  0  0
    6.3570   -2.3020   26.2610 N   0  0  0  0  0  0  0  0  0  0  0  0
    5.7090   -1.2400   26.9830 C   0  0  0  0  0  0  0  0  0  0  0  0
    5.9790   -0.9280   28.3160 C   0  0  0  0  0  0  0  0  0  0  0  0
    4.9240   -0.5410   29.2040 C   0  0  0  0  0  0  0  0  0  0  0  0
    5.1410   -0.2110   30.5360 C   0  0  0  0  0  0  0  0  0  0  0  0
    6.5130   -0.2640   31.0450 C   0  0  0  0  0  0  0  0  0  0  0  0
    6.7220    0.0650   32.3280 O   0  0  0  0  0  0  0  0  0  0  0  0
    6.0110   -0.0370   33.4790 C   0  0  0  0  0  0  0  0  0  0  0  0
    7.0000   -0.4320   34.5860 C   0  0  0  0  0  0  0  0  0  0  0  0
    7.5790   -0.6670   30.1270 C   0  0  0  0  0  0  0  0  0  0  0  0
    7.2890   -1.0070   28.7160 C   0  0  0  0  0  0  0  0  0  0  0  0
    5.2220   -0.0160   26.4020 C   0  0  0  0  0  0  0  0  0  0  0  0
    3.8410    0.1510   26.3760 C   0  0  0  0  0  0  0  0  0  0  0  0
    4.2310   -1.3100   26.8420 C   0  0  0  0  0  0  0  0  0  0  0  0
    7.5120   -3.0330   23.7040 C   0  0  0  0  0  0  0  0  0  0  0  0
    7.6500   -3.0810   22.1840 C   0  0  0  0  0  0  0  0  0  0  0  0
  1  2  1  0
  2  3  2  0
  2  4  1  0
  4  5  1  0
  5  6  1  0
  6  7  1  0
  7  8  1  0
  8  9  2  0
  8 10  1  0
 11 10  1  0
 11 12  1  0
 12 13  2  0
 13 14  1  0
 14 15  2  0
 15 16  1  0
 16 17  1  0
 17 18  1  0
 15 19  1  0
 12 20  1  0
 19 20  2  0
 11 21  1  0
 21 22  1  0
 11 23  1  0
 22 23  1  0
  7 24  1  0
  4 25  1  0
 24 25  1  0
M  END
