piperidine-amides-5597-covalent
     RDKit          3D

 18 19  0  0  0  0  0  0  0  0999 V2000
    7.1430   -3.2910   19.2490 C   0  0  0  0  0  0  0  0  0  0  0  0
    6.3180   -3.9970   20.2350 C   0  0  0  0  0  0  0  0  0  0  0  0
    5.2570   -4.5290   19.8690 O   0  0  0  0  0  0  0  0  0  0  0  0
    6.7350   -4.1210   21.5720 N   0  0  0  0  0  0  0  0  0  0  0  0
    6.5420   -5.3430   22.3190 C   0  0  0  0  0  0  0  0  0  0  0  0
    5.8000   -4.9570   23.5780 C   0  0  0  0  0  0  0  0  0  0  0  0
    6.4150   -3.7630   24.2510 C   0  0  0  0  0  0  0  0  0  0  0  0
    5.5940   -3.3040   25.4050 C   0  0  0  0  0  0  0  0  0  0  0  0
    4.4440   -2.8080   25.2090 O   0  0  0  0  0  0  0  0  0  0  0  0
    6.0120   -3.3810   26.7570 N   0  0  0  0  0  0  0  0  0  0  0  0
    6.1660   -4.6910   27.4350 C   0  0  0  0  0  0  0  0  0  0  0  0
    4.9100   -5.1120   28.0890 C   0  0  0  0  0  0  0  0  0  0  0  0
    3.6850   -4.3180   28.2470 C   0  0  0  0  0  0  0  0  0  0  0  0
    2.5540   -4.9290   28.9240 N   0  0  0  0  0  0  0  0  0  0  0  0
    3.1730   -6.3410   29.2460 S   0  0  0  0  0  0  0  0  0  0  0  0
    4.8440   -6.5160   28.6740 C   0  0  0  0  0  0  0  0  0  0  0  0
    6.8290   -2.6600   23.3510 C   0  0  0  0  0  0  0  0  0  0  0  0
    7.5980   -3.1490   22.1880 C   0  0  0  0  0  0  0  0  0  0  0  0
  1  2  1  0
  2  3  2  0
  2  4  1  0
  4  5  1  0
  5  6  1  0
  6  7  1  0
  7  8  1  0
  8  9  2  0
  8 10  1  0
 10 11  1  0
 11 12  1  0
 12 13  1  0
 13 14  2  0
 14 15  1  0
 12 16  2  0
 15 16  1  0
  7 17  1  0
  4 18  1  0
 17 18  1  0
M  END
