piperidine-amides-23987-covalent
     RDKit          3D

 24 26  0  0  0  0  0  0  0  0999 V2000
    7.0650   -3.3790   19.4510 C   0  0  0  0  0  0  0  0  0  0  0  0
    6.3820   -4.2260   20.4410 C   0  0  0  0  0  0  0  0  0  0  0  0
    5.4130   -4.9010   20.0050 O   0  0  0  0  0  0  0  0  0  0  0  0
    6.8190   -4.3200   21.8030 N   0  0  0  0  0  0  0  0  0  0  0  0
    6.6060   -5.5360   22.4970 C   0  0  0  0  0  0  0  0  0  0  0  0
    6.1110   -5.2990   23.8410 C   0  0  0  0  0  0  0  0  0  0  0  0
    5.9000   -3.8680   24.1200 C   0  0  0  0  0  0  0  0  0  0  0  0
    5.0680   -3.6700   25.4080 C   0  0  0  0  0  0  0  0  0  0  0  0
    3.9420   -4.2060   25.3570 O   0  0  0  0  0  0  0  0  0  0  0  0
    5.4060   -2.9400   26.6320 N   0  0  0  0  0  0  0  0  0  0  0  0
    4.6560   -2.7100   27.8650 C   0  0  0  0  0  0  0  0  0  0  0  0
    4.2130   -3.7370   28.8590 C   0  0  0  0  0  0  0  0  0  0  0  0
    5.3790   -4.5660   29.4240 C   0  0  0  0  0  0  0  0  0  0  0  0
    5.8720   -5.0430   28.1980 N   0  0  0  0  0  0  0  0  0  0  0  0
    6.5080   -6.2990   28.4110 C   0  0  0  0  0  0  0  0  0  0  0  0
    6.4890   -3.9790   27.5710 C   0  0  0  0  0  0  0  0  0  0  0  0
    4.9650   -3.9070   27.2420 C   0  0  0  0  0  0  0  0  0  0  0  0
    4.4080   -2.7150   26.3270 C   0  0  0  0  0  0  0  0  0  0  0  0
    5.0670   -1.5430   25.6380 C   0  0  0  0  0  0  0  0  0  0  0  0
    4.4180   -0.5970   24.8790 F   0  0  0  0  0  0  0  0  0  0  0  0
    6.4930   -1.5760   25.9060 C   0  0  0  0  0  0  0  0  0  0  0  0
    6.7660   -2.7650   26.7780 C   0  0  0  0  0  0  0  0  0  0  0  0
    7.1900   -3.1240   23.8730 C   0  0  0  0  0  0  0  0  0  0  0  0
    7.5300   -3.2370   22.4880 C   0  0  0  0  0  0  0  0  0  0  0  0
  1  2  1  0
  2  3  2  0
  2  4  1  0
  4  5  1  0
  5  6  1  0
  6  7  1  0
  7  8  1  0
  8  9  2  0
  8 10  1  0
 10 11  1  0
 11 12  1  0
 12 13  1  0
 13 14  1  0
 14 15  1  0
 14 16  1  0
 16 17  1  0
 17 18  2  0
 18 19  1  0
 19 20  1  0
 19 21  2  0
 10 22  1  0
 16 22  2  0
 21 22  1  0
  7 23  1  0
  4 24  1  0
 23 24  1  0
M  END
