piperidine-amides-5523-covalent
     RDKit          3D

 19 20  0  0  0  0  0  0  0  0999 V2000
    7.0570   -3.3310   19.3260 C   0  0  0  0  0  0  0  0  0  0  0  0
    6.3690   -4.1380   20.3380 C   0  0  0  0  0  0  0  0  0  0  0  0
    5.3960   -4.8300   19.9840 O   0  0  0  0  0  0  0  0  0  0  0  0
    6.8170   -4.1760   21.6710 N   0  0  0  0  0  0  0  0  0  0  0  0
    7.7450   -3.1890   22.1990 C   0  0  0  0  0  0  0  0  0  0  0  0
    7.3890   -2.9890   23.6430 C   0  0  0  0  0  0  0  0  0  0  0  0
    6.0410   -3.5560   23.9350 C   0  0  0  0  0  0  0  0  0  0  0  0
    5.5200   -3.1880   25.2710 C   0  0  0  0  0  0  0  0  0  0  0  0
    4.2820   -2.9900   25.4300 O   0  0  0  0  0  0  0  0  0  0  0  0
    6.3340   -3.0490   26.4100 N   0  0  0  0  0  0  0  0  0  0  0  0
    6.6200   -1.7260   27.0210 C   0  0  1  0  0  0  0  0  0  0  0  0
    5.6530   -0.6820   26.6330 C   0  0  0  0  0  0  0  0  0  0  0  0
    5.7980    0.6010   27.3570 C   0  0  0  0  0  0  0  0  0  0  0  0
    5.9590    0.4480   28.8540 C   0  0  2  0  0  0  0  0  0  0  0  0
    6.5240    1.7140   29.4630 C   0  0  0  0  0  0  0  0  0  0  0  0
    6.9590   -0.7040   29.0770 C   0  0  0  0  0  0  0  0  0  0  0  0
    6.5320   -1.8750   28.5490 C   0  0  0  0  0  0  0  0  0  0  0  0
    6.0360   -5.0560   23.7640 C   0  0  0  0  0  0  0  0  0  0  0  0
    6.6700   -5.4080   22.4300 C   0  0  0  0  0  0  0  0  0  0  0  0
  1  2  1  0
  2  3  2  0
  2  4  1  0
  4  5  1  0
  5  6  1  0
  6  7  1  0
  7  8  1  0
  8  9  2  0
  8 10  1  0
 11 10  1  6
 11 12  1  0
 12 13  1  0
 13 14  1  0
 14 15  1  6
 14 16  1  0
 11 17  1  0
 16 17  1  0
  7 18  1  0
  4 19  1  0
 18 19  1  0
M  END
