piperidine-amides-34955-covalent
     RDKit          3D

 31 34  0  0  0  0  0  0  0  0999 V2000
    7.0330   -3.3580   19.3750 C   0  0  0  0  0  0  0  0  0  0  0  0
    6.3220   -4.1850   20.3800 C   0  0  0  0  0  0  0  0  0  0  0  0
    5.3490   -4.8180   19.9750 O   0  0  0  0  0  0  0  0  0  0  0  0
    6.7800   -4.2600   21.7060 N   0  0  0  0  0  0  0  0  0  0  0  0
    7.6860   -3.2670   22.2470 C   0  0  0  0  0  0  0  0  0  0  0  0
    7.5250   -3.1700   23.7380 C   0  0  0  0  0  0  0  0  0  0  0  0
    6.2290   -3.8800   24.1110 C   0  0  0  0  0  0  0  0  0  0  0  0
    5.7820   -3.4830   25.4770 C   0  0  0  0  0  0  0  0  0  0  0  0
    4.6330   -3.0260   25.5740 O   0  0  0  0  0  0  0  0  0  0  0  0
    6.5520   -3.5910   26.6700 N   0  0  0  0  0  0  0  0  0  0  0  0
    5.9550   -3.0060   27.8500 C   0  0  0  0  0  0  0  0  0  0  0  0
    5.4230   -4.1440   28.6870 C   0  0  0  0  0  0  0  0  0  0  0  0
    6.5870   -4.9980   28.9200 N   0  0  0  0  0  0  0  0  0  0  0  0
    6.1930   -6.4190   28.8420 C   0  0  2  0  0  0  0  0  0  0  0  0
    5.2380   -6.5320   27.8880 C   0  0  0  0  0  0  0  0  0  0  0  0
    5.6030   -6.8940   30.1880 C   0  0  0  0  0  0  0  0  0  0  0  0
    4.5320   -7.6360   30.4800 N   0  0  0  0  0  0  0  0  0  0  0  0
    4.5560   -7.7110   31.9390 C   0  0  0  0  0  0  0  0  0  0  0  0
    3.5770   -8.4340   32.8060 C   0  0  0  0  0  0  0  0  0  0  0  0
    2.3230   -8.5910   31.9680 C   0  0  0  0  0  0  0  0  0  0  0  0
    1.2470   -9.3200   32.7200 C   0  0  0  0  0  0  0  0  0  0  0  0
    1.3920   -9.8250   34.1140 C   0  0  0  0  0  0  0  0  0  0  0  0
    0.0790  -10.6700   34.9130 Cl  0  0  0  0  0  0  0  0  0  0  0  0
    2.7030   -9.5880   34.8180 C   0  0  0  0  0  0  0  0  0  0  0  0
    3.7830   -8.8720   34.1010 C   0  0  0  0  0  0  0  0  0  0  0  0
    5.6720   -6.9990   32.3840 N   0  0  0  0  0  0  0  0  0  0  0  0
    6.2530   -6.5360   31.3280 O   0  0  0  0  0  0  0  0  0  0  0  0
    7.8110   -4.8220   28.2000 C   0  0  0  0  0  0  0  0  0  0  0  0
    7.5330   -4.6390   26.8470 C   0  0  0  0  0  0  0  0  0  0  0  0
    6.3720   -5.3440   23.8660 C   0  0  0  0  0  0  0  0  0  0  0  0
    6.7290   -5.5740   22.3810 C   0  0  0  0  0  0  0  0  0  0  0  0
  1  2  1  0
  2  3  2  0
  2  4  1  0
  4  5  1  0
  5  6  1  0
  6  7  1  0
  7  8  1  0
  8  9  2  0
  8 10  1  0
 10 11  1  0
 11 12  1  0
 12 13  1  0
 13 14  1  0
 14 15  1  6
 14 16  1  0
 16 17  2  0
 17 18  1  0
 18 19  1  0
 19 20  2  0
 20 21  1  0
 21 22  2  0
 22 23  1  0
 22 24  1  0
 19 25  1  0
 24 25  2  0
 18 26  2  0
 16 27  1  0
 26 27  1  0
 13 28  1  0
 10 29  1  0
 28 29  1  0
  7 30  1  0
  4 31  1  0
 30 31  1  0
M  END
