piperidine-amides-17098-covalent
     RDKit          3D

 20 21  0  0  0  0  0  0  0  0999 V2000
    7.0740   -3.3570   19.3000 C   0  0  0  0  0  0  0  0  0  0  0  0
    6.4230   -4.1960   20.3150 C   0  0  0  0  0  0  0  0  0  0  0  0
    5.3640   -4.7770   19.9690 O   0  0  0  0  0  0  0  0  0  0  0  0
    7.0040   -4.3950   21.5960 N   0  0  0  0  0  0  0  0  0  0  0  0
    6.6480   -5.5420   22.3430 C   0  0  0  0  0  0  0  0  0  0  0  0
    6.4690   -5.2270   23.7490 C   0  0  0  0  0  0  0  0  0  0  0  0
    6.0150   -3.8450   23.9960 C   0  0  0  0  0  0  0  0  0  0  0  0
    5.5570   -3.5820   25.4080 C   0  0  0  0  0  0  0  0  0  0  0  0
    4.3390   -3.3750   25.5580 O   0  0  0  0  0  0  0  0  0  0  0  0
    6.3470   -3.5230   26.5850 N   0  0  0  0  0  0  0  0  0  0  0  0
    5.9150   -2.8150   27.6890 C   0  0  0  0  0  0  0  0  0  0  0  0
    5.7420   -3.6050   28.8910 C   0  0  0  0  0  0  0  0  0  0  0  0
    6.4970   -4.9580   28.7360 C   0  0  1  0  0  0  0  0  0  0  0  0
    6.1500   -5.6020   29.9010 O   0  0  0  0  0  0  0  0  0  0  0  0
    6.1610   -6.9640   29.6530 C   0  0  0  0  0  0  0  0  0  0  0  0
    5.9510   -5.7050   27.4900 C   0  0  0  0  0  0  0  0  0  0  0  0
    6.9430   -4.6600   27.2270 C   0  0  1  0  0  0  0  0  0  0  0  0
    7.5680   -5.6340   26.2430 C   0  0  0  0  0  0  0  0  0  0  0  0
    6.8720   -2.7530   23.3970 C   0  0  0  0  0  0  0  0  0  0  0  0
    7.7280   -3.3390   22.2850 C   0  0  0  0  0  0  0  0  0  0  0  0
  1  2  1  0
  2  3  2  0
  2  4  1  0
  4  5  1  0
  5  6  1  0
  6  7  1  0
  7  8  1  0
  8  9  2  0
  8 10  1  0
 10 11  1  0
 11 12  1  0
 12 13  1  0
 13 14  1  1
 14 15  1  0
 13 16  1  0
 10 17  1  0
 16 17  1  0
 17 18  1  6
  7 19  1  0
  4 20  1  0
 19 20  1  0
M  END
