piperidine-amides-11094-covalent
     RDKit          3D

 20 21  0  0  0  0  0  0  0  0999 V2000
    7.0910   -3.3300   19.2590 C   0  0  0  0  0  0  0  0  0  0  0  0
    6.3890   -4.1260   20.2640 C   0  0  0  0  0  0  0  0  0  0  0  0
    5.3500   -4.7340   19.9520 O   0  0  0  0  0  0  0  0  0  0  0  0
    6.9110   -4.2550   21.5600 N   0  0  0  0  0  0  0  0  0  0  0  0
    7.7630   -3.2560   22.1610 C   0  0  0  0  0  0  0  0  0  0  0  0
    6.9830   -2.7220   23.3220 C   0  0  0  0  0  0  0  0  0  0  0  0
    6.5660   -3.8200   24.2400 C   0  0  0  0  0  0  0  0  0  0  0  0
    5.7650   -3.3010   25.3700 C   0  0  0  0  0  0  0  0  0  0  0  0
    4.5530   -2.9780   25.1980 O   0  0  0  0  0  0  0  0  0  0  0  0
    6.2830   -3.1510   26.6640 N   0  0  0  0  0  0  0  0  0  0  0  0
    6.3540   -1.8130   27.2920 C   0  0  0  0  0  0  0  0  0  0  0  0
    5.7910   -0.6110   26.6300 C   0  0  0  0  0  0  0  0  0  0  0  0
    5.8460    0.7300   27.2620 C   0  0  0  0  0  0  0  0  0  0  0  0
    6.4770    0.9550   28.6150 C   0  0  0  0  0  0  0  0  0  0  0  0
    6.4880    2.6000   29.2880 Cl  0  0  0  0  0  0  0  0  0  0  0  0
    7.0400   -0.2940   29.2450 C   0  0  0  0  0  0  0  0  0  0  0  0
    7.6860   -0.1630   30.5740 C   0  0  0  0  0  0  0  0  0  0  0  0
    7.0230   -1.6940   28.6640 C   0  0  0  0  0  0  0  0  0  0  0  0
    5.7760   -4.8990   23.5380 C   0  0  0  0  0  0  0  0  0  0  0  0
    6.5830   -5.4110   22.3650 C   0  0  0  0  0  0  0  0  0  0  0  0
  1  2  1  0
  2  3  2  0
  2  4  1  0
  4  5  1  0
  5  6  1  0
  6  7  1  0
  7  8  1  0
  8  9  2  0
  8 10  1  0
 10 11  1  0
 11 12  2  0
 12 13  1  0
 13 14  2  0
 14 15  1  0
 14 16  1  0
 16 17  1  0
 11 18  1  0
 16 18  2  0
  7 19  1  0
  4 20  1  0
 19 20  1  0
M  END
