piperidine-amides-16167-covalent
     RDKit          3D

 19 20  0  0  0  0  0  0  0  0999 V2000
    7.0520   -3.3270   19.2810 C   0  0  0  0  0  0  0  0  0  0  0  0
    6.3790   -4.1690   20.3060 C   0  0  0  0  0  0  0  0  0  0  0  0
    5.3600   -4.7600   19.9590 O   0  0  0  0  0  0  0  0  0  0  0  0
    6.9260   -4.3080   21.5860 N   0  0  0  0  0  0  0  0  0  0  0  0
    6.7210   -5.5100   22.3650 C   0  0  0  0  0  0  0  0  0  0  0  0
    6.1610   -5.1690   23.7230 C   0  0  0  0  0  0  0  0  0  0  0  0
    6.2090   -3.6580   23.9420 C   0  0  0  0  0  0  0  0  0  0  0  0
    5.7270   -3.3520   25.3010 C   0  0  0  0  0  0  0  0  0  0  0  0
    4.6790   -2.7020   25.4130 O   0  0  0  0  0  0  0  0  0  0  0  0
    6.3800   -3.7710   26.4740 N   0  0  0  0  0  0  0  0  0  0  0  0
    5.8380   -3.2880   27.7220 C   0  0  0  0  0  0  0  0  0  0  0  0
    5.6760   -4.5240   28.5400 C   0  0  0  0  0  0  0  0  0  0  0  0
    6.7660   -5.3020   28.6960 C   0  0  0  0  0  0  0  0  0  0  0  0
    7.8710   -4.7390   28.1540 C   0  0  1  0  0  0  0  0  0  0  0  0
    8.3390   -5.2800   26.9980 C   0  0  0  0  0  0  0  0  0  0  0  0
    7.4630   -6.1080   26.3990 O   0  0  0  0  0  0  0  0  0  0  0  0
    7.7410   -3.8690   26.9900 C   0  0  0  0  0  0  0  0  0  0  0  0
    7.5320   -3.0830   23.5950 C   0  0  0  0  0  0  0  0  0  0  0  0
    7.7580   -3.2420   22.1310 C   0  0  0  0  0  0  0  0  0  0  0  0
  1  2  1  0
  2  3  2  0
  2  4  1  0
  4  5  1  0
  5  6  1  0
  6  7  1  0
  7  8  1  0
  8  9  2  0
  8 10  1  0
 10 11  1  0
 11 12  1  0
 12 13  1  0
 13 14  1  0
 14 15  1  6
 15 16  1  0
 10 17  1  0
 14 17  1  0
  7 18  1  0
  4 19  1  0
 18 19  1  0
M  END
