piperidine-amides-29325-covalent
     RDKit          3D

 26 27  0  0  0  0  0  0  0  0999 V2000
    7.0920   -3.3520   19.3210 C   0  0  0  0  0  0  0  0  0  0  0  0
    6.4540   -4.2160   20.3090 C   0  0  0  0  0  0  0  0  0  0  0  0
    5.4010   -4.7950   19.9780 O   0  0  0  0  0  0  0  0  0  0  0  0
    7.0660   -4.4330   21.5760 N   0  0  0  0  0  0  0  0  0  0  0  0
    6.6690   -5.5970   22.3250 C   0  0  0  0  0  0  0  0  0  0  0  0
    6.1990   -5.1920   23.6980 C   0  0  0  0  0  0  0  0  0  0  0  0
    5.9610   -3.7000   23.6400 C   0  0  0  0  0  0  0  0  0  0  0  0
    5.2370   -3.1860   24.8280 C   0  0  0  0  0  0  0  0  0  0  0  0
    4.5020   -2.2270   24.6480 O   0  0  0  0  0  0  0  0  0  0  0  0
    5.4170   -3.7930   26.0280 N   0  0  0  0  0  0  0  0  0  0  0  0
    4.3130   -4.0290   26.8900 C   0  0  0  0  0  0  0  0  0  0  0  0
    4.7510   -4.7900   27.9240 C   0  0  1  0  0  0  0  0  0  0  0  0
    4.3620   -6.1100   27.9930 C   0  0  0  0  0  0  0  0  0  0  0  0
    3.2300   -6.3500   28.7640 C   0  0  0  0  0  0  0  0  0  0  0  0
    3.2340   -5.7480   30.0160 O   0  0  0  0  0  0  0  0  0  0  0  0
    2.2580   -7.0420   28.3980 O   0  0  0  0  0  0  0  0  0  0  0  0
    2.0900   -8.2870   29.0450 C   0  0  0  0  0  0  0  0  0  0  0  0
    6.1010   -4.8010   27.9210 C   0  0  2  0  0  0  0  0  0  0  0  0
    6.6750   -4.5820   29.1800 C   0  0  0  0  0  0  0  0  0  0  0  0
    6.3280   -3.1190   29.3830 C   0  0  0  0  0  0  0  0  0  0  0  0
    5.2050   -2.7050   30.0680 O   0  0  0  0  0  0  0  0  0  0  0  0
    7.1670   -2.1550   28.8590 O   0  0  0  0  0  0  0  0  0  0  0  0
    7.6670   -1.1440   29.6800 C   0  0  0  0  0  0  0  0  0  0  0  0
    6.1810   -3.5940   27.2110 C   0  0  0  0  0  0  0  0  0  0  0  0
    7.2970   -3.0650   23.5350 C   0  0  0  0  0  0  0  0  0  0  0  0
    7.7900   -3.3130   22.1550 C   0  0  0  0  0  0  0  0  0  0  0  0
  1  2  1  0
  2  3  2  0
  2  4  1  0
  4  5  1  0
  5  6  1  0
  6  7  1  0
  7  8  1  0
  8  9  2  0
  8 10  1  0
 10 11  1  0
 11 12  1  0
 12 13  1  6
 13 14  1  0
 14 15  2  0
 14 16  1  0
 16 17  1  0
 12 18  1  0
 18 19  1  1
 19 20  1  0
 20 21  2  0
 20 22  1  0
 22 23  1  0
 10 24  1  0
 18 24  1  0
  7 25  1  0
  4 26  1  0
 25 26  1  0
M  END
