piperidine-amides-2259-covalent
     RDKit          3D

 29 32  0  0  0  0  0  0  0  0999 V2000
    7.0480   -3.3580   19.3340 C   0  0  0  0  0  0  0  0  0  0  0  0
    6.3500   -4.1800   20.3520 C   0  0  0  0  0  0  0  0  0  0  0  0
    5.3670   -4.8140   19.9740 O   0  0  0  0  0  0  0  0  0  0  0  0
    6.8360   -4.2420   21.6650 N   0  0  0  0  0  0  0  0  0  0  0  0
    6.6740   -5.4260   22.4780 C   0  0  0  0  0  0  0  0  0  0  0  0
    6.0420   -5.0570   23.7980 C   0  0  0  0  0  0  0  0  0  0  0  0
    6.1000   -3.5400   23.9970 C   0  0  0  0  0  0  0  0  0  0  0  0
    5.6170   -3.2190   25.3540 C   0  0  0  0  0  0  0  0  0  0  0  0
    4.4000   -3.2140   25.5730 O   0  0  0  0  0  0  0  0  0  0  0  0
    6.5120   -2.9190   26.3910 N   0  0  0  0  0  0  0  0  0  0  0  0
    6.4250   -1.6270   27.0320 C   0  0  0  0  0  0  0  0  0  0  0  0
    6.9520   -1.5760   28.4280 C   0  0  0  0  0  0  0  0  0  0  0  0
    6.9900   -0.5030   29.2550 C   0  0  0  0  0  0  0  0  0  0  0  0
    6.4840    0.6690   28.7570 C   0  0  0  0  0  0  0  0  0  0  0  0
    6.4170    1.8870   29.4100 O   0  0  0  0  0  0  0  0  0  0  0  0
    5.1410    2.2120   29.8300 C   0  0  0  0  0  0  0  0  0  0  0  0
    4.6840    3.4230   29.0360 C   0  0  0  0  0  0  0  0  0  0  0  0
    5.6930    3.7760   27.9950 C   0  0  0  0  0  0  0  0  0  0  0  0
    5.1010    4.9360   27.3430 N   0  0  0  0  0  0  0  0  0  0  0  0
    5.6650    5.6850   26.2520 C   0  0  0  0  0  0  0  0  0  0  0  0
    4.9640    6.8630   25.6630 C   0  0  0  0  0  0  0  0  0  0  0  0
    3.6440    7.2190   26.2680 C   0  0  0  0  0  0  0  0  0  0  0  0
    3.0650    6.4090   27.4200 C   0  0  0  0  0  0  0  0  0  0  0  0
    3.8370    5.2480   27.9470 C   0  0  0  0  0  0  0  0  0  0  0  0
    3.6180    4.3490   28.9350 N   0  0  0  0  0  0  0  0  0  0  0  0
    5.9370    0.6970   27.3620 C   0  0  0  0  0  0  0  0  0  0  0  0
    5.9220   -0.4270   26.5540 C   0  0  0  0  0  0  0  0  0  0  0  0
    7.4740   -3.0560   23.6820 C   0  0  0  0  0  0  0  0  0  0  0  0
    7.7190   -3.1760   22.1800 C   0  0  0  0  0  0  0  0  0  0  0  0
  1  2  1  0
  2  3  2  0
  2  4  1  0
  4  5  1  0
  5  6  1  0
  6  7  1  0
  7  8  1  0
  8  9  2  0
  8 10  1  0
 10 11  1  0
 11 12  2  0
 12 13  1  0
 13 14  2  0
 14 15  1  0
 15 16  1  0
 16 17  1  0
 17 18  2  0
 18 19  1  0
 19 20  1  0
 20 21  2  0
 21 22  1  0
 22 23  2  0
 19 24  1  0
 23 24  1  0
 17 25  1  0
 24 25  2  0
 14 26  1  0
 11 27  1  0
 26 27  2  0
  7 28  1  0
  4 29  1  0
 28 29  1  0
M  END
