piperidine-amides-1095-covalent
     RDKit          3D

 23 25  0  0  0  0  0  0  0  0999 V2000
    7.0950   -3.2560   19.1500 C   0  0  0  0  0  0  0  0  0  0  0  0
    6.2810   -4.0180   20.1460 C   0  0  0  0  0  0  0  0  0  0  0  0
    5.1940   -4.5100   19.8310 O   0  0  0  0  0  0  0  0  0  0  0  0
    6.7980   -4.1930   21.4240 N   0  0  0  0  0  0  0  0  0  0  0  0
    7.6420   -3.2040   22.0160 C   0  0  0  0  0  0  0  0  0  0  0  0
    7.1310   -2.9520   23.4120 C   0  0  0  0  0  0  0  0  0  0  0  0
    5.7910   -3.5810   23.6000 C   0  0  0  0  0  0  0  0  0  0  0  0
    5.2790   -3.2580   24.9420 C   0  0  0  0  0  0  0  0  0  0  0  0
    4.1180   -3.5710   25.2310 O   0  0  0  0  0  0  0  0  0  0  0  0
    6.1500   -2.5980   25.7890 N   0  0  0  0  0  0  0  0  0  0  0  0
    7.4640   -2.2650   25.4050 C   0  0  0  0  0  0  0  0  0  0  0  0
    8.4700   -3.1710   25.4210 C   0  0  0  0  0  0  0  0  0  0  0  0
    8.1670   -4.5340   25.7190 C   0  0  0  0  0  0  0  0  0  0  0  0
    6.8690   -4.8510   25.9360 F   0  0  0  0  0  0  0  0  0  0  0  0
    9.1340   -5.4900   25.8130 C   0  0  0  0  0  0  0  0  0  0  0  0
   10.5000   -5.0560   25.5830 C   0  0  0  0  0  0  0  0  0  0  0  0
   10.7960   -3.6370   25.2380 C   0  0  0  0  0  0  0  0  0  0  0  0
   12.0670   -3.1260   24.9770 N   0  0  0  0  0  0  0  0  0  0  0  0
   11.7790   -1.8000   24.7160 C   0  0  0  0  0  0  0  0  0  0  0  0
   10.4420   -1.5800   24.8270 N   0  0  0  0  0  0  0  0  0  0  0  0
    9.7680   -2.7250   25.1610 C   0  0  0  0  0  0  0  0  0  0  0  0
    5.7590   -5.0590   23.3850 C   0  0  0  0  0  0  0  0  0  0  0  0
    6.5270   -5.4240   22.1330 C   0  0  0  0  0  0  0  0  0  0  0  0
  1  2  1  0
  2  3  2  0
  2  4  1  0
  4  5  1  0
  5  6  1  0
  6  7  1  0
  7  8  1  0
  8  9  2  0
  8 10  1  0
 10 11  1  0
 11 12  1  0
 12 13  2  0
 13 14  1  0
 13 15  1  0
 15 16  2  0
 16 17  1  0
 17 18  1  0
 18 19  1  0
 19 20  2  0
 12 21  1  0
 17 21  2  0
 20 21  1  0
  7 22  1  0
  4 23  1  0
 22 23  1  0
M  END
