piperidine-amides-2150-covalent
     RDKit          3D

 23 25  0  0  0  0  0  0  0  0999 V2000
    7.0560   -3.2710   19.2330 C   0  0  0  0  0  0  0  0  0  0  0  0
    6.3310   -4.0610   20.2660 C   0  0  0  0  0  0  0  0  0  0  0  0
    5.2930   -4.6120   19.9090 O   0  0  0  0  0  0  0  0  0  0  0  0
    6.8480   -4.1970   21.5610 N   0  0  0  0  0  0  0  0  0  0  0  0
    7.6980   -3.2130   22.1790 C   0  0  0  0  0  0  0  0  0  0  0  0
    6.9430   -2.5450   23.2910 C   0  0  0  0  0  0  0  0  0  0  0  0
    5.8050   -3.4590   23.7580 C   0  0  0  0  0  0  0  0  0  0  0  0
    5.3700   -3.0130   25.1070 C   0  0  0  0  0  0  0  0  0  0  0  0
    4.5750   -3.7100   25.7440 O   0  0  0  0  0  0  0  0  0  0  0  0
    5.8230   -1.7920   25.6580 N   0  0  0  0  0  0  0  0  0  0  0  0
    5.5900   -1.5080   27.0630 C   0  0  0  0  0  0  0  0  0  0  0  0
    6.9070   -1.7450   27.7120 C   0  0  0  0  0  0  0  0  0  0  0  0
    7.5690   -2.7450   27.2100 C   0  0  0  0  0  0  0  0  0  0  0  0
    8.0760   -2.4840   25.9810 C   0  0  0  0  0  0  0  0  0  0  0  0
    8.7450   -3.3910   25.3160 C   0  0  0  0  0  0  0  0  0  0  0  0
    8.9550   -4.7090   25.9010 C   0  0  0  0  0  0  0  0  0  0  0  0
    8.3590   -4.8050   27.2030 C   0  0  0  0  0  0  0  0  0  0  0  0
    7.5780   -3.9280   28.1210 C   0  0  0  0  0  0  0  0  0  0  0  0
    8.6250   -6.1320   27.7020 C   0  0  0  0  0  0  0  0  0  0  0  0
    9.4020   -6.6730   26.6320 O   0  0  0  0  0  0  0  0  0  0  0  0
    9.5950   -5.8870   25.4940 C   0  0  0  0  0  0  0  0  0  0  0  0
    6.0310   -4.9270   23.6500 C   0  0  0  0  0  0  0  0  0  0  0  0
    6.5770   -5.3880   22.3380 C   0  0  0  0  0  0  0  0  0  0  0  0
  1  2  1  0
  2  3  2  0
  2  4  1  0
  4  5  1  0
  5  6  1  0
  6  7  1  0
  7  8  1  0
  8  9  2  0
  8 10  1  0
 10 11  1  0
 11 12  1  0
 12 13  1  0
 13 14  2  0
 14 15  1  0
 15 16  2  0
 16 17  1  0
 13 18  1  0
 17 18  2  0
 17 19  1  0
 19 20  1  0
 16 21  1  0
 20 21  1  0
  7 22  1  0
  4 23  1  0
 22 23  1  0
M  END
