piperidine-amides-704-covalent
     RDKit          3D

 26 28  0  0  0  0  0  0  0  0999 V2000
    7.0210   -3.4070   19.3590 C   0  0  0  0  0  0  0  0  0  0  0  0
    6.3790   -4.2060   20.3840 C   0  0  0  0  0  0  0  0  0  0  0  0
    5.4070   -4.9330   20.0030 O   0  0  0  0  0  0  0  0  0  0  0  0
    6.7950   -4.2590   21.7410 N   0  0  0  0  0  0  0  0  0  0  0  0
    7.7270   -3.1810   22.2010 C   0  0  0  0  0  0  0  0  0  0  0  0
    7.6520   -3.2470   23.7790 C   0  0  0  0  0  0  0  0  0  0  0  0
    6.3880   -3.9430   24.1280 C   0  0  0  0  0  0  0  0  0  0  0  0
    5.8990   -3.7690   25.6410 C   0  0  0  0  0  0  0  0  0  0  0  0
    5.1890   -4.7250   25.9060 O   0  0  0  0  0  0  0  0  0  0  0  0
    6.2940   -2.7160   26.2670 N   0  0  0  0  0  0  0  0  0  0  0  0
    6.4930   -1.6740   27.1440 C   0  0  0  0  0  0  0  0  0  0  0  0
    7.0400   -1.5400   28.3750 C   0  0  0  0  0  0  0  0  0  0  0  0
    7.0910   -0.3390   29.0940 C   0  0  0  0  0  0  0  0  0  0  0  0
    7.8340   -0.3340   30.7180 Cl  0  0  0  0  0  0  0  0  0  0  0  0
    6.5980    0.9900   28.7050 C   0  0  0  0  0  0  0  0  0  0  0  0
    5.9560    0.9830   27.3080 C   0  0  0  0  0  0  0  0  0  0  0  0
    5.9640   -0.2840   26.6950 C   0  0  0  0  0  0  0  0  0  0  0  0
    5.4290   -0.2450   25.5750 O   0  0  0  0  0  0  0  0  0  0  0  0
    5.2820   -1.2400   24.6810 C   0  0  0  0  0  0  0  0  0  0  0  0
    5.4340   -0.8550   23.2200 C   0  0  0  0  0  0  0  0  0  0  0  0
    5.2270   -2.1200   22.3430 C   0  0  0  0  0  0  0  0  0  0  0  0
    4.4800   -3.1400   22.9000 C   0  0  0  0  0  0  0  0  0  0  0  0
    3.8910   -3.0320   24.1370 C   0  0  0  0  0  0  0  0  0  0  0  0
    4.1820   -1.9900   24.9550 C   0  0  0  0  0  0  0  0  0  0  0  0
    6.2840   -5.3710   23.7020 C   0  0  0  0  0  0  0  0  0  0  0  0
    6.7920   -5.5280   22.4150 C   0  0  0  0  0  0  0  0  0  0  0  0
  1  2  1  0
  2  3  2  0
  2  4  1  0
  4  5  1  0
  5  6  1  0
  6  7  1  0
  7  8  1  0
  8  9  2  0
  8 10  1  0
 10 11  1  0
 11 12  2  0
 12 13  1  0
 13 14  1  0
 13 15  2  0
 15 16  1  0
 11 17  1  0
 16 17  2  0
 17 18  1  0
 18 19  1  0
 19 20  1  0
 20 21  1  0
 21 22  1  0
 22 23  1  0
 19 24  1  0
 23 24  1  0
  7 25  1  0
  4 26  1  0
 25 26  1  0
M  END
