piperidine-amides-30653-covalent
     RDKit          3D

 27 29  0  0  0  0  0  0  0  0999 V2000
    7.0390   -3.3510   19.3690 C   0  0  0  0  0  0  0  0  0  0  0  0
    6.3610   -4.2070   20.3470 C   0  0  0  0  0  0  0  0  0  0  0  0
    5.3680   -4.8560   19.9810 O   0  0  0  0  0  0  0  0  0  0  0  0
    6.8240   -4.3520   21.6680 N   0  0  0  0  0  0  0  0  0  0  0  0
    7.6570   -3.3630   22.3190 C   0  0  0  0  0  0  0  0  0  0  0  0
    6.8510   -2.8030   23.4700 C   0  0  0  0  0  0  0  0  0  0  0  0
    6.2380   -3.8830   24.3210 C   0  0  0  0  0  0  0  0  0  0  0  0
    5.2300   -3.3510   25.3010 C   0  0  0  0  0  0  0  0  0  0  0  0
    4.2930   -2.6220   24.8910 O   0  0  0  0  0  0  0  0  0  0  0  0
    5.2820   -3.5830   26.7110 N   0  0  0  0  0  0  0  0  0  0  0  0
    6.5230   -3.3120   27.3380 C   0  0  0  0  0  0  0  0  0  0  0  0
    6.7850   -4.4310   28.2910 C   0  0  0  0  0  0  0  0  0  0  0  0
    5.7920   -4.5340   29.3300 C   0  0  0  0  0  0  0  0  0  0  0  0
    4.4110   -4.4910   28.7580 C   0  0  0  0  0  0  0  0  0  0  0  0
    4.2850   -3.3860   27.7250 C   0  0  2  0  0  0  0  0  0  0  0  0
    2.8750   -3.3640   27.2680 C   0  0  0  0  0  0  0  0  0  0  0  0
    1.9390   -2.9580   28.1880 O   0  0  0  0  0  0  0  0  0  0  0  0
    0.9400   -2.1080   27.7110 C   0  0  0  0  0  0  0  0  0  0  0  0
   -0.1180   -2.5020   27.1930 O   0  0  0  0  0  0  0  0  0  0  0  0
    1.0930   -0.6480   27.7990 N   0  0  0  0  0  0  0  0  0  0  0  0
    0.0330    0.0800   27.1230 C   0  0  0  0  0  0  0  0  0  0  0  0
    0.0820    1.5480   27.6940 C   0  0  0  0  0  0  0  0  0  0  0  0
    0.2090    2.5080   26.5370 C   0  0  0  0  0  0  0  0  0  0  0  0
    0.2100    1.4020   25.6230 C   0  0  0  0  0  0  0  0  0  0  0  0
    0.1580    0.2430   25.5540 C   0  0  0  0  0  0  0  0  0  0  0  0
    5.6670   -5.0350   23.5810 C   0  0  0  0  0  0  0  0  0  0  0  0
    6.3930   -5.4410   22.4790 C   0  0  0  0  0  0  0  0  0  0  0  0
  1  2  1  0
  2  3  2  0
  2  4  1  0
  4  5  1  0
  5  6  1  0
  6  7  1  0
  7  8  1  0
  8  9  2  0
  8 10  1  0
 10 11  1  0
 11 12  1  0
 12 13  1  0
 13 14  1  0
 10 15  1  0
 14 15  1  0
 15 16  1  6
 16 17  1  0
 17 18  1  0
 18 19  2  0
 18 20  1  0
 20 21  1  0
 21 22  1  0
 22 23  1  0
 23 24  1  0
 21 25  1  0
 24 25  1  0
  7 26  1  0
  4 27  1  0
 26 27  1  0
M  END
