piperidine-amides-3747-covalent
     RDKit          3D

 21 21  0  0  0  0  0  0  0  0999 V2000
    7.1460   -3.2540   19.1690 C   0  0  0  0  0  0  0  0  0  0  0  0
    6.3830   -3.9930   20.1950 C   0  0  0  0  0  0  0  0  0  0  0  0
    5.2750   -4.4640   19.8490 O   0  0  0  0  0  0  0  0  0  0  0  0
    6.9040   -4.2250   21.4900 N   0  0  0  0  0  0  0  0  0  0  0  0
    6.4100   -5.3480   22.2000 C   0  0  0  0  0  0  0  0  0  0  0  0
    5.9490   -5.0240   23.5420 C   0  0  0  0  0  0  0  0  0  0  0  0
    6.6200   -3.8690   24.1800 C   0  0  0  0  0  0  0  0  0  0  0  0
    5.8470   -3.4010   25.3690 C   0  0  0  0  0  0  0  0  0  0  0  0
    4.7680   -2.7920   25.2110 O   0  0  0  0  0  0  0  0  0  0  0  0
    6.3230   -3.6540   26.6610 N   0  0  0  0  0  0  0  0  0  0  0  0
    7.1020   -4.7550   27.0890 C   0  0  1  0  0  0  0  0  0  0  0  0
    8.1810   -4.5360   28.0170 C   0  0  0  0  0  0  0  0  0  0  0  0
    8.1820   -3.0220   28.3150 C   0  0  0  0  0  0  0  0  0  0  0  0
    6.2990   -5.8180   27.7710 C   0  0  0  0  0  0  0  0  0  0  0  0
    5.4130   -5.2480   28.6690 O   0  0  0  0  0  0  0  0  0  0  0  0
    4.4820   -6.1360   29.1920 C   0  0  0  0  0  0  0  0  0  0  0  0
    5.1770   -6.9740   30.0630 F   0  0  0  0  0  0  0  0  0  0  0  0
    3.8130   -6.8490   28.2090 F   0  0  0  0  0  0  0  0  0  0  0  0
    3.4890   -5.5210   29.8940 F   0  0  0  0  0  0  0  0  0  0  0  0
    6.8900   -2.6970   23.3010 C   0  0  0  0  0  0  0  0  0  0  0  0
    7.7050   -3.1870   22.1060 C   0  0  0  0  0  0  0  0  0  0  0  0
  1  2  1  0
  2  3  2  0
  2  4  1  0
  4  5  1  0
  5  6  1  0
  6  7  1  0
  7  8  1  0
  8  9  2  0
  8 10  1  0
 10 11  1  0
 11 12  1  1
 12 13  1  0
 11 14  1  0
 14 15  1  0
 15 16  1  0
 16 17  1  0
 16 18  1  0
 16 19  1  0
  7 20  1  0
  4 21  1  0
 20 21  1  0
M  END
