piperidine-amides-6653-covalent
     RDKit          3D

 24 25  0  0  0  0  0  0  0  0999 V2000
    7.0740   -3.2880   19.3030 C   0  0  0  0  0  0  0  0  0  0  0  0
    6.3780   -4.1120   20.3050 C   0  0  0  0  0  0  0  0  0  0  0  0
    5.3850   -4.7960   19.9700 O   0  0  0  0  0  0  0  0  0  0  0  0
    6.8380   -4.1730   21.6360 N   0  0  0  0  0  0  0  0  0  0  0  0
    7.6690   -3.0900   22.1370 C   0  0  0  0  0  0  0  0  0  0  0  0
    7.4820   -3.0260   23.6610 C   0  0  0  0  0  0  0  0  0  0  0  0
    6.1130   -3.6070   23.9240 C   0  0  0  0  0  0  0  0  0  0  0  0
    5.6320   -3.3270   25.2990 C   0  0  0  0  0  0  0  0  0  0  0  0
    4.4180   -3.0590   25.4340 O   0  0  0  0  0  0  0  0  0  0  0  0
    6.4950   -3.3640   26.4250 N   0  0  0  0  0  0  0  0  0  0  0  0
    5.9530   -3.7410   27.7030 C   0  0  1  0  0  0  0  0  0  0  0  0
    6.6480   -4.9680   28.2730 C   0  0  0  0  0  0  0  0  0  0  0  0
    6.0750   -2.6160   28.6610 C   0  0  0  0  0  0  0  0  0  0  0  0
    6.9970   -1.6000   28.7990 C   0  0  0  0  0  0  0  0  0  0  0  0
    6.9490   -0.6120   29.7950 C   0  0  0  0  0  0  0  0  0  0  0  0
    5.9600   -0.5530   30.7510 C   0  0  0  0  0  0  0  0  0  0  0  0
    5.8920    0.3750   31.7250 O   0  0  0  0  0  0  0  0  0  0  0  0
    6.6170    0.4840   32.8700 C   0  0  0  0  0  0  0  0  0  0  0  0
    4.9170   -1.5880   30.6910 C   0  0  0  0  0  0  0  0  0  0  0  0
    3.9730   -1.5900   31.5470 O   0  0  0  0  0  0  0  0  0  0  0  0
    3.2050   -2.7560   31.7490 C   0  0  0  0  0  0  0  0  0  0  0  0
    5.0430   -2.6120   29.5950 C   0  0  0  0  0  0  0  0  0  0  0  0
    6.1650   -5.0860   23.6840 C   0  0  0  0  0  0  0  0  0  0  0  0
    6.5600   -5.3480   22.3990 C   0  0  0  0  0  0  0  0  0  0  0  0
  1  2  1  0
  2  3  2  0
  2  4  1  0
  4  5  1  0
  5  6  1  0
  6  7  1  0
  7  8  1  0
  8  9  2  0
  8 10  1  0
 10 11  1  0
 11 12  1  1
 11 13  1  0
 13 14  2  0
 14 15  1  0
 15 16  2  0
 16 17  1  0
 17 18  1  0
 16 19  1  0
 19 20  1  0
 20 21  1  0
 13 22  1  0
 19 22  2  0
  7 23  1  0
  4 24  1  0
 23 24  1  0
M  END
