piperidine-amides-28608-covalent
     RDKit          3D

 25 26  0  0  0  0  0  0  0  0999 V2000
    7.0470   -3.3480   19.3540 C   0  0  0  0  0  0  0  0  0  0  0  0
    6.3970   -4.2120   20.3350 C   0  0  0  0  0  0  0  0  0  0  0  0
    5.3780   -4.8300   19.9780 O   0  0  0  0  0  0  0  0  0  0  0  0
    6.9480   -4.3800   21.6360 N   0  0  0  0  0  0  0  0  0  0  0  0
    6.6220   -5.5500   22.3890 C   0  0  0  0  0  0  0  0  0  0  0  0
    5.7370   -5.1530   23.5320 C   0  0  0  0  0  0  0  0  0  0  0  0
    6.3530   -3.9340   24.1890 C   0  0  0  0  0  0  0  0  0  0  0  0
    5.3030   -3.2600   25.0370 C   0  0  0  0  0  0  0  0  0  0  0  0
    4.4870   -2.5900   24.4260 O   0  0  0  0  0  0  0  0  0  0  0  0
    5.2810   -3.4110   26.4190 N   0  0  0  0  0  0  0  0  0  0  0  0
    6.4440   -3.3130   27.1400 C   0  0  0  0  0  0  0  0  0  0  0  0
    6.5910   -4.2820   28.1540 C   0  0  2  0  0  0  0  0  0  0  0  0
    6.2680   -5.6360   27.6890 N   0  0  0  0  0  0  0  0  0  0  0  0
    5.7590   -6.6940   28.4670 C   0  0  0  0  0  0  0  0  0  0  0  0
    4.6320   -7.4450   28.2410 C   0  0  0  0  0  0  0  0  0  0  0  0
    6.4610   -6.9870   29.6090 O   0  0  0  0  0  0  0  0  0  0  0  0
    5.4950   -4.0770   29.1080 C   0  0  0  0  0  0  0  0  0  0  0  0
    4.1210   -3.9320   28.4760 C   0  0  0  0  0  0  0  0  0  0  0  0
    4.0990   -3.1980   27.1980 C   0  0  1  0  0  0  0  0  0  0  0  0
    3.7020   -1.7610   27.4300 C   0  0  0  0  0  0  0  0  0  0  0  0
    3.4830   -0.9580   26.3290 F   0  0  0  0  0  0  0  0  0  0  0  0
    2.4830   -1.8300   28.0670 F   0  0  0  0  0  0  0  0  0  0  0  0
    4.5530   -1.1490   28.3140 F   0  0  0  0  0  0  0  0  0  0  0  0
    6.8980   -2.8850   23.3030 C   0  0  0  0  0  0  0  0  0  0  0  0
    7.7240   -3.3670   22.3170 C   0  0  0  0  0  0  0  0  0  0  0  0
  1  2  1  0
  2  3  2  0
  2  4  1  0
  4  5  1  0
  5  6  1  0
  6  7  1  0
  7  8  1  0
  8  9  2  0
  8 10  1  0
 10 11  1  0
 11 12  1  0
 12 13  1  6
 13 14  1  0
 14 15  1  0
 14 16  2  0
 12 17  1  0
 17 18  1  0
 10 19  1  0
 18 19  1  0
 19 20  1  1
 20 21  1  0
 20 22  1  0
 20 23  1  0
  7 24  1  0
  4 25  1  0
 24 25  1  0
M  END
