piperidine-amides-23791-covalent
     RDKit          3D

 24 26  0  0  0  0  0  0  0  0999 V2000
    7.0650   -3.3410   19.3550 C   0  0  0  0  0  0  0  0  0  0  0  0
    6.4040   -4.2020   20.3500 C   0  0  0  0  0  0  0  0  0  0  0  0
    5.3640   -4.7920   19.9700 O   0  0  0  0  0  0  0  0  0  0  0  0
    6.9400   -4.4180   21.6550 N   0  0  0  0  0  0  0  0  0  0  0  0
    6.4910   -5.5500   22.3730 C   0  0  0  0  0  0  0  0  0  0  0  0
    5.8730   -5.2190   23.6550 C   0  0  0  0  0  0  0  0  0  0  0  0
    6.3930   -4.0070   24.3240 C   0  0  0  0  0  0  0  0  0  0  0  0
    5.3880   -3.5190   25.3530 C   0  0  0  0  0  0  0  0  0  0  0  0
    4.3530   -2.9540   24.9720 O   0  0  0  0  0  0  0  0  0  0  0  0
    5.6130   -3.6960   26.7370 N   0  0  0  0  0  0  0  0  0  0  0  0
    6.8000   -4.0140   27.2320 C   0  0  0  0  0  0  0  0  0  0  0  0
    6.7530   -5.0720   28.1770 C   0  0  0  0  0  0  0  0  0  0  0  0
    5.2230   -5.2970   28.2680 C   0  0  1  0  0  0  0  0  0  0  0  0
    4.8330   -6.2660   27.3660 F   0  0  0  0  0  0  0  0  0  0  0  0
    4.8710   -5.6120   29.5610 C   0  0  0  0  0  0  0  0  0  0  0  0
    5.6640   -6.8420   30.0490 C   0  0  0  0  0  0  0  0  0  0  0  0
    5.2850   -7.2160   31.4940 C   0  0  0  0  0  0  0  0  0  0  0  0
    4.2040   -6.2710   32.1080 C   0  0  0  0  0  0  0  0  0  0  0  0
    3.5000   -5.0880   31.5210 C   0  0  0  0  0  0  0  0  0  0  0  0
    2.4740   -4.3150   32.3310 C   0  0  0  0  0  0  0  0  0  0  0  0
    3.8280   -4.7010   30.1550 C   0  0  0  0  0  0  0  0  0  0  0  0
    4.6200   -4.1630   27.6610 C   0  0  0  0  0  0  0  0  0  0  0  0
    6.7830   -2.9070   23.3720 C   0  0  0  0  0  0  0  0  0  0  0  0
    7.6310   -3.3770   22.3730 C   0  0  0  0  0  0  0  0  0  0  0  0
  1  2  1  0
  2  3  2  0
  2  4  1  0
  4  5  1  0
  5  6  1  0
  6  7  1  0
  7  8  1  0
  8  9  2  0
  8 10  1  0
 10 11  1  0
 11 12  1  0
 12 13  1  0
 13 14  1  6
 13 15  1  0
 15 16  2  0
 16 17  1  0
 17 18  2  0
 18 19  1  0
 19 20  1  0
 15 21  1  0
 19 21  2  0
 10 22  1  0
 13 22  1  0
  7 23  1  0
  4 24  1  0
 23 24  1  0
M  END
