piperidine-amides-15260-covalent
     RDKit          3D

 17 18  0  0  0  0  0  0  0  0999 V2000
    7.1210   -3.2590   19.2250 C   0  0  0  0  0  0  0  0  0  0  0  0
    6.3510   -4.0340   20.2130 C   0  0  0  0  0  0  0  0  0  0  0  0
    5.2780   -4.5860   19.8930 O   0  0  0  0  0  0  0  0  0  0  0  0
    6.8420   -4.2050   21.5140 N   0  0  0  0  0  0  0  0  0  0  0  0
    7.6560   -3.1780   22.1280 C   0  0  0  0  0  0  0  0  0  0  0  0
    6.8380   -2.6200   23.2890 C   0  0  0  0  0  0  0  0  0  0  0  0
    6.5140   -3.8190   24.1420 C   0  0  0  0  0  0  0  0  0  0  0  0
    5.7010   -3.4180   25.3030 C   0  0  0  0  0  0  0  0  0  0  0  0
    4.4570   -3.5010   25.2180 O   0  0  0  0  0  0  0  0  0  0  0  0
    6.3290   -2.9490   26.4800 N   0  0  0  0  0  0  0  0  0  0  0  0
    6.5550   -1.5460   26.6330 C   0  0  0  0  0  0  0  0  0  0  0  0
    6.4890   -1.1910   28.1080 C   0  0  0  0  0  0  0  0  0  0  0  0
    6.2590    0.1870   28.3220 O   0  0  0  0  0  0  0  0  0  0  0  0
    6.6800   -2.0260   29.1730 C   0  0  0  0  0  0  0  0  0  0  0  0
    5.3880   -2.0280   28.7440 C   0  0  0  0  0  0  0  0  0  0  0  0
    5.7830   -4.8980   23.4040 C   0  0  0  0  0  0  0  0  0  0  0  0
    6.4870   -5.3550   22.3160 C   0  0  0  0  0  0  0  0  0  0  0  0
  1  2  1  0
  2  3  2  0
  2  4  1  0
  4  5  1  0
  5  6  1  0
  6  7  1  0
  7  8  1  0
  8  9  2  0
  8 10  1  0
 10 11  1  0
 11 12  1  0
 12 13  1  0
 12 14  1  0
 12 15  1  0
 14 15  1  0
  7 16  1  0
  4 17  1  0
 16 17  1  0
M  END
