piperidine-amides-4318-covalent
     RDKit          3D

 26 28  0  0  0  0  0  0  0  0999 V2000
    7.1480   -3.2800   19.2430 C   0  0  0  0  0  0  0  0  0  0  0  0
    6.3590   -3.9950   20.2600 C   0  0  0  0  0  0  0  0  0  0  0  0
    5.2830   -4.5180   19.8790 O   0  0  0  0  0  0  0  0  0  0  0  0
    6.8240   -4.1310   21.5920 N   0  0  0  0  0  0  0  0  0  0  0  0
    6.4150   -5.2560   22.3410 C   0  0  0  0  0  0  0  0  0  0  0  0
    5.7850   -4.8260   23.5680 C   0  0  0  0  0  0  0  0  0  0  0  0
    5.8000   -3.3500   23.7260 C   0  0  0  0  0  0  0  0  0  0  0  0
    5.4110   -2.9500   25.1250 C   0  0  0  0  0  0  0  0  0  0  0  0
    4.2630   -3.2170   25.5190 O   0  0  0  0  0  0  0  0  0  0  0  0
    6.2930   -2.2770   26.0050 N   0  0  0  0  0  0  0  0  0  0  0  0
    6.8280   -2.7610   27.2140 C   0  0  1  0  0  0  0  0  0  0  0  0
    5.8740   -2.9310   28.3070 C   0  0  0  0  0  0  0  0  0  0  0  0
    5.1560   -4.3080   28.4830 C   0  0  0  0  0  0  0  0  0  0  0  0
    4.1930   -4.6560   29.4900 C   0  0  0  0  0  0  0  0  0  0  0  0
    3.7810   -3.5770   30.5510 C   0  0  0  0  0  0  0  0  0  0  0  0
    4.5930   -2.4400   30.1390 C   0  0  0  0  0  0  0  0  0  0  0  0
    4.4150   -1.1890   31.0090 C   0  0  0  0  0  0  0  0  0  0  0  0
    5.5140   -1.8960   29.2860 C   0  0  0  0  0  0  0  0  0  0  0  0
    7.5880   -3.8660   27.1300 C   0  0  0  0  0  0  0  0  0  0  0  0
    7.6460   -4.4110   25.7100 C   0  0  0  0  0  0  0  0  0  0  0  0
    8.4580   -5.6070   25.5860 C   0  0  0  0  0  0  0  0  0  0  0  0
    9.0860   -6.1300   26.6750 C   0  0  0  0  0  0  0  0  0  0  0  0
    8.9800   -5.5740   27.9190 C   0  0  0  0  0  0  0  0  0  0  0  0
    8.2330   -4.4530   28.1360 N   0  0  0  0  0  0  0  0  0  0  0  0
    7.1010   -2.6720   23.3660 C   0  0  0  0  0  0  0  0  0  0  0  0
    7.7160   -3.1740   22.2080 C   0  0  0  0  0  0  0  0  0  0  0  0
  1  2  1  0
  2  3  2  0
  2  4  1  0
  4  5  1  0
  5  6  1  0
  6  7  1  0
  7  8  1  0
  8  9  2  0
  8 10  1  0
 11 10  1  6
 11 12  1  0
 12 13  2  0
 13 14  1  0
 14 15  2  0
 15 16  1  0
 16 17  1  0
 12 18  1  0
 16 18  2  0
 11 19  1  0
 19 20  2  0
 20 21  1  0
 21 22  2  0
 22 23  1  0
 19 24  1  0
 23 24  2  0
  7 25  1  0
  4 26  1  0
 25 26  1  0
M  END
