piperidine-amides-19561-covalent
     RDKit          3D

 22 23  0  0  0  0  0  0  0  0999 V2000
    7.1120   -3.4380   19.3530 C   0  0  0  0  0  0  0  0  0  0  0  0
    6.4380   -4.2070   20.3690 C   0  0  0  0  0  0  0  0  0  0  0  0
    5.3960   -4.8400   20.0040 O   0  0  0  0  0  0  0  0  0  0  0  0
    6.9320   -4.3310   21.6950 N   0  0  0  0  0  0  0  0  0  0  0  0
    7.8280   -3.2910   22.2270 C   0  0  0  0  0  0  0  0  0  0  0  0
    6.8080   -2.5810   23.1740 C   0  0  0  0  0  0  0  0  0  0  0  0
    6.3480   -3.6370   24.1570 C   0  0  0  0  0  0  0  0  0  0  0  0
    5.5390   -2.9110   25.3210 C   0  0  0  0  0  0  0  0  0  0  0  0
    4.6340   -2.2620   24.8190 O   0  0  0  0  0  0  0  0  0  0  0  0
    5.9930   -3.1820   26.4840 N   0  0  0  0  0  0  0  0  0  0  0  0
    6.2540   -3.8900   27.6260 C   0  0  0  0  0  0  0  0  0  0  0  0
    6.2160   -5.2120   27.9870 C   0  0  0  0  0  0  0  0  0  0  0  0
    5.9390   -6.0330   26.8940 O   0  0  0  0  0  0  0  0  0  0  0  0
    4.7850   -6.7740   26.9890 C   0  0  0  0  0  0  0  0  0  0  0  0
    6.2970   -1.9260   27.2730 C   0  0  0  0  0  0  0  0  0  0  0  0
    5.7790   -0.7190   26.5220 C   0  0  0  0  0  0  0  0  0  0  0  0
    5.9670    0.5440   27.1260 C   0  0  0  0  0  0  0  0  0  0  0  0
    6.6530    0.2300   28.3620 N   0  0  0  0  0  0  0  0  0  0  0  0
    7.2690   -0.7010   29.3450 C   0  0  0  0  0  0  0  0  0  0  0  0
    6.9610   -1.9340   28.5230 C   0  0  0  0  0  0  0  0  0  0  0  0
    5.6810   -4.8280   23.4990 C   0  0  0  0  0  0  0  0  0  0  0  0
    6.5230   -5.3850   22.5640 C   0  0  0  0  0  0  0  0  0  0  0  0
  1  2  1  0
  2  3  2  0
  2  4  1  0
  4  5  1  0
  5  6  1  0
  6  7  1  0
  7  8  1  0
  8  9  2  0
  8 10  1  0
 10 11  1  0
 11 12  1  0
 12 13  1  0
 13 14  1  0
 10 15  1  0
 15 16  2  0
 16 17  1  0
 17 18  2  0
 18 19  1  0
 15 20  1  0
 19 20  2  0
  7 21  1  0
  4 22  1  0
 21 22  1  0
M  END
