piperidine-amides-14592-covalent
     RDKit          3D

 23 24  0  0  0  0  0  0  0  0999 V2000
    7.0100   -3.3260   19.3620 C   0  0  0  0  0  0  0  0  0  0  0  0
    6.3370   -4.1560   20.3620 C   0  0  0  0  0  0  0  0  0  0  0  0
    5.3920   -4.8720   19.9840 O   0  0  0  0  0  0  0  0  0  0  0  0
    6.7680   -4.1610   21.7160 N   0  0  0  0  0  0  0  0  0  0  0  0
    7.6730   -3.1350   22.1600 C   0  0  0  0  0  0  0  0  0  0  0  0
    7.5050   -3.0030   23.6260 C   0  0  0  0  0  0  0  0  0  0  0  0
    6.1080   -3.5020   23.8690 C   0  0  0  0  0  0  0  0  0  0  0  0
    5.6610   -3.1670   25.2600 C   0  0  0  0  0  0  0  0  0  0  0  0
    4.4540   -3.2340   25.4810 O   0  0  0  0  0  0  0  0  0  0  0  0
    6.6350   -2.8100   26.1900 N   0  0  0  0  0  0  0  0  0  0  0  0
    6.5580   -1.6550   27.0310 C   0  0  0  0  0  0  0  0  0  0  0  0
    7.0000   -1.6680   28.3460 C   0  0  0  0  0  0  0  0  0  0  0  0
    6.9290   -0.5610   29.1560 C   0  0  0  0  0  0  0  0  0  0  0  0
    6.4170    0.6900   28.7810 C   0  0  0  0  0  0  0  0  0  0  0  0
    5.9160    0.7820   27.3580 C   0  0  0  0  0  0  0  0  0  0  0  0
    5.9990   -0.4610   26.4510 C   0  0  0  0  0  0  0  0  0  0  0  0
    5.4960   -0.2990   25.0630 C   0  0  0  0  0  0  0  0  0  0  0  0
    5.5620    1.0390   24.5480 N   0  0  0  0  0  0  0  0  0  0  0  0
    4.4210    1.8550   24.8860 C   0  0  0  0  0  0  0  0  0  0  0  0
    3.0320    1.3110   25.3030 C   0  0  0  0  0  0  0  0  0  0  0  0
    4.4690    3.1130   24.8660 O   0  0  0  0  0  0  0  0  0  0  0  0
    6.0490   -5.0150   23.7130 C   0  0  0  0  0  0  0  0  0  0  0  0
    6.6650   -5.3660   22.5140 C   0  0  0  0  0  0  0  0  0  0  0  0
  1  2  1  0
  2  3  2  0
  2  4  1  0
  4  5  1  0
  5  6  1  0
  6  7  1  0
  7  8  1  0
  8  9  2  0
  8 10  1  0
 10 11  1  0
 11 12  2  0
 12 13  1  0
 13 14  2  0
 14 15  1  0
 11 16  1  0
 15 16  2  0
 16 17  1  0
 17 18  1  0
 18 19  1  0
 19 20  1  0
 19 21  2  0
  7 22  1  0
  4 23  1  0
 22 23  1  0
M  END
