piperidine-amides-3277-covalent
     RDKit          3D

 22 24  0  0  0  0  0  0  0  0999 V2000
    7.0350   -3.3420   19.3180 C   0  0  0  0  0  0  0  0  0  0  0  0
    6.3510   -4.1580   20.3180 C   0  0  0  0  0  0  0  0  0  0  0  0
    5.3750   -4.8270   19.9790 O   0  0  0  0  0  0  0  0  0  0  0  0
    6.8260   -4.2290   21.6760 N   0  0  0  0  0  0  0  0  0  0  0  0
    7.7280   -3.2130   22.1760 C   0  0  0  0  0  0  0  0  0  0  0  0
    7.5000   -3.0060   23.6370 C   0  0  0  0  0  0  0  0  0  0  0  0
    6.1780   -3.6740   23.9280 C   0  0  0  0  0  0  0  0  0  0  0  0
    5.6870   -3.2890   25.2810 C   0  0  0  0  0  0  0  0  0  0  0  0
    4.4920   -3.4570   25.6220 O   0  0  0  0  0  0  0  0  0  0  0  0
    6.5800   -2.6770   26.1980 N   0  0  0  0  0  0  0  0  0  0  0  0
    6.0000   -1.6830   27.0730 C   0  0  1  0  0  0  0  0  0  0  0  0
    6.6980   -1.6260   28.3500 C   0  0  0  0  0  0  0  0  0  0  0  0
    6.5520   -0.3300   28.7270 C   0  0  0  0  0  0  0  0  0  0  0  0
    6.1130    0.6080   27.7260 C   0  0  0  0  0  0  0  0  0  0  0  0
    6.3980    1.5250   28.6310 C   0  0  0  0  0  0  0  0  0  0  0  0
    5.8930    2.2670   27.3990 C   0  0  0  0  0  0  0  0  0  0  0  0
    5.8430    4.0310   27.5490 Cl  0  0  0  0  0  0  0  0  0  0  0  0
    5.4530    1.7160   26.1350 C   0  0  0  0  0  0  0  0  0  0  0  0
    5.4060    0.3630   25.7940 C   0  0  0  0  0  0  0  0  0  0  0  0
    5.8320   -0.3710   26.8200 C   0  0  0  0  0  0  0  0  0  0  0  0
    6.1350   -5.1100   23.7050 C   0  0  0  0  0  0  0  0  0  0  0  0
    6.6620   -5.4380   22.4570 C   0  0  0  0  0  0  0  0  0  0  0  0
  1  2  1  0
  2  3  2  0
  2  4  1  0
  4  5  1  0
  5  6  1  0
  6  7  1  0
  7  8  1  0
  8  9  2  0
  8 10  1  0
 11 10  1  6
 11 12  1  0
 12 13  1  0
 13 14  1  0
 14 15  1  0
 15 16  2  0
 16 17  1  0
 16 18  1  0
 18 19  2  0
 11 20  1  0
 14 20  2  0
 19 20  1  0
  7 21  1  0
  4 22  1  0
 21 22  1  0
M  END
