piperidine-amides-11782-covalent
     RDKit          3D

 27 29  0  0  0  0  0  0  0  0999 V2000
    7.0860   -3.3330   19.3550 C   0  0  0  0  0  0  0  0  0  0  0  0
    6.4060   -4.1770   20.3270 C   0  0  0  0  0  0  0  0  0  0  0  0
    5.4060   -4.8170   19.9850 O   0  0  0  0  0  0  0  0  0  0  0  0
    6.9350   -4.2990   21.6640 N   0  0  0  0  0  0  0  0  0  0  0  0
    7.7730   -3.2450   22.2210 C   0  0  0  0  0  0  0  0  0  0  0  0
    7.3740   -2.9290   23.6330 C   0  0  0  0  0  0  0  0  0  0  0  0
    6.0240   -3.5760   23.8140 C   0  0  0  0  0  0  0  0  0  0  0  0
    5.2780   -3.0350   24.9770 C   0  0  0  0  0  0  0  0  0  0  0  0
    4.1200   -2.6000   24.8500 O   0  0  0  0  0  0  0  0  0  0  0  0
    5.8310   -3.0080   26.2640 N   0  0  0  0  0  0  0  0  0  0  0  0
    5.2640   -4.0350   27.1100 C   0  0  0  0  0  0  0  0  0  0  0  0
    5.6220   -5.4630   26.7540 C   0  0  0  0  0  0  0  0  0  0  0  0
    5.1160   -6.4950   27.5240 C   0  0  0  0  0  0  0  0  0  0  0  0
    4.2830   -6.1870   28.6090 C   0  0  0  0  0  0  0  0  0  0  0  0
    3.9580   -4.8860   28.9220 C   0  0  0  0  0  0  0  0  0  0  0  0
    3.1140   -4.3900   29.9970 C   0  0  0  0  0  0  0  0  0  0  0  0
    4.4330   -3.8480   28.1970 C   0  0  0  0  0  0  0  0  0  0  0  0
    6.0560   -1.7070   26.8960 C   0  0  0  0  0  0  0  0  0  0  0  0
    5.8040   -0.4960   26.3100 C   0  0  0  0  0  0  0  0  0  0  0  0
    6.0820    0.6540   27.1090 C   0  0  0  0  0  0  0  0  0  0  0  0
    6.5750    0.6050   28.3810 C   0  0  0  0  0  0  0  0  0  0  0  0
    6.8850   -0.5630   29.1040 C   0  0  0  0  0  0  0  0  0  0  0  0
    7.2780   -1.0720   30.0790 N   0  0  0  0  0  0  0  0  0  0  0  0
    6.5420   -1.7290   28.1590 C   0  0  0  0  0  0  0  0  0  0  0  0
    6.7650   -3.1210   28.7060 C   0  0  0  0  0  0  0  0  0  0  0  0
    6.1470   -5.0600   23.7550 C   0  0  0  0  0  0  0  0  0  0  0  0
    6.6800   -5.5010   22.4340 C   0  0  0  0  0  0  0  0  0  0  0  0
  1  2  1  0
  2  3  2  0
  2  4  1  0
  4  5  1  0
  5  6  1  0
  6  7  1  0
  7  8  1  0
  8  9  2  0
  8 10  1  0
 10 11  1  0
 11 12  2  0
 12 13  1  0
 13 14  2  0
 14 15  1  0
 15 16  1  0
 11 17  1  0
 15 17  2  0
 10 18  1  0
 18 19  2  0
 19 20  1  0
 20 21  2  0
 21 22  1  0
 22 23  1  0
 18 24  1  0
 22 24  2  0
 24 25  1  0
  7 26  1  0
  4 27  1  0
 26 27  1  0
M  END
