piperidine-amides-33336-covalent
     RDKit          3D

 28 30  0  0  0  0  0  0  0  0999 V2000
    7.0890   -3.3420   19.3200 C   0  0  0  0  0  0  0  0  0  0  0  0
    6.4200   -4.1880   20.3190 C   0  0  0  0  0  0  0  0  0  0  0  0
    5.3650   -4.7650   19.9640 O   0  0  0  0  0  0  0  0  0  0  0  0
    6.9890   -4.3840   21.6030 N   0  0  0  0  0  0  0  0  0  0  0  0
    6.5320   -5.4850   22.3750 C   0  0  0  0  0  0  0  0  0  0  0  0
    6.0300   -5.1320   23.7080 C   0  0  0  0  0  0  0  0  0  0  0  0
    6.6890   -3.9840   24.3790 C   0  0  0  0  0  0  0  0  0  0  0  0
    5.9050   -3.5590   25.5860 C   0  0  0  0  0  0  0  0  0  0  0  0
    4.7980   -3.0110   25.4130 O   0  0  0  0  0  0  0  0  0  0  0  0
    6.3650   -3.7580   26.9080 N   0  0  0  0  0  0  0  0  0  0  0  0
    5.7960   -3.2320   28.0830 C   0  0  0  0  0  0  0  0  0  0  0  0
    5.1660   -4.1390   29.0460 C   0  0  0  0  0  0  0  0  0  0  0  0
    6.0180   -5.4230   29.2130 C   0  0  0  0  0  0  0  0  0  0  0  0
    5.2120   -6.5100   30.2750 S   0  0  0  0  0  0  0  0  0  0  0  0
    6.0550   -6.7520   31.5040 O   0  0  0  0  0  0  0  0  0  0  0  0
    5.0250   -7.8130   29.5890 O   0  0  0  0  0  0  0  0  0  0  0  0
    3.6290   -5.8990   30.8230 C   0  0  0  0  0  0  0  0  0  0  0  0
    2.5230   -6.1880   29.7810 C   0  0  0  0  0  0  0  0  0  0  0  0
    1.0930   -5.7320   30.0940 C   0  0  0  0  0  0  0  0  0  0  0  0
    0.8380   -5.0040   31.4410 C   0  0  0  0  0  0  0  0  0  0  0  0
   -0.4290   -4.5690   31.7810 O   0  0  0  0  0  0  0  0  0  0  0  0
   -1.0010   -4.7490   33.0410 C   0  0  0  0  0  0  0  0  0  0  0  0
    1.8880   -4.7060   32.4740 C   0  0  0  0  0  0  0  0  0  0  0  0
    3.2580   -5.1820   32.0990 C   0  0  0  0  0  0  0  0  0  0  0  0
    6.2980   -5.8940   27.9550 C   0  0  0  0  0  0  0  0  0  0  0  0
    7.0560   -4.9280   27.3830 C   0  0  0  0  0  0  0  0  0  0  0  0
    6.9460   -2.8410   23.4600 C   0  0  0  0  0  0  0  0  0  0  0  0
    7.6790   -3.2890   22.2280 C   0  0  0  0  0  0  0  0  0  0  0  0
  1  2  1  0
  2  3  2  0
  2  4  1  0
  4  5  1  0
  5  6  1  0
  6  7  1  0
  7  8  1  0
  8  9  2  0
  8 10  1  0
 10 11  1  0
 11 12  1  0
 12 13  1  0
 13 14  1  0
 14 15  2  0
 14 16  2  0
 14 17  1  0
 17 18  2  0
 18 19  1  0
 19 20  2  0
 20 21  1  0
 21 22  1  0
 20 23  1  0
 17 24  1  0
 23 24  2  0
 13 25  1  0
 10 26  1  0
 25 26  1  0
  7 27  1  0
  4 28  1  0
 27 28  1  0
M  END
