piperidine-amides-6921-covalent
     RDKit          3D

 23 24  0  0  0  0  0  0  0  0999 V2000
    7.1360   -3.2740   19.1840 C   0  0  0  0  0  0  0  0  0  0  0  0
    6.3970   -4.0540   20.1870 C   0  0  0  0  0  0  0  0  0  0  0  0
    5.2990   -4.5750   19.8930 O   0  0  0  0  0  0  0  0  0  0  0  0
    6.9410   -4.2740   21.4520 N   0  0  0  0  0  0  0  0  0  0  0  0
    6.4910   -5.4260   22.1830 C   0  0  0  0  0  0  0  0  0  0  0  0
    5.6410   -4.8520   23.3130 C   0  0  0  0  0  0  0  0  0  0  0  0
    6.5450   -3.8980   24.0680 C   0  0  0  0  0  0  0  0  0  0  0  0
    5.8010   -3.3380   25.1970 C   0  0  0  0  0  0  0  0  0  0  0  0
    4.6630   -2.8570   25.0040 O   0  0  0  0  0  0  0  0  0  0  0  0
    6.3940   -3.3610   26.4610 N   0  0  0  0  0  0  0  0  0  0  0  0
    5.8350   -4.1890   27.4770 C   0  0  1  0  0  0  0  0  0  0  0  0
    5.9640   -5.6680   27.1470 C   0  0  0  0  0  0  0  0  0  0  0  0
    6.4880   -3.8580   28.7400 C   0  0  0  0  0  0  0  0  0  0  0  0
    5.7670   -3.7080   29.7480 O   0  0  0  0  0  0  0  0  0  0  0  0
    4.8310   -4.6860   29.8660 C   0  0  0  0  0  0  0  0  0  0  0  0
    5.2900   -6.0330   29.7520 C   0  0  0  0  0  0  0  0  0  0  0  0
    4.3920   -7.0530   29.8610 C   0  0  0  0  0  0  0  0  0  0  0  0
    2.9900   -6.6580   30.0940 C   0  0  0  0  0  0  0  0  0  0  0  0
    2.7140   -8.1360   30.0880 C   0  0  0  0  0  0  0  0  0  0  0  0
    2.4330   -5.3540   30.2240 C   0  0  0  0  0  0  0  0  0  0  0  0
    3.4770   -4.3230   30.0920 C   0  0  0  0  0  0  0  0  0  0  0  0
    6.9740   -2.7570   23.1970 C   0  0  0  0  0  0  0  0  0  0  0  0
    7.6270   -3.2050   22.0990 C   0  0  0  0  0  0  0  0  0  0  0  0
  1  2  1  0
  2  3  2  0
  2  4  1  0
  4  5  1  0
  5  6  1  0
  6  7  1  0
  7  8  1  0
  8  9  2  0
  8 10  1  0
 10 11  1  0
 11 12  1  6
 11 13  1  0
 13 14  1  0
 14 15  1  0
 15 16  2  0
 16 17  1  0
 17 18  2  0
 18 19  1  0
 18 20  1  0
 15 21  1  0
 20 21  2  0
  7 22  1  0
  4 23  1  0
 22 23  1  0
M  END
