piperidine-amides-32403-covalent
     RDKit          3D

 23 25  0  0  0  0  0  0  0  0999 V2000
    7.0230   -3.3350   19.3350 C   0  0  0  0  0  0  0  0  0  0  0  0
    6.3440   -4.1930   20.3480 C   0  0  0  0  0  0  0  0  0  0  0  0
    5.3810   -4.8880   19.9880 O   0  0  0  0  0  0  0  0  0  0  0  0
    6.8300   -4.2260   21.6750 N   0  0  0  0  0  0  0  0  0  0  0  0
    7.6880   -3.1840   22.2210 C   0  0  0  0  0  0  0  0  0  0  0  0
    7.4710   -3.0610   23.7400 C   0  0  0  0  0  0  0  0  0  0  0  0
    6.1570   -3.6950   24.0470 C   0  0  0  0  0  0  0  0  0  0  0  0
    5.5480   -3.4090   25.3740 C   0  0  0  0  0  0  0  0  0  0  0  0
    4.3240   -3.5460   25.4110 O   0  0  0  0  0  0  0  0  0  0  0  0
    6.2680   -2.9980   26.5090 N   0  0  0  0  0  0  0  0  0  0  0  0
    6.3310   -3.7990   27.6850 C   0  0  0  0  0  0  0  0  0  0  0  0
    6.2430   -1.5980   26.7830 C   0  0  0  0  0  0  0  0  0  0  0  0
    6.4170   -1.0200   28.1220 N   0  0  0  0  0  0  0  0  0  0  0  0
    6.3480    0.3540   28.1670 C   0  0  0  0  0  0  0  0  0  0  0  0
    6.4910    1.0580   29.3380 C   0  0  0  0  0  0  0  0  0  0  0  0
    6.3950    2.5450   29.2470 C   0  0  0  0  0  0  0  0  0  0  0  0
    6.5840    3.6230   30.8330 Br  0  0  0  0  0  0  0  0  0  0  0  0
    6.1490    3.2440   27.8960 C   0  0  0  0  0  0  0  0  0  0  0  0
    6.0190    2.2820   26.7140 C   0  0  0  0  0  0  0  0  0  0  0  0
    6.1340    0.9420   26.9880 C   0  0  0  0  0  0  0  0  0  0  0  0
    5.9880   -0.1390   25.6910 S   0  0  0  0  0  0  0  0  0  0  0  0
    6.1410   -5.1570   23.7960 C   0  0  0  0  0  0  0  0  0  0  0  0
    6.6700   -5.4670   22.4130 C   0  0  0  0  0  0  0  0  0  0  0  0
  1  2  1  0
  2  3  2  0
  2  4  1  0
  4  5  1  0
  5  6  1  0
  6  7  1  0
  7  8  1  0
  8  9  2  0
  8 10  1  0
 10 11  1  0
 10 12  1  0
 12 13  2  0
 13 14  1  0
 14 15  2  0
 15 16  1  0
 16 17  1  0
 16 18  2  0
 18 19  1  0
 14 20  1  0
 19 20  2  0
 12 21  1  0
 20 21  1  0
  7 22  1  0
  4 23  1  0
 22 23  1  0
M  END
