piperidine-amides-6812-covalent
     RDKit          3D

 23 24  0  0  0  0  0  0  0  0999 V2000
    7.1020   -3.2120   19.1980 C   0  0  0  0  0  0  0  0  0  0  0  0
    6.3140   -3.9510   20.2010 C   0  0  0  0  0  0  0  0  0  0  0  0
    5.2760   -4.5650   19.8800 O   0  0  0  0  0  0  0  0  0  0  0  0
    6.7350   -4.0080   21.5280 N   0  0  0  0  0  0  0  0  0  0  0  0
    7.5810   -2.9580   22.0330 C   0  0  0  0  0  0  0  0  0  0  0  0
    7.2300   -2.7120   23.5040 C   0  0  0  0  0  0  0  0  0  0  0  0
    5.8690   -3.3150   23.8400 C   0  0  0  0  0  0  0  0  0  0  0  0
    5.6710   -3.2030   25.3020 C   0  0  0  0  0  0  0  0  0  0  0  0
    4.5250   -2.9270   25.7260 O   0  0  0  0  0  0  0  0  0  0  0  0
    6.7750   -3.4030   26.1750 N   0  0  0  0  0  0  0  0  0  0  0  0
    6.5850   -3.8060   27.5440 C   0  0  0  0  0  0  0  0  0  0  0  0
    5.7650   -5.0950   27.6130 C   0  0  1  0  0  0  0  0  0  0  0  0
    4.6390   -5.2650   26.8640 C   0  0  0  0  0  0  0  0  0  0  0  0
    6.5430   -6.1420   27.0880 O   0  0  0  0  0  0  0  0  0  0  0  0
    7.7660   -5.6560   26.8680 C   0  0  0  0  0  0  0  0  0  0  0  0
    8.6720   -5.5630   27.8450 C   0  0  0  0  0  0  0  0  0  0  0  0
    9.9210   -5.0500   27.5870 C   0  0  0  0  0  0  0  0  0  0  0  0
   10.7050   -4.4680   26.3600 C   0  0  0  0  0  0  0  0  0  0  0  0
    9.5570   -4.6420   25.3890 C   0  0  0  0  0  0  0  0  0  0  0  0
    8.2720   -5.2070   25.7610 C   0  0  0  0  0  0  0  0  0  0  0  0
    7.9990   -4.9770   24.3570 C   0  0  0  0  0  0  0  0  0  0  0  0
    5.7040   -4.7780   23.4540 C   0  0  0  0  0  0  0  0  0  0  0  0
    6.3540   -5.1240   22.3040 C   0  0  0  0  0  0  0  0  0  0  0  0
  1  2  1  0
  2  3  2  0
  2  4  1  0
  4  5  1  0
  5  6  1  0
  6  7  1  0
  7  8  1  0
  8  9  2  0
  8 10  1  0
 10 11  1  0
 11 12  1  0
 12 13  1  6
 12 14  1  0
 14 15  1  0
 15 16  2  0
 16 17  1  0
 17 18  2  0
 18 19  1  0
 15 20  1  0
 19 20  2  0
 20 21  1  0
  7 22  1  0
  4 23  1  0
 22 23  1  0
M  END
