piperidine-amides-23711-covalent
     RDKit          3D

 24 26  0  0  0  0  0  0  0  0999 V2000
    7.0690   -3.3740   19.3990 C   0  0  0  0  0  0  0  0  0  0  0  0
    6.4370   -4.2640   20.3890 C   0  0  0  0  0  0  0  0  0  0  0  0
    5.4080   -4.8730   19.9970 O   0  0  0  0  0  0  0  0  0  0  0  0
    6.9950   -4.4790   21.6890 N   0  0  0  0  0  0  0  0  0  0  0  0
    6.4720   -5.5140   22.4920 C   0  0  0  0  0  0  0  0  0  0  0  0
    5.9190   -5.0770   23.7830 C   0  0  0  0  0  0  0  0  0  0  0  0
    6.3220   -3.7500   24.3440 C   0  0  0  0  0  0  0  0  0  0  0  0
    5.2410   -3.1990   25.2580 C   0  0  0  0  0  0  0  0  0  0  0  0
    4.1800   -2.8320   24.7390 O   0  0  0  0  0  0  0  0  0  0  0  0
    5.3610   -3.0800   26.6710 N   0  0  0  0  0  0  0  0  0  0  0  0
    6.4980   -3.3440   27.3510 C   0  0  0  0  0  0  0  0  0  0  0  0
    6.4610   -4.5210   28.2210 C   0  0  0  0  0  0  0  0  0  0  0  0
    5.3630   -4.6150   28.9580 N   0  0  0  0  0  0  0  0  0  0  0  0
    4.6950   -5.8030   29.4300 C   0  0  0  0  0  0  0  0  0  0  0  0
    4.2370   -6.6980   28.5260 C   0  0  0  0  0  0  0  0  0  0  0  0
    3.5090   -7.7970   29.3690 C   0  0  0  0  0  0  0  0  0  0  0  0
    3.8610   -7.9230   30.8600 C   0  0  0  0  0  0  0  0  0  0  0  0
    4.9280   -6.9210   31.3180 C   0  0  0  0  0  0  0  0  0  0  0  0
    5.9890   -7.1650   32.2020 O   0  0  0  0  0  0  0  0  0  0  0  0
    4.6520   -5.7770   30.7200 N   0  0  0  0  0  0  0  0  0  0  0  0
    4.6190   -3.4440   28.9450 C   0  0  0  0  0  0  0  0  0  0  0  0
    4.2480   -2.9320   27.5450 C   0  0  0  0  0  0  0  0  0  0  0  0
    6.6530   -2.7090   23.2540 C   0  0  0  0  0  0  0  0  0  0  0  0
    7.6510   -3.3410   22.3480 C   0  0  0  0  0  0  0  0  0  0  0  0
  1  2  1  0
  2  3  2  0
  2  4  1  0
  4  5  1  0
  5  6  1  0
  6  7  1  0
  7  8  1  0
  8  9  2  0
  8 10  1  0
 10 11  1  0
 11 12  1  0
 12 13  1  0
 13 14  1  0
 14 15  2  0
 15 16  1  0
 16 17  2  0
 17 18  1  0
 18 19  2  0
 14 20  1  0
 18 20  1  0
 13 21  1  0
 10 22  1  0
 21 22  1  0
  7 23  1  0
  4 24  1  0
 23 24  1  0
M  END
