piperidine-amides-12602-covalent
     RDKit          3D

 23 24  0  0  0  0  0  0  0  0999 V2000
    7.1400   -3.2980   19.2690 C   0  0  0  0  0  0  0  0  0  0  0  0
    6.3660   -4.0530   20.2740 C   0  0  0  0  0  0  0  0  0  0  0  0
    5.2880   -4.5500   19.8880 O   0  0  0  0  0  0  0  0  0  0  0  0
    6.8650   -4.2400   21.5730 N   0  0  0  0  0  0  0  0  0  0  0  0
    7.5820   -3.2010   22.2330 C   0  0  0  0  0  0  0  0  0  0  0  0
    7.1790   -2.9260   23.6220 C   0  0  0  0  0  0  0  0  0  0  0  0
    6.2150   -3.8600   24.2770 C   0  0  0  0  0  0  0  0  0  0  0  0
    5.1860   -3.0770   25.0140 C   0  0  0  0  0  0  0  0  0  0  0  0
    4.0160   -3.1170   24.6040 O   0  0  0  0  0  0  0  0  0  0  0  0
    5.4900   -2.3090   26.1500 N   0  0  0  0  0  0  0  0  0  0  0  0
    6.3310   -2.8460   27.2160 C   0  0  0  0  0  0  0  0  0  0  0  0
    5.7440   -4.0380   27.8710 C   0  0  0  0  0  0  0  0  0  0  0  0
    6.5870   -4.8370   28.7340 C   0  0  0  0  0  0  0  0  0  0  0  0
    6.1740   -5.9520   29.3870 C   0  0  0  0  0  0  0  0  0  0  0  0
    4.8850   -6.3820   29.2570 C   0  0  0  0  0  0  0  0  0  0  0  0
    4.4630   -7.4850   29.9080 C   0  0  0  0  0  0  0  0  0  0  0  0
    4.9170   -7.4980   31.1940 C   0  0  0  0  0  0  0  0  0  0  0  0
    3.1090   -7.7330   29.8180 C   0  0  0  0  0  0  0  0  0  0  0  0
    5.0720   -8.4690   29.1230 O   0  0  0  0  0  0  0  0  0  0  0  0
    4.0140   -5.6790   28.4530 C   0  0  0  0  0  0  0  0  0  0  0  0
    4.4440   -4.4640   27.7280 C   0  0  0  0  0  0  0  0  0  0  0  0
    5.5200   -4.8440   23.3910 C   0  0  0  0  0  0  0  0  0  0  0  0
    6.4790   -5.3680   22.3680 C   0  0  0  0  0  0  0  0  0  0  0  0
  1  2  1  0
  2  3  2  0
  2  4  1  0
  4  5  1  0
  5  6  1  0
  6  7  1  0
  7  8  1  0
  8  9  2  0
  8 10  1  0
 10 11  1  0
 11 12  1  0
 12 13  2  0
 13 14  1  0
 14 15  2  0
 15 16  1  0
 16 17  1  0
 16 18  1  0
 16 19  1  0
 15 20  1  0
 12 21  1  0
 20 21  2  0
  7 22  1  0
  4 23  1  0
 22 23  1  0
M  END
