piperidine-amides-25442-covalent
     RDKit          3D

 25 27  0  0  0  0  0  0  0  0999 V2000
    7.1250   -3.2900   19.2330 C   0  0  0  0  0  0  0  0  0  0  0  0
    6.3540   -4.0510   20.2470 C   0  0  0  0  0  0  0  0  0  0  0  0
    5.2900   -4.5540   19.8850 O   0  0  0  0  0  0  0  0  0  0  0  0
    6.8740   -4.2150   21.5350 N   0  0  0  0  0  0  0  0  0  0  0  0
    6.5480   -5.3690   22.3280 C   0  0  0  0  0  0  0  0  0  0  0  0
    5.8360   -4.9240   23.5770 C   0  0  0  0  0  0  0  0  0  0  0  0
    6.5490   -3.7140   24.1970 C   0  0  0  0  0  0  0  0  0  0  0  0
    5.7720   -3.3120   25.3880 C   0  0  0  0  0  0  0  0  0  0  0  0
    4.5360   -3.2950   25.3090 O   0  0  0  0  0  0  0  0  0  0  0  0
    6.4010   -2.9480   26.6020 N   0  0  0  0  0  0  0  0  0  0  0  0
    6.7780   -1.5630   26.7570 C   0  0  0  0  0  0  0  0  0  0  0  0
    6.3700   -3.8470   27.7220 C   0  0  0  0  0  0  0  0  0  0  0  0
    5.3380   -3.5790   28.5720 C   0  0  0  0  0  0  0  0  0  0  0  0
    4.8720   -4.4100   29.5830 N   0  0  0  0  0  0  0  0  0  0  0  0
    3.8350   -3.6070   30.0920 C   0  0  0  0  0  0  0  0  0  0  0  0
    3.0140   -3.9380   31.1340 C   0  0  0  0  0  0  0  0  0  0  0  0
    2.5770   -3.1570   32.3940 C   0  0  0  0  0  0  0  0  0  0  0  0
    1.6330   -3.7730   33.4170 C   0  0  0  0  0  0  0  0  0  0  0  0
    1.0950   -5.1620   33.2330 C   0  0  0  0  0  0  0  0  0  0  0  0
    1.4670   -5.8340   32.1600 N   0  0  0  0  0  0  0  0  0  0  0  0
    2.3450   -5.2940   31.1830 C   0  0  0  0  0  0  0  0  0  0  0  0
    3.7360   -2.4300   29.4180 N   0  0  0  0  0  0  0  0  0  0  0  0
    4.6970   -2.4710   28.4850 O   0  0  0  0  0  0  0  0  0  0  0  0
    6.7700   -2.5900   23.2310 C   0  0  0  0  0  0  0  0  0  0  0  0
    7.6510   -3.1540   22.1340 C   0  0  0  0  0  0  0  0  0  0  0  0
  1  2  1  0
  2  3  2  0
  2  4  1  0
  4  5  1  0
  5  6  1  0
  6  7  1  0
  7  8  1  0
  8  9  2  0
  8 10  1  0
 10 11  1  0
 10 12  1  0
 12 13  1  0
 13 14  2  0
 14 15  1  0
 15 16  1  0
 16 17  2  0
 17 18  1  0
 18 19  2  0
 19 20  1  0
 16 21  1  0
 20 21  2  0
 15 22  2  0
 13 23  1  0
 22 23  1  0
  7 24  1  0
  4 25  1  0
 24 25  1  0
M  END
