piperidine-amides-18893-covalent
     RDKit          3D

 21 21  0  0  0  0  0  0  0  0999 V2000
    7.1870   -3.2790   19.3370 C   0  0  0  0  0  0  0  0  0  0  0  0
    6.3800   -3.9810   20.3080 C   0  0  0  0  0  0  0  0  0  0  0  0
    5.3340   -4.5890   19.9070 O   0  0  0  0  0  0  0  0  0  0  0  0
    6.7560   -4.0430   21.6610 N   0  0  0  0  0  0  0  0  0  0  0  0
    6.7460   -5.4170   22.2210 C   0  0  0  0  0  0  0  0  0  0  0  0
    6.1230   -5.2100   23.6510 C   0  0  0  0  0  0  0  0  0  0  0  0
    6.2450   -3.7430   23.9800 C   0  0  0  0  0  0  0  0  0  0  0  0
    5.2970   -3.4180   25.2180 C   0  0  0  0  0  0  0  0  0  0  0  0
    4.1470   -3.6930   24.9230 O   0  0  0  0  0  0  0  0  0  0  0  0
    5.9240   -2.9330   26.2130 N   0  0  0  0  0  0  0  0  0  0  0  0
    6.5790   -1.9580   26.9020 C   0  0  0  0  0  0  0  0  0  0  0  0
    5.5080   -3.7510   27.3140 C   0  0  1  0  0  0  0  0  0  0  0  0
    5.4700   -5.1770   27.2900 C   0  0  0  0  0  0  0  0  0  0  0  0
    5.1560   -5.8220   26.0070 C   0  0  0  0  0  0  0  0  0  0  0  0
    6.3590   -3.9020   28.5940 C   0  0  0  0  0  0  0  0  0  0  0  0
    6.9200   -2.6960   29.0680 O   0  0  0  0  0  0  0  0  0  0  0  0
    6.5960   -4.9030   29.3510 O   0  0  0  0  0  0  0  0  0  0  0  0
    6.5800   -6.1910   28.8210 C   0  0  0  0  0  0  0  0  0  0  0  0
    5.7840   -6.9560   29.6820 C   0  0  0  0  0  0  0  0  0  0  0  0
    7.5200   -3.1390   23.7810 C   0  0  0  0  0  0  0  0  0  0  0  0
    7.6780   -3.1170   22.2310 C   0  0  0  0  0  0  0  0  0  0  0  0
  1  2  1  0
  2  3  2  0
  2  4  1  0
  4  5  1  0
  5  6  1  0
  6  7  1  0
  7  8  1  0
  8  9  2  0
  8 10  1  0
 10 11  1  0
 10 12  1  0
 12 13  1  6
 13 14  1  0
 12 15  1  0
 15 16  2  0
 15 17  1  0
 17 18  1  0
 18 19  1  0
  7 20  1  0
  4 21  1  0
 20 21  1  0
M  END
