piperidine-amides-25796-covalent
     RDKit          3D

 25 27  0  0  0  0  0  0  0  0999 V2000
    7.1400   -3.2680   19.1510 C   0  0  0  0  0  0  0  0  0  0  0  0
    6.3800   -4.0140   20.1860 C   0  0  0  0  0  0  0  0  0  0  0  0
    5.2950   -4.4910   19.8660 O   0  0  0  0  0  0  0  0  0  0  0  0
    6.9460   -4.1930   21.4450 N   0  0  0  0  0  0  0  0  0  0  0  0
    7.7510   -3.1680   22.0490 C   0  0  0  0  0  0  0  0  0  0  0  0
    6.9870   -2.6430   23.2100 C   0  0  0  0  0  0  0  0  0  0  0  0
    6.6230   -3.8280   24.0930 C   0  0  0  0  0  0  0  0  0  0  0  0
    5.7390   -3.3170   25.1330 C   0  0  0  0  0  0  0  0  0  0  0  0
    4.5370   -3.1390   24.8990 O   0  0  0  0  0  0  0  0  0  0  0  0
    6.2690   -3.0470   26.3840 N   0  0  0  0  0  0  0  0  0  0  0  0
    6.6100   -1.6860   26.7520 C   0  0  0  0  0  0  0  0  0  0  0  0
    5.3580   -0.8370   26.6550 C   0  0  0  0  0  0  0  0  0  0  0  0
    5.5720    0.5260   26.5700 C   0  0  0  0  0  0  0  0  0  0  0  0
    4.6080    1.4250   26.4800 C   0  0  0  0  0  0  0  0  0  0  0  0
    3.3830    0.9580   26.4720 C   0  0  0  0  0  0  0  0  0  0  0  0
    2.9820   -0.4780   26.5550 C   0  0  0  0  0  0  0  0  0  0  0  0
    4.0340   -1.5830   26.6620 C   0  0  0  0  0  0  0  0  0  0  0  0
    6.0930   -4.0150   27.4180 C   0  0  0  0  0  0  0  0  0  0  0  0
    6.5980   -3.6520   28.7420 C   0  0  0  0  0  0  0  0  0  0  0  0
    5.5140   -3.1510   29.4340 O   0  0  0  0  0  0  0  0  0  0  0  0
    4.7920   -4.8380   27.6510 C   0  0  0  0  0  0  0  0  0  0  0  0
    5.5380   -6.0660   27.2960 C   0  0  0  0  0  0  0  0  0  0  0  0
    6.7730   -5.3490   27.0610 C   0  0  0  0  0  0  0  0  0  0  0  0
    5.8590   -4.9060   23.3290 C   0  0  0  0  0  0  0  0  0  0  0  0
    6.6060   -5.3440   22.2570 C   0  0  0  0  0  0  0  0  0  0  0  0
  1  2  1  0
  2  3  2  0
  2  4  1  0
  4  5  1  0
  5  6  1  0
  6  7  1  0
  7  8  1  0
  8  9  2  0
  8 10  1  0
 10 11  1  0
 11 12  1  0
 12 13  2  0
 13 14  1  0
 14 15  2  0
 15 16  1  0
 12 17  1  0
 16 17  2  0
 18 10  1  0
 18 19  1  0
 19 20  1  0
 18 21  1  0
 21 22  1  0
 18 23  1  0
 22 23  1  0
  7 24  1  0
  4 25  1  0
 24 25  1  0
M  END
