piperidine-amides-35017-covalent
     RDKit          3D

 33 36  0  0  0  0  0  0  0  0999 V2000
    7.0190   -3.3450   19.3440 C   0  0  0  0  0  0  0  0  0  0  0  0
    6.3350   -4.2220   20.3350 C   0  0  0  0  0  0  0  0  0  0  0  0
    5.3260   -4.8070   19.9600 O   0  0  0  0  0  0  0  0  0  0  0  0
    6.8490   -4.4020   21.6210 N   0  0  0  0  0  0  0  0  0  0  0  0
    6.7560   -5.6930   22.2630 C   0  0  0  0  0  0  0  0  0  0  0  0
    6.0610   -5.5420   23.5790 C   0  0  0  0  0  0  0  0  0  0  0  0
    6.0820   -4.0650   23.9250 C   0  0  0  0  0  0  0  0  0  0  0  0
    5.5490   -3.8810   25.2920 C   0  0  0  0  0  0  0  0  0  0  0  0
    4.3300   -4.0330   25.4430 O   0  0  0  0  0  0  0  0  0  0  0  0
    6.3000   -3.5070   26.4260 N   0  0  0  0  0  0  0  0  0  0  0  0
    5.6700   -3.8060   27.6540 C   0  0  0  0  0  0  0  0  0  0  0  0
    5.9200   -4.9870   28.7510 C   0  0  0  0  0  0  0  0  0  0  0  0
    6.6720   -6.2320   29.2350 C   0  0  0  0  0  0  0  0  0  0  0  0
    5.8360   -6.0190   30.1030 C   0  0  0  0  0  0  0  0  0  0  0  0
    5.4420   -5.0760   29.5150 C   0  0  0  0  0  0  0  0  0  0  0  0
    6.1280   -4.7510   28.1700 C   0  0  0  0  0  0  0  0  0  0  0  0
    5.1530   -3.9490   28.6020 N   0  0  0  0  0  0  0  0  0  0  0  0
    5.5000   -2.6870   28.1670 C   0  0  0  0  0  0  0  0  0  0  0  0
    5.3890   -1.5970   28.9750 O   0  0  0  0  0  0  0  0  0  0  0  0
    6.0100   -2.2090   26.8010 C   0  0  1  0  0  0  0  0  0  0  0  0
    6.9470   -1.1510   27.1970 C   0  0  0  0  0  0  0  0  0  0  0  0
    6.2630    0.1800   27.0800 C   0  0  0  0  0  0  0  0  0  0  0  0
    5.4340    0.4760   26.1900 O   0  0  0  0  0  0  0  0  0  0  0  0
    6.7240    1.0670   28.1730 N   0  0  0  0  0  0  0  0  0  0  0  0
    6.0440    1.0880   29.4100 C   0  0  0  0  0  0  0  0  0  0  0  0
    4.9530    2.1110   29.6180 C   0  0  0  0  0  0  0  0  0  0  0  0
    4.1900    2.1790   30.9300 C   0  0  0  0  0  0  0  0  0  0  0  0
    4.4950    1.3050   31.9320 C   0  0  0  0  0  0  0  0  0  0  0  0
    5.5660    0.2850   31.7550 C   0  0  0  0  0  0  0  0  0  0  0  0
    6.3370    0.2090   30.4410 C   0  0  0  0  0  0  0  0  0  0  0  0
    7.4250   -0.8390   30.2760 C   0  0  0  0  0  0  0  0  0  0  0  0
    7.3740   -3.3720   23.7010 C   0  0  0  0  0  0  0  0  0  0  0  0
    7.6080   -3.3000   22.1890 C   0  0  0  0  0  0  0  0  0  0  0  0
  1  2  1  0
  2  3  2  0
  2  4  1  0
  4  5  1  0
  5  6  1  0
  6  7  1  0
  7  8  1  0
  8  9  2  0
  8 10  1  0
 10 11  1  0
 11 12  2  0
 12 13  1  0
 13 14  2  0
 14 15  1  0
 11 16  1  0
 15 16  2  0
 16 17  1  0
 17 18  1  0
 18 19  2  0
 10 20  1  0
 18 20  1  0
 20 21  1  1
 21 22  1  0
 22 23  2  0
 22 24  1  0
 24 25  1  0
 25 26  2  0
 26 27  1  0
 27 28  2  0
 28 29  1  0
 25 30  1  0
 29 30  2  0
 30 31  1  0
  7 32  1  0
  4 33  1  0
 32 33  1  0
M  END
