piperidine-amides-28737-covalent
     RDKit          3D

 26 28  0  0  0  0  0  0  0  0999 V2000
    6.9960   -3.4020   19.4680 C   0  0  0  0  0  0  0  0  0  0  0  0
    6.3810   -4.3510   20.3940 C   0  0  0  0  0  0  0  0  0  0  0  0
    5.3690   -4.9500   19.9970 O   0  0  0  0  0  0  0  0  0  0  0  0
    6.9550   -4.6130   21.6720 N   0  0  0  0  0  0  0  0  0  0  0  0
    6.4970   -5.7590   22.3860 C   0  0  0  0  0  0  0  0  0  0  0  0
    5.4550   -5.3400   23.3960 C   0  0  0  0  0  0  0  0  0  0  0  0
    6.0390   -4.3150   24.3590 C   0  0  0  0  0  0  0  0  0  0  0  0
    4.9580   -3.9090   25.3850 C   0  0  0  0  0  0  0  0  0  0  0  0
    3.8320   -3.7820   24.9280 O   0  0  0  0  0  0  0  0  0  0  0  0
    5.2800   -3.6850   26.7420 N   0  0  0  0  0  0  0  0  0  0  0  0
    4.6220   -4.1950   27.8920 C   0  0  0  0  0  0  0  0  0  0  0  0
    5.5060   -4.6050   28.9060 C   0  0  0  0  0  0  0  0  0  0  0  0
    6.7130   -5.0800   28.4620 C   0  0  0  0  0  0  0  0  0  0  0  0
    6.9800   -4.9880   27.1040 C   0  0  0  0  0  0  0  0  0  0  0  0
    6.7160   -3.5040   26.8760 C   0  0  1  0  0  0  0  0  0  0  0  0
    6.6710   -2.7850   25.5070 C   0  0  0  0  0  0  0  0  0  0  0  0
    6.5230   -1.2950   25.5110 C   0  0  0  0  0  0  0  0  0  0  0  0
    6.9030   -0.6390   24.2180 C   0  0  0  0  0  0  0  0  0  0  0  0
    6.7480    0.8990   24.1960 C   0  0  0  0  0  0  0  0  0  0  0  0
    7.0600    1.6240   23.0670 F   0  0  0  0  0  0  0  0  0  0  0  0
    6.2900    1.5570   25.3200 C   0  0  0  0  0  0  0  0  0  0  0  0
    5.9450    0.9300   26.5080 C   0  0  0  0  0  0  0  0  0  0  0  0
    6.0710   -0.5750   26.6000 C   0  0  0  0  0  0  0  0  0  0  0  0
    5.7280   -1.1890   27.7740 F   0  0  0  0  0  0  0  0  0  0  0  0
    6.5590   -3.1100   23.5150 C   0  0  0  0  0  0  0  0  0  0  0  0
    7.5370   -3.5860   22.4570 C   0  0  0  0  0  0  0  0  0  0  0  0
  1  2  1  0
  2  3  2  0
  2  4  1  0
  4  5  1  0
  5  6  1  0
  6  7  1  0
  7  8  1  0
  8  9  2  0
  8 10  1  0
 10 11  1  0
 11 12  1  0
 12 13  1  0
 13 14  1  0
 10 15  1  0
 14 15  1  0
 15 16  1  6
 16 17  1  0
 17 18  2  0
 18 19  1  0
 19 20  1  0
 19 21  2  0
 21 22  1  0
 17 23  1  0
 22 23  2  0
 23 24  1  0
  7 25  1  0
  4 26  1  0
 25 26  1  0
M  END
