piperidine-amides-11316-covalent
     RDKit          3D

 17 17  0  0  0  0  0  0  0  0999 V2000
    7.1010   -3.2910   19.2410 C   0  0  0  0  0  0  0  0  0  0  0  0
    6.3610   -4.0430   20.2630 C   0  0  0  0  0  0  0  0  0  0  0  0
    5.3260   -4.6380   19.9250 O   0  0  0  0  0  0  0  0  0  0  0  0
    6.8190   -4.1490   21.5910 N   0  0  0  0  0  0  0  0  0  0  0  0
    6.6560   -5.3790   22.3480 C   0  0  0  0  0  0  0  0  0  0  0  0
    5.9670   -5.0220   23.6480 C   0  0  0  0  0  0  0  0  0  0  0  0
    6.0980   -3.5660   23.9810 C   0  0  0  0  0  0  0  0  0  0  0  0
    5.6820   -3.2560   25.3740 C   0  0  0  0  0  0  0  0  0  0  0  0
    4.4700   -3.0060   25.6240 O   0  0  0  0  0  0  0  0  0  0  0  0
    6.5580   -3.2060   26.4820 N   0  0  0  0  0  0  0  0  0  0  0  0
    6.2810   -3.9950   27.7130 C   0  0  0  0  0  0  0  0  0  0  0  0
    5.8440   -5.3540   27.3110 C   0  0  0  0  0  0  0  0  0  0  0  0
    4.4530   -5.6750   26.9390 C   0  0  0  0  0  0  0  0  0  0  0  0
    3.9700   -7.0400   26.5230 C   0  0  0  0  0  0  0  0  0  0  0  0
    3.8800   -7.6350   27.7590 O   0  0  0  0  0  0  0  0  0  0  0  0
    7.3790   -2.9290   23.5770 C   0  0  0  0  0  0  0  0  0  0  0  0
    7.7080   -3.1680   22.1590 C   0  0  0  0  0  0  0  0  0  0  0  0
  1  2  1  0
  2  3  2  0
  2  4  1  0
  4  5  1  0
  5  6  1  0
  6  7  1  0
  7  8  1  0
  8  9  2  0
  8 10  1  0
 10 11  1  0
 11 12  1  0
 12 13  2  3
 13 14  1  0
 14 15  1  0
  7 16  1  0
  4 17  1  0
 16 17  1  0
M  END
