piperidine-amides-19045-covalent
     RDKit          3D

 22 24  0  0  0  0  0  0  0  0999 V2000
    7.1550   -3.3710   19.5050 C   0  0  0  0  0  0  0  0  0  0  0  0
    6.4370   -4.2010   20.4380 C   0  0  0  0  0  0  0  0  0  0  0  0
    5.4340   -4.8570   19.9980 O   0  0  0  0  0  0  0  0  0  0  0  0
    6.8360   -4.3460   21.7940 N   0  0  0  0  0  0  0  0  0  0  0  0
    6.2810   -5.4690   22.5600 C   0  0  0  0  0  0  0  0  0  0  0  0
    5.2380   -4.6370   23.3940 C   0  0  0  0  0  0  0  0  0  0  0  0
    6.0650   -3.6900   24.2540 C   0  0  0  0  0  0  0  0  0  0  0  0
    5.1480   -2.8800   25.3400 C   0  0  0  0  0  0  0  0  0  0  0  0
    4.6610   -1.9170   24.7830 O   0  0  0  0  0  0  0  0  0  0  0  0
    5.1230   -3.4210   26.5200 N   0  0  0  0  0  0  0  0  0  0  0  0
    4.7870   -3.7670   27.6990 C   0  0  0  0  0  0  0  0  0  0  0  0
    5.2740   -4.7820   28.3280 C   0  0  0  0  0  0  0  0  0  0  0  0
    4.4860   -5.1400   29.5410 C   0  0  0  0  0  0  0  0  0  0  0  0
    4.7710   -6.2760   30.5140 C   0  0  0  0  0  0  0  0  0  0  0  0
    5.9590   -6.6630   29.7510 C   0  0  0  0  0  0  0  0  0  0  0  0
    5.6910   -5.6530   28.8890 C   0  0  0  0  0  0  0  0  0  0  0  0
    6.4110   -5.3970   27.8310 C   0  0  0  0  0  0  0  0  0  0  0  0
    6.2210   -4.3090   26.6450 C   0  0  1  0  0  0  0  0  0  0  0  0
    5.8640   -5.3410   25.5230 C   0  0  0  0  0  0  0  0  0  0  0  0
    4.9470   -6.2880   25.9090 C   0  0  0  0  0  0  0  0  0  0  0  0
    6.9490   -2.7480   23.4250 C   0  0  0  0  0  0  0  0  0  0  0  0
    7.6980   -3.3970   22.4730 C   0  0  0  0  0  0  0  0  0  0  0  0
  1  2  1  0
  2  3  2  0
  2  4  1  0
  4  5  1  0
  5  6  1  0
  6  7  1  0
  7  8  1  0
  8  9  2  0
  8 10  1  0
 10 11  1  0
 11 12  1  0
 12 13  1  0
 13 14  2  0
 14 15  1  0
 15 16  2  0
 12 17  2  0
 16 17  1  0
 10 18  1  0
 17 18  1  0
 18 19  1  6
 19 20  1  0
  7 21  1  0
  4 22  1  0
 21 22  1  0
M  END
