piperidine-amides-1676-covalent
     RDKit          3D

 20 21  0  0  0  0  0  0  0  0999 V2000
    7.1440   -3.2630   19.2070 C   0  0  0  0  0  0  0  0  0  0  0  0
    6.3580   -4.0420   20.2050 C   0  0  0  0  0  0  0  0  0  0  0  0
    5.2610   -4.5120   19.8680 O   0  0  0  0  0  0  0  0  0  0  0  0
    6.8920   -4.2920   21.4810 N   0  0  0  0  0  0  0  0  0  0  0  0
    6.4610   -5.4230   22.2560 C   0  0  0  0  0  0  0  0  0  0  0  0
    5.5260   -4.8630   23.3300 C   0  0  0  0  0  0  0  0  0  0  0  0
    6.2370   -3.7070   23.9650 C   0  0  0  0  0  0  0  0  0  0  0  0
    5.4070   -2.9790   24.9500 C   0  0  0  0  0  0  0  0  0  0  0  0
    4.2030   -3.2500   24.9890 O   0  0  0  0  0  0  0  0  0  0  0  0
    6.0100   -2.0380   25.7830 N   0  0  0  0  0  0  0  0  0  0  0  0
    7.0630   -2.3430   26.6440 C   0  0  0  0  0  0  0  0  0  0  0  0
    7.2840   -3.6010   27.0250 C   0  0  0  0  0  0  0  0  0  0  0  0
    8.0890   -4.3230   26.1460 C   0  0  0  0  0  0  0  0  0  0  0  0
    9.0680   -5.0900   26.6780 O   0  0  0  0  0  0  0  0  0  0  0  0
    8.7770   -6.0630   27.5780 C   0  0  0  0  0  0  0  0  0  0  0  0
    7.4130   -6.1220   28.1850 C   0  0  0  0  0  0  0  0  0  0  0  0
    6.9710   -4.9440   28.7370 O   0  0  0  0  0  0  0  0  0  0  0  0
    7.6180   -3.7630   28.3570 C   0  0  0  0  0  0  0  0  0  0  0  0
    6.7930   -2.6730   23.0280 C   0  0  0  0  0  0  0  0  0  0  0  0
    7.6540   -3.2700   22.1430 C   0  0  0  0  0  0  0  0  0  0  0  0
  1  2  1  0
  2  3  2  0
  2  4  1  0
  4  5  1  0
  5  6  1  0
  6  7  1  0
  7  8  1  0
  8  9  2  0
  8 10  1  0
 10 11  1  0
 11 12  1  0
 12 13  1  0
 13 14  1  0
 14 15  1  0
 15 16  1  0
 16 17  1  0
 12 18  1  0
 17 18  1  0
  7 19  1  0
  4 20  1  0
 19 20  1  0
M  END
