piperidine-amides-11706-covalent
     RDKit          3D

 28 30  0  0  0  0  0  0  0  0999 V2000
    7.1080   -3.3550   19.3260 C   0  0  0  0  0  0  0  0  0  0  0  0
    6.3720   -4.1650   20.2850 C   0  0  0  0  0  0  0  0  0  0  0  0
    5.3410   -4.7470   19.9530 O   0  0  0  0  0  0  0  0  0  0  0  0
    6.8930   -4.3220   21.6070 N   0  0  0  0  0  0  0  0  0  0  0  0
    7.7010   -3.2710   22.1760 C   0  0  0  0  0  0  0  0  0  0  0  0
    6.9740   -2.6380   23.3160 C   0  0  0  0  0  0  0  0  0  0  0  0
    6.6020   -3.7570   24.2600 C   0  0  0  0  0  0  0  0  0  0  0  0
    5.8110   -3.2240   25.4000 C   0  0  0  0  0  0  0  0  0  0  0  0
    4.5650   -3.1850   25.3950 O   0  0  0  0  0  0  0  0  0  0  0  0
    6.5180   -2.7440   26.5290 N   0  0  0  0  0  0  0  0  0  0  0  0
    5.9700   -1.6530   27.3030 C   0  0  0  0  0  0  0  0  0  0  0  0
    6.8800   -1.5270   28.5100 C   0  0  0  0  0  0  0  0  0  0  0  0
    6.7670   -0.4790   29.4200 C   0  0  0  0  0  0  0  0  0  0  0  0
    5.9760    0.6520   28.9910 N   0  0  0  0  0  0  0  0  0  0  0  0
    5.0330    1.1500   29.9670 C   0  0  0  0  0  0  0  0  0  0  0  0
    5.0690    0.4910   31.1810 C   0  0  0  0  0  0  0  0  0  0  0  0
    6.1600    0.7360   32.1030 C   0  0  0  0  0  0  0  0  0  0  0  0
    6.2100    0.0870   33.2960 C   0  0  0  0  0  0  0  0  0  0  0  0
    5.1810   -0.7930   33.5580 C   0  0  0  0  0  0  0  0  0  0  0  0
    5.2690   -1.4600   34.7700 O   0  0  0  0  0  0  0  0  0  0  0  0
    4.5960   -0.7720   35.7830 C   0  0  0  0  0  0  0  0  0  0  0  0
    4.0510   -1.0610   32.6450 C   0  0  0  0  0  0  0  0  0  0  0  0
    3.0570   -1.9430   32.9560 F   0  0  0  0  0  0  0  0  0  0  0  0
    4.0210   -0.3830   31.4230 C   0  0  0  0  0  0  0  0  0  0  0  0
    5.6540    0.7420   27.6030 C   0  0  0  0  0  0  0  0  0  0  0  0
    5.7040   -0.4190   26.6820 C   0  0  0  0  0  0  0  0  0  0  0  0
    5.7960   -4.8630   23.6450 C   0  0  0  0  0  0  0  0  0  0  0  0
    6.4850   -5.4230   22.4200 C   0  0  0  0  0  0  0  0  0  0  0  0
  1  2  1  0
  2  3  2  0
  2  4  1  0
  4  5  1  0
  5  6  1  0
  6  7  1  0
  7  8  1  0
  8  9  2  0
  8 10  1  0
 10 11  1  0
 11 12  1  0
 12 13  1  0
 13 14  1  0
 14 15  1  0
 15 16  1  0
 16 17  2  0
 17 18  1  0
 18 19  2  0
 19 20  1  0
 20 21  1  0
 19 22  1  0
 22 23  1  0
 16 24  1  0
 22 24  2  0
 14 25  1  0
 11 26  1  0
 25 26  1  0
  7 27  1  0
  4 28  1  0
 27 28  1  0
M  END
