piperidine-amides-11205-covalent
     RDKit          3D

 19 19  0  0  0  0  0  0  0  0999 V2000
    7.1780   -3.2820   19.1650 C   0  0  0  0  0  0  0  0  0  0  0  0
    6.3540   -3.9810   20.1420 C   0  0  0  0  0  0  0  0  0  0  0  0
    5.2360   -4.4090   19.8210 O   0  0  0  0  0  0  0  0  0  0  0  0
    6.8420   -4.2440   21.4200 N   0  0  0  0  0  0  0  0  0  0  0  0
    6.4460   -5.4240   22.1350 C   0  0  0  0  0  0  0  0  0  0  0  0
    5.7110   -4.8850   23.3270 C   0  0  0  0  0  0  0  0  0  0  0  0
    6.5300   -3.8580   24.0560 C   0  0  0  0  0  0  0  0  0  0  0  0
    5.8170   -3.2810   25.1990 C   0  0  0  0  0  0  0  0  0  0  0  0
    4.7790   -2.5730   25.0390 O   0  0  0  0  0  0  0  0  0  0  0  0
    6.2450   -3.5030   26.5060 N   0  0  0  0  0  0  0  0  0  0  0  0
    5.5460   -4.5050   27.3170 C   0  0  1  0  0  0  0  0  0  0  0  0
    6.0500   -5.8580   26.9950 C   0  0  0  0  0  0  0  0  0  0  0  0
    5.7860   -4.2190   28.7870 C   0  0  2  0  0  0  0  0  0  0  0  0
    6.4460   -2.8570   28.7620 C   0  0  0  0  0  0  0  0  0  0  0  0
    5.8290   -2.1810   29.7760 O   0  0  0  0  0  0  0  0  0  0  0  0
    6.9190   -5.5300   28.9330 S   0  0  0  0  0  0  0  0  0  0  0  0
    5.9000   -6.7830   29.6480 C   0  0  0  0  0  0  0  0  0  0  0  0
    6.9570   -2.7510   23.1640 C   0  0  0  0  0  0  0  0  0  0  0  0
    7.5730   -3.1850   22.0380 C   0  0  0  0  0  0  0  0  0  0  0  0
  1  2  1  0
  2  3  2  0
  2  4  1  0
  4  5  1  0
  5  6  1  0
  6  7  1  0
  7  8  1  0
  8  9  2  0
  8 10  1  0
 10 11  1  0
 11 12  1  6
 11 13  1  0
 13 14  1  6
 14 15  1  0
 13 16  1  0
 16 17  1  0
  7 18  1  0
  4 19  1  0
 18 19  1  0
M  END
