piperidine-amides-3121-covalent
     RDKit          3D

 23 24  0  0  0  0  0  0  0  0999 V2000
    7.0730   -3.3000   19.3000 C   0  0  0  0  0  0  0  0  0  0  0  0
    6.3630   -4.1050   20.2880 C   0  0  0  0  0  0  0  0  0  0  0  0
    5.3560   -4.7280   19.9540 O   0  0  0  0  0  0  0  0  0  0  0  0
    6.8560   -4.2180   21.6370 N   0  0  0  0  0  0  0  0  0  0  0  0
    7.6340   -3.1590   22.2280 C   0  0  0  0  0  0  0  0  0  0  0  0
    6.9740   -2.6560   23.4840 C   0  0  0  0  0  0  0  0  0  0  0  0
    6.4390   -3.8380   24.2840 C   0  0  0  0  0  0  0  0  0  0  0  0
    5.5650   -3.3570   25.4070 C   0  0  0  0  0  0  0  0  0  0  0  0
    4.3430   -3.1950   25.2400 O   0  0  0  0  0  0  0  0  0  0  0  0
    6.1010   -3.0600   26.6950 N   0  0  0  0  0  0  0  0  0  0  0  0
    6.2550   -4.1270   27.6700 C   0  0  0  0  0  0  0  0  0  0  0  0
    5.1050   -4.2380   28.6220 C   0  0  0  0  0  0  0  0  0  0  0  0
    4.1200   -3.2550   28.7770 C   0  0  0  0  0  0  0  0  0  0  0  0
    3.0430   -3.3940   29.6920 C   0  0  0  0  0  0  0  0  0  0  0  0
    2.9380   -4.5220   30.4700 C   0  0  0  0  0  0  0  0  0  0  0  0
    1.9320   -4.8770   31.4600 C   0  0  0  0  0  0  0  0  0  0  0  0
    2.2160   -5.9600   32.0770 O   0  0  0  0  0  0  0  0  0  0  0  0
    1.6280   -7.0870   31.4840 C   0  0  0  0  0  0  0  0  0  0  0  0
    2.4230   -8.1540   31.8730 C   0  0  0  0  0  0  0  0  0  0  0  0
    3.9680   -5.5510   30.3130 C   0  0  0  0  0  0  0  0  0  0  0  0
    5.0560   -5.3950   29.3750 C   0  0  0  0  0  0  0  0  0  0  0  0
    5.6720   -4.8510   23.4420 C   0  0  0  0  0  0  0  0  0  0  0  0
    6.5150   -5.3460   22.4510 C   0  0  0  0  0  0  0  0  0  0  0  0
  1  2  1  0
  2  3  2  0
  2  4  1  0
  4  5  1  0
  5  6  1  0
  6  7  1  0
  7  8  1  0
  8  9  2  0
  8 10  1  0
 10 11  1  0
 11 12  1  0
 12 13  2  0
 13 14  1  0
 14 15  2  0
 15 16  1  0
 16 17  1  0
 17 18  1  0
 18 19  1  0
 15 20  1  0
 12 21  1  0
 20 21  2  0
  7 22  1  0
  4 23  1  0
 22 23  1  0
M  END
