piperidine-amides-25253-covalent
     RDKit          3D

 25 28  0  0  0  0  0  0  0  0999 V2000
    7.0260   -3.3290   19.3010 C   0  0  0  0  0  0  0  0  0  0  0  0
    6.3730   -4.2400   20.2860 C   0  0  0  0  0  0  0  0  0  0  0  0
    5.3140   -4.7550   19.9450 O   0  0  0  0  0  0  0  0  0  0  0  0
    6.9770   -4.5310   21.5110 N   0  0  0  0  0  0  0  0  0  0  0  0
    6.5160   -5.6280   22.3170 C   0  0  0  0  0  0  0  0  0  0  0  0
    6.3130   -5.1700   23.7430 C   0  0  0  0  0  0  0  0  0  0  0  0
    5.8160   -3.7150   23.8100 C   0  0  0  0  0  0  0  0  0  0  0  0
    6.0920   -3.1230   25.1330 C   0  0  0  0  0  0  0  0  0  0  0  0
    5.3830   -3.4420   26.0960 O   0  0  0  0  0  0  0  0  0  0  0  0
    7.1370   -2.1760   25.2850 N   0  0  0  0  0  0  0  0  0  0  0  0
    7.7850   -1.7270   24.0600 C   0  0  0  0  0  0  0  0  0  0  0  0
    7.6090   -0.4840   24.7420 C   0  0  0  0  0  0  0  0  0  0  0  0
    6.7470    0.5250   24.4010 C   0  0  0  0  0  0  0  0  0  0  0  0
    7.7980    1.3690   24.2400 C   0  0  0  0  0  0  0  0  0  0  0  0
    8.7860    0.3490   24.4780 N   0  0  0  0  0  0  0  0  0  0  0  0
    9.4960   -0.0740   23.2840 C   0  0  0  0  0  0  0  0  0  0  0  0
   10.8220   -0.7560   23.5830 C   0  0  0  0  0  0  0  0  0  0  0  0
   11.3130   -1.3120   22.2710 C   0  0  0  0  0  0  0  0  0  0  0  0
   12.6360   -2.0640   22.2380 C   0  0  0  0  0  0  0  0  0  0  0  0
   13.3890   -2.2180   23.5280 C   0  0  0  0  0  0  0  0  0  0  0  0
   12.8350   -1.6360   24.7780 C   0  0  0  0  0  0  0  0  0  0  0  0
   11.5380   -0.8770   24.8900 C   0  0  0  0  0  0  0  0  0  0  0  0
    7.2070   -0.8350   25.9780 C   0  0  0  0  0  0  0  0  0  0  0  0
    6.4950   -2.8260   22.7800 C   0  0  0  0  0  0  0  0  0  0  0  0
    7.5860   -3.4640   22.2550 C   0  0  0  0  0  0  0  0  0  0  0  0
  1  2  1  0
  2  3  2  0
  2  4  1  0
  4  5  1  0
  5  6  1  0
  6  7  1  0
  7  8  1  0
  8  9  2  0
  8 10  1  0
 10 11  1  0
 11 12  1  0
 12 13  1  0
 13 14  1  0
 12 15  1  0
 14 15  1  0
 15 16  1  0
 16 17  1  0
 17 18  2  0
 18 19  1  0
 19 20  2  0
 20 21  1  0
 17 22  1  0
 21 22  2  0
 10 23  1  0
 12 23  1  0
  7 24  1  0
  4 25  1  0
 24 25  1  0
M  END
