piperidine-amides-28857-covalent
     RDKit          3D

 25 27  0  0  0  0  0  0  0  0999 V2000
    7.0560   -3.3650   19.3740 C   0  0  0  0  0  0  0  0  0  0  0  0
    6.4160   -4.2540   20.3420 C   0  0  0  0  0  0  0  0  0  0  0  0
    5.3810   -4.8440   19.9820 O   0  0  0  0  0  0  0  0  0  0  0  0
    6.9920   -4.4840   21.6220 N   0  0  0  0  0  0  0  0  0  0  0  0
    6.4570   -5.5460   22.4000 C   0  0  0  0  0  0  0  0  0  0  0  0
    5.5630   -4.9290   23.4370 C   0  0  0  0  0  0  0  0  0  0  0  0
    6.4270   -4.0510   24.3270 C   0  0  0  0  0  0  0  0  0  0  0  0
    5.5820   -3.4600   25.4360 C   0  0  0  0  0  0  0  0  0  0  0  0
    4.8290   -2.5610   25.0770 O   0  0  0  0  0  0  0  0  0  0  0  0
    5.6420   -3.9140   26.7680 N   0  0  0  0  0  0  0  0  0  0  0  0
    4.6040   -3.5720   27.6980 C   0  0  0  0  0  0  0  0  0  0  0  0
    4.2010   -4.5020   28.7170 C   0  0  0  0  0  0  0  0  0  0  0  0
    5.3480   -5.3390   29.0990 N   0  0  0  0  0  0  0  0  0  0  0  0
    5.3940   -6.6730   29.5700 C   0  0  0  0  0  0  0  0  0  0  0  0
    5.1100   -6.9230   30.9060 C   0  0  0  0  0  0  0  0  0  0  0  0
    3.9700   -6.1200   31.3650 C   0  0  0  0  0  0  0  0  0  0  0  0
    3.5210   -6.2730   32.8290 C   0  0  0  0  0  0  0  0  0  0  0  0
    4.3070   -7.2470   33.6560 C   0  0  0  0  0  0  0  0  0  0  0  0
    3.9250   -7.5410   35.3410 Cl  0  0  0  0  0  0  0  0  0  0  0  0
    5.4460   -7.9540   32.9330 C   0  0  0  0  0  0  0  0  0  0  0  0
    5.8340   -7.8130   31.6500 N   0  0  0  0  0  0  0  0  0  0  0  0
    6.5650   -4.9760   28.5400 C   0  0  0  0  0  0  0  0  0  0  0  0
    6.3800   -3.7560   27.9610 C   0  0  0  0  0  0  0  0  0  0  0  0
    6.9450   -2.9000   23.4990 C   0  0  0  0  0  0  0  0  0  0  0  0
    7.6530   -3.3680   22.2570 C   0  0  0  0  0  0  0  0  0  0  0  0
  1  2  1  0
  2  3  2  0
  2  4  1  0
  4  5  1  0
  5  6  1  0
  6  7  1  0
  7  8  1  0
  8  9  2  0
  8 10  1  0
 10 11  1  0
 11 12  1  0
 12 13  1  0
 13 14  1  0
 14 15  1  0
 15 16  2  0
 16 17  1  0
 17 18  2  0
 18 19  1  0
 18 20  1  0
 15 21  1  0
 20 21  2  0
 13 22  1  0
 10 23  1  0
 22 23  1  0
  7 24  1  0
  4 25  1  0
 24 25  1  0
M  END
