piperidine-amides-2712-covalent
     RDKit          3D

 25 26  0  0  0  0  0  0  0  0999 V2000
    7.0480   -3.2950   19.3120 C   0  0  0  0  0  0  0  0  0  0  0  0
    6.3310   -4.1030   20.2990 C   0  0  0  0  0  0  0  0  0  0  0  0
    5.3540   -4.7630   19.9550 O   0  0  0  0  0  0  0  0  0  0  0  0
    6.7750   -4.1710   21.6690 N   0  0  0  0  0  0  0  0  0  0  0  0
    7.6760   -3.1650   22.1830 C   0  0  0  0  0  0  0  0  0  0  0  0
    7.4590   -3.0220   23.6580 C   0  0  0  0  0  0  0  0  0  0  0  0
    6.1070   -3.6460   23.9400 C   0  0  0  0  0  0  0  0  0  0  0  0
    5.6210   -3.3720   25.3280 C   0  0  0  0  0  0  0  0  0  0  0  0
    4.4770   -3.6990   25.6900 O   0  0  0  0  0  0  0  0  0  0  0  0
    6.4500   -2.7050   26.2610 N   0  0  0  0  0  0  0  0  0  0  0  0
    6.4090   -1.2670   26.2550 C   0  0  0  0  0  0  0  0  0  0  0  0
    6.5590   -0.7170   27.6590 C   0  0  0  0  0  0  0  0  0  0  0  0
    7.0390   -1.4590   28.7240 C   0  0  0  0  0  0  0  0  0  0  0  0
    7.1690   -0.8940   30.0060 C   0  0  0  0  0  0  0  0  0  0  0  0
    6.8260    0.4080   30.2720 C   0  0  0  0  0  0  0  0  0  0  0  0
    6.9590    0.8650   31.4220 O   0  0  0  0  0  0  0  0  0  0  0  0
    7.9060    0.5660   32.3850 C   0  0  0  0  0  0  0  0  0  0  0  0
    6.3430    1.1850   29.2670 C   0  0  0  0  0  0  0  0  0  0  0  0
    5.9560    2.5080   29.3710 C   0  0  0  0  0  0  0  0  0  0  0  0
    6.2960    3.3800   28.5350 O   0  0  0  0  0  0  0  0  0  0  0  0
    5.1660    2.9170   30.4300 O   0  0  0  0  0  0  0  0  0  0  0  0
    5.7700    3.4130   31.5980 C   0  0  0  0  0  0  0  0  0  0  0  0
    6.2060    0.5950   27.9060 C   0  0  0  0  0  0  0  0  0  0  0  0
    6.0510   -5.1380   23.6360 C   0  0  0  0  0  0  0  0  0  0  0  0
    6.6460   -5.4050   22.3960 C   0  0  0  0  0  0  0  0  0  0  0  0
  1  2  1  0
  2  3  2  0
  2  4  1  0
  4  5  1  0
  5  6  1  0
  6  7  1  0
  7  8  1  0
  8  9  2  0
  8 10  1  0
 10 11  1  0
 11 12  1  0
 12 13  2  0
 13 14  1  0
 14 15  2  0
 15 16  1  0
 16 17  1  0
 15 18  1  0
 18 19  1  0
 19 20  2  0
 19 21  1  0
 21 22  1  0
 12 23  1  0
 18 23  2  0
  7 24  1  0
  4 25  1  0
 24 25  1  0
M  END
