piperidine-amides-35236-covalent
     RDKit          3D

 31 32  0  0  0  0  0  0  0  0999 V2000
    7.0250   -3.3250   19.3510 C   0  0  0  0  0  0  0  0  0  0  0  0
    6.3440   -4.1920   20.3480 C   0  0  0  0  0  0  0  0  0  0  0  0
    5.3630   -4.8240   19.9670 O   0  0  0  0  0  0  0  0  0  0  0  0
    6.8410   -4.2980   21.6530 N   0  0  0  0  0  0  0  0  0  0  0  0
    7.6680   -3.2710   22.2360 C   0  0  0  0  0  0  0  0  0  0  0  0
    7.1840   -2.9930   23.6260 C   0  0  0  0  0  0  0  0  0  0  0  0
    5.8680   -3.7430   23.8220 C   0  0  0  0  0  0  0  0  0  0  0  0
    5.2990   -3.4850   25.1730 C   0  0  0  0  0  0  0  0  0  0  0  0
    4.1460   -3.0470   25.2490 O   0  0  0  0  0  0  0  0  0  0  0  0
    6.0040   -3.7090   26.3660 N   0  0  0  0  0  0  0  0  0  0  0  0
    5.2450   -3.6500   27.6120 C   0  0  0  0  0  0  0  0  0  0  0  0
    5.5270   -4.9300   28.3830 C   0  0  0  0  0  0  0  0  0  0  0  0
    6.8770   -5.1200   28.3470 O   0  0  0  0  0  0  0  0  0  0  0  0
    7.6210   -4.0710   28.0880 C   0  0  1  0  0  0  0  0  0  0  0  0
    8.9670   -4.1720   27.9740 C   0  0  0  0  0  0  0  0  0  0  0  0
    9.6780   -5.1000   27.3660 N   0  0  0  0  0  0  0  0  0  0  0  0
   10.0710   -4.8980   25.9720 C   0  0  0  0  0  0  0  0  0  0  0  0
   10.6050   -3.5750   25.4450 C   0  0  0  0  0  0  0  0  0  0  0  0
   10.1760   -2.3360   25.8310 O   0  0  0  0  0  0  0  0  0  0  0  0
   11.4710   -3.5060   24.5590 O   0  0  0  0  0  0  0  0  0  0  0  0
   12.3370   -2.4210   24.3210 C   0  0  0  0  0  0  0  0  0  0  0  0
   13.4880   -2.4190   25.2690 C   0  0  0  0  0  0  0  0  0  0  0  0
   13.2270   -2.5050   23.1110 C   0  0  0  0  0  0  0  0  0  0  0  0
   11.7750   -1.1980   24.0610 C   0  0  0  0  0  0  0  0  0  0  0  0
    8.4290   -6.0590   27.0800 S   0  0  0  0  0  0  0  0  0  0  0  0
    9.3770   -6.7670   25.9760 C   0  0  0  0  0  0  0  0  0  0  0  0
    7.9500   -6.8080   28.3370 O   0  0  0  0  0  0  0  0  0  0  0  0
    7.2630   -5.4390   26.3370 O   0  0  0  0  0  0  0  0  0  0  0  0
    7.3470   -3.4480   26.7110 C   0  0  0  0  0  0  0  0  0  0  0  0
    6.0340   -5.2460   23.6060 C   0  0  0  0  0  0  0  0  0  0  0  0
    6.6620   -5.5340   22.4040 C   0  0  0  0  0  0  0  0  0  0  0  0
  1  2  1  0
  2  3  2  0
  2  4  1  0
  4  5  1  0
  5  6  1  0
  6  7  1  0
  7  8  1  0
  8  9  2  0
  8 10  1  0
 10 11  1  0
 11 12  1  0
 12 13  1  0
 13 14  1  0
 14 15  1  6
 15 16  1  0
 16 17  1  0
 17 18  1  0
 18 19  2  0
 18 20  1  0
 21 20  1  0
 21 22  1  0
 21 23  1  0
 21 24  1  0
 25 16  1  0
 25 26  1  0
 25 27  2  0
 25 28  2  0
 10 29  1  0
 14 29  1  0
  7 30  1  0
  4 31  1  0
 30 31  1  0
M  END
