piperidine-amides-14177-covalent
     RDKit          3D

 24 25  0  0  0  0  0  0  0  0999 V2000
    7.0710   -3.2590   19.2220 C   0  0  0  0  0  0  0  0  0  0  0  0
    6.2930   -4.0420   20.2270 C   0  0  0  0  0  0  0  0  0  0  0  0
    5.2360   -4.5840   19.8800 O   0  0  0  0  0  0  0  0  0  0  0  0
    6.7870   -4.1990   21.5370 N   0  0  0  0  0  0  0  0  0  0  0  0
    6.6810   -5.4670   22.2150 C   0  0  0  0  0  0  0  0  0  0  0  0
    5.8680   -5.2110   23.4780 C   0  0  0  0  0  0  0  0  0  0  0  0
    5.8220   -3.7300   23.6210 C   0  0  0  0  0  0  0  0  0  0  0  0
    5.2390   -3.3160   24.9160 C   0  0  0  0  0  0  0  0  0  0  0  0
    4.1430   -2.7480   24.8820 O   0  0  0  0  0  0  0  0  0  0  0  0
    5.9180   -3.5670   26.0970 N   0  0  0  0  0  0  0  0  0  0  0  0
    5.4170   -4.2410   27.2400 C   0  0  1  0  0  0  0  0  0  0  0  0
    5.6930   -5.5670   27.5250 C   0  0  0  0  0  0  0  0  0  0  0  0
    5.9450   -3.4110   28.3910 C   0  0  0  0  0  0  0  0  0  0  0  0
    7.1970   -2.9310   28.3160 O   0  0  0  0  0  0  0  0  0  0  0  0
    7.8600   -3.7330   27.4490 C   0  0  0  0  0  0  0  0  0  0  0  0
    8.3230   -3.3270   26.1030 C   0  0  0  0  0  0  0  0  0  0  0  0
    8.1050   -2.0430   25.6600 F   0  0  0  0  0  0  0  0  0  0  0  0
    9.0420   -4.3580   25.2280 C   0  0  0  0  0  0  0  0  0  0  0  0
    9.2130   -5.7340   25.8660 C   0  0  0  0  0  0  0  0  0  0  0  0
    8.7390   -5.9790   27.0990 C   0  0  0  0  0  0  0  0  0  0  0  0
    8.0560   -4.9880   27.8990 C   0  0  0  0  0  0  0  0  0  0  0  0
    7.6240   -5.4050   29.1050 F   0  0  0  0  0  0  0  0  0  0  0  0
    7.1370   -3.0360   23.4360 C   0  0  0  0  0  0  0  0  0  0  0  0
    7.5830   -3.1590   22.1420 C   0  0  0  0  0  0  0  0  0  0  0  0
  1  2  1  0
  2  3  2  0
  2  4  1  0
  4  5  1  0
  5  6  1  0
  6  7  1  0
  7  8  1  0
  8  9  2  0
  8 10  1  0
 10 11  1  0
 11 12  1  1
 11 13  1  0
 13 14  1  0
 14 15  1  0
 15 16  2  0
 16 17  1  0
 16 18  1  0
 18 19  2  0
 19 20  1  0
 15 21  1  0
 20 21  2  0
 21 22  1  0
  7 23  1  0
  4 24  1  0
 23 24  1  0
M  END
