piperidine-amides-24814-covalent
     RDKit          3D

 24 26  0  0  0  0  0  0  0  0999 V2000
    7.0700   -3.3750   19.4470 C   0  0  0  0  0  0  0  0  0  0  0  0
    6.3780   -4.2510   20.4000 C   0  0  0  0  0  0  0  0  0  0  0  0
    5.4050   -4.9350   20.0100 O   0  0  0  0  0  0  0  0  0  0  0  0
    6.8290   -4.3640   21.7330 N   0  0  0  0  0  0  0  0  0  0  0  0
    6.5550   -5.5940   22.4590 C   0  0  0  0  0  0  0  0  0  0  0  0
    6.2590   -5.2540   23.9420 C   0  0  0  0  0  0  0  0  0  0  0  0
    6.1250   -3.7510   24.0210 C   0  0  0  0  0  0  0  0  0  0  0  0
    5.6420   -3.1930   25.3210 C   0  0  0  0  0  0  0  0  0  0  0  0
    5.0850   -2.0860   25.2480 O   0  0  0  0  0  0  0  0  0  0  0  0
    5.7330   -3.8180   26.5970 N   0  0  0  0  0  0  0  0  0  0  0  0
    4.4670   -4.1330   27.1910 C   0  0  0  0  0  0  0  0  0  0  0  0
    4.6000   -4.9390   28.4950 C   0  0  0  0  0  0  0  0  0  0  0  0
    5.7070   -4.8960   29.2860 C   0  0  0  0  0  0  0  0  0  0  0  0
    5.9090   -5.8930   30.0570 O   0  0  0  0  0  0  0  0  0  0  0  0
    4.8210   -6.3670   30.7490 C   0  0  0  0  0  0  0  0  0  0  0  0
    5.1730   -7.0720   31.9050 C   0  0  0  0  0  0  0  0  0  0  0  0
    4.0680   -7.6280   32.5260 C   0  0  0  0  0  0  0  0  0  0  0  0
    2.8580   -7.5560   31.8610 O   0  0  0  0  0  0  0  0  0  0  0  0
    2.8040   -7.6900   30.4450 C   0  0  0  0  0  0  0  0  0  0  0  0
    4.0940   -7.1480   29.9040 C   0  0  0  0  0  0  0  0  0  0  0  0
    6.7110   -4.5540   28.5090 C   0  0  0  0  0  0  0  0  0  0  0  0
    6.3760   -3.3420   27.7660 C   0  0  0  0  0  0  0  0  0  0  0  0
    7.4290   -3.1440   23.6300 C   0  0  0  0  0  0  0  0  0  0  0  0
    7.6260   -3.3090   22.2940 C   0  0  0  0  0  0  0  0  0  0  0  0
  1  2  1  0
  2  3  2  0
  2  4  1  0
  4  5  1  0
  5  6  1  0
  6  7  1  0
  7  8  1  0
  8  9  2  0
  8 10  1  0
 10 11  1  0
 11 12  1  0
 12 13  1  0
 13 14  1  0
 14 15  1  0
 15 16  1  0
 16 17  1  0
 17 18  1  0
 18 19  1  0
 15 20  1  0
 19 20  1  0
 13 21  1  0
 10 22  1  0
 21 22  1  0
  7 23  1  0
  4 24  1  0
 23 24  1  0
M  END
