piperidine-amides-30241-covalent
     RDKit          3D

 27 29  0  0  0  0  0  0  0  0999 V2000
    7.0470   -3.3550   19.3120 C   0  0  0  0  0  0  0  0  0  0  0  0
    6.3530   -4.1790   20.2960 C   0  0  0  0  0  0  0  0  0  0  0  0
    5.3440   -4.7980   19.9660 O   0  0  0  0  0  0  0  0  0  0  0  0
    6.8660   -4.3200   21.6340 N   0  0  0  0  0  0  0  0  0  0  0  0
    7.6770   -3.2840   22.2200 C   0  0  0  0  0  0  0  0  0  0  0  0
    6.9360   -2.6090   23.3400 C   0  0  0  0  0  0  0  0  0  0  0  0
    6.4060   -3.6740   24.2870 C   0  0  0  0  0  0  0  0  0  0  0  0
    5.5040   -3.0470   25.3130 C   0  0  0  0  0  0  0  0  0  0  0  0
    4.3240   -2.7420   25.0520 O   0  0  0  0  0  0  0  0  0  0  0  0
    5.9980   -2.7970   26.6300 N   0  0  0  0  0  0  0  0  0  0  0  0
    6.1930   -3.9250   27.4770 C   0  0  0  0  0  0  0  0  0  0  0  0
    7.4250   -4.4810   26.9260 C   0  0  0  0  0  0  0  0  0  0  0  0
    7.9430   -3.9270   25.7650 C   0  0  0  0  0  0  0  0  0  0  0  0
    9.0930   -4.4160   25.1940 C   0  0  0  0  0  0  0  0  0  0  0  0
    9.6930   -5.4440   25.8180 C   0  0  0  0  0  0  0  0  0  0  0  0
    9.1470   -5.9710   26.9880 C   0  0  0  0  0  0  0  0  0  0  0  0
    8.0260   -5.5160   27.5570 C   0  0  0  0  0  0  0  0  0  0  0  0
    7.5200   -6.0460   28.6820 F   0  0  0  0  0  0  0  0  0  0  0  0
    5.9530   -1.5420   27.3340 C   0  0  0  0  0  0  0  0  0  0  0  0
    6.8470   -1.4100   28.3940 C   0  0  0  0  0  0  0  0  0  0  0  0
    6.6750   -0.0780   28.8880 C   0  0  0  0  0  0  0  0  0  0  0  0
    6.4000    1.0170   28.7360 N   0  0  0  0  0  0  0  0  0  0  0  0
    5.3280    1.3320   29.6070 C   0  0  0  0  0  0  0  0  0  0  0  0
    5.8930    0.9060   27.3930 C   0  0  0  0  0  0  0  0  0  0  0  0
    5.8510   -0.3870   26.5900 C   0  0  0  0  0  0  0  0  0  0  0  0
    5.6230   -4.7650   23.6120 C   0  0  0  0  0  0  0  0  0  0  0  0
    6.3990   -5.3830   22.4640 C   0  0  0  0  0  0  0  0  0  0  0  0
  1  2  1  0
  2  3  2  0
  2  4  1  0
  4  5  1  0
  5  6  1  0
  6  7  1  0
  7  8  1  0
  8  9  2  0
  8 10  1  0
 10 11  1  0
 11 12  1  0
 12 13  2  0
 13 14  1  0
 14 15  2  0
 15 16  1  0
 12 17  1  0
 16 17  2  0
 17 18  1  0
 10 19  1  0
 19 20  1  0
 20 21  1  0
 21 22  1  0
 22 23  1  0
 22 24  1  0
 19 25  1  0
 24 25  1  0
  7 26  1  0
  4 27  1  0
 26 27  1  0
M  END
