piperidine-amides-10312-covalent
     RDKit          3D

 24 26  0  0  0  0  0  0  0  0999 V2000
    7.0720   -3.2900   19.2700 C   0  0  0  0  0  0  0  0  0  0  0  0
    6.3690   -4.0660   20.2990 C   0  0  0  0  0  0  0  0  0  0  0  0
    5.3200   -4.6560   19.9260 O   0  0  0  0  0  0  0  0  0  0  0  0
    6.8810   -4.1620   21.6010 N   0  0  0  0  0  0  0  0  0  0  0  0
    7.7330   -3.1300   22.1660 C   0  0  0  0  0  0  0  0  0  0  0  0
    7.3950   -2.9280   23.6190 C   0  0  0  0  0  0  0  0  0  0  0  0
    6.0650   -3.5380   23.9640 C   0  0  0  0  0  0  0  0  0  0  0  0
    5.6770   -3.2220   25.3590 C   0  0  0  0  0  0  0  0  0  0  0  0
    4.5050   -3.4880   25.7000 O   0  0  0  0  0  0  0  0  0  0  0  0
    6.5350   -2.6290   26.3090 N   0  0  0  0  0  0  0  0  0  0  0  0
    6.0940   -2.3640   27.6600 C   0  0  1  0  0  0  0  0  0  0  0  0
    6.9300   -1.4300   28.3800 C   0  0  0  0  0  0  0  0  0  0  0  0
    6.1310   -0.3480   28.4610 C   0  0  2  0  0  0  0  0  0  0  0  0
    5.7550    0.2850   29.6320 C   0  0  0  0  0  0  0  0  0  0  0  0
    4.8960    1.3930   29.5940 C   0  0  0  0  0  0  0  0  0  0  0  0
    4.4980    2.0570   30.7420 C   0  0  0  0  0  0  0  0  0  0  0  0
    4.9380    1.6420   31.9660 C   0  0  0  0  0  0  0  0  0  0  0  0
    5.8550    0.4600   32.0220 C   0  0  0  0  0  0  0  0  0  0  0  0
    6.2050    0.1910   33.4850 C   0  0  0  0  0  0  0  0  0  0  0  0
    7.5370    0.4560   33.8560 N   0  0  0  0  0  0  0  0  0  0  0  0
    6.2310   -0.1750   30.8580 C   0  0  0  0  0  0  0  0  0  0  0  0
    5.0620   -1.2600   27.7090 C   0  0  0  0  0  0  0  0  0  0  0  0
    6.0400   -5.0050   23.7190 C   0  0  0  0  0  0  0  0  0  0  0  0
    6.6250   -5.3560   22.3670 C   0  0  0  0  0  0  0  0  0  0  0  0
  1  2  1  0
  2  3  2  0
  2  4  1  0
  4  5  1  0
  5  6  1  0
  6  7  1  0
  7  8  1  0
  8  9  2  0
  8 10  1  0
 11 10  1  6
 11 12  1  0
 12 13  1  0
 13 14  1  1
 14 15  2  0
 15 16  1  0
 16 17  2  0
 17 18  1  0
 18 19  1  0
 19 20  3  0
 14 21  1  0
 18 21  2  0
 11 22  1  0
 13 22  1  0
  7 23  1  0
  4 24  1  0
 23 24  1  0
M  END
