piperidine-amides-19399-covalent
     RDKit          3D

 22 24  0  0  0  0  0  0  0  0999 V2000
    7.0880   -3.3450   19.2190 C   0  0  0  0  0  0  0  0  0  0  0  0
    6.3050   -3.9900   20.2480 C   0  0  0  0  0  0  0  0  0  0  0  0
    5.2390   -4.5730   19.8900 O   0  0  0  0  0  0  0  0  0  0  0  0
    6.6950   -4.0430   21.5990 N   0  0  0  0  0  0  0  0  0  0  0  0
    6.6410   -5.3790   22.2400 C   0  0  0  0  0  0  0  0  0  0  0  0
    5.9040   -5.0460   23.5960 C   0  0  0  0  0  0  0  0  0  0  0  0
    6.0520   -3.5580   23.8290 C   0  0  0  0  0  0  0  0  0  0  0  0
    5.5860   -3.1470   25.2890 C   0  0  0  0  0  0  0  0  0  0  0  0
    5.5700   -4.1210   26.0200 O   0  0  0  0  0  0  0  0  0  0  0  0
    5.3310   -1.9000   25.3320 N   0  0  0  0  0  0  0  0  0  0  0  0
    4.7170   -0.7300   25.4190 C   0  0  0  0  0  0  0  0  0  0  0  0
    5.5400    0.1550   25.8300 C   0  0  0  0  0  0  0  0  0  0  0  0
    5.7040    1.3180   25.1390 F   0  0  0  0  0  0  0  0  0  0  0  0
    5.8910    0.2140   27.2090 C   0  0  0  0  0  0  0  0  0  0  0  0
    5.4760    1.3160   28.1130 C   0  0  0  0  0  0  0  0  0  0  0  0
    5.9450    1.2260   29.5820 C   0  0  0  0  0  0  0  0  0  0  0  0
    6.7150    0.1030   29.8860 C   0  0  0  0  0  0  0  0  0  0  0  0
    7.2330   -1.0330   29.2710 C   0  0  0  0  0  0  0  0  0  0  0  0
    6.7290   -0.8680   27.8450 C   0  0  0  0  0  0  0  0  0  0  0  0
    6.5210   -0.9980   25.6220 C   0  0  0  0  0  0  0  0  0  0  0  0
    7.4730   -3.0800   23.4930 C   0  0  0  0  0  0  0  0  0  0  0  0
    7.6410   -3.0890   22.1440 C   0  0  0  0  0  0  0  0  0  0  0  0
  1  2  1  0
  2  3  2  0
  2  4  1  0
  4  5  1  0
  5  6  1  0
  6  7  1  0
  7  8  1  0
  8  9  2  0
  8 10  1  0
 10 11  1  0
 11 12  1  0
 12 13  1  0
 12 14  1  0
 14 15  2  0
 15 16  1  0
 16 17  2  0
 17 18  1  0
 14 19  1  0
 18 19  2  0
 10 20  1  0
 12 20  1  0
  7 21  1  0
  4 22  1  0
 21 22  1  0
M  END
