piperidine-amides-240-covalent
     RDKit          3D

 22 23  0  0  0  0  0  0  0  0999 V2000
    7.0560   -3.3810   19.3230 C   0  0  0  0  0  0  0  0  0  0  0  0
    6.3850   -4.1580   20.3410 C   0  0  0  0  0  0  0  0  0  0  0  0
    5.3510   -4.8000   19.9760 O   0  0  0  0  0  0  0  0  0  0  0  0
    6.8390   -4.2960   21.6760 N   0  0  0  0  0  0  0  0  0  0  0  0
    7.6740   -3.2110   22.2590 C   0  0  0  0  0  0  0  0  0  0  0  0
    6.7360   -2.6850   23.4230 C   0  0  0  0  0  0  0  0  0  0  0  0
    6.3850   -3.9050   24.2370 C   0  0  0  0  0  0  0  0  0  0  0  0
    5.8870   -3.5130   25.7140 C   0  0  0  0  0  0  0  0  0  0  0  0
    5.3680   -4.4820   26.2310 O   0  0  0  0  0  0  0  0  0  0  0  0
    6.1140   -2.2900   25.9920 N   0  0  0  0  0  0  0  0  0  0  0  0
    6.2260   -0.9570   26.3080 C   0  0  0  0  0  0  0  0  0  0  0  0
    6.2330    0.2260   25.5990 C   0  0  0  0  0  0  0  0  0  0  0  0
    6.7970    0.0850   24.3250 O   0  0  0  0  0  0  0  0  0  0  0  0
    7.0180   -0.7270   27.5700 C   0  0  0  0  0  0  0  0  0  0  0  0
    6.1960   -1.1210   28.7190 C   0  0  0  0  0  0  0  0  0  0  0  0
    5.8050    0.3510   29.0030 C   0  0  0  0  0  0  0  0  0  0  0  0
    6.8900    1.1890   29.2630 F   0  0  0  0  0  0  0  0  0  0  0  0
    4.9460    0.4110   30.1080 F   0  0  0  0  0  0  0  0  0  0  0  0
    5.1340    0.6190   27.7770 C   0  0  0  0  0  0  0  0  0  0  0  0
    4.9350   -0.4200   26.8400 C   0  0  0  0  0  0  0  0  0  0  0  0
    5.6620   -4.9590   23.5690 C   0  0  0  0  0  0  0  0  0  0  0  0
    6.6520   -5.4400   22.4630 C   0  0  0  0  0  0  0  0  0  0  0  0
  1  2  1  0
  2  3  2  0
  2  4  1  0
  4  5  1  0
  5  6  1  0
  6  7  1  0
  7  8  1  0
  8  9  2  0
  8 10  1  0
 11 10  1  0
 11 12  1  0
 12 13  1  0
 11 14  1  0
 14 15  1  0
 15 16  1  0
 16 17  1  0
 16 18  1  0
 16 19  1  0
 11 20  1  0
 19 20  1  0
  7 21  1  0
  4 22  1  0
 21 22  1  0
M  END
