piperidine-amides-1083-covalent
     RDKit          3D

 23 24  0  0  0  0  0  0  0  0999 V2000
    7.0790   -3.3360   19.3190 C   0  0  0  0  0  0  0  0  0  0  0  0
    6.3770   -4.1900   20.3160 C   0  0  0  0  0  0  0  0  0  0  0  0
    5.3570   -4.8090   19.9690 O   0  0  0  0  0  0  0  0  0  0  0  0
    6.9230   -4.3110   21.6100 N   0  0  0  0  0  0  0  0  0  0  0  0
    7.7330   -3.2630   22.1840 C   0  0  0  0  0  0  0  0  0  0  0  0
    6.9060   -2.7040   23.3240 C   0  0  0  0  0  0  0  0  0  0  0  0
    6.6030   -3.8640   24.1990 C   0  0  0  0  0  0  0  0  0  0  0  0
    5.8360   -3.4410   25.3820 C   0  0  0  0  0  0  0  0  0  0  0  0
    4.6020   -3.4710   25.2900 O   0  0  0  0  0  0  0  0  0  0  0  0
    6.5140   -3.0170   26.5190 N   0  0  0  0  0  0  0  0  0  0  0  0
    6.4330   -1.7380   27.1200 C   0  0  0  0  0  0  0  0  0  0  0  0
    6.3610   -0.4370   26.8470 C   0  0  0  0  0  0  0  0  0  0  0  0
    6.2930    0.1650   28.3080 N   0  0  0  0  0  0  0  0  0  0  0  0
    6.3030   -0.5050   29.6630 C   0  0  0  0  0  0  0  0  0  0  0  0
    6.2260    0.1870   30.8550 C   0  0  0  0  0  0  0  0  0  0  0  0
    7.5790    0.4660   31.3980 C   0  0  0  0  0  0  0  0  0  0  0  0
    7.6290    1.5800   32.4550 C   0  0  0  0  0  0  0  0  0  0  0  0
    7.4900    2.8340   31.5860 C   0  0  0  0  0  0  0  0  0  0  0  0
    6.3890   -1.7910   29.4170 N   0  0  0  0  0  0  0  0  0  0  0  0
    6.3890   -1.3060   28.3020 C   0  0  0  0  0  0  0  0  0  0  0  0
    6.3140    0.1860   28.1510 C   0  0  0  0  0  0  0  0  0  0  0  0
    5.8690   -4.9850   23.5180 C   0  0  0  0  0  0  0  0  0  0  0  0
    6.6120   -5.4330   22.4510 C   0  0  0  0  0  0  0  0  0  0  0  0
  1  2  1  0
  2  3  2  0
  2  4  1  0
  4  5  1  0
  5  6  1  0
  6  7  1  0
  7  8  1  0
  8  9  2  0
  8 10  1  0
 10 11  1  0
 11 12  2  0
 12 13  1  0
 13 14  2  0
 14 15  1  0
 15 16  1  0
 16 17  1  0
 17 18  1  0
 14 19  1  0
 11 20  1  0
 19 20  2  0
 20 21  1  0
  7 22  1  0
  4 23  1  0
 22 23  1  0
M  END
