piperidine-amides-27439-covalent
     RDKit          3D

 24 25  0  0  0  0  0  0  0  0999 V2000
    7.0240   -3.3270   19.3340 C   0  0  0  0  0  0  0  0  0  0  0  0
    6.3470   -4.1440   20.3470 C   0  0  0  0  0  0  0  0  0  0  0  0
    5.3460   -4.8030   19.9640 O   0  0  0  0  0  0  0  0  0  0  0  0
    6.8280   -4.2110   21.6590 N   0  0  0  0  0  0  0  0  0  0  0  0
    7.6560   -3.1540   22.2140 C   0  0  0  0  0  0  0  0  0  0  0  0
    6.9910   -2.6350   23.4610 C   0  0  0  0  0  0  0  0  0  0  0  0
    6.5930   -3.7850   24.3430 C   0  0  0  0  0  0  0  0  0  0  0  0
    5.8100   -3.3250   25.5360 C   0  0  0  0  0  0  0  0  0  0  0  0
    4.5720   -3.2040   25.3930 O   0  0  0  0  0  0  0  0  0  0  0  0
    6.3670   -3.0120   26.8200 N   0  0  0  0  0  0  0  0  0  0  0  0
    6.3070   -3.8900   27.9770 C   0  0  0  0  0  0  0  0  0  0  0  0
    5.7460   -5.2810   27.8210 C   0  0  0  0  0  0  0  0  0  0  0  0
    5.9040   -6.0560   26.7330 C   0  0  0  0  0  0  0  0  0  0  0  0
    6.4010   -6.0770   28.9180 C   0  0  0  0  0  0  0  0  0  0  0  0
    6.3700   -1.6490   27.2580 C   0  0  0  0  0  0  0  0  0  0  0  0
    5.9270   -0.5830   26.5170 C   0  0  0  0  0  0  0  0  0  0  0  0
    5.9230    0.7180   26.9850 C   0  0  0  0  0  0  0  0  0  0  0  0
    6.3900    1.1830   28.3600 C   0  0  0  0  0  0  0  0  0  0  0  0
    6.3670    2.4690   28.7860 F   0  0  0  0  0  0  0  0  0  0  0  0
    6.8730   -0.0430   29.1430 C   0  0  0  0  0  0  0  0  0  0  0  0
    7.4600    0.2240   30.7730 Cl  0  0  0  0  0  0  0  0  0  0  0  0
    6.8310   -1.4030   28.5180 C   0  0  0  0  0  0  0  0  0  0  0  0
    5.7810   -4.7890   23.5670 C   0  0  0  0  0  0  0  0  0  0  0  0
    6.5190   -5.3390   22.5390 C   0  0  0  0  0  0  0  0  0  0  0  0
  1  2  1  0
  2  3  2  0
  2  4  1  0
  4  5  1  0
  5  6  1  0
  6  7  1  0
  7  8  1  0
  8  9  2  0
  8 10  1  0
 10 11  1  0
 11 12  1  0
 12 13  1  0
 12 14  1  0
 10 15  1  0
 15 16  2  0
 16 17  1  0
 17 18  2  0
 18 19  1  0
 18 20  1  0
 20 21  1  0
 15 22  1  0
 20 22  2  0
  7 23  1  0
  4 24  1  0
 23 24  1  0
M  END
