piperidine-amides-16158-covalent
     RDKit          3D

 19 20  0  0  0  0  0  0  0  0999 V2000
    7.1670   -3.3000   19.2340 C   0  0  0  0  0  0  0  0  0  0  0  0
    6.4410   -4.1290   20.2250 C   0  0  0  0  0  0  0  0  0  0  0  0
    5.3420   -4.5710   19.9000 O   0  0  0  0  0  0  0  0  0  0  0  0
    7.0580   -4.4290   21.4370 N   0  0  0  0  0  0  0  0  0  0  0  0
    6.6700   -5.5720   22.2040 C   0  0  0  0  0  0  0  0  0  0  0  0
    5.7390   -5.0890   23.2580 C   0  0  0  0  0  0  0  0  0  0  0  0
    6.3950   -3.9640   24.0540 C   0  0  0  0  0  0  0  0  0  0  0  0
    5.3470   -3.4540   24.9090 C   0  0  0  0  0  0  0  0  0  0  0  0
    4.4460   -2.7570   24.4430 O   0  0  0  0  0  0  0  0  0  0  0  0
    5.3410   -3.7460   26.2460 N   0  0  0  0  0  0  0  0  0  0  0  0
    6.3890   -3.1400   26.9980 C   0  0  0  0  0  0  0  0  0  0  0  0
    6.6800   -4.0940   28.1240 C   0  0  0  0  0  0  0  0  0  0  0  0
    5.7750   -4.1210   29.0450 C   0  0  0  0  0  0  0  0  0  0  0  0
    5.4400   -2.8470   29.4370 C   0  0  0  0  0  0  0  0  0  0  0  0
    6.5570   -2.0570   29.6230 O   0  0  0  0  0  0  0  0  0  0  0  0
    4.6020   -4.6070   28.2850 C   0  0  0  0  0  0  0  0  0  0  0  0
    4.3310   -3.5550   27.2530 C   0  0  0  0  0  0  0  0  0  0  0  0
    7.0300   -2.8660   23.2660 C   0  0  0  0  0  0  0  0  0  0  0  0
    7.8040   -3.3880   22.1160 C   0  0  0  0  0  0  0  0  0  0  0  0
  1  2  1  0
  2  3  2  0
  2  4  1  0
  4  5  1  0
  5  6  1  0
  6  7  1  0
  7  8  1  0
  8  9  2  0
  8 10  1  0
 10 11  1  0
 11 12  1  0
 12 13  1  0
 13 14  1  0
 14 15  1  0
 13 16  1  0
 10 17  1  0
 16 17  1  0
  7 18  1  0
  4 19  1  0
 18 19  1  0
M  END
