piperidine-amides-26108-covalent
     RDKit          3D

 25 27  0  0  0  0  0  0  0  0999 V2000
    7.0310   -3.3590   19.4130 C   0  0  0  0  0  0  0  0  0  0  0  0
    6.3640   -4.2310   20.3850 C   0  0  0  0  0  0  0  0  0  0  0  0
    5.3850   -4.8900   19.9970 O   0  0  0  0  0  0  0  0  0  0  0  0
    6.8210   -4.3850   21.7190 N   0  0  0  0  0  0  0  0  0  0  0  0
    6.6940   -5.6470   22.4200 C   0  0  0  0  0  0  0  0  0  0  0  0
    6.1570   -5.2880   23.7790 C   0  0  0  0  0  0  0  0  0  0  0  0
    6.1700   -3.8080   23.9600 C   0  0  0  0  0  0  0  0  0  0  0  0
    5.6930   -3.3230   25.2990 C   0  0  0  0  0  0  0  0  0  0  0  0
    4.8160   -2.4180   25.3340 O   0  0  0  0  0  0  0  0  0  0  0  0
    6.1100   -3.8080   26.5700 N   0  0  0  0  0  0  0  0  0  0  0  0
    5.8800   -3.0010   27.7760 C   0  0  0  0  0  0  0  0  0  0  0  0
    4.9260   -3.7950   28.6090 C   0  0  0  0  0  0  0  0  0  0  0  0
    5.5670   -4.7290   29.3500 N   0  0  0  0  0  0  0  0  0  0  0  0
    5.0430   -5.6230   30.3110 C   0  0  0  0  0  0  0  0  0  0  0  0
    5.8570   -6.6330   30.5930 N   0  0  0  0  0  0  0  0  0  0  0  0
    5.5560   -7.5880   31.5140 C   0  0  0  0  0  0  0  0  0  0  0  0
    4.2410   -7.5410   32.2580 C   0  0  0  0  0  0  0  0  0  0  0  0
    3.3990   -6.3860   31.8700 C   0  0  0  0  0  0  0  0  0  0  0  0
    3.8130   -5.4810   30.9330 C   0  0  0  0  0  0  0  0  0  0  0  0
    3.1150   -4.4730   30.5900 O   0  0  0  0  0  0  0  0  0  0  0  0
    3.0730   -3.3870   31.4440 C   0  0  0  0  0  0  0  0  0  0  0  0
    6.3810   -5.2110   28.3910 C   0  0  0  0  0  0  0  0  0  0  0  0
    5.9100   -5.1890   26.9310 C   0  0  0  0  0  0  0  0  0  0  0  0
    7.5690   -3.3390   23.5280 C   0  0  0  0  0  0  0  0  0  0  0  0
    7.5610   -3.2550   22.3110 C   0  0  0  0  0  0  0  0  0  0  0  0
  1  2  1  0
  2  3  2  0
  2  4  1  0
  4  5  1  0
  5  6  1  0
  6  7  1  0
  7  8  1  0
  8  9  2  0
  8 10  1  0
 10 11  1  0
 11 12  1  0
 12 13  1  0
 13 14  1  0
 14 15  2  0
 15 16  1  0
 16 17  2  0
 17 18  1  0
 14 19  1  0
 18 19  2  0
 19 20  1  0
 20 21  1  0
 13 22  1  0
 10 23  1  0
 22 23  1  0
  7 24  1  0
  4 25  1  0
 24 25  1  0
M  END
