piperidine-amides-3767-covalent
     RDKit          3D

 22 24  0  0  0  0  0  0  0  0999 V2000
    7.0950   -3.3430   19.2940 C   0  0  0  0  0  0  0  0  0  0  0  0
    6.4160   -4.1610   20.3080 C   0  0  0  0  0  0  0  0  0  0  0  0
    5.3550   -4.7300   19.9560 O   0  0  0  0  0  0  0  0  0  0  0  0
    6.9730   -4.3500   21.6000 N   0  0  0  0  0  0  0  0  0  0  0  0
    7.6360   -3.2430   22.2010 C   0  0  0  0  0  0  0  0  0  0  0  0
    7.1800   -2.8870   23.5410 C   0  0  0  0  0  0  0  0  0  0  0  0
    6.4190   -3.9150   24.2860 C   0  0  0  0  0  0  0  0  0  0  0  0
    5.6670   -3.3100   25.4410 C   0  0  0  0  0  0  0  0  0  0  0  0
    4.4870   -2.9500   25.2620 O   0  0  0  0  0  0  0  0  0  0  0  0
    6.2510   -3.1440   26.7170 N   0  0  0  0  0  0  0  0  0  0  0  0
    6.2780   -2.0070   27.5750 C   0  0  2  0  0  0  0  0  0  0  0  0
    5.0120   -1.4280   28.0020 C   0  0  0  0  0  0  0  0  0  0  0  0
    5.1850    0.1080   28.0940 C   0  0  1  0  0  0  0  0  0  0  0  0
    4.7040    0.8070   29.1200 C   0  0  0  0  0  0  0  0  0  0  0  0
    5.3040    1.9940   28.3320 C   0  0  0  0  0  0  0  0  0  0  0  0
    6.7670    1.5420   28.1290 C   0  0  0  0  0  0  0  0  0  0  0  0
    6.5720    0.0220   28.3620 C   0  0  1  0  0  0  0  0  0  0  0  0
    6.8880   -0.5230   29.7490 C   0  0  0  0  0  0  0  0  0  0  0  0
    8.1260   -0.1400   30.3090 O   0  0  0  0  0  0  0  0  0  0  0  0
    7.0670   -0.9460   27.3280 C   0  0  0  0  0  0  0  0  0  0  0  0
    5.4630   -4.7100   23.3860 C   0  0  0  0  0  0  0  0  0  0  0  0
    6.3560   -5.3970   22.4170 C   0  0  0  0  0  0  0  0  0  0  0  0
  1  2  1  0
  2  3  2  0
  2  4  1  0
  4  5  1  0
  5  6  1  0
  6  7  1  0
  7  8  1  0
  8  9  2  0
  8 10  1  0
 11 10  1  6
 11 12  1  0
 13 12  1  1
 13 14  1  0
 14 15  1  0
 15 16  1  0
 13 17  1  0
 16 17  1  0
 17 18  1  1
 18 19  1  0
 11 20  1  0
 17 20  1  0
  7 21  1  0
  4 22  1  0
 21 22  1  0
M  END
