piperidine-amides-13756-covalent
     RDKit          3D

 27 29  0  0  0  0  0  0  0  0999 V2000
    7.0820   -3.3340   19.3180 C   0  0  0  0  0  0  0  0  0  0  0  0
    6.3900   -4.1890   20.3190 C   0  0  0  0  0  0  0  0  0  0  0  0
    5.3720   -4.8160   19.9770 O   0  0  0  0  0  0  0  0  0  0  0  0
    6.9420   -4.3030   21.6110 N   0  0  0  0  0  0  0  0  0  0  0  0
    7.6880   -3.2220   22.2090 C   0  0  0  0  0  0  0  0  0  0  0  0
    6.7880   -2.6480   23.2990 C   0  0  0  0  0  0  0  0  0  0  0  0
    6.5890   -3.7300   24.3010 C   0  0  0  0  0  0  0  0  0  0  0  0
    5.8120   -3.2950   25.4880 C   0  0  0  0  0  0  0  0  0  0  0  0
    4.5890   -3.4790   25.4230 O   0  0  0  0  0  0  0  0  0  0  0  0
    6.4250   -2.6920   26.6030 N   0  0  0  0  0  0  0  0  0  0  0  0
    6.0460   -1.4380   27.1640 C   0  0  2  0  0  0  0  0  0  0  0  0
    5.8880   -0.3190   26.3830 C   0  0  0  0  0  0  0  0  0  0  0  0
    5.7060    0.9000   27.0180 C   0  0  0  0  0  0  0  0  0  0  0  0
    5.6610    0.8400   28.3730 C   0  0  0  0  0  0  0  0  0  0  0  0
    6.4920    0.0300   29.0460 N   0  0  0  0  0  0  0  0  0  0  0  0
    7.1590    0.5610   30.0910 C   0  0  0  0  0  0  0  0  0  0  0  0
    7.0930    1.8570   30.3950 O   0  0  0  0  0  0  0  0  0  0  0  0
    8.0590   -0.2250   31.0320 C   0  0  0  0  0  0  0  0  0  0  0  0
    7.6660    0.1510   32.4660 C   0  0  0  0  0  0  0  0  0  0  0  0
    6.3670    0.2590   32.7660 C   0  0  0  0  0  0  0  0  0  0  0  0
    5.8140    0.6010   34.0640 C   0  0  0  0  0  0  0  0  0  0  0  0
    7.0280    0.8030   34.9850 C   0  0  0  0  0  0  0  0  0  0  0  0
    8.4370    0.7620   34.9610 C   0  0  0  0  0  0  0  0  0  0  0  0
    8.5840    0.3780   33.4500 C   0  0  0  0  0  0  0  0  0  0  0  0
    7.0000   -1.1460   28.3160 C   0  0  0  0  0  0  0  0  0  0  0  0
    5.8660   -4.9270   23.6960 C   0  0  0  0  0  0  0  0  0  0  0  0
    6.5510   -5.4170   22.4680 C   0  0  0  0  0  0  0  0  0  0  0  0
  1  2  1  0
  2  3  2  0
  2  4  1  0
  4  5  1  0
  5  6  1  0
  6  7  1  0
  7  8  1  0
  8  9  2  0
  8 10  1  0
 11 10  1  6
 11 12  1  0
 12 13  1  0
 13 14  1  0
 14 15  1  0
 15 16  1  0
 16 17  2  0
 16 18  1  0
 18 19  1  0
 19 20  2  0
 20 21  1  0
 21 22  2  0
 22 23  1  0
 19 24  1  0
 23 24  2  0
 11 25  1  0
 15 25  1  0
  7 26  1  0
  4 27  1  0
 26 27  1  0
M  END
