piperidine-amides-11028-covalent
     RDKit          3D

 21 22  0  0  0  0  0  0  0  0999 V2000
    7.1030   -3.2830   19.2410 C   0  0  0  0  0  0  0  0  0  0  0  0
    6.3330   -4.0020   20.2580 C   0  0  0  0  0  0  0  0  0  0  0  0
    5.3050   -4.6140   19.9140 O   0  0  0  0  0  0  0  0  0  0  0  0
    6.7660   -4.0490   21.5960 N   0  0  0  0  0  0  0  0  0  0  0  0
    7.7400   -3.0980   22.1070 C   0  0  0  0  0  0  0  0  0  0  0  0
    7.4690   -2.9470   23.5740 C   0  0  0  0  0  0  0  0  0  0  0  0
    6.1290   -3.4930   23.9210 C   0  0  0  0  0  0  0  0  0  0  0  0
    5.7130   -3.1590   25.3010 C   0  0  0  0  0  0  0  0  0  0  0  0
    4.5420   -3.4460   25.6970 O   0  0  0  0  0  0  0  0  0  0  0  0
    6.5530   -2.5040   26.2320 N   0  0  0  0  0  0  0  0  0  0  0  0
    6.2120   -2.5100   27.6700 C   0  0  0  0  0  0  0  0  0  0  0  0
    6.1890   -1.1250   28.1850 C   0  0  0  0  0  0  0  0  0  0  0  0
    6.1110   -0.0090   27.2270 C   0  0  0  0  0  0  0  0  0  0  0  0
    6.0860    1.3810   27.7900 C   0  0  0  0  0  0  0  0  0  0  0  0
    6.1410    1.5550   29.2890 C   0  0  0  0  0  0  0  0  0  0  0  0
    6.1150    2.8830   29.8420 F   0  0  0  0  0  0  0  0  0  0  0  0
    6.2200    0.3210   30.1170 C   0  0  0  0  0  0  0  0  0  0  0  0
    6.2870    0.4100   31.8760 Cl  0  0  0  0  0  0  0  0  0  0  0  0
    6.2400   -0.9350   29.5460 C   0  0  0  0  0  0  0  0  0  0  0  0
    6.0670   -4.9860   23.6950 C   0  0  0  0  0  0  0  0  0  0  0  0
    6.6490   -5.3010   22.3260 C   0  0  0  0  0  0  0  0  0  0  0  0
  1  2  1  0
  2  3  2  0
  2  4  1  0
  4  5  1  0
  5  6  1  0
  6  7  1  0
  7  8  1  0
  8  9  2  0
  8 10  1  0
 10 11  1  0
 11 12  1  0
 12 13  2  0
 13 14  1  0
 14 15  2  0
 15 16  1  0
 15 17  1  0
 17 18  1  0
 12 19  1  0
 17 19  2  0
  7 20  1  0
  4 21  1  0
 20 21  1  0
M  END
