piperidine-amides-19159-covalent
     RDKit          3D

 21 22  0  0  0  0  0  0  0  0999 V2000
    7.0930   -3.3820   19.2500 C   0  0  0  0  0  0  0  0  0  0  0  0
    6.3550   -4.0770   20.2790 C   0  0  0  0  0  0  0  0  0  0  0  0
    5.2900   -4.6690   19.9290 O   0  0  0  0  0  0  0  0  0  0  0  0
    6.7910   -4.1800   21.6160 N   0  0  0  0  0  0  0  0  0  0  0  0
    6.4580   -5.4590   22.2800 C   0  0  0  0  0  0  0  0  0  0  0  0
    6.4970   -5.0200   23.7940 C   0  0  0  0  0  0  0  0  0  0  0  0
    6.1360   -3.5490   23.8160 C   0  0  0  0  0  0  0  0  0  0  0  0
    5.4140   -3.2350   25.1820 C   0  0  0  0  0  0  0  0  0  0  0  0
    4.3130   -2.7290   25.0420 O   0  0  0  0  0  0  0  0  0  0  0  0
    6.2150   -3.6190   26.0550 N   0  0  0  0  0  0  0  0  0  0  0  0
    7.3400   -4.0950   26.6020 C   0  0  0  0  0  0  0  0  0  0  0  0
    7.6500   -5.2960   27.1170 C   0  0  1  0  0  0  0  0  0  0  0  0
    9.0040   -5.6920   26.9070 C   0  0  0  0  0  0  0  0  0  0  0  0
    7.5140   -5.1200   28.6010 C   0  0  0  0  0  0  0  0  0  0  0  0
    7.1680   -6.3050   29.2320 F   0  0  0  0  0  0  0  0  0  0  0  0
    8.7420   -4.6110   28.9060 F   0  0  0  0  0  0  0  0  0  0  0  0
    6.4830   -3.9900   28.4860 C   0  0  2  0  0  0  0  0  0  0  0  0
    5.4290   -4.9170   28.4510 C   0  0  0  0  0  0  0  0  0  0  0  0
    5.5450   -3.7690   27.3240 C   0  0  0  0  0  0  0  0  0  0  0  0
    7.0910   -2.6000   23.3350 C   0  0  0  0  0  0  0  0  0  0  0  0
    7.8000   -3.3870   22.2110 C   0  0  0  0  0  0  0  0  0  0  0  0
  1  2  1  0
  2  3  2  0
  2  4  1  0
  4  5  1  0
  5  6  1  0
  6  7  1  0
  7  8  1  0
  8  9  2  0
  8 10  1  0
 10 11  1  0
 11 12  1  0
 12 13  1  1
 12 14  1  0
 14 15  1  0
 14 16  1  0
 14 17  1  0
 17 18  1  1
 10 19  1  0
 17 19  1  0
  7 20  1  0
  4 21  1  0
 20 21  1  0
M  END
