piperidine-amides-729-covalent
     RDKit          3D

 25 26  0  0  0  0  0  0  0  0999 V2000
    7.1890   -3.2720   19.3070 C   0  0  0  0  0  0  0  0  0  0  0  0
    6.4160   -4.0440   20.2560 C   0  0  0  0  0  0  0  0  0  0  0  0
    5.3120   -4.5560   19.8880 O   0  0  0  0  0  0  0  0  0  0  0  0
    6.8860   -4.2820   21.5560 N   0  0  0  0  0  0  0  0  0  0  0  0
    6.4040   -5.4850   22.2610 C   0  0  0  0  0  0  0  0  0  0  0  0
    5.3790   -4.8140   23.2500 C   0  0  0  0  0  0  0  0  0  0  0  0
    6.2080   -3.8190   24.0230 C   0  0  0  0  0  0  0  0  0  0  0  0
    5.4050   -3.2580   25.2720 C   0  0  0  0  0  0  0  0  0  0  0  0
    4.5000   -2.5090   24.9330 O   0  0  0  0  0  0  0  0  0  0  0  0
    5.9410   -3.7610   26.2940 N   0  0  0  0  0  0  0  0  0  0  0  0
    6.5550   -4.3230   27.3510 C   0  0  2  0  0  0  0  0  0  0  0  0
    7.7030   -4.9900   27.5470 C   0  0  0  0  0  0  0  0  0  0  0  0
    8.7230   -4.5030   26.7150 C   0  0  0  0  0  0  0  0  0  0  0  0
   10.0530   -5.0110   26.9570 C   0  0  0  0  0  0  0  0  0  0  0  0
   11.1560   -4.4280   26.0060 C   0  0  0  0  0  0  0  0  0  0  0  0
   10.7500   -3.4900   25.0360 C   0  0  0  0  0  0  0  0  0  0  0  0
    9.4800   -3.0100   24.8090 C   0  0  0  0  0  0  0  0  0  0  0  0
    9.8910   -2.0920   23.6540 C   0  0  0  0  0  0  0  0  0  0  0  0
    8.3600   -3.5090   25.6720 C   0  0  0  0  0  0  0  0  0  0  0  0
    5.5090   -5.1780   28.0690 C   0  0  1  0  0  0  0  0  0  0  0  0
    5.0020   -6.1730   27.2700 C   0  0  0  0  0  0  0  0  0  0  0  0
    5.8210   -5.6010   29.2140 O   0  0  0  0  0  0  0  0  0  0  0  0
    6.2920   -6.9290   29.3130 C   0  0  0  0  0  0  0  0  0  0  0  0
    6.8820   -2.7510   23.2350 C   0  0  0  0  0  0  0  0  0  0  0  0
    7.6810   -3.3120   22.2480 C   0  0  0  0  0  0  0  0  0  0  0  0
  1  2  1  0
  2  3  2  0
  2  4  1  0
  4  5  1  0
  5  6  1  0
  6  7  1  0
  7  8  1  0
  8  9  2  0
  8 10  1  0
 10 11  1  0
 11 12  1  6
 12 13  1  0
 13 14  2  0
 14 15  1  0
 15 16  2  0
 16 17  1  0
 17 18  1  0
 13 19  1  0
 17 19  2  0
 11 20  1  0
 20 21  1  6
 20 22  1  0
 22 23  1  0
  7 24  1  0
  4 25  1  0
 24 25  1  0
M  END
