piperidine-amides-31354-covalent
     RDKit          3D

 28 30  0  0  0  0  0  0  0  0999 V2000
    7.1580   -3.3360   19.3920 C   0  0  0  0  0  0  0  0  0  0  0  0
    6.4650   -4.1610   20.3450 C   0  0  0  0  0  0  0  0  0  0  0  0
    5.4190   -4.7950   19.9760 O   0  0  0  0  0  0  0  0  0  0  0  0
    6.9630   -4.3080   21.6520 N   0  0  0  0  0  0  0  0  0  0  0  0
    6.6550   -5.5460   22.3880 C   0  0  0  0  0  0  0  0  0  0  0  0
    5.5920   -4.9540   23.3830 C   0  0  0  0  0  0  0  0  0  0  0  0
    6.3310   -3.9290   24.2180 C   0  0  0  0  0  0  0  0  0  0  0  0
    5.3720   -3.3780   25.3580 C   0  0  0  0  0  0  0  0  0  0  0  0
    4.3720   -2.9110   24.8380 O   0  0  0  0  0  0  0  0  0  0  0  0
    5.8420   -3.5370   26.5300 N   0  0  0  0  0  0  0  0  0  0  0  0
    6.2250   -3.1290   27.7650 C   0  0  0  0  0  0  0  0  0  0  0  0
    6.5170   -3.7120   28.9490 C   0  0  0  0  0  0  0  0  0  0  0  0
    5.7090   -4.8150   29.1210 C   0  0  0  0  0  0  0  0  0  0  0  0
    4.2760   -4.4270   29.2100 C   0  0  0  0  0  0  0  0  0  0  0  0
    3.7800   -5.7260   29.8720 C   0  0  0  0  0  0  0  0  0  0  0  0
    3.2330   -6.2700   28.7170 C   0  0  0  0  0  0  0  0  0  0  0  0
    2.5470   -7.5080   28.5120 C   0  0  0  0  0  0  0  0  0  0  0  0
    2.6340   -8.0060   30.0010 C   0  0  0  0  0  0  0  0  0  0  0  0
    3.2850   -7.3060   31.2440 C   0  0  0  0  0  0  0  0  0  0  0  0
    3.2520   -7.9220   32.4690 C   0  0  0  0  0  0  0  0  0  0  0  0
    4.3930   -7.9910   33.2250 C   0  0  0  0  0  0  0  0  0  0  0  0
    5.5480   -7.8250   32.5300 C   0  0  0  0  0  0  0  0  0  0  0  0
    4.4270   -9.0460   34.1070 C   0  0  0  0  0  0  0  0  0  0  0  0
    3.8810   -6.1130   31.1550 C   0  0  0  0  0  0  0  0  0  0  0  0
    5.9730   -5.6530   27.9440 C   0  0  0  0  0  0  0  0  0  0  0  0
    5.7360   -4.9680   26.6160 C   0  0  0  0  0  0  0  0  0  0  0  0
    7.0630   -2.8170   23.4960 C   0  0  0  0  0  0  0  0  0  0  0  0
    7.8290   -3.3740   22.3050 C   0  0  0  0  0  0  0  0  0  0  0  0
  1  2  1  0
  2  3  2  0
  2  4  1  0
  4  5  1  0
  5  6  1  0
  6  7  1  0
  7  8  1  0
  8  9  2  0
  8 10  1  0
 10 11  1  0
 11 12  1  0
 12 13  1  0
 13 14  1  0
 14 15  1  0
 15 16  2  0
 16 17  1  0
 17 18  2  0
 18 19  1  0
 19 20  1  0
 20 21  1  0
 21 22  1  0
 21 23  1  0
 15 24  1  0
 19 24  2  0
 13 25  1  0
 10 26  1  0
 25 26  1  0
  7 27  1  0
  4 28  1  0
 27 28  1  0
M  END
