piperidine-amides-26067-covalent
     RDKit          3D

 25 26  0  0  0  0  0  0  0  0999 V2000
    7.0830   -3.2420   19.2090 C   0  0  0  0  0  0  0  0  0  0  0  0
    6.2550   -4.0040   20.1480 C   0  0  0  0  0  0  0  0  0  0  0  0
    5.1430   -4.4020   19.7930 O   0  0  0  0  0  0  0  0  0  0  0  0
    6.6930   -4.3620   21.4180 N   0  0  0  0  0  0  0  0  0  0  0  0
    6.2390   -5.5600   22.0550 C   0  0  0  0  0  0  0  0  0  0  0  0
    5.5610   -5.0620   23.2990 C   0  0  0  0  0  0  0  0  0  0  0  0
    6.5390   -4.4530   24.2630 C   0  0  0  0  0  0  0  0  0  0  0  0
    5.9140   -3.5870   25.2770 C   0  0  0  0  0  0  0  0  0  0  0  0
    4.6670   -3.3400   25.2890 O   0  0  0  0  0  0  0  0  0  0  0  0
    6.7130   -3.0070   26.2700 N   0  0  0  0  0  0  0  0  0  0  0  0
    7.5080   -3.9180   27.1160 C   0  0  0  0  0  0  0  0  0  0  0  0
    6.6760   -5.0870   27.4700 C   0  0  0  0  0  0  0  0  0  0  0  0
    7.1810   -5.8180   28.6270 C   0  0  0  0  0  0  0  0  0  0  0  0
    8.4140   -5.8960   28.5300 O   0  0  0  0  0  0  0  0  0  0  0  0
    6.5290   -6.3170   29.6430 O   0  0  0  0  0  0  0  0  0  0  0  0
    5.8270   -7.5360   29.5960 C   0  0  0  0  0  0  0  0  0  0  0  0
    7.3400   -1.7280   26.0950 C   0  0  0  0  0  0  0  0  0  0  0  0
    8.0560   -1.6260   24.7870 C   0  0  0  0  0  0  0  0  0  0  0  0
    7.6370   -0.6830   23.8490 C   0  0  0  0  0  0  0  0  0  0  0  0
    8.2000   -0.4540   22.5970 C   0  0  0  0  0  0  0  0  0  0  0  0
    9.3620   -1.2850   22.2010 C   0  0  0  0  0  0  0  0  0  0  0  0
    9.8350   -2.3170   23.1930 C   0  0  0  0  0  0  0  0  0  0  0  0
    9.2250   -2.5750   24.5640 C   0  0  0  0  0  0  0  0  0  0  0  0
    7.6440   -3.7400   23.5450 C   0  0  0  0  0  0  0  0  0  0  0  0
    7.2620   -3.3180   22.1880 C   0  0  0  0  0  0  0  0  0  0  0  0
  1  2  1  0
  2  3  2  0
  2  4  1  0
  4  5  1  0
  5  6  1  0
  6  7  1  0
  7  8  1  0
  8  9  2  0
  8 10  1  0
 10 11  1  0
 11 12  1  0
 12 13  1  0
 13 14  2  0
 13 15  1  0
 15 16  1  0
 10 17  1  0
 17 18  1  0
 18 19  2  0
 19 20  1  0
 20 21  2  0
 21 22  1  0
 18 23  1  0
 22 23  2  0
  7 24  1  0
  4 25  1  0
 24 25  1  0
M  END
