piperidine-amides-30990-covalent
     RDKit          3D

 25 27  0  0  0  0  0  0  0  0999 V2000
    7.1260   -3.3100   19.2500 C   0  0  0  0  0  0  0  0  0  0  0  0
    6.4030   -4.1060   20.2410 C   0  0  0  0  0  0  0  0  0  0  0  0
    5.3350   -4.6560   19.9270 O   0  0  0  0  0  0  0  0  0  0  0  0
    6.9270   -4.3150   21.5170 N   0  0  0  0  0  0  0  0  0  0  0  0
    6.6790   -5.5100   22.2820 C   0  0  0  0  0  0  0  0  0  0  0  0
    5.9510   -5.0410   23.5090 C   0  0  0  0  0  0  0  0  0  0  0  0
    6.6980   -3.9360   24.2040 C   0  0  0  0  0  0  0  0  0  0  0  0
    5.9910   -3.4510   25.4090 C   0  0  0  0  0  0  0  0  0  0  0  0
    5.2410   -2.4330   25.3220 O   0  0  0  0  0  0  0  0  0  0  0  0
    6.0710   -4.0720   26.6750 N   0  0  0  0  0  0  0  0  0  0  0  0
    6.0010   -5.5400   26.7120 C   0  0  0  0  0  0  0  0  0  0  0  0
    4.8850   -5.4510   27.5490 C   0  0  1  0  0  0  0  0  0  0  0  0
    5.1460   -4.6220   28.6350 C   0  0  1  0  0  0  0  0  0  0  0  0
    3.9960   -4.7160   29.6410 C   0  0  0  0  0  0  0  0  0  0  0  0
    2.8450   -5.2200   29.0400 F   0  0  0  0  0  0  0  0  0  0  0  0
    4.2480   -5.7030   30.5730 F   0  0  0  0  0  0  0  0  0  0  0  0
    3.6550   -3.5360   30.2210 F   0  0  0  0  0  0  0  0  0  0  0  0
    6.0870   -3.5630   28.8550 C   0  0  0  0  0  0  0  0  0  0  0  0
    4.9370   -2.9000   28.0550 C   0  0  0  0  0  0  0  0  0  0  0  0
    3.8850   -4.1170   27.2440 S   0  0  0  0  0  0  0  0  0  0  0  0
    3.7250   -3.8250   25.8020 O   0  0  0  0  0  0  0  0  0  0  0  0
    2.5000   -4.1900   27.8540 O   0  0  0  0  0  0  0  0  0  0  0  0
    5.2660   -3.5020   27.7700 C   0  0  0  0  0  0  0  0  0  0  0  0
    6.9550   -2.7640   23.3070 C   0  0  0  0  0  0  0  0  0  0  0  0
    7.7360   -3.2800   22.1400 C   0  0  0  0  0  0  0  0  0  0  0  0
  1  2  1  0
  2  3  2  0
  2  4  1  0
  4  5  1  0
  5  6  1  0
  6  7  1  0
  7  8  1  0
  8  9  2  0
  8 10  1  0
 10 11  1  0
 12 11  1  6
 12 13  1  0
 13 14  1  6
 14 15  1  0
 14 16  1  0
 14 17  1  0
 13 18  1  0
 18 19  1  0
 12 20  1  0
 20 19  1  0
 20 21  2  0
 20 22  2  0
 10 23  1  0
 13 23  1  0
  7 24  1  0
  4 25  1  0
 24 25  1  0
M  END
