piperidine-amides-9923-covalent
     RDKit          3D

 27 29  0  0  0  0  0  0  0  0999 V2000
    7.1710   -4.0250   19.6630 C   0  0  0  0  0  0  0  0  0  0  0  0
    5.9780   -3.8990   20.3630 C   0  0  0  0  0  0  0  0  0  0  0  0
    4.9730   -4.0120   19.6220 O   0  0  0  0  0  0  0  0  0  0  0  0
    6.0920   -3.7770   21.7310 N   0  0  0  0  0  0  0  0  0  0  0  0
    7.3170   -3.1030   22.1520 C   0  0  0  0  0  0  0  0  0  0  0  0
    7.2710   -2.7760   23.6110 C   0  0  0  0  0  0  0  0  0  0  0  0
    6.0170   -3.2890   24.2390 C   0  0  0  0  0  0  0  0  0  0  0  0
    6.0390   -3.0520   25.6890 C   0  0  0  0  0  0  0  0  0  0  0  0
    4.9290   -2.9410   26.2510 O   0  0  0  0  0  0  0  0  0  0  0  0
    7.2310   -2.9220   26.4480 N   0  0  0  0  0  0  0  0  0  0  0  0
    7.6160   -3.8720   27.4690 C   0  0  0  0  0  0  0  0  0  0  0  0
    6.4410   -4.6510   28.0430 C   0  0  0  0  0  0  0  0  0  0  0  0
    6.3930   -6.0120   28.2230 C   0  0  0  0  0  0  0  0  0  0  0  0
    5.3020   -6.6910   28.7430 C   0  0  0  0  0  0  0  0  0  0  0  0
    4.1630   -5.9920   29.1200 C   0  0  0  0  0  0  0  0  0  0  0  0
    3.0530   -6.5640   29.6300 N   0  0  0  0  0  0  0  0  0  0  0  0
    2.1260   -5.9790   30.4090 C   0  0  0  0  0  0  0  0  0  0  0  0
    0.9800   -5.5660   29.7520 C   0  0  0  0  0  0  0  0  0  0  0  0
    0.3580   -6.6370   29.2160 N   0  0  0  0  0  0  0  0  0  0  0  0
    1.1300   -7.4990   28.4070 C   0  0  0  0  0  0  0  0  0  0  0  0
    0.5990   -8.1390   27.3140 O   0  0  0  0  0  0  0  0  0  0  0  0
    2.5810   -7.6510   28.8510 C   0  0  0  0  0  0  0  0  0  0  0  0
    4.0950   -4.6240   28.9910 C   0  0  0  0  0  0  0  0  0  0  0  0
    2.9840   -3.9510   29.3640 F   0  0  0  0  0  0  0  0  0  0  0  0
    5.3000   -3.9050   28.4210 C   0  0  0  0  0  0  0  0  0  0  0  0
    5.7750   -4.7200   23.9350 C   0  0  0  0  0  0  0  0  0  0  0  0
    5.7700   -4.9850   22.4580 C   0  0  0  0  0  0  0  0  0  0  0  0
  1  2  1  0
  2  3  2  0
  2  4  1  0
  4  5  1  0
  5  6  1  0
  6  7  1  0
  7  8  1  0
  8  9  2  0
  8 10  1  0
 10 11  1  0
 11 12  1  0
 12 13  2  0
 13 14  1  0
 14 15  2  0
 15 16  1  0
 16 17  1  0
 17 18  1  0
 18 19  1  0
 19 20  1  0
 20 21  2  0
 16 22  1  0
 20 22  1  0
 15 23  1  0
 23 24  1  0
 12 25  1  0
 23 25  2  0
  7 26  1  0
  4 27  1  0
 26 27  1  0
M  END
