piperidine-amides-28170-covalent
     RDKit          3D

 26 28  0  0  0  0  0  0  0  0999 V2000
    7.0930   -3.3070   19.2720 C   0  0  0  0  0  0  0  0  0  0  0  0
    6.4060   -4.1420   20.2840 C   0  0  0  0  0  0  0  0  0  0  0  0
    5.3350   -4.6740   19.9310 O   0  0  0  0  0  0  0  0  0  0  0  0
    6.9730   -4.3630   21.5470 N   0  0  0  0  0  0  0  0  0  0  0  0
    6.6260   -5.5380   22.2640 C   0  0  0  0  0  0  0  0  0  0  0  0
    6.0850   -5.2570   23.5920 C   0  0  0  0  0  0  0  0  0  0  0  0
    6.7150   -4.1340   24.3140 C   0  0  0  0  0  0  0  0  0  0  0  0
    5.8330   -3.7450   25.4330 C   0  0  0  0  0  0  0  0  0  0  0  0
    5.0990   -2.7510   25.2740 O   0  0  0  0  0  0  0  0  0  0  0  0
    5.7790   -4.4700   26.6370 N   0  0  0  0  0  0  0  0  0  0  0  0
    4.6250   -4.2490   27.4940 C   0  0  0  0  0  0  0  0  0  0  0  0
    5.1280   -4.1210   28.8850 C   0  0  0  0  0  0  0  0  0  0  0  0
    5.6080   -3.0160   29.2870 O   0  0  0  0  0  0  0  0  0  0  0  0
    6.8040   -2.5730   28.9170 C   0  0  0  0  0  0  0  0  0  0  0  0
    6.6040   -3.6460   28.3240 C   0  0  0  0  0  0  0  0  0  0  0  0
    6.0220   -2.8390   29.1910 C   0  0  0  0  0  0  0  0  0  0  0  0
    7.2760   -1.7570   29.1840 C   0  0  0  0  0  0  0  0  0  0  0  0
    6.6920   -0.9490   30.0330 C   0  0  0  0  0  0  0  0  0  0  0  0
    5.9790   -1.7640   29.8740 C   0  0  0  0  0  0  0  0  0  0  0  0
    4.6780   -2.0270   30.3670 C   0  0  0  0  0  0  0  0  0  0  0  0
    3.6700   -1.8760   29.4170 O   0  0  0  0  0  0  0  0  0  0  0  0
    4.3290   -2.3690   31.6670 O   0  0  0  0  0  0  0  0  0  0  0  0
    3.2050   -3.2100   31.8370 C   0  0  0  0  0  0  0  0  0  0  0  0
    6.8340   -4.7180   27.4830 C   0  0  0  0  0  0  0  0  0  0  0  0
    6.9650   -2.9480   23.3680 C   0  0  0  0  0  0  0  0  0  0  0  0
    7.7260   -3.3470   22.2540 C   0  0  0  0  0  0  0  0  0  0  0  0
  1  2  1  0
  2  3  2  0
  2  4  1  0
  4  5  1  0
  5  6  1  0
  6  7  1  0
  7  8  1  0
  8  9  2  0
  8 10  1  0
 10 11  1  0
 11 12  1  0
 12 13  1  0
 13 14  1  0
 14 15  2  0
 15 16  1  0
 16 17  2  0
 17 18  1  0
 14 19  1  0
 18 19  2  0
 19 20  1  0
 20 21  2  0
 20 22  1  0
 22 23  1  0
 10 24  1  0
 15 24  1  0
  7 25  1  0
  4 26  1  0
 25 26  1  0
M  END
