piperidine-amides-31114-covalent
     RDKit          3D

 23 25  0  0  0  0  0  0  0  0999 V2000
    7.0990   -3.3410   19.2980 C   0  0  0  0  0  0  0  0  0  0  0  0
    6.3420   -4.1180   20.2750 C   0  0  0  0  0  0  0  0  0  0  0  0
    5.2850   -4.6610   19.9230 O   0  0  0  0  0  0  0  0  0  0  0  0
    6.8190   -4.3180   21.5790 N   0  0  0  0  0  0  0  0  0  0  0  0
    6.5910   -5.5440   22.3010 C   0  0  0  0  0  0  0  0  0  0  0  0
    5.8280   -5.1390   23.5330 C   0  0  0  0  0  0  0  0  0  0  0  0
    6.5220   -4.0330   24.2690 C   0  0  0  0  0  0  0  0  0  0  0  0
    5.7210   -3.5440   25.4240 C   0  0  0  0  0  0  0  0  0  0  0  0
    4.6570   -2.9040   25.2030 O   0  0  0  0  0  0  0  0  0  0  0  0
    6.0440   -3.7400   26.7930 N   0  0  0  0  0  0  0  0  0  0  0  0
    5.8500   -2.5920   27.7110 C   0  0  0  0  0  0  0  0  0  0  0  0
    5.5230   -3.0910   29.0650 C   0  0  0  0  0  0  0  0  0  0  0  0
    4.7230   -4.3120   29.0820 C   0  0  0  0  0  0  0  0  0  0  0  0
    3.5440   -4.4150   30.0210 C   0  0  0  0  0  0  0  0  0  0  0  0
    2.7130   -5.6910   30.0250 C   0  0  0  0  0  0  0  0  0  0  0  0
    1.1920   -5.9670   31.1620 Br  0  0  0  0  0  0  0  0  0  0  0  0
    3.2300   -6.6840   29.0370 C   0  0  0  0  0  0  0  0  0  0  0  0
    4.3130   -6.4890   28.2230 C   0  0  0  0  0  0  0  0  0  0  0  0
    4.7360   -7.4200   27.3420 F   0  0  0  0  0  0  0  0  0  0  0  0
    5.0310   -5.3040   28.2720 C   0  0  0  0  0  0  0  0  0  0  0  0
    6.1850   -4.9850   27.4670 C   0  0  0  0  0  0  0  0  0  0  0  0
    6.8840   -2.8390   23.4310 C   0  0  0  0  0  0  0  0  0  0  0  0
    7.6430   -3.3180   22.2250 C   0  0  0  0  0  0  0  0  0  0  0  0
  1  2  1  0
  2  3  2  0
  2  4  1  0
  4  5  1  0
  5  6  1  0
  6  7  1  0
  7  8  1  0
  8  9  2  0
  8 10  1  0
 10 11  1  0
 11 12  1  0
 12 13  1  0
 13 14  2  0
 14 15  1  0
 15 16  1  0
 15 17  2  0
 17 18  1  0
 18 19  1  0
 13 20  1  0
 18 20  2  0
 10 21  1  0
 20 21  1  0
  7 22  1  0
  4 23  1  0
 22 23  1  0
M  END
