piperidine-amides-2441-covalent
     RDKit          3D

 26 28  0  0  0  0  0  0  0  0999 V2000
    7.0830   -3.2460   19.1740 C   0  0  0  0  0  0  0  0  0  0  0  0
    6.3110   -3.9860   20.2070 C   0  0  0  0  0  0  0  0  0  0  0  0
    5.2550   -4.4970   19.8570 O   0  0  0  0  0  0  0  0  0  0  0  0
    6.8020   -4.1290   21.5050 N   0  0  0  0  0  0  0  0  0  0  0  0
    6.5570   -5.3400   22.2430 C   0  0  0  0  0  0  0  0  0  0  0  0
    5.9820   -4.9910   23.5830 C   0  0  0  0  0  0  0  0  0  0  0  0
    6.8890   -3.9430   24.2270 C   0  0  0  0  0  0  0  0  0  0  0  0
    6.3620   -3.6490   25.5670 C   0  0  0  0  0  0  0  0  0  0  0  0
    5.3230   -2.9760   25.6930 O   0  0  0  0  0  0  0  0  0  0  0  0
    7.0790   -4.1570   26.6730 N   0  0  0  0  0  0  0  0  0  0  0  0
    6.7830   -3.7310   28.0200 C   0  0  0  0  0  0  0  0  0  0  0  0
    5.3350   -4.0960   28.3230 C   0  0  0  0  0  0  0  0  0  0  0  0
    4.4420   -3.0200   28.6170 N   0  0  0  0  0  0  0  0  0  0  0  0
    3.2370   -3.4250   28.8510 N   0  0  0  0  0  0  0  0  0  0  0  0
    3.2350   -4.7950   28.7290 C   0  0  0  0  0  0  0  0  0  0  0  0
    4.5660   -5.1990   28.4080 N   0  0  0  0  0  0  0  0  0  0  0  0
    4.7320   -6.6500   28.2570 C   0  0  0  0  0  0  0  0  0  0  0  0
    4.0950   -7.0380   29.3950 C   0  0  1  0  0  0  0  0  0  0  0  0
    4.2980   -6.7600   30.8830 C   0  0  0  0  0  0  0  0  0  0  0  0
    3.5960   -7.6200   31.7400 F   0  0  0  0  0  0  0  0  0  0  0  0
    3.9650   -5.4740   31.3340 F   0  0  0  0  0  0  0  0  0  0  0  0
    5.6360   -6.9280   31.1580 F   0  0  0  0  0  0  0  0  0  0  0  0
    3.2070   -6.0600   29.9660 C   0  0  0  0  0  0  0  0  0  0  0  0
    2.2440   -5.9500   28.8250 C   0  0  0  0  0  0  0  0  0  0  0  0
    7.1120   -2.7360   23.4170 C   0  0  0  0  0  0  0  0  0  0  0  0
    7.6290   -3.0870   22.0700 C   0  0  0  0  0  0  0  0  0  0  0  0
  1  2  1  0
  2  3  2  0
  2  4  1  0
  4  5  1  0
  5  6  1  0
  6  7  1  0
  7  8  1  0
  8  9  2  0
  8 10  1  0
 10 11  1  0
 11 12  1  0
 12 13  2  0
 13 14  1  0
 14 15  2  0
 12 16  1  0
 15 16  1  0
 16 17  1  0
 17 18  1  0
 18 19  1  1
 19 20  1  0
 19 21  1  0
 19 22  1  0
 18 23  1  0
 15 24  1  0
 23 24  1  0
  7 25  1  0
  4 26  1  0
 25 26  1  0
M  END
