piperidine-amides-8493-covalent
     RDKit          3D

 24 24  0  0  0  0  0  0  0  0999 V2000
    7.0640   -3.2440   19.2250 C   0  0  0  0  0  0  0  0  0  0  0  0
    6.2950   -4.0010   20.2180 C   0  0  0  0  0  0  0  0  0  0  0  0
    5.2420   -4.5480   19.8650 O   0  0  0  0  0  0  0  0  0  0  0  0
    6.7600   -4.1370   21.5450 N   0  0  0  0  0  0  0  0  0  0  0  0
    6.5850   -5.4080   22.1870 C   0  0  0  0  0  0  0  0  0  0  0  0
    6.1500   -5.2310   23.6180 C   0  0  0  0  0  0  0  0  0  0  0  0
    5.9910   -3.7540   23.8880 C   0  0  0  0  0  0  0  0  0  0  0  0
    5.4380   -3.5200   25.2670 C   0  0  0  0  0  0  0  0  0  0  0  0
    4.2140   -3.4940   25.3600 O   0  0  0  0  0  0  0  0  0  0  0  0
    6.3180   -3.3380   26.3310 N   0  0  0  0  0  0  0  0  0  0  0  0
    6.5820   -4.3160   27.3440 C   0  0  1  0  0  0  0  0  0  0  0  0
    6.6610   -5.6590   26.9650 C   0  0  0  0  0  0  0  0  0  0  0  0
    7.9390   -3.9830   27.7590 C   0  0  0  0  0  0  0  0  0  0  0  0
    8.4140   -2.7220   27.4600 C   0  0  0  0  0  0  0  0  0  0  0  0
    8.6410   -2.8130   25.9770 C   0  0  0  0  0  0  0  0  0  0  0  0
    9.4510   -4.0360   25.4950 C   0  0  0  0  0  0  0  0  0  0  0  0
   10.1830   -4.6750   26.6030 C   0  0  0  0  0  0  0  0  0  0  0  0
   11.4690   -5.2680   26.0070 C   0  0  0  0  0  0  0  0  0  0  0  0
   13.6240   -5.2820   26.4480 C   0  0  0  0  0  0  0  0  0  0  0  0
   14.5280   -5.9640   26.4170 C   0  0  0  0  0  0  0  0  0  0  0  0
   15.4600   -5.9250   27.4810 C   0  0  0  0  0  0  0  0  0  0  0  0
   14.6870   -4.9980   28.5540 C   0  0  0  0  0  0  0  0  0  0  0  0
    7.3410   -3.0710   23.6370 C   0  0  0  0  0  0  0  0  0  0  0  0
    7.5670   -3.1240   22.1500 C   0  0  0  0  0  0  0  0  0  0  0  0
  1  2  1  0
  2  3  2  0
  2  4  1  0
  4  5  1  0
  5  6  1  0
  6  7  1  0
  7  8  1  0
  8  9  2  0
  8 10  1  0
 10 11  1  0
 11 12  1  6
 11 13  1  0
 13 14  1  0
 14 15  1  0
 15 16  1  0
 16 17  1  0
 17 18  1  0
 18 19  1  0
 19 20  1  0
 20 21  1  0
 21 22  1  0
  7 23  1  0
  4 24  1  0
 23 24  1  0
M  END
