piperidine-amides-4205-covalent
     RDKit          3D

 27 28  0  0  0  0  0  0  0  0999 V2000
    7.0990   -3.2930   19.2780 C   0  0  0  0  0  0  0  0  0  0  0  0
    6.3650   -4.0900   20.2740 C   0  0  0  0  0  0  0  0  0  0  0  0
    5.2850   -4.6070   19.9050 O   0  0  0  0  0  0  0  0  0  0  0  0
    6.8820   -4.3210   21.5690 N   0  0  0  0  0  0  0  0  0  0  0  0
    7.6080   -3.2670   22.1990 C   0  0  0  0  0  0  0  0  0  0  0  0
    7.4420   -3.1700   23.6450 C   0  0  0  0  0  0  0  0  0  0  0  0
    6.4850   -4.1250   24.2460 C   0  0  0  0  0  0  0  0  0  0  0  0
    5.7360   -3.5000   25.3910 C   0  0  0  0  0  0  0  0  0  0  0  0
    4.4860   -3.4610   25.3730 O   0  0  0  0  0  0  0  0  0  0  0  0
    6.4210   -2.9640   26.4950 N   0  0  0  0  0  0  0  0  0  0  0  0
    6.4090   -1.6470   27.0350 C   0  0  0  0  0  0  0  0  0  0  0  0
    6.8970   -1.3320   28.3920 C   0  0  0  0  0  0  0  0  0  0  0  0
    6.8520    0.1260   28.9330 C   0  0  0  0  0  0  0  0  0  0  0  0
    7.3250    0.3280   30.1990 O   0  0  0  0  0  0  0  0  0  0  0  0
    8.2910   -0.6030   30.4870 C   0  0  0  0  0  0  0  0  0  0  0  0
    6.3040    1.2380   28.0570 C   0  0  0  0  0  0  0  0  0  0  0  0
    6.2360    2.5510   28.4560 O   0  0  0  0  0  0  0  0  0  0  0  0
    6.9780    3.2380   27.6360 C   0  0  0  0  0  0  0  0  0  0  0  0
    5.8180    0.8550   26.6710 C   0  0  0  0  0  0  0  0  0  0  0  0
    5.8660   -0.5440   26.1620 C   0  0  0  0  0  0  0  0  0  0  0  0
    5.3430   -0.7750   24.7390 C   0  0  0  0  0  0  0  0  0  0  0  0
    5.0670   -1.9790   24.1360 O   0  0  0  0  0  0  0  0  0  0  0  0
    5.0900    0.2730   23.9240 N   0  0  0  0  0  0  0  0  0  0  0  0
    4.3260    1.3980   24.3140 C   0  0  0  0  0  0  0  0  0  0  0  0
    5.0030   -0.0480   22.6280 C   0  0  0  0  0  0  0  0  0  0  0  0
    5.5690   -4.7730   23.2640 C   0  0  0  0  0  0  0  0  0  0  0  0
    6.3840   -5.4140   22.3530 C   0  0  0  0  0  0  0  0  0  0  0  0
  1  2  1  0
  2  3  2  0
  2  4  1  0
  4  5  1  0
  5  6  1  0
  6  7  1  0
  7  8  1  0
  8  9  2  0
  8 10  1  0
 10 11  1  0
 11 12  2  0
 12 13  1  0
 13 14  1  0
 14 15  1  0
 13 16  2  0
 16 17  1  0
 17 18  1  0
 16 19  1  0
 11 20  1  0
 19 20  2  0
 20 21  1  0
 21 22  2  0
 21 23  1  0
 23 24  1  0
 23 25  1  0
  7 26  1  0
  4 27  1  0
 26 27  1  0
M  END
