piperidine-amides-30652-covalent
     RDKit          3D

 27 29  0  0  0  0  0  0  0  0999 V2000
    7.0900   -3.3350   19.2730 C   0  0  0  0  0  0  0  0  0  0  0  0
    6.3870   -4.1420   20.2670 C   0  0  0  0  0  0  0  0  0  0  0  0
    5.3510   -4.7490   19.9500 O   0  0  0  0  0  0  0  0  0  0  0  0
    6.9010   -4.2810   21.5600 N   0  0  0  0  0  0  0  0  0  0  0  0
    7.7360   -3.2510   22.1450 C   0  0  0  0  0  0  0  0  0  0  0  0
    6.9980   -2.7870   23.3570 C   0  0  0  0  0  0  0  0  0  0  0  0
    6.7430   -3.9490   24.2490 C   0  0  0  0  0  0  0  0  0  0  0  0
    5.9330   -3.5570   25.4150 C   0  0  0  0  0  0  0  0  0  0  0  0
    4.8570   -2.9030   25.2770 O   0  0  0  0  0  0  0  0  0  0  0  0
    6.3310   -3.9130   26.7090 N   0  0  0  0  0  0  0  0  0  0  0  0
    7.0120   -5.2100   26.8720 C   0  0  0  0  0  0  0  0  0  0  0  0
    7.0180   -5.3480   28.3150 C   0  0  0  0  0  0  0  0  0  0  0  0
    6.0550   -4.3760   28.8570 C   0  0  0  0  0  0  0  0  0  0  0  0
    5.8100   -3.2510   27.8700 C   0  0  2  0  0  0  0  0  0  0  0  0
    4.3500   -2.8490   27.9140 C   0  0  0  0  0  0  0  0  0  0  0  0
    4.0240   -2.6590   29.2810 O   0  0  0  0  0  0  0  0  0  0  0  0
    2.7870   -2.0590   29.3670 C   0  0  0  0  0  0  0  0  0  0  0  0
    2.6340   -0.9250   28.8520 O   0  0  0  0  0  0  0  0  0  0  0  0
    1.6950   -2.7000   30.0300 N   0  0  0  0  0  0  0  0  0  0  0  0
    1.0210   -1.9170   30.8990 C   0  0  0  0  0  0  0  0  0  0  0  0
    0.9670   -2.3610   32.2790 C   0  0  0  0  0  0  0  0  0  0  0  0
   -0.0990   -1.9020   33.3060 C   0  0  0  0  0  0  0  0  0  0  0  0
   -1.3420   -1.3250   32.6590 C   0  0  0  0  0  0  0  0  0  0  0  0
   -0.9770   -1.2870   31.2460 C   0  0  0  0  0  0  0  0  0  0  0  0
   -0.2030   -1.4770   30.3940 C   0  0  0  0  0  0  0  0  0  0  0  0
    6.0900   -5.1020   23.5990 C   0  0  0  0  0  0  0  0  0  0  0  0
    6.5970   -5.4270   22.3590 C   0  0  0  0  0  0  0  0  0  0  0  0
  1  2  1  0
  2  3  2  0
  2  4  1  0
  4  5  1  0
  5  6  1  0
  6  7  1  0
  7  8  1  0
  8  9  2  0
  8 10  1  0
 10 11  1  0
 11 12  1  0
 12 13  1  0
 10 14  1  0
 13 14  1  0
 14 15  1  6
 15 16  1  0
 16 17  1  0
 17 18  2  0
 17 19  1  0
 19 20  1  0
 20 21  1  0
 21 22  1  0
 22 23  1  0
 23 24  1  0
 20 25  1  0
 24 25  1  0
  7 26  1  0
  4 27  1  0
 26 27  1  0
M  END
