piperidine-amides-15143-covalent
     RDKit          3D

 20 21  0  0  0  0  0  0  0  0999 V2000
    7.0030   -3.2510   19.2350 C   0  0  0  0  0  0  0  0  0  0  0  0
    6.2820   -4.0890   20.1970 C   0  0  0  0  0  0  0  0  0  0  0  0
    5.1930   -4.5610   19.8610 O   0  0  0  0  0  0  0  0  0  0  0  0
    6.8290   -4.3980   21.4570 N   0  0  0  0  0  0  0  0  0  0  0  0
    6.1860   -5.4280   22.2170 C   0  0  0  0  0  0  0  0  0  0  0  0
    6.1550   -5.0700   23.6810 C   0  0  0  0  0  0  0  0  0  0  0  0
    5.6250   -3.6510   23.8250 C   0  0  0  0  0  0  0  0  0  0  0  0
    6.0180   -3.0800   25.1450 C   0  0  0  0  0  0  0  0  0  0  0  0
    5.1640   -3.0650   26.0330 O   0  0  0  0  0  0  0  0  0  0  0  0
    7.3230   -2.6160   25.2060 N   0  0  0  0  0  0  0  0  0  0  0  0
    8.2040   -3.0070   24.1520 C   0  0  0  0  0  0  0  0  0  0  0  0
    9.3520   -2.2470   23.8690 C   0  0  0  0  0  0  0  0  0  0  0  0
    9.2340   -0.9560   23.3800 C   0  0  0  0  0  0  0  0  0  0  0  0
   10.3700   -0.1480   23.0620 N   0  0  0  0  0  0  0  0  0  0  0  0
   11.6340   -0.7010   23.2620 C   0  0  0  0  0  0  0  0  0  0  0  0
   13.0800    0.2250   22.8940 Cl  0  0  0  0  0  0  0  0  0  0  0  0
   11.7650   -2.0770   23.7860 C   0  0  0  0  0  0  0  0  0  0  0  0
   10.6210   -2.7070   24.0340 N   0  0  0  0  0  0  0  0  0  0  0  0
    6.1900   -2.6560   22.8480 C   0  0  0  0  0  0  0  0  0  0  0  0
    7.3550   -3.2210   22.1340 C   0  0  0  0  0  0  0  0  0  0  0  0
  1  2  1  0
  2  3  2  0
  2  4  1  0
  4  5  1  0
  5  6  1  0
  6  7  1  0
  7  8  1  0
  8  9  2  0
  8 10  1  0
 10 11  1  0
 11 12  1  0
 12 13  2  0
 13 14  1  0
 14 15  2  0
 15 16  1  0
 15 17  1  0
 12 18  1  0
 17 18  2  0
  7 19  1  0
  4 20  1  0
 19 20  1  0
M  END
