piperidine-amides-10810-covalent
     RDKit          3D

 22 23  0  0  0  0  0  0  0  0999 V2000
    7.0850   -3.2580   19.2220 C   0  0  0  0  0  0  0  0  0  0  0  0
    6.3880   -4.0410   20.2390 C   0  0  0  0  0  0  0  0  0  0  0  0
    5.3370   -4.6240   19.9200 O   0  0  0  0  0  0  0  0  0  0  0  0
    6.8920   -4.2070   21.5400 N   0  0  0  0  0  0  0  0  0  0  0  0
    6.6410   -5.4020   22.2980 C   0  0  0  0  0  0  0  0  0  0  0  0
    5.6980   -4.9610   23.3820 C   0  0  0  0  0  0  0  0  0  0  0  0
    5.7260   -3.4640   23.5760 C   0  0  0  0  0  0  0  0  0  0  0  0
    4.9730   -3.0270   24.7910 C   0  0  0  0  0  0  0  0  0  0  0  0
    3.8750   -3.5850   25.0610 O   0  0  0  0  0  0  0  0  0  0  0  0
    5.3590   -2.0330   25.7130 N   0  0  0  0  0  0  0  0  0  0  0  0
    5.2910   -2.4020   27.1400 C   0  0  0  0  0  0  0  0  0  0  0  0
    6.3310   -3.3800   27.1640 C   0  0  0  0  0  0  0  0  0  0  0  0
    6.4030   -4.4310   26.1380 C   0  0  0  0  0  0  0  0  0  0  0  0
    7.5280   -5.3890   26.1760 C   0  0  0  0  0  0  0  0  0  0  0  0
    8.5300   -5.2310   27.2670 C   0  0  0  0  0  0  0  0  0  0  0  0
    9.5430   -6.1430   27.1670 O   0  0  0  0  0  0  0  0  0  0  0  0
    9.7050   -6.1570   25.8070 C   0  0  0  0  0  0  0  0  0  0  0  0
    8.3520   -4.1420   28.2880 C   0  0  0  0  0  0  0  0  0  0  0  0
    7.3150   -3.2520   28.2490 C   0  0  0  0  0  0  0  0  0  0  0  0
    7.1590   -2.2640   29.1400 F   0  0  0  0  0  0  0  0  0  0  0  0
    7.1490   -2.8890   23.5440 C   0  0  0  0  0  0  0  0  0  0  0  0
    7.7110   -3.1650   22.1390 C   0  0  0  0  0  0  0  0  0  0  0  0
  1  2  1  0
  2  3  2  0
  2  4  1  0
  4  5  1  0
  5  6  1  0
  6  7  1  0
  7  8  1  0
  8  9  2  0
  8 10  1  0
 10 11  1  0
 11 12  1  0
 12 13  2  0
 13 14  1  0
 14 15  2  0
 15 16  1  0
 16 17  1  0
 15 18  1  0
 12 19  1  0
 18 19  2  0
 19 20  1  0
  7 21  1  0
  4 22  1  0
 21 22  1  0
M  END
