piperidine-amides-1006-covalent
     RDKit          3D

 24 25  0  0  0  0  0  0  0  0999 V2000
    7.1170   -3.3510   19.2970 C   0  0  0  0  0  0  0  0  0  0  0  0
    6.3820   -4.1720   20.2890 C   0  0  0  0  0  0  0  0  0  0  0  0
    5.3320   -4.7410   19.9510 O   0  0  0  0  0  0  0  0  0  0  0  0
    6.9480   -4.3240   21.5690 N   0  0  0  0  0  0  0  0  0  0  0  0
    7.7790   -3.3160   22.1800 C   0  0  0  0  0  0  0  0  0  0  0  0
    6.9130   -2.6440   23.2320 C   0  0  0  0  0  0  0  0  0  0  0  0
    6.5600   -3.7130   24.1990 C   0  0  0  0  0  0  0  0  0  0  0  0
    5.7320   -3.2130   25.3060 C   0  0  0  0  0  0  0  0  0  0  0  0
    4.5110   -3.1730   25.1200 O   0  0  0  0  0  0  0  0  0  0  0  0
    6.3360   -2.8160   26.4950 N   0  0  0  0  0  0  0  0  0  0  0  0
    6.3160   -1.5050   27.0410 C   0  0  0  0  0  0  0  0  0  0  0  0
    5.9060   -0.3540   26.3880 C   0  0  0  0  0  0  0  0  0  0  0  0
    5.8830    0.9400   26.9540 C   0  0  0  0  0  0  0  0  0  0  0  0
    6.2750    1.1940   28.2430 C   0  0  0  0  0  0  0  0  0  0  0  0
    6.7410    0.0860   29.0760 C   0  0  0  0  0  0  0  0  0  0  0  0
    7.2200    0.1370   30.5400 C   0  0  0  0  0  0  0  0  0  0  0  0
    6.1270    0.7780   31.7870 S   0  0  0  0  0  0  0  0  0  0  0  0
    6.5390    0.2220   33.4510 C   0  0  0  0  0  0  0  0  0  0  0  0
    7.8630   -0.0490   33.7270 C   0  0  0  0  0  0  0  0  0  0  0  0
    6.1190    1.2360   34.4500 C   0  0  0  0  0  0  0  0  0  0  0  0
    6.7360   -1.2290   28.4110 C   0  0  0  0  0  0  0  0  0  0  0  0
    7.1740   -2.1420   29.2620 C   0  0  0  0  0  0  0  0  0  0  0  0
    5.8450   -4.9030   23.6220 C   0  0  0  0  0  0  0  0  0  0  0  0
    6.5560   -5.4430   22.4040 C   0  0  0  0  0  0  0  0  0  0  0  0
  1  2  1  0
  2  3  2  0
  2  4  1  0
  4  5  1  0
  5  6  1  0
  6  7  1  0
  7  8  1  0
  8  9  2  0
  8 10  1  0
 10 11  1  0
 11 12  2  0
 12 13  1  0
 13 14  2  0
 14 15  1  0
 15 16  1  0
 16 17  1  0
 17 18  1  0
 18 19  1  0
 18 20  1  0
 11 21  1  0
 15 21  2  0
 21 22  1  0
  7 23  1  0
  4 24  1  0
 23 24  1  0
M  END
