piperidine-amides-13649-covalent
     RDKit          3D

 28 29  0  0  0  0  0  0  0  0999 V2000
    7.1460   -3.2670   19.2200 C   0  0  0  0  0  0  0  0  0  0  0  0
    6.3820   -4.0530   20.2250 C   0  0  0  0  0  0  0  0  0  0  0  0
    5.3060   -4.5720   19.8930 O   0  0  0  0  0  0  0  0  0  0  0  0
    6.9320   -4.2400   21.5090 N   0  0  0  0  0  0  0  0  0  0  0  0
    7.7700   -3.2460   22.1310 C   0  0  0  0  0  0  0  0  0  0  0  0
    6.9570   -2.6370   23.2680 C   0  0  0  0  0  0  0  0  0  0  0  0
    6.5450   -3.7430   24.1860 C   0  0  0  0  0  0  0  0  0  0  0  0
    5.7520   -3.2040   25.3040 C   0  0  0  0  0  0  0  0  0  0  0  0
    4.6640   -2.7010   25.0080 O   0  0  0  0  0  0  0  0  0  0  0  0
    6.2330   -3.2900   26.6070 N   0  0  0  0  0  0  0  0  0  0  0  0
    5.8930   -4.3250   27.4990 C   0  0  1  0  0  0  0  0  0  0  0  0
    6.7560   -5.3040   27.8800 C   0  0  0  0  0  0  0  0  0  0  0  0
    8.0260   -4.9690   28.2740 C   0  0  0  0  0  0  0  0  0  0  0  0
    8.9560   -5.9710   28.3550 O   0  0  0  0  0  0  0  0  0  0  0  0
    8.4160   -3.6900   28.6030 O   0  0  0  0  0  0  0  0  0  0  0  0
    8.3130   -2.5520   27.7540 C   0  0  0  0  0  0  0  0  0  0  0  0
    5.2600   -3.6300   28.6570 C   0  0  0  0  0  0  0  0  0  0  0  0
    5.6420   -2.1850   29.0080 C   0  0  0  0  0  0  0  0  0  0  0  0
    4.9260   -1.5790   30.2130 C   0  0  0  0  0  0  0  0  0  0  0  0
    4.0030   -2.3280   30.9050 C   0  0  0  0  0  0  0  0  0  0  0  0
    3.4820   -1.5790   31.9590 O   0  0  0  0  0  0  0  0  0  0  0  0
    2.5410   -0.5560   31.7510 C   0  0  0  0  0  0  0  0  0  0  0  0
    3.7190   -3.6380   30.5110 C   0  0  0  0  0  0  0  0  0  0  0  0
    4.3170   -4.2560   29.4440 C   0  0  0  0  0  0  0  0  0  0  0  0
    4.0380   -5.5350   29.0640 O   0  0  0  0  0  0  0  0  0  0  0  0
    3.0960   -5.7500   27.9760 C   0  0  0  0  0  0  0  0  0  0  0  0
    5.8070   -4.8850   23.5430 C   0  0  0  0  0  0  0  0  0  0  0  0
    6.5610   -5.3770   22.3110 C   0  0  0  0  0  0  0  0  0  0  0  0
  1  2  1  0
  2  3  2  0
  2  4  1  0
  4  5  1  0
  5  6  1  0
  6  7  1  0
  7  8  1  0
  8  9  2  0
  8 10  1  0
 10 11  1  0
 11 12  1  1
 12 13  1  0
 13 14  2  0
 13 15  1  0
 15 16  1  0
 11 17  1  0
 17 18  2  0
 18 19  1  0
 19 20  2  0
 20 21  1  0
 21 22  1  0
 20 23  1  0
 17 24  1  0
 23 24  2  0
 24 25  1  0
 25 26  1  0
  7 27  1  0
  4 28  1  0
 27 28  1  0
M  END
