piperidine-amides-27789-covalent
     RDKit          3D

 26 28  0  0  0  0  0  0  0  0999 V2000
    7.1280   -3.2740   19.2330 C   0  0  0  0  0  0  0  0  0  0  0  0
    6.3800   -4.0260   20.2650 C   0  0  0  0  0  0  0  0  0  0  0  0
    5.3170   -4.5690   19.9000 O   0  0  0  0  0  0  0  0  0  0  0  0
    6.8840   -4.1520   21.5710 N   0  0  0  0  0  0  0  0  0  0  0  0
    6.5830   -5.3050   22.3560 C   0  0  0  0  0  0  0  0  0  0  0  0
    6.0380   -4.9700   23.6690 C   0  0  0  0  0  0  0  0  0  0  0  0
    6.1210   -3.5260   23.9720 C   0  0  0  0  0  0  0  0  0  0  0  0
    5.5640   -3.2490   25.3130 C   0  0  0  0  0  0  0  0  0  0  0  0
    4.3250   -3.2870   25.4270 O   0  0  0  0  0  0  0  0  0  0  0  0
    6.3550   -2.9460   26.4360 N   0  0  0  0  0  0  0  0  0  0  0  0
    6.1980   -3.7830   27.6460 C   0  0  0  0  0  0  0  0  0  0  0  0
    5.7260   -5.1640   27.3330 C   0  0  0  0  0  0  0  0  0  0  0  0
    5.3690   -6.0260   28.3810 N   0  0  0  0  0  0  0  0  0  0  0  0
    4.1390   -6.7870   28.4460 C   0  0  0  0  0  0  0  0  0  0  0  0
    4.3310   -7.4680   29.6120 C   0  0  0  0  0  0  0  0  0  0  0  0
    5.5950   -7.2750   30.0870 C   0  0  0  0  0  0  0  0  0  0  0  0
    6.2710   -6.3870   29.3170 C   0  0  0  0  0  0  0  0  0  0  0  0
    6.7810   -1.5720   26.6210 C   0  0  0  0  0  0  0  0  0  0  0  0
    5.6850   -0.7620   26.6640 C   0  0  0  0  0  0  0  0  0  0  0  0
    5.3300   -0.1350   27.8600 C   0  0  0  0  0  0  0  0  0  0  0  0
    4.1720    0.7680   28.0580 C   0  0  0  0  0  0  0  0  0  0  0  0
    3.2870    1.0410   26.8640 C   0  0  0  0  0  0  0  0  0  0  0  0
    3.7910    0.3030   25.6580 C   0  0  0  0  0  0  0  0  0  0  0  0
    4.9100   -0.5410   25.5560 C   0  0  0  0  0  0  0  0  0  0  0  0
    7.4040   -2.9370   23.6010 C   0  0  0  0  0  0  0  0  0  0  0  0
    7.7590   -3.1320   22.1700 C   0  0  0  0  0  0  0  0  0  0  0  0
  1  2  1  0
  2  3  2  0
  2  4  1  0
  4  5  1  0
  5  6  1  0
  6  7  1  0
  7  8  1  0
  8  9  2  0
  8 10  1  0
 10 11  1  0
 11 12  1  0
 12 13  1  0
 13 14  1  0
 14 15  1  0
 15 16  1  0
 13 17  1  0
 16 17  1  0
 10 18  1  0
 18 19  1  0
 19 20  2  0
 20 21  1  0
 21 22  2  0
 22 23  1  0
 19 24  1  0
 23 24  2  0
  7 25  1  0
  4 26  1  0
 25 26  1  0
M  END
