piperidine-amides-10915-covalent
     RDKit          3D

 21 21  0  0  0  0  0  0  0  0999 V2000
    7.0870   -3.2840   19.2590 C   0  0  0  0  0  0  0  0  0  0  0  0
    6.3480   -4.0600   20.2620 C   0  0  0  0  0  0  0  0  0  0  0  0
    5.2950   -4.6190   19.9130 O   0  0  0  0  0  0  0  0  0  0  0  0
    6.8110   -4.2450   21.5810 N   0  0  0  0  0  0  0  0  0  0  0  0
    6.6140   -5.4820   22.2980 C   0  0  0  0  0  0  0  0  0  0  0  0
    6.5780   -5.0980   23.7570 C   0  0  0  0  0  0  0  0  0  0  0  0
    5.9910   -3.7380   23.9670 C   0  0  0  0  0  0  0  0  0  0  0  0
    5.7120   -3.3870   25.3880 C   0  0  0  0  0  0  0  0  0  0  0  0
    4.6070   -2.8440   25.6780 O   0  0  0  0  0  0  0  0  0  0  0  0
    6.6070   -3.6130   26.4680 N   0  0  0  0  0  0  0  0  0  0  0  0
    6.7490   -4.9440   27.1240 C   0  0  0  0  0  0  0  0  0  0  0  0
    5.4620   -5.3050   27.7600 C   0  0  1  0  0  0  0  0  0  0  0  0
    4.8610   -6.5830   27.3400 C   0  0  0  0  0  0  0  0  0  0  0  0
    3.8340   -6.3690   26.6640 O   0  0  0  0  0  0  0  0  0  0  0  0
    5.5700   -5.3400   29.2810 C   0  0  0  0  0  0  0  0  0  0  0  0
    5.0010   -6.5850   29.9800 C   0  0  0  0  0  0  0  0  0  0  0  0
    6.0330   -7.6070   29.7310 C   0  0  0  0  0  0  0  0  0  0  0  0
    3.7320   -7.2060   29.3550 C   0  0  0  0  0  0  0  0  0  0  0  0
    4.7020   -6.4060   31.3140 C   0  0  0  0  0  0  0  0  0  0  0  0
    6.8140   -2.6090   23.3310 C   0  0  0  0  0  0  0  0  0  0  0  0
    7.6360   -3.2250   22.1980 C   0  0  0  0  0  0  0  0  0  0  0  0
  1  2  1  0
  2  3  2  0
  2  4  1  0
  4  5  1  0
  5  6  1  0
  6  7  1  0
  7  8  1  0
  8  9  2  0
  8 10  1  0
 10 11  1  0
 12 11  1  6
 12 13  1  0
 13 14  1  0
 12 15  1  0
 16 15  1  0
 16 17  1  0
 16 18  1  0
 16 19  1  0
  7 20  1  0
  4 21  1  0
 20 21  1  0
M  END
