piperidine-amides-30795-covalent
     RDKit          3D

 27 29  0  0  0  0  0  0  0  0999 V2000
    7.0080   -3.3750   19.4220 C   0  0  0  0  0  0  0  0  0  0  0  0
    6.3650   -4.2440   20.4180 C   0  0  0  0  0  0  0  0  0  0  0  0
    5.4420   -4.9820   20.0200 O   0  0  0  0  0  0  0  0  0  0  0  0
    6.7810   -4.2870   21.7740 N   0  0  0  0  0  0  0  0  0  0  0  0
    7.6050   -3.2330   22.3500 C   0  0  0  0  0  0  0  0  0  0  0  0
    7.1900   -3.0480   23.8000 C   0  0  0  0  0  0  0  0  0  0  0  0
    5.8420   -3.6480   24.0990 C   0  0  0  0  0  0  0  0  0  0  0  0
    5.1300   -3.1070   25.3370 C   0  0  0  0  0  0  0  0  0  0  0  0
    4.4930   -2.0310   25.2130 O   0  0  0  0  0  0  0  0  0  0  0  0
    5.0760   -3.6610   26.6600 N   0  0  0  0  0  0  0  0  0  0  0  0
    4.6350   -2.8390   27.8190 C   0  0  0  0  0  0  0  0  0  0  0  0
    4.2730   -3.6800   29.0200 C   0  0  0  0  0  0  0  0  0  0  0  0
    5.1120   -4.7150   29.1750 N   0  0  0  0  0  0  0  0  0  0  0  0
    4.7000   -6.0420   29.5210 C   0  0  1  0  0  0  0  0  0  0  0  0
    5.2450   -6.9960   28.4830 C   0  0  0  0  0  0  0  0  0  0  0  0
    5.0910   -6.5700   30.8700 C   0  0  0  0  0  0  0  0  0  0  0  0
    6.3950   -6.9920   31.1830 O   0  0  0  0  0  0  0  0  0  0  0  0
    4.0690   -6.6180   31.7360 N   0  0  0  0  0  0  0  0  0  0  0  0
    3.2310   -5.5750   31.8180 C   0  0  0  0  0  0  0  0  0  0  0  0
    1.9710   -6.1080   31.9660 C   0  0  0  0  0  0  0  0  0  0  0  0
    1.6860   -6.8180   32.9480 O   0  0  0  0  0  0  0  0  0  0  0  0
    2.6390   -7.7550   33.2920 C   0  0  0  0  0  0  0  0  0  0  0  0
    4.0480   -7.5720   32.7920 C   0  0  0  0  0  0  0  0  0  0  0  0
    6.2550   -4.8190   28.3320 C   0  0  0  0  0  0  0  0  0  0  0  0
    6.2120   -4.3750   26.9140 C   0  0  0  0  0  0  0  0  0  0  0  0
    5.9700   -5.1310   23.9110 C   0  0  0  0  0  0  0  0  0  0  0  0
    6.4340   -5.4630   22.5280 C   0  0  0  0  0  0  0  0  0  0  0  0
  1  2  1  0
  2  3  2  0
  2  4  1  0
  4  5  1  0
  5  6  1  0
  6  7  1  0
  7  8  1  0
  8  9  2  0
  8 10  1  0
 10 11  1  0
 11 12  1  0
 12 13  1  0
 13 14  1  0
 14 15  1  6
 14 16  1  0
 16 17  2  0
 16 18  1  0
 18 19  1  0
 19 20  1  0
 20 21  1  0
 21 22  1  0
 18 23  1  0
 22 23  1  0
 13 24  1  0
 10 25  1  0
 24 25  1  0
  7 26  1  0
  4 27  1  0
 26 27  1  0
M  END
