piperidine-amides-29781-covalent
     RDKit          3D

 27 29  0  0  0  0  0  0  0  0999 V2000
    7.0390   -3.3720   19.3540 C   0  0  0  0  0  0  0  0  0  0  0  0
    6.3680   -4.2340   20.3180 C   0  0  0  0  0  0  0  0  0  0  0  0
    5.3510   -4.8350   19.9790 O   0  0  0  0  0  0  0  0  0  0  0  0
    6.9090   -4.4480   21.6400 N   0  0  0  0  0  0  0  0  0  0  0  0
    7.6670   -3.4240   22.3180 C   0  0  0  0  0  0  0  0  0  0  0  0
    6.8740   -2.8360   23.4570 C   0  0  0  0  0  0  0  0  0  0  0  0
    6.2980   -3.9480   24.3270 C   0  0  0  0  0  0  0  0  0  0  0  0
    5.4170   -3.3440   25.3890 C   0  0  0  0  0  0  0  0  0  0  0  0
    4.6620   -2.4010   25.1100 O   0  0  0  0  0  0  0  0  0  0  0  0
    5.3950   -3.8100   26.7400 N   0  0  0  0  0  0  0  0  0  0  0  0
    6.4900   -3.5150   27.5600 C   0  0  0  0  0  0  0  0  0  0  0  0
    6.8280   -4.7740   28.3520 C   0  0  0  0  0  0  0  0  0  0  0  0
    5.9490   -5.4220   29.1870 C   0  0  0  0  0  0  0  0  0  0  0  0
    4.6430   -5.0030   29.4670 C   0  0  2  0  0  0  0  0  0  0  0  0
    3.6510   -5.9940   29.2890 N   0  0  0  0  0  0  0  0  0  0  0  0
    2.2760   -5.7270   29.2900 C   0  0  0  0  0  0  0  0  0  0  0  0
    4.1940   -7.1610   29.9230 C   0  0  0  0  0  0  0  0  0  0  0  0
    3.2290   -7.8230   30.6490 C   0  0  0  0  0  0  0  0  0  0  0  0
    2.0540   -8.3570   30.1130 C   0  0  0  0  0  0  0  0  0  0  0  0
    1.1160   -9.0210   30.9180 C   0  0  0  0  0  0  0  0  0  0  0  0
    1.4120   -9.1370   32.3430 C   0  0  0  0  0  0  0  0  0  0  0  0
    2.5610   -8.6150   32.8720 C   0  0  0  0  0  0  0  0  0  0  0  0
    3.4390   -7.9730   32.0190 C   0  0  0  0  0  0  0  0  0  0  0  0
    4.4100   -3.7710   28.9330 C   0  0  0  0  0  0  0  0  0  0  0  0
    4.1800   -3.6840   27.4220 C   0  0  0  0  0  0  0  0  0  0  0  0
    5.6130   -5.0080   23.5150 C   0  0  0  0  0  0  0  0  0  0  0  0
    6.4510   -5.5650   22.4110 C   0  0  0  0  0  0  0  0  0  0  0  0
  1  2  1  0
  2  3  2  0
  2  4  1  0
  4  5  1  0
  5  6  1  0
  6  7  1  0
  7  8  1  0
  8  9  2  0
  8 10  1  0
 10 11  1  0
 11 12  1  0
 12 13  1  0
 13 14  1  0
 14 15  1  6
 15 16  1  0
 15 17  1  0
 17 18  1  0
 18 19  2  0
 19 20  1  0
 20 21  2  0
 21 22  1  0
 18 23  1  0
 22 23  2  0
 14 24  1  0
 10 25  1  0
 24 25  1  0
  7 26  1  0
  4 27  1  0
 26 27  1  0
M  END
