piperidine-amides-25774-covalent
     RDKit          3D

 25 27  0  0  0  0  0  0  0  0999 V2000
    7.0170   -3.3410   19.4090 C   0  0  0  0  0  0  0  0  0  0  0  0
    6.3770   -4.2290   20.4170 C   0  0  0  0  0  0  0  0  0  0  0  0
    5.4380   -4.9160   20.0070 O   0  0  0  0  0  0  0  0  0  0  0  0
    6.8550   -4.2950   21.7470 N   0  0  0  0  0  0  0  0  0  0  0  0
    6.7000   -5.5000   22.5330 C   0  0  0  0  0  0  0  0  0  0  0  0
    6.1060   -5.1500   23.8720 C   0  0  0  0  0  0  0  0  0  0  0  0
    6.0660   -3.6300   23.9790 C   0  0  0  0  0  0  0  0  0  0  0  0
    5.4990   -3.1830   25.2910 C   0  0  0  0  0  0  0  0  0  0  0  0
    4.2800   -2.9790   25.3090 O   0  0  0  0  0  0  0  0  0  0  0  0
    6.2070   -2.9830   26.5100 N   0  0  0  0  0  0  0  0  0  0  0  0
    6.0330   -4.0650   27.4690 C   0  0  0  0  0  0  0  0  0  0  0  0
    4.6030   -4.0510   27.9650 C   0  0  0  0  0  0  0  0  0  0  0  0
    3.7500   -4.9320   27.3280 C   0  0  0  0  0  0  0  0  0  0  0  0
    2.4700   -5.0730   27.6170 C   0  0  0  0  0  0  0  0  0  0  0  0
    2.0100   -4.3090   28.5790 C   0  0  0  0  0  0  0  0  0  0  0  0
    2.7930   -3.3080   29.3670 C   0  0  0  0  0  0  0  0  0  0  0  0
    4.2800   -3.0860   29.0930 C   0  0  0  0  0  0  0  0  0  0  0  0
    5.9620   -1.7270   27.2010 C   0  0  1  0  0  0  0  0  0  0  0  0
    6.7750   -1.3890   28.4250 C   0  0  0  0  0  0  0  0  0  0  0  0
    6.4520    0.0120   28.7100 C   0  0  0  0  0  0  0  0  0  0  0  0
    6.0450    0.6100   27.3960 C   0  0  0  0  0  0  0  0  0  0  0  0
    6.0340   -0.4690   26.3510 C   0  0  2  0  0  0  0  0  0  0  0  0
    4.9940   -0.2680   25.4280 O   0  0  0  0  0  0  0  0  0  0  0  0
    7.4330   -3.0500   23.6660 C   0  0  0  0  0  0  0  0  0  0  0  0
    7.6920   -3.2260   22.3100 C   0  0  0  0  0  0  0  0  0  0  0  0
  1  2  1  0
  2  3  2  0
  2  4  1  0
  4  5  1  0
  5  6  1  0
  6  7  1  0
  7  8  1  0
  8  9  2  0
  8 10  1  0
 10 11  1  0
 11 12  1  0
 12 13  2  0
 13 14  1  0
 14 15  2  0
 15 16  1  0
 12 17  1  0
 16 17  2  0
 18 10  1  6
 18 19  1  0
 19 20  1  0
 20 21  1  0
 18 22  1  0
 21 22  1  0
 22 23  1  6
  7 24  1  0
  4 25  1  0
 24 25  1  0
M  END
