piperidine-amides-14724-covalent
     RDKit          3D

 22 23  0  0  0  0  0  0  0  0999 V2000
    7.1070   -3.2720   19.2300 C   0  0  0  0  0  0  0  0  0  0  0  0
    6.3870   -4.0500   20.2380 C   0  0  0  0  0  0  0  0  0  0  0  0
    5.3120   -4.5790   19.9000 O   0  0  0  0  0  0  0  0  0  0  0  0
    6.9260   -4.2410   21.5350 N   0  0  0  0  0  0  0  0  0  0  0  0
    6.5460   -5.4230   22.2630 C   0  0  0  0  0  0  0  0  0  0  0  0
    6.2980   -5.0970   23.7140 C   0  0  0  0  0  0  0  0  0  0  0  0
    6.0260   -3.6120   23.8240 C   0  0  0  0  0  0  0  0  0  0  0  0
    5.5300   -3.2470   25.1810 C   0  0  0  0  0  0  0  0  0  0  0  0
    4.3260   -3.0340   25.2680 O   0  0  0  0  0  0  0  0  0  0  0  0
    6.4240   -3.1780   26.2370 N   0  0  0  0  0  0  0  0  0  0  0  0
    6.0800   -3.7370   27.4950 C   0  0  0  0  0  0  0  0  0  0  0  0
    6.1840   -2.8640   28.5780 C   0  0  2  0  0  0  0  0  0  0  0  0
    5.2160   -2.9660   29.5280 C   0  0  0  0  0  0  0  0  0  0  0  0
    4.0290   -2.2790   29.4100 C   0  0  0  0  0  0  0  0  0  0  0  0
    4.2380   -1.1560   30.3780 C   0  0  0  0  0  0  0  0  0  0  0  0
    5.4010   -0.1780   30.0470 C   0  0  1  0  0  0  0  0  0  0  0  0
    5.7410    0.5730   31.2800 C   0  0  0  0  0  0  0  0  0  0  0  0
    5.2910    1.9890   31.0730 C   0  0  0  0  0  0  0  0  0  0  0  0
    6.5240   -0.6880   29.3780 C   0  0  0  0  0  0  0  0  0  0  0  0
    6.3740   -1.5180   28.2910 C   0  0  0  0  0  0  0  0  0  0  0  0
    7.3100   -2.9230   23.5290 C   0  0  0  0  0  0  0  0  0  0  0  0
    7.6970   -3.1520   22.1090 C   0  0  0  0  0  0  0  0  0  0  0  0
  1  2  1  0
  2  3  2  0
  2  4  1  0
  4  5  1  0
  5  6  1  0
  6  7  1  0
  7  8  1  0
  8  9  2  0
  8 10  1  0
 10 11  1  0
 12 11  1  6
 12 13  1  0
 13 14  1  0
 14 15  1  0
 15 16  1  0
 16 17  1  1
 17 18  1  0
 16 19  1  0
 12 20  1  0
 19 20  1  0
  7 21  1  0
  4 22  1  0
 21 22  1  0
M  END
