piperidine-amides-8849-covalent
     RDKit          3D

 22 23  0  0  0  0  0  0  0  0999 V2000
    7.1180   -3.3050   19.2440 C   0  0  0  0  0  0  0  0  0  0  0  0
    6.3720   -4.0560   20.2510 C   0  0  0  0  0  0  0  0  0  0  0  0
    5.3060   -4.5930   19.9050 O   0  0  0  0  0  0  0  0  0  0  0  0
    6.8920   -4.2130   21.5630 N   0  0  0  0  0  0  0  0  0  0  0  0
    6.5070   -5.3860   22.3090 C   0  0  0  0  0  0  0  0  0  0  0  0
    6.2180   -5.0620   23.7610 C   0  0  0  0  0  0  0  0  0  0  0  0
    6.0780   -3.5600   23.9050 C   0  0  0  0  0  0  0  0  0  0  0  0
    5.4830   -3.1580   25.2200 C   0  0  0  0  0  0  0  0  0  0  0  0
    4.2920   -2.8620   25.1740 O   0  0  0  0  0  0  0  0  0  0  0  0
    6.2620   -3.1440   26.3660 N   0  0  0  0  0  0  0  0  0  0  0  0
    6.1010   -4.1300   27.3830 C   0  0  0  0  0  0  0  0  0  0  0  0
    5.1490   -3.8670   28.3630 C   0  0  1  0  0  0  0  0  0  0  0  0
    5.0700   -4.7040   29.3000 O   0  0  0  0  0  0  0  0  0  0  0  0
    5.4740   -5.9970   29.1090 C   0  0  0  0  0  0  0  0  0  0  0  0
    4.6300   -7.0660   29.3880 C   0  0  0  0  0  0  0  0  0  0  0  0
    3.7110   -6.9230   30.2270 O   0  0  0  0  0  0  0  0  0  0  0  0
    5.6340   -2.5010   28.9400 C   0  0  0  0  0  0  0  0  0  0  0  0
    4.4590   -1.6010   29.3610 C   0  0  0  0  0  0  0  0  0  0  0  0
    3.0250   -2.2490   28.6760 S   0  0  0  0  0  0  0  0  0  0  0  0
    3.8310   -3.6600   27.9420 C   0  0  0  0  0  0  0  0  0  0  0  0
    7.3530   -2.8940   23.5690 C   0  0  0  0  0  0  0  0  0  0  0  0
    7.7230   -3.1650   22.1110 C   0  0  0  0  0  0  0  0  0  0  0  0
  1  2  1  0
  2  3  2  0
  2  4  1  0
  4  5  1  0
  5  6  1  0
  6  7  1  0
  7  8  1  0
  8  9  2  0
  8 10  1  0
 10 11  1  0
 12 11  1  6
 12 13  1  0
 13 14  1  0
 14 15  1  0
 15 16  1  0
 12 17  1  0
 17 18  1  0
 18 19  1  0
 12 20  1  0
 19 20  1  0
  7 21  1  0
  4 22  1  0
 21 22  1  0
M  END
