piperidine-amides-32905-covalent
     RDKit          3D

 29 31  0  0  0  0  0  0  0  0999 V2000
    6.9960   -3.3440   19.3450 C   0  0  0  0  0  0  0  0  0  0  0  0
    6.3040   -4.2420   20.3160 C   0  0  0  0  0  0  0  0  0  0  0  0
    5.2890   -4.8460   19.9580 O   0  0  0  0  0  0  0  0  0  0  0  0
    6.8320   -4.4270   21.6050 N   0  0  0  0  0  0  0  0  0  0  0  0
    6.6350   -5.6660   22.3310 C   0  0  0  0  0  0  0  0  0  0  0  0
    5.9230   -5.3850   23.6740 C   0  0  0  0  0  0  0  0  0  0  0  0
    5.8400   -3.9130   23.8940 C   0  0  0  0  0  0  0  0  0  0  0  0
    5.3200   -3.4760   25.2240 C   0  0  0  0  0  0  0  0  0  0  0  0
    4.6790   -2.4260   25.2260 O   0  0  0  0  0  0  0  0  0  0  0  0
    5.5420   -4.2020   26.4010 N   0  0  0  0  0  0  0  0  0  0  0  0
    4.9440   -3.9180   27.6570 C   0  0  0  0  0  0  0  0  0  0  0  0
    5.4450   -4.4080   28.8580 C   0  0  0  0  0  0  0  0  0  0  0  0
    6.4600   -5.3900   28.8830 C   0  0  0  0  0  0  0  0  0  0  0  0
    5.9150   -6.6670   29.3690 N   0  0  0  0  0  0  0  0  0  0  0  0
    4.9980   -6.8360   30.3820 C   0  0  0  0  0  0  0  0  0  0  0  0
    3.8870   -6.1140   30.4500 O   0  0  0  0  0  0  0  0  0  0  0  0
    5.4260   -7.8690   31.2820 N   0  0  0  0  0  0  0  0  0  0  0  0
    5.1370   -7.5740   32.6590 C   0  0  0  0  0  0  0  0  0  0  0  0
    4.5240   -6.2610   33.1190 C   0  0  0  0  0  0  0  0  0  0  0  0
    4.2790   -6.0950   34.6030 C   0  0  0  0  0  0  0  0  0  0  0  0
    4.5940   -7.0800   35.4970 C   0  0  0  0  0  0  0  0  0  0  0  0
    5.1920   -8.4130   35.2080 C   0  0  0  0  0  0  0  0  0  0  0  0
    5.4560   -8.6220   33.7060 C   0  0  0  0  0  0  0  0  0  0  0  0
    6.0170   -9.8590   33.3440 O   0  0  0  0  0  0  0  0  0  0  0  0
    6.6380  -10.7270   34.2550 C   0  0  0  0  0  0  0  0  0  0  0  0
    7.0770   -5.6080   27.6300 C   0  0  0  0  0  0  0  0  0  0  0  0
    6.9220   -4.4610   26.6680 C   0  0  0  0  0  0  0  0  0  0  0  0
    7.1910   -3.3100   23.6790 C   0  0  0  0  0  0  0  0  0  0  0  0
    7.5260   -3.3230   22.2480 C   0  0  0  0  0  0  0  0  0  0  0  0
  1  2  1  0
  2  3  2  0
  2  4  1  0
  4  5  1  0
  5  6  1  0
  6  7  1  0
  7  8  1  0
  8  9  2  0
  8 10  1  0
 10 11  1  0
 11 12  1  0
 12 13  1  0
 13 14  1  0
 14 15  1  0
 15 16  2  0
 15 17  1  0
 17 18  1  0
 18 19  2  0
 19 20  1  0
 20 21  2  0
 21 22  1  0
 18 23  1  0
 22 23  2  0
 23 24  1  0
 24 25  1  0
 13 26  1  0
 10 27  1  0
 26 27  1  0
  7 28  1  0
  4 29  1  0
 28 29  1  0
M  END
