piperidine-amides-3322-covalent
     RDKit          3D

 22 24  0  0  0  0  0  0  0  0999 V2000
    7.0840   -3.3130   19.2830 C   0  0  0  0  0  0  0  0  0  0  0  0
    6.3610   -4.1360   20.2470 C   0  0  0  0  0  0  0  0  0  0  0  0
    5.3150   -4.6950   19.9290 O   0  0  0  0  0  0  0  0  0  0  0  0
    6.8990   -4.3490   21.5540 N   0  0  0  0  0  0  0  0  0  0  0  0
    7.6780   -3.3060   22.1730 C   0  0  0  0  0  0  0  0  0  0  0  0
    6.9920   -2.8200   23.4070 C   0  0  0  0  0  0  0  0  0  0  0  0
    6.4610   -4.0400   24.1300 C   0  0  0  0  0  0  0  0  0  0  0  0
    5.7340   -3.5710   25.3340 C   0  0  0  0  0  0  0  0  0  0  0  0
    4.4880   -3.5660   25.4540 O   0  0  0  0  0  0  0  0  0  0  0  0
    6.5110   -3.0820   26.3910 N   0  0  0  0  0  0  0  0  0  0  0  0
    6.0650   -1.8820   27.0230 C   0  0  2  0  0  0  0  0  0  0  0  0
    5.7030   -0.9630   25.8930 C   0  0  0  0  0  0  0  0  0  0  0  0
    5.4710    0.0260   26.6980 O   0  0  0  0  0  0  0  0  0  0  0  0
    6.1540   -0.2670   27.8060 C   0  0  0  0  0  0  0  0  0  0  0  0
    6.5070    0.4870   28.7330 C   0  0  0  0  0  0  0  0  0  0  0  0
    5.9900    1.5560   28.2560 C   0  0  0  0  0  0  0  0  0  0  0  0
    6.7510    1.1050   29.4020 C   0  0  0  0  0  0  0  0  0  0  0  0
    7.1930    1.8540   30.4730 C   0  0  0  0  0  0  0  0  0  0  0  0
    7.0170   -0.3670   29.2660 C   0  0  0  0  0  0  0  0  0  0  0  0
    6.6460   -1.4030   28.2090 C   0  0  0  0  0  0  0  0  0  0  0  0
    5.6910   -4.9840   23.3450 C   0  0  0  0  0  0  0  0  0  0  0  0
    6.5080   -5.4800   22.3480 C   0  0  0  0  0  0  0  0  0  0  0  0
  1  2  1  0
  2  3  2  0
  2  4  1  0
  4  5  1  0
  5  6  1  0
  6  7  1  0
  7  8  1  0
  8  9  2  0
  8 10  1  0
 11 10  1  6
 11 12  1  0
 12 13  1  0
 13 14  1  0
 14 15  1  0
 15 16  2  0
 16 17  1  0
 17 18  1  0
 17 19  2  0
 11 20  1  0
 14 20  2  0
 19 20  1  0
  7 21  1  0
  4 22  1  0
 21 22  1  0
M  END
