piperidine-amides-12769-covalent
     RDKit          3D

 22 23  0  0  0  0  0  0  0  0999 V2000
    7.1290   -3.2320   19.1290 C   0  0  0  0  0  0  0  0  0  0  0  0
    6.3460   -3.9460   20.1670 C   0  0  0  0  0  0  0  0  0  0  0  0
    5.2550   -4.4370   19.8250 O   0  0  0  0  0  0  0  0  0  0  0  0
    6.8460   -4.0960   21.4590 N   0  0  0  0  0  0  0  0  0  0  0  0
    6.4430   -5.2250   22.2290 C   0  0  0  0  0  0  0  0  0  0  0  0
    6.0590   -4.8980   23.6050 C   0  0  0  0  0  0  0  0  0  0  0  0
    6.8610   -3.8230   24.2390 C   0  0  0  0  0  0  0  0  0  0  0  0
    6.3030   -3.3860   25.5310 C   0  0  0  0  0  0  0  0  0  0  0  0
    5.1500   -2.8920   25.5600 O   0  0  0  0  0  0  0  0  0  0  0  0
    7.0820   -3.5340   26.6960 N   0  0  0  0  0  0  0  0  0  0  0  0
    7.5910   -4.8710   27.1050 C   0  0  0  0  0  0  0  0  0  0  0  0
    8.3200   -4.7950   28.3800 C   0  0  0  0  0  0  0  0  0  0  0  0
    8.5240   -5.4250   26.0860 C   0  0  0  0  0  0  0  0  0  0  0  0
    6.3910   -5.6690   27.2430 C   0  0  0  0  0  0  0  0  0  0  0  0
    5.8620   -6.0930   26.2050 O   0  0  0  0  0  0  0  0  0  0  0  0
    5.8320   -5.9330   28.5110 N   0  0  0  0  0  0  0  0  0  0  0  0
    5.2340   -7.2460   28.7650 C   0  0  0  0  0  0  0  0  0  0  0  0
    3.9640   -7.0690   29.1740 C   0  0  0  0  0  0  0  0  0  0  0  0
    3.6580   -5.7670   29.1600 C   0  0  0  0  0  0  0  0  0  0  0  0
    4.6750   -4.9680   28.7240 C   0  0  0  0  0  0  0  0  0  0  0  0
    7.0440   -2.6630   23.3110 C   0  0  0  0  0  0  0  0  0  0  0  0
    7.7110   -3.1160   22.0830 C   0  0  0  0  0  0  0  0  0  0  0  0
  1  2  1  0
  2  3  2  0
  2  4  1  0
  4  5  1  0
  5  6  1  0
  6  7  1  0
  7  8  1  0
  8  9  2  0
  8 10  1  0
 10 11  1  0
 11 12  1  0
 11 13  1  0
 11 14  1  0
 14 15  2  0
 14 16  1  0
 16 17  1  0
 17 18  1  0
 18 19  1  0
 16 20  1  0
 19 20  1  0
  7 21  1  0
  4 22  1  0
 21 22  1  0
M  END
