piperidine-amides-28596-covalent
     RDKit          3D

 25 26  0  0  0  0  0  0  0  0999 V2000
    7.0340   -3.3370   19.3690 C   0  0  0  0  0  0  0  0  0  0  0  0
    6.3710   -4.1960   20.3420 C   0  0  0  0  0  0  0  0  0  0  0  0
    5.3610   -4.8230   19.9750 O   0  0  0  0  0  0  0  0  0  0  0  0
    6.9000   -4.3520   21.6500 N   0  0  0  0  0  0  0  0  0  0  0  0
    6.6350   -5.5650   22.3610 C   0  0  0  0  0  0  0  0  0  0  0  0
    5.7810   -5.2530   23.5520 C   0  0  0  0  0  0  0  0  0  0  0  0
    6.4390   -4.0930   24.2610 C   0  0  0  0  0  0  0  0  0  0  0  0
    5.5140   -3.6130   25.3540 C   0  0  0  0  0  0  0  0  0  0  0  0
    4.7160   -2.7290   25.0660 O   0  0  0  0  0  0  0  0  0  0  0  0
    5.6410   -4.2150   26.6080 N   0  0  0  0  0  0  0  0  0  0  0  0
    6.9150   -4.3700   27.0830 C   0  0  0  0  0  0  0  0  0  0  0  0
    7.1250   -5.3530   28.0370 C   0  0  0  0  0  0  0  0  0  0  0  0
    6.1910   -5.2940   29.0110 C   0  0  0  0  0  0  0  0  0  0  0  0
    4.8970   -4.9610   28.6340 C   0  0  1  0  0  0  0  0  0  0  0  0
    4.2390   -4.9680   29.9850 C   0  0  0  0  0  0  0  0  0  0  0  0
    4.8010   -5.8860   30.8380 O   0  0  0  0  0  0  0  0  0  0  0  0
    3.1890   -4.1780   30.3220 N   0  0  0  0  0  0  0  0  0  0  0  0
    2.2150   -4.6540   31.1050 C   0  0  0  0  0  0  0  0  0  0  0  0
    1.0980   -3.7160   31.4030 C   0  0  0  0  0  0  0  0  0  0  0  0
    0.0580   -4.4890   31.9040 F   0  0  0  0  0  0  0  0  0  0  0  0
    0.7280   -3.0420   30.2730 F   0  0  0  0  0  0  0  0  0  0  0  0
    1.5760   -2.8360   32.3730 F   0  0  0  0  0  0  0  0  0  0  0  0
    4.7400   -3.8890   27.6960 C   0  0  0  0  0  0  0  0  0  0  0  0
    6.7810   -2.9470   23.3960 C   0  0  0  0  0  0  0  0  0  0  0  0
    7.6090   -3.2970   22.3500 C   0  0  0  0  0  0  0  0  0  0  0  0
  1  2  1  0
  2  3  2  0
  2  4  1  0
  4  5  1  0
  5  6  1  0
  6  7  1  0
  7  8  1  0
  8  9  2  0
  8 10  1  0
 10 11  1  0
 11 12  1  0
 12 13  1  0
 13 14  1  0
 14 15  1  1
 15 16  2  0
 15 17  1  0
 17 18  1  0
 18 19  1  0
 19 20  1  0
 19 21  1  0
 19 22  1  0
 10 23  1  0
 14 23  1  0
  7 24  1  0
  4 25  1  0
 24 25  1  0
M  END
