piperidine-amides-7092-covalent
     RDKit          3D

 22 23  0  0  0  0  0  0  0  0999 V2000
    7.0500   -3.3290   19.2830 C   0  0  0  0  0  0  0  0  0  0  0  0
    6.3750   -4.1690   20.2850 C   0  0  0  0  0  0  0  0  0  0  0  0
    5.3410   -4.8010   19.9670 O   0  0  0  0  0  0  0  0  0  0  0  0
    6.9020   -4.3130   21.5760 N   0  0  0  0  0  0  0  0  0  0  0  0
    7.6380   -3.2190   22.1800 C   0  0  0  0  0  0  0  0  0  0  0  0
    6.7470   -2.6550   23.2850 C   0  0  0  0  0  0  0  0  0  0  0  0
    6.5750   -3.7840   24.2640 C   0  0  0  0  0  0  0  0  0  0  0  0
    5.7830   -3.3170   25.4280 C   0  0  0  0  0  0  0  0  0  0  0  0
    4.5320   -3.3800   25.4010 O   0  0  0  0  0  0  0  0  0  0  0  0
    6.4720   -2.8050   26.5580 N   0  0  0  0  0  0  0  0  0  0  0  0
    5.9750   -1.6710   27.2960 C   0  0  0  0  0  0  0  0  0  0  0  0
    4.7350   -2.1390   28.0400 C   0  0  0  0  0  0  0  0  0  0  0  0
    4.9430   -3.3110   28.8010 O   0  0  0  0  0  0  0  0  0  0  0  0
    3.5610   -1.3470   27.8750 O   0  0  0  0  0  0  0  0  0  0  0  0
    2.6160   -1.2340   28.8990 C   0  0  0  0  0  0  0  0  0  0  0  0
    5.8350   -0.4340   26.5580 C   0  0  0  0  0  0  0  0  0  0  0  0
    6.0390    0.6220   27.4220 C   0  0  0  0  0  0  0  0  0  0  0  0
    5.8750    0.1860   28.7160 C   0  0  0  0  0  0  0  0  0  0  0  0
    6.9390   -0.5020   29.5850 C   0  0  0  0  0  0  0  0  0  0  0  0
    7.0360   -1.3180   28.2900 C   0  0  0  0  0  0  0  0  0  0  0  0
    5.9400   -4.9900   23.6920 C   0  0  0  0  0  0  0  0  0  0  0  0
    6.4820   -5.3960   22.3980 C   0  0  0  0  0  0  0  0  0  0  0  0
  1  2  1  0
  2  3  2  0
  2  4  1  0
  4  5  1  0
  5  6  1  0
  6  7  1  0
  7  8  1  0
  8  9  2  0
  8 10  1  0
 10 11  1  0
 11 12  1  0
 12 13  2  0
 12 14  1  0
 14 15  1  0
 11 16  1  0
 16 17  1  0
 17 18  1  0
 18 19  1  0
 11 20  1  0
 19 20  1  0
  7 21  1  0
  4 22  1  0
 21 22  1  0
M  END
