piperidine-amides-29886-covalent
     RDKit          3D

 27 29  0  0  0  0  0  0  0  0999 V2000
    7.0730   -3.3560   19.2880 C   0  0  0  0  0  0  0  0  0  0  0  0
    6.3230   -4.1230   20.2690 C   0  0  0  0  0  0  0  0  0  0  0  0
    5.2880   -4.6980   19.9380 O   0  0  0  0  0  0  0  0  0  0  0  0
    6.8280   -4.2620   21.6030 N   0  0  0  0  0  0  0  0  0  0  0  0
    7.5620   -3.1880   22.2130 C   0  0  0  0  0  0  0  0  0  0  0  0
    6.8090   -2.6790   23.4090 C   0  0  0  0  0  0  0  0  0  0  0  0
    6.5830   -3.8670   24.3220 C   0  0  0  0  0  0  0  0  0  0  0  0
    5.8040   -3.4910   25.5540 C   0  0  0  0  0  0  0  0  0  0  0  0
    4.5780   -3.6990   25.6130 O   0  0  0  0  0  0  0  0  0  0  0  0
    6.4250   -2.8710   26.6820 N   0  0  0  0  0  0  0  0  0  0  0  0
    6.4430   -3.5290   27.9850 C   0  0  0  0  0  0  0  0  0  0  0  0
    6.1200   -4.9970   27.9200 C   0  0  0  0  0  0  0  0  0  0  0  0
    6.5440   -5.5840   29.1040 O   0  0  0  0  0  0  0  0  0  0  0  0
    6.1830   -1.4630   26.8700 C   0  0  0  0  0  0  0  0  0  0  0  0
    6.8220   -0.6380   27.9110 N   0  0  0  0  0  0  0  0  0  0  0  0
    6.2690    0.6470   27.6960 C   0  0  0  0  0  0  0  0  0  0  0  0
    6.5310    1.8120   28.4010 C   0  0  0  0  0  0  0  0  0  0  0  0
    5.8220    2.9950   27.9660 C   0  0  0  0  0  0  0  0  0  0  0  0
    4.9430    2.9820   26.9260 C   0  0  0  0  0  0  0  0  0  0  0  0
    4.7190    1.8030   26.2630 C   0  0  0  0  0  0  0  0  0  0  0  0
    5.4020    0.6510   26.6770 C   0  0  0  0  0  0  0  0  0  0  0  0
    5.3560   -0.5860   26.2040 N   0  0  0  0  0  0  0  0  0  0  0  0
    4.4450   -0.8050   25.0740 C   0  0  0  0  0  0  0  0  0  0  0  0
    3.1580   -0.9040   25.5750 C   0  0  0  0  0  0  0  0  0  0  0  0
    2.6130   -2.1750   25.4400 C   0  0  0  0  0  0  0  0  0  0  0  0
    5.7960   -4.9510   23.6090 C   0  0  0  0  0  0  0  0  0  0  0  0
    6.5750   -5.4430   22.3810 C   0  0  0  0  0  0  0  0  0  0  0  0
  1  2  1  0
  2  3  2  0
  2  4  1  0
  4  5  1  0
  5  6  1  0
  6  7  1  0
  7  8  1  0
  8  9  2  0
  8 10  1  0
 10 11  1  0
 11 12  1  0
 12 13  1  0
 10 14  1  0
 14 15  2  0
 15 16  1  0
 16 17  2  0
 17 18  1  0
 18 19  2  0
 19 20  1  0
 16 21  1  0
 20 21  2  0
 14 22  1  0
 21 22  1  0
 22 23  1  0
 23 24  1  0
 24 25  1  0
  7 26  1  0
  4 27  1  0
 26 27  1  0
M  END
