piperidine-amides-2255-covalent
     RDKit          3D

 29 30  0  0  0  0  0  0  0  0999 V2000
    7.0790   -3.2680   19.2180 C   0  0  0  0  0  0  0  0  0  0  0  0
    6.3320   -4.0420   20.2450 C   0  0  0  0  0  0  0  0  0  0  0  0
    5.2810   -4.5680   19.8900 O   0  0  0  0  0  0  0  0  0  0  0  0
    6.8440   -4.1960   21.5380 N   0  0  0  0  0  0  0  0  0  0  0  0
    6.5700   -5.3750   22.3170 C   0  0  0  0  0  0  0  0  0  0  0  0
    5.8800   -4.9660   23.5900 C   0  0  0  0  0  0  0  0  0  0  0  0
    6.6270   -3.7870   24.2180 C   0  0  0  0  0  0  0  0  0  0  0  0
    5.8230   -3.2590   25.3470 C   0  0  0  0  0  0  0  0  0  0  0  0
    4.5930   -3.1840   25.2270 O   0  0  0  0  0  0  0  0  0  0  0  0
    6.4320   -2.8390   26.5540 N   0  0  0  0  0  0  0  0  0  0  0  0
    6.2200   -3.6040   27.7760 C   0  0  2  0  0  0  0  0  0  0  0  0
    5.6790   -4.9580   27.3420 C   0  0  0  0  0  0  0  0  0  0  0  0
    5.6580   -6.0550   28.1580 C   0  0  0  0  0  0  0  0  0  0  0  0
    5.4090   -7.2010   27.7010 O   0  0  0  0  0  0  0  0  0  0  0  0
    5.8940   -5.8970   29.4980 O   0  0  0  0  0  0  0  0  0  0  0  0
    4.9640   -6.3490   30.4830 C   0  0  0  0  0  0  0  0  0  0  0  0
    4.4800   -7.5960   30.2040 C   0  0  0  0  0  0  0  0  0  0  0  0
    5.5230   -7.3970   31.2970 C   0  0  0  0  0  0  0  0  0  0  0  0
    5.3480   -2.9740   28.8550 C   0  0  0  0  0  0  0  0  0  0  0  0
    4.3170   -3.9120   29.4690 C   0  0  0  0  0  0  0  0  0  0  0  0
    3.4410   -3.3530   30.5420 C   0  0  0  0  0  0  0  0  0  0  0  0
    3.5770   -1.9510   30.9780 C   0  0  0  0  0  0  0  0  0  0  0  0
    4.6070   -1.0630   30.3400 C   0  0  0  0  0  0  0  0  0  0  0  0
    5.4760   -1.6290   29.2700 C   0  0  0  0  0  0  0  0  0  0  0  0
    6.4020   -0.6210   28.7720 N   0  0  0  0  0  0  0  0  0  0  0  0
    7.4270   -0.0480   29.5190 O   0  0  0  0  0  0  0  0  0  0  0  0
    5.7830    0.3080   27.9180 O   0  0  0  0  0  0  0  0  0  0  0  0
    6.8470   -2.6740   23.2110 C   0  0  0  0  0  0  0  0  0  0  0  0
    7.6180   -3.1400   22.1710 C   0  0  0  0  0  0  0  0  0  0  0  0
  1  2  1  0
  2  3  2  0
  2  4  1  0
  4  5  1  0
  5  6  1  0
  6  7  1  0
  7  8  1  0
  8  9  2  0
  8 10  1  0
 10 11  1  0
 11 12  1  6
 12 13  1  0
 13 14  2  0
 13 15  1  0
 15 16  1  0
 16 17  1  0
 16 18  1  0
 11 19  1  0
 19 20  2  0
 20 21  1  0
 21 22  2  0
 22 23  1  0
 19 24  1  0
 23 24  2  0
 24 25  1  0
 25 26  2  0
 25 27  1  0
  7 28  1  0
  4 29  1  0
 28 29  1  0
M  CHG  2  25   1  27  -1
M  END
