piperidine-amides-1116-covalent
     RDKit          3D

 23 24  0  0  0  0  0  0  0  0999 V2000
    7.0700   -3.3550   19.3390 C   0  0  0  0  0  0  0  0  0  0  0  0
    6.3250   -4.1670   20.3350 C   0  0  0  0  0  0  0  0  0  0  0  0
    5.3310   -4.8100   19.9670 O   0  0  0  0  0  0  0  0  0  0  0  0
    6.8060   -4.2130   21.6590 N   0  0  0  0  0  0  0  0  0  0  0  0
    7.7000   -3.1830   22.1340 C   0  0  0  0  0  0  0  0  0  0  0  0
    7.5940   -3.1730   23.6480 C   0  0  0  0  0  0  0  0  0  0  0  0
    6.2090   -3.6150   23.9630 C   0  0  0  0  0  0  0  0  0  0  0  0
    5.8220   -3.2270   25.3330 C   0  0  0  0  0  0  0  0  0  0  0  0
    4.6730   -3.4940   25.7010 O   0  0  0  0  0  0  0  0  0  0  0  0
    6.7760   -2.5730   26.1090 N   0  0  0  0  0  0  0  0  0  0  0  0
    6.5470   -1.4400   26.9250 C   0  0  0  0  0  0  0  0  0  0  0  0
    5.9670   -0.2700   26.4990 C   0  0  0  0  0  0  0  0  0  0  0  0
    5.7590    0.8430   27.3360 C   0  0  0  0  0  0  0  0  0  0  0  0
    6.1160    0.8830   28.6740 C   0  0  0  0  0  0  0  0  0  0  0  0
    5.9670    1.8690   29.5430 O   0  0  0  0  0  0  0  0  0  0  0  0
    4.8780    2.5540   29.2900 C   0  0  0  0  0  0  0  0  0  0  0  0
    6.7090   -0.2680   29.1730 C   0  0  0  0  0  0  0  0  0  0  0  0
    7.0900   -0.2670   30.5550 N   0  0  0  0  0  0  0  0  0  0  0  0
    8.2330    0.3770   30.9160 O   0  0  0  0  0  0  0  0  0  0  0  0
    6.0950   -0.5180   31.4640 O   0  0  0  0  0  0  0  0  0  0  0  0
    6.9290   -1.4610   28.2640 C   0  0  0  0  0  0  0  0  0  0  0  0
    6.0900   -5.1240   23.7450 C   0  0  0  0  0  0  0  0  0  0  0  0
    6.5650   -5.4530   22.3710 C   0  0  0  0  0  0  0  0  0  0  0  0
  1  2  1  0
  2  3  2  0
  2  4  1  0
  4  5  1  0
  5  6  1  0
  6  7  1  0
  7  8  1  0
  8  9  2  0
  8 10  1  0
 10 11  1  0
 11 12  2  0
 12 13  1  0
 13 14  2  0
 14 15  1  0
 15 16  1  0
 14 17  1  0
 17 18  1  0
 18 19  2  0
 18 20  1  0
 11 21  1  0
 17 21  2  0
  7 22  1  0
  4 23  1  0
 22 23  1  0
M  CHG  2  18   1  20  -1
M  END
