piperidine-amides-2955-covalent
     RDKit          3D

 24 26  0  0  0  0  0  0  0  0999 V2000
    7.0210   -3.3570   19.3120 C   0  0  0  0  0  0  0  0  0  0  0  0
    6.3520   -4.1720   20.3270 C   0  0  0  0  0  0  0  0  0  0  0  0
    5.4030   -4.8820   19.9930 O   0  0  0  0  0  0  0  0  0  0  0  0
    6.8120   -4.1840   21.6930 N   0  0  0  0  0  0  0  0  0  0  0  0
    7.7500   -3.1770   22.1290 C   0  0  0  0  0  0  0  0  0  0  0  0
    7.6260   -2.9810   23.5990 C   0  0  0  0  0  0  0  0  0  0  0  0
    6.2370   -3.4500   23.9660 C   0  0  0  0  0  0  0  0  0  0  0  0
    5.9190   -3.0130   25.3530 C   0  0  0  0  0  0  0  0  0  0  0  0
    4.8330   -3.2790   25.9100 O   0  0  0  0  0  0  0  0  0  0  0  0
    6.9080   -2.2520   26.0320 N   0  0  0  0  0  0  0  0  0  0  0  0
    6.5490   -1.2660   27.0380 C   0  0  2  0  0  0  0  0  0  0  0  0
    6.1510   -2.1310   28.1940 C   0  0  0  0  0  0  0  0  0  0  0  0
    6.6220   -1.8340   29.4350 C   0  0  0  0  0  0  0  0  0  0  0  0
    7.0220   -0.5670   29.7220 C   0  0  0  0  0  0  0  0  0  0  0  0
    7.2970    0.0970   28.5440 O   0  0  0  0  0  0  0  0  0  0  0  0
    6.2110    0.4840   27.7110 C   0  0  0  0  0  0  0  0  0  0  0  0
    5.9360    1.8100   28.2080 C   0  0  0  0  0  0  0  0  0  0  0  0
    4.9870    2.6020   27.7360 C   0  0  0  0  0  0  0  0  0  0  0  0
    4.2980    2.0550   26.7430 C   0  0  0  0  0  0  0  0  0  0  0  0
    3.3170    2.8480   26.2380 F   0  0  0  0  0  0  0  0  0  0  0  0
    4.5850    0.7670   26.2820 C   0  0  0  0  0  0  0  0  0  0  0  0
    5.5860   -0.3090   26.6440 C   0  0  0  0  0  0  0  0  0  0  0  0
    6.0440   -4.9450   23.7440 C   0  0  0  0  0  0  0  0  0  0  0  0
    6.6150   -5.3470   22.5260 C   0  0  0  0  0  0  0  0  0  0  0  0
  1  2  1  0
  2  3  2  0
  2  4  1  0
  4  5  1  0
  5  6  1  0
  6  7  1  0
  7  8  1  0
  8  9  2  0
  8 10  1  0
 11 10  1  6
 11 12  1  0
 12 13  1  0
 13 14  1  0
 14 15  1  0
 15 16  1  0
 16 17  1  0
 17 18  2  0
 18 19  1  0
 19 20  1  0
 19 21  2  0
 11 22  1  0
 16 22  2  0
 21 22  1  0
  7 23  1  0
  4 24  1  0
 23 24  1  0
M  END
