piperidine-amides-25250-covalent
     RDKit          3D

 25 28  0  0  0  0  0  0  0  0999 V2000
    7.0700   -3.2630   19.2580 C   0  0  0  0  0  0  0  0  0  0  0  0
    6.3500   -4.0570   20.2910 C   0  0  0  0  0  0  0  0  0  0  0  0
    5.3270   -4.6350   19.9220 O   0  0  0  0  0  0  0  0  0  0  0  0
    6.8520   -4.1650   21.6010 N   0  0  0  0  0  0  0  0  0  0  0  0
    6.6500   -5.3660   22.3710 C   0  0  0  0  0  0  0  0  0  0  0  0
    5.8800   -5.0100   23.6070 C   0  0  0  0  0  0  0  0  0  0  0  0
    5.9010   -3.4920   23.7640 C   0  0  0  0  0  0  0  0  0  0  0  0
    5.4340   -3.1590   25.1280 C   0  0  0  0  0  0  0  0  0  0  0  0
    4.8240   -4.0200   25.7710 O   0  0  0  0  0  0  0  0  0  0  0  0
    5.6360   -1.8920   25.7220 N   0  0  0  0  0  0  0  0  0  0  0  0
    6.5750   -1.8720   26.8240 C   0  0  0  0  0  0  0  0  0  0  0  0
    5.5740   -0.9860   27.3200 C   0  0  0  0  0  0  0  0  0  0  0  0
    5.7370    0.2190   27.9290 C   0  0  0  0  0  0  0  0  0  0  0  0
    5.5320   -0.2440   29.2500 N   0  0  0  0  0  0  0  0  0  0  0  0
    6.6690   -0.3800   30.1290 C   0  0  0  0  0  0  0  0  0  0  0  0
    6.2530   -0.0580   31.3960 C   0  0  0  0  0  0  0  0  0  0  0  0
    6.8870    0.7330   32.5160 C   0  0  0  0  0  0  0  0  0  0  0  0
    6.0570    0.8320   33.7650 C   0  0  0  0  0  0  0  0  0  0  0  0
    4.6990    0.1690   33.8370 C   0  0  0  0  0  0  0  0  0  0  0  0
    4.2450   -0.5690   32.6230 C   0  0  0  0  0  0  0  0  0  0  0  0
    4.9320   -0.7620   31.3180 C   0  0  0  0  0  0  0  0  0  0  0  0
    5.2540   -1.5320   28.7110 C   0  0  0  0  0  0  0  0  0  0  0  0
    4.6810   -0.8770   26.3190 C   0  0  0  0  0  0  0  0  0  0  0  0
    7.3080   -2.9670   23.5330 C   0  0  0  0  0  0  0  0  0  0  0  0
    7.6640   -3.0970   22.2010 C   0  0  0  0  0  0  0  0  0  0  0  0
  1  2  1  0
  2  3  2  0
  2  4  1  0
  4  5  1  0
  5  6  1  0
  6  7  1  0
  7  8  1  0
  8  9  2  0
  8 10  1  0
 10 11  1  0
 12 11  1  0
 12 13  1  0
 13 14  1  0
 14 15  1  0
 15 16  1  0
 16 17  2  0
 17 18  1  0
 18 19  2  0
 19 20  1  0
 16 21  1  0
 20 21  2  0
 12 22  1  0
 14 22  1  0
 10 23  1  0
 12 23  1  0
  7 24  1  0
  4 25  1  0
 24 25  1  0
M  END
