piperidine-amides-30564-covalent
     RDKit          3D

 23 25  0  0  0  0  0  0  0  0999 V2000
    7.0730   -3.3380   19.3160 C   0  0  0  0  0  0  0  0  0  0  0  0
    6.3920   -4.1530   20.3220 C   0  0  0  0  0  0  0  0  0  0  0  0
    5.3960   -4.8190   19.9840 O   0  0  0  0  0  0  0  0  0  0  0  0
    6.8830   -4.2270   21.6390 N   0  0  0  0  0  0  0  0  0  0  0  0
    7.7460   -3.2220   22.2070 C   0  0  0  0  0  0  0  0  0  0  0  0
    7.0890   -2.8060   23.4900 C   0  0  0  0  0  0  0  0  0  0  0  0
    6.5220   -3.9630   24.2620 C   0  0  0  0  0  0  0  0  0  0  0  0
    5.7340   -3.4980   25.4390 C   0  0  0  0  0  0  0  0  0  0  0  0
    4.4710   -3.5780   25.4240 O   0  0  0  0  0  0  0  0  0  0  0  0
    6.3110   -2.9220   26.6000 N   0  0  0  0  0  0  0  0  0  0  0  0
    6.1020   -3.5800   27.9150 C   0  0  0  0  0  0  0  0  0  0  0  0
    5.8520   -2.5270   28.9320 C   0  0  0  0  0  0  0  0  0  0  0  0
    4.4810   -2.2900   29.3980 C   0  0  0  0  0  0  0  0  0  0  0  0
    4.2420   -1.2240   30.4250 C   0  0  0  0  0  0  0  0  0  0  0  0
    5.4010   -0.4110   30.9680 C   0  0  0  0  0  0  0  0  0  0  0  0
    5.1860    0.9710   32.2860 Br  0  0  0  0  0  0  0  0  0  0  0  0
    6.7130   -0.8020   30.3690 C   0  0  0  0  0  0  0  0  0  0  0  0
    6.9010   -1.7880   29.4240 C   0  0  0  0  0  0  0  0  0  0  0  0
    6.7820   -1.5800   26.6110 C   0  0  0  0  0  0  0  0  0  0  0  0
    6.5820   -0.6920   27.6410 C   0  0  0  0  0  0  0  0  0  0  0  0
    5.8180   -0.3820   26.2960 C   0  0  0  0  0  0  0  0  0  0  0  0
    5.6830   -4.8610   23.3200 C   0  0  0  0  0  0  0  0  0  0  0  0
    6.4220   -5.3200   22.4820 C   0  0  0  0  0  0  0  0  0  0  0  0
  1  2  1  0
  2  3  2  0
  2  4  1  0
  4  5  1  0
  5  6  1  0
  6  7  1  0
  7  8  1  0
  8  9  2  0
  8 10  1  0
 10 11  1  0
 11 12  1  0
 12 13  2  0
 13 14  1  0
 14 15  2  0
 15 16  1  0
 15 17  1  0
 12 18  1  0
 17 18  2  0
 10 19  1  0
 19 20  1  0
 19 21  1  0
 20 21  1  0
  7 22  1  0
  4 23  1  0
 22 23  1  0
M  END
