piperidine-amides-13160-covalent
     RDKit          3D

 20 20  0  0  0  0  0  0  0  0999 V2000
    7.1950   -3.2990   19.1820 C   0  0  0  0  0  0  0  0  0  0  0  0
    6.3990   -3.9910   20.2180 C   0  0  0  0  0  0  0  0  0  0  0  0
    5.3000   -4.4660   19.8620 O   0  0  0  0  0  0  0  0  0  0  0  0
    6.9020   -4.1380   21.5170 N   0  0  0  0  0  0  0  0  0  0  0  0
    7.5500   -3.0160   22.1190 C   0  0  0  0  0  0  0  0  0  0  0  0
    7.1370   -2.8040   23.4940 C   0  0  0  0  0  0  0  0  0  0  0  0
    5.9010   -3.5440   23.8100 C   0  0  0  0  0  0  0  0  0  0  0  0
    5.4670   -3.2830   25.1900 C   0  0  0  0  0  0  0  0  0  0  0  0
    4.2690   -3.0190   25.3840 O   0  0  0  0  0  0  0  0  0  0  0  0
    6.3530   -3.3320   26.2650 N   0  0  0  0  0  0  0  0  0  0  0  0
    6.0320   -4.0980   27.4820 C   0  0  0  0  0  0  0  0  0  0  0  0
    6.3980   -3.3500   28.6950 C   0  0  0  0  0  0  0  0  0  0  0  0
    5.5630   -2.2080   29.0560 C   0  0  0  0  0  0  0  0  0  0  0  0
    6.5880   -0.8940   29.4290 S   0  0  0  0  0  0  0  0  0  0  0  0
    5.9250   -0.1910   30.5540 O   0  0  0  0  0  0  0  0  0  0  0  0
    7.9700   -1.3250   29.7200 O   0  0  0  0  0  0  0  0  0  0  0  0
    6.6900    0.2270   28.1680 N   0  0  0  0  0  0  0  0  0  0  0  0
    7.7660    0.0070   27.2760 C   0  0  0  0  0  0  0  0  0  0  0  0
    6.0000   -5.0090   23.5110 C   0  0  0  0  0  0  0  0  0  0  0  0
    6.4800   -5.2900   22.2680 C   0  0  0  0  0  0  0  0  0  0  0  0
  1  2  1  0
  2  3  2  0
  2  4  1  0
  4  5  1  0
  5  6  1  0
  6  7  1  0
  7  8  1  0
  8  9  2  0
  8 10  1  0
 10 11  1  0
 11 12  1  0
 12 13  1  0
 13 14  1  0
 14 15  2  0
 14 16  2  0
 14 17  1  0
 17 18  1  0
  7 19  1  0
  4 20  1  0
 19 20  1  0
M  END
