piperidine-amides-12216-covalent
     RDKit          3D

 24 25  0  0  0  0  0  0  0  0999 V2000
    7.0790   -3.3650   19.3570 C   0  0  0  0  0  0  0  0  0  0  0  0
    6.3610   -4.1880   20.3210 C   0  0  0  0  0  0  0  0  0  0  0  0
    5.3610   -4.8130   19.9750 O   0  0  0  0  0  0  0  0  0  0  0  0
    6.8630   -4.3010   21.6610 N   0  0  0  0  0  0  0  0  0  0  0  0
    7.7040   -3.2460   22.1870 C   0  0  0  0  0  0  0  0  0  0  0  0
    7.4160   -2.9640   23.6400 C   0  0  0  0  0  0  0  0  0  0  0  0
    6.0780   -3.5940   23.9820 C   0  0  0  0  0  0  0  0  0  0  0  0
    5.6440   -3.1880   25.3460 C   0  0  0  0  0  0  0  0  0  0  0  0
    4.4510   -3.2150   25.7020 O   0  0  0  0  0  0  0  0  0  0  0  0
    6.6320   -2.7630   26.2550 N   0  0  0  0  0  0  0  0  0  0  0  0
    6.4630   -1.5250   26.9870 C   0  0  0  0  0  0  0  0  0  0  0  0
    6.9810   -1.5890   28.3860 C   0  0  0  0  0  0  0  0  0  0  0  0
    6.8930   -0.4890   29.2050 C   0  0  0  0  0  0  0  0  0  0  0  0
    6.3090    0.6990   28.7200 C   0  0  0  0  0  0  0  0  0  0  0  0
    6.2150    1.8040   29.5510 C   0  0  0  0  0  0  0  0  0  0  0  0
    7.1230    3.2440   29.3570 S   0  0  0  0  0  0  0  0  0  0  0  0
    6.2110    4.4770   30.1730 N   0  0  0  0  0  0  0  0  0  0  0  0
    8.4560    3.1650   30.0230 O   0  0  0  0  0  0  0  0  0  0  0  0
    7.3340    3.5920   27.9260 O   0  0  0  0  0  0  0  0  0  0  0  0
    5.8370    0.7290   27.4150 C   0  0  0  0  0  0  0  0  0  0  0  0
    5.8990   -0.3440   26.5410 C   0  0  0  0  0  0  0  0  0  0  0  0
    5.4320   -0.3140   25.2410 C   0  0  0  0  0  0  0  0  0  0  0  0
    5.9970   -5.0490   23.7300 C   0  0  0  0  0  0  0  0  0  0  0  0
    6.5320   -5.4550   22.4290 C   0  0  0  0  0  0  0  0  0  0  0  0
  1  2  1  0
  2  3  2  0
  2  4  1  0
  4  5  1  0
  5  6  1  0
  6  7  1  0
  7  8  1  0
  8  9  2  0
  8 10  1  0
 10 11  1  0
 11 12  2  0
 12 13  1  0
 13 14  2  0
 14 15  1  0
 15 16  1  0
 16 17  1  0
 16 18  2  0
 16 19  2  0
 14 20  1  0
 11 21  1  0
 20 21  2  0
 21 22  1  0
  7 23  1  0
  4 24  1  0
 23 24  1  0
M  END
