piperidine-amides-14833-covalent
     RDKit          3D

 22 24  0  0  0  0  0  0  0  0999 V2000
    7.0900   -3.2580   19.2380 C   0  0  0  0  0  0  0  0  0  0  0  0
    6.3230   -4.0240   20.2230 C   0  0  0  0  0  0  0  0  0  0  0  0
    5.2490   -4.5300   19.8650 O   0  0  0  0  0  0  0  0  0  0  0  0
    6.8130   -4.2270   21.5340 N   0  0  0  0  0  0  0  0  0  0  0  0
    6.4090   -5.3950   22.2470 C   0  0  0  0  0  0  0  0  0  0  0  0
    5.7380   -4.9800   23.5260 C   0  0  0  0  0  0  0  0  0  0  0  0
    5.6460   -3.4590   23.5370 C   0  0  0  0  0  0  0  0  0  0  0  0
    5.2620   -2.9570   24.9050 C   0  0  0  0  0  0  0  0  0  0  0  0
    5.4550   -1.7750   25.1330 O   0  0  0  0  0  0  0  0  0  0  0  0
    4.7030   -3.8350   25.8130 N   0  0  0  0  0  0  0  0  0  0  0  0
    5.4090   -4.9340   26.3260 C   0  0  0  0  0  0  0  0  0  0  0  0
    6.7670   -4.7510   26.3540 C   0  0  0  0  0  0  0  0  0  0  0  0
    7.5550   -4.1520   25.4040 C   0  0  0  0  0  0  0  0  0  0  0  0
    8.8160   -4.1870   25.8200 C   0  0  0  0  0  0  0  0  0  0  0  0
    9.7170   -3.5400   24.7960 C   0  0  0  0  0  0  0  0  0  0  0  0
   11.0540   -3.4880   25.1440 C   0  0  0  0  0  0  0  0  0  0  0  0
   10.1990   -2.1990   25.0320 C   0  0  0  0  0  0  0  0  0  0  0  0
    8.8390   -4.8110   27.0440 N   0  0  0  0  0  0  0  0  0  0  0  0
    9.9460   -5.0610   27.8220 C   0  0  0  0  0  0  0  0  0  0  0  0
    7.5980   -5.1400   27.3470 N   0  0  0  0  0  0  0  0  0  0  0  0
    6.8160   -2.6520   23.1240 C   0  0  0  0  0  0  0  0  0  0  0  0
    7.6480   -3.2790   22.2290 C   0  0  0  0  0  0  0  0  0  0  0  0
  1  2  1  0
  2  3  2  0
  2  4  1  0
  4  5  1  0
  5  6  1  0
  6  7  1  0
  7  8  1  0
  8  9  2  0
  8 10  1  0
 10 11  1  0
 11 12  1  0
 12 13  1  0
 13 14  2  0
 14 15  1  0
 15 16  1  0
 15 17  1  0
 16 17  1  0
 14 18  1  0
 18 19  1  0
 12 20  2  0
 18 20  1  0
  7 21  1  0
  4 22  1  0
 21 22  1  0
M  END
