piperidine-amides-32971-covalent
     RDKit          3D

 28 29  0  0  0  0  0  0  0  0999 V2000
    7.0520   -3.3440   19.3840 C   0  0  0  0  0  0  0  0  0  0  0  0
    6.3890   -4.2430   20.3680 C   0  0  0  0  0  0  0  0  0  0  0  0
    5.3890   -4.8830   19.9940 O   0  0  0  0  0  0  0  0  0  0  0  0
    6.9250   -4.3930   21.6740 N   0  0  0  0  0  0  0  0  0  0  0  0
    6.7320   -5.6100   22.4450 C   0  0  0  0  0  0  0  0  0  0  0  0
    6.0950   -5.2530   23.8030 C   0  0  0  0  0  0  0  0  0  0  0  0
    5.8340   -3.7920   23.7790 C   0  0  0  0  0  0  0  0  0  0  0  0
    4.8920   -3.2640   24.8130 C   0  0  0  0  0  0  0  0  0  0  0  0
    3.7400   -3.1350   24.4160 O   0  0  0  0  0  0  0  0  0  0  0  0
    5.2010   -2.9390   26.1320 N   0  0  0  0  0  0  0  0  0  0  0  0
    4.2540   -2.7510   27.1520 C   0  0  0  0  0  0  0  0  0  0  0  0
    4.6330   -3.3940   28.2720 C   0  0  0  0  0  0  0  0  0  0  0  0
    5.9430   -3.7610   28.0800 C   0  0  1  0  0  0  0  0  0  0  0  0
    6.7160   -2.7810   28.6590 C   0  0  0  0  0  0  0  0  0  0  0  0
    6.7490   -1.5990   27.9430 N   0  0  0  0  0  0  0  0  0  0  0  0
    6.2540   -0.3880   28.3700 C   0  0  0  0  0  0  0  0  0  0  0  0
    5.0100   -0.0040   28.0770 O   0  0  0  0  0  0  0  0  0  0  0  0
    7.0410    0.4920   29.1280 O   0  0  0  0  0  0  0  0  0  0  0  0
    7.6160    0.0130   30.3200 C   0  0  0  0  0  0  0  0  0  0  0  0
    6.4970   -0.1620   31.3420 C   0  0  0  0  0  0  0  0  0  0  0  0
    8.2370   -1.1060   29.7950 C   0  0  0  0  0  0  0  0  0  0  0  0
    8.6670    0.7850   31.0830 C   0  0  0  0  0  0  0  0  0  0  0  0
    6.1610   -5.1160   28.4190 C   0  0  0  0  0  0  0  0  0  0  0  0
    7.1710   -5.2690   29.2870 F   0  0  0  0  0  0  0  0  0  0  0  0
    5.0480   -5.6300   29.0370 F   0  0  0  0  0  0  0  0  0  0  0  0
    6.2190   -3.7400   26.7030 C   0  0  0  0  0  0  0  0  0  0  0  0
    7.0650   -2.9720   23.6390 C   0  0  0  0  0  0  0  0  0  0  0  0
    7.6840   -3.3050   22.3030 C   0  0  0  0  0  0  0  0  0  0  0  0
  1  2  1  0
  2  3  2  0
  2  4  1  0
  4  5  1  0
  5  6  1  0
  6  7  1  0
  7  8  1  0
  8  9  2  0
  8 10  1  0
 10 11  1  0
 11 12  1  0
 12 13  1  0
 13 14  1  1
 14 15  1  0
 15 16  1  0
 16 17  2  0
 16 18  1  0
 19 18  1  0
 19 20  1  0
 19 21  1  0
 19 22  1  0
 13 23  1  0
 23 24  1  0
 23 25  1  0
 10 26  1  0
 13 26  1  0
  7 27  1  0
  4 28  1  0
 27 28  1  0
M  END
