piperidine-amides-15242-covalent
     RDKit          3D

 17 18  0  0  0  0  0  0  0  0999 V2000
    7.0680   -3.2790   19.3110 C   0  0  0  0  0  0  0  0  0  0  0  0
    6.3520   -4.1050   20.2990 C   0  0  0  0  0  0  0  0  0  0  0  0
    5.3390   -4.7540   19.9540 O   0  0  0  0  0  0  0  0  0  0  0  0
    6.8090   -4.2160   21.6220 N   0  0  0  0  0  0  0  0  0  0  0  0
    6.5880   -5.4590   22.3450 C   0  0  0  0  0  0  0  0  0  0  0  0
    6.1630   -5.1690   23.8090 C   0  0  0  0  0  0  0  0  0  0  0  0
    6.0100   -3.6740   23.9950 C   0  0  0  0  0  0  0  0  0  0  0  0
    5.5030   -3.3290   25.3480 C   0  0  0  0  0  0  0  0  0  0  0  0
    4.5780   -2.4960   25.4100 O   0  0  0  0  0  0  0  0  0  0  0  0
    6.0280   -3.9100   26.5310 N   0  0  0  0  0  0  0  0  0  0  0  0
    5.7660   -5.2910   26.8570 C   0  0  1  0  0  0  0  0  0  0  0  0
    6.3340   -5.6220   28.1530 C   0  0  0  0  0  0  0  0  0  0  0  0
    5.1170   -5.9400   28.5910 C   0  0  2  0  0  0  0  0  0  0  0  0
    5.0230   -7.2100   29.0960 C   0  0  0  0  0  0  0  0  0  0  0  0
    4.3720   -5.5680   27.4380 C   0  0  0  0  0  0  0  0  0  0  0  0
    7.2390   -2.9260   23.6420 C   0  0  0  0  0  0  0  0  0  0  0  0
    7.6470   -3.2070   22.2290 C   0  0  0  0  0  0  0  0  0  0  0  0
  1  2  1  0
  2  3  2  0
  2  4  1  0
  4  5  1  0
  5  6  1  0
  6  7  1  0
  7  8  1  0
  8  9  2  0
  8 10  1  0
 11 10  1  1
 11 12  1  0
 12 13  1  0
 13 14  1  6
 11 15  1  0
 13 15  1  0
  7 16  1  0
  4 17  1  0
 16 17  1  0
M  END
