piperidine-amides-4529-covalent
     RDKit          3D

 25 26  0  0  0  0  0  0  0  0999 V2000
    7.0150   -3.3590   19.3100 C   0  0  0  0  0  0  0  0  0  0  0  0
    6.3840   -4.1950   20.3550 C   0  0  0  0  0  0  0  0  0  0  0  0
    5.3960   -4.8650   19.9910 O   0  0  0  0  0  0  0  0  0  0  0  0
    6.9110   -4.2580   21.6700 N   0  0  0  0  0  0  0  0  0  0  0  0
    6.6120   -5.3870   22.4950 C   0  0  0  0  0  0  0  0  0  0  0  0
    6.0630   -5.0040   23.8000 C   0  0  0  0  0  0  0  0  0  0  0  0
    6.0820   -3.5460   24.0190 C   0  0  0  0  0  0  0  0  0  0  0  0
    5.5760   -3.1350   25.3640 C   0  0  0  0  0  0  0  0  0  0  0  0
    4.3700   -2.8430   25.4340 O   0  0  0  0  0  0  0  0  0  0  0  0
    6.3620   -3.0750   26.5350 N   0  0  0  0  0  0  0  0  0  0  0  0
    6.4440   -1.8160   27.3410 C   0  0  0  0  0  0  0  0  0  0  0  0
    5.9510   -0.6190   26.7670 C   0  0  0  0  0  0  0  0  0  0  0  0
    6.1320    0.3350   27.6990 N   0  0  0  0  0  0  0  0  0  0  0  0
    6.6990   -0.3150   28.7290 N   0  0  0  0  0  0  0  0  0  0  0  0
    7.0440    0.4160   29.9300 C   0  0  0  0  0  0  0  0  0  0  0  0
    6.1290    0.3360   30.9640 C   0  0  0  0  0  0  0  0  0  0  0  0
    5.4050   -0.6720   31.0550 O   0  0  0  0  0  0  0  0  0  0  0  0
    6.0030    1.3230   31.8680 N   0  0  0  0  0  0  0  0  0  0  0  0
    5.6920    0.8680   33.2150 C   0  0  0  0  0  0  0  0  0  0  0  0
    6.7460    0.0590   33.5180 C   0  0  0  0  0  0  0  0  0  0  0  0
    7.5780    0.7560   34.4010 O   0  0  0  0  0  0  0  0  0  0  0  0
    8.6180   -0.0920   34.7700 C   0  0  0  0  0  0  0  0  0  0  0  0
    6.9810   -1.7340   28.6690 C   0  0  0  0  0  0  0  0  0  0  0  0
    7.4390   -3.0030   23.6890 C   0  0  0  0  0  0  0  0  0  0  0  0
    7.7240   -3.1870   22.2390 C   0  0  0  0  0  0  0  0  0  0  0  0
  1  2  1  0
  2  3  2  0
  2  4  1  0
  4  5  1  0
  5  6  1  0
  6  7  1  0
  7  8  1  0
  8  9  2  0
  8 10  1  0
 10 11  1  0
 11 12  1  0
 12 13  2  0
 13 14  1  0
 14 15  1  0
 15 16  1  0
 16 17  2  0
 16 18  1  0
 18 19  1  0
 19 20  1  0
 20 21  1  0
 21 22  1  0
 11 23  2  0
 14 23  1  0
  7 24  1  0
  4 25  1  0
 24 25  1  0
M  END
