piperidine-amides-366-covalent
     RDKit          3D

 28 30  0  0  0  0  0  0  0  0999 V2000
    7.0420   -3.3710   19.3340 C   0  0  0  0  0  0  0  0  0  0  0  0
    6.3670   -4.1360   20.3630 C   0  0  0  0  0  0  0  0  0  0  0  0
    5.3760   -4.8370   19.9870 O   0  0  0  0  0  0  0  0  0  0  0  0
    6.7710   -4.1940   21.7240 N   0  0  0  0  0  0  0  0  0  0  0  0
    7.7310   -3.1330   22.1920 C   0  0  0  0  0  0  0  0  0  0  0  0
    7.4340   -2.9160   23.7410 C   0  0  0  0  0  0  0  0  0  0  0  0
    6.2260   -3.7480   24.0200 C   0  0  0  0  0  0  0  0  0  0  0  0
    5.4040   -3.4200   25.3440 C   0  0  0  0  0  0  0  0  0  0  0  0
    4.3470   -4.0210   25.2890 O   0  0  0  0  0  0  0  0  0  0  0  0
    5.9770   -2.6150   26.1540 N   0  0  0  0  0  0  0  0  0  0  0  0
    6.3320   -1.7340   27.1330 C   0  0  0  0  0  0  0  0  0  0  0  0
    6.9840   -1.7570   28.3420 C   0  0  0  0  0  0  0  0  0  0  0  0
    7.1590   -0.6080   29.1330 C   0  0  0  0  0  0  0  0  0  0  0  0
    6.6640    0.7210   28.7510 C   0  0  0  0  0  0  0  0  0  0  0  0
    6.8530    1.8490   29.5690 N   0  0  0  0  0  0  0  0  0  0  0  0
    6.7010    1.7560   31.0230 C   0  0  0  0  0  0  0  0  0  0  0  0
    7.4170    0.8630   31.8540 O   0  0  0  0  0  0  0  0  0  0  0  0
    5.7920    2.6150   31.5130 N   0  0  0  0  0  0  0  0  0  0  0  0
    5.4990    2.2460   32.7530 C   0  0  0  0  0  0  0  0  0  0  0  0
    6.2850    2.9910   33.6300 C   0  0  0  0  0  0  0  0  0  0  0  0
    4.9640    3.7200   33.2590 C   0  0  0  0  0  0  0  0  0  0  0  0
    3.8200    2.8730   32.5790 C   0  0  0  0  0  0  0  0  0  0  0  0
    3.6670    3.0710   31.2220 C   0  0  0  0  0  0  0  0  0  0  0  0
    4.8500    2.8430   30.5800 C   0  0  0  0  0  0  0  0  0  0  0  0
    5.9550    0.7860   27.4440 C   0  0  0  0  0  0  0  0  0  0  0  0
    5.8080   -0.3700   26.7000 C   0  0  0  0  0  0  0  0  0  0  0  0
    6.3350   -5.2080   23.7920 C   0  0  0  0  0  0  0  0  0  0  0  0
    6.6890   -5.4850   22.3720 C   0  0  0  0  0  0  0  0  0  0  0  0
  1  2  1  0
  2  3  2  0
  2  4  1  0
  4  5  1  0
  5  6  1  0
  6  7  1  0
  7  8  1  0
  8  9  2  0
  8 10  1  0
 10 11  1  0
 11 12  2  0
 12 13  1  0
 13 14  2  0
 14 15  1  0
 15 16  1  0
 16 17  2  0
 16 18  1  0
 18 19  1  0
 19 20  1  0
 20 21  1  0
 21 22  1  0
 22 23  1  0
 18 24  1  0
 23 24  1  0
 14 25  1  0
 11 26  1  0
 25 26  2  0
  7 27  1  0
  4 28  1  0
 27 28  1  0
M  END
