piperidine-amides-12370-covalent
     RDKit          3D

 24 25  0  0  0  0  0  0  0  0999 V2000
    7.1200   -3.2830   19.1740 C   0  0  0  0  0  0  0  0  0  0  0  0
    6.3600   -4.0180   20.1790 C   0  0  0  0  0  0  0  0  0  0  0  0
    5.2800   -4.5250   19.8790 O   0  0  0  0  0  0  0  0  0  0  0  0
    6.8960   -4.2180   21.4920 N   0  0  0  0  0  0  0  0  0  0  0  0
    7.7070   -3.1970   22.1060 C   0  0  0  0  0  0  0  0  0  0  0  0
    7.0540   -2.7080   23.3570 C   0  0  0  0  0  0  0  0  0  0  0  0
    6.4990   -3.9070   24.1040 C   0  0  0  0  0  0  0  0  0  0  0  0
    5.6820   -3.4210   25.2320 C   0  0  0  0  0  0  0  0  0  0  0  0
    4.4700   -3.1570   25.1240 O   0  0  0  0  0  0  0  0  0  0  0  0
    6.3120   -3.2550   26.4690 N   0  0  0  0  0  0  0  0  0  0  0  0
    5.9530   -4.1590   27.5260 C   0  0  0  0  0  0  0  0  0  0  0  0
    6.5930   -3.5910   28.7480 C   0  0  0  0  0  0  0  0  0  0  0  0
    6.6640   -2.2090   28.8580 C   0  0  0  0  0  0  0  0  0  0  0  0
    5.4610   -1.6550   29.4010 N   0  0  0  0  0  0  0  0  0  0  0  0
    4.4010   -1.6060   28.4410 C   0  0  0  0  0  0  0  0  0  0  0  0
    5.7190   -0.6200   30.3190 C   0  0  0  0  0  0  0  0  0  0  0  0
    4.6250    0.1790   30.7910 C   0  0  0  0  0  0  0  0  0  0  0  0
    4.6700    1.2160   31.6690 C   0  0  0  0  0  0  0  0  0  0  0  0
    5.9010    1.5760   32.1960 C   0  0  0  0  0  0  0  0  0  0  0  0
    7.0670    0.8720   31.8180 C   0  0  0  0  0  0  0  0  0  0  0  0
    8.2810    1.2030   32.3190 F   0  0  0  0  0  0  0  0  0  0  0  0
    6.9370   -0.2480   30.8530 C   0  0  0  0  0  0  0  0  0  0  0  0
    5.6880   -4.8720   23.2540 C   0  0  0  0  0  0  0  0  0  0  0  0
    6.5210   -5.3630   22.2650 C   0  0  0  0  0  0  0  0  0  0  0  0
  1  2  1  0
  2  3  2  0
  2  4  1  0
  4  5  1  0
  5  6  1  0
  6  7  1  0
  7  8  1  0
  8  9  2  0
  8 10  1  0
 10 11  1  0
 11 12  1  0
 12 13  1  0
 13 14  1  0
 14 15  1  0
 14 16  1  0
 16 17  2  0
 17 18  1  0
 18 19  2  0
 19 20  1  0
 20 21  1  0
 16 22  1  0
 20 22  2  0
  7 23  1  0
  4 24  1  0
 23 24  1  0
M  END
