piperidine-amides-2002-covalent
     RDKit          3D

 25 27  0  0  0  0  0  0  0  0999 V2000
    7.1070   -3.2500   19.2270 C   0  0  0  0  0  0  0  0  0  0  0  0
    6.3530   -4.0160   20.2560 C   0  0  0  0  0  0  0  0  0  0  0  0
    5.3190   -4.5720   19.8950 O   0  0  0  0  0  0  0  0  0  0  0  0
    6.8430   -4.1200   21.5610 N   0  0  0  0  0  0  0  0  0  0  0  0
    7.7540   -3.1410   22.1100 C   0  0  0  0  0  0  0  0  0  0  0  0
    7.5350   -3.0320   23.5860 C   0  0  0  0  0  0  0  0  0  0  0  0
    6.1330   -3.5390   23.9030 C   0  0  0  0  0  0  0  0  0  0  0  0
    5.8010   -3.1770   25.2940 C   0  0  0  0  0  0  0  0  0  0  0  0
    4.7530   -3.6160   25.7890 O   0  0  0  0  0  0  0  0  0  0  0  0
    6.6540   -2.3390   26.0440 N   0  0  0  0  0  0  0  0  0  0  0  0
    6.6690   -2.4500   27.4830 C   0  0  0  0  0  0  0  0  0  0  0  0
    5.8180   -1.3300   28.0750 C   0  0  1  0  0  0  0  0  0  0  0  0
    6.1590   -0.8600   29.3160 C   0  0  0  0  0  0  0  0  0  0  0  0
    7.4890   -0.8560   29.5050 C   0  0  0  0  0  0  0  0  0  0  0  0
    7.9930   -0.4290   30.6430 C   0  0  0  0  0  0  0  0  0  0  0  0
    7.1900    0.0660   31.7740 C   0  0  0  0  0  0  0  0  0  0  0  0
    5.7110    0.0350   31.5000 C   0  0  0  0  0  0  0  0  0  0  0  0
    4.9890   -0.4410   30.2160 C   0  0  0  0  0  0  0  0  0  0  0  0
    5.5720   -0.1760   27.1890 C   0  0  0  0  0  0  0  0  0  0  0  0
    4.6580    0.7200   27.7670 O   0  0  0  0  0  0  0  0  0  0  0  0
    3.3820    0.2470   27.9050 C   0  0  0  0  0  0  0  0  0  0  0  0
    3.3990   -1.2760   27.8800 C   0  0  0  0  0  0  0  0  0  0  0  0
    4.5540   -1.8650   28.1790 O   0  0  0  0  0  0  0  0  0  0  0  0
    6.0750   -5.0380   23.6910 C   0  0  0  0  0  0  0  0  0  0  0  0
    6.6420   -5.3390   22.3210 C   0  0  0  0  0  0  0  0  0  0  0  0
  1  2  1  0
  2  3  2  0
  2  4  1  0
  4  5  1  0
  5  6  1  0
  6  7  1  0
  7  8  1  0
  8  9  2  0
  8 10  1  0
 10 11  1  0
 12 11  1  6
 12 13  1  0
 13 14  2  0
 14 15  1  0
 15 16  2  0
 16 17  1  0
 13 18  1  0
 17 18  2  0
 12 19  1  0
 19 20  1  0
 20 21  1  0
 21 22  1  0
 12 23  1  0
 22 23  1  0
  7 24  1  0
  4 25  1  0
 24 25  1  0
M  END
