piperidine-amides-13506-covalent
     RDKit          3D

 21 22  0  0  0  0  0  0  0  0999 V2000
    7.0490   -3.3180   19.3520 C   0  0  0  0  0  0  0  0  0  0  0  0
    6.3400   -4.1700   20.3480 C   0  0  0  0  0  0  0  0  0  0  0  0
    5.3540   -4.8270   19.9720 O   0  0  0  0  0  0  0  0  0  0  0  0
    6.8160   -4.2580   21.6750 N   0  0  0  0  0  0  0  0  0  0  0  0
    6.6490   -5.4870   22.4180 C   0  0  0  0  0  0  0  0  0  0  0  0
    6.0850   -5.1520   23.8070 C   0  0  0  0  0  0  0  0  0  0  0  0
    6.1350   -3.6760   24.0080 C   0  0  0  0  0  0  0  0  0  0  0  0
    5.7540   -3.2670   25.3840 C   0  0  0  0  0  0  0  0  0  0  0  0
    4.5830   -3.4910   25.7130 O   0  0  0  0  0  0  0  0  0  0  0  0
    6.6940   -2.6690   26.2300 N   0  0  0  0  0  0  0  0  0  0  0  0
    6.5430   -1.4900   27.0240 C   0  0  0  0  0  0  0  0  0  0  0  0
    7.0050   -1.3340   28.3280 C   0  0  0  0  0  0  0  0  0  0  0  0
    6.8360   -0.1490   29.0890 C   0  0  0  0  0  0  0  0  0  0  0  0
    7.5560    0.0080   31.0470 I   0  0  0  0  0  0  0  0  0  0  0  0
    6.1950    0.9440   28.5770 C   0  0  0  0  0  0  0  0  0  0  0  0
    5.6840    0.8550   27.2140 C   0  0  0  0  0  0  0  0  0  0  0  0
    5.8690   -0.4160   26.4140 C   0  0  0  0  0  0  0  0  0  0  0  0
    5.3780   -0.4940   25.1310 O   0  0  0  0  0  0  0  0  0  0  0  0
    4.1430   -1.1140   24.8770 C   0  0  0  0  0  0  0  0  0  0  0  0
    7.5230   -3.1550   23.6420 C   0  0  0  0  0  0  0  0  0  0  0  0
    7.5840   -3.1290   22.1680 C   0  0  0  0  0  0  0  0  0  0  0  0
  1  2  1  0
  2  3  2  0
  2  4  1  0
  4  5  1  0
  5  6  1  0
  6  7  1  0
  7  8  1  0
  8  9  2  0
  8 10  1  0
 10 11  1  0
 11 12  2  0
 12 13  1  0
 13 14  1  0
 13 15  2  0
 15 16  1  0
 11 17  1  0
 16 17  2  0
 17 18  1  0
 18 19  1  0
  7 20  1  0
  4 21  1  0
 20 21  1  0
M  END
