piperidine-amides-27784-covalent
     RDKit          3D

 26 28  0  0  0  0  0  0  0  0999 V2000
    7.0940   -3.3640   19.3600 C   0  0  0  0  0  0  0  0  0  0  0  0
    6.3900   -4.1870   20.3660 C   0  0  0  0  0  0  0  0  0  0  0  0
    5.3760   -4.8030   19.9750 O   0  0  0  0  0  0  0  0  0  0  0  0
    6.8930   -4.2830   21.6740 N   0  0  0  0  0  0  0  0  0  0  0  0
    6.6440   -5.4430   22.4790 C   0  0  0  0  0  0  0  0  0  0  0  0
    6.1450   -5.1060   23.8160 C   0  0  0  0  0  0  0  0  0  0  0  0
    6.2030   -3.6530   24.0820 C   0  0  0  0  0  0  0  0  0  0  0  0
    5.6150   -3.2850   25.4000 C   0  0  0  0  0  0  0  0  0  0  0  0
    4.7750   -2.3710   25.3960 O   0  0  0  0  0  0  0  0  0  0  0  0
    5.9320   -3.9140   26.6150 N   0  0  0  0  0  0  0  0  0  0  0  0
    5.0890   -4.9970   27.1160 C   0  0  0  0  0  0  0  0  0  0  0  0
    5.8190   -5.8240   28.1070 C   0  0  0  0  0  0  0  0  0  0  0  0
    6.3350   -5.1740   29.2770 C   0  0  0  0  0  0  0  0  0  0  0  0
    5.4960   -4.0230   29.4200 N   0  0  0  0  0  0  0  0  0  0  0  0
    4.1700   -4.0430   29.9210 C   0  0  0  0  0  0  0  0  0  0  0  0
    3.4920   -5.2460   29.8950 C   0  0  0  0  0  0  0  0  0  0  0  0
    3.8790   -6.3230   30.6600 C   0  0  0  0  0  0  0  0  0  0  0  0
    3.1950   -7.5240   30.6330 C   0  0  0  0  0  0  0  0  0  0  0  0
    2.0960   -7.6880   29.8360 C   0  0  0  0  0  0  0  0  0  0  0  0
    1.3220   -8.8400   29.7230 C   0  0  0  0  0  0  0  0  0  0  0  0
    1.6720   -6.6520   29.0550 C   0  0  0  0  0  0  0  0  0  0  0  0
    2.3880   -5.3450   29.0610 C   0  0  0  0  0  0  0  0  0  0  0  0
    5.7740   -2.8430   28.6790 C   0  0  0  0  0  0  0  0  0  0  0  0
    6.6150   -3.1910   27.6440 C   0  0  0  0  0  0  0  0  0  0  0  0
    7.4690   -3.0560   23.6770 C   0  0  0  0  0  0  0  0  0  0  0  0
    7.7760   -3.2520   22.2330 C   0  0  0  0  0  0  0  0  0  0  0  0
  1  2  1  0
  2  3  2  0
  2  4  1  0
  4  5  1  0
  5  6  1  0
  6  7  1  0
  7  8  1  0
  8  9  2  0
  8 10  1  0
 10 11  1  0
 11 12  1  0
 12 13  1  0
 13 14  1  0
 14 15  1  0
 15 16  1  0
 16 17  2  0
 17 18  1  0
 18 19  2  0
 19 20  1  0
 19 21  1  0
 16 22  1  0
 21 22  2  0
 14 23  1  0
 10 24  1  0
 23 24  1  0
  7 25  1  0
  4 26  1  0
 25 26  1  0
M  END
