piperidine-amides-24876-covalent
     RDKit          3D

 24 25  0  0  0  0  0  0  0  0999 V2000
    7.0680   -3.3640   19.3660 C   0  0  0  0  0  0  0  0  0  0  0  0
    6.3790   -4.2220   20.3420 C   0  0  0  0  0  0  0  0  0  0  0  0
    5.3710   -4.8750   19.9920 O   0  0  0  0  0  0  0  0  0  0  0  0
    6.8700   -4.3590   21.6480 N   0  0  0  0  0  0  0  0  0  0  0  0
    6.7420   -5.6560   22.2960 C   0  0  0  0  0  0  0  0  0  0  0  0
    6.2400   -5.4090   23.7200 C   0  0  0  0  0  0  0  0  0  0  0  0
    6.0280   -3.9290   23.7730 C   0  0  0  0  0  0  0  0  0  0  0  0
    5.2650   -3.4820   24.9520 C   0  0  0  0  0  0  0  0  0  0  0  0
    4.2560   -2.7890   24.7320 O   0  0  0  0  0  0  0  0  0  0  0  0
    5.5840   -3.7760   26.2900 N   0  0  0  0  0  0  0  0  0  0  0  0
    6.9730   -3.7290   26.6880 C   0  0  0  0  0  0  0  0  0  0  0  0
    7.1930   -4.5250   27.9610 C   0  0  0  0  0  0  0  0  0  0  0  0
    6.5290   -3.7090   28.9180 N   0  0  0  0  0  0  0  0  0  0  0  0
    6.9000   -2.2970   28.9810 C   0  0  0  0  0  0  0  0  0  0  0  0
    8.0590   -2.2030   28.2660 C   0  0  0  0  0  0  0  0  0  0  0  0
    8.3070   -1.1930   27.3470 O   0  0  0  0  0  0  0  0  0  0  0  0
    8.9990   -3.1170   28.4730 N   0  0  0  0  0  0  0  0  0  0  0  0
    8.8970   -4.5550   28.2080 C   0  0  0  0  0  0  0  0  0  0  0  0
    8.5210   -4.9110   26.9380 C   0  0  0  0  0  0  0  0  0  0  0  0
    9.2130   -6.0590   26.2630 C   0  0  0  0  0  0  0  0  0  0  0  0
    5.1890   -3.9580   28.7620 C   0  0  0  0  0  0  0  0  0  0  0  0
    5.0230   -3.1770   27.5050 C   0  0  0  0  0  0  0  0  0  0  0  0
    7.3420   -3.2150   23.6000 C   0  0  0  0  0  0  0  0  0  0  0  0
    7.6930   -3.3120   22.2470 C   0  0  0  0  0  0  0  0  0  0  0  0
  1  2  1  0
  2  3  2  0
  2  4  1  0
  4  5  1  0
  5  6  1  0
  6  7  1  0
  7  8  1  0
  8  9  2  0
  8 10  1  0
 10 11  1  0
 11 12  1  0
 12 13  1  0
 13 14  1  0
 14 15  1  0
 15 16  2  0
 15 17  1  0
 17 18  1  0
 18 19  1  0
 19 20  1  0
 13 21  1  0
 10 22  1  0
 21 22  1  0
  7 23  1  0
  4 24  1  0
 23 24  1  0
M  END
