piperidine-amides-10961-covalent
     RDKit          3D

 21 22  0  0  0  0  0  0  0  0999 V2000
    7.1080   -3.3040   19.2500 C   0  0  0  0  0  0  0  0  0  0  0  0
    6.3240   -4.0200   20.2560 C   0  0  0  0  0  0  0  0  0  0  0  0
    5.2920   -4.6190   19.9100 O   0  0  0  0  0  0  0  0  0  0  0  0
    6.7560   -4.0790   21.5900 N   0  0  0  0  0  0  0  0  0  0  0  0
    7.7170   -3.1160   22.0860 C   0  0  0  0  0  0  0  0  0  0  0  0
    7.4960   -3.0420   23.5590 C   0  0  0  0  0  0  0  0  0  0  0  0
    6.1360   -3.5460   23.8980 C   0  0  0  0  0  0  0  0  0  0  0  0
    5.7630   -3.2450   25.2960 C   0  0  0  0  0  0  0  0  0  0  0  0
    4.6370   -3.5930   25.7600 O   0  0  0  0  0  0  0  0  0  0  0  0
    6.6460   -2.5510   26.1470 N   0  0  0  0  0  0  0  0  0  0  0  0
    6.1370   -1.6350   27.1870 C   0  0  0  0  0  0  0  0  0  0  0  0
    6.0240   -0.2670   26.6180 C   0  0  0  0  0  0  0  0  0  0  0  0
    6.0380   -0.1710   25.2870 N   0  0  0  0  0  0  0  0  0  0  0  0
    5.9420    1.0480   24.5770 C   0  0  0  0  0  0  0  0  0  0  0  0
    5.9640    1.2270   22.7890 Cl  0  0  0  0  0  0  0  0  0  0  0  0
    5.8160    2.2860   25.4400 C   0  0  0  0  0  0  0  0  0  0  0  0
    5.7910    2.2410   26.9680 C   0  0  0  0  0  0  0  0  0  0  0  0
    5.9030    0.8800   27.5600 C   0  0  0  0  0  0  0  0  0  0  0  0
    5.8930    0.5900   29.4460 Br  0  0  0  0  0  0  0  0  0  0  0  0
    6.0700   -5.0220   23.5730 C   0  0  0  0  0  0  0  0  0  0  0  0
    6.5860   -5.3330   22.3000 C   0  0  0  0  0  0  0  0  0  0  0  0
  1  2  1  0
  2  3  2  0
  2  4  1  0
  4  5  1  0
  5  6  1  0
  6  7  1  0
  7  8  1  0
  8  9  2  0
  8 10  1  0
 10 11  1  0
 11 12  1  0
 12 13  2  0
 13 14  1  0
 14 15  1  0
 14 16  2  0
 16 17  1  0
 12 18  1  0
 17 18  2  0
 18 19  1  0
  7 20  1  0
  4 21  1  0
 20 21  1  0
M  END
