piperidine-amides-34367-covalent
     RDKit          3D

 30 33  0  0  0  0  0  0  0  0999 V2000
    7.0730   -3.3260   19.2830 C   0  0  0  0  0  0  0  0  0  0  0  0
    6.3910   -4.1680   20.2730 C   0  0  0  0  0  0  0  0  0  0  0  0
    5.3520   -4.7910   19.9650 O   0  0  0  0  0  0  0  0  0  0  0  0
    6.9350   -4.3330   21.5490 N   0  0  0  0  0  0  0  0  0  0  0  0
    6.6570   -5.5470   22.2700 C   0  0  0  0  0  0  0  0  0  0  0  0
    5.7890   -5.1200   23.4510 C   0  0  0  0  0  0  0  0  0  0  0  0
    6.5300   -3.9890   24.1280 C   0  0  0  0  0  0  0  0  0  0  0  0
    5.6290   -3.3760   25.1170 C   0  0  0  0  0  0  0  0  0  0  0  0
    4.7170   -2.6420   24.6980 O   0  0  0  0  0  0  0  0  0  0  0  0
    5.7690   -3.6140   26.4900 N   0  0  0  0  0  0  0  0  0  0  0  0
    6.4780   -2.6680   27.2520 C   0  0  0  0  0  0  0  0  0  0  0  0
    6.7350   -3.3300   28.5950 C   0  0  0  0  0  0  0  0  0  0  0  0
    5.6300   -3.7970   29.2170 C   0  0  0  0  0  0  0  0  0  0  0  0
    5.6530   -5.1060   29.5190 C   0  0  0  0  0  0  0  0  0  0  0  0
    4.6890   -5.7400   30.3080 N   0  0  0  0  0  0  0  0  0  0  0  0
    4.9080   -7.0660   30.4630 C   0  0  0  0  0  0  0  0  0  0  0  0
    3.9150   -7.6380   31.2330 C   0  0  0  0  0  0  0  0  0  0  0  0
    2.5170   -7.7350   30.6650 C   0  0  0  0  0  0  0  0  0  0  0  0
    1.7180   -8.4090   31.7870 C   0  0  0  0  0  0  0  0  0  0  0  0
    1.9390   -8.9510   33.1870 C   0  0  0  0  0  0  0  0  0  0  0  0
    3.3610   -8.6800   33.3610 C   0  0  0  0  0  0  0  0  0  0  0  0
    4.2720   -8.0950   32.5060 C   0  0  0  0  0  0  0  0  0  0  0  0
    5.4690   -7.9510   32.8290 O   0  0  0  0  0  0  0  0  0  0  0  0
    5.9980   -8.9800   33.6760 C   0  0  0  0  0  0  0  0  0  0  0  0
    5.9850   -7.7060   29.8920 C   0  0  0  0  0  0  0  0  0  0  0  0
    6.7670   -6.3840   29.0590 S   0  0  0  0  0  0  0  0  0  0  0  0
    4.4750   -3.5860   28.5950 C   0  0  0  0  0  0  0  0  0  0  0  0
    4.5750   -4.0340   27.1470 C   0  0  0  0  0  0  0  0  0  0  0  0
    7.0020   -2.8690   23.2610 C   0  0  0  0  0  0  0  0  0  0  0  0
    7.7170   -3.3140   22.2040 C   0  0  0  0  0  0  0  0  0  0  0  0
  1  2  1  0
  2  3  2  0
  2  4  1  0
  4  5  1  0
  5  6  1  0
  6  7  1  0
  7  8  1  0
  8  9  2  0
  8 10  1  0
 10 11  1  0
 11 12  1  0
 12 13  1  0
 13 14  1  0
 14 15  2  0
 15 16  1  0
 16 17  1  0
 17 18  2  0
 18 19  1  0
 19 20  2  0
 20 21  1  0
 17 22  1  0
 21 22  2  0
 22 23  1  0
 23 24  1  0
 16 25  2  0
 14 26  1  0
 25 26  1  0
 13 27  1  0
 10 28  1  0
 27 28  1  0
  7 29  1  0
  4 30  1  0
 29 30  1  0
M  END
