piperidine-amides-542-covalent
     RDKit          3D

 27 29  0  0  0  0  0  0  0  0999 V2000
    7.1300   -3.3060   19.3850 C   0  0  0  0  0  0  0  0  0  0  0  0
    6.4060   -4.1040   20.3510 C   0  0  0  0  0  0  0  0  0  0  0  0
    5.3970   -4.7770   19.9620 O   0  0  0  0  0  0  0  0  0  0  0  0
    6.8070   -4.1820   21.6990 N   0  0  0  0  0  0  0  0  0  0  0  0
    7.6740   -3.0870   22.2130 C   0  0  0  0  0  0  0  0  0  0  0  0
    7.6280   -3.3100   23.7770 C   0  0  0  0  0  0  0  0  0  0  0  0
    6.2370   -3.8110   24.0740 C   0  0  0  0  0  0  0  0  0  0  0  0
    5.8480   -3.7610   25.6130 C   0  0  0  0  0  0  0  0  0  0  0  0
    5.3650   -4.8230   25.9350 O   0  0  0  0  0  0  0  0  0  0  0  0
    6.0930   -2.6360   26.1350 N   0  0  0  0  0  0  0  0  0  0  0  0
    6.1570   -1.4370   26.7640 C   0  0  0  0  0  0  0  0  0  0  0  0
    5.8200   -0.0920   26.6320 C   0  0  0  0  0  0  0  0  0  0  0  0
    6.0510    0.9410   27.5820 C   0  0  0  0  0  0  0  0  0  0  0  0
    6.7010    0.6990   28.8630 C   0  0  0  0  0  0  0  0  0  0  0  0
    6.9320    1.7230   29.8050 N   0  0  0  0  0  0  0  0  0  0  0  0
    6.1610    2.9790   29.7020 C   0  0  0  0  0  0  0  0  0  0  0  0
    5.5210    3.0550   30.9610 C   0  0  0  0  0  0  0  0  0  0  0  0
    6.3620    3.2910   31.9770 N   0  0  0  0  0  0  0  0  0  0  0  0
    6.3750    4.5660   32.6820 C   0  0  0  0  0  0  0  0  0  0  0  0
    5.7980    5.8850   32.1600 C   0  0  0  0  0  0  0  0  0  0  0  0
    6.9430    4.6110   33.9170 O   0  0  0  0  0  0  0  0  0  0  0  0
    7.6060    2.6080   31.8930 C   0  0  0  0  0  0  0  0  0  0  0  0
    7.9250    1.8330   30.8300 C   0  0  0  0  0  0  0  0  0  0  0  0
    7.0730   -0.5700   29.0940 C   0  0  0  0  0  0  0  0  0  0  0  0
    6.8370   -1.5260   28.1720 C   0  0  0  0  0  0  0  0  0  0  0  0
    5.8610   -5.1360   23.4940 C   0  0  0  0  0  0  0  0  0  0  0  0
    6.7080   -5.4040   22.4330 C   0  0  0  0  0  0  0  0  0  0  0  0
  1  2  1  0
  2  3  2  0
  2  4  1  0
  4  5  1  0
  5  6  1  0
  6  7  1  0
  7  8  1  0
  8  9  2  0
  8 10  1  0
 10 11  1  0
 11 12  2  0
 12 13  1  0
 13 14  2  0
 14 15  1  0
 15 16  1  0
 16 17  1  0
 17 18  1  0
 18 19  1  0
 19 20  1  0
 19 21  2  0
 18 22  1  0
 15 23  1  0
 22 23  1  0
 14 24  1  0
 11 25  1  0
 24 25  2  0
  7 26  1  0
  4 27  1  0
 26 27  1  0
M  END
