piperidine-amides-11081-covalent
     RDKit          3D

 20 22  0  0  0  0  0  0  0  0999 V2000
    7.1630   -3.2710   19.1740 C   0  0  0  0  0  0  0  0  0  0  0  0
    6.4040   -4.0070   20.1870 C   0  0  0  0  0  0  0  0  0  0  0  0
    5.3130   -4.5140   19.8750 O   0  0  0  0  0  0  0  0  0  0  0  0
    6.9080   -4.2000   21.4790 N   0  0  0  0  0  0  0  0  0  0  0  0
    6.5300   -5.3300   22.2930 C   0  0  0  0  0  0  0  0  0  0  0  0
    5.7900   -4.7350   23.4680 C   0  0  0  0  0  0  0  0  0  0  0  0
    6.5430   -3.5940   24.1020 C   0  0  0  0  0  0  0  0  0  0  0  0
    5.8170   -2.9270   25.2060 C   0  0  0  0  0  0  0  0  0  0  0  0
    4.5530   -2.8360   25.1850 O   0  0  0  0  0  0  0  0  0  0  0  0
    6.4910   -2.3650   26.3120 N   0  0  0  0  0  0  0  0  0  0  0  0
    6.5340   -3.1090   27.5800 C   0  0  0  0  0  0  0  0  0  0  0  0
    6.0770   -4.4700   27.2600 C   0  0  2  0  0  0  0  0  0  0  0  0
    4.6900   -4.6950   26.8070 C   0  0  0  0  0  0  0  0  0  0  0  0
    6.2660   -5.4240   28.4460 C   0  0  0  0  0  0  0  0  0  0  0  0
    7.6570   -5.9610   28.5040 C   0  0  2  0  0  0  0  0  0  0  0  0
    8.7010   -5.2100   28.1970 C   0  0  0  0  0  0  0  0  0  0  0  0
    8.1460   -5.7120   27.0230 C   0  0  2  0  0  0  0  0  0  0  0  0
    7.1080   -5.1210   26.3570 C   0  0  0  0  0  0  0  0  0  0  0  0
    6.9100   -2.4910   23.1100 C   0  0  0  0  0  0  0  0  0  0  0  0
    7.7560   -3.1790   22.0540 C   0  0  0  0  0  0  0  0  0  0  0  0
  1  2  1  0
  2  3  2  0
  2  4  1  0
  4  5  1  0
  5  6  1  0
  6  7  1  0
  7  8  1  0
  8  9  2  0
  8 10  1  0
 10 11  1  0
 12 11  1  0
 12 13  1  6
 12 14  1  0
 15 14  1  6
 15 16  1  0
 15 17  1  0
 17 16  1  1
 12 18  1  0
 17 18  1  0
  7 19  1  0
  4 20  1  0
 19 20  1  0
M  END
