piperidine-amides-25430-covalent
     RDKit          3D

 20 21  0  0  0  0  0  0  0  0999 V2000
    7.1170   -3.2960   19.3080 C   0  0  0  0  0  0  0  0  0  0  0  0
    6.3310   -4.0640   20.3060 C   0  0  0  0  0  0  0  0  0  0  0  0
    5.2980   -4.6010   19.9060 O   0  0  0  0  0  0  0  0  0  0  0  0
    6.7910   -4.1910   21.6210 N   0  0  0  0  0  0  0  0  0  0  0  0
    6.5940   -5.4020   22.3850 C   0  0  0  0  0  0  0  0  0  0  0  0
    6.0560   -5.0840   23.7570 C   0  0  0  0  0  0  0  0  0  0  0  0
    6.0460   -3.5700   23.9950 C   0  0  0  0  0  0  0  0  0  0  0  0
    5.5770   -3.3240   25.3760 C   0  0  0  0  0  0  0  0  0  0  0  0
    4.3710   -3.4730   25.6140 O   0  0  0  0  0  0  0  0  0  0  0  0
    6.4300   -2.9180   26.4250 N   0  0  0  0  0  0  0  0  0  0  0  0
    6.9170   -1.5590   26.3400 C   0  0  0  0  0  0  0  0  0  0  0  0
    6.2210   -3.4970   27.7190 C   0  0  0  0  0  0  0  0  0  0  0  0
    6.0750   -2.5210   28.6680 C   0  0  0  0  0  0  0  0  0  0  0  0
    4.8510   -2.2380   29.2030 C   0  0  0  0  0  0  0  0  0  0  0  0
    5.0040   -1.2620   30.0830 C   0  0  0  0  0  0  0  0  0  0  0  0
    6.4360   -0.9150   30.0930 C   0  0  0  0  0  0  0  0  0  0  0  0
    7.1550    0.4500   31.2110 Br  0  0  0  0  0  0  0  0  0  0  0  0
    7.0300   -1.7650   29.1660 O   0  0  0  0  0  0  0  0  0  0  0  0
    7.3450   -2.9320   23.6340 C   0  0  0  0  0  0  0  0  0  0  0  0
    7.6360   -3.1500   22.1820 C   0  0  0  0  0  0  0  0  0  0  0  0
  1  2  1  0
  2  3  2  0
  2  4  1  0
  4  5  1  0
  5  6  1  0
  6  7  1  0
  7  8  1  0
  8  9  2  0
  8 10  1  0
 10 11  1  0
 10 12  1  0
 12 13  1  0
 13 14  2  0
 14 15  1  0
 15 16  2  0
 16 17  1  0
 13 18  1  0
 16 18  1  0
  7 19  1  0
  4 20  1  0
 19 20  1  0
M  END
