piperidine-amides-6700-covalent
     RDKit          3D

 23 24  0  0  0  0  0  0  0  0999 V2000
    7.0820   -3.2990   19.2510 C   0  0  0  0  0  0  0  0  0  0  0  0
    6.3820   -4.1050   20.2640 C   0  0  0  0  0  0  0  0  0  0  0  0
    5.3510   -4.7400   19.9540 O   0  0  0  0  0  0  0  0  0  0  0  0
    6.8810   -4.2080   21.5680 N   0  0  0  0  0  0  0  0  0  0  0  0
    7.7120   -3.1340   22.1010 C   0  0  0  0  0  0  0  0  0  0  0  0
    7.4470   -2.9790   23.6040 C   0  0  0  0  0  0  0  0  0  0  0  0
    6.0680   -3.5370   23.8560 C   0  0  0  0  0  0  0  0  0  0  0  0
    5.6530   -3.2360   25.2340 C   0  0  0  0  0  0  0  0  0  0  0  0
    4.4330   -3.1510   25.4870 O   0  0  0  0  0  0  0  0  0  0  0  0
    6.6440   -3.0420   26.2140 N   0  0  0  0  0  0  0  0  0  0  0  0
    6.2900   -2.7980   27.5800 C   0  0  0  0  0  0  0  0  0  0  0  0
    6.3440   -4.0740   28.4020 C   0  0  0  0  0  0  0  0  0  0  0  0
    5.8810   -5.1570   27.6260 O   0  0  0  0  0  0  0  0  0  0  0  0
    4.8000   -5.8920   28.0180 C   0  0  0  0  0  0  0  0  0  0  0  0
    4.9210   -7.0270   28.7030 C   0  0  0  0  0  0  0  0  0  0  0  0
    3.7990   -7.6920   29.0650 C   0  0  0  0  0  0  0  0  0  0  0  0
    2.5430   -7.2450   28.7530 C   0  0  0  0  0  0  0  0  0  0  0  0
    1.2290   -8.2580   29.3190 Cl  0  0  0  0  0  0  0  0  0  0  0  0
    2.1190   -5.9790   27.9770 C   0  0  0  0  0  0  0  0  0  0  0  0
    0.8970   -5.4890   27.6420 F   0  0  0  0  0  0  0  0  0  0  0  0
    3.5430   -5.4410   27.7050 C   0  0  0  0  0  0  0  0  0  0  0  0
    5.9800   -4.9840   23.6140 C   0  0  0  0  0  0  0  0  0  0  0  0
    6.6050   -5.3640   22.3560 C   0  0  0  0  0  0  0  0  0  0  0  0
  1  2  1  0
  2  3  2  0
  2  4  1  0
  4  5  1  0
  5  6  1  0
  6  7  1  0
  7  8  1  0
  8  9  2  0
  8 10  1  0
 10 11  1  0
 11 12  1  0
 12 13  1  0
 13 14  1  0
 14 15  2  0
 15 16  1  0
 16 17  2  0
 17 18  1  0
 17 19  1  0
 19 20  1  0
 14 21  1  0
 19 21  2  0
  7 22  1  0
  4 23  1  0
 22 23  1  0
M  END
