piperidine-amides-30405-covalent
     RDKit          3D

 27 29  0  0  0  0  0  0  0  0999 V2000
    7.0110   -3.3670   19.3760 C   0  0  0  0  0  0  0  0  0  0  0  0
    6.3750   -4.2340   20.3780 C   0  0  0  0  0  0  0  0  0  0  0  0
    5.4250   -4.9470   20.0080 O   0  0  0  0  0  0  0  0  0  0  0  0
    6.8350   -4.2960   21.7140 N   0  0  0  0  0  0  0  0  0  0  0  0
    7.6640   -3.2360   22.2710 C   0  0  0  0  0  0  0  0  0  0  0  0
    7.3510   -3.1440   23.7470 C   0  0  0  0  0  0  0  0  0  0  0  0
    6.0240   -3.7680   24.0600 C   0  0  0  0  0  0  0  0  0  0  0  0
    5.3750   -3.2790   25.3280 C   0  0  0  0  0  0  0  0  0  0  0  0
    4.6950   -2.2210   25.2700 O   0  0  0  0  0  0  0  0  0  0  0  0
    5.4140   -3.8680   26.6220 N   0  0  0  0  0  0  0  0  0  0  0  0
    4.1580   -4.2880   27.2900 C   0  0  0  0  0  0  0  0  0  0  0  0
    4.2840   -4.3940   28.7920 C   0  0  0  0  0  0  0  0  0  0  0  0
    5.4200   -5.0190   29.1000 N   0  0  0  0  0  0  0  0  0  0  0  0
    5.6000   -6.4280   29.1700 C   0  0  0  0  0  0  0  0  0  0  0  0
    4.3470   -7.1190   29.6530 C   0  0  0  0  0  0  0  0  0  0  0  0
    3.4880   -7.0580   28.4720 N   0  0  0  0  0  0  0  0  0  0  0  0
    2.3040   -7.6050   28.6100 O   0  0  0  0  0  0  0  0  0  0  0  0
    2.3800   -8.0220   29.8600 C   0  0  0  0  0  0  0  0  0  0  0  0
    1.1760   -8.7270   30.3710 C   0  0  0  0  0  0  0  0  0  0  0  0
    1.0120   -8.9890   31.7120 C   0  0  0  0  0  0  0  0  0  0  0  0
    0.1000   -7.8630   31.0070 C   0  0  0  0  0  0  0  0  0  0  0  0
    0.6740  -10.1240   30.0070 C   0  0  0  0  0  0  0  0  0  0  0  0
    3.4850   -7.7840   30.5160 N   0  0  0  0  0  0  0  0  0  0  0  0
    6.5720   -4.5620   28.4180 C   0  0  0  0  0  0  0  0  0  0  0  0
    6.4250   -3.3970   27.4760 C   0  0  0  0  0  0  0  0  0  0  0  0
    6.1450   -5.2390   23.8400 C   0  0  0  0  0  0  0  0  0  0  0  0
    6.5710   -5.5170   22.4350 C   0  0  0  0  0  0  0  0  0  0  0  0
  1  2  1  0
  2  3  2  0
  2  4  1  0
  4  5  1  0
  5  6  1  0
  6  7  1  0
  7  8  1  0
  8  9  2  0
  8 10  1  0
 10 11  1  0
 11 12  1  0
 12 13  1  0
 13 14  1  0
 14 15  1  0
 15 16  2  0
 16 17  1  0
 17 18  1  0
 18 19  1  0
 19 20  1  0
 19 21  1  0
 19 22  1  0
 15 23  1  0
 18 23  2  0
 13 24  1  0
 10 25  1  0
 24 25  1  0
  7 26  1  0
  4 27  1  0
 26 27  1  0
M  END
