piperidine-amides-24733-covalent
     RDKit          3D

 24 26  0  0  0  0  0  0  0  0999 V2000
    7.0710   -3.3430   19.3320 C   0  0  0  0  0  0  0  0  0  0  0  0
    6.4050   -4.2110   20.3120 C   0  0  0  0  0  0  0  0  0  0  0  0
    5.3760   -4.8390   19.9840 O   0  0  0  0  0  0  0  0  0  0  0  0
    6.9480   -4.3890   21.5970 N   0  0  0  0  0  0  0  0  0  0  0  0
    6.6270   -5.5840   22.3240 C   0  0  0  0  0  0  0  0  0  0  0  0
    5.8370   -5.0970   23.5400 C   0  0  0  0  0  0  0  0  0  0  0  0
    6.7030   -4.1120   24.3090 C   0  0  0  0  0  0  0  0  0  0  0  0
    5.8680   -3.5450   25.3910 C   0  0  0  0  0  0  0  0  0  0  0  0
    4.7010   -3.2070   25.0910 O   0  0  0  0  0  0  0  0  0  0  0  0
    6.3690   -3.3900   26.7080 N   0  0  0  0  0  0  0  0  0  0  0  0
    7.7280   -3.7770   27.0460 C   0  0  0  0  0  0  0  0  0  0  0  0
    7.5610   -4.8700   28.0420 C   0  0  0  0  0  0  0  0  0  0  0  0
    6.3580   -4.6760   28.5850 C   0  0  0  0  0  0  0  0  0  0  0  0
    5.8640   -3.4900   28.0980 C   0  0  2  0  0  0  0  0  0  0  0  0
    4.4860   -3.2800   27.9730 C   0  0  0  0  0  0  0  0  0  0  0  0
    4.2650   -2.0350   28.4540 N   0  0  0  0  0  0  0  0  0  0  0  0
    3.1250   -1.2820   28.0970 C   0  0  0  0  0  0  0  0  0  0  0  0
    2.1290   -1.0140   29.2370 C   0  0  0  0  0  0  0  0  0  0  0  0
    3.5030   -0.6070   29.8040 C   0  0  0  0  0  0  0  0  0  0  0  0
    4.6040   -1.6350   29.7870 C   0  0  2  0  0  0  0  0  0  0  0  0
    4.9830   -0.2530   30.1180 C   0  0  0  0  0  0  0  0  0  0  0  0
    5.0620    0.0500   31.3430 O   0  0  0  0  0  0  0  0  0  0  0  0
    7.1290   -2.9560   23.4370 C   0  0  0  0  0  0  0  0  0  0  0  0
    7.6440   -3.3170   22.2250 C   0  0  0  0  0  0  0  0  0  0  0  0
  1  2  1  0
  2  3  2  0
  2  4  1  0
  4  5  1  0
  5  6  1  0
  6  7  1  0
  7  8  1  0
  8  9  2  0
  8 10  1  0
 10 11  1  0
 11 12  1  0
 12 13  1  0
 10 14  1  0
 13 14  1  0
 14 15  1  6
 15 16  1  0
 16 17  1  0
 17 18  1  0
 18 19  1  0
 16 20  1  0
 19 20  1  0
 20 21  1  6
 21 22  1  0
  7 23  1  0
  4 24  1  0
 23 24  1  0
M  END
