piperidine-amides-29930-covalent
     RDKit          3D

 27 29  0  0  0  0  0  0  0  0999 V2000
    7.0600   -3.3270   19.2640 C   0  0  0  0  0  0  0  0  0  0  0  0
    6.3480   -4.1230   20.2570 C   0  0  0  0  0  0  0  0  0  0  0  0
    5.3170   -4.7150   19.9420 O   0  0  0  0  0  0  0  0  0  0  0  0
    6.8740   -4.2640   21.5830 N   0  0  0  0  0  0  0  0  0  0  0  0
    7.7120   -3.2240   22.1380 C   0  0  0  0  0  0  0  0  0  0  0  0
    7.1310   -2.7000   23.4120 C   0  0  0  0  0  0  0  0  0  0  0  0
    6.8030   -3.8830   24.2960 C   0  0  0  0  0  0  0  0  0  0  0  0
    6.0920   -3.4010   25.5070 C   0  0  0  0  0  0  0  0  0  0  0  0
    4.8470   -3.2940   25.5580 O   0  0  0  0  0  0  0  0  0  0  0  0
    6.8840   -3.0450   26.6290 N   0  0  0  0  0  0  0  0  0  0  0  0
    7.5170   -4.1050   27.3950 C   0  0  0  0  0  0  0  0  0  0  0  0
    8.2870   -4.9850   26.4460 C   0  0  0  0  0  0  0  0  0  0  0  0
    9.2160   -5.8680   26.9380 C   0  0  0  0  0  0  0  0  0  0  0  0
    6.3950   -1.9150   27.4800 C   0  0  0  0  0  0  0  0  0  0  0  0
    6.0440   -0.7990   26.6900 C   0  0  0  0  0  0  0  0  0  0  0  0
    5.6420    0.5460   27.2340 C   0  0  0  0  0  0  0  0  0  0  0  0
    6.1440    0.8780   28.4580 N   0  0  0  0  0  0  0  0  0  0  0  0
    5.6240    1.8350   29.4080 C   0  0  0  0  0  0  0  0  0  0  0  0
    5.9180    1.6060   30.7280 C   0  0  0  0  0  0  0  0  0  0  0  0
    5.4430    2.4980   31.6970 C   0  0  0  0  0  0  0  0  0  0  0  0
    4.7010    3.5830   31.3760 N   0  0  0  0  0  0  0  0  0  0  0  0
    4.3760    3.8440   29.9550 C   0  0  0  0  0  0  0  0  0  0  0  0
    4.8720    2.9300   29.0480 C   0  0  0  0  0  0  0  0  0  0  0  0
    6.8460   -0.2420   28.9310 C   0  0  0  0  0  0  0  0  0  0  0  0
    7.1020   -1.6310   28.6060 C   0  0  0  0  0  0  0  0  0  0  0  0
    5.9250   -4.9200   23.6590 C   0  0  0  0  0  0  0  0  0  0  0  0
    6.5390   -5.4110   22.3690 C   0  0  0  0  0  0  0  0  0  0  0  0
  1  2  1  0
  2  3  2  0
  2  4  1  0
  4  5  1  0
  5  6  1  0
  6  7  1  0
  7  8  1  0
  8  9  2  0
  8 10  1  0
 10 11  1  0
 11 12  1  0
 12 13  1  0
 10 14  1  0
 14 15  1  0
 15 16  1  0
 16 17  1  0
 17 18  1  0
 18 19  2  0
 19 20  1  0
 20 21  2  0
 21 22  1  0
 18 23  1  0
 22 23  2  0
 17 24  1  0
 14 25  1  0
 24 25  1  0
  7 26  1  0
  4 27  1  0
 26 27  1  0
M  END
