piperidine-amides-13056-covalent
     RDKit          3D

 20 20  0  0  0  0  0  0  0  0999 V2000
    7.1050   -3.2770   19.1480 C   0  0  0  0  0  0  0  0  0  0  0  0
    6.3580   -4.0040   20.1970 C   0  0  0  0  0  0  0  0  0  0  0  0
    5.2640   -4.4980   19.8620 O   0  0  0  0  0  0  0  0  0  0  0  0
    6.8910   -4.1760   21.4790 N   0  0  0  0  0  0  0  0  0  0  0  0
    7.6330   -3.1250   22.0960 C   0  0  0  0  0  0  0  0  0  0  0  0
    7.2290   -2.7940   23.4610 C   0  0  0  0  0  0  0  0  0  0  0  0
    6.4930   -3.8360   24.2180 C   0  0  0  0  0  0  0  0  0  0  0  0
    5.5750   -3.1720   25.1750 C   0  0  0  0  0  0  0  0  0  0  0  0
    4.4280   -2.8840   24.7880 O   0  0  0  0  0  0  0  0  0  0  0  0
    5.9570   -2.8700   26.4890 N   0  0  0  0  0  0  0  0  0  0  0  0
    5.6310   -3.7820   27.6010 C   0  0  0  0  0  0  0  0  0  0  0  0
    6.8240   -4.5140   28.0380 C   0  0  1  0  0  0  0  0  0  0  0  0
    7.0720   -5.6250   27.5410 O   0  0  0  0  0  0  0  0  0  0  0  0
    8.0940   -6.2040   28.0710 C   0  0  0  0  0  0  0  0  0  0  0  0
    8.0830   -3.8280   28.0030 C   0  0  2  0  0  0  0  0  0  0  0  0
    8.0680   -2.4660   28.2200 C   0  0  0  0  0  0  0  0  0  0  0  0
    8.1540   -4.1250   26.5280 C   0  0  0  0  0  0  0  0  0  0  0  0
    9.0280   -5.0940   26.0860 C   0  0  0  0  0  0  0  0  0  0  0  0
    5.8160   -4.8980   23.4200 C   0  0  0  0  0  0  0  0  0  0  0  0
    6.4980   -5.2980   22.2790 C   0  0  0  0  0  0  0  0  0  0  0  0
  1  2  1  0
  2  3  2  0
  2  4  1  0
  4  5  1  0
  5  6  1  0
  6  7  1  0
  7  8  1  0
  8  9  2  0
  8 10  1  0
 10 11  1  0
 12 11  1  6
 12 13  1  0
 13 14  1  0
 12 15  1  0
 15 16  1  6
 15 17  1  0
 17 18  1  0
  7 19  1  0
  4 20  1  0
 19 20  1  0
M  END
