piperidine-amides-4134-covalent
     RDKit          3D

 27 29  0  0  0  0  0  0  0  0999 V2000
    7.0570   -3.3450   19.2910 C   0  0  0  0  0  0  0  0  0  0  0  0
    6.4000   -4.1730   20.3160 C   0  0  0  0  0  0  0  0  0  0  0  0
    5.3520   -4.7670   19.9650 O   0  0  0  0  0  0  0  0  0  0  0  0
    6.9550   -4.3480   21.6160 N   0  0  0  0  0  0  0  0  0  0  0  0
    7.6600   -3.2500   22.2030 C   0  0  0  0  0  0  0  0  0  0  0  0
    7.2840   -2.9730   23.5800 C   0  0  0  0  0  0  0  0  0  0  0  0
    6.0530   -3.6620   23.9910 C   0  0  0  0  0  0  0  0  0  0  0  0
    5.6300   -3.2590   25.3690 C   0  0  0  0  0  0  0  0  0  0  0  0
    4.4640   -3.4880   25.7300 O   0  0  0  0  0  0  0  0  0  0  0  0
    6.5090   -2.6080   26.2540 N   0  0  0  0  0  0  0  0  0  0  0  0
    6.1920   -1.6810   27.2780 C   0  0  0  0  0  0  0  0  0  0  0  0
    7.1560   -1.4700   28.3540 C   0  0  0  0  0  0  0  0  0  0  0  0
    6.6100   -0.5680   29.4790 C   0  0  0  0  0  0  0  0  0  0  0  0
    5.6990    0.4090   28.8640 N   0  0  0  0  0  0  0  0  0  0  0  0
    5.4720    1.4800   29.7870 C   0  0  0  0  0  0  0  0  0  0  0  0
    5.3000    0.8150   31.1580 C   0  0  0  0  0  0  0  0  0  0  0  0
    3.9270    0.2430   31.1300 C   0  0  0  0  0  0  0  0  0  0  0  0
    3.7580   -0.4310   32.5150 C   0  0  0  0  0  0  0  0  0  0  0  0
    4.6820   -0.5610   33.7230 C   0  0  0  0  0  0  0  0  0  0  0  0
    4.1720   -1.4040   35.1680 Cl  0  0  0  0  0  0  0  0  0  0  0  0
    6.0540    0.0880   33.5740 C   0  0  0  0  0  0  0  0  0  0  0  0
    7.2100    0.0100   34.8840 Cl  0  0  0  0  0  0  0  0  0  0  0  0
    6.3240    0.7800   32.2430 C   0  0  0  0  0  0  0  0  0  0  0  0
    5.8170    0.6800   27.5630 C   0  0  0  0  0  0  0  0  0  0  0  0
    5.8930   -0.3730   26.6700 C   0  0  0  0  0  0  0  0  0  0  0  0
    6.0830   -5.1340   23.7650 C   0  0  0  0  0  0  0  0  0  0  0  0
    6.6050   -5.5110   22.3920 C   0  0  0  0  0  0  0  0  0  0  0  0
  1  2  1  0
  2  3  2  0
  2  4  1  0
  4  5  1  0
  5  6  1  0
  6  7  1  0
  7  8  1  0
  8  9  2  0
  8 10  1  0
 10 11  1  0
 11 12  1  0
 12 13  1  0
 13 14  1  0
 14 15  1  0
 15 16  1  0
 16 17  2  0
 17 18  1  0
 18 19  2  0
 19 20  1  0
 19 21  1  0
 21 22  1  0
 16 23  1  0
 21 23  2  0
 14 24  1  0
 11 25  1  0
 24 25  1  0
  7 26  1  0
  4 27  1  0
 26 27  1  0
M  END
