piperidine-amides-14189-covalent
     RDKit          3D

 24 25  0  0  0  0  0  0  0  0999 V2000
    7.1600   -3.2870   19.2150 C   0  0  0  0  0  0  0  0  0  0  0  0
    6.3460   -4.0170   20.2210 C   0  0  0  0  0  0  0  0  0  0  0  0
    5.2720   -4.5340   19.8800 O   0  0  0  0  0  0  0  0  0  0  0  0
    6.8570   -4.1490   21.5280 N   0  0  0  0  0  0  0  0  0  0  0  0
    7.7510   -3.1670   22.0940 C   0  0  0  0  0  0  0  0  0  0  0  0
    7.0450   -2.5990   23.3160 C   0  0  0  0  0  0  0  0  0  0  0  0
    6.5580   -3.7650   24.0950 C   0  0  0  0  0  0  0  0  0  0  0  0
    5.7780   -3.3250   25.2640 C   0  0  0  0  0  0  0  0  0  0  0  0
    4.5690   -3.1370   25.0810 O   0  0  0  0  0  0  0  0  0  0  0  0
    6.4030   -3.1420   26.4940 N   0  0  0  0  0  0  0  0  0  0  0  0
    5.9400   -3.6290   27.7320 C   0  0  1  0  0  0  0  0  0  0  0  0
    6.5070   -4.6760   28.4280 C   0  0  0  0  0  0  0  0  0  0  0  0
    5.4840   -5.1230   29.3460 O   0  0  0  0  0  0  0  0  0  0  0  0
    5.8400   -2.4270   28.6840 C   0  0  0  0  0  0  0  0  0  0  0  0
    6.9640   -1.8950   29.2590 C   0  0  0  0  0  0  0  0  0  0  0  0
    6.9670   -0.7460   30.1830 C   0  0  0  0  0  0  0  0  0  0  0  0
    5.6870   -0.0280   30.5900 C   0  0  0  0  0  0  0  0  0  0  0  0
    5.5410    1.3550   31.6840 Cl  0  0  0  0  0  0  0  0  0  0  0  0
    4.5340   -0.7350   29.8670 C   0  0  0  0  0  0  0  0  0  0  0  0
    4.6400   -1.8230   29.0060 C   0  0  0  0  0  0  0  0  0  0  0  0
    3.4910   -2.3300   28.4390 O   0  0  0  0  0  0  0  0  0  0  0  0
    2.9840   -1.9450   27.1900 C   0  0  0  0  0  0  0  0  0  0  0  0
    5.7400   -4.7720   23.3410 C   0  0  0  0  0  0  0  0  0  0  0  0
    6.5230   -5.2780   22.3380 C   0  0  0  0  0  0  0  0  0  0  0  0
  1  2  1  0
  2  3  2  0
  2  4  1  0
  4  5  1  0
  5  6  1  0
  6  7  1  0
  7  8  1  0
  8  9  2  0
  8 10  1  0
 10 11  1  0
 11 12  1  1
 12 13  1  0
 11 14  1  0
 14 15  2  0
 15 16  1  0
 16 17  2  0
 17 18  1  0
 17 19  1  0
 14 20  1  0
 19 20  2  0
 20 21  1  0
 21 22  1  0
  7 23  1  0
  4 24  1  0
 23 24  1  0
M  END
