piperidine-amides-27902-covalent
     RDKit          3D

 26 28  0  0  0  0  0  0  0  0999 V2000
    6.9620   -3.4010   19.3990 C   0  0  0  0  0  0  0  0  0  0  0  0
    6.3580   -4.2860   20.4310 C   0  0  0  0  0  0  0  0  0  0  0  0
    5.4280   -5.0090   20.0180 O   0  0  0  0  0  0  0  0  0  0  0  0
    6.8320   -4.3140   21.7670 N   0  0  0  0  0  0  0  0  0  0  0  0
    6.5930   -5.4580   22.6110 C   0  0  0  0  0  0  0  0  0  0  0  0
    6.2020   -5.1330   24.0050 C   0  0  0  0  0  0  0  0  0  0  0  0
    6.3560   -3.7030   24.3220 C   0  0  0  0  0  0  0  0  0  0  0  0
    6.1920   -3.2340   25.7590 C   0  0  0  0  0  0  0  0  0  0  0  0
    6.3600   -2.0250   25.9070 O   0  0  0  0  0  0  0  0  0  0  0  0
    5.7880   -3.9620   26.9240 N   0  0  0  0  0  0  0  0  0  0  0  0
    4.5320   -3.5190   27.4950 C   0  0  0  0  0  0  0  0  0  0  0  0
    4.5390   -4.0450   28.8820 C   0  0  0  0  0  0  0  0  0  0  0  0
    4.4960   -5.4910   28.9910 C   0  0  0  0  0  0  0  0  0  0  0  0
    5.7050   -6.0610   29.4820 N   0  0  0  0  0  0  0  0  0  0  0  0
    5.6730   -7.3000   30.1800 C   0  0  0  0  0  0  0  0  0  0  0  0
    6.4080   -8.2160   29.7890 O   0  0  0  0  0  0  0  0  0  0  0  0
    4.7920   -7.4360   31.2300 C   0  0  0  0  0  0  0  0  0  0  0  0
    5.1190   -7.1660   32.5110 C   0  0  0  0  0  0  0  0  0  0  0  0
    4.2260   -7.3130   33.5340 C   0  0  0  0  0  0  0  0  0  0  0  0
    2.9530   -7.7390   33.3230 N   0  0  0  0  0  0  0  0  0  0  0  0
    2.6040   -8.0160   32.0420 C   0  0  0  0  0  0  0  0  0  0  0  0
    3.5180   -7.8650   31.0020 C   0  0  0  0  0  0  0  0  0  0  0  0
    6.6720   -5.7190   28.4230 C   0  0  0  0  0  0  0  0  0  0  0  0
    6.4840   -4.2320   28.1300 C   0  0  0  0  0  0  0  0  0  0  0  0
    7.6700   -3.2140   23.6990 C   0  0  0  0  0  0  0  0  0  0  0  0
    7.6820   -3.2440   22.2840 C   0  0  0  0  0  0  0  0  0  0  0  0
  1  2  1  0
  2  3  2  0
  2  4  1  0
  4  5  1  0
  5  6  1  0
  6  7  1  0
  7  8  1  0
  8  9  2  0
  8 10  1  0
 10 11  1  0
 11 12  1  0
 12 13  1  0
 13 14  1  0
 14 15  1  0
 15 16  2  0
 15 17  1  0
 17 18  2  0
 18 19  1  0
 19 20  2  0
 20 21  1  0
 17 22  1  0
 21 22  2  0
 14 23  1  0
 10 24  1  0
 23 24  1  0
  7 25  1  0
  4 26  1  0
 25 26  1  0
M  END
