piperidine-amides-19749-covalent
     RDKit          3D

 22 25  0  0  0  0  0  0  0  0999 V2000
    7.0610   -3.3340   19.3530 C   0  0  0  0  0  0  0  0  0  0  0  0
    6.3860   -4.2110   20.3400 C   0  0  0  0  0  0  0  0  0  0  0  0
    5.3700   -4.7930   19.9670 O   0  0  0  0  0  0  0  0  0  0  0  0
    6.9290   -4.3900   21.6190 N   0  0  0  0  0  0  0  0  0  0  0  0
    6.6090   -5.5610   22.3800 C   0  0  0  0  0  0  0  0  0  0  0  0
    5.7940   -5.1380   23.5700 C   0  0  0  0  0  0  0  0  0  0  0  0
    6.5150   -4.0200   24.3270 C   0  0  0  0  0  0  0  0  0  0  0  0
    5.6680   -3.7070   25.5240 C   0  0  0  0  0  0  0  0  0  0  0  0
    4.4640   -3.5110   25.3120 O   0  0  0  0  0  0  0  0  0  0  0  0
    6.1200   -3.5830   26.8820 N   0  0  0  0  0  0  0  0  0  0  0  0
    5.8280   -2.3130   27.4640 C   0  0  0  0  0  0  0  0  0  0  0  0
    4.9930   -2.6270   28.6690 C   0  0  0  0  0  0  0  0  0  0  0  0
    5.3230   -3.6590   29.4370 C   0  0  0  0  0  0  0  0  0  0  0  0
    5.5460   -4.7850   28.7920 C   0  0  1  0  0  0  0  0  0  0  0  0
    6.4960   -4.5600   27.8770 C   0  0  0  0  0  0  0  0  0  0  0  0
    6.1460   -5.6200   29.7290 O   0  0  0  0  0  0  0  0  0  0  0  0
    6.2000   -6.8610   29.1940 C   0  0  0  0  0  0  0  0  0  0  0  0
    5.1050   -6.8560   28.1910 C   0  0  1  0  0  0  0  0  0  0  0  0
    3.9210   -6.7770   28.8920 C   0  0  0  0  0  0  0  0  0  0  0  0
    4.4560   -5.4620   28.2770 C   0  0  1  0  0  0  0  0  0  0  0  0
    6.8140   -2.8320   23.4570 C   0  0  0  0  0  0  0  0  0  0  0  0
    7.6400   -3.3130   22.2730 C   0  0  0  0  0  0  0  0  0  0  0  0
  1  2  1  0
  2  3  2  0
  2  4  1  0
  4  5  1  0
  5  6  1  0
  6  7  1  0
  7  8  1  0
  8  9  2  0
  8 10  1  0
 10 11  1  0
 11 12  1  0
 12 13  1  0
 14 13  1  1
 10 15  1  0
 14 15  1  0
 14 16  1  0
 16 17  1  0
 18 17  1  1
 18 19  1  0
 14 20  1  0
 18 20  1  0
 20 19  1  1
  7 21  1  0
  4 22  1  0
 21 22  1  0
M  END
