piperidine-amides-28958-covalent
     RDKit          3D

 26 28  0  0  0  0  0  0  0  0999 V2000
    7.0100   -3.3550   19.3820 C   0  0  0  0  0  0  0  0  0  0  0  0
    6.3770   -4.2200   20.3810 C   0  0  0  0  0  0  0  0  0  0  0  0
    5.4250   -4.9260   20.0010 O   0  0  0  0  0  0  0  0  0  0  0  0
    6.8650   -4.2680   21.7250 N   0  0  0  0  0  0  0  0  0  0  0  0
    6.6350   -5.4760   22.4890 C   0  0  0  0  0  0  0  0  0  0  0  0
    6.1870   -5.1770   23.9090 C   0  0  0  0  0  0  0  0  0  0  0  0
    6.1760   -3.6760   24.0750 C   0  0  0  0  0  0  0  0  0  0  0  0
    5.7100   -3.1730   25.4270 C   0  0  0  0  0  0  0  0  0  0  0  0
    5.2210   -2.0550   25.4110 O   0  0  0  0  0  0  0  0  0  0  0  0
    5.7980   -3.9460   26.5870 N   0  0  0  0  0  0  0  0  0  0  0  0
    4.6850   -4.6760   26.9930 C   0  0  0  0  0  0  0  0  0  0  0  0
    4.8930   -5.4430   28.1510 C   0  0  0  0  0  0  0  0  0  0  0  0
    5.4450   -4.8930   29.2830 C   0  0  0  0  0  0  0  0  0  0  0  0
    5.5030   -5.8720   30.3190 N   0  0  0  0  0  0  0  0  0  0  0  0
    4.2500   -5.9520   30.9750 C   0  0  0  0  0  0  0  0  0  0  0  0
    3.1520   -5.2210   30.5370 O   0  0  0  0  0  0  0  0  0  0  0  0
    4.0860   -6.8380   32.1760 C   0  0  0  0  0  0  0  0  0  0  0  0
    3.0380   -7.9450   31.9200 C   0  0  0  0  0  0  0  0  0  0  0  0
    3.0810   -8.8290   33.1120 C   0  0  0  0  0  0  0  0  0  0  0  0
    2.9820   -8.1510   34.3060 O   0  0  0  0  0  0  0  0  0  0  0  0
    3.8440   -7.0660   34.5680 C   0  0  0  0  0  0  0  0  0  0  0  0
    3.7680   -6.1020   33.3600 C   0  0  0  0  0  0  0  0  0  0  0  0
    6.6770   -4.5830   28.4850 C   0  0  0  0  0  0  0  0  0  0  0  0
    6.3910   -3.4350   27.7540 C   0  0  0  0  0  0  0  0  0  0  0  0
    7.4860   -3.0840   23.7220 C   0  0  0  0  0  0  0  0  0  0  0  0
    7.7130   -3.2210   22.2490 C   0  0  0  0  0  0  0  0  0  0  0  0
  1  2  1  0
  2  3  2  0
  2  4  1  0
  4  5  1  0
  5  6  1  0
  6  7  1  0
  7  8  1  0
  8  9  2  0
  8 10  1  0
 10 11  1  0
 11 12  1  0
 12 13  1  0
 13 14  1  0
 14 15  1  0
 15 16  2  0
 15 17  1  0
 17 18  1  0
 18 19  1  0
 19 20  1  0
 20 21  1  0
 17 22  1  0
 21 22  1  0
 13 23  1  0
 10 24  1  0
 23 24  1  0
  7 25  1  0
  4 26  1  0
 25 26  1  0
M  END
