piperidine-amides-10301-covalent
     RDKit          3D

 24 26  0  0  0  0  0  0  0  0999 V2000
    7.0770   -3.2840   19.2660 C   0  0  0  0  0  0  0  0  0  0  0  0
    6.3480   -4.0570   20.2790 C   0  0  0  0  0  0  0  0  0  0  0  0
    5.2770   -4.5960   19.9010 O   0  0  0  0  0  0  0  0  0  0  0  0
    6.8610   -4.2140   21.5730 N   0  0  0  0  0  0  0  0  0  0  0  0
    7.7050   -3.2130   22.1890 C   0  0  0  0  0  0  0  0  0  0  0  0
    7.2310   -3.0020   23.5980 C   0  0  0  0  0  0  0  0  0  0  0  0
    5.8940   -3.6650   23.7980 C   0  0  0  0  0  0  0  0  0  0  0  0
    5.2880   -3.3470   25.1120 C   0  0  0  0  0  0  0  0  0  0  0  0
    4.2480   -2.6580   25.1070 O   0  0  0  0  0  0  0  0  0  0  0  0
    5.7910   -3.7630   26.3570 N   0  0  0  0  0  0  0  0  0  0  0  0
    6.2560   -2.7820   27.2870 C   0  0  0  0  0  0  0  0  0  0  0  0
    5.2330   -2.5940   28.4070 C   0  0  0  0  0  0  0  0  0  0  0  0
    4.2020   -3.6010   28.6590 N   0  0  0  0  0  0  0  0  0  0  0  0
    3.5280   -3.1050   29.6630 O   0  0  0  0  0  0  0  0  0  0  0  0
    4.0520   -1.8740   30.0550 C   0  0  0  0  0  0  0  0  0  0  0  0
    3.5560   -1.1050   31.0880 C   0  0  0  0  0  0  0  0  0  0  0  0
    3.2820   -1.7340   32.2550 F   0  0  0  0  0  0  0  0  0  0  0  0
    4.4940   -0.0950   31.3540 F   0  0  0  0  0  0  0  0  0  0  0  0
    5.1150   -1.5090   29.3080 N   0  0  0  0  0  0  0  0  0  0  0  0
    7.6460   -3.1940   27.6640 C   0  0  0  0  0  0  0  0  0  0  0  0
    8.0930   -2.0110   27.1770 C   0  0  0  0  0  0  0  0  0  0  0  0
    6.8380   -1.5960   26.8800 C   0  0  0  0  0  0  0  0  0  0  0  0
    6.0160   -5.1810   23.6420 C   0  0  0  0  0  0  0  0  0  0  0  0
    6.6320   -5.4580   22.2680 C   0  0  0  0  0  0  0  0  0  0  0  0
  1  2  1  0
  2  3  2  0
  2  4  1  0
  4  5  1  0
  5  6  1  0
  6  7  1  0
  7  8  1  0
  8  9  2  0
  8 10  1  0
 11 10  1  0
 11 12  1  0
 12 13  2  0
 13 14  1  0
 14 15  1  0
 15 16  1  0
 16 17  1  0
 16 18  1  0
 12 19  1  0
 15 19  2  0
 11 20  1  0
 20 21  1  0
 11 22  1  0
 21 22  1  0
  7 23  1  0
  4 24  1  0
 23 24  1  0
M  END
