piperidine-amides-5346-covalent
     RDKit          3D

 21 22  0  0  0  0  0  0  0  0999 V2000
    7.0750   -3.3380   19.3220 C   0  0  0  0  0  0  0  0  0  0  0  0
    6.4090   -4.1890   20.3330 C   0  0  0  0  0  0  0  0  0  0  0  0
    5.3760   -4.7860   19.9690 O   0  0  0  0  0  0  0  0  0  0  0  0
    6.9630   -4.3430   21.6180 N   0  0  0  0  0  0  0  0  0  0  0  0
    6.6140   -5.4670   22.4270 C   0  0  0  0  0  0  0  0  0  0  0  0
    6.0750   -5.0810   23.7310 C   0  0  0  0  0  0  0  0  0  0  0  0
    6.1440   -3.6290   23.9790 C   0  0  0  0  0  0  0  0  0  0  0  0
    5.7460   -3.3030   25.3640 C   0  0  0  0  0  0  0  0  0  0  0  0
    4.6010   -3.6350   25.7280 O   0  0  0  0  0  0  0  0  0  0  0  0
    6.5970   -2.6200   26.2460 N   0  0  0  0  0  0  0  0  0  0  0  0
    6.0410   -1.6620   27.2220 C   0  0  2  0  0  0  0  0  0  0  0  0
    5.8100   -0.3040   26.6780 C   0  0  0  0  0  0  0  0  0  0  0  0
    6.1750    0.7480   27.6320 C   0  0  0  0  0  0  0  0  0  0  0  0
    6.8790    0.0330   28.6940 N   0  0  0  0  0  0  0  0  0  0  0  0
    7.0390    0.4070   30.0520 C   0  0  0  0  0  0  0  0  0  0  0  0
    6.9820    1.7560   30.3430 C   0  0  0  0  0  0  0  0  0  0  0  0
    6.0610   -0.2220   30.9710 C   0  0  0  0  0  0  0  0  0  0  0  0
    6.8320   -1.3640   28.4150 C   0  0  0  0  0  0  0  0  0  0  0  0
    7.3550   -2.2900   29.0450 O   0  0  0  0  0  0  0  0  0  0  0  0
    7.4060   -2.9900   23.5460 C   0  0  0  0  0  0  0  0  0  0  0  0
    7.7080   -3.2500   22.2110 C   0  0  0  0  0  0  0  0  0  0  0  0
  1  2  1  0
  2  3  2  0
  2  4  1  0
  4  5  1  0
  5  6  1  0
  6  7  1  0
  7  8  1  0
  8  9  2  0
  8 10  1  0
 11 10  1  6
 11 12  1  0
 12 13  1  0
 13 14  1  0
 14 15  1  0
 15 16  1  0
 15 17  1  0
 11 18  1  0
 14 18  1  0
 18 19  2  0
  7 20  1  0
  4 21  1  0
 20 21  1  0
M  END
