piperidine-amides-33985-covalent
     RDKit          3D

 30 32  0  0  0  0  0  0  0  0999 V2000
    7.0070   -3.3460   19.4040 C   0  0  0  0  0  0  0  0  0  0  0  0
    6.3580   -4.2350   20.3880 C   0  0  0  0  0  0  0  0  0  0  0  0
    5.4280   -4.9840   20.0110 O   0  0  0  0  0  0  0  0  0  0  0  0
    6.7890   -4.2700   21.7320 N   0  0  0  0  0  0  0  0  0  0  0  0
    6.6380   -5.5170   22.4820 C   0  0  0  0  0  0  0  0  0  0  0  0
    6.0610   -5.2080   23.8880 C   0  0  0  0  0  0  0  0  0  0  0  0
    6.0260   -3.7040   24.0100 C   0  0  0  0  0  0  0  0  0  0  0  0
    5.4450   -3.1510   25.2770 C   0  0  0  0  0  0  0  0  0  0  0  0
    4.9470   -2.0170   25.1900 O   0  0  0  0  0  0  0  0  0  0  0  0
    5.3950   -3.8160   26.5390 N   0  0  0  0  0  0  0  0  0  0  0  0
    4.1370   -3.9350   27.2070 C   0  0  0  0  0  0  0  0  0  0  0  0
    4.3610   -4.2880   28.6830 C   0  0  0  0  0  0  0  0  0  0  0  0
    5.3180   -5.3680   28.7840 N   0  0  0  0  0  0  0  0  0  0  0  0
    5.2060   -6.5630   29.6120 C   0  0  0  0  0  0  0  0  0  0  0  0
    4.1190   -6.3610   30.4270 C   0  0  0  0  0  0  0  0  0  0  0  0
    4.2820   -6.5930   31.7310 N   0  0  0  0  0  0  0  0  0  0  0  0
    6.3780   -7.0580   30.0540 C   0  0  0  0  0  0  0  0  0  0  0  0
    6.1370   -8.3630   29.7400 N   0  0  0  0  0  0  0  0  0  0  0  0
    7.1680   -9.3740   29.9420 C   0  0  0  0  0  0  0  0  0  0  0  0
    7.8900   -9.9430   29.0020 O   0  0  0  0  0  0  0  0  0  0  0  0
    7.4630   -9.9310   31.1960 O   0  0  0  0  0  0  0  0  0  0  0  0
    8.3400  -11.0850   31.3620 C   0  0  0  0  0  0  0  0  0  0  0  0
    9.1330  -11.4580   30.1250 C   0  0  0  0  0  0  0  0  0  0  0  0
    8.8750  -11.4960   32.6700 C   0  0  0  0  0  0  0  0  0  0  0  0
    7.9660  -12.2210   32.1470 C   0  0  0  0  0  0  0  0  0  0  0  0
    5.0570   -7.8780   28.8970 C   0  0  0  0  0  0  0  0  0  0  0  0
    6.5890   -4.9480   28.3160 C   0  0  0  0  0  0  0  0  0  0  0  0
    6.3710   -3.7000   27.4980 C   0  0  0  0  0  0  0  0  0  0  0  0
    7.3750   -3.0890   23.7370 C   0  0  0  0  0  0  0  0  0  0  0  0
    7.6360   -3.2020   22.2320 C   0  0  0  0  0  0  0  0  0  0  0  0
  1  2  1  0
  2  3  2  0
  2  4  1  0
  4  5  1  0
  5  6  1  0
  6  7  1  0
  7  8  1  0
  8  9  2  0
  8 10  1  0
 10 11  1  0
 11 12  1  0
 12 13  1  0
 13 14  1  0
 14 15  1  0
 15 16  3  0
 14 17  1  0
 17 18  1  0
 18 19  1  0
 19 20  2  0
 19 21  1  0
 22 21  1  0
 22 23  1  0
 22 24  1  0
 22 25  1  0
 14 26  1  0
 18 26  1  0
 13 27  1  0
 10 28  1  0
 27 28  1  0
  7 29  1  0
  4 30  1  0
 29 30  1  0
M  END
