piperidine-amides-12094-covalent
     RDKit          3D

 25 28  0  0  0  0  0  0  0  0999 V2000
    7.0200   -3.3560   19.3360 C   0  0  0  0  0  0  0  0  0  0  0  0
    6.3520   -4.1820   20.3400 C   0  0  0  0  0  0  0  0  0  0  0  0
    5.3910   -4.8730   19.9940 O   0  0  0  0  0  0  0  0  0  0  0  0
    6.8300   -4.2330   21.7010 N   0  0  0  0  0  0  0  0  0  0  0  0
    6.6270   -5.4370   22.4810 C   0  0  0  0  0  0  0  0  0  0  0  0
    6.0030   -5.0900   23.8030 C   0  0  0  0  0  0  0  0  0  0  0  0
    6.0990   -3.5840   23.9420 C   0  0  0  0  0  0  0  0  0  0  0  0
    5.5730   -3.1120   25.2600 C   0  0  0  0  0  0  0  0  0  0  0  0
    4.3550   -2.9170   25.4330 O   0  0  0  0  0  0  0  0  0  0  0  0
    6.4410   -2.8800   26.3540 N   0  0  0  0  0  0  0  0  0  0  0  0
    6.9520   -1.5440   26.6280 C   0  0  0  0  0  0  0  0  0  0  0  0
    5.9470   -0.4930   26.6520 C   0  0  0  0  0  0  0  0  0  0  0  0
    6.2730   -0.1110   27.9050 N   0  0  0  0  0  0  0  0  0  0  0  0
    6.9730    1.0470   27.9370 C   0  0  0  0  0  0  0  0  0  0  0  0
    7.6770    1.3360   29.0010 N   0  0  0  0  0  0  0  0  0  0  0  0
    8.2360    2.5860   28.6340 C   0  0  0  0  0  0  0  0  0  0  0  0
    9.0870    3.4260   29.3360 C   0  0  0  0  0  0  0  0  0  0  0  0
    9.5050    4.6720   28.6970 C   0  0  0  0  0  0  0  0  0  0  0  0
    9.0590    4.9790   27.4380 C   0  0  0  0  0  0  0  0  0  0  0  0
    8.2160    4.1320   26.7580 C   0  0  0  0  0  0  0  0  0  0  0  0
    7.8130    2.9460   27.3600 C   0  0  0  0  0  0  0  0  0  0  0  0
    6.9680    1.9250   26.8880 N   0  0  0  0  0  0  0  0  0  0  0  0
    7.2230   -1.1440   27.9590 C   0  0  0  0  0  0  0  0  0  0  0  0
    7.4860   -3.0820   23.6070 C   0  0  0  0  0  0  0  0  0  0  0  0
    7.6710   -3.1720   22.2270 C   0  0  0  0  0  0  0  0  0  0  0  0
  1  2  1  0
  2  3  2  0
  2  4  1  0
  4  5  1  0
  5  6  1  0
  6  7  1  0
  7  8  1  0
  8  9  2  0
  8 10  1  0
 10 11  1  0
 11 12  1  0
 12 13  1  0
 13 14  1  0
 14 15  2  0
 15 16  1  0
 16 17  2  0
 17 18  1  0
 18 19  2  0
 19 20  1  0
 16 21  1  0
 20 21  2  0
 14 22  1  0
 21 22  1  0
 11 23  1  0
 13 23  1  0
  7 24  1  0
  4 25  1  0
 24 25  1  0
M  END
