piperidine-amides-2909-covalent
     RDKit          3D

 24 25  0  0  0  0  0  0  0  0999 V2000
    7.0840   -3.3040   19.3400 C   0  0  0  0  0  0  0  0  0  0  0  0
    6.3560   -4.1370   20.2940 C   0  0  0  0  0  0  0  0  0  0  0  0
    5.3220   -4.6970   19.9380 O   0  0  0  0  0  0  0  0  0  0  0  0
    6.8540   -4.3570   21.6270 N   0  0  0  0  0  0  0  0  0  0  0  0
    6.3040   -5.4270   22.4010 C   0  0  0  0  0  0  0  0  0  0  0  0
    5.4020   -4.8420   23.4520 C   0  0  0  0  0  0  0  0  0  0  0  0
    6.2160   -3.8930   24.3230 C   0  0  0  0  0  0  0  0  0  0  0  0
    5.3500   -3.2040   25.3340 C   0  0  0  0  0  0  0  0  0  0  0  0
    4.6590   -2.2230   25.0200 O   0  0  0  0  0  0  0  0  0  0  0  0
    5.2690   -3.6410   26.6920 N   0  0  0  0  0  0  0  0  0  0  0  0
    6.2080   -4.5940   27.1980 C   0  0  0  0  0  0  0  0  0  0  0  0
    5.6480   -5.3600   28.3700 C   0  0  0  0  0  0  0  0  0  0  0  0
    6.3880   -6.4060   28.9150 C   0  0  0  0  0  0  0  0  0  0  0  0
    5.9150   -7.1560   30.0010 C   0  0  0  0  0  0  0  0  0  0  0  0
    4.7040   -6.8480   30.5380 C   0  0  0  0  0  0  0  0  0  0  0  0
    3.9190   -5.7700   29.9950 C   0  0  0  0  0  0  0  0  0  0  0  0
    2.7830   -5.4560   30.4730 O   0  0  0  0  0  0  0  0  0  0  0  0
    2.2050   -6.5230   31.1650 C   0  0  0  0  0  0  0  0  0  0  0  0
    0.8870   -6.5710   30.7790 C   0  0  0  0  0  0  0  0  0  0  0  0
    0.0110   -7.6000   31.1240 C   0  0  0  0  0  0  0  0  0  0  0  0
    0.3550   -7.4000   29.6890 C   0  0  0  0  0  0  0  0  0  0  0  0
    4.4130   -5.0570   28.9260 C   0  0  0  0  0  0  0  0  0  0  0  0
    6.9050   -2.8140   23.5070 C   0  0  0  0  0  0  0  0  0  0  0  0
    7.5840   -3.3260   22.2750 C   0  0  0  0  0  0  0  0  0  0  0  0
  1  2  1  0
  2  3  2  0
  2  4  1  0
  4  5  1  0
  5  6  1  0
  6  7  1  0
  7  8  1  0
  8  9  2  0
  8 10  1  0
 10 11  1  0
 11 12  1  0
 12 13  2  0
 13 14  1  0
 14 15  2  0
 15 16  1  0
 16 17  1  0
 17 18  1  0
 18 19  1  0
 19 20  1  0
 19 21  1  0
 12 22  1  0
 16 22  2  0
  7 23  1  0
  4 24  1  0
 23 24  1  0
M  END
