piperidine-amides-33073-covalent
     RDKit          3D

 28 31  0  0  0  0  0  0  0  0999 V2000
    6.9470   -3.2500   19.1780 C   0  0  0  0  0  0  0  0  0  0  0  0
    6.1510   -3.9400   20.2160 C   0  0  0  0  0  0  0  0  0  0  0  0
    5.1740   -4.6080   19.8480 O   0  0  0  0  0  0  0  0  0  0  0  0
    6.4520   -3.8930   21.5790 N   0  0  0  0  0  0  0  0  0  0  0  0
    5.8430   -4.9220   22.3520 C   0  0  0  0  0  0  0  0  0  0  0  0
    4.9790   -4.5050   23.4640 C   0  0  0  0  0  0  0  0  0  0  0  0
    5.0650   -3.0860   23.9030 C   0  0  0  0  0  0  0  0  0  0  0  0
    4.4590   -2.8720   25.3040 C   0  0  0  0  0  0  0  0  0  0  0  0
    3.2250   -2.9410   25.3780 O   0  0  0  0  0  0  0  0  0  0  0  0
    5.1520   -2.6310   26.5290 N   0  0  0  0  0  0  0  0  0  0  0  0
    4.6590   -2.2870   27.8230 C   0  0  0  0  0  0  0  0  0  0  0  0
    5.1590   -3.0410   28.9950 C   0  0  0  0  0  0  0  0  0  0  0  0
    5.2720   -4.4620   28.4840 C   0  0  0  0  0  0  0  0  0  0  0  0
    4.8000   -5.6630   29.1640 N   0  0  0  0  0  0  0  0  0  0  0  0
    5.1640   -6.7390   28.1600 C   0  0  0  0  0  0  0  0  0  0  0  0
    5.7730   -6.1980   27.0330 N   0  0  0  0  0  0  0  0  0  0  0  0
    5.8460   -4.8050   27.2230 C   0  0  0  0  0  0  0  0  0  0  0  0
    6.2310   -3.3920   26.7920 C   0  0  1  0  0  0  0  0  0  0  0  0
    6.9430   -3.5400   25.4490 C   0  0  0  0  0  0  0  0  0  0  0  0
    7.7710   -2.3450   25.0330 C   0  0  0  0  0  0  0  0  0  0  0  0
    8.4960   -2.4520   23.7360 C   0  0  0  0  0  0  0  0  0  0  0  0
    8.3760   -3.7060   22.9010 C   0  0  0  0  0  0  0  0  0  0  0  0
    7.5120   -4.8020   23.4490 C   0  0  0  0  0  0  0  0  0  0  0  0
    7.2950   -6.3180   22.5500 Cl  0  0  0  0  0  0  0  0  0  0  0  0
    6.8510   -4.6830   24.6580 C   0  0  0  0  0  0  0  0  0  0  0  0
    6.0900   -5.7890   25.0100 F   0  0  0  0  0  0  0  0  0  0  0  0
    6.3380   -2.3780   23.5570 C   0  0  0  0  0  0  0  0  0  0  0  0
    6.7840   -2.5980   22.1140 C   0  0  0  0  0  0  0  0  0  0  0  0
  1  2  1  0
  2  3  2  0
  2  4  1  0
  4  5  1  0
  5  6  1  0
  6  7  1  0
  7  8  1  0
  8  9  2  0
  8 10  1  0
 10 11  1  0
 11 12  1  0
 12 13  1  0
 13 14  1  0
 14 15  2  0
 15 16  1  0
 13 17  2  0
 16 17  1  0
 10 18  1  0
 17 18  1  0
 18 19  1  6
 19 20  2  0
 20 21  1  0
 21 22  2  0
 22 23  1  0
 23 24  1  0
 19 25  1  0
 23 25  2  0
 25 26  1  0
  7 27  1  0
  4 28  1  0
 27 28  1  0
M  END
