piperidine-amides-32836-covalent
     RDKit          3D

 29 31  0  0  0  0  0  0  0  0999 V2000
    7.0660   -3.3300   19.3690 C   0  0  0  0  0  0  0  0  0  0  0  0
    6.3680   -4.2170   20.3410 C   0  0  0  0  0  0  0  0  0  0  0  0
    5.3380   -4.8020   19.9690 O   0  0  0  0  0  0  0  0  0  0  0  0
    6.8920   -4.4380   21.6350 N   0  0  0  0  0  0  0  0  0  0  0  0
    6.4750   -5.5940   22.3730 C   0  0  0  0  0  0  0  0  0  0  0  0
    5.4890   -5.0590   23.4130 C   0  0  0  0  0  0  0  0  0  0  0  0
    6.2600   -4.1140   24.2730 C   0  0  0  0  0  0  0  0  0  0  0  0
    5.4200   -3.3920   25.2800 C   0  0  0  0  0  0  0  0  0  0  0  0
    4.7630   -2.4520   24.8410 O   0  0  0  0  0  0  0  0  0  0  0  0
    5.3840   -3.7660   26.6420 N   0  0  0  0  0  0  0  0  0  0  0  0
    6.4250   -3.6940   27.5440 C   0  0  0  0  0  0  0  0  0  0  0  0
    6.7660   -4.7870   28.3080 C   0  0  0  0  0  0  0  0  0  0  0  0
    5.7650   -5.1480   29.1470 C   0  0  0  0  0  0  0  0  0  0  0  0
    4.7260   -4.2810   29.0040 C   0  0  0  0  0  0  0  0  0  0  0  0
    3.7380   -3.9880   30.0960 C   0  0  0  0  0  0  0  0  0  0  0  0
    2.5460   -3.0290   30.0280 C   0  0  0  0  0  0  0  0  0  0  0  0
    2.4120   -2.3400   28.6900 C   0  0  0  0  0  0  0  0  0  0  0  0
    1.4890   -1.4440   28.2840 N   0  0  0  0  0  0  0  0  0  0  0  0
    0.3990   -2.0790   27.8090 C   0  0  0  0  0  0  0  0  0  0  0  0
   -0.6830   -2.4140   28.5940 O   0  0  0  0  0  0  0  0  0  0  0  0
    0.3950   -2.3980   26.4660 O   0  0  0  0  0  0  0  0  0  0  0  0
    0.8200   -3.6170   25.9120 C   0  0  0  0  0  0  0  0  0  0  0  0
    2.2170   -3.4230   25.3490 C   0  0  0  0  0  0  0  0  0  0  0  0
   -0.1230   -4.2660   24.9410 C   0  0  0  0  0  0  0  0  0  0  0  0
    1.0080   -4.7010   27.0060 C   0  0  0  0  0  0  0  0  0  0  0  0
    3.3120   -2.6130   27.7150 C   0  0  0  0  0  0  0  0  0  0  0  0
    4.5080   -3.5810   27.7910 C   0  0  0  0  0  0  0  0  0  0  0  0
    6.9640   -2.9990   23.5050 C   0  0  0  0  0  0  0  0  0  0  0  0
    7.5640   -3.3610   22.2970 C   0  0  0  0  0  0  0  0  0  0  0  0
  1  2  1  0
  2  3  2  0
  2  4  1  0
  4  5  1  0
  5  6  1  0
  6  7  1  0
  7  8  1  0
  8  9  2  0
  8 10  1  0
 10 11  1  0
 11 12  1  0
 12 13  1  0
 13 14  1  0
 14 15  2  0
 15 16  1  0
 16 17  2  0
 17 18  1  0
 18 19  1  0
 19 20  2  0
 19 21  1  0
 22 21  1  0
 22 23  1  0
 22 24  1  0
 22 25  1  0
 17 26  1  0
 10 27  1  0
 14 27  1  0
 26 27  2  0
  7 28  1  0
  4 29  1  0
 28 29  1  0
M  END
