piperidine-amides-33134-covalent
     RDKit          3D

 27 29  0  0  0  0  0  0  0  0999 V2000
    7.1400   -3.3240   19.2680 C   0  0  0  0  0  0  0  0  0  0  0  0
    6.3740   -4.0830   20.2640 C   0  0  0  0  0  0  0  0  0  0  0  0
    5.2850   -4.5840   19.8980 O   0  0  0  0  0  0  0  0  0  0  0  0
    6.8940   -4.2860   21.5580 N   0  0  0  0  0  0  0  0  0  0  0  0
    7.6600   -3.2310   22.1250 C   0  0  0  0  0  0  0  0  0  0  0  0
    7.3880   -2.9220   23.5170 C   0  0  0  0  0  0  0  0  0  0  0  0
    6.7180   -3.9550   24.3370 C   0  0  0  0  0  0  0  0  0  0  0  0
    5.9860   -3.2600   25.4290 C   0  0  0  0  0  0  0  0  0  0  0  0
    4.7650   -3.0150   25.3090 O   0  0  0  0  0  0  0  0  0  0  0  0
    6.6760   -2.8830   26.5920 N   0  0  0  0  0  0  0  0  0  0  0  0
    7.2830   -3.8230   27.4720 C   0  0  0  0  0  0  0  0  0  0  0  0
    6.4480   -4.6210   28.3720 C   0  0  0  0  0  0  0  0  0  0  0  0
    6.8630   -6.0690   28.6400 C   0  0  0  0  0  0  0  0  0  0  0  0
    6.1570   -6.9300   29.4640 C   0  0  0  0  0  0  0  0  0  0  0  0
    4.8980   -6.3390   30.1200 C   0  0  0  0  0  0  0  0  0  0  0  0
    4.4330   -4.9960   29.9300 N   0  0  0  0  0  0  0  0  0  0  0  0
    5.2240   -4.1260   29.0430 C   0  0  0  0  0  0  0  0  0  0  0  0
    6.4240   -1.5640   27.1360 C   0  0  0  0  0  0  0  0  0  0  0  0
    5.3430   -0.7470   26.4870 C   0  0  0  0  0  0  0  0  0  0  0  0
    5.0780    0.6180   27.0800 C   0  0  0  0  0  0  0  0  0  0  0  0
    5.8590    1.1480   28.2820 C   0  0  0  0  0  0  0  0  0  0  0  0
    5.5930    2.7280   29.0290 Cl  0  0  0  0  0  0  0  0  0  0  0  0
    6.8660    0.1670   28.7330 C   0  0  0  0  0  0  0  0  0  0  0  0
    7.1550   -1.0900   28.2180 C   0  0  0  0  0  0  0  0  0  0  0  0
    8.4070   -1.9730   28.9550 Cl  0  0  0  0  0  0  0  0  0  0  0  0
    5.8610   -4.9540   23.6230 C   0  0  0  0  0  0  0  0  0  0  0  0
    6.4820   -5.4130   22.3330 C   0  0  0  0  0  0  0  0  0  0  0  0
  1  2  1  0
  2  3  2  0
  2  4  1  0
  4  5  1  0
  5  6  1  0
  6  7  1  0
  7  8  1  0
  8  9  2  0
  8 10  1  0
 10 11  1  0
 11 12  1  0
 12 13  2  0
 13 14  1  0
 14 15  2  0
 15 16  1  0
 12 17  1  0
 16 17  2  0
 10 18  1  0
 18 19  2  0
 19 20  1  0
 20 21  2  0
 21 22  1  0
 21 23  1  0
 18 24  1  0
 23 24  2  0
 24 25  1  0
  7 26  1  0
  4 27  1  0
 26 27  1  0
M  END
