piperidine-amides-25624-covalent
     RDKit          3D

 25 28  0  0  0  0  0  0  0  0999 V2000
    7.0570   -3.3290   19.3370 C   0  0  0  0  0  0  0  0  0  0  0  0
    6.3970   -4.1970   20.3460 C   0  0  0  0  0  0  0  0  0  0  0  0
    5.4020   -4.8250   19.9770 O   0  0  0  0  0  0  0  0  0  0  0  0
    6.9300   -4.3110   21.6360 N   0  0  0  0  0  0  0  0  0  0  0  0
    6.7580   -5.5200   22.4140 C   0  0  0  0  0  0  0  0  0  0  0  0
    6.2470   -5.1850   23.7890 C   0  0  0  0  0  0  0  0  0  0  0  0
    6.2330   -3.6700   23.9690 C   0  0  0  0  0  0  0  0  0  0  0  0
    5.6900   -3.2670   25.2860 C   0  0  0  0  0  0  0  0  0  0  0  0
    4.7200   -2.5000   25.2870 O   0  0  0  0  0  0  0  0  0  0  0  0
    6.1680   -3.7000   26.5390 N   0  0  0  0  0  0  0  0  0  0  0  0
    6.1510   -2.6510   27.5480 C   0  0  0  0  0  0  0  0  0  0  0  0
    6.2150   -3.2420   28.9410 C   0  0  0  0  0  0  0  0  0  0  0  0
    6.8410   -4.4530   28.9240 O   0  0  0  0  0  0  0  0  0  0  0  0
    6.3500   -5.4470   28.2230 C   0  0  1  0  0  0  0  0  0  0  0  0
    5.4840   -6.1980   28.8920 C   0  0  0  0  0  0  0  0  0  0  0  0
    5.5670   -6.2800   30.2090 C   0  0  0  0  0  0  0  0  0  0  0  0
    4.7610   -7.0180   31.2330 C   0  0  0  0  0  0  0  0  0  0  0  0
    3.6600   -7.7940   30.5690 C   0  0  0  0  0  0  0  0  0  0  0  0
    3.5000   -7.7490   29.0510 C   0  0  0  0  0  0  0  0  0  0  0  0
    4.4780   -6.9100   28.2710 C   0  0  0  0  0  0  0  0  0  0  0  0
    4.3850   -6.8470   27.0070 O   0  0  0  0  0  0  0  0  0  0  0  0
    4.8100   -5.7320   26.2640 C   0  0  0  0  0  0  0  0  0  0  0  0
    5.4770   -4.7850   27.2310 C   0  0  2  0  0  0  0  0  0  0  0  0
    7.6100   -3.1390   23.6850 C   0  0  0  0  0  0  0  0  0  0  0  0
    7.7620   -3.2480   22.1980 C   0  0  0  0  0  0  0  0  0  0  0  0
  1  2  1  0
  2  3  2  0
  2  4  1  0
  4  5  1  0
  5  6  1  0
  6  7  1  0
  7  8  1  0
  8  9  2  0
  8 10  1  0
 10 11  1  0
 11 12  1  0
 12 13  1  0
 14 13  1  1
 14 15  1  0
 15 16  2  0
 16 17  1  0
 17 18  2  0
 18 19  1  0
 15 20  1  0
 19 20  2  0
 20 21  1  0
 21 22  1  0
 10 23  1  0
 14 23  1  0
 23 22  1  6
  7 24  1  0
  4 25  1  0
 24 25  1  0
M  END
