piperidine-amides-33915-covalent
     RDKit          3D

 30 32  0  0  0  0  0  0  0  0999 V2000
    7.0440   -3.3410   19.3840 C   0  0  0  0  0  0  0  0  0  0  0  0
    6.4000   -4.1830   20.4060 C   0  0  0  0  0  0  0  0  0  0  0  0
    5.4170   -4.8580   19.9980 O   0  0  0  0  0  0  0  0  0  0  0  0
    6.8710   -4.2870   21.7580 N   0  0  0  0  0  0  0  0  0  0  0  0
    6.5740   -5.4870   22.4380 C   0  0  0  0  0  0  0  0  0  0  0  0
    6.2570   -5.3030   23.8520 C   0  0  0  0  0  0  0  0  0  0  0  0
    6.0140   -3.9120   24.3200 C   0  0  0  0  0  0  0  0  0  0  0  0
    5.3760   -3.9990   25.7240 C   0  0  0  0  0  0  0  0  0  0  0  0
    4.5550   -4.9280   25.7930 O   0  0  0  0  0  0  0  0  0  0  0  0
    5.5260   -3.1970   26.9610 N   0  0  0  0  0  0  0  0  0  0  0  0
    4.8290   -3.4280   28.1920 C   0  0  0  0  0  0  0  0  0  0  0  0
    5.2550   -4.5840   28.9720 C   0  0  0  0  0  0  0  0  0  0  0  0
    6.4390   -4.8120   28.6670 O   0  0  0  0  0  0  0  0  0  0  0  0
    6.7940   -3.6770   27.9940 C   0  0  0  0  0  0  0  0  0  0  0  0
    5.4680   -4.3510   27.8920 C   0  0  0  0  0  0  0  0  0  0  0  0
    4.5770   -3.4130   26.8270 C   0  0  0  0  0  0  0  0  0  0  0  0
    5.0070   -2.1710   26.1060 C   0  0  0  0  0  0  0  0  0  0  0  0
    3.7510   -1.7700   25.3100 C   0  0  0  0  0  0  0  0  0  0  0  0
    3.4000   -0.3820   25.2820 N   0  0  0  0  0  0  0  0  0  0  0  0
    2.3140   -0.1960   26.1600 C   0  0  0  0  0  0  0  0  0  0  0  0
    1.2420    0.5610   25.7860 O   0  0  0  0  0  0  0  0  0  0  0  0
    2.3040   -0.8100   27.4400 O   0  0  0  0  0  0  0  0  0  0  0  0
    2.8510   -0.1130   28.4810 C   0  0  0  0  0  0  0  0  0  0  0  0
    4.2810    0.2690   28.0650 C   0  0  0  0  0  0  0  0  0  0  0  0
    2.1450    1.0300   29.1580 C   0  0  0  0  0  0  0  0  0  0  0  0
    3.3240   -1.0080   29.5370 C   0  0  0  0  0  0  0  0  0  0  0  0
    6.1540   -1.7290   26.2650 C   0  0  0  0  0  0  0  0  0  0  0  0
    6.7790   -2.5900   27.1840 C   0  0  0  0  0  0  0  0  0  0  0  0
    7.2230   -3.0730   23.9740 C   0  0  0  0  0  0  0  0  0  0  0  0
    7.4800   -3.1660   22.4470 C   0  0  0  0  0  0  0  0  0  0  0  0
  1  2  1  0
  2  3  2  0
  2  4  1  0
  4  5  1  0
  5  6  1  0
  6  7  1  0
  7  8  1  0
  8  9  2  0
  8 10  1  0
 10 11  1  0
 11 12  1  0
 12 13  1  0
 13 14  1  0
 14 15  2  0
 15 16  1  0
 16 17  2  0
 17 18  1  0
 18 19  1  0
 19 20  1  0
 20 21  2  0
 20 22  1  0
 23 22  1  0
 23 24  1  0
 23 25  1  0
 23 26  1  0
 17 27  1  0
 10 28  1  0
 14 28  1  0
 27 28  2  0
  7 29  1  0
  4 30  1  0
 29 30  1  0
M  END
