piperidine-amides-33823-covalent
     RDKit          3D

 30 32  0  0  0  0  0  0  0  0999 V2000
    7.0630   -3.3560   19.3890 C   0  0  0  0  0  0  0  0  0  0  0  0
    6.4230   -4.2280   20.3890 C   0  0  0  0  0  0  0  0  0  0  0  0
    5.4100   -4.8620   19.9960 O   0  0  0  0  0  0  0  0  0  0  0  0
    6.9490   -4.3920   21.7090 N   0  0  0  0  0  0  0  0  0  0  0  0
    7.5940   -3.2690   22.3220 C   0  0  0  0  0  0  0  0  0  0  0  0
    7.0560   -2.9400   23.6450 C   0  0  0  0  0  0  0  0  0  0  0  0
    5.8000   -3.6590   23.9280 C   0  0  0  0  0  0  0  0  0  0  0  0
    5.0080   -3.1410   25.1080 C   0  0  0  0  0  0  0  0  0  0  0  0
    3.8830   -2.6720   24.8830 O   0  0  0  0  0  0  0  0  0  0  0  0
    5.4350   -3.1410   26.4480 N   0  0  0  0  0  0  0  0  0  0  0  0
    5.9700   -4.3240   27.0850 C   0  0  0  0  0  0  0  0  0  0  0  0
    5.3500   -5.6290   26.9960 C   0  0  0  0  0  0  0  0  0  0  0  0
    5.5650   -1.8040   27.1120 C   0  0  0  0  0  0  0  0  0  0  0  0
    5.5830   -0.7480   26.2600 C   0  0  0  0  0  0  0  0  0  0  0  0
    5.7410    0.7190   26.7790 C   0  0  0  0  0  0  0  0  0  0  0  0
    5.8470    0.4650   28.2340 N   0  0  0  0  0  0  0  0  0  0  0  0
    5.8390   -0.6440   29.2410 C   0  0  0  0  0  0  0  0  0  0  0  0
    6.0010    0.8610   29.5060 C   0  0  0  0  0  0  0  0  0  0  0  0
    5.1090    1.1970   30.4840 N   0  0  0  0  0  0  0  0  0  0  0  0
    5.5900    2.2490   31.1720 C   0  0  0  0  0  0  0  0  0  0  0  0
    4.7590    2.7110   32.3680 C   0  0  0  0  0  0  0  0  0  0  0  0
    3.9780    1.6950   32.9850 N   0  0  0  0  0  0  0  0  0  0  0  0
    3.1410    1.9350   34.0030 C   0  0  0  0  0  0  0  0  0  0  0  0
    1.7140    1.5250   34.1170 C   0  0  0  0  0  0  0  0  0  0  0  0
    3.5220    2.5850   35.0390 O   0  0  0  0  0  0  0  0  0  0  0  0
    3.9950    0.3710   32.4000 C   0  0  0  0  0  0  0  0  0  0  0  0
    4.6080    0.0630   31.2080 C   0  0  0  0  0  0  0  0  0  0  0  0
    5.6710   -1.7470   28.4400 C   0  0  0  0  0  0  0  0  0  0  0  0
    6.0590   -5.1310   23.8840 C   0  0  0  0  0  0  0  0  0  0  0  0
    6.5290   -5.5300   22.4830 C   0  0  0  0  0  0  0  0  0  0  0  0
  1  2  1  0
  2  3  2  0
  2  4  1  0
  4  5  1  0
  5  6  1  0
  6  7  1  0
  7  8  1  0
  8  9  2  0
  8 10  1  0
 10 11  1  0
 11 12  1  0
 10 13  1  0
 13 14  2  0
 14 15  1  0
 15 16  2  0
 16 17  1  0
 17 18  1  0
 18 19  1  0
 19 20  1  0
 20 21  1  0
 21 22  1  0
 22 23  1  0
 23 24  1  0
 23 25  2  0
 22 26  1  0
 19 27  1  0
 26 27  1  0
 13 28  1  0
 17 28  2  0
  7 29  1  0
  4 30  1  0
 29 30  1  0
M  END
