piperidine-amides-1850-covalent
     RDKit          3D

 19 20  0  0  0  0  0  0  0  0999 V2000
    7.1120   -3.2570   19.1960 C   0  0  0  0  0  0  0  0  0  0  0  0
    6.3630   -4.0280   20.2240 C   0  0  0  0  0  0  0  0  0  0  0  0
    5.3020   -4.5460   19.8820 O   0  0  0  0  0  0  0  0  0  0  0  0
    6.8940   -4.1770   21.5020 N   0  0  0  0  0  0  0  0  0  0  0  0
    7.7250   -3.1620   22.0910 C   0  0  0  0  0  0  0  0  0  0  0  0
    7.0210   -2.5960   23.2780 C   0  0  0  0  0  0  0  0  0  0  0  0
    6.6440   -3.7270   24.2370 C   0  0  0  0  0  0  0  0  0  0  0  0
    5.8880   -3.1210   25.3410 C   0  0  0  0  0  0  0  0  0  0  0  0
    4.6480   -3.1870   25.3610 O   0  0  0  0  0  0  0  0  0  0  0  0
    6.5800   -2.4650   26.3750 N   0  0  0  0  0  0  0  0  0  0  0  0
    6.3930   -2.9270   27.7240 C   0  0  0  0  0  0  0  0  0  0  0  0
    6.4630   -4.4240   27.6690 C   0  0  0  0  0  0  0  0  0  0  0  0
    7.6350   -5.0340   27.4880 C   0  0  0  0  0  0  0  0  0  0  0  0
    8.0480   -5.4900   26.3160 C   0  0  0  0  0  0  0  0  0  0  0  0
    9.2580   -6.0480   26.4020 C   0  0  0  0  0  0  0  0  0  0  0  0
    9.5400   -5.9040   27.6770 N   0  0  0  0  0  0  0  0  0  0  0  0
    8.5870   -5.2990   28.3530 N   0  0  0  0  0  0  0  0  0  0  0  0
    5.7810   -4.7790   23.5430 C   0  0  0  0  0  0  0  0  0  0  0  0
    6.4810   -5.2620   22.3180 C   0  0  0  0  0  0  0  0  0  0  0  0
  1  2  1  0
  2  3  2  0
  2  4  1  0
  4  5  1  0
  5  6  1  0
  6  7  1  0
  7  8  1  0
  8  9  2  0
  8 10  1  0
 10 11  1  0
 11 12  1  0
 12 13  1  0
 13 14  1  0
 14 15  2  0
 15 16  1  0
 13 17  2  0
 16 17  1  0
  7 18  1  0
  4 19  1  0
 18 19  1  0
M  END
