piperidine-amides-27753-covalent
     RDKit          3D

 24 26  0  0  0  0  0  0  0  0999 V2000
    7.0950   -3.3720   19.3610 C   0  0  0  0  0  0  0  0  0  0  0  0
    6.3990   -4.1980   20.3620 C   0  0  0  0  0  0  0  0  0  0  0  0
    5.3820   -4.8080   19.9730 O   0  0  0  0  0  0  0  0  0  0  0  0
    6.9140   -4.3090   21.6620 N   0  0  0  0  0  0  0  0  0  0  0  0
    6.6760   -5.4960   22.4220 C   0  0  0  0  0  0  0  0  0  0  0  0
    6.1800   -5.2120   23.7690 C   0  0  0  0  0  0  0  0  0  0  0  0
    6.1260   -3.7640   24.0310 C   0  0  0  0  0  0  0  0  0  0  0  0
    5.5850   -3.3930   25.3700 C   0  0  0  0  0  0  0  0  0  0  0  0
    4.6360   -2.5960   25.3720 O   0  0  0  0  0  0  0  0  0  0  0  0
    6.0630   -3.8810   26.5980 N   0  0  0  0  0  0  0  0  0  0  0  0
    5.8990   -5.3010   26.9920 C   0  0  0  0  0  0  0  0  0  0  0  0
    6.1620   -5.2730   28.4300 C   0  0  0  0  0  0  0  0  0  0  0  0
    5.9050   -3.9300   28.8660 C   0  0  2  0  0  0  0  0  0  0  0  0
    4.2910   -3.9450   29.4390 S   0  0  0  0  0  0  0  0  0  0  0  0
    4.1690   -2.7100   30.2500 O   0  0  0  0  0  0  0  0  0  0  0  0
    3.3200   -4.0250   28.3240 O   0  0  0  0  0  0  0  0  0  0  0  0
    3.9480   -5.2360   30.4850 N   0  0  0  0  0  0  0  0  0  0  0  0
    3.2670   -4.8710   31.6630 C   0  0  0  0  0  0  0  0  0  0  0  0
    2.1970   -5.7190   31.8140 C   0  0  0  0  0  0  0  0  0  0  0  0
    2.2280   -6.6000   30.7740 C   0  0  0  0  0  0  0  0  0  0  0  0
    3.2750   -6.3640   29.9080 C   0  0  0  0  0  0  0  0  0  0  0  0
    5.9170   -3.0100   27.8210 C   0  0  0  0  0  0  0  0  0  0  0  0
    7.4480   -3.1390   23.7040 C   0  0  0  0  0  0  0  0  0  0  0  0
    7.7260   -3.2470   22.2540 C   0  0  0  0  0  0  0  0  0  0  0  0
  1  2  1  0
  2  3  2  0
  2  4  1  0
  4  5  1  0
  5  6  1  0
  6  7  1  0
  7  8  1  0
  8  9  2  0
  8 10  1  0
 10 11  1  0
 11 12  1  0
 12 13  1  0
 13 14  1  6
 14 15  2  0
 14 16  2  0
 14 17  1  0
 17 18  1  0
 18 19  1  0
 19 20  1  0
 17 21  1  0
 20 21  1  0
 10 22  1  0
 13 22  1  0
  7 23  1  0
  4 24  1  0
 23 24  1  0
M  END
