piperidine-amides-35024-covalent
     RDKit          3D

 30 32  0  0  0  0  0  0  0  0999 V2000
    7.0180   -3.3100   19.3700 C   0  0  0  0  0  0  0  0  0  0  0  0
    6.3400   -4.1700   20.3790 C   0  0  0  0  0  0  0  0  0  0  0  0
    5.3850   -4.8370   19.9780 O   0  0  0  0  0  0  0  0  0  0  0  0
    6.7960   -4.2460   21.7060 N   0  0  0  0  0  0  0  0  0  0  0  0
    7.6540   -3.2320   22.2880 C   0  0  0  0  0  0  0  0  0  0  0  0
    7.3860   -3.1030   23.7640 C   0  0  0  0  0  0  0  0  0  0  0  0
    6.0850   -3.8310   24.0910 C   0  0  0  0  0  0  0  0  0  0  0  0
    5.5830   -3.4900   25.4570 C   0  0  0  0  0  0  0  0  0  0  0  0
    4.3730   -3.6360   25.6640 O   0  0  0  0  0  0  0  0  0  0  0  0
    6.3750   -2.9690   26.5100 N   0  0  0  0  0  0  0  0  0  0  0  0
    6.2690   -3.5720   27.8450 C   0  0  0  0  0  0  0  0  0  0  0  0
    6.0510   -5.0810   27.8740 C   0  0  0  0  0  0  0  0  0  0  0  0
    5.5350   -5.8370   26.8680 C   0  0  0  0  0  0  0  0  0  0  0  0
    4.2510   -6.2620   27.0070 C   0  0  0  0  0  0  0  0  0  0  0  0
    3.8680   -6.5850   28.2840 C   0  0  0  0  0  0  0  0  0  0  0  0
    4.5010   -7.6420   29.1660 C   0  0  0  0  0  0  0  0  0  0  0  0
    6.3170   -1.5490   26.5760 C   0  0  0  0  0  0  0  0  0  0  0  0
    6.5050   -0.9740   27.9260 N   0  0  0  0  0  0  0  0  0  0  0  0
    6.4350    0.3700   27.9880 N   0  0  0  0  0  0  0  0  0  0  0  0
    6.1890    0.9350   26.7070 C   0  0  0  0  0  0  0  0  0  0  0  0
    6.0410    2.3690   26.3120 C   0  0  0  0  0  0  0  0  0  0  0  0
    6.9930    2.9050   25.2940 C   0  0  0  0  0  0  0  0  0  0  0  0
    6.9190    4.3500   24.8310 C   0  0  0  0  0  0  0  0  0  0  0  0
    5.8630    5.2040   25.4340 C   0  0  0  0  0  0  0  0  0  0  0  0
    5.6340    6.9020   25.0170 Cl  0  0  0  0  0  0  0  0  0  0  0  0
    4.9740    4.5290   26.4460 C   0  0  0  0  0  0  0  0  0  0  0  0
    5.0870    3.2090   26.8300 C   0  0  0  0  0  0  0  0  0  0  0  0
    6.0680   -0.2520   25.5350 S   0  0  0  0  0  0  0  0  0  0  0  0
    6.2380   -5.3000   23.8250 C   0  0  0  0  0  0  0  0  0  0  0  0
    6.7410   -5.5470   22.3920 C   0  0  0  0  0  0  0  0  0  0  0  0
  1  2  1  0
  2  3  2  0
  2  4  1  0
  4  5  1  0
  5  6  1  0
  6  7  1  0
  7  8  1  0
  8  9  2  0
  8 10  1  0
 10 11  1  0
 11 12  1  0
 12 13  1  0
 13 14  1  0
 14 15  1  0
 15 16  1  0
 10 17  1  0
 17 18  2  0
 18 19  1  0
 19 20  2  0
 20 21  1  0
 21 22  2  0
 22 23  1  0
 23 24  2  0
 24 25  1  0
 24 26  1  0
 21 27  1  0
 26 27  2  0
 17 28  1  0
 20 28  1  0
  7 29  1  0
  4 30  1  0
 29 30  1  0
M  END
