piperidine-amides-33013-covalent
     RDKit          3D

 28 31  0  0  0  0  0  0  0  0999 V2000
    7.0520   -3.3340   19.3420 C   0  0  0  0  0  0  0  0  0  0  0  0
    6.3720   -4.2070   20.3380 C   0  0  0  0  0  0  0  0  0  0  0  0
    5.3620   -4.8370   19.9800 O   0  0  0  0  0  0  0  0  0  0  0  0
    6.9020   -4.3510   21.6450 N   0  0  0  0  0  0  0  0  0  0  0  0
    6.6240   -5.5150   22.4370 C   0  0  0  0  0  0  0  0  0  0  0  0
    5.8700   -5.0150   23.6750 C   0  0  0  0  0  0  0  0  0  0  0  0
    6.7140   -3.9940   24.3790 C   0  0  0  0  0  0  0  0  0  0  0  0
    5.9320   -3.2800   25.4260 C   0  0  0  0  0  0  0  0  0  0  0  0
    4.7030   -3.2760   25.2640 O   0  0  0  0  0  0  0  0  0  0  0  0
    6.5640   -2.6480   26.5180 N   0  0  0  0  0  0  0  0  0  0  0  0
    6.8550   -3.2480   27.7710 C   0  0  0  0  0  0  0  0  0  0  0  0
    6.7920   -2.3850   28.8510 C   0  0  0  0  0  0  0  0  0  0  0  0
    7.9620   -1.6590   29.1900 C   0  0  0  0  0  0  0  0  0  0  0  0
    8.0170   -0.7520   30.2290 C   0  0  0  0  0  0  0  0  0  0  0  0
    6.8190   -0.5010   31.0360 C   0  0  0  0  0  0  0  0  0  0  0  0
    5.4940   -1.2060   30.7880 C   0  0  0  0  0  0  0  0  0  0  0  0
    4.0080   -0.9590   31.7210 Cl  0  0  0  0  0  0  0  0  0  0  0  0
    5.6560   -2.1760   29.5950 C   0  0  0  0  0  0  0  0  0  0  0  0
    6.5830   -1.2120   26.5290 C   0  0  2  0  0  0  0  0  0  0  0  0
    6.7370   -0.7040   27.8990 C   0  0  0  0  0  0  0  0  0  0  0  0
    5.4910   -0.2060   28.3840 N   0  0  0  0  0  0  0  0  0  0  0  0
    5.1690    0.9360   27.6770 C   0  0  0  0  0  0  0  0  0  0  0  0
    5.7750    1.0350   26.4280 C   0  0  0  0  0  0  0  0  0  0  0  0
    5.2710   -0.4790   26.2720 C   0  0  0  0  0  0  0  0  0  0  0  0
    4.0310   -1.0110   26.9790 C   0  0  0  0  0  0  0  0  0  0  0  0
    4.3680   -1.0720   28.4290 C   0  0  0  0  0  0  0  0  0  0  0  0
    7.2090   -2.8640   23.4910 C   0  0  0  0  0  0  0  0  0  0  0  0
    7.5870   -3.2360   22.2090 C   0  0  0  0  0  0  0  0  0  0  0  0
  1  2  1  0
  2  3  2  0
  2  4  1  0
  4  5  1  0
  5  6  1  0
  6  7  1  0
  7  8  1  0
  8  9  2  0
  8 10  1  0
 10 11  1  0
 11 12  1  0
 12 13  2  0
 13 14  1  0
 14 15  2  0
 15 16  1  0
 16 17  1  0
 12 18  1  0
 16 18  2  0
 19 10  1  1
 19 20  1  0
 20 21  1  0
 21 22  1  0
 22 23  1  0
 19 24  1  0
 23 24  1  0
 24 25  1  0
 21 26  1  0
 25 26  1  0
  7 27  1  0
  4 28  1  0
 27 28  1  0
M  END
