piperidine-amides-2586-covalent
     RDKit          3D

 25 27  0  0  0  0  0  0  0  0999 V2000
    6.9920   -3.2840   19.2310 C   0  0  0  0  0  0  0  0  0  0  0  0
    6.2790   -4.1240   20.2320 C   0  0  0  0  0  0  0  0  0  0  0  0
    5.2170   -4.6160   19.8840 O   0  0  0  0  0  0  0  0  0  0  0  0
    6.8270   -4.3760   21.4870 N   0  0  0  0  0  0  0  0  0  0  0  0
    7.6820   -3.4500   22.1640 C   0  0  0  0  0  0  0  0  0  0  0  0
    6.9480   -2.9230   23.3490 C   0  0  0  0  0  0  0  0  0  0  0  0
    5.8630   -3.8930   23.8010 C   0  0  0  0  0  0  0  0  0  0  0  0
    5.7020   -3.6250   25.2370 C   0  0  0  0  0  0  0  0  0  0  0  0
    4.5760   -3.3680   25.6940 O   0  0  0  0  0  0  0  0  0  0  0  0
    6.8270   -3.6580   26.0760 N   0  0  0  0  0  0  0  0  0  0  0  0
    7.4590   -2.4090   26.4040 C   0  0  0  0  0  0  0  0  0  0  0  0
    7.9940   -1.7690   25.1290 C   0  0  0  0  0  0  0  0  0  0  0  0
    9.0280   -2.1810   24.2670 C   0  0  0  0  0  0  0  0  0  0  0  0
    9.1910   -1.2990   23.2570 C   0  0  0  0  0  0  0  0  0  0  0  0
    8.2160   -0.3270   23.5380 N   0  0  0  0  0  0  0  0  0  0  0  0
    7.8840    0.9100   22.8650 C   0  0  0  0  0  0  0  0  0  0  0  0
    8.6440    2.1210   23.3710 C   0  0  0  0  0  0  0  0  0  0  0  0
    8.3140    3.4190   22.7370 C   0  0  0  0  0  0  0  0  0  0  0  0
    7.2810    3.4550   21.6670 C   0  0  0  0  0  0  0  0  0  0  0  0
    6.6170    2.1820   21.2570 C   0  0  0  0  0  0  0  0  0  0  0  0
    6.8330    0.7980   21.7880 C   0  0  0  0  0  0  0  0  0  0  0  0
    6.0080   -0.6550   21.2570 Cl  0  0  0  0  0  0  0  0  0  0  0  0
    7.5040   -0.5810   24.6030 N   0  0  0  0  0  0  0  0  0  0  0  0
    6.0550   -5.3410   23.5060 C   0  0  0  0  0  0  0  0  0  0  0  0
    6.5950   -5.6350   22.1480 C   0  0  0  0  0  0  0  0  0  0  0  0
  1  2  1  0
  2  3  2  0
  2  4  1  0
  4  5  1  0
  5  6  1  0
  6  7  1  0
  7  8  1  0
  8  9  2  0
  8 10  1  0
 10 11  1  0
 11 12  1  0
 12 13  1  0
 13 14  2  0
 14 15  1  0
 15 16  1  0
 16 17  2  0
 17 18  1  0
 18 19  2  0
 19 20  1  0
 16 21  1  0
 20 21  2  0
 21 22  1  0
 12 23  2  0
 15 23  1  0
  7 24  1  0
  4 25  1  0
 24 25  1  0
M  END
