piperidine-amides-31603-covalent
     RDKit          3D

 28 30  0  0  0  0  0  0  0  0999 V2000
    7.1240   -3.3420   19.4330 C   0  0  0  0  0  0  0  0  0  0  0  0
    6.4250   -4.1790   20.3780 C   0  0  0  0  0  0  0  0  0  0  0  0
    5.4040   -4.8280   19.9790 O   0  0  0  0  0  0  0  0  0  0  0  0
    6.8710   -4.3240   21.7060 N   0  0  0  0  0  0  0  0  0  0  0  0
    6.5890   -5.5950   22.3860 C   0  0  0  0  0  0  0  0  0  0  0  0
    5.5340   -5.0310   23.3970 C   0  0  0  0  0  0  0  0  0  0  0  0
    6.3310   -4.1560   24.3320 C   0  0  0  0  0  0  0  0  0  0  0  0
    5.3420   -3.5030   25.4090 C   0  0  0  0  0  0  0  0  0  0  0  0
    4.3330   -3.1430   24.8300 O   0  0  0  0  0  0  0  0  0  0  0  0
    5.7940   -3.4870   26.6140 N   0  0  0  0  0  0  0  0  0  0  0  0
    6.0760   -2.9740   27.8250 C   0  0  0  0  0  0  0  0  0  0  0  0
    6.0850   -3.5130   29.0620 C   0  0  0  0  0  0  0  0  0  0  0  0
    4.9930   -4.4680   29.0340 N   0  0  0  0  0  0  0  0  0  0  0  0
    4.7190   -5.3070   30.0400 C   0  0  0  0  0  0  0  0  0  0  0  0
    5.3780   -6.4580   30.5050 O   0  0  0  0  0  0  0  0  0  0  0  0
    3.5090   -4.9310   30.8070 C   0  0  0  0  0  0  0  0  0  0  0  0
    3.4610   -3.4700   31.0250 C   0  0  0  0  0  0  0  0  0  0  0  0
    2.2490   -3.2430   31.7770 C   0  0  0  0  0  0  0  0  0  0  0  0
    1.1350   -4.0470   32.3340 C   0  0  0  0  0  0  0  0  0  0  0  0
    1.5180   -5.5090   31.9160 C   0  0  0  0  0  0  0  0  0  0  0  0
    2.7230   -6.0440   31.1300 C   0  0  0  0  0  0  0  0  0  0  0  0
    2.9770   -7.2310   30.8240 O   0  0  0  0  0  0  0  0  0  0  0  0
    1.9830   -8.1880   30.4790 C   0  0  0  0  0  0  0  0  0  0  0  0
    1.6100   -8.9330   31.5670 C   0  0  0  0  0  0  0  0  0  0  0  0
    4.9880   -5.2410   27.8510 C   0  0  0  0  0  0  0  0  0  0  0  0
    5.9940   -4.8720   27.0230 C   0  0  0  0  0  0  0  0  0  0  0  0
    7.2960   -3.1440   23.7750 C   0  0  0  0  0  0  0  0  0  0  0  0
    7.6800   -3.3020   22.3240 C   0  0  0  0  0  0  0  0  0  0  0  0
  1  2  1  0
  2  3  2  0
  2  4  1  0
  4  5  1  0
  5  6  1  0
  6  7  1  0
  7  8  1  0
  8  9  2  0
  8 10  1  0
 10 11  1  0
 11 12  1  0
 12 13  1  0
 13 14  1  0
 14 15  2  0
 14 16  1  0
 16 17  2  0
 17 18  1  0
 18 19  2  0
 19 20  1  0
 16 21  1  0
 20 21  2  0
 21 22  1  0
 22 23  1  0
 23 24  1  0
 13 25  1  0
 10 26  1  0
 25 26  1  0
  7 27  1  0
  4 28  1  0
 27 28  1  0
M  END
