piperidine-amides-2238-covalent
     RDKit          3D

 29 32  0  0  0  0  0  0  0  0999 V2000
    7.0270   -3.3410   19.3160 C   0  0  0  0  0  0  0  0  0  0  0  0
    6.3580   -4.1860   20.3370 C   0  0  0  0  0  0  0  0  0  0  0  0
    5.3700   -4.8230   19.9730 O   0  0  0  0  0  0  0  0  0  0  0  0
    6.8720   -4.2670   21.6350 N   0  0  0  0  0  0  0  0  0  0  0  0
    6.7020   -5.4490   22.4440 C   0  0  0  0  0  0  0  0  0  0  0  0
    6.0830   -5.0820   23.7690 C   0  0  0  0  0  0  0  0  0  0  0  0
    6.1500   -3.5650   23.9780 C   0  0  0  0  0  0  0  0  0  0  0  0
    5.7400   -3.2380   25.3560 C   0  0  0  0  0  0  0  0  0  0  0  0
    4.6100   -3.5730   25.7330 O   0  0  0  0  0  0  0  0  0  0  0  0
    6.5910   -2.5400   26.2390 N   0  0  0  0  0  0  0  0  0  0  0  0
    5.9800   -1.8090   27.3290 C   0  0  0  0  0  0  0  0  0  0  0  0
    5.7020   -0.4580   26.8700 C   0  0  0  0  0  0  0  0  0  0  0  0
    6.4090    0.1100   28.0420 N   0  0  0  0  0  0  0  0  0  0  0  0
    5.2950    0.9100   29.0920 S   0  0  0  0  0  0  0  0  0  0  0  0
    4.6100    1.9280   28.2420 O   0  0  0  0  0  0  0  0  0  0  0  0
    6.0800    1.6480   30.1400 O   0  0  0  0  0  0  0  0  0  0  0  0
    4.1060   -0.2790   29.8350 C   0  0  0  0  0  0  0  0  0  0  0  0
    4.6230   -0.7640   30.9610 C   0  0  0  0  0  0  0  0  0  0  0  0
    3.8730   -1.6230   31.5950 C   0  0  0  0  0  0  0  0  0  0  0  0
    2.5330   -2.1670   31.2870 C   0  0  0  0  0  0  0  0  0  0  0  0
    2.0460   -1.5480   29.9880 C   0  0  0  0  0  0  0  0  0  0  0  0
    2.7980   -0.5080   29.0940 C   0  0  0  0  0  0  0  0  0  0  0  0
    0.8090   -1.9880   29.6190 O   0  0  0  0  0  0  0  0  0  0  0  0
    0.2900   -3.1710   30.1670 C   0  0  0  0  0  0  0  0  0  0  0  0
    0.5020   -3.2640   31.6520 C   0  0  0  0  0  0  0  0  0  0  0  0
    1.8160   -3.0700   32.0140 O   0  0  0  0  0  0  0  0  0  0  0  0
    6.7780   -1.2490   28.4930 C   0  0  0  0  0  0  0  0  0  0  0  0
    7.5400   -3.0800   23.6610 C   0  0  0  0  0  0  0  0  0  0  0  0
    7.6960   -3.1950   22.1750 C   0  0  0  0  0  0  0  0  0  0  0  0
  1  2  1  0
  2  3  2  0
  2  4  1  0
  4  5  1  0
  5  6  1  0
  6  7  1  0
  7  8  1  0
  8  9  2  0
  8 10  1  0
 10 11  1  0
 11 12  1  0
 12 13  1  0
 13 14  1  0
 14 15  2  0
 14 16  2  0
 14 17  1  0
 17 18  2  0
 18 19  1  0
 19 20  2  0
 20 21  1  0
 17 22  1  0
 21 22  2  0
 21 23  1  0
 23 24  1  0
 24 25  1  0
 20 26  1  0
 25 26  1  0
 11 27  1  0
 13 27  1  0
  7 28  1  0
  4 29  1  0
 28 29  1  0
M  END
