piperidine-amides-24390-covalent
     RDKit          3D

 24 26  0  0  0  0  0  0  0  0999 V2000
    7.0560   -3.2930   19.3300 C   0  0  0  0  0  0  0  0  0  0  0  0
    6.3390   -4.1380   20.3000 C   0  0  0  0  0  0  0  0  0  0  0  0
    5.3260   -4.7780   19.9510 O   0  0  0  0  0  0  0  0  0  0  0  0
    6.7910   -4.2810   21.6160 N   0  0  0  0  0  0  0  0  0  0  0  0
    6.5540   -5.5420   22.2860 C   0  0  0  0  0  0  0  0  0  0  0  0
    6.4120   -5.2570   23.7870 C   0  0  0  0  0  0  0  0  0  0  0  0
    5.9170   -3.8310   23.9400 C   0  0  0  0  0  0  0  0  0  0  0  0
    5.4450   -3.5080   25.3170 C   0  0  0  0  0  0  0  0  0  0  0  0
    4.2280   -3.2560   25.4390 O   0  0  0  0  0  0  0  0  0  0  0  0
    6.2920   -3.4590   26.4590 N   0  0  0  0  0  0  0  0  0  0  0  0
    5.7860   -3.0510   27.7480 C   0  0  0  0  0  0  0  0  0  0  0  0
    4.9520   -4.1380   28.3740 C   0  0  0  0  0  0  0  0  0  0  0  0
    5.8660   -5.1810   28.7530 N   0  0  0  0  0  0  0  0  0  0  0  0
    5.5870   -6.2160   29.7300 C   0  0  0  0  0  0  0  0  0  0  0  0
    6.9210   -5.4230   27.8710 C   0  0  0  0  0  0  0  0  0  0  0  0
    7.2830   -4.3040   27.1080 C   0  0  1  0  0  0  0  0  0  0  0  0
    8.0120   -4.5240   25.9690 C   0  0  0  0  0  0  0  0  0  0  0  0
    9.2360   -3.7070   25.5100 C   0  0  0  0  0  0  0  0  0  0  0  0
    9.6650   -4.9640   26.2200 C   0  0  0  0  0  0  0  0  0  0  0  0
    9.6350   -4.9660   27.7080 C   0  0  0  0  0  0  0  0  0  0  0  0
    9.1340   -6.1550   27.0480 C   0  0  0  0  0  0  0  0  0  0  0  0
    8.3590   -5.8720   25.9350 C   0  0  0  0  0  0  0  0  0  0  0  0
    7.0370   -2.8710   23.5490 C   0  0  0  0  0  0  0  0  0  0  0  0
    7.6400   -3.2820   22.2330 C   0  0  0  0  0  0  0  0  0  0  0  0
  1  2  1  0
  2  3  2  0
  2  4  1  0
  4  5  1  0
  5  6  1  0
  6  7  1  0
  7  8  1  0
  8  9  2  0
  8 10  1  0
 10 11  1  0
 11 12  1  0
 12 13  1  0
 13 14  1  0
 13 15  1  0
 10 16  1  0
 15 16  1  0
 16 17  1  6
 17 18  1  0
 18 19  1  0
 19 20  1  0
 20 21  1  0
 17 22  1  0
 21 22  1  0
  7 23  1  0
  4 24  1  0
 23 24  1  0
M  END
