piperidine-amides-30664-covalent
     RDKit          3D

 27 29  0  0  0  0  0  0  0  0999 V2000
    7.0430   -3.3620   19.3990 C   0  0  0  0  0  0  0  0  0  0  0  0
    6.4010   -4.2240   20.3950 C   0  0  0  0  0  0  0  0  0  0  0  0
    5.4400   -4.9220   20.0150 O   0  0  0  0  0  0  0  0  0  0  0  0
    6.8740   -4.3080   21.7300 N   0  0  0  0  0  0  0  0  0  0  0  0
    7.7700   -3.2820   22.2850 C   0  0  0  0  0  0  0  0  0  0  0  0
    7.4760   -3.1000   23.7610 C   0  0  0  0  0  0  0  0  0  0  0  0
    6.2490   -3.8610   24.1360 C   0  0  0  0  0  0  0  0  0  0  0  0
    5.6310   -3.5990   25.4800 C   0  0  0  0  0  0  0  0  0  0  0  0
    4.4270   -3.2080   25.4620 O   0  0  0  0  0  0  0  0  0  0  0  0
    6.1610   -3.6970   26.8160 N   0  0  0  0  0  0  0  0  0  0  0  0
    6.1670   -4.9870   27.5150 C   0  0  1  0  0  0  0  0  0  0  0  0
    6.7200   -4.6210   28.8150 C   0  0  0  0  0  0  0  0  0  0  0  0
    6.3370   -3.2170   28.9480 C   0  0  0  0  0  0  0  0  0  0  0  0
    5.4290   -2.9450   27.7630 C   0  0  2  0  0  0  0  0  0  0  0  0
    4.1970   -3.7800   28.0750 C   0  0  0  0  0  0  0  0  0  0  0  0
    4.7470   -5.1590   27.8010 C   0  0  2  0  0  0  0  0  0  0  0  0
    4.6860   -5.9540   28.9250 C   0  0  0  0  0  0  0  0  0  0  0  0
    3.3530   -6.5450   29.1160 N   0  0  0  0  0  0  0  0  0  0  0  0
    2.8410   -6.3750   30.4660 C   0  0  0  0  0  0  0  0  0  0  0  0
    3.6810   -5.8310   31.4400 O   0  0  0  0  0  0  0  0  0  0  0  0
    1.5380   -6.7470   30.8010 O   0  0  0  0  0  0  0  0  0  0  0  0
    1.1240   -8.0730   30.5980 C   0  0  0  0  0  0  0  0  0  0  0  0
    1.7040   -8.7510   29.3580 C   0  0  0  0  0  0  0  0  0  0  0  0
   -0.4030   -8.0000   30.4750 C   0  0  0  0  0  0  0  0  0  0  0  0
    1.4460   -9.0370   31.7440 C   0  0  0  0  0  0  0  0  0  0  0  0
    6.3080   -5.2890   23.8020 C   0  0  0  0  0  0  0  0  0  0  0  0
    6.7030   -5.5150   22.5010 C   0  0  0  0  0  0  0  0  0  0  0  0
  1  2  1  0
  2  3  2  0
  2  4  1  0
  4  5  1  0
  5  6  1  0
  6  7  1  0
  7  8  1  0
  8  9  2  0
  8 10  1  0
 10 11  1  0
 11 12  1  1
 12 13  1  0
 10 14  1  0
 14 13  1  1
 14 15  1  0
 11 16  1  0
 15 16  1  0
 16 17  1  1
 17 18  1  0
 18 19  1  0
 19 20  2  0
 19 21  1  0
 22 21  1  0
 22 23  1  0
 22 24  1  0
 22 25  1  0
  7 26  1  0
  4 27  1  0
 26 27  1  0
M  END
