piperidine-amides-32602-covalent
     RDKit          3D

 28 30  0  0  0  0  0  0  0  0999 V2000
    7.0490   -3.3420   19.3130 C   0  0  0  0  0  0  0  0  0  0  0  0
    6.3480   -4.1960   20.3190 C   0  0  0  0  0  0  0  0  0  0  0  0
    5.3410   -4.8290   19.9700 O   0  0  0  0  0  0  0  0  0  0  0  0
    6.8740   -4.2970   21.6260 N   0  0  0  0  0  0  0  0  0  0  0  0
    6.7580   -5.5470   22.3600 C   0  0  0  0  0  0  0  0  0  0  0  0
    6.2040   -5.2470   23.7590 C   0  0  0  0  0  0  0  0  0  0  0  0
    6.2220   -3.7800   23.9310 C   0  0  0  0  0  0  0  0  0  0  0  0
    5.5920   -3.3190   25.1840 C   0  0  0  0  0  0  0  0  0  0  0  0
    4.6520   -2.5350   25.0550 O   0  0  0  0  0  0  0  0  0  0  0  0
    6.0170   -3.7610   26.4270 N   0  0  0  0  0  0  0  0  0  0  0  0
    5.5030   -4.9420   27.0440 C   0  0  0  0  0  0  0  0  0  0  0  0
    5.1820   -5.1010   28.3700 C   0  0  0  0  0  0  0  0  0  0  0  0
    5.7390   -4.2370   29.2710 C   0  0  0  0  0  0  0  0  0  0  0  0
    4.8070   -3.4490   29.9150 C   0  0  0  0  0  0  0  0  0  0  0  0
    4.9970   -1.9900   30.0550 C   0  0  0  0  0  0  0  0  0  0  0  0
    3.9960   -1.0720   30.7600 C   0  0  0  0  0  0  0  0  0  0  0  0
    2.7530   -1.7850   31.3270 C   0  0  0  0  0  0  0  0  0  0  0  0
    1.8730   -0.9150   31.9620 O   0  0  0  0  0  0  0  0  0  0  0  0
    0.6130   -1.0430   31.3980 C   0  0  0  0  0  0  0  0  0  0  0  0
    0.6080   -1.5030   30.1080 F   0  0  0  0  0  0  0  0  0  0  0  0
   -0.1860   -1.9880   32.1040 F   0  0  0  0  0  0  0  0  0  0  0  0
   -0.1090    0.1630   31.5510 F   0  0  0  0  0  0  0  0  0  0  0  0
    2.5750   -3.2660   31.1760 C   0  0  0  0  0  0  0  0  0  0  0  0
    3.6790   -4.0190   30.4410 C   0  0  0  0  0  0  0  0  0  0  0  0
    6.6830   -3.4310   28.7080 C   0  0  0  0  0  0  0  0  0  0  0  0
    6.4380   -2.7420   27.3670 C   0  0  0  0  0  0  0  0  0  0  0  0
    7.5560   -3.1820   23.6800 C   0  0  0  0  0  0  0  0  0  0  0  0
    7.7060   -3.2180   22.1630 C   0  0  0  0  0  0  0  0  0  0  0  0
  1  2  1  0
  2  3  2  0
  2  4  1  0
  4  5  1  0
  5  6  1  0
  6  7  1  0
  7  8  1  0
  8  9  2  0
  8 10  1  0
 10 11  1  0
 11 12  1  0
 12 13  1  0
 13 14  1  0
 14 15  2  0
 15 16  1  0
 16 17  2  0
 17 18  1  0
 18 19  1  0
 19 20  1  0
 19 21  1  0
 19 22  1  0
 17 23  1  0
 14 24  1  0
 23 24  2  0
 13 25  1  0
 10 26  1  0
 25 26  1  0
  7 27  1  0
  4 28  1  0
 27 28  1  0
M  END
