piperidine-amides-18985-covalent
     RDKit          3D

 21 22  0  0  0  0  0  0  0  0999 V2000
    7.1960   -3.3830   19.4420 C   0  0  0  0  0  0  0  0  0  0  0  0
    6.4720   -4.2060   20.3740 C   0  0  0  0  0  0  0  0  0  0  0  0
    5.4130   -4.7980   19.9790 O   0  0  0  0  0  0  0  0  0  0  0  0
    6.9580   -4.4050   21.6790 N   0  0  0  0  0  0  0  0  0  0  0  0
    6.6160   -5.6320   22.4140 C   0  0  0  0  0  0  0  0  0  0  0  0
    5.6590   -5.0070   23.5010 C   0  0  0  0  0  0  0  0  0  0  0  0
    6.4400   -3.9120   24.2140 C   0  0  0  0  0  0  0  0  0  0  0  0
    5.5630   -3.2930   25.3870 C   0  0  0  0  0  0  0  0  0  0  0  0
    4.7890   -2.4710   24.9280 O   0  0  0  0  0  0  0  0  0  0  0  0
    5.8530   -3.7970   26.5150 N   0  0  0  0  0  0  0  0  0  0  0  0
    5.6710   -4.1370   27.8230 C   0  0  0  0  0  0  0  0  0  0  0  0
    6.4860   -4.2760   28.8480 C   0  0  0  0  0  0  0  0  0  0  0  0
    7.5940   -4.4900   28.0870 C   0  0  2  0  0  0  0  0  0  0  0  0
    8.2470   -5.6860   28.4240 F   0  0  0  0  0  0  0  0  0  0  0  0
    8.5530   -3.4040   27.8450 C   0  0  0  0  0  0  0  0  0  0  0  0
    8.3620   -2.2760   28.6430 O   0  0  0  0  0  0  0  0  0  0  0  0
    9.5200   -3.5420   26.8840 O   0  0  0  0  0  0  0  0  0  0  0  0
    9.8970   -4.9050   26.8320 C   0  0  0  0  0  0  0  0  0  0  0  0
    7.1710   -4.5570   26.6670 C   0  0  0  0  0  0  0  0  0  0  0  0
    6.8900   -2.7720   23.3160 C   0  0  0  0  0  0  0  0  0  0  0  0
    7.8160   -3.4130   22.3080 C   0  0  0  0  0  0  0  0  0  0  0  0
  1  2  1  0
  2  3  2  0
  2  4  1  0
  4  5  1  0
  5  6  1  0
  6  7  1  0
  7  8  1  0
  8  9  2  0
  8 10  1  0
 10 11  1  0
 11 12  1  0
 12 13  1  0
 13 14  1  1
 13 15  1  0
 15 16  2  0
 15 17  1  0
 17 18  1  0
 10 19  1  0
 13 19  1  0
  7 20  1  0
  4 21  1  0
 20 21  1  0
M  END
