piperidine-amides-1873-covalent
     RDKit          3D

 18 18  0  0  0  0  0  0  0  0999 V2000
    7.1570   -3.2820   19.2240 C   0  0  0  0  0  0  0  0  0  0  0  0
    6.3620   -4.0300   20.2290 C   0  0  0  0  0  0  0  0  0  0  0  0
    5.2850   -4.5000   19.8690 O   0  0  0  0  0  0  0  0  0  0  0  0
    6.8860   -4.2170   21.5040 N   0  0  0  0  0  0  0  0  0  0  0  0
    6.4660   -5.3130   22.3270 C   0  0  0  0  0  0  0  0  0  0  0  0
    5.6940   -4.7600   23.4910 C   0  0  0  0  0  0  0  0  0  0  0  0
    6.5050   -3.6840   24.2280 C   0  0  0  0  0  0  0  0  0  0  0  0
    5.6580   -3.0410   25.2480 C   0  0  0  0  0  0  0  0  0  0  0  0
    5.4580   -1.8250   25.2020 O   0  0  0  0  0  0  0  0  0  0  0  0
    5.0370   -3.7770   26.2660 N   0  0  0  0  0  0  0  0  0  0  0  0
    5.7840   -4.2070   27.4130 C   0  0  0  0  0  0  0  0  0  0  0  0
    5.6840   -5.7180   27.3800 C   0  0  1  0  0  0  0  0  0  0  0  0
    5.5620   -6.4310   28.5210 C   0  0  0  0  0  0  0  0  0  0  0  0
    6.6210   -6.3420   29.3270 C   0  0  0  0  0  0  0  0  0  0  0  0
    4.4580   -6.1640   26.6180 C   0  0  0  0  0  0  0  0  0  0  0  0
    3.4010   -5.5800   27.2520 O   0  0  0  0  0  0  0  0  0  0  0  0
    6.9970   -2.6020   23.2810 C   0  0  0  0  0  0  0  0  0  0  0  0
    7.6660   -3.1950   22.1020 C   0  0  0  0  0  0  0  0  0  0  0  0
  1  2  1  0
  2  3  2  0
  2  4  1  0
  4  5  1  0
  5  6  1  0
  6  7  1  0
  7  8  1  0
  8  9  2  0
  8 10  1  0
 10 11  1  0
 12 11  1  1
 12 13  1  0
 13 14  1  0
 12 15  1  0
 15 16  1  0
  7 17  1  0
  4 18  1  0
 17 18  1  0
M  END
