piperidine-amides-32166-covalent
     RDKit          3D

 28 30  0  0  0  0  0  0  0  0999 V2000
    7.0240   -3.3330   19.3250 C   0  0  0  0  0  0  0  0  0  0  0  0
    6.3150   -4.1950   20.3110 C   0  0  0  0  0  0  0  0  0  0  0  0
    5.3060   -4.8150   19.9560 O   0  0  0  0  0  0  0  0  0  0  0  0
    6.8230   -4.3270   21.6160 N   0  0  0  0  0  0  0  0  0  0  0  0
    6.6730   -5.5680   22.3480 C   0  0  0  0  0  0  0  0  0  0  0  0
    6.1800   -5.2770   23.7800 C   0  0  0  0  0  0  0  0  0  0  0  0
    6.0620   -3.7990   23.9610 C   0  0  0  0  0  0  0  0  0  0  0  0
    5.5390   -3.3350   25.2770 C   0  0  0  0  0  0  0  0  0  0  0  0
    4.6710   -2.4600   25.2020 O   0  0  0  0  0  0  0  0  0  0  0  0
    5.9600   -3.8360   26.5240 N   0  0  0  0  0  0  0  0  0  0  0  0
    5.3580   -3.5470   27.7290 C   0  0  0  0  0  0  0  0  0  0  0  0
    6.1510   -3.7620   28.7840 C   0  0  1  0  0  0  0  0  0  0  0  0
    5.5880   -4.9010   29.4820 N   0  0  0  0  0  0  0  0  0  0  0  0
    4.2560   -4.9670   29.8810 C   0  0  0  0  0  0  0  0  0  0  0  0
    3.7020   -4.3920   31.0130 O   0  0  0  0  0  0  0  0  0  0  0  0
    3.5190   -5.6990   28.9880 O   0  0  0  0  0  0  0  0  0  0  0  0
    3.9300   -6.9620   28.4680 C   0  0  0  0  0  0  0  0  0  0  0  0
    2.7130   -7.7230   28.0880 C   0  0  0  0  0  0  0  0  0  0  0  0
    4.6270   -6.7670   27.2790 C   0  0  0  0  0  0  0  0  0  0  0  0
    4.8520   -7.5790   29.2870 C   0  0  0  0  0  0  0  0  0  0  0  0
    7.4850   -3.9690   28.4400 C   0  0  0  0  0  0  0  0  0  0  0  0
    7.3320   -4.1160   26.9310 C   0  0  0  0  0  0  0  0  0  0  0  0
    7.7220   -5.5680   27.0720 C   0  0  0  0  0  0  0  0  0  0  0  0
    9.0880   -5.9230   27.0430 C   0  0  0  0  0  0  0  0  0  0  0  0
    8.9740   -4.9590   25.8020 C   0  0  0  0  0  0  0  0  0  0  0  0
    8.1550   -3.7270   25.9960 C   0  0  0  0  0  0  0  0  0  0  0  0
    7.3590   -3.0970   23.6260 C   0  0  0  0  0  0  0  0  0  0  0  0
    7.6100   -3.2260   22.1800 C   0  0  0  0  0  0  0  0  0  0  0  0
  1  2  1  0
  2  3  2  0
  2  4  1  0
  4  5  1  0
  5  6  1  0
  6  7  1  0
  7  8  1  0
  8  9  2  0
  8 10  1  0
 10 11  1  0
 11 12  1  0
 12 13  1  6
 13 14  1  0
 14 15  2  0
 14 16  1  0
 17 16  1  0
 17 18  1  0
 17 19  1  0
 17 20  1  0
 12 21  1  0
 22 10  1  0
 21 22  1  0
 22 23  1  0
 23 24  1  0
 24 25  1  0
 22 26  1  0
 25 26  1  0
  7 27  1  0
  4 28  1  0
 27 28  1  0
M  END
