piperidine-amides-25957-covalent
     RDKit          3D

 23 24  0  0  0  0  0  0  0  0999 V2000
    7.0350   -3.3560   19.3910 C   0  0  0  0  0  0  0  0  0  0  0  0
    6.3710   -4.2110   20.3820 C   0  0  0  0  0  0  0  0  0  0  0  0
    5.4130   -4.9070   20.0010 O   0  0  0  0  0  0  0  0  0  0  0  0
    6.8070   -4.2970   21.7270 N   0  0  0  0  0  0  0  0  0  0  0  0
    6.6440   -5.4970   22.5280 C   0  0  0  0  0  0  0  0  0  0  0  0
    5.9760   -5.0740   23.8220 C   0  0  0  0  0  0  0  0  0  0  0  0
    5.9460   -3.5800   23.9450 C   0  0  0  0  0  0  0  0  0  0  0  0
    5.2840   -2.9760   25.1620 C   0  0  0  0  0  0  0  0  0  0  0  0
    4.6710   -1.8900   25.0250 O   0  0  0  0  0  0  0  0  0  0  0  0
    5.2420   -3.4880   26.4830 N   0  0  0  0  0  0  0  0  0  0  0  0
    5.2170   -2.5590   27.6470 C   0  0  0  0  0  0  0  0  0  0  0  0
    5.6900   -3.2070   28.9330 C   0  0  0  0  0  0  0  0  0  0  0  0
    6.2110   -4.6000   28.9240 C   0  0  0  0  0  0  0  0  0  0  0  0
    5.5230   -5.3420   27.8730 C   0  0  2  0  0  0  0  0  0  0  0  0
    5.8810   -6.7100   27.7270 N   0  0  0  0  0  0  0  0  0  0  0  0
    5.1120   -7.4400   28.8960 S   0  0  0  0  0  0  0  0  0  0  0  0
    5.7070   -8.7550   29.0910 O   0  0  0  0  0  0  0  0  0  0  0  0
    3.6430   -7.5230   28.5350 O   0  0  0  0  0  0  0  0  0  0  0  0
    5.2500   -6.5270   30.3780 C   0  0  0  0  0  0  0  0  0  0  0  0
    5.4680   -7.3980   31.5600 C   0  0  0  0  0  0  0  0  0  0  0  0
    6.0190   -4.5550   26.7410 C   0  0  0  0  0  0  0  0  0  0  0  0
    7.3220   -3.0190   23.7210 C   0  0  0  0  0  0  0  0  0  0  0  0
    7.6870   -3.2570   22.2670 C   0  0  0  0  0  0  0  0  0  0  0  0
  1  2  1  0
  2  3  2  0
  2  4  1  0
  4  5  1  0
  5  6  1  0
  6  7  1  0
  7  8  1  0
  8  9  2  0
  8 10  1  0
 10 11  1  0
 11 12  1  0
 12 13  1  0
 13 14  1  0
 14 15  1  6
 16 15  1  0
 16 17  2  0
 16 18  2  0
 16 19  1  0
 19 20  1  0
 10 21  1  0
 14 21  1  0
  7 22  1  0
  4 23  1  0
 22 23  1  0
M  END
