piperidine-amides-28927-covalent
     RDKit          3D

 25 27  0  0  0  0  0  0  0  0999 V2000
    7.0570   -3.2800   19.2500 C   0  0  0  0  0  0  0  0  0  0  0  0
    6.3380   -4.0600   20.2610 C   0  0  0  0  0  0  0  0  0  0  0  0
    5.2930   -4.6300   19.9110 O   0  0  0  0  0  0  0  0  0  0  0  0
    6.8370   -4.2040   21.5820 N   0  0  0  0  0  0  0  0  0  0  0  0
    6.5280   -5.3990   22.3080 C   0  0  0  0  0  0  0  0  0  0  0  0
    5.9010   -5.0180   23.6150 C   0  0  0  0  0  0  0  0  0  0  0  0
    6.7980   -3.9630   24.2250 C   0  0  0  0  0  0  0  0  0  0  0  0
    6.2230   -3.4550   25.5200 C   0  0  0  0  0  0  0  0  0  0  0  0
    5.0120   -3.2090   25.5210 O   0  0  0  0  0  0  0  0  0  0  0  0
    7.0970   -3.3070   26.6090 N   0  0  0  0  0  0  0  0  0  0  0  0
    6.7460   -3.5640   27.9290 C   0  0  0  0  0  0  0  0  0  0  0  0
    7.1790   -2.3100   28.2640 C   0  0  0  0  0  0  0  0  0  0  0  0
    6.2800   -0.9720   28.8390 S   0  0  0  0  0  0  0  0  0  0  0  0
    5.1810   -0.5720   27.8860 O   0  0  0  0  0  0  0  0  0  0  0  0
    7.1900    0.2050   29.0310 O   0  0  0  0  0  0  0  0  0  0  0  0
    5.5100   -1.3810   30.3480 N   0  0  0  0  0  0  0  0  0  0  0  0
    5.5090   -0.4900   31.4480 C   0  0  0  0  0  0  0  0  0  0  0  0
    4.3070   -0.1950   32.0910 C   0  0  0  0  0  0  0  0  0  0  0  0
    4.3390    0.7560   33.2670 C   0  0  0  0  0  0  0  0  0  0  0  0
    5.6590    1.3940   33.7580 C   0  0  0  0  0  0  0  0  0  0  0  0
    6.8660    1.0130   33.0060 C   0  0  0  0  0  0  0  0  0  0  0  0
    6.6920    0.0660   31.8690 C   0  0  0  0  0  0  0  0  0  0  0  0
    7.5400   -1.9200   26.9520 C   0  0  0  0  0  0  0  0  0  0  0  0
    6.8620   -2.7750   23.2900 C   0  0  0  0  0  0  0  0  0  0  0  0
    7.6380   -3.1870   22.2280 C   0  0  0  0  0  0  0  0  0  0  0  0
  1  2  1  0
  2  3  2  0
  2  4  1  0
  4  5  1  0
  5  6  1  0
  6  7  1  0
  7  8  1  0
  8  9  2  0
  8 10  1  0
 10 11  1  0
 11 12  1  0
 12 13  1  0
 13 14  2  0
 13 15  2  0
 13 16  1  0
 16 17  1  0
 17 18  2  0
 18 19  1  0
 19 20  2  0
 20 21  1  0
 17 22  1  0
 21 22  2  0
 10 23  1  0
 12 23  1  0
  7 24  1  0
  4 25  1  0
 24 25  1  0
M  END
