piperidine-amides-29867-covalent
     RDKit          3D

 27 30  0  0  0  0  0  0  0  0999 V2000
    7.0920   -3.3670   19.3960 C   0  0  0  0  0  0  0  0  0  0  0  0
    6.3540   -4.2000   20.3320 C   0  0  0  0  0  0  0  0  0  0  0  0
    5.3400   -4.7880   19.9650 O   0  0  0  0  0  0  0  0  0  0  0  0
    6.8430   -4.3780   21.6710 N   0  0  0  0  0  0  0  0  0  0  0  0
    7.6320   -3.3470   22.2970 C   0  0  0  0  0  0  0  0  0  0  0  0
    6.9700   -2.8590   23.5610 C   0  0  0  0  0  0  0  0  0  0  0  0
    6.5330   -4.0630   24.3830 C   0  0  0  0  0  0  0  0  0  0  0  0
    5.7360   -3.6100   25.5930 C   0  0  0  0  0  0  0  0  0  0  0  0
    4.7430   -2.8750   25.4300 O   0  0  0  0  0  0  0  0  0  0  0  0
    6.0700   -3.9890   26.9550 N   0  0  0  0  0  0  0  0  0  0  0  0
    6.4940   -2.9500   27.8790 C   0  0  0  0  0  0  0  0  0  0  0  0
    5.5200   -2.6970   28.9830 C   0  0  0  0  0  0  0  0  0  0  0  0
    5.2870   -1.3910   29.4310 C   0  0  0  0  0  0  0  0  0  0  0  0
    4.3820   -1.1130   30.4710 C   0  0  0  0  0  0  0  0  0  0  0  0
    3.7140   -2.1540   31.0530 C   0  0  0  0  0  0  0  0  0  0  0  0
    3.9700   -3.4820   30.5760 C   0  0  0  0  0  0  0  0  0  0  0  0
    4.8570   -3.7310   29.5670 C   0  0  0  0  0  0  0  0  0  0  0  0
    5.1190   -4.8810   29.1030 O   0  0  0  0  0  0  0  0  0  0  0  0
    5.0070   -5.6860   27.9720 C   0  0  0  0  0  0  0  0  0  0  0  0
    3.7950   -5.3520   27.3610 C   0  0  0  0  0  0  0  0  0  0  0  0
    2.6640   -6.1800   27.7850 C   0  0  0  0  0  0  0  0  0  0  0  0
    2.8270   -7.0070   28.8690 O   0  0  0  0  0  0  0  0  0  0  0  0
    4.0970   -7.3590   29.3280 C   0  0  0  0  0  0  0  0  0  0  0  0
    5.0790   -7.1090   28.3610 C   0  0  0  0  0  0  0  0  0  0  0  0
    6.0820   -5.4080   27.2530 C   0  0  0  0  0  0  0  0  0  0  0  0
    5.6780   -5.0420   23.6340 C   0  0  0  0  0  0  0  0  0  0  0  0
    6.4600   -5.5240   22.4280 C   0  0  0  0  0  0  0  0  0  0  0  0
  1  2  1  0
  2  3  2  0
  2  4  1  0
  4  5  1  0
  5  6  1  0
  6  7  1  0
  7  8  1  0
  8  9  2  0
  8 10  1  0
 10 11  1  0
 11 12  1  0
 12 13  1  0
 13 14  2  0
 14 15  1  0
 15 16  2  0
 12 17  2  0
 16 17  1  0
 17 18  1  0
 19 18  1  0
 19 20  1  0
 20 21  1  0
 21 22  1  0
 22 23  1  0
 19 24  1  0
 23 24  1  0
 10 25  1  0
 19 25  1  0
  7 26  1  0
  4 27  1  0
 26 27  1  0
M  END
