piperidine-amides-13803-covalent
     RDKit          3D

 26 28  0  0  0  0  0  0  0  0999 V2000
    7.0670   -3.2820   19.2600 C   0  0  0  0  0  0  0  0  0  0  0  0
    6.3200   -4.0820   20.2750 C   0  0  0  0  0  0  0  0  0  0  0  0
    5.2880   -4.6740   19.9220 O   0  0  0  0  0  0  0  0  0  0  0  0
    6.8110   -4.1910   21.5960 N   0  0  0  0  0  0  0  0  0  0  0  0
    6.6540   -5.4390   22.3150 C   0  0  0  0  0  0  0  0  0  0  0  0
    6.2090   -5.1450   23.7570 C   0  0  0  0  0  0  0  0  0  0  0  0
    6.1640   -3.6720   23.9450 C   0  0  0  0  0  0  0  0  0  0  0  0
    5.6270   -3.2830   25.2670 C   0  0  0  0  0  0  0  0  0  0  0  0
    4.5940   -2.6090   25.2630 O   0  0  0  0  0  0  0  0  0  0  0  0
    6.2700   -3.6810   26.4410 N   0  0  0  0  0  0  0  0  0  0  0  0
    5.7670   -4.5710   27.4250 C   0  0  0  0  0  0  0  0  0  0  0  0
    6.0180   -5.9270   27.3910 C   0  0  0  0  0  0  0  0  0  0  0  0
    6.5090   -4.1490   28.6890 C   0  0  0  0  0  0  0  0  0  0  0  0
    4.3520   -4.5050   27.6210 C   0  0  0  0  0  0  0  0  0  0  0  0
    3.6020   -5.5620   28.3830 C   0  0  0  0  0  0  0  0  0  0  0  0
    2.2410   -6.1650   28.0830 C   0  0  0  0  0  0  0  0  0  0  0  0
    2.0170   -7.0600   29.1170 N   0  0  0  0  0  0  0  0  0  0  0  0
    3.0890   -7.0800   30.0280 C   0  0  0  0  0  0  0  0  0  0  0  0
    3.1430   -7.8250   31.1210 C   0  0  0  0  0  0  0  0  0  0  0  0
    4.2300   -7.8490   32.0740 C   0  0  0  0  0  0  0  0  0  0  0  0
    4.3320   -8.8860   33.6760 Br  0  0  0  0  0  0  0  0  0  0  0  0
    5.2460   -6.8500   31.4760 C   0  0  0  0  0  0  0  0  0  0  0  0
    5.4460   -5.9670   30.3780 C   0  0  0  0  0  0  0  0  0  0  0  0
    4.0980   -6.2060   29.6380 C   0  0  0  0  0  0  0  0  0  0  0  0
    7.4490   -2.9890   23.6430 C   0  0  0  0  0  0  0  0  0  0  0  0
    7.6910   -3.1680   22.1470 C   0  0  0  0  0  0  0  0  0  0  0  0
  1  2  1  0
  2  3  2  0
  2  4  1  0
  4  5  1  0
  5  6  1  0
  6  7  1  0
  7  8  1  0
  8  9  2  0
  8 10  1  0
 11 10  1  0
 11 12  1  0
 11 13  1  0
 11 14  1  0
 14 15  1  0
 15 16  2  0
 16 17  1  0
 17 18  1  0
 18 19  1  0
 19 20  2  0
 20 21  1  0
 20 22  1  0
 22 23  2  0
 15 24  1  0
 18 24  2  0
 23 24  1  0
  7 25  1  0
  4 26  1  0
 25 26  1  0
M  END
