piperidine-amides-31878-covalent
     RDKit          3D

 27 29  0  0  0  0  0  0  0  0999 V2000
    7.1160   -3.3130   19.1590 C   0  0  0  0  0  0  0  0  0  0  0  0
    6.3640   -3.9820   20.1950 C   0  0  0  0  0  0  0  0  0  0  0  0
    5.2580   -4.5090   19.8730 O   0  0  0  0  0  0  0  0  0  0  0  0
    6.8380   -4.1320   21.5120 N   0  0  0  0  0  0  0  0  0  0  0  0
    6.5930   -5.4400   22.1530 C   0  0  0  0  0  0  0  0  0  0  0  0
    5.6030   -4.9430   23.2580 C   0  0  0  0  0  0  0  0  0  0  0  0
    6.4390   -4.0140   24.0960 C   0  0  0  0  0  0  0  0  0  0  0  0
    5.6410   -3.6630   25.4180 C   0  0  0  0  0  0  0  0  0  0  0  0
    4.6980   -4.4260   25.5530 O   0  0  0  0  0  0  0  0  0  0  0  0
    6.1690   -2.6650   25.9900 N   0  0  0  0  0  0  0  0  0  0  0  0
    6.6010   -1.3940   26.1790 C   0  0  0  0  0  0  0  0  0  0  0  0
    6.0100   -0.1730   25.9910 C   0  0  0  0  0  0  0  0  0  0  0  0
    5.2190   -0.1000   24.8360 C   0  0  0  0  0  0  0  0  0  0  0  0
    4.4480    1.0790   24.3560 C   0  0  0  0  0  0  0  0  0  0  0  0
    4.6380    2.2830   25.3400 C   0  0  0  0  0  0  0  0  0  0  0  0
    5.4680    2.0360   26.4530 C   0  0  0  0  0  0  0  0  0  0  0  0
    6.1300    0.8630   26.7760 C   0  0  0  0  0  0  0  0  0  0  0  0
    6.3540   -2.9680   27.3820 C   0  0  0  0  0  0  0  0  0  0  0  0
    5.0990   -2.8090   28.3030 C   0  0  0  0  0  0  0  0  0  0  0  0
    3.9830   -3.0490   27.7810 O   0  0  0  0  0  0  0  0  0  0  0  0
    4.8770   -1.5220   28.7330 C   0  0  0  0  0  0  0  0  0  0  0  0
    4.2860   -1.3170   29.9500 C   0  0  0  0  0  0  0  0  0  0  0  0
    3.7370   -2.5240   31.0070 S   0  0  0  0  0  0  0  0  0  0  0  0
    3.8420   -3.8860   29.9880 C   0  0  0  0  0  0  0  0  0  0  0  0
    5.0410   -3.7020   29.3260 C   0  0  0  0  0  0  0  0  0  0  0  0
    7.0640   -2.8170   23.4580 C   0  0  0  0  0  0  0  0  0  0  0  0
    7.6760   -3.1300   22.1310 C   0  0  0  0  0  0  0  0  0  0  0  0
  1  2  1  0
  2  3  2  0
  2  4  1  0
  4  5  1  0
  5  6  1  0
  6  7  1  0
  7  8  1  0
  8  9  2  0
  8 10  1  0
 10 11  1  0
 11 12  1  0
 12 13  2  0
 13 14  1  0
 14 15  2  0
 15 16  1  0
 12 17  1  0
 16 17  2  0
 10 18  1  0
 18 19  1  0
 19 20  1  0
 19 21  1  0
 21 22  1  0
 22 23  1  0
 23 24  1  0
 19 25  1  0
 24 25  1  0
  7 26  1  0
  4 27  1  0
 26 27  1  0
M  END
