piperidine-amides-2606-covalent
     RDKit          3D

 26 27  0  0  0  0  0  0  0  0999 V2000
    7.0310   -3.3100   19.2770 C   0  0  0  0  0  0  0  0  0  0  0  0
    6.3730   -4.1450   20.3170 C   0  0  0  0  0  0  0  0  0  0  0  0
    5.3850   -4.7890   19.9710 O   0  0  0  0  0  0  0  0  0  0  0  0
    6.9040   -4.2100   21.6120 N   0  0  0  0  0  0  0  0  0  0  0  0
    7.7640   -3.1850   22.1370 C   0  0  0  0  0  0  0  0  0  0  0  0
    7.5710   -3.1000   23.6170 C   0  0  0  0  0  0  0  0  0  0  0  0
    6.1500   -3.5510   23.9400 C   0  0  0  0  0  0  0  0  0  0  0  0
    5.9530   -3.4780   25.3970 C   0  0  0  0  0  0  0  0  0  0  0  0
    6.4960   -4.3050   26.1110 O   0  0  0  0  0  0  0  0  0  0  0  0
    5.1150   -2.5060   25.9680 N   0  0  0  0  0  0  0  0  0  0  0  0
    5.6150   -1.4010   26.7720 C   0  0  0  0  0  0  0  0  0  0  0  0
    5.8100   -0.0850   26.0960 C   0  0  0  0  0  0  0  0  0  0  0  0
    6.2470    1.0960   26.6570 C   0  0  0  0  0  0  0  0  0  0  0  0
    6.5580    1.1210   28.0020 C   0  0  0  0  0  0  0  0  0  0  0  0
    6.4170   -0.0330   28.7170 C   0  0  0  0  0  0  0  0  0  0  0  0
    5.9350   -1.3010   28.0750 C   0  0  0  0  0  0  0  0  0  0  0  0
    5.9100   -2.2700   29.1910 C   0  0  0  0  0  0  0  0  0  0  0  0
    5.6930   -3.6110   29.0770 O   0  0  0  0  0  0  0  0  0  0  0  0
    6.1240   -1.6160   30.4610 N   0  0  0  0  0  0  0  0  0  0  0  0
    7.4210   -0.9700   30.4310 C   0  0  0  0  0  0  0  0  0  0  0  0
    8.5550   -1.3790   29.5140 C   0  0  0  0  0  0  0  0  0  0  0  0
    8.2490   -1.6780   28.0840 C   0  0  0  0  0  0  0  0  0  0  0  0
    7.8320   -3.0670   27.6050 C   0  0  0  0  0  0  0  0  0  0  0  0
    8.2700   -4.2780   28.3480 C   0  0  0  0  0  0  0  0  0  0  0  0
    5.8840   -4.9960   23.5090 C   0  0  0  0  0  0  0  0  0  0  0  0
    6.6870   -5.3740   22.4490 C   0  0  0  0  0  0  0  0  0  0  0  0
  1  2  1  0
  2  3  2  0
  2  4  1  0
  4  5  1  0
  5  6  1  0
  6  7  1  0
  7  8  1  0
  8  9  2  0
  8 10  1  0
 10 11  1  0
 11 12  2  0
 12 13  1  0
 13 14  2  0
 14 15  1  0
 11 16  1  0
 15 16  2  0
 16 17  1  0
 17 18  2  0
 17 19  1  0
 19 20  1  0
 20 21  1  0
 21 22  1  0
 22 23  1  0
 23 24  1  0
  7 25  1  0
  4 26  1  0
 25 26  1  0
M  END
